4cr9_ligand
     RDKit          3D

 25 26  0  0  0  0  0  0  0  0999 V2000
    1.2810    0.7210    0.6560 C   0  0  0  0  0  0  0  0  0  0  0  0
    0.1200    0.1190   -0.0950 C   0  0  0  0  0  0  0  0  0  0  0  0
   -0.3990    0.8020   -1.2020 C   0  0  0  0  0  0  0  0  0  0  0  0
   -1.4630    0.2680   -1.9210 C   0  0  0  0  0  0  0  0  0  0  0  0
   -2.0270    0.9480   -2.9840 N   0  0  0  0  0  0  0  0  0  0  0  0
   -2.0120   -0.8750   -1.5050 N   0  0  0  0  0  0  0  0  0  0  0  0
   -1.5690   -1.5850   -0.4520 C   0  0  0  0  0  0  0  0  0  0  0  0
   -2.2120   -2.7770   -0.0940 C   0  0  0  0  0  0  0  0  0  0  0  0
   -1.7580   -3.5140    1.0010 C   0  0  0  0  0  0  0  0  0  0  0  0
   -0.6420   -3.1000    1.7260 C   0  0  0  0  0  0  0  0  0  0  0  0
   -0.2830   -3.7660    2.8960 N   0  0  0  0  0  0  0  0  0  0  0  0
   -0.0380   -1.8810    1.3950 C   0  0  0  0  0  0  0  0  0  0  0  0
   -0.4680   -1.1070    0.2950 C   0  0  0  0  0  0  0  0  0  0  0  0
    1.1048    0.6296    1.7379 H   0  0  0  0  0  0  0  0  0  0  0  0
    2.2060    0.1889    0.3889 H   0  0  0  0  0  0  0  0  0  0  0  0
    1.3791    1.7836    0.3889 H   0  0  0  0  0  0  0  0  0  0  0  0
    0.0371    1.7656   -1.5043 H   0  0  0  0  0  0  0  0  0  0  0  0
   -2.7440    0.5180   -3.5580 H   0  0  0  0  0  0  0  0  0  0  0  0
   -1.3760    1.5030   -3.5390 H   0  0  0  0  0  0  0  0  0  0  0  0
   -2.8210   -1.2150   -2.0110 H   0  0  0  0  0  0  0  0  0  0  0  0
   -3.0751   -3.1323   -0.6761 H   0  0  0  0  0  0  0  0  0  0  0  0
   -2.2872   -4.4323    1.2952 H   0  0  0  0  0  0  0  0  0  0  0  0
   -1.0520   -4.0940    3.4740 H   0  0  0  0  0  0  0  0  0  0  0  0
    0.4450   -3.3240    3.4520 H   0  0  0  0  0  0  0  0  0  0  0  0
    0.7969   -1.5151    2.0106 H   0  0  0  0  0  0  0  0  0  0  0  0
  1  2  1  0
  2  3  2  0
  3  4  1  0
  4  5  1  0
  4  6  2  0
  6  7  1  0
  7  8  2  0
  8  9  1  0
  9 10  2  0
 10 11  1  0
 10 12  1  0
 12 13  2  0
 13  2  1  0
 13  7  1  0
  1 14  1  0
  1 15  1  0
  1 16  1  0
  3 17  1  0
  5 18  1  0
  5 19  1  0
  6 20  1  0
  8 21  1  0
  9 22  1  0
 11 23  1  0
 11 24  1  0
 12 25  1  0
M  CHG  1   6   1
M  END
>  <meeko>  (1) 
{"is_sidechain": [false], "free_energy": -7.581, "intermolecular_energy": -8.025, "internal_energy": 0.0}

$$$$
4cr9_ligand
     RDKit          3D

 25 26  0  0  0  0  0  0  0  0999 V2000
   -1.6850   -7.4800    5.5260 C   0  0  0  0  0  0  0  0  0  0  0  0
   -1.2030   -7.9530    4.1780 C   0  0  0  0  0  0  0  0  0  0  0  0
   -0.4990   -7.0620    3.3590 C   0  0  0  0  0  0  0  0  0  0  0  0
   -0.0330   -7.4710    2.1140 C   0  0  0  0  0  0  0  0  0  0  0  0
    0.6170   -6.5950    1.2640 N   0  0  0  0  0  0  0  0  0  0  0  0
   -0.3140   -8.7070    1.6950 N   0  0  0  0  0  0  0  0  0  0  0  0
   -0.9840   -9.6160    2.4250 C   0  0  0  0  0  0  0  0  0  0  0  0
   -1.2290  -10.8900    1.8980 C   0  0  0  0  0  0  0  0  0  0  0  0
   -1.9280  -11.8360    2.6510 C   0  0  0  0  0  0  0  0  0  0  0  0
   -2.3570  -11.5410    3.9440 C   0  0  0  0  0  0  0  0  0  0  0  0
   -3.1700  -12.4390    4.6320 N   0  0  0  0  0  0  0  0  0  0  0  0
   -2.1540  -10.2490    4.4430 C   0  0  0  0  0  0  0  0  0  0  0  0
   -1.4520   -9.2660    3.7120 C   0  0  0  0  0  0  0  0  0  0  0  0
   -1.1404   -8.0144    6.3184 H   0  0  0  0  0  0  0  0  0  0  0  0
   -1.5041   -6.3992    5.6216 H   0  0  0  0  0  0  0  0  0  0  0  0
   -2.7622   -7.6813    5.6216 H   0  0  0  0  0  0  0  0  0  0  0  0
   -0.3135   -6.0334    3.7019 H   0  0  0  0  0  0  0  0  0  0  0  0
    1.5960   -6.7210    1.0330 H   0  0  0  0  0  0  0  0  0  0  0  0
    0.3790   -5.6120    1.3900 H   0  0  0  0  0  0  0  0  0  0  0  0
   -0.0130   -8.9630    0.7630 H   0  0  0  0  0  0  0  0  0  0  0  0
   -0.8706  -11.1459    0.8900 H   0  0  0  0  0  0  0  0  0  0  0  0
   -2.1423  -12.8247    2.2190 H   0  0  0  0  0  0  0  0  0  0  0  0
   -4.0050  -12.7480    4.1410 H   0  0  0  0  0  0  0  0  0  0  0  0
   -3.3680  -12.2050    5.6010 H   0  0  0  0  0  0  0  0  0  0  0  0
   -2.5536   -9.9917    5.4350 H   0  0  0  0  0  0  0  0  0  0  0  0
  1  2  1  0
  2  3  2  0
  3  4  1  0
  4  5  1  0
  4  6  2  0
  6  7  1  0
  7  8  2  0
  8  9  1  0
  9 10  2  0
 10 11  1  0
 10 12  1  0
 12 13  2  0
 13  2  1  0
 13  7  1  0
  1 14  1  0
  1 15  1  0
  1 16  1  0
  3 17  1  0
  5 18  1  0
  5 19  1  0
  6 20  1  0
  8 21  1  0
  9 22  1  0
 11 23  1  0
 11 24  1  0
 12 25  1  0
M  CHG  1   6   1
M  END
>  <meeko>  (2) 
{"is_sidechain": [false], "free_energy": -7.338, "intermolecular_energy": -7.767, "internal_energy": 0.0}

$$$$
4cr9_ligand
     RDKit          3D

 25 26  0  0  0  0  0  0  0  0999 V2000
    1.6030   -1.1530   -0.9200 C   0  0  0  0  0  0  0  0  0  0  0  0
    0.4500   -0.9040    0.0190 C   0  0  0  0  0  0  0  0  0  0  0  0
    0.4180   -1.5760    1.2470 C   0  0  0  0  0  0  0  0  0  0  0  0
   -0.6270   -1.3600    2.1390 C   0  0  0  0  0  0  0  0  0  0  0  0
   -0.7100   -2.0520    3.3330 N   0  0  0  0  0  0  0  0  0  0  0  0
   -1.6210   -0.5440    1.7810 N   0  0  0  0  0  0  0  0  0  0  0  0
   -1.6590    0.1340    0.6200 C   0  0  0  0  0  0  0  0  0  0  0  0
   -2.7470    0.9690    0.3350 C   0  0  0  0  0  0  0  0  0  0  0  0
   -2.7910    1.6720   -0.8700 C   0  0  0  0  0  0  0  0  0  0  0  0
   -1.7440    1.5840   -1.7860 C   0  0  0  0  0  0  0  0  0  0  0  0
   -1.8620    2.1770   -3.0410 N   0  0  0  0  0  0  0  0  0  0  0  0
   -0.6870    0.7070   -1.5180 C   0  0  0  0  0  0  0  0  0  0  0  0
   -0.6060   -0.0210   -0.3100 C   0  0  0  0  0  0  0  0  0  0  0  0
    2.5148   -1.3499   -0.3370 H   0  0  0  0  0  0  0  0  0  0  0  0
    1.3781   -2.0233   -1.5541 H   0  0  0  0  0  0  0  0  0  0  0  0
    1.7573   -0.2675   -1.5541 H   0  0  0  0  0  0  0  0  0  0  0  0
    1.2235   -2.2784    1.5076 H   0  0  0  0  0  0  0  0  0  0  0  0
   -0.0560   -1.8730    4.0860 H   0  0  0  0  0  0  0  0  0  0  0  0
   -0.9280   -3.0440    3.2450 H   0  0  0  0  0  0  0  0  0  0  0  0
   -2.3980   -0.4470    2.4230 H   0  0  0  0  0  0  0  0  0  0  0  0
   -3.5670    1.0707    1.0611 H   0  0  0  0  0  0  0  0  0  0  0  0
   -3.6623    2.3030   -1.0995 H   0  0  0  0  0  0  0  0  0  0  0  0
   -1.1860    1.8790   -3.7380 H   0  0  0  0  0  0  0  0  0  0  0  0
   -1.9860    3.1860   -3.0440 H   0  0  0  0  0  0  0  0  0  0  0  0
    0.1050    0.5806   -2.2709 H   0  0  0  0  0  0  0  0  0  0  0  0
  1  2  1  0
  2  3  2  0
  3  4  1  0
  4  5  1  0
  4  6  2  0
  6  7  1  0
  7  8  2  0
  8  9  1  0
  9 10  2  0
 10 11  1  0
 10 12  1  0
 12 13  2  0
 13  2  1  0
 13  7  1  0
  1 14  1  0
  1 15  1  0
  1 16  1  0
  3 17  1  0
  5 18  1  0
  5 19  1  0
  6 20  1  0
  8 21  1  0
  9 22  1  0
 11 23  1  0
 11 24  1  0
 12 25  1  0
M  CHG  1   6   1
M  END
>  <meeko>  (3) 
{"is_sidechain": [false], "free_energy": -7.294, "intermolecular_energy": -7.72, "internal_energy": 0.0}

$$$$
4cr9_ligand
     RDKit          3D

 25 26  0  0  0  0  0  0  0  0999 V2000
    1.8690   -0.7190   -0.4870 C   0  0  0  0  0  0  0  0  0  0  0  0
    0.5110   -1.2500   -0.1060 C   0  0  0  0  0  0  0  0  0  0  0  0
    0.3690   -2.6160    0.1680 C   0  0  0  0  0  0  0  0  0  0  0  0
   -0.8690   -3.1360    0.5310 C   0  0  0  0  0  0  0  0  0  0  0  0
   -1.0460   -4.4880    0.7530 N   0  0  0  0  0  0  0  0  0  0  0  0
   -1.9250   -2.3190    0.5620 N   0  0  0  0  0  0  0  0  0  0  0  0
   -1.8660   -1.0000    0.3110 C   0  0  0  0  0  0  0  0  0  0  0  0
   -3.0320   -0.2250    0.3710 C   0  0  0  0  0  0  0  0  0  0  0  0
   -2.9750    1.1440    0.1080 C   0  0  0  0  0  0  0  0  0  0  0  0
   -1.7610    1.7660   -0.1790 C   0  0  0  0  0  0  0  0  0  0  0  0
   -1.7360    3.1010   -0.5740 N   0  0  0  0  0  0  0  0  0  0  0  0
   -0.6100    0.9760   -0.2880 C   0  0  0  0  0  0  0  0  0  0  0  0
   -0.6270   -0.4120   -0.0290 C   0  0  0  0  0  0  0  0  0  0  0  0
    2.4436   -0.4943    0.4237 H   0  0  0  0  0  0  0  0  0  0  0  0
    2.4044   -1.4740   -1.0814 H   0  0  0  0  0  0  0  0  0  0  0  0
    1.7502    0.1989   -1.0814 H   0  0  0  0  0  0  0  0  0  0  0  0
    1.2417   -3.2817    0.0957 H   0  0  0  0  0  0  0  0  0  0  0  0
   -1.8400   -4.8310    1.2820 H   0  0  0  0  0  0  0  0  0  0  0  0
   -0.1950   -5.0090    0.9630 H   0  0  0  0  0  0  0  0  0  0  0  0
   -2.8260   -2.7310    0.7740 H   0  0  0  0  0  0  0  0  0  0  0  0
   -3.9928   -0.6963    0.6256 H   0  0  0  0  0  0  0  0  0  0  0  0
   -3.8994    1.7398    0.1274 H   0  0  0  0  0  0  0  0  0  0  0  0
   -2.3350    3.3430   -1.3590 H   0  0  0  0  0  0  0  0  0  0  0  0
   -0.8140    3.5200   -0.6610 H   0  0  0  0  0  0  0  0  0  0  0  0
    0.3366    1.4513   -0.5845 H   0  0  0  0  0  0  0  0  0  0  0  0
  1  2  1  0
  2  3  2  0
  3  4  1  0
  4  5  1  0
  4  6  2  0
  6  7  1  0
  7  8  2  0
  8  9  1  0
  9 10  2  0
 10 11  1  0
 10 12  1  0
 12 13  2  0
 13  2  1  0
 13  7  1  0
  1 14  1  0
  1 15  1  0
  1 16  1  0
  3 17  1  0
  5 18  1  0
  5 19  1  0
  6 20  1  0
  8 21  1  0
  9 22  1  0
 11 23  1  0
 11 24  1  0
 12 25  1  0
M  CHG  1   6   1
M  END
>  <meeko>  (4) 
{"is_sidechain": [false], "free_energy": -7.011, "intermolecular_energy": -7.421, "internal_energy": 0.0}

$$$$
4cr9_ligand
     RDKit          3D

 25 26  0  0  0  0  0  0  0  0999 V2000
   -1.8750   -3.8160   -0.0110 C   0  0  0  0  0  0  0  0  0  0  0  0
   -1.1640   -2.7200    0.7420 C   0  0  0  0  0  0  0  0  0  0  0  0
   -0.6420   -2.9980    2.0110 C   0  0  0  0  0  0  0  0  0  0  0  0
    0.0280   -2.0110    2.7270 C   0  0  0  0  0  0  0  0  0  0  0  0
    0.5040   -2.2450    4.0030 N   0  0  0  0  0  0  0  0  0  0  0  0
    0.1150   -0.7850    2.2060 N   0  0  0  0  0  0  0  0  0  0  0  0
   -0.3620   -0.4450    0.9960 C   0  0  0  0  0  0  0  0  0  0  0  0
   -0.2190    0.8700    0.5340 C   0  0  0  0  0  0  0  0  0  0  0  0
   -0.7160    1.2290   -0.7200 C   0  0  0  0  0  0  0  0  0  0  0  0
   -1.3240    0.2820   -1.5430 C   0  0  0  0  0  0  0  0  0  0  0  0
   -1.9370    0.6790   -2.7290 N   0  0  0  0  0  0  0  0  0  0  0  0
   -1.5090   -1.0160   -1.0540 C   0  0  0  0  0  0  0  0  0  0  0  0
   -1.0210   -1.4170    0.2100 C   0  0  0  0  0  0  0  0  0  0  0  0
   -2.3297   -4.5170    0.7044 H   0  0  0  0  0  0  0  0  0  0  0  0
   -2.6604   -3.3765   -0.6434 H   0  0  0  0  0  0  0  0  0  0  0  0
   -1.1535   -4.3541   -0.6434 H   0  0  0  0  0  0  0  0  0  0  0  0
   -0.7622   -4.0019    2.4442 H   0  0  0  0  0  0  0  0  0  0  0  0
   -0.1230   -2.2650    4.7990 H   0  0  0  0  0  0  0  0  0  0  0  0
    1.3890   -1.7910    4.2260 H   0  0  0  0  0  0  0  0  0  0  0  0
    0.5570   -0.0700    2.7700 H   0  0  0  0  0  0  0  0  0  0  0  0
    0.2856    1.6204    1.1603 H   0  0  0  0  0  0  0  0  0  0  0  0
   -0.6270    2.2705   -1.0626 H   0  0  0  0  0  0  0  0  0  0  0  0
   -2.6100    1.4370   -2.6490 H   0  0  0  0  0  0  0  0  0  0  0  0
   -2.2820   -0.0710   -3.3220 H   0  0  0  0  0  0  0  0  0  0  0  0
   -2.0509   -1.7466   -1.6725 H   0  0  0  0  0  0  0  0  0  0  0  0
  1  2  1  0
  2  3  2  0
  3  4  1  0
  4  5  1  0
  4  6  2  0
  6  7  1  0
  7  8  2  0
  8  9  1  0
  9 10  2  0
 10 11  1  0
 10 12  1  0
 12 13  2  0
 13  2  1  0
 13  7  1  0
  1 14  1  0
  1 15  1  0
  1 16  1  0
  3 17  1  0
  5 18  1  0
  5 19  1  0
  6 20  1  0
  8 21  1  0
  9 22  1  0
 11 23  1  0
 11 24  1  0
 12 25  1  0
M  CHG  1   6   1
M  END
>  <meeko>  (5) 
{"is_sidechain": [false], "free_energy": -6.948, "intermolecular_energy": -7.354, "internal_energy": 0.0}

$$$$
4cr9_ligand
     RDKit          3D

 25 26  0  0  0  0  0  0  0  0999 V2000
   -2.3570    3.4260   -0.4620 C   0  0  0  0  0  0  0  0  0  0  0  0
   -3.3160    4.1330   -1.3870 C   0  0  0  0  0  0  0  0  0  0  0  0
   -4.5990    3.6000   -1.5680 C   0  0  0  0  0  0  0  0  0  0  0  0
   -5.5100    4.2340   -2.4070 C   0  0  0  0  0  0  0  0  0  0  0  0
   -6.7630    3.7000   -2.6440 N   0  0  0  0  0  0  0  0  0  0  0  0
   -5.1220    5.3230   -3.0730 N   0  0  0  0  0  0  0  0  0  0  0  0
   -3.9080    5.8900   -2.9510 C   0  0  0  0  0  0  0  0  0  0  0  0
   -3.5950    7.0360   -3.6930 C   0  0  0  0  0  0  0  0  0  0  0  0
   -2.3360    7.6250   -3.5720 C   0  0  0  0  0  0  0  0  0  0  0  0
   -1.3890    7.1080   -2.6880 C   0  0  0  0  0  0  0  0  0  0  0  0
   -0.0930    7.6180   -2.6760 N   0  0  0  0  0  0  0  0  0  0  0  0
   -1.6910    5.9330   -1.9890 C   0  0  0  0  0  0  0  0  0  0  0  0
   -2.9540    5.3080   -2.0850 C   0  0  0  0  0  0  0  0  0  0  0  0
   -2.6358    3.6315    0.5820 H   0  0  0  0  0  0  0  0  0  0  0  0
   -2.4009    2.3425   -0.6467 H   0  0  0  0  0  0  0  0  0  0  0  0
   -1.3350    3.7884   -0.6467 H   0  0  0  0  0  0  0  0  0  0  0  0
   -4.8873    2.6764   -1.0446 H   0  0  0  0  0  0  0  0  0  0  0  0
   -6.9670    2.7310   -2.4250 H   0  0  0  0  0  0  0  0  0  0  0  0
   -7.2020    3.9950   -3.5150 H   0  0  0  0  0  0  0  0  0  0  0  0
   -5.7840    5.7340   -3.7210 H   0  0  0  0  0  0  0  0  0  0  0  0
   -4.3426    7.4721   -4.3719 H   0  0  0  0  0  0  0  0  0  0  0  0
   -2.0874    8.5070   -4.1806 H   0  0  0  0  0  0  0  0  0  0  0  0
    0.0320    8.5030   -2.1910 H   0  0  0  0  0  0  0  0  0  0  0  0
    0.3970    7.6040   -3.5670 H   0  0  0  0  0  0  0  0  0  0  0  0
   -0.9210    5.4828   -1.3453 H   0  0  0  0  0  0  0  0  0  0  0  0
  1  2  1  0
  2  3  2  0
  3  4  1  0
  4  5  1  0
  4  6  2  0
  6  7  1  0
  7  8  2  0
  8  9  1  0
  9 10  2  0
 10 11  1  0
 10 12  1  0
 12 13  2  0
 13  2  1  0
 13  7  1  0
  1 14  1  0
  1 15  1  0
  1 16  1  0
  3 17  1  0
  5 18  1  0
  5 19  1  0
  6 20  1  0
  8 21  1  0
  9 22  1  0
 11 23  1  0
 11 24  1  0
 12 25  1  0
M  CHG  1   6   1
M  END
>  <meeko>  (6) 
{"is_sidechain": [false], "free_energy": -6.884, "intermolecular_energy": -7.287, "internal_energy": 0.0}

$$$$
4cr9_ligand
     RDKit          3D

 25 26  0  0  0  0  0  0  0  0999 V2000
   -3.4190    1.6250    0.2920 C   0  0  0  0  0  0  0  0  0  0  0  0
   -2.3270    1.0770   -0.5920 C   0  0  0  0  0  0  0  0  0  0  0  0
   -2.2450    1.5170   -1.9190 C   0  0  0  0  0  0  0  0  0  0  0  0
   -1.2430    1.0380   -2.7570 C   0  0  0  0  0  0  0  0  0  0  0  0
   -1.1730    1.4150   -4.0850 N   0  0  0  0  0  0  0  0  0  0  0  0
   -0.3980    0.1160   -2.2890 N   0  0  0  0  0  0  0  0  0  0  0  0
   -0.4170   -0.3530   -1.0290 C   0  0  0  0  0  0  0  0  0  0  0  0
    0.5150   -1.3200   -0.6310 C   0  0  0  0  0  0  0  0  0  0  0  0
    0.4970   -1.8130    0.6750 C   0  0  0  0  0  0  0  0  0  0  0  0
   -0.4170   -1.3250    1.6090 C   0  0  0  0  0  0  0  0  0  0  0  0
   -0.5170   -1.9190    2.8640 N   0  0  0  0  0  0  0  0  0  0  0  0
   -1.3770   -0.3970    1.1890 C   0  0  0  0  0  0  0  0  0  0  0  0
   -1.3920    0.1250   -0.1240 C   0  0  0  0  0  0  0  0  0  0  0  0
   -3.1412    1.4856    1.3472 H   0  0  0  0  0  0  0  0  0  0  0  0
   -3.5533    2.6973    0.0868 H   0  0  0  0  0  0  0  0  0  0  0  0
   -4.3590    1.0918    0.0868 H   0  0  0  0  0  0  0  0  0  0  0  0
   -2.9763    2.2448   -2.3006 H   0  0  0  0  0  0  0  0  0  0  0  0
   -1.9210    1.1890   -4.7310 H   0  0  0  0  0  0  0  0  0  0  0  0
   -0.2550    1.3170   -4.5160 H   0  0  0  0  0  0  0  0  0  0  0  0
    0.2870   -0.2580   -2.9340 H   0  0  0  0  0  0  0  0  0  0  0  0
    1.2618   -1.6913   -1.3482 H   0  0  0  0  0  0  0  0  0  0  0  0
    1.2117   -2.5951    0.9709 H   0  0  0  0  0  0  0  0  0  0  0  0
    0.3220   -1.8880    3.4380 H   0  0  0  0  0  0  0  0  0  0  0  0
   -0.9560   -2.8350    2.8870 H   0  0  0  0  0  0  0  0  0  0  0  0
   -2.1439   -0.0636    1.9036 H   0  0  0  0  0  0  0  0  0  0  0  0
  1  2  1  0
  2  3  2  0
  3  4  1  0
  4  5  1  0
  4  6  2  0
  6  7  1  0
  7  8  2  0
  8  9  1  0
  9 10  2  0
 10 11  1  0
 10 12  1  0
 12 13  2  0
 13  2  1  0
 13  7  1  0
  1 14  1  0
  1 15  1  0
  1 16  1  0
  3 17  1  0
  5 18  1  0
  5 19  1  0
  6 20  1  0
  8 21  1  0
  9 22  1  0
 11 23  1  0
 11 24  1  0
 12 25  1  0
M  CHG  1   6   1
M  END
>  <meeko>  (7) 
{"is_sidechain": [false], "free_energy": -6.731, "intermolecular_energy": -7.125, "internal_energy": 0.0}

$$$$
4cr9_ligand
     RDKit          3D

 25 26  0  0  0  0  0  0  0  0999 V2000
    0.3220   -1.9340    3.3770 C   0  0  0  0  0  0  0  0  0  0  0  0
   -0.3790   -2.5080    2.1720 C   0  0  0  0  0  0  0  0  0  0  0  0
   -0.4030   -3.8970    1.9990 C   0  0  0  0  0  0  0  0  0  0  0  0
   -1.0500   -4.4580    0.9030 C   0  0  0  0  0  0  0  0  0  0  0  0
   -1.0410   -5.8230    0.6810 N   0  0  0  0  0  0  0  0  0  0  0  0
   -1.5990   -3.6470   -0.0050 N   0  0  0  0  0  0  0  0  0  0  0  0
   -1.6140   -2.3060    0.0940 C   0  0  0  0  0  0  0  0  0  0  0  0
   -2.2180   -1.5400   -0.9120 C   0  0  0  0  0  0  0  0  0  0  0  0
   -2.2330   -0.1480   -0.8150 C   0  0  0  0  0  0  0  0  0  0  0  0
   -1.6850    0.4960    0.2930 C   0  0  0  0  0  0  0  0  0  0  0  0
   -1.5820    1.8850    0.3140 N   0  0  0  0  0  0  0  0  0  0  0  0
   -1.0380   -0.2730    1.2670 C   0  0  0  0  0  0  0  0  0  0  0  0
   -1.0020   -1.6840    1.2050 C   0  0  0  0  0  0  0  0  0  0  0  0
   -0.1489   -2.3196    4.2933 H   0  0  0  0  0  0  0  0  0  0  0  0
    1.3822   -2.2267    3.3584 H   0  0  0  0  0  0  0  0  0  0  0  0
    0.2442   -0.8369    3.3584 H   0  0  0  0  0  0  0  0  0  0  0  0
    0.0926   -4.5483    2.7339 H   0  0  0  0  0  0  0  0  0  0  0  0
   -0.2060   -6.3730    0.8470 H   0  0  0  0  0  0  0  0  0  0  0  0
   -1.5400   -6.1300   -0.1530 H   0  0  0  0  0  0  0  0  0  0  0  0
   -2.0140   -4.0770   -0.8230 H   0  0  0  0  0  0  0  0  0  0  0  0
   -2.6803   -2.0360   -1.7782 H   0  0  0  0  0  0  0  0  0  0  0  0
   -2.6827    0.4482   -1.6227 H   0  0  0  0  0  0  0  0  0  0  0  0
   -1.3790    2.3020    1.2190 H   0  0  0  0  0  0  0  0  0  0  0  0
   -2.3140    2.3910   -0.1780 H   0  0  0  0  0  0  0  0  0  0  0  0
   -0.5424    0.2367    2.1064 H   0  0  0  0  0  0  0  0  0  0  0  0
  1  2  1  0
  2  3  2  0
  3  4  1  0
  4  5  1  0
  4  6  2  0
  6  7  1  0
  7  8  2  0
  8  9  1  0
  9 10  2  0
 10 11  1  0
 10 12  1  0
 12 13  2  0
 13  2  1  0
 13  7  1  0
  1 14  1  0
  1 15  1  0
  1 16  1  0
  3 17  1  0
  5 18  1  0
  5 19  1  0
  6 20  1  0
  8 21  1  0
  9 22  1  0
 11 23  1  0
 11 24  1  0
 12 25  1  0
M  CHG  1   6   1
M  END
>  <meeko>  (8) 
{"is_sidechain": [false], "free_energy": -6.703, "intermolecular_energy": -7.095, "internal_energy": 0.0}

$$$$
