
     RDKit          3D

  9  9  0  0  0  0  0  0  0  0999 V2000
  -10.0040   -4.0880   -0.0760 N   0  0  0  0  0  0  0  0  0  0  0  0
  -10.0150   -4.8020   -1.1730 C   0  0  0  0  0  0  0  0  0  0  0  0
  -11.1200   -5.4970   -1.4450 N   0  0  0  0  0  0  0  0  0  0  0  0
   -8.8570   -4.8210   -2.1100 C   0  0  0  0  0  0  0  0  0  0  0  0
   -7.6070   -4.3510   -1.6870 C   0  0  0  0  0  0  0  0  0  0  0  0
   -6.5400   -4.3410   -2.5610 C   0  0  0  0  0  0  0  0  0  0  0  0
   -6.7010   -4.7980   -3.8500 C   0  0  0  0  0  0  0  0  0  0  0  0
   -7.9360   -5.2700   -4.2770 C   0  0  0  0  0  0  0  0  0  0  0  0
   -9.0100   -5.2830   -3.4170 C   0  0  0  0  0  0  0  0  0  0  0  0
  2  1  1  0
  3  2  2  0
  4  2  1  0
  5  4  2  0
  6  5  1  0
  7  6  2  0
  8  7  1  0
  9  8  2  0
  9  4  1  0
M  CHG  1   3   1
M  END
$$$$
