
     RDKit          3D

 25 28  0  0  0  0  0  0  0  0999 V2000
   -8.4620    0.7520   -5.0140 N   0  0  0  0  0  0  0  0  0  0  0  0
   -8.6010    0.1370   -6.1830 C   0  0  0  0  0  0  0  0  0  0  0  0
   -9.6710    0.4050   -6.9320 N   0  0  0  0  0  0  0  0  0  0  0  0
   -7.5700   -0.8110   -6.6520 C   0  0  0  0  0  0  0  0  0  0  0  0
   -6.4710   -1.0920   -5.8320 C   0  0  0  0  0  0  0  0  0  0  0  0
   -5.4630   -1.9510   -6.2230 C   0  0  0  0  0  0  0  0  0  0  0  0
   -5.5630   -2.5480   -7.4820 C   0  0  0  0  0  0  0  0  0  0  0  0
   -4.7330   -3.3950   -8.1040 N   0  0  0  0  0  0  0  0  0  0  0  0
   -5.2420   -3.6960   -9.3200 C   0  0  0  0  0  0  0  0  0  0  0  0
   -4.5890   -4.5910  -10.2750 C   0  0  0  0  0  0  0  0  0  0  0  0
   -5.1590   -4.8260  -11.5400 C   0  0  0  0  0  0  0  0  0  0  0  0
   -4.5170   -5.6650  -12.4460 C   0  0  0  0  0  0  0  0  0  0  0  0
   -3.3140   -6.2830  -12.1270 C   0  0  0  0  0  0  0  0  0  0  0  0
   -2.7450   -6.0620  -10.8770 C   0  0  0  0  0  0  0  0  0  0  0  0
   -1.4740   -6.7350  -10.5360 C   0  0  0  0  0  0  0  0  0  0  0  0
   -1.4540   -8.1000  -10.2920 C   0  0  0  0  0  0  0  0  0  0  0  0
   -0.2480   -8.7340   -9.9580 C   0  0  0  0  0  0  0  0  0  0  0  0
    0.9440   -7.9930   -9.8920 C   0  0  0  0  0  0  0  0  0  0  0  0
    0.9170   -6.6200  -10.1460 C   0  0  0  0  0  0  0  0  0  0  0  0
   -0.2900   -5.9940  -10.4720 C   0  0  0  0  0  0  0  0  0  0  0  0
   -3.3670   -5.2300   -9.9490 C   0  0  0  0  0  0  0  0  0  0  0  0
   -2.8100   -5.0430   -8.7360 O   0  0  0  0  0  0  0  0  0  0  0  0
   -6.4430   -3.0190   -9.5080 C   0  0  0  0  0  0  0  0  0  0  0  0
   -6.6560   -2.2820   -8.3340 C   0  0  0  0  0  0  0  0  0  0  0  0
   -7.6590   -1.4170   -7.9100 C   0  0  0  0  0  0  0  0  0  0  0  0
  2  1  2  0
  3  2  1  0
  4  2  1  0
  5  4  2  0
  6  5  1  0
  7  6  2  0
  8  7  1  0
  9  8  1  0
 10  9  1  0
 11 10  2  0
 12 11  1  0
 13 12  2  0
 14 13  1  0
 15 14  1  0
 16 15  2  0
 17 16  1  0
 18 17  2  0
 19 18  1  0
 20 19  2  0
 20 15  1  0
 21 14  2  0
 21 10  1  0
 22 21  1  0
 23  9  2  0
 24 23  1  0
 24  7  1  0
 25 24  2  0
 25  4  1  0
M  CHG  1   1   1
M  END
$$$$
