
     RDKit          3D

 21 22  0  0  0  0  0  0  0  0999 V2000
    0.1680   -3.0540   -2.6070 C   0  0  0  0  0  0  0  0  0  0  0  0
   -1.0920   -3.5780   -3.1560 N   0  0  0  0  0  0  0  0  0  0  0  0
   -1.7180   -4.5210   -2.2270 C   0  0  1  0  0  0  0  0  0  0  0  0
   -2.1890   -3.7890   -0.9800 C   0  0  1  0  0  0  0  0  0  0  0  0
   -2.9090   -2.6000   -1.3060 O   0  0  0  0  0  0  0  0  0  0  0  0
   -3.9340   -2.3600   -0.3110 C   0  0  1  0  0  0  0  0  0  0  0  0
   -3.5490   -1.1000    0.4440 C   0  0  0  0  0  0  0  0  0  0  0  0
   -3.5830    0.1790   -0.4140 C   0  0  2  0  0  0  0  0  0  0  0  0
   -2.3570    0.3060   -1.2310 N   0  0  0  0  0  0  0  0  0  0  0  0
   -3.7110    1.3820    0.5210 C   0  0  0  0  0  0  0  0  0  0  0  0
   -4.6020    1.3910    1.3830 O   0  0  0  0  0  0  0  0  0  0  0  0
   -2.9060    2.3330    0.3920 O   0  0  0  0  0  0  0  0  0  0  0  0
   -5.2970   -2.2990   -0.9880 C   0  0  0  0  0  0  0  0  0  0  0  0
   -6.2870   -2.0050   -0.2880 O   0  0  0  0  0  0  0  0  0  0  0  0
   -5.3770   -2.4750   -2.1970 O   0  0  0  0  0  0  0  0  0  0  0  0
   -3.8800   -3.5500    0.6860 C   0  0  0  0  0  0  0  0  0  0  0  0
   -3.1670   -4.6240   -0.1100 C   0  0  1  0  0  0  0  0  0  0  0  0
   -4.1520   -5.2810   -0.8980 O   0  0  0  0  0  0  0  0  0  0  0  0
   -3.6190   -6.1450   -1.9360 C   0  0  0  0  0  0  0  0  0  0  0  0
   -2.8650   -5.2710   -2.9400 C   0  0  1  0  0  0  0  0  0  0  0  0
   -3.7840   -4.3550   -3.5170 O   0  0  0  0  0  0  0  0  0  0  0  0
  2  1  1  0
  3  2  1  6
  4  3  1  0
  4  5  1  6
  6  5  1  0
  6  7  1  1
  8  7  1  0
  8  9  1  1
 10  8  1  0
 11 10  2  0
 12 10  1  0
 13  6  1  0
 14 13  2  0
 15 13  1  0
 16  6  1  0
 17 16  1  1
 17  4  1  0
 18 17  1  0
 19 18  1  0
 20 19  1  0
 20  3  1  0
 20 21  1  1
M  CHG  4   2   1   9   1  12  -1  15  -1
M  END
$$$$
