
     RDKit          3D

 13 14  0  0  0  0  0  0  0  0999 V2000
    3.0160  -14.5400   18.6230 C   0  0  0  0  0  0  0  0  0  0  0  0
    1.6780  -15.1600   18.8290 C   0  0  0  0  0  0  0  0  0  0  0  0
    0.9650  -15.6570   17.7420 C   0  0  0  0  0  0  0  0  0  0  0  0
   -0.2890  -16.2440   17.9320 C   0  0  0  0  0  0  0  0  0  0  0  0
   -0.9820  -16.7330   16.8520 N   0  0  0  0  0  0  0  0  0  0  0  0
   -0.8390  -16.3310   19.1560 N   0  0  0  0  0  0  0  0  0  0  0  0
   -0.1740  -15.8580   20.2560 C   0  0  0  0  0  0  0  0  0  0  0  0
   -0.7520  -15.9680   21.5060 C   0  0  0  0  0  0  0  0  0  0  0  0
   -0.0970  -15.4960   22.6140 C   0  0  0  0  0  0  0  0  0  0  0  0
    1.1520  -14.9000   22.5150 C   0  0  0  0  0  0  0  0  0  0  0  0
    1.7880  -14.4250   23.6680 N   0  0  0  0  0  0  0  0  0  0  0  0
    1.7610  -14.7750   21.2680 C   0  0  0  0  0  0  0  0  0  0  0  0
    1.1150  -15.2520   20.1300 C   0  0  0  0  0  0  0  0  0  0  0  0
  2  1  1  0
  3  2  2  0
  4  3  1  0
  5  4  1  0
  6  4  2  0
  7  6  1  0
  8  7  2  0
  9  8  1  0
 10  9  2  0
 11 10  1  0
 12 10  1  0
 13 12  2  0
 13  7  1  0
 13  2  1  0
M  CHG  1   6   1
M  END
$$$$
