
     RDKit          3D

 18 19  0  0  0  0  0  0  0  0999 V2000
   -1.6870   -1.7780    1.5630 N   0  0  0  0  0  0  0  0  0  0  0  0
   -1.8070   -1.5320    3.0140 C   0  0  1  0  0  0  0  0  0  0  0  0
   -0.5730   -0.7830    3.5740 C   0  0  0  0  0  0  0  0  0  0  0  0
    0.6190   -1.6750    3.7400 C   0  0  2  0  0  0  0  0  0  0  0  0
    0.4000   -2.8660    4.6690 C   0  0  0  0  0  0  0  0  0  0  0  0
   -0.1220   -2.6630    5.7760 O   0  0  0  0  0  0  0  0  0  0  0  0
    0.6950   -3.9810    4.2740 O   0  0  0  0  0  0  0  0  0  0  0  0
    1.8080   -0.8310    4.2520 C   0  0  0  0  0  0  0  0  0  0  0  0
    2.9570   -1.1670    3.3100 C   0  0  1  0  0  0  0  0  0  0  0  0
    3.5930   -2.3330    3.8370 O   0  0  0  0  0  0  0  0  0  0  0  0
    4.5060   -2.9890    2.9260 C   0  0  0  0  0  0  0  0  0  0  0  0
    3.6780   -3.4620    1.7040 C   0  0  0  0  0  0  0  0  0  0  0  0
    3.0040   -2.2660    1.0240 C   0  0  0  0  0  0  0  0  0  0  0  0
    2.1810   -1.4400    2.0100 C   0  0  1  0  0  0  0  0  0  0  0  0
    0.9990   -2.1430    2.4140 O   0  0  0  0  0  0  0  0  0  0  0  0
   -3.0550   -0.6860    3.2980 C   0  0  0  0  0  0  0  0  0  0  0  0
   -3.2610   -0.2770    4.4560 O   0  0  0  0  0  0  0  0  0  0  0  0
   -3.8290   -0.4330    2.3640 O   0  0  0  0  0  0  0  0  0  0  0  0
  2  1  1  6
  3  2  1  0
  4  3  1  6
  5  4  1  0
  6  5  2  0
  7  5  1  0
  8  4  1  0
  9  8  1  1
 10  9  1  0
 11 10  1  0
 12 11  1  0
 13 12  1  0
 14 13  1  6
 14  9  1  0
 15 14  1  0
 15  4  1  0
 16  2  1  0
 17 16  1  0
 18 16  2  0
M  CHG  3   1   1   7  -1  17  -1
M  END
$$$$
