
     RDKit          3D

 27 28  0  0  0  0  0  0  0  0999 V2000
  -14.4720   -3.3660   -4.2740 C   0  0  0  0  0  0  0  0  0  0  0  0
  -13.4750   -2.5000   -4.9800 C   0  0  0  0  0  0  0  0  0  0  0  0
  -13.5680   -2.5750   -6.5120 C   0  0  0  0  0  0  0  0  0  0  0  0
  -12.5890   -1.6710   -7.2090 C   0  0  0  0  0  0  0  0  0  0  0  0
  -12.0130   -0.7930   -6.6150 O   0  0  0  0  0  0  0  0  0  0  0  0
  -12.4010   -1.8810   -8.5500 N   0  0  0  0  0  0  0  0  0  0  0  0
  -11.4160   -1.1240   -9.3550 C   0  0  1  0  0  0  0  0  0  0  0  0
  -11.7160    0.3520   -9.3100 C   0  0  0  0  0  0  0  0  0  0  0  0
  -12.8340    0.7590   -9.8060 N   0  0  0  0  0  0  0  0  0  0  0  0
  -13.0500    2.1000   -9.8820 O   0  0  0  0  0  0  0  0  0  0  0  0
  -13.4730    2.7000  -11.0720 C   0  0  0  0  0  0  0  0  0  0  0  0
  -13.2860    3.9010  -11.2090 O   0  0  0  0  0  0  0  0  0  0  0  0
  -14.0850    1.9200  -12.0150 N   0  0  0  0  0  0  0  0  0  0  0  0
  -14.6100    2.3540  -13.2620 C   0  0  0  0  0  0  0  0  0  0  0  0
  -14.0380    3.4200  -13.9590 C   0  0  0  0  0  0  0  0  0  0  0  0
  -14.5770    3.8300  -15.1930 C   0  0  0  0  0  0  0  0  0  0  0  0
  -15.6690    3.1690  -15.7220 C   0  0  0  0  0  0  0  0  0  0  0  0
  -16.2200    2.0960  -15.0340 C   0  0  0  0  0  0  0  0  0  0  0  0
  -15.6910    1.6840  -13.7950 C   0  0  0  0  0  0  0  0  0  0  0  0
  -10.7590    1.2680   -8.9750 O   0  0  0  0  0  0  0  0  0  0  0  0
   -9.4680    0.9000   -8.5340 C   0  0  2  0  0  0  0  0  0  0  0  0
   -8.5210    2.1080   -8.7170 C   0  0  0  0  0  0  0  0  0  0  0  0
   -8.4710    2.5140  -10.0740 O   0  0  0  0  0  0  0  0  0  0  0  0
   -9.0210   -0.3460   -9.2940 C   0  0  1  0  0  0  0  0  0  0  0  0
   -7.6960   -0.6860   -8.9270 O   0  0  0  0  0  0  0  0  0  0  0  0
   -9.9840   -1.4550   -8.9360 C   0  0  2  0  0  0  0  0  0  0  0  0
   -9.6210   -2.6580   -9.5780 O   0  0  0  0  0  0  0  0  0  0  0  0
  2  1  1  0
  3  2  1  0
  4  3  1  0
  5  4  2  0
  6  4  1  0
  7  6  1  1
  8  7  1  0
  9  8  2  3
 10  9  1  0
 11 10  1  0
 12 11  2  0
 13 11  1  0
 14 13  1  0
 15 14  2  0
 16 15  1  0
 17 16  2  0
 18 17  1  0
 19 18  2  0
 19 14  1  0
 20  8  1  0
 21 20  1  0
 21 22  1  6
 23 22  1  0
 24 21  1  0
 24 25  1  1
 26  7  1  0
 26 24  1  0
 26 27  1  6
M  END
$$$$
