3jvs_ligand
     RDKit          3D

 52 54  0  0  0  0  0  0  0  0999 V2000
    6.3570   -0.3080    9.8850 C   0  0  0  0  0  0  0  0  0  0  0  0
    6.1610    0.7660   10.9750 C   0  0  0  0  0  0  0  0  0  0  0  0
    6.9870    0.3090   12.2110 C   0  0  0  0  0  0  0  0  0  0  0  0
    6.8270    2.0860   10.5220 C   0  0  0  0  0  0  0  0  0  0  0  0
    4.6470    0.9020   11.2820 C   0  0  0  0  0  0  0  0  0  0  0  0
    3.7320    0.0200   10.6630 C   0  0  0  0  0  0  0  0  0  0  0  0
    2.3450    0.0810   10.8880 C   0  0  0  0  0  0  0  0  0  0  0  0
    1.8080    1.0480   11.7370 C   0  0  0  0  0  0  0  0  0  0  0  0
    0.3500    1.1550   12.0140 C   0  0  0  0  0  0  0  0  0  0  0  0
   -0.0800    1.0510   13.1600 O   0  0  0  0  0  0  0  0  0  0  0  0
   -0.4760    1.4080   10.9340 N   0  0  0  0  0  0  0  0  0  0  0  0
   -1.8100    1.7800   11.2450 N   0  0  0  0  0  0  0  0  0  0  0  0
   -2.1140    3.1260   11.0550 C   0  0  0  0  0  0  0  0  0  0  0  0
   -1.3210    3.8790   10.4980 O   0  0  0  0  0  0  0  0  0  0  0  0
   -3.3700    3.4220   11.5380 N   0  0  0  0  0  0  0  0  0  0  0  0
   -4.0160    4.6830   11.5950 C   0  0  0  0  0  0  0  0  0  0  0  0
   -3.3160    5.8650   11.3160 C   0  0  0  0  0  0  0  0  0  0  0  0
   -3.9460    7.1040   11.3810 C   0  0  0  0  0  0  0  0  0  0  0  0
   -5.2880    7.1840   11.7320 C   0  0  0  0  0  0  0  0  0  0  0  0
   -6.0220    6.0280   12.0260 C   0  0  0  0  0  0  0  0  0  0  0  0
   -7.3760    6.1480   12.3800 C   0  0  0  0  0  0  0  0  0  0  0  0
   -8.1430    5.0260   12.6820 C   0  0  0  0  0  0  0  0  0  0  0  0
   -7.5640    3.7680   12.6310 C   0  0  0  0  0  0  0  0  0  0  0  0
   -6.2170    3.6320   12.2790 C   0  0  0  0  0  0  0  0  0  0  0  0
   -5.4000    4.7510   11.9650 C   0  0  0  0  0  0  0  0  0  0  0  0
    2.6710    1.9430   12.3670 C   0  0  0  0  0  0  0  0  0  0  0  0
    4.0570    1.8710   12.1290 C   0  0  0  0  0  0  0  0  0  0  0  0
    4.8270    2.8950   12.8080 N   0  0  0  0  0  0  0  0  0  0  0  0
    5.3430    2.5810   13.8890 O   0  0  0  0  0  0  0  0  0  0  0  0
    4.8700    4.0120   12.2790 O   0  0  0  0  0  0  0  0  0  0  0  0
    6.5351   -1.2841   10.3599 H   0  0  0  0  0  0  0  0  0  0  0  0
    5.4543   -0.3641    9.2590 H   0  0  0  0  0  0  0  0  0  0  0  0
    7.2214   -0.0416    9.2590 H   0  0  0  0  0  0  0  0  0  0  0  0
    6.4606    0.6003   13.1319 H   0  0  0  0  0  0  0  0  0  0  0  0
    7.1075   -0.7841   12.1877 H   0  0  0  0  0  0  0  0  0  0  0  0
    7.9771    0.7876   12.1877 H   0  0  0  0  0  0  0  0  0  0  0  0
    7.1218    2.6702   11.4062 H   0  0  0  0  0  0  0  0  0  0  0  0
    7.7184    1.8588    9.9188 H   0  0  0  0  0  0  0  0  0  0  0  0
    6.1146    2.6680    9.9188 H   0  0  0  0  0  0  0  0  0  0  0  0
    4.1212   -0.7463    9.9765 H   0  0  0  0  0  0  0  0  0  0  0  0
    1.6790   -0.6394   10.3906 H   0  0  0  0  0  0  0  0  0  0  0  0
   -0.1080    1.8710   10.1020 H   0  0  0  0  0  0  0  0  0  0  0  0
   -2.1360    1.3600   12.1160 H   0  0  0  0  0  0  0  0  0  0  0  0
   -3.9210    2.6140   11.7700 H   0  0  0  0  0  0  0  0  0  0  0  0
   -2.2521    5.8123   11.0414 H   0  0  0  0  0  0  0  0  0  0  0  0
   -3.3814    8.0204   11.1544 H   0  0  0  0  0  0  0  0  0  0  0  0
   -5.7797    8.1668   11.7795 H   0  0  0  0  0  0  0  0  0  0  0  0
   -7.8382    7.1454   12.4193 H   0  0  0  0  0  0  0  0  0  0  0  0
   -9.2016    5.1374   12.9593 H   0  0  0  0  0  0  0  0  0  0  0  0
   -8.1635    2.8765   12.8673 H   0  0  0  0  0  0  0  0  0  0  0  0
   -5.7757    2.6250   12.2442 H   0  0  0  0  0  0  0  0  0  0  0  0
    2.2693    2.7057   13.0503 H   0  0  0  0  0  0  0  0  0  0  0  0
  1  2  1  0
  2  3  1  0
  2  4  1  0
  2  5  1  0
  5  6  2  0
  6  7  1  0
  7  8  2  0
  8  9  1  0
  9 10  2  0
  9 11  1  0
 11 12  1  0
 12 13  1  0
 13 14  2  0
 13 15  1  0
 15 16  1  0
 16 17  2  0
 17 18  1  0
 18 19  2  0
 19 20  1  0
 20 21  2  0
 21 22  1  0
 22 23  2  0
 23 24  1  0
 24 25  2  0
  8 26  1  0
 26 27  2  0
 27 28  1  0
 28 29  2  0
 28 30  1  0
 27  5  1  0
 25 16  1  0
 25 20  1  0
  1 31  1  0
  1 32  1  0
  1 33  1  0
  3 34  1  0
  3 35  1  0
  3 36  1  0
  4 37  1  0
  4 38  1  0
  4 39  1  0
  6 40  1  0
  7 41  1  0
 11 42  1  0
 12 43  1  0
 15 44  1  0
 17 45  1  0
 18 46  1  0
 19 47  1  0
 21 48  1  0
 22 49  1  0
 23 50  1  0
 24 51  1  0
 26 52  1  0
M  CHG  2  28   1  30  -1
M  END
>  <meeko>  (1) 
{"is_sidechain": [false], "free_energy": -9.002, "intermolecular_energy": -11.634, "internal_energy": -0.075}

$$$$
3jvs_ligand
     RDKit          3D

 52 54  0  0  0  0  0  0  0  0999 V2000
    7.3080    2.5450   12.6590 C   0  0  0  0  0  0  0  0  0  0  0  0
    6.3530    3.0730   11.5690 C   0  0  0  0  0  0  0  0  0  0  0  0
    6.7280    4.5630   11.3250 C   0  0  0  0  0  0  0  0  0  0  0  0
    6.6580    2.3640   10.2300 C   0  0  0  0  0  0  0  0  0  0  0  0
    4.8890    2.8950   12.0520 C   0  0  0  0  0  0  0  0  0  0  0  0
    4.1710    4.0210   12.5160 C   0  0  0  0  0  0  0  0  0  0  0  0
    2.8430    3.9420   12.9730 C   0  0  0  0  0  0  0  0  0  0  0  0
    2.1780    2.7160   13.0020 C   0  0  0  0  0  0  0  0  0  0  0  0
    0.7730    2.5750   13.4710 C   0  0  0  0  0  0  0  0  0  0  0  0
    0.4970    1.8370   14.4140 O   0  0  0  0  0  0  0  0  0  0  0  0
   -0.1840    3.3350   12.8230 N   0  0  0  0  0  0  0  0  0  0  0  0
   -1.4550    3.4040   13.4500 N   0  0  0  0  0  0  0  0  0  0  0  0
   -2.5380    3.5550   12.5880 C   0  0  0  0  0  0  0  0  0  0  0  0
   -2.3960    3.4580   11.3730 O   0  0  0  0  0  0  0  0  0  0  0  0
   -3.7020    3.7790   13.2910 N   0  0  0  0  0  0  0  0  0  0  0  0
   -4.9990    4.0470   12.7840 C   0  0  0  0  0  0  0  0  0  0  0  0
   -5.9900    3.0560   12.7830 C   0  0  0  0  0  0  0  0  0  0  0  0
   -7.2610    3.3150   12.2770 C   0  0  0  0  0  0  0  0  0  0  0  0
   -7.5610    4.5680   11.7580 C   0  0  0  0  0  0  0  0  0  0  0  0
   -6.5970    5.5830   11.7330 C   0  0  0  0  0  0  0  0  0  0  0  0
   -6.9350    6.8370   11.1970 C   0  0  0  0  0  0  0  0  0  0  0  0
   -6.0080    7.8740   11.1500 C   0  0  0  0  0  0  0  0  0  0  0  0
   -4.7280    7.6690   11.6420 C   0  0  0  0  0  0  0  0  0  0  0  0
   -4.3760    6.4270   12.1800 C   0  0  0  0  0  0  0  0  0  0  0  0
   -5.2920    5.3430   12.2450 C   0  0  0  0  0  0  0  0  0  0  0  0
    2.8480    1.5770   12.5590 C   0  0  0  0  0  0  0  0  0  0  0  0
    4.1780    1.6730   12.1080 C   0  0  0  0  0  0  0  0  0  0  0  0
    4.7660    0.4030   11.7270 N   0  0  0  0  0  0  0  0  0  0  0  0
    4.4770   -0.0320   10.6050 O   0  0  0  0  0  0  0  0  0  0  0  0
    5.4710   -0.1660   12.5690 O   0  0  0  0  0  0  0  0  0  0  0  0
    6.8936    2.7741   13.6519 H   0  0  0  0  0  0  0  0  0  0  0  0
    7.4212    1.4562   12.5513 H   0  0  0  0  0  0  0  0  0  0  0  0
    8.2903    3.0282   12.5513 H   0  0  0  0  0  0  0  0  0  0  0  0
    6.8561    5.0719   12.2917 H   0  0  0  0  0  0  0  0  0  0  0  0
    7.6675    4.6161   10.7554 H   0  0  0  0  0  0  0  0  0  0  0  0
    5.9256    5.0545   10.7554 H   0  0  0  0  0  0  0  0  0  0  0  0
    7.0854    1.3704   10.4302 H   0  0  0  0  0  0  0  0  0  0  0  0
    5.7278    2.2536    9.6534 H   0  0  0  0  0  0  0  0  0  0  0  0
    7.3779    2.9634    9.6534 H   0  0  0  0  0  0  0  0  0  0  0  0
    4.6720    5.0003   12.5198 H   0  0  0  0  0  0  0  0  0  0  0  0
    2.3257    4.8525   13.3096 H   0  0  0  0  0  0  0  0  0  0  0  0
    0.0810    4.1980   12.3440 H   0  0  0  0  0  0  0  0  0  0  0  0
   -1.4460    4.0030   14.2760 H   0  0  0  0  0  0  0  0  0  0  0  0
   -3.6210    3.6170   14.2810 H   0  0  0  0  0  0  0  0  0  0  0  0
   -5.7604    2.0593   13.1878 H   0  0  0  0  0  0  0  0  0  0  0  0
   -8.0282    2.5267   12.2883 H   0  0  0  0  0  0  0  0  0  0  0  0
   -8.5681    4.7652   11.3619 H   0  0  0  0  0  0  0  0  0  0  0  0
   -7.9504    7.0021   10.8076 H   0  0  0  0  0  0  0  0  0  0  0  0
   -6.2888    8.8492   10.7256 H   0  0  0  0  0  0  0  0  0  0  0  0
   -3.9893    8.4834   11.6092 H   0  0  0  0  0  0  0  0  0  0  0  0
   -3.3557    6.2847   12.5657 H   0  0  0  0  0  0  0  0  0  0  0  0
    2.3373    0.6027   12.5618 H   0  0  0  0  0  0  0  0  0  0  0  0
  1  2  1  0
  2  3  1  0
  2  4  1  0
  2  5  1  0
  5  6  2  0
  6  7  1  0
  7  8  2  0
  8  9  1  0
  9 10  2  0
  9 11  1  0
 11 12  1  0
 12 13  1  0
 13 14  2  0
 13 15  1  0
 15 16  1  0
 16 17  2  0
 17 18  1  0
 18 19  2  0
 19 20  1  0
 20 21  2  0
 21 22  1  0
 22 23  2  0
 23 24  1  0
 24 25  2  0
  8 26  1  0
 26 27  2  0
 27 28  1  0
 28 29  2  0
 28 30  1  0
 27  5  1  0
 25 16  1  0
 25 20  1  0
  1 31  1  0
  1 32  1  0
  1 33  1  0
  3 34  1  0
  3 35  1  0
  3 36  1  0
  4 37  1  0
  4 38  1  0
  4 39  1  0
  6 40  1  0
  7 41  1  0
 11 42  1  0
 12 43  1  0
 15 44  1  0
 17 45  1  0
 18 46  1  0
 19 47  1  0
 21 48  1  0
 22 49  1  0
 23 50  1  0
 24 51  1  0
 26 52  1  0
M  CHG  2  28   1  30  -1
M  END
>  <meeko>  (2) 
{"is_sidechain": [false], "free_energy": -8.937, "intermolecular_energy": -11.285, "internal_energy": -0.34}

$$$$
3jvs_ligand
     RDKit          3D

 52 54  0  0  0  0  0  0  0  0999 V2000
    5.7420   -0.4900    9.9220 C   0  0  0  0  0  0  0  0  0  0  0  0
    5.7660    0.6450   10.9650 C   0  0  0  0  0  0  0  0  0  0  0  0
    6.7090    0.1830   12.1120 C   0  0  0  0  0  0  0  0  0  0  0  0
    6.4610    1.8860   10.3590 C   0  0  0  0  0  0  0  0  0  0  0  0
    4.3170    0.9140   11.4510 C   0  0  0  0  0  0  0  0  0  0  0  0
    3.2660    0.0910   10.9860 C   0  0  0  0  0  0  0  0  0  0  0  0
    1.9280    0.2720   11.3770 C   0  0  0  0  0  0  0  0  0  0  0  0
    1.5790    1.3060   12.2450 C   0  0  0  0  0  0  0  0  0  0  0  0
    0.1800    1.5400   12.6950 C   0  0  0  0  0  0  0  0  0  0  0  0
   -0.5010    0.6170   13.1340 O   0  0  0  0  0  0  0  0  0  0  0  0
   -0.2930    2.8380   12.6250 N   0  0  0  0  0  0  0  0  0  0  0  0
   -1.5110    3.0950   13.3060 N   0  0  0  0  0  0  0  0  0  0  0  0
   -2.6250    3.2760   12.4900 C   0  0  0  0  0  0  0  0  0  0  0  0
   -2.5650    3.0540   11.2840 O   0  0  0  0  0  0  0  0  0  0  0  0
   -3.7160    3.6820   13.2250 N   0  0  0  0  0  0  0  0  0  0  0  0
   -5.0090    4.0350   12.7610 C   0  0  0  0  0  0  0  0  0  0  0  0
   -6.0680    3.1180   12.8150 C   0  0  0  0  0  0  0  0  0  0  0  0
   -7.3350    3.4580   12.3510 C   0  0  0  0  0  0  0  0  0  0  0  0
   -7.5650    4.7210   11.8200 C   0  0  0  0  0  0  0  0  0  0  0  0
   -6.5330    5.6630   11.7400 C   0  0  0  0  0  0  0  0  0  0  0  0
   -6.8010    6.9290   11.1920 C   0  0  0  0  0  0  0  0  0  0  0  0
   -5.8040    7.8960   11.0920 C   0  0  0  0  0  0  0  0  0  0  0  0
   -4.5250    7.6090   11.5400 C   0  0  0  0  0  0  0  0  0  0  0  0
   -4.2420    6.3530   12.0890 C   0  0  0  0  0  0  0  0  0  0  0  0
   -5.2300    5.3390   12.2080 C   0  0  0  0  0  0  0  0  0  0  0  0
    2.5800    2.1470   12.7260 C   0  0  0  0  0  0  0  0  0  0  0  0
    3.9160    1.9550   12.3220 C   0  0  0  0  0  0  0  0  0  0  0  0
    4.8420    2.9330   12.8580 N   0  0  0  0  0  0  0  0  0  0  0  0
    5.4980    2.5950   13.8520 O   0  0  0  0  0  0  0  0  0  0  0  0
    4.8710    4.0410   12.3100 O   0  0  0  0  0  0  0  0  0  0  0  0
    5.7215   -1.4614   10.4376 H   0  0  0  0  0  0  0  0  0  0  0  0
    4.8458   -0.3902    9.2921 H   0  0  0  0  0  0  0  0  0  0  0  0
    6.6417   -0.4282    9.2921 H   0  0  0  0  0  0  0  0  0  0  0  0
    6.2444    0.4106   13.0828 H   0  0  0  0  0  0  0  0  0  0  0  0
    6.8797   -0.9008   12.0323 H   0  0  0  0  0  0  0  0  0  0  0  0
    7.6700    0.7123   12.0323 H   0  0  0  0  0  0  0  0  0  0  0  0
    6.8244    2.5350   11.1694 H   0  0  0  0  0  0  0  0  0  0  0  0
    7.3101    1.5641    9.7382 H   0  0  0  0  0  0  0  0  0  0  0  0
    5.7429    2.4418    9.7382 H   0  0  0  0  0  0  0  0  0  0  0  0
    3.5053   -0.7255   10.2888 H   0  0  0  0  0  0  0  0  0  0  0  0
    1.1509   -0.4067   10.9956 H   0  0  0  0  0  0  0  0  0  0  0  0
    0.3580    3.6240   12.6450 H   0  0  0  0  0  0  0  0  0  0  0  0
   -1.3940    3.7630   14.0680 H   0  0  0  0  0  0  0  0  0  0  0  0
   -3.5920    3.6050   14.2210 H   0  0  0  0  0  0  0  0  0  0  0  0
   -5.8947    2.1144   13.2305 H   0  0  0  0  0  0  0  0  0  0  0  0
   -8.1548    2.7265   12.4047 H   0  0  0  0  0  0  0  0  0  0  0  0
   -8.5700    4.9837   11.4582 H   0  0  0  0  0  0  0  0  0  0  0  0
   -7.8158    7.1601   10.8359 H   0  0  0  0  0  0  0  0  0  0  0  0
   -6.0307    8.8818   10.6599 H   0  0  0  0  0  0  0  0  0  0  0  0
   -3.7322    8.3678   11.4643 H   0  0  0  0  0  0  0  0  0  0  0  0
   -3.2207    6.1440   12.4400 H   0  0  0  0  0  0  0  0  0  0  0  0
    2.3273    2.9611   13.4213 H   0  0  0  0  0  0  0  0  0  0  0  0
  1  2  1  0
  2  3  1  0
  2  4  1  0
  2  5  1  0
  5  6  2  0
  6  7  1  0
  7  8  2  0
  8  9  1  0
  9 10  2  0
  9 11  1  0
 11 12  1  0
 12 13  1  0
 13 14  2  0
 13 15  1  0
 15 16  1  0
 16 17  2  0
 17 18  1  0
 18 19  2  0
 19 20  1  0
 20 21  2  0
 21 22  1  0
 22 23  2  0
 23 24  1  0
 24 25  2  0
  8 26  1  0
 26 27  2  0
 27 28  1  0
 28 29  2  0
 28 30  1  0
 27  5  1  0
 25 16  1  0
 25 20  1  0
  1 31  1  0
  1 32  1  0
  1 33  1  0
  3 34  1  0
  3 35  1  0
  3 36  1  0
  4 37  1  0
  4 38  1  0
  4 39  1  0
  6 40  1  0
  7 41  1  0
 11 42  1  0
 12 43  1  0
 15 44  1  0
 17 45  1  0
 18 46  1  0
 19 47  1  0
 21 48  1  0
 22 49  1  0
 23 50  1  0
 24 51  1  0
 26 52  1  0
M  CHG  2  28   1  30  -1
M  END
>  <meeko>  (3) 
{"is_sidechain": [false], "free_energy": -8.745, "intermolecular_energy": -10.952, "internal_energy": -0.423}

$$$$
3jvs_ligand
     RDKit          3D

 52 54  0  0  0  0  0  0  0  0999 V2000
    7.3090    2.2060   12.7050 C   0  0  0  0  0  0  0  0  0  0  0  0
    6.4300    2.7900   11.5800 C   0  0  0  0  0  0  0  0  0  0  0  0
    6.9700    4.2190   11.2830 C   0  0  0  0  0  0  0  0  0  0  0  0
    6.6710    1.9980   10.2750 C   0  0  0  0  0  0  0  0  0  0  0  0
    4.9510    2.7940   12.0470 C   0  0  0  0  0  0  0  0  0  0  0  0
    4.3400    4.0170   12.4070 C   0  0  0  0  0  0  0  0  0  0  0  0
    3.0060    4.1030   12.8420 C   0  0  0  0  0  0  0  0  0  0  0  0
    2.2240    2.9530   12.9540 C   0  0  0  0  0  0  0  0  0  0  0  0
    0.8060    2.9870   13.4040 C   0  0  0  0  0  0  0  0  0  0  0  0
    0.5210    3.3180   14.5520 O   0  0  0  0  0  0  0  0  0  0  0  0
   -0.1580    2.6650   12.4660 N   0  0  0  0  0  0  0  0  0  0  0  0
   -1.4980    2.9670   12.8220 N   0  0  0  0  0  0  0  0  0  0  0  0
   -2.0840    4.0100   12.1090 C   0  0  0  0  0  0  0  0  0  0  0  0
   -1.5230    4.5000   11.1340 O   0  0  0  0  0  0  0  0  0  0  0  0
   -3.3150    4.3380   12.6340 N   0  0  0  0  0  0  0  0  0  0  0  0
   -4.1910    5.3810   12.2390 C   0  0  0  0  0  0  0  0  0  0  0  0
   -3.6990    6.5420   11.6280 C   0  0  0  0  0  0  0  0  0  0  0  0
   -4.5570    7.5700   11.2480 C   0  0  0  0  0  0  0  0  0  0  0  0
   -5.9230    7.4570   11.4780 C   0  0  0  0  0  0  0  0  0  0  0  0
   -6.4530    6.3180   12.0940 C   0  0  0  0  0  0  0  0  0  0  0  0
   -7.8390    6.2400   12.3140 C   0  0  0  0  0  0  0  0  0  0  0  0
   -8.4100    5.1270   12.9240 C   0  0  0  0  0  0  0  0  0  0  0  0
   -7.6010    4.0740   13.3210 C   0  0  0  0  0  0  0  0  0  0  0  0
   -6.2190    4.1350   13.1070 C   0  0  0  0  0  0  0  0  0  0  0  0
   -5.5980    5.2540   12.4890 C   0  0  0  0  0  0  0  0  0  0  0  0
    2.7840    1.7240   12.6150 C   0  0  0  0  0  0  0  0  0  0  0  0
    4.1230    1.6540   12.1830 C   0  0  0  0  0  0  0  0  0  0  0  0
    4.5880    0.3070   11.9150 N   0  0  0  0  0  0  0  0  0  0  0  0
    4.3120   -0.1680   10.8050 O   0  0  0  0  0  0  0  0  0  0  0  0
    5.1830   -0.2770   12.8290 O   0  0  0  0  0  0  0  0  0  0  0  0
    6.8879    2.4858   13.6820 H   0  0  0  0  0  0  0  0  0  0  0  0
    7.3359    1.1098   12.6177 H   0  0  0  0  0  0  0  0  0  0  0  0
    8.3300    2.6060   12.6177 H   0  0  0  0  0  0  0  0  0  0  0  0
    7.1672    4.7408   12.2311 H   0  0  0  0  0  0  0  0  0  0  0  0
    7.9024    4.1456   10.7040 H   0  0  0  0  0  0  0  0  0  0  0  0
    6.2221    4.7806   10.7040 H   0  0  0  0  0  0  0  0  0  0  0  0
    6.9831    0.9723   10.5209 H   0  0  0  0  0  0  0  0  0  0  0  0
    5.7415    1.9675    9.6876 H   0  0  0  0  0  0  0  0  0  0  0  0
    7.4600    2.4905    9.6876 H   0  0  0  0  0  0  0  0  0  0  0  0
    4.9338    4.9408   12.3440 H   0  0  0  0  0  0  0  0  0  0  0  0
    2.5760    5.0832   13.0957 H   0  0  0  0  0  0  0  0  0  0  0  0
    0.0350    2.7810   11.4700 H   0  0  0  0  0  0  0  0  0  0  0  0
   -1.6380    2.9750   13.8330 H   0  0  0  0  0  0  0  0  0  0  0  0
   -3.6650    3.6750   13.3040 H   0  0  0  0  0  0  0  0  0  0  0  0
   -2.6188    6.6425   11.4460 H   0  0  0  0  0  0  0  0  0  0  0  0
   -4.1537    8.4724   10.7653 H   0  0  0  0  0  0  0  0  0  0  0  0
   -6.5951    8.2723   11.1723 H   0  0  0  0  0  0  0  0  0  0  0  0
   -8.4838    7.0734   11.9985 H   0  0  0  0  0  0  0  0  0  0  0  0
   -9.4965    5.0833   13.0900 H   0  0  0  0  0  0  0  0  0  0  0  0
   -8.0447    3.1909   13.8040 H   0  0  0  0  0  0  0  0  0  0  0  0
   -5.5932    3.2891   13.4277 H   0  0  0  0  0  0  0  0  0  0  0  0
    2.1803    0.8071   12.6846 H   0  0  0  0  0  0  0  0  0  0  0  0
  1  2  1  0
  2  3  1  0
  2  4  1  0
  2  5  1  0
  5  6  2  0
  6  7  1  0
  7  8  2  0
  8  9  1  0
  9 10  2  0
  9 11  1  0
 11 12  1  0
 12 13  1  0
 13 14  2  0
 13 15  1  0
 15 16  1  0
 16 17  2  0
 17 18  1  0
 18 19  2  0
 19 20  1  0
 20 21  2  0
 21 22  1  0
 22 23  2  0
 23 24  1  0
 24 25  2  0
  8 26  1  0
 26 27  2  0
 27 28  1  0
 28 29  2  0
 28 30  1  0
 27  5  1  0
 25 16  1  0
 25 20  1  0
  1 31  1  0
  1 32  1  0
  1 33  1  0
  3 34  1  0
  3 35  1  0
  3 36  1  0
  4 37  1  0
  4 38  1  0
  4 39  1  0
  6 40  1  0
  7 41  1  0
 11 42  1  0
 12 43  1  0
 15 44  1  0
 17 45  1  0
 18 46  1  0
 19 47  1  0
 21 48  1  0
 22 49  1  0
 23 50  1  0
 24 51  1  0
 26 52  1  0
M  CHG  2  28   1  30  -1
M  END
>  <meeko>  (4) 
{"is_sidechain": [false], "free_energy": -8.621, "intermolecular_energy": -11.06, "internal_energy": -0.155}

$$$$
3jvs_ligand
     RDKit          3D

 52 54  0  0  0  0  0  0  0  0999 V2000
    5.8490   -2.0830   14.9180 C   0  0  0  0  0  0  0  0  0  0  0  0
    6.1090   -0.7060   14.2740 C   0  0  0  0  0  0  0  0  0  0  0  0
    6.5650    0.2460   15.4160 C   0  0  0  0  0  0  0  0  0  0  0  0
    7.3290   -0.8020   13.3290 C   0  0  0  0  0  0  0  0  0  0  0  0
    4.8110   -0.2230   13.5740 C   0  0  0  0  0  0  0  0  0  0  0  0
    3.6430   -1.0140   13.6590 C   0  0  0  0  0  0  0  0  0  0  0  0
    2.4290   -0.6480   13.0500 C   0  0  0  0  0  0  0  0  0  0  0  0
    2.3380    0.5300   12.3080 C   0  0  0  0  0  0  0  0  0  0  0  0
    1.0790    0.9680   11.6470 C   0  0  0  0  0  0  0  0  0  0  0  0
   -0.0150    0.6830   12.1300 O   0  0  0  0  0  0  0  0  0  0  0  0
    1.2050    1.7290   10.5000 N   0  0  0  0  0  0  0  0  0  0  0  0
    0.0220    2.3670   10.0430 N   0  0  0  0  0  0  0  0  0  0  0  0
   -0.1020    3.7110   10.3860 C   0  0  0  0  0  0  0  0  0  0  0  0
    0.8320    4.3200   10.8960 O   0  0  0  0  0  0  0  0  0  0  0  0
   -1.3470    4.1940   10.0470 N   0  0  0  0  0  0  0  0  0  0  0  0
   -1.8860    5.4840   10.2880 C   0  0  0  0  0  0  0  0  0  0  0  0
   -1.2190    6.6360    9.8520 C   0  0  0  0  0  0  0  0  0  0  0  0
   -1.7420    7.9030   10.0970 C   0  0  0  0  0  0  0  0  0  0  0  0
   -2.9400    8.0390   10.7870 C   0  0  0  0  0  0  0  0  0  0  0  0
   -3.6330    6.9130   11.2470 C   0  0  0  0  0  0  0  0  0  0  0  0
   -4.8400    7.0900   11.9450 C   0  0  0  0  0  0  0  0  0  0  0  0
   -5.5620    5.9990   12.4220 C   0  0  0  0  0  0  0  0  0  0  0  0
   -5.0860    4.7160   12.2050 C   0  0  0  0  0  0  0  0  0  0  0  0
   -3.8870    4.5230   11.5100 C   0  0  0  0  0  0  0  0  0  0  0  0
   -3.1200    5.6090   11.0090 C   0  0  0  0  0  0  0  0  0  0  0  0
    3.4660    1.3400   12.1920 C   0  0  0  0  0  0  0  0  0  0  0  0
    4.6750    0.9570   12.8050 C   0  0  0  0  0  0  0  0  0  0  0  0
    5.7760    1.8670   12.5580 N   0  0  0  0  0  0  0  0  0  0  0  0
    6.3900    1.7240   11.4920 O   0  0  0  0  0  0  0  0  0  0  0  0
    6.0450    2.6810   13.4490 O   0  0  0  0  0  0  0  0  0  0  0  0
    5.8675   -1.9848   16.0135 H   0  0  0  0  0  0  0  0  0  0  0  0
    4.8645   -2.4565   14.5999 H   0  0  0  0  0  0  0  0  0  0  0  0
    6.6296   -2.7898   14.5999 H   0  0  0  0  0  0  0  0  0  0  0  0
    6.3435   -0.2164   16.3892 H   0  0  0  0  0  0  0  0  0  0  0  0
    7.6470    0.4259   15.3333 H   0  0  0  0  0  0  0  0  0  0  0  0
    6.0270    1.2019   15.3333 H   0  0  0  0  0  0  0  0  0  0  0  0
    8.2502   -0.8745   13.9257 H   0  0  0  0  0  0  0  0  0  0  0  0
    7.2319   -1.6953   12.6945 H   0  0  0  0  0  0  0  0  0  0  0  0
    7.3728    0.0955   12.6945 H   0  0  0  0  0  0  0  0  0  0  0  0
    3.6850   -1.9560   14.2255 H   0  0  0  0  0  0  0  0  0  0  0  0
    1.5459   -1.2946   13.1595 H   0  0  0  0  0  0  0  0  0  0  0  0
    2.0510    2.2770   10.3360 H   0  0  0  0  0  0  0  0  0  0  0  0
   -0.8060    1.7860   10.1760 H   0  0  0  0  0  0  0  0  0  0  0  0
   -1.8800    3.5780    9.4580 H   0  0  0  0  0  0  0  0  0  0  0  0
   -0.2679    6.5383    9.3080 H   0  0  0  0  0  0  0  0  0  0  0  0
   -1.2063    8.7966    9.7440 H   0  0  0  0  0  0  0  0  0  0  0  0
   -3.3488    9.0430   10.9741 H   0  0  0  0  0  0  0  0  0  0  0  0
   -5.2207    8.1075   12.1174 H   0  0  0  0  0  0  0  0  0  0  0  0
   -6.5043    6.1548   12.9677 H   0  0  0  0  0  0  0  0  0  0  0  0
   -5.6506    3.8492   12.5791 H   0  0  0  0  0  0  0  0  0  0  0  0
   -3.5264    3.4968   11.3461 H   0  0  0  0  0  0  0  0  0  0  0  0
    3.4122    2.2789   11.6215 H   0  0  0  0  0  0  0  0  0  0  0  0
  1  2  1  0
  2  3  1  0
  2  4  1  0
  2  5  1  0
  5  6  2  0
  6  7  1  0
  7  8  2  0
  8  9  1  0
  9 10  2  0
  9 11  1  0
 11 12  1  0
 12 13  1  0
 13 14  2  0
 13 15  1  0
 15 16  1  0
 16 17  2  0
 17 18  1  0
 18 19  2  0
 19 20  1  0
 20 21  2  0
 21 22  1  0
 22 23  2  0
 23 24  1  0
 24 25  2  0
  8 26  1  0
 26 27  2  0
 27 28  1  0
 28 29  2  0
 28 30  1  0
 27  5  1  0
 25 16  1  0
 25 20  1  0
  1 31  1  0
  1 32  1  0
  1 33  1  0
  3 34  1  0
  3 35  1  0
  3 36  1  0
  4 37  1  0
  4 38  1  0
  4 39  1  0
  6 40  1  0
  7 41  1  0
 11 42  1  0
 12 43  1  0
 15 44  1  0
 17 45  1  0
 18 46  1  0
 19 47  1  0
 21 48  1  0
 22 49  1  0
 23 50  1  0
 24 51  1  0
 26 52  1  0
M  CHG  2  28   1  30  -1
M  END
>  <meeko>  (5) 
{"is_sidechain": [false], "free_energy": -8.463, "intermolecular_energy": -10.647, "internal_energy": -0.365}

$$$$
3jvs_ligand
     RDKit          3D

 52 54  0  0  0  0  0  0  0  0999 V2000
    7.6120   -0.1780   13.0520 C   0  0  0  0  0  0  0  0  0  0  0  0
    6.4860   -0.8210   13.8860 C   0  0  0  0  0  0  0  0  0  0  0  0
    6.7660   -2.3500   13.9190 C   0  0  0  0  0  0  0  0  0  0  0  0
    6.6120   -0.3650   15.3580 C   0  0  0  0  0  0  0  0  0  0  0  0
    5.1190   -0.4760   13.2390 C   0  0  0  0  0  0  0  0  0  0  0  0
    4.4210   -1.4740   12.5210 C   0  0  0  0  0  0  0  0  0  0  0  0
    3.1790   -1.2390   11.9030 C   0  0  0  0  0  0  0  0  0  0  0  0
    2.5870    0.0220   11.9640 C   0  0  0  0  0  0  0  0  0  0  0  0
    1.2740    0.3240   11.3330 C   0  0  0  0  0  0  0  0  0  0  0  0
    0.3000   -0.3970   11.5350 O   0  0  0  0  0  0  0  0  0  0  0  0
    1.2010    1.4610   10.5490 N   0  0  0  0  0  0  0  0  0  0  0  0
   -0.1040    1.8850   10.1860 N   0  0  0  0  0  0  0  0  0  0  0  0
   -0.5940    2.9800   10.8940 C   0  0  0  0  0  0  0  0  0  0  0  0
    0.1330    3.6190   11.6490 O   0  0  0  0  0  0  0  0  0  0  0  0
   -1.9180    3.2110   10.5930 N   0  0  0  0  0  0  0  0  0  0  0  0
   -2.7910    4.1810   11.1480 C   0  0  0  0  0  0  0  0  0  0  0  0
   -3.7750    3.8160   12.0760 C   0  0  0  0  0  0  0  0  0  0  0  0
   -4.6400    4.7660   12.6140 C   0  0  0  0  0  0  0  0  0  0  0  0
   -4.5370    6.0970   12.2300 C   0  0  0  0  0  0  0  0  0  0  0  0
   -3.5730    6.5010   11.2990 C   0  0  0  0  0  0  0  0  0  0  0  0
   -3.5020    7.8550   10.9310 C   0  0  0  0  0  0  0  0  0  0  0  0
   -2.5600    8.3020   10.0080 C   0  0  0  0  0  0  0  0  0  0  0  0
   -1.6750    7.3980    9.4420 C   0  0  0  0  0  0  0  0  0  0  0  0
   -1.7320    6.0460    9.8000 C   0  0  0  0  0  0  0  0  0  0  0  0
   -2.6790    5.5510   10.7360 C   0  0  0  0  0  0  0  0  0  0  0  0
    3.2400    1.0390   12.6570 C   0  0  0  0  0  0  0  0  0  0  0  0
    4.4850    0.7890   13.2670 C   0  0  0  0  0  0  0  0  0  0  0  0
    5.0720    1.9490   13.9070 N   0  0  0  0  0  0  0  0  0  0  0  0
    4.6710    2.2220   15.0460 O   0  0  0  0  0  0  0  0  0  0  0  0
    5.8930    2.6010   13.2490 O   0  0  0  0  0  0  0  0  0  0  0  0
    8.3670    0.2531   13.7259 H   0  0  0  0  0  0  0  0  0  0  0  0
    8.0816   -0.9441   12.4175 H   0  0  0  0  0  0  0  0  0  0  0  0
    7.1908    0.6158   12.4175 H   0  0  0  0  0  0  0  0  0  0  0  0
    6.8281   -2.6889   14.9636 H   0  0  0  0  0  0  0  0  0  0  0  0
    5.9506   -2.8832   13.4084 H   0  0  0  0  0  0  0  0  0  0  0  0
    7.7175   -2.5596   13.4084 H   0  0  0  0  0  0  0  0  0  0  0  0
    6.3789   -1.2086   16.0244 H   0  0  0  0  0  0  0  0  0  0  0  0
    7.6391   -0.0202   15.5484 H   0  0  0  0  0  0  0  0  0  0  0  0
    5.9077    0.4582   15.5484 H   0  0  0  0  0  0  0  0  0  0  0  0
    4.8676   -2.4762   12.4422 H   0  0  0  0  0  0  0  0  0  0  0  0
    2.6717   -2.0555   11.3682 H   0  0  0  0  0  0  0  0  0  0  0  0
    1.8520    2.2330   10.7010 H   0  0  0  0  0  0  0  0  0  0  0  0
   -0.7450    1.1010   10.0630 H   0  0  0  0  0  0  0  0  0  0  0  0
   -2.2550    2.6910    9.8000 H   0  0  0  0  0  0  0  0  0  0  0  0
   -3.8658    2.7640   12.3842 H   0  0  0  0  0  0  0  0  0  0  0  0
   -5.4052    4.4620   13.3434 H   0  0  0  0  0  0  0  0  0  0  0  0
   -5.2209    6.8421   12.6625 H   0  0  0  0  0  0  0  0  0  0  0  0
   -4.2027    8.5745   11.3798 H   0  0  0  0  0  0  0  0  0  0  0  0
   -2.5186    9.3655    9.7300 H   0  0  0  0  0  0  0  0  0  0  0  0
   -0.9281    7.7428    8.7118 H   0  0  0  0  0  0  0  0  0  0  0  0
   -1.0201    5.3438    9.3415 H   0  0  0  0  0  0  0  0  0  0  0  0
    2.7834    2.0373   12.7279 H   0  0  0  0  0  0  0  0  0  0  0  0
  1  2  1  0
  2  3  1  0
  2  4  1  0
  2  5  1  0
  5  6  2  0
  6  7  1  0
  7  8  2  0
  8  9  1  0
  9 10  2  0
  9 11  1  0
 11 12  1  0
 12 13  1  0
 13 14  2  0
 13 15  1  0
 15 16  1  0
 16 17  2  0
 17 18  1  0
 18 19  2  0
 19 20  1  0
 20 21  2  0
 21 22  1  0
 22 23  2  0
 23 24  1  0
 24 25  2  0
  8 26  1  0
 26 27  2  0
 27 28  1  0
 28 29  2  0
 28 30  1  0
 27  5  1  0
 25 16  1  0
 25 20  1  0
  1 31  1  0
  1 32  1  0
  1 33  1  0
  3 34  1  0
  3 35  1  0
  3 36  1  0
  4 37  1  0
  4 38  1  0
  4 39  1  0
  6 40  1  0
  7 41  1  0
 11 42  1  0
 12 43  1  0
 15 44  1  0
 17 45  1  0
 18 46  1  0
 19 47  1  0
 21 48  1  0
 22 49  1  0
 23 50  1  0
 24 51  1  0
 26 52  1  0
M  CHG  2  28   1  30  -1
M  END
>  <meeko>  (6) 
{"is_sidechain": [false], "free_energy": -8.455, "intermolecular_energy": -10.557, "internal_energy": -0.443}

$$$$
3jvs_ligand
     RDKit          3D

 52 54  0  0  0  0  0  0  0  0999 V2000
   -2.9770    9.0510    9.8360 C   0  0  0  0  0  0  0  0  0  0  0  0
   -2.1800    7.8140   10.2970 C   0  0  0  0  0  0  0  0  0  0  0  0
   -1.4640    7.2470    9.0380 C   0  0  0  0  0  0  0  0  0  0  0  0
   -1.0350    8.2600   11.2350 C   0  0  0  0  0  0  0  0  0  0  0  0
   -3.1560    6.7960   10.9410 C   0  0  0  0  0  0  0  0  0  0  0  0
   -4.3900    7.2510   11.4590 C   0  0  0  0  0  0  0  0  0  0  0  0
   -5.3270    6.3910   12.0610 C   0  0  0  0  0  0  0  0  0  0  0  0
   -5.0570    5.0290   12.1860 C   0  0  0  0  0  0  0  0  0  0  0  0
   -6.0140    4.0740   12.8090 C   0  0  0  0  0  0  0  0  0  0  0  0
   -5.8650    2.8620   12.6780 O   0  0  0  0  0  0  0  0  0  0  0  0
   -7.0410    4.6160   13.5600 N   0  0  0  0  0  0  0  0  0  0  0  0
   -7.7710    3.7040   14.3670 N   0  0  0  0  0  0  0  0  0  0  0  0
   -9.1440    3.6710   14.1360 C   0  0  0  0  0  0  0  0  0  0  0  0
   -9.6380    4.2660   13.1840 O   0  0  0  0  0  0  0  0  0  0  0  0
   -9.7830    2.8870   15.0720 N   0  0  0  0  0  0  0  0  0  0  0  0
  -11.1740    2.6540   15.2220 C   0  0  0  0  0  0  0  0  0  0  0  0
  -11.9230    3.3590   16.1740 C   0  0  0  0  0  0  0  0  0  0  0  0
  -13.2860    3.1240   16.3300 C   0  0  0  0  0  0  0  0  0  0  0  0
  -13.9230    2.1750   15.5400 C   0  0  0  0  0  0  0  0  0  0  0  0
  -13.2090    1.4430   14.5840 C   0  0  0  0  0  0  0  0  0  0  0  0
  -13.8860    0.4890   13.8060 C   0  0  0  0  0  0  0  0  0  0  0  0
  -13.2160   -0.2630   12.8440 C   0  0  0  0  0  0  0  0  0  0  0  0
  -11.8580   -0.0670   12.6480 C   0  0  0  0  0  0  0  0  0  0  0  0
  -11.1700    0.8800   13.4130 C   0  0  0  0  0  0  0  0  0  0  0  0
  -11.8170    1.6660   14.4050 C   0  0  0  0  0  0  0  0  0  0  0  0
   -3.8510    4.5340   11.6940 C   0  0  0  0  0  0  0  0  0  0  0  0
   -2.9220    5.4090   11.0970 C   0  0  0  0  0  0  0  0  0  0  0  0
   -1.6910    4.7670   10.6790 N   0  0  0  0  0  0  0  0  0  0  0  0
   -1.7320    4.1120    9.6290 O   0  0  0  0  0  0  0  0  0  0  0  0
   -0.7120    4.8850   11.4250 O   0  0  0  0  0  0  0  0  0  0  0  0
   -3.3344    9.6058   10.7160 H   0  0  0  0  0  0  0  0  0  0  0  0
   -2.3275    9.7013    9.2316 H   0  0  0  0  0  0  0  0  0  0  0  0
   -3.8376    8.7284    9.2316 H   0  0  0  0  0  0  0  0  0  0  0  0
   -0.6371    6.5922    9.3502 H   0  0  0  0  0  0  0  0  0  0  0  0
   -2.1818    6.6698    8.4367 H   0  0  0  0  0  0  0  0  0  0  0  0
   -1.0667    8.0780    8.4367 H   0  0  0  0  0  0  0  0  0  0  0  0
   -1.3498    8.1374   12.2818 H   0  0  0  0  0  0  0  0  0  0  0  0
   -0.1442    7.6431   11.0453 H   0  0  0  0  0  0  0  0  0  0  0  0
   -0.7962    9.3169   11.0453 H   0  0  0  0  0  0  0  0  0  0  0  0
   -4.6278    8.3227   11.3885 H   0  0  0  0  0  0  0  0  0  0  0  0
   -6.2787    6.7960   12.4354 H   0  0  0  0  0  0  0  0  0  0  0  0
   -6.9370    5.5400   13.9820 H   0  0  0  0  0  0  0  0  0  0  0  0
   -7.4760    3.7310   15.3430 H   0  0  0  0  0  0  0  0  0  0  0  0
   -9.1620    2.3340   15.6370 H   0  0  0  0  0  0  0  0  0  0  0  0
  -11.4264    4.1090   16.8072 H   0  0  0  0  0  0  0  0  0  0  0  0
  -13.8592    3.6899   17.0791 H   0  0  0  0  0  0  0  0  0  0  0  0
  -15.0010    1.9968   15.6673 H   0  0  0  0  0  0  0  0  0  0  0  0
  -14.9641    0.3332   13.9593 H   0  0  0  0  0  0  0  0  0  0  0  0
  -13.7606   -1.0070   12.2442 H   0  0  0  0  0  0  0  0  0  0  0  0
  -11.3212   -0.6567   11.8903 H   0  0  0  0  0  0  0  0  0  0  0  0
  -10.0927    1.0213   13.2415 H   0  0  0  0  0  0  0  0  0  0  0  0
   -3.6243    3.4604   11.7717 H   0  0  0  0  0  0  0  0  0  0  0  0
  1  2  1  0
  2  3  1  0
  2  4  1  0
  2  5  1  0
  5  6  2  0
  6  7  1  0
  7  8  2  0
  8  9  1  0
  9 10  2  0
  9 11  1  0
 11 12  1  0
 12 13  1  0
 13 14  2  0
 13 15  1  0
 15 16  1  0
 16 17  2  0
 17 18  1  0
 18 19  2  0
 19 20  1  0
 20 21  2  0
 21 22  1  0
 22 23  2  0
 23 24  1  0
 24 25  2  0
  8 26  1  0
 26 27  2  0
 27 28  1  0
 28 29  2  0
 28 30  1  0
 27  5  1  0
 25 16  1  0
 25 20  1  0
  1 31  1  0
  1 32  1  0
  1 33  1  0
  3 34  1  0
  3 35  1  0
  3 36  1  0
  4 37  1  0
  4 38  1  0
  4 39  1  0
  6 40  1  0
  7 41  1  0
 11 42  1  0
 12 43  1  0
 15 44  1  0
 17 45  1  0
 18 46  1  0
 19 47  1  0
 21 48  1  0
 22 49  1  0
 23 50  1  0
 24 51  1  0
 26 52  1  0
M  CHG  2  28   1  30  -1
M  END
>  <meeko>  (7) 
{"is_sidechain": [false], "free_energy": -8.378, "intermolecular_energy": -10.584, "internal_energy": -0.318}

$$$$
3jvs_ligand
     RDKit          3D

 52 54  0  0  0  0  0  0  0  0999 V2000
    1.4630   -3.7160   17.9020 C   0  0  0  0  0  0  0  0  0  0  0  0
    0.0970   -3.0370   18.1260 C   0  0  0  0  0  0  0  0  0  0  0  0
   -0.9790   -4.1580   18.0570 C   0  0  0  0  0  0  0  0  0  0  0  0
    0.0190   -2.5030   19.5740 C   0  0  0  0  0  0  0  0  0  0  0  0
   -0.1070   -1.9440   17.0440 C   0  0  0  0  0  0  0  0  0  0  0  0
    0.9690   -1.6020   16.1930 C   0  0  0  0  0  0  0  0  0  0  0  0
    0.8650   -0.6210   15.1910 C   0  0  0  0  0  0  0  0  0  0  0  0
   -0.3270    0.0790   15.0080 C   0  0  0  0  0  0  0  0  0  0  0  0
   -0.4940    1.1230   13.9610 C   0  0  0  0  0  0  0  0  0  0  0  0
    0.4840    1.6030   13.3920 O   0  0  0  0  0  0  0  0  0  0  0  0
   -1.7880    1.4910   13.6420 N   0  0  0  0  0  0  0  0  0  0  0  0
   -1.9430    2.2700   12.4660 N   0  0  0  0  0  0  0  0  0  0  0  0
   -2.2550    3.6110   12.6750 C   0  0  0  0  0  0  0  0  0  0  0  0
   -2.2220    4.0970   13.8010 O   0  0  0  0  0  0  0  0  0  0  0  0
   -2.5480    4.2420   11.4860 N   0  0  0  0  0  0  0  0  0  0  0  0
   -2.9750    5.5780   11.2800 C   0  0  0  0  0  0  0  0  0  0  0  0
   -2.0650    6.5740   10.8990 C   0  0  0  0  0  0  0  0  0  0  0  0
   -2.4810    7.8890   10.7070 C   0  0  0  0  0  0  0  0  0  0  0  0
   -3.8140    8.2310   10.8960 C   0  0  0  0  0  0  0  0  0  0  0  0
   -4.7520    7.2680   11.2850 C   0  0  0  0  0  0  0  0  0  0  0  0
   -6.0910    7.6530   11.4710 C   0  0  0  0  0  0  0  0  0  0  0  0
   -7.0580    6.7290   11.8590 C   0  0  0  0  0  0  0  0  0  0  0  0
   -6.6970    5.4060   12.0630 C   0  0  0  0  0  0  0  0  0  0  0  0
   -5.3690    5.0080   11.8800 C   0  0  0  0  0  0  0  0  0  0  0  0
   -4.3530    5.9190   11.4870 C   0  0  0  0  0  0  0  0  0  0  0  0
   -1.4140   -0.2210   15.8260 C   0  0  0  0  0  0  0  0  0  0  0  0
   -1.2930   -1.2040   16.8280 C   0  0  0  0  0  0  0  0  0  0  0  0
   -2.4850   -1.3740   17.6360 N   0  0  0  0  0  0  0  0  0  0  0  0
   -3.3460   -2.1520   17.2050 O   0  0  0  0  0  0  0  0  0  0  0  0
   -2.5680   -0.6950   18.6670 O   0  0  0  0  0  0  0  0  0  0  0  0
    1.9228   -3.9445   18.8748 H   0  0  0  0  0  0  0  0  0  0  0  0
    1.3206   -4.6482   17.3357 H   0  0  0  0  0  0  0  0  0  0  0  0
    2.1202   -3.0397   17.3357 H   0  0  0  0  0  0  0  0  0  0  0  0
   -1.2645   -4.4555   19.0768 H   0  0  0  0  0  0  0  0  0  0  0  0
   -1.8647   -3.7837   17.5227 H   0  0  0  0  0  0  0  0  0  0  0  0
   -0.5688   -5.0276   17.5227 H   0  0  0  0  0  0  0  0  0  0  0  0
    0.1409   -3.3379   20.2798 H   0  0  0  0  0  0  0  0  0  0  0  0
    0.8190   -1.7657   19.7365 H   0  0  0  0  0  0  0  0  0  0  0  0
   -0.9585   -2.0253   19.7365 H   0  0  0  0  0  0  0  0  0  0  0  0
    1.9281   -2.1255   16.3201 H   0  0  0  0  0  0  0  0  0  0  0  0
    1.7300   -0.4043   14.5470 H   0  0  0  0  0  0  0  0  0  0  0  0
   -2.5620    0.8450   13.8080 H   0  0  0  0  0  0  0  0  0  0  0  0
   -2.4840    1.7850   11.7500 H   0  0  0  0  0  0  0  0  0  0  0  0
   -2.3160    3.7040   10.6680 H   0  0  0  0  0  0  0  0  0  0  0  0
   -1.0069    6.3130   10.7495 H   0  0  0  0  0  0  0  0  0  0  0  0
   -1.7537    8.6572   10.4055 H   0  0  0  0  0  0  0  0  0  0  0  0
   -4.1361    9.2709   10.7381 H   0  0  0  0  0  0  0  0  0  0  0  0
   -6.3799    8.7017   11.3073 H   0  0  0  0  0  0  0  0  0  0  0  0
   -8.1013    7.0467   12.0027 H   0  0  0  0  0  0  0  0  0  0  0  0
   -7.4549    4.6697   12.3687 H   0  0  0  0  0  0  0  0  0  0  0  0
   -5.1024    3.9538   12.0461 H   0  0  0  0  0  0  0  0  0  0  0  0
   -2.3676    0.3101   15.6895 H   0  0  0  0  0  0  0  0  0  0  0  0
  1  2  1  0
  2  3  1  0
  2  4  1  0
  2  5  1  0
  5  6  2  0
  6  7  1  0
  7  8  2  0
  8  9  1  0
  9 10  2  0
  9 11  1  0
 11 12  1  0
 12 13  1  0
 13 14  2  0
 13 15  1  0
 15 16  1  0
 16 17  2  0
 17 18  1  0
 18 19  2  0
 19 20  1  0
 20 21  2  0
 21 22  1  0
 22 23  2  0
 23 24  1  0
 24 25  2  0
  8 26  1  0
 26 27  2  0
 27 28  1  0
 28 29  2  0
 28 30  1  0
 27  5  1  0
 25 16  1  0
 25 20  1  0
  1 31  1  0
  1 32  1  0
  1 33  1  0
  3 34  1  0
  3 35  1  0
  3 36  1  0
  4 37  1  0
  4 38  1  0
  4 39  1  0
  6 40  1  0
  7 41  1  0
 11 42  1  0
 12 43  1  0
 15 44  1  0
 17 45  1  0
 18 46  1  0
 19 47  1  0
 21 48  1  0
 22 49  1  0
 23 50  1  0
 24 51  1  0
 26 52  1  0
M  CHG  2  28   1  30  -1
M  END
>  <meeko>  (8) 
{"is_sidechain": [false], "free_energy": -8.377, "intermolecular_energy": -10.434, "internal_energy": -0.467}

$$$$
3jvs_ligand
     RDKit          3D

 52 54  0  0  0  0  0  0  0  0999 V2000
    7.1320    1.6950   14.6070 C   0  0  0  0  0  0  0  0  0  0  0  0
    6.6420    0.3620   14.0060 C   0  0  0  0  0  0  0  0  0  0  0  0
    7.7080   -0.0800   12.9630 C   0  0  0  0  0  0  0  0  0  0  0  0
    6.6750   -0.7350   15.0940 C   0  0  0  0  0  0  0  0  0  0  0  0
    5.2410    0.5780   13.3760 C   0  0  0  0  0  0  0  0  0  0  0  0
    4.6310    1.8500   13.4610 C   0  0  0  0  0  0  0  0  0  0  0  0
    3.3630    2.1240   12.9180 C   0  0  0  0  0  0  0  0  0  0  0  0
    2.6360    1.1210   12.2770 C   0  0  0  0  0  0  0  0  0  0  0  0
    1.2930    1.3570   11.6820 C   0  0  0  0  0  0  0  0  0  0  0  0
    0.2800    0.9240   12.2270 O   0  0  0  0  0  0  0  0  0  0  0  0
    1.2440    2.1070   10.5210 N   0  0  0  0  0  0  0  0  0  0  0  0
   -0.0420    2.5550   10.1230 N   0  0  0  0  0  0  0  0  0  0  0  0
   -0.3970    3.8250   10.5720 C   0  0  0  0  0  0  0  0  0  0  0  0
    0.4250    4.5510   11.1230 O   0  0  0  0  0  0  0  0  0  0  0  0
   -1.7140    4.1020   10.2790 N   0  0  0  0  0  0  0  0  0  0  0  0
   -2.4700    5.2520   10.6250 C   0  0  0  0  0  0  0  0  0  0  0  0
   -2.0030    6.5380   10.3200 C   0  0  0  0  0  0  0  0  0  0  0  0
   -2.7390    7.6670   10.6680 C   0  0  0  0  0  0  0  0  0  0  0  0
   -3.9520    7.5300   11.3310 C   0  0  0  0  0  0  0  0  0  0  0  0
   -4.4490    6.2640   11.6620 C   0  0  0  0  0  0  0  0  0  0  0  0
   -5.6770    6.1640   12.3360 C   0  0  0  0  0  0  0  0  0  0  0  0
   -6.2080    4.9260   12.6860 C   0  0  0  0  0  0  0  0  0  0  0  0
   -5.5160    3.7690   12.3620 C   0  0  0  0  0  0  0  0  0  0  0  0
   -4.2930    3.8510   11.6890 C   0  0  0  0  0  0  0  0  0  0  0  0
   -3.7160    5.0950   11.3160 C   0  0  0  0  0  0  0  0  0  0  0  0
    3.1940   -0.1510   12.1740 C   0  0  0  0  0  0  0  0  0  0  0  0
    4.4640   -0.4110   12.7260 C   0  0  0  0  0  0  0  0  0  0  0  0
    4.8970   -1.7880   12.5900 N   0  0  0  0  0  0  0  0  0  0  0  0
    5.5370   -2.0750   11.5700 O   0  0  0  0  0  0  0  0  0  0  0  0
    4.5540   -2.5770   13.4800 O   0  0  0  0  0  0  0  0  0  0  0  0
    7.1091    1.6326   15.7050 H   0  0  0  0  0  0  0  0  0  0  0  0
    8.1612    1.8917   14.2724 H   0  0  0  0  0  0  0  0  0  0  0  0
    6.4752    2.5115   14.2724 H   0  0  0  0  0  0  0  0  0  0  0  0
    8.6016   -0.4505   13.4865 H   0  0  0  0  0  0  0  0  0  0  0  0
    7.2941   -0.8807   12.3324 H   0  0  0  0  0  0  0  0  0  0  0  0
    7.9821    0.7786   12.3324 H   0  0  0  0  0  0  0  0  0  0  0  0
    6.6609   -0.2655   16.0887 H   0  0  0  0  0  0  0  0  0  0  0  0
    5.7961   -1.3872   14.9839 H   0  0  0  0  0  0  0  0  0  0  0  0
    7.5915   -1.3332   14.9839 H   0  0  0  0  0  0  0  0  0  0  0  0
    5.1708    2.6599   13.9735 H   0  0  0  0  0  0  0  0  0  0  0  0
    2.9415    3.1368   12.9994 H   0  0  0  0  0  0  0  0  0  0  0  0
    1.9910    2.7690   10.3050 H   0  0  0  0  0  0  0  0  0  0  0  0
   -0.7510    1.8270   10.2150 H   0  0  0  0  0  0  0  0  0  0  0  0
   -2.1410    3.4470    9.6470 H   0  0  0  0  0  0  0  0  0  0  0  0
   -1.0418    6.6566    9.7985 H   0  0  0  0  0  0  0  0  0  0  0  0
   -2.3597    8.6688   10.4178 H   0  0  0  0  0  0  0  0  0  0  0  0
   -4.5290    8.4273   11.5992 H   0  0  0  0  0  0  0  0  0  0  0  0
   -6.2290    7.0804   12.5919 H   0  0  0  0  0  0  0  0  0  0  0  0
   -7.1700    4.8659   13.2160 H   0  0  0  0  0  0  0  0  0  0  0  0
   -5.9291    2.7866   12.6344 H   0  0  0  0  0  0  0  0  0  0  0  0
   -3.7598    2.9216   11.4400 H   0  0  0  0  0  0  0  0  0  0  0  0
    2.6428   -0.9531   11.6614 H   0  0  0  0  0  0  0  0  0  0  0  0
  1  2  1  0
  2  3  1  0
  2  4  1  0
  2  5  1  0
  5  6  2  0
  6  7  1  0
  7  8  2  0
  8  9  1  0
  9 10  2  0
  9 11  1  0
 11 12  1  0
 12 13  1  0
 13 14  2  0
 13 15  1  0
 15 16  1  0
 16 17  2  0
 17 18  1  0
 18 19  2  0
 19 20  1  0
 20 21  2  0
 21 22  1  0
 22 23  2  0
 23 24  1  0
 24 25  2  0
  8 26  1  0
 26 27  2  0
 27 28  1  0
 28 29  2  0
 28 30  1  0
 27  5  1  0
 25 16  1  0
 25 20  1  0
  1 31  1  0
  1 32  1  0
  1 33  1  0
  3 34  1  0
  3 35  1  0
  3 36  1  0
  4 37  1  0
  4 38  1  0
  4 39  1  0
  6 40  1  0
  7 41  1  0
 11 42  1  0
 12 43  1  0
 15 44  1  0
 17 45  1  0
 18 46  1  0
 19 47  1  0
 21 48  1  0
 22 49  1  0
 23 50  1  0
 24 51  1  0
 26 52  1  0
M  CHG  2  28   1  30  -1
M  END
>  <meeko>  (9) 
{"is_sidechain": [false], "free_energy": -8.228, "intermolecular_energy": -10.375, "internal_energy": -0.332}

$$$$
