4eo8_ligand
     RDKit          3D

 56 57  0  0  0  0  0  0  0  0999 V2000
    0.8610    3.5560   -2.7570 C   0  0  0  0  0  0  0  0  0  0  0  0
    1.4750    2.4870   -1.9800 N   0  0  0  0  0  0  0  0  0  0  0  0
    2.1100    1.4590   -2.7920 C   0  0  0  0  0  0  0  0  0  0  0  0
    0.7260    2.0340   -0.8530 N   0  0  0  0  0  0  0  0  0  0  0  0
    0.3810    2.9200    0.2090 C   0  0  0  0  0  0  0  0  0  0  0  0
   -0.9860    3.2140    0.5810 C   0  0  0  0  0  0  0  0  0  0  0  0
   -1.1090    4.1720    1.5610 C   0  0  0  0  0  0  0  0  0  0  0  0
   -2.3460    4.6570    2.0780 C   0  0  0  0  0  0  0  0  0  0  0  0
   -3.3890    5.0630    2.5140 C   0  0  0  0  0  0  0  0  0  0  0  0
   -4.6690    5.5660    3.0560 C   0  0  0  0  0  0  0  0  0  0  0  0
   -4.4540    6.0650    4.4920 C   0  0  0  0  0  0  0  0  0  0  0  0
   -5.7030    4.4320    3.0550 C   0  0  0  0  0  0  0  0  0  0  0  0
   -5.1740    6.7220    2.1810 C   0  0  0  0  0  0  0  0  0  0  0  0
    0.4080    4.7260    2.0810 S   0  0  0  0  0  0  0  0  0  0  0  0
    1.2290    3.6540    1.0250 C   0  0  0  0  0  0  0  0  0  0  0  0
    2.7850    3.5220    1.1300 C   0  0  0  0  0  0  0  0  0  0  0  0
    3.4470    4.6050    1.1450 O   0  0  0  0  0  0  0  0  0  0  0  0
    3.2520    2.3430    1.2010 O   0  0  0  0  0  0  0  0  0  0  0  0
    0.0950    0.7650   -0.9420 C   0  0  0  0  0  0  0  0  0  0  0  0
   -0.8880    0.5150   -1.6510 O   0  0  0  0  0  0  0  0  0  0  0  0
    0.7120   -0.3740   -0.1000 C   0  0  2  0  0  0  0  0  0  0  0  0
    0.7990   -1.6770   -0.9220 C   0  0  0  0  0  0  0  0  0  0  0  0
   -0.2620   -2.7020   -0.5250 C   0  0  0  0  0  0  0  0  0  0  0  0
   -0.1900   -3.0860    0.9630 C   0  0  1  0  0  0  0  0  0  0  0  0
    0.6950   -4.3140    1.1830 C   0  0  0  0  0  0  0  0  0  0  0  0
    0.2830   -1.9220    1.8480 C   0  0  0  0  0  0  0  0  0  0  0  0
   -0.0560   -0.5740    1.2230 C   0  0  0  0  0  0  0  0  0  0  0  0
    0.4311    4.3045   -2.0751 H   0  0  0  0  0  0  0  0  0  0  0  0
    1.6230    4.0326   -3.3912 H   0  0  0  0  0  0  0  0  0  0  0  0
    0.0654    3.1379   -3.3912 H   0  0  0  0  0  0  0  0  0  0  0  0
    2.5739    0.7079   -2.1357 H   0  0  0  0  0  0  0  0  0  0  0  0
    1.3538    0.9741   -3.4269 H   0  0  0  0  0  0  0  0  0  0  0  0
    2.8821    1.9181   -3.4269 H   0  0  0  0  0  0  0  0  0  0  0  0
   -1.8515    2.7151    0.1205 H   0  0  0  0  0  0  0  0  0  0  0  0
   -4.7865    5.2934    5.2020 H   0  0  0  0  0  0  0  0  0  0  0  0
   -3.3859    6.2742    4.6514 H   0  0  0  0  0  0  0  0  0  0  0  0
   -5.0356    6.9850    4.6514 H   0  0  0  0  0  0  0  0  0  0  0  0
   -5.9505    4.1606    4.0919 H   0  0  0  0  0  0  0  0  0  0  0  0
   -6.6135    4.7665    2.5362 H   0  0  0  0  0  0  0  0  0  0  0  0
   -5.2862    3.5562    2.5362 H   0  0  0  0  0  0  0  0  0  0  0  0
   -5.5312    7.5397    2.8242 H   0  0  0  0  0  0  0  0  0  0  0  0
   -4.3533    7.0868    1.5459 H   0  0  0  0  0  0  0  0  0  0  0  0
   -5.9993    6.3677    1.5459 H   0  0  0  0  0  0  0  0  0  0  0  0
    1.7387   -0.0848    0.1688 H   0  0  0  0  0  0  0  0  0  0  0  0
    0.6680   -1.4303   -1.9859 H   0  0  0  0  0  0  0  0  0  0  0  0
    1.7831   -2.1270   -0.7244 H   0  0  0  0  0  0  0  0  0  0  0  0
   -1.2557   -2.2776   -0.7311 H   0  0  0  0  0  0  0  0  0  0  0  0
   -0.0789   -3.6138   -1.1124 H   0  0  0  0  0  0  0  0  0  0  0  0
   -1.2175   -3.3359    1.2659 H   0  0  0  0  0  0  0  0  0  0  0  0
    0.8199   -4.4874    2.2620 H   0  0  0  0  0  0  0  0  0  0  0  0
    0.2221   -5.1940    0.7226 H   0  0  0  0  0  0  0  0  0  0  0  0
    1.6794   -4.1438    0.7226 H   0  0  0  0  0  0  0  0  0  0  0  0
   -0.2092   -1.9955    2.8290 H   0  0  0  0  0  0  0  0  0  0  0  0
    1.3759   -1.9894    1.9533 H   0  0  0  0  0  0  0  0  0  0  0  0
   -1.1367   -0.5312    1.0225 H   0  0  0  0  0  0  0  0  0  0  0  0
    0.2357    0.2224    1.9235 H   0  0  0  0  0  0  0  0  0  0  0  0
  1  2  1  0
  2  3  1  0
  2  4  1  0
  4  5  1  0
  5  6  1  0
  6  7  2  0
  7  8  1  0
  8  9  3  0
  9 10  1  0
 10 11  1  0
 10 12  1  0
 10 13  1  0
  7 14  1  0
 14 15  1  0
 15 16  1  0
 16 17  2  0
 16 18  1  0
  4 19  1  0
 19 20  2  0
 19 21  1  0
 21 22  1  0
 22 23  1  0
 23 24  1  0
 24 25  1  0
 24 26  1  0
 26 27  1  0
 15  5  2  0
 27 21  1  0
  1 28  1  0
  1 29  1  0
  1 30  1  0
  3 31  1  0
  3 32  1  0
  3 33  1  0
  6 34  1  0
 11 35  1  0
 11 36  1  0
 11 37  1  0
 12 38  1  0
 12 39  1  0
 12 40  1  0
 13 41  1  0
 13 42  1  0
 13 43  1  0
 21 44  1  6
 22 45  1  0
 22 46  1  0
 23 47  1  0
 23 48  1  0
 24 49  1  6
 25 50  1  0
 25 51  1  0
 25 52  1  0
 26 53  1  0
 26 54  1  0
 27 55  1  0
 27 56  1  0
M  CHG  1  18  -1
M  END
>  <meeko>  (1) 
{"is_sidechain": [false], "free_energy": -6.622, "intermolecular_energy": -8.944, "internal_energy": -0.995}

$$$$
4eo8_ligand
     RDKit          3D

 56 57  0  0  0  0  0  0  0  0999 V2000
   -2.8510    2.7130   -1.2060 C   0  0  0  0  0  0  0  0  0  0  0  0
   -2.3310    3.8250   -0.4220 N   0  0  0  0  0  0  0  0  0  0  0  0
   -1.8740    4.9490   -1.2260 C   0  0  0  0  0  0  0  0  0  0  0  0
   -1.5140    3.4660    0.6920 N   0  0  0  0  0  0  0  0  0  0  0  0
   -0.5720    2.4000    0.6040 C   0  0  0  0  0  0  0  0  0  0  0  0
   -0.8980    1.0280    0.9300 C   0  0  0  0  0  0  0  0  0  0  0  0
    0.1750    0.1680    0.8810 C   0  0  0  0  0  0  0  0  0  0  0  0
    0.1210   -1.2230    1.1880 C   0  0  0  0  0  0  0  0  0  0  0  0
    0.0740   -2.3960    1.4450 C   0  0  0  0  0  0  0  0  0  0  0  0
    0.0200   -3.8400    1.7570 C   0  0  0  0  0  0  0  0  0  0  0  0
    0.8960   -4.6090    0.7590 C   0  0  0  0  0  0  0  0  0  0  0  0
   -1.4300   -4.3300    1.6530 C   0  0  0  0  0  0  0  0  0  0  0  0
    0.5400   -4.0720    3.1820 C   0  0  0  0  0  0  0  0  0  0  0  0
    1.5940    0.9730    0.4170 S   0  0  0  0  0  0  0  0  0  0  0  0
    0.7650    2.4630    0.2420 C   0  0  0  0  0  0  0  0  0  0  0  0
    1.5180    3.6880   -0.3770 C   0  0  0  0  0  0  0  0  0  0  0  0
    2.2100    4.3910    0.4220 O   0  0  0  0  0  0  0  0  0  0  0  0
    1.3790    3.8690   -1.6260 O   0  0  0  0  0  0  0  0  0  0  0  0
   -1.4570    4.3660    1.7900 C   0  0  0  0  0  0  0  0  0  0  0  0
   -0.5090    5.1210    2.0330 O   0  0  0  0  0  0  0  0  0  0  0  0
   -2.6910    4.3990    2.7190 C   0  0  2  0  0  0  0  0  0  0  0  0
   -3.8440    5.1930    2.0700 C   0  0  0  0  0  0  0  0  0  0  0  0
   -4.0310    6.5790    2.6850 C   0  0  0  0  0  0  0  0  0  0  0  0
   -4.2970    6.5270    4.1990 C   0  0  1  0  0  0  0  0  0  0  0  0
   -5.7960    6.4840    4.5040 C   0  0  0  0  0  0  0  0  0  0  0  0
   -3.5800    5.3520    4.8820 C   0  0  0  0  0  0  0  0  0  0  0  0
   -2.3270    4.9430    4.1170 C   0  0  0  0  0  0  0  0  0  0  0  0
   -3.2184    1.9274   -0.5293 H   0  0  0  0  0  0  0  0  0  0  0  0
   -3.6773    3.0664   -1.8404 H   0  0  0  0  0  0  0  0  0  0  0  0
   -2.0501    2.3054   -1.8404 H   0  0  0  0  0  0  0  0  0  0  0  0
   -1.5431    5.7628   -0.5640 H   0  0  0  0  0  0  0  0  0  0  0  0
   -1.0348    4.6285   -1.8608 H   0  0  0  0  0  0  0  0  0  0  0  0
   -2.6988    5.3051   -1.8608 H   0  0  0  0  0  0  0  0  0  0  0  0
   -1.9147    0.7013    1.1939 H   0  0  0  0  0  0  0  0  0  0  0  0
    1.6122   -5.2377    1.3083 H   0  0  0  0  0  0  0  0  0  0  0  0
    0.2594   -5.2452    0.1266 H   0  0  0  0  0  0  0  0  0  0  0  0
    1.4444   -3.8953    0.1266 H   0  0  0  0  0  0  0  0  0  0  0  0
   -1.8432   -4.4696    2.6628 H   0  0  0  0  0  0  0  0  0  0  0  0
   -2.0308   -3.5850    1.1108 H   0  0  0  0  0  0  0  0  0  0  0  0
   -1.4557   -5.2867    1.1108 H   0  0  0  0  0  0  0  0  0  0  0  0
   -0.2152   -3.7350    3.9073 H   0  0  0  0  0  0  0  0  0  0  0  0
    0.7381   -5.1438    3.3301 H   0  0  0  0  0  0  0  0  0  0  0  0
    1.4699   -3.5034    3.3301 H   0  0  0  0  0  0  0  0  0  0  0  0
   -3.0419    3.3662    2.8610 H   0  0  0  0  0  0  0  0  0  0  0  0
   -3.6290    5.3109    0.9977 H   0  0  0  0  0  0  0  0  0  0  0  0
   -4.7719    4.6277    2.2416 H   0  0  0  0  0  0  0  0  0  0  0  0
   -3.1191    7.1682    2.5082 H   0  0  0  0  0  0  0  0  0  0  0  0
   -4.9107    7.0371    2.2092 H   0  0  0  0  0  0  0  0  0  0  0  0
   -3.8808    7.4560    4.6159 H   0  0  0  0  0  0  0  0  0  0  0  0
   -5.9485    6.4796    5.5934 H   0  0  0  0  0  0  0  0  0  0  0  0
   -6.2842    7.3685    4.0689 H   0  0  0  0  0  0  0  0  0  0  0  0
   -6.2327    5.5730    4.0689 H   0  0  0  0  0  0  0  0  0  0  0  0
   -3.2950    5.6508    5.9015 H   0  0  0  0  0  0  0  0  0  0  0  0
   -4.2672    4.4934    4.9039 H   0  0  0  0  0  0  0  0  0  0  0  0
   -1.6717    5.8192    4.0036 H   0  0  0  0  0  0  0  0  0  0  0  0
   -1.8129    4.1506    4.6807 H   0  0  0  0  0  0  0  0  0  0  0  0
  1  2  1  0
  2  3  1  0
  2  4  1  0
  4  5  1  0
  5  6  1  0
  6  7  2  0
  7  8  1  0
  8  9  3  0
  9 10  1  0
 10 11  1  0
 10 12  1  0
 10 13  1  0
  7 14  1  0
 14 15  1  0
 15 16  1  0
 16 17  2  0
 16 18  1  0
  4 19  1  0
 19 20  2  0
 19 21  1  0
 21 22  1  0
 22 23  1  0
 23 24  1  0
 24 25  1  0
 24 26  1  0
 26 27  1  0
 15  5  2  0
 27 21  1  0
  1 28  1  0
  1 29  1  0
  1 30  1  0
  3 31  1  0
  3 32  1  0
  3 33  1  0
  6 34  1  0
 11 35  1  0
 11 36  1  0
 11 37  1  0
 12 38  1  0
 12 39  1  0
 12 40  1  0
 13 41  1  0
 13 42  1  0
 13 43  1  0
 21 44  1  6
 22 45  1  0
 22 46  1  0
 23 47  1  0
 23 48  1  0
 24 49  1  6
 25 50  1  0
 25 51  1  0
 25 52  1  0
 26 53  1  0
 26 54  1  0
 27 55  1  0
 27 56  1  0
M  CHG  1  18  -1
M  END
>  <meeko>  (2) 
{"is_sidechain": [false], "free_energy": -6.497, "intermolecular_energy": -9.027, "internal_energy": -0.744}

$$$$
4eo8_ligand
     RDKit          3D

 56 57  0  0  0  0  0  0  0  0999 V2000
    0.3280    4.7930   -1.1590 C   0  0  0  0  0  0  0  0  0  0  0  0
    0.7700    4.2540    0.1200 N   0  0  0  0  0  0  0  0  0  0  0  0
    1.9850    3.4570    0.0360 C   0  0  0  0  0  0  0  0  0  0  0  0
   -0.2620    3.7520    0.9680 N   0  0  0  0  0  0  0  0  0  0  0  0
   -0.9000    2.5060    0.6970 C   0  0  0  0  0  0  0  0  0  0  0  0
   -0.3770    1.2350    1.1500 C   0  0  0  0  0  0  0  0  0  0  0  0
   -1.0830    0.1440    0.6970 C   0  0  0  0  0  0  0  0  0  0  0  0
   -0.7520   -1.2150    0.9770 C   0  0  0  0  0  0  0  0  0  0  0  0
   -0.4740   -2.3590    1.2150 C   0  0  0  0  0  0  0  0  0  0  0  0
   -0.1280   -3.7670    1.5030 C   0  0  0  0  0  0  0  0  0  0  0  0
    0.7500   -4.3170    0.3710 C   0  0  0  0  0  0  0  0  0  0  0  0
   -1.4140   -4.5970    1.6070 C   0  0  0  0  0  0  0  0  0  0  0  0
    0.6390   -3.8420    2.8310 C   0  0  0  0  0  0  0  0  0  0  0  0
   -2.4040    0.6120   -0.2580 S   0  0  0  0  0  0  0  0  0  0  0  0
   -2.0570    2.2750   -0.0320 C   0  0  0  0  0  0  0  0  0  0  0  0
   -3.0740    3.3450   -0.5510 C   0  0  0  0  0  0  0  0  0  0  0  0
   -4.1480    3.4760    0.1130 O   0  0  0  0  0  0  0  0  0  0  0  0
   -2.7360    3.9960   -1.5870 O   0  0  0  0  0  0  0  0  0  0  0  0
   -0.4440    4.3740    2.2330 C   0  0  0  0  0  0  0  0  0  0  0  0
    0.4660    4.8580    2.9160 O   0  0  0  0  0  0  0  0  0  0  0  0
   -1.8940    4.4590    2.7580 C   0  0  2  0  0  0  0  0  0  0  0  0
   -2.5930    5.7310    2.2350 C   0  0  0  0  0  0  0  0  0  0  0  0
   -2.7270    6.8170    3.3020 C   0  0  0  0  0  0  0  0  0  0  0  0
   -3.5010    6.3380    4.5420 C   0  0  1  0  0  0  0  0  0  0  0  0
   -4.9950    6.6450    4.4240 C   0  0  0  0  0  0  0  0  0  0  0  0
   -3.2840    4.8440    4.8300 C   0  0  0  0  0  0  0  0  0  0  0  0
   -1.9400    4.3630    4.2980 C   0  0  0  0  0  0  0  0  0  0  0  0
   -0.3607    5.6328   -0.9847 H   0  0  0  0  0  0  0  0  0  0  0  0
    1.1999    5.1461   -1.7291 H   0  0  0  0  0  0  0  0  0  0  0  0
   -0.1890    4.0071   -1.7291 H   0  0  0  0  0  0  0  0  0  0  0  0
    2.3411    3.2234    1.0502 H   0  0  0  0  0  0  0  0  0  0  0  0
    1.7734    2.5216   -0.5028 H   0  0  0  0  0  0  0  0  0  0  0  0
    2.7587    4.0236   -0.5028 H   0  0  0  0  0  0  0  0  0  0  0  0
    0.5068    1.1485    1.7991 H   0  0  0  0  0  0  0  0  0  0  0  0
    1.6081   -4.8546    0.8007 H   0  0  0  0  0  0  0  0  0  0  0  0
    0.1588   -5.0065   -0.2496 H   0  0  0  0  0  0  0  0  0  0  0  0
    1.1124   -3.4842   -0.2496 H   0  0  0  0  0  0  0  0  0  0  0  0
   -1.6623   -4.7572    2.6666 H   0  0  0  0  0  0  0  0  0  0  0  0
   -2.2379   -4.0598    1.1145 H   0  0  0  0  0  0  0  0  0  0  0  0
   -1.2639   -5.5691    1.1145 H   0  0  0  0  0  0  0  0  0  0  0  0
   -0.0706   -3.7726    3.6687 H   0  0  0  0  0  0  0  0  0  0  0  0
    1.1811   -4.7974    2.8879 H   0  0  0  0  0  0  0  0  0  0  0  0
    1.3559   -3.0097    2.8879 H   0  0  0  0  0  0  0  0  0  0  0  0
   -2.4514    3.5944    2.3684 H   0  0  0  0  0  0  0  0  0  0  0  0
   -2.0069    6.1338    1.3958 H   0  0  0  0  0  0  0  0  0  0  0  0
   -3.6090    5.4457    1.9248 H   0  0  0  0  0  0  0  0  0  0  0  0
   -1.7197    7.1294    3.6148 H   0  0  0  0  0  0  0  0  0  0  0  0
   -3.2919    7.6504    2.8590 H   0  0  0  0  0  0  0  0  0  0  0  0
   -3.0940    6.9015    5.3945 H   0  0  0  0  0  0  0  0  0  0  0  0
   -5.4314    6.7347    5.4297 H   0  0  0  0  0  0  0  0  0  0  0  0
   -5.1331    7.5903    3.8787 H   0  0  0  0  0  0  0  0  0  0  0  0
   -5.4947    5.8308    3.8787 H   0  0  0  0  0  0  0  0  0  0  0  0
   -3.3172    4.6810    5.9173 H   0  0  0  0  0  0  0  0  0  0  0  0
   -4.0789    4.2758    4.3247 H   0  0  0  0  0  0  0  0  0  0  0  0
   -1.1398    4.9873    4.7223 H   0  0  0  0  0  0  0  0  0  0  0  0
   -1.8010    3.3116    4.5901 H   0  0  0  0  0  0  0  0  0  0  0  0
  1  2  1  0
  2  3  1  0
  2  4  1  0
  4  5  1  0
  5  6  1  0
  6  7  2  0
  7  8  1  0
  8  9  3  0
  9 10  1  0
 10 11  1  0
 10 12  1  0
 10 13  1  0
  7 14  1  0
 14 15  1  0
 15 16  1  0
 16 17  2  0
 16 18  1  0
  4 19  1  0
 19 20  2  0
 19 21  1  0
 21 22  1  0
 22 23  1  0
 23 24  1  0
 24 25  1  0
 24 26  1  0
 26 27  1  0
 15  5  2  0
 27 21  1  0
  1 28  1  0
  1 29  1  0
  1 30  1  0
  3 31  1  0
  3 32  1  0
  3 33  1  0
  6 34  1  0
 11 35  1  0
 11 36  1  0
 11 37  1  0
 12 38  1  0
 12 39  1  0
 12 40  1  0
 13 41  1  0
 13 42  1  0
 13 43  1  0
 21 44  1  1
 22 45  1  0
 22 46  1  0
 23 47  1  0
 23 48  1  0
 24 49  1  6
 25 50  1  0
 25 51  1  0
 25 52  1  0
 26 53  1  0
 26 54  1  0
 27 55  1  0
 27 56  1  0
M  CHG  1  18  -1
M  END
>  <meeko>  (3) 
{"is_sidechain": [false], "free_energy": -6.443, "intermolecular_energy": -8.774, "internal_energy": -0.924}

$$$$
4eo8_ligand
     RDKit          3D

 56 57  0  0  0  0  0  0  0  0999 V2000
   -1.5510    6.2530    2.6490 C   0  0  0  0  0  0  0  0  0  0  0  0
   -1.9440    4.8940    3.0000 N   0  0  0  0  0  0  0  0  0  0  0  0
   -1.0860    4.2710    3.9960 C   0  0  0  0  0  0  0  0  0  0  0  0
   -2.3560    4.0700    1.9100 N   0  0  0  0  0  0  0  0  0  0  0  0
   -1.4750    3.1070    1.3380 C   0  0  0  0  0  0  0  0  0  0  0  0
   -1.5900    1.6850    1.5830 C   0  0  0  0  0  0  0  0  0  0  0  0
   -0.5820    0.9350    1.0230 C   0  0  0  0  0  0  0  0  0  0  0  0
   -0.4530   -0.4800    1.1450 C   0  0  0  0  0  0  0  0  0  0  0  0
   -0.3470   -1.6720    1.2470 C   0  0  0  0  0  0  0  0  0  0  0  0
   -0.2120   -3.1390    1.3670 C   0  0  0  0  0  0  0  0  0  0  0  0
    0.5660   -3.6800    0.1600 C   0  0  0  0  0  0  0  0  0  0  0  0
   -1.6070   -3.7770    1.4080 C   0  0  0  0  0  0  0  0  0  0  0  0
    0.5450   -3.4770    2.6600 C   0  0  0  0  0  0  0  0  0  0  0  0
    0.5140    1.9080    0.1680 S   0  0  0  0  0  0  0  0  0  0  0  0
   -0.3830    3.3270    0.5120 C   0  0  0  0  0  0  0  0  0  0  0  0
    0.0200    4.6710   -0.1810 C   0  0  0  0  0  0  0  0  0  0  0  0
    0.9340    5.3480    0.3840 O   0  0  0  0  0  0  0  0  0  0  0  0
   -0.5940    4.9660   -1.2520 O   0  0  0  0  0  0  0  0  0  0  0  0
   -3.7410    4.0300    1.5950 C   0  0  0  0  0  0  0  0  0  0  0  0
   -4.2060    3.6730    0.5070 O   0  0  0  0  0  0  0  0  0  0  0  0
   -4.7170    4.4480    2.7190 C   0  0  2  0  0  0  0  0  0  0  0  0
   -5.8150    3.3820    2.9140 C   0  0  0  0  0  0  0  0  0  0  0  0
   -7.1650    3.8080    2.3380 C   0  0  0  0  0  0  0  0  0  0  0  0
   -7.6810    5.1240    2.9430 C   0  0  1  0  0  0  0  0  0  0  0  0
   -8.5800    4.8700    4.1550 C   0  0  0  0  0  0  0  0  0  0  0  0
   -6.5420    6.0860    3.3180 C   0  0  0  0  0  0  0  0  0  0  0  0
   -5.3080    5.8490    2.4570 C   0  0  0  0  0  0  0  0  0  0  0  0
   -1.3828    6.8348    3.5673 H   0  0  0  0  0  0  0  0  0  0  0  0
   -0.6240    6.2254    2.0574 H   0  0  0  0  0  0  0  0  0  0  0  0
   -2.3496    6.7244    2.0574 H   0  0  0  0  0  0  0  0  0  0  0  0
   -1.4443    4.5312    5.0029 H   0  0  0  0  0  0  0  0  0  0  0  0
   -1.1102    3.1786    3.8691 H   0  0  0  0  0  0  0  0  0  0  0  0
   -0.0548    4.6321    3.8691 H   0  0  0  0  0  0  0  0  0  0  0  0
   -2.4115    1.2429    2.1659 H   0  0  0  0  0  0  0  0  0  0  0  0
    1.4216   -4.2750    0.5120 H   0  0  0  0  0  0  0  0  0  0  0  0
   -0.0957   -4.3138   -0.4486 H   0  0  0  0  0  0  0  0  0  0  0  0
    0.9298   -2.8390   -0.4486 H   0  0  0  0  0  0  0  0  0  0  0  0
   -1.9151   -3.9179    2.4545 H   0  0  0  0  0  0  0  0  0  0  0  0
   -2.3265   -3.1184    0.8994 H   0  0  0  0  0  0  0  0  0  0  0  0
   -1.5794   -4.7520    0.8994 H   0  0  0  0  0  0  0  0  0  0  0  0
   -0.0715   -3.2017    3.5284 H   0  0  0  0  0  0  0  0  0  0  0  0
    0.7581   -4.5558    2.6888 H   0  0  0  0  0  0  0  0  0  0  0  0
    1.4905   -2.9156    2.6888 H   0  0  0  0  0  0  0  0  0  0  0  0
   -4.1509    4.5131    3.6599 H   0  0  0  0  0  0  0  0  0  0  0  0
   -5.4970    2.4549    2.4147 H   0  0  0  0  0  0  0  0  0  0  0  0
   -5.9479    3.2385    3.9965 H   0  0  0  0  0  0  0  0  0  0  0  0
   -7.0581    3.9387    1.2510 H   0  0  0  0  0  0  0  0  0  0  0  0
   -7.8937    3.0216    2.5841 H   0  0  0  0  0  0  0  0  0  0  0  0
   -8.2791    5.6085    2.1572 H   0  0  0  0  0  0  0  0  0  0  0  0
   -8.0049    5.0325    5.0785 H   0  0  0  0  0  0  0  0  0  0  0  0
   -9.4348    5.5618    4.1288 H   0  0  0  0  0  0  0  0  0  0  0  0
   -8.9464    3.8332    4.1288 H   0  0  0  0  0  0  0  0  0  0  0  0
   -6.8856    7.1210    3.1738 H   0  0  0  0  0  0  0  0  0  0  0  0
   -6.2703    5.9077    4.3689 H   0  0  0  0  0  0  0  0  0  0  0  0
   -5.5877    5.9297    1.3962 H   0  0  0  0  0  0  0  0  0  0  0  0
   -4.5501    6.6044    2.7121 H   0  0  0  0  0  0  0  0  0  0  0  0
  1  2  1  0
  2  3  1  0
  2  4  1  0
  4  5  1  0
  5  6  1  0
  6  7  2  0
  7  8  1  0
  8  9  3  0
  9 10  1  0
 10 11  1  0
 10 12  1  0
 10 13  1  0
  7 14  1  0
 14 15  1  0
 15 16  1  0
 16 17  2  0
 16 18  1  0
  4 19  1  0
 19 20  2  0
 19 21  1  0
 21 22  1  0
 22 23  1  0
 23 24  1  0
 24 25  1  0
 24 26  1  0
 26 27  1  0
 15  5  2  0
 27 21  1  0
  1 28  1  0
  1 29  1  0
  1 30  1  0
  3 31  1  0
  3 32  1  0
  3 33  1  0
  6 34  1  0
 11 35  1  0
 11 36  1  0
 11 37  1  0
 12 38  1  0
 12 39  1  0
 12 40  1  0
 13 41  1  0
 13 42  1  0
 13 43  1  0
 21 44  1  6
 22 45  1  0
 22 46  1  0
 23 47  1  0
 23 48  1  0
 24 49  1  1
 25 50  1  0
 25 51  1  0
 25 52  1  0
 26 53  1  0
 26 54  1  0
 27 55  1  0
 27 56  1  0
M  CHG  1  18  -1
M  END
>  <meeko>  (4) 
{"is_sidechain": [false], "free_energy": -6.44, "intermolecular_energy": -8.71, "internal_energy": -0.984}

$$$$
4eo8_ligand
     RDKit          3D

 56 57  0  0  0  0  0  0  0  0999 V2000
    3.1730    4.8590    1.1840 C   0  0  0  0  0  0  0  0  0  0  0  0
    2.6320    3.5090    1.2630 N   0  0  0  0  0  0  0  0  0  0  0  0
    3.6370    2.4630    1.1400 C   0  0  0  0  0  0  0  0  0  0  0  0
    1.4030    3.2940    0.5690 N   0  0  0  0  0  0  0  0  0  0  0  0
    1.0760    2.0190    0.0240 C   0  0  0  0  0  0  0  0  0  0  0  0
    0.8300    0.8490    0.8410 C   0  0  0  0  0  0  0  0  0  0  0  0
    0.6320   -0.3070    0.1230 C   0  0  0  0  0  0  0  0  0  0  0  0
    0.4020   -1.5930    0.6930 C   0  0  0  0  0  0  0  0  0  0  0  0
    0.2060   -2.6760    1.1750 C   0  0  0  0  0  0  0  0  0  0  0  0
   -0.0410   -4.0090    1.7660 C   0  0  0  0  0  0  0  0  0  0  0  0
   -1.5360   -4.3410    1.6650 C   0  0  0  0  0  0  0  0  0  0  0  0
    0.3860   -3.9990    3.2400 C   0  0  0  0  0  0  0  0  0  0  0  0
    0.7730   -5.0630    1.0030 C   0  0  0  0  0  0  0  0  0  0  0  0
    0.7070   -0.0200   -1.5480 S   0  0  0  0  0  0  0  0  0  0  0  0
    0.9630    1.6570   -1.3100 C   0  0  0  0  0  0  0  0  0  0  0  0
    0.9490    2.6150   -2.5480 C   0  0  0  0  0  0  0  0  0  0  0  0
   -0.1230    3.2650   -2.7500 O   0  0  0  0  0  0  0  0  0  0  0  0
    2.0120    2.6660   -3.2400 O   0  0  0  0  0  0  0  0  0  0  0  0
    0.3980    4.2920    0.6760 C   0  0  0  0  0  0  0  0  0  0  0  0
    0.1620    5.1500   -0.1830 O   0  0  0  0  0  0  0  0  0  0  0  0
   -0.4630    4.2700    1.9590 C   0  0  2  0  0  0  0  0  0  0  0  0
   -1.9630    4.3570    1.6130 C   0  0  0  0  0  0  0  0  0  0  0  0
   -2.5600    5.7340    1.8980 C   0  0  0  0  0  0  0  0  0  0  0  0
   -2.3960    6.1610    3.3660 C   0  0  1  0  0  0  0  0  0  0  0  0
   -3.6100    5.7580    4.2060 C   0  0  0  0  0  0  0  0  0  0  0  0
   -1.1060    5.6140    3.9970 C   0  0  0  0  0  0  0  0  0  0  0  0
   -0.0300    5.3750    2.9450 C   0  0  0  0  0  0  0  0  0  0  0  0
    3.3301    5.2511    2.1997 H   0  0  0  0  0  0  0  0  0  0  0  0
    4.1324    4.8387    0.6463 H   0  0  0  0  0  0  0  0  0  0  0  0
    2.4650    5.5068    0.6463 H   0  0  0  0  0  0  0  0  0  0  0  0
    3.9508    2.1364    2.1424 H   0  0  0  0  0  0  0  0  0  0  0  0
    3.2121    1.6089    0.5923 H   0  0  0  0  0  0  0  0  0  0  0  0
    4.5074    2.8534    0.5923 H   0  0  0  0  0  0  0  0  0  0  0  0
    0.8038    0.8820    1.9402 H   0  0  0  0  0  0  0  0  0  0  0  0
   -1.9598   -4.4351    2.6757 H   0  0  0  0  0  0  0  0  0  0  0  0
   -2.0546   -3.5361    1.1234 H   0  0  0  0  0  0  0  0  0  0  0  0
   -1.6651   -5.2897    1.1234 H   0  0  0  0  0  0  0  0  0  0  0  0
   -0.5078   -4.0199    3.8808 H   0  0  0  0  0  0  0  0  0  0  0  0
    1.0070   -4.8828    3.4479 H   0  0  0  0  0  0  0  0  0  0  0  0
    0.9649   -3.0871    3.4479 H   0  0  0  0  0  0  0  0  0  0  0  0
    1.2826   -5.7228    1.7206 H   0  0  0  0  0  0  0  0  0  0  0  0
    0.0991   -5.6598    0.3708 H   0  0  0  0  0  0  0  0  0  0  0  0
    1.5207   -4.5618    0.3708 H   0  0  0  0  0  0  0  0  0  0  0  0
   -0.2979    3.3084    2.4670 H   0  0  0  0  0  0  0  0  0  0  0  0
   -2.0900    4.1340    0.5434 H   0  0  0  0  0  0  0  0  0  0  0  0
   -2.4909    3.6305    2.2482 H   0  0  0  0  0  0  0  0  0  0  0  0
   -2.0576    6.4744    1.2582 H   0  0  0  0  0  0  0  0  0  0  0  0
   -3.6382    5.6782    1.6873 H   0  0  0  0  0  0  0  0  0  0  0  0
   -2.3220    7.2585    3.3601 H   0  0  0  0  0  0  0  0  0  0  0  0
   -3.3606    5.8408    5.2741 H   0  0  0  0  0  0  0  0  0  0  0  0
   -4.4540    6.4242    3.9738 H   0  0  0  0  0  0  0  0  0  0  0  0
   -3.8881    4.7194    3.9738 H   0  0  0  0  0  0  0  0  0  0  0  0
   -0.7316    6.3407    4.7330 H   0  0  0  0  0  0  0  0  0  0  0  0
   -1.3374    4.6531    4.4798 H   0  0  0  0  0  0  0  0  0  0  0  0
    0.1432    6.3076    2.3880 H   0  0  0  0  0  0  0  0  0  0  0  0
    0.8925    5.0541    3.4510 H   0  0  0  0  0  0  0  0  0  0  0  0
  1  2  1  0
  2  3  1  0
  2  4  1  0
  4  5  1  0
  5  6  1  0
  6  7  2  0
  7  8  1  0
  8  9  3  0
  9 10  1  0
 10 11  1  0
 10 12  1  0
 10 13  1  0
  7 14  1  0
 14 15  1  0
 15 16  1  0
 16 17  2  0
 16 18  1  0
  4 19  1  0
 19 20  2  0
 19 21  1  0
 21 22  1  0
 22 23  1  0
 23 24  1  0
 24 25  1  0
 24 26  1  0
 26 27  1  0
 15  5  2  0
 27 21  1  0
  1 28  1  0
  1 29  1  0
  1 30  1  0
  3 31  1  0
  3 32  1  0
  3 33  1  0
  6 34  1  0
 11 35  1  0
 11 36  1  0
 11 37  1  0
 12 38  1  0
 12 39  1  0
 12 40  1  0
 13 41  1  0
 13 42  1  0
 13 43  1  0
 21 44  1  6
 22 45  1  0
 22 46  1  0
 23 47  1  0
 23 48  1  0
 24 49  1  1
 25 50  1  0
 25 51  1  0
 25 52  1  0
 26 53  1  0
 26 54  1  0
 27 55  1  0
 27 56  1  0
M  CHG  1  18  -1
M  END
>  <meeko>  (5) 
{"is_sidechain": [false], "free_energy": -6.359, "intermolecular_energy": -8.829, "internal_energy": -0.756}

$$$$
4eo8_ligand
     RDKit          3D

 56 57  0  0  0  0  0  0  0  0999 V2000
   -0.5850   -0.8930   -4.3130 C   0  0  0  0  0  0  0  0  0  0  0  0
   -1.3360   -0.2900   -3.2190 N   0  0  0  0  0  0  0  0  0  0  0  0
   -1.8280    1.0480   -3.5100 C   0  0  0  0  0  0  0  0  0  0  0  0
   -0.8000   -0.5010   -1.9130 N   0  0  0  0  0  0  0  0  0  0  0  0
   -0.2050    0.5650   -1.1780 C   0  0  0  0  0  0  0  0  0  0  0  0
   -0.8660    1.2320   -0.0760 C   0  0  0  0  0  0  0  0  0  0  0  0
   -0.1680    2.3020    0.4340 C   0  0  0  0  0  0  0  0  0  0  0  0
   -0.6180    3.1380    1.4980 C   0  0  0  0  0  0  0  0  0  0  0  0
   -0.9980    3.8400    2.3950 C   0  0  0  0  0  0  0  0  0  0  0  0
   -1.4600    4.7080    3.4990 C   0  0  0  0  0  0  0  0  0  0  0  0
   -0.3830    5.7580    3.8060 C   0  0  0  0  0  0  0  0  0  0  0  0
   -1.7150    3.8530    4.7470 C   0  0  0  0  0  0  0  0  0  0  0  0
   -2.7600    5.4110    3.0850 C   0  0  0  0  0  0  0  0  0  0  0  0
    1.3080    2.5220   -0.3730 S   0  0  0  0  0  0  0  0  0  0  0  0
    1.0320    1.1600   -1.3770 C   0  0  0  0  0  0  0  0  0  0  0  0
    2.1790    0.6590   -2.3170 C   0  0  0  0  0  0  0  0  0  0  0  0
    2.2030    1.1450   -3.4900 O   0  0  0  0  0  0  0  0  0  0  0  0
    2.9910   -0.1820   -1.8250 O   0  0  0  0  0  0  0  0  0  0  0  0
   -1.1220   -1.7170   -1.2520 C   0  0  0  0  0  0  0  0  0  0  0  0
   -2.1810   -2.3390   -1.3990 O   0  0  0  0  0  0  0  0  0  0  0  0
   -0.0470   -2.2920   -0.3030 C   0  0  2  0  0  0  0  0  0  0  0  0
    0.3920   -3.6980   -0.7630 C   0  0  0  0  0  0  0  0  0  0  0  0
   -0.1850   -4.8140    0.1060 C   0  0  0  0  0  0  0  0  0  0  0  0
    0.1960   -4.6700    1.5890 C   0  0  1  0  0  0  0  0  0  0  0  0
    1.4770   -5.4410    1.9170 C   0  0  0  0  0  0  0  0  0  0  0  0
    0.3330   -3.2010    2.0210 C   0  0  0  0  0  0  0  0  0  0  0  0
   -0.5300   -2.2860    1.1620 C   0  0  0  0  0  0  0  0  0  0  0  0
    0.2109   -1.5320   -3.9029 H   0  0  0  0  0  0  0  0  0  0  0  0
   -1.2619   -1.5013   -4.9309 H   0  0  0  0  0  0  0  0  0  0  0  0
   -0.1372   -0.1007   -4.9309 H   0  0  0  0  0  0  0  0  0  0  0  0
   -2.0236    1.5799   -2.5672 H   0  0  0  0  0  0  0  0  0  0  0  0
   -1.0732    1.5978   -4.0914 H   0  0  0  0  0  0  0  0  0  0  0  0
   -2.7592    0.9779   -4.0914 H   0  0  0  0  0  0  0  0  0  0  0  0
   -1.8412    0.9111    0.3189 H   0  0  0  0  0  0  0  0  0  0  0  0
   -0.2743    5.8640    4.8955 H   0  0  0  0  0  0  0  0  0  0  0  0
    0.5755    5.4381    3.3713 H   0  0  0  0  0  0  0  0  0  0  0  0
   -0.6785    6.7243    3.3713 H   0  0  0  0  0  0  0  0  0  0  0  0
   -1.5348    4.4571    5.6484 H   0  0  0  0  0  0  0  0  0  0  0  0
   -2.7572    3.5011    4.7437 H   0  0  0  0  0  0  0  0  0  0  0  0
   -1.0358    2.9877    4.7437 H   0  0  0  0  0  0  0  0  0  0  0  0
   -3.3166    5.7120    3.9847 H   0  0  0  0  0  0  0  0  0  0  0  0
   -2.5203    6.3024    2.4868 H   0  0  0  0  0  0  0  0  0  0  0  0
   -3.3748    4.7224    2.4868 H   0  0  0  0  0  0  0  0  0  0  0  0
    0.8371   -1.6390   -0.3486 H   0  0  0  0  0  0  0  0  0  0  0  0
    0.0548   -3.8497   -1.7990 H   0  0  0  0  0  0  0  0  0  0  0  0
    1.4877   -3.7463   -0.6784 H   0  0  0  0  0  0  0  0  0  0  0  0
   -1.2815   -4.7946    0.0211 H   0  0  0  0  0  0  0  0  0  0  0  0
    0.2346   -5.7651   -0.2536 H   0  0  0  0  0  0  0  0  0  0  0  0
   -0.6338   -5.1083    2.1628 H   0  0  0  0  0  0  0  0  0  0  0  0
    1.5934   -5.5111    3.0086 H   0  0  0  0  0  0  0  0  0  0  0  0
    1.4159   -6.4525    1.4891 H   0  0  0  0  0  0  0  0  0  0  0  0
    2.3422   -4.9135    1.4891 H   0  0  0  0  0  0  0  0  0  0  0  0
    0.0198   -3.1062    3.0712 H   0  0  0  0  0  0  0  0  0  0  0  0
    1.3841   -2.9008    1.8984 H   0  0  0  0  0  0  0  0  0  0  0  0
   -1.5727   -2.6345    1.1992 H   0  0  0  0  0  0  0  0  0  0  0  0
   -0.4542   -1.2608    1.5535 H   0  0  0  0  0  0  0  0  0  0  0  0
  1  2  1  0
  2  3  1  0
  2  4  1  0
  4  5  1  0
  5  6  1  0
  6  7  2  0
  7  8  1  0
  8  9  3  0
  9 10  1  0
 10 11  1  0
 10 12  1  0
 10 13  1  0
  7 14  1  0
 14 15  1  0
 15 16  1  0
 16 17  2  0
 16 18  1  0
  4 19  1  0
 19 20  2  0
 19 21  1  0
 21 22  1  0
 22 23  1  0
 23 24  1  0
 24 25  1  0
 24 26  1  0
 26 27  1  0
 15  5  2  0
 27 21  1  0
  1 28  1  0
  1 29  1  0
  1 30  1  0
  3 31  1  0
  3 32  1  0
  3 33  1  0
  6 34  1  0
 11 35  1  0
 11 36  1  0
 11 37  1  0
 12 38  1  0
 12 39  1  0
 12 40  1  0
 13 41  1  0
 13 42  1  0
 13 43  1  0
 21 44  1  6
 22 45  1  0
 22 46  1  0
 23 47  1  0
 23 48  1  0
 24 49  1  6
 25 50  1  0
 25 51  1  0
 25 52  1  0
 26 53  1  0
 26 54  1  0
 27 55  1  0
 27 56  1  0
M  CHG  1  18  -1
M  END
>  <meeko>  (6) 
{"is_sidechain": [false], "free_energy": -6.341, "intermolecular_energy": -8.374, "internal_energy": -1.186}

$$$$
4eo8_ligand
     RDKit          3D

 56 57  0  0  0  0  0  0  0  0999 V2000
    2.3390   -4.3180   -4.5350 C   0  0  0  0  0  0  0  0  0  0  0  0
    1.1220   -4.1750   -3.7470 N   0  0  0  0  0  0  0  0  0  0  0  0
    0.1150   -5.1860   -4.0300 C   0  0  0  0  0  0  0  0  0  0  0  0
    0.6510   -2.8390   -3.5750 N   0  0  0  0  0  0  0  0  0  0  0  0
    0.7090   -1.8930   -4.6390 C   0  0  0  0  0  0  0  0  0  0  0  0
    0.2910   -2.1960   -5.9910 C   0  0  0  0  0  0  0  0  0  0  0  0
    0.5230   -1.1820   -6.8920 C   0  0  0  0  0  0  0  0  0  0  0  0
    0.2310   -1.2460   -8.2860 C   0  0  0  0  0  0  0  0  0  0  0  0
   -0.0190   -1.3010   -9.4590 C   0  0  0  0  0  0  0  0  0  0  0  0
   -0.3250   -1.3740  -10.9040 C   0  0  0  0  0  0  0  0  0  0  0  0
   -0.2120   -2.8310  -11.3750 C   0  0  0  0  0  0  0  0  0  0  0  0
    0.6710   -0.5040  -11.6810 C   0  0  0  0  0  0  0  0  0  0  0  0
   -1.7520   -0.8640  -11.1480 C   0  0  0  0  0  0  0  0  0  0  0  0
    1.2220    0.1690   -6.1400 S   0  0  0  0  0  0  0  0  0  0  0  0
    1.1750   -0.5870   -4.6020 C   0  0  0  0  0  0  0  0  0  0  0  0
    1.5460    0.2470   -3.3300 C   0  0  0  0  0  0  0  0  0  0  0  0
    0.6430    1.0120   -2.8700 O   0  0  0  0  0  0  0  0  0  0  0  0
    2.7150    0.0810   -2.8630 O   0  0  0  0  0  0  0  0  0  0  0  0
   -0.1300   -2.5540   -2.4220 C   0  0  0  0  0  0  0  0  0  0  0  0
   -1.3510   -2.3630   -2.4280 O   0  0  0  0  0  0  0  0  0  0  0  0
    0.6230   -2.5060   -1.0730 C   0  0  2  0  0  0  0  0  0  0  0  0
    0.5750   -3.8790   -0.3710 C   0  0  0  0  0  0  0  0  0  0  0  0
   -0.4020   -3.9120    0.8030 C   0  0  0  0  0  0  0  0  0  0  0  0
   -0.0810   -2.8540    1.8720 C   0  0  1  0  0  0  0  0  0  0  0  0
    0.8320   -3.4170    2.9630 C   0  0  0  0  0  0  0  0  0  0  0  0
    0.5300   -1.5780    1.2720 C   0  0  0  0  0  0  0  0  0  0  0  0
    0.0880   -1.3740   -0.1720 C   0  0  0  0  0  0  0  0  0  0  0  0
    3.2024   -4.4195   -3.8610 H   0  0  0  0  0  0  0  0  0  0  0  0
    2.2619   -5.2133   -5.1695 H   0  0  0  0  0  0  0  0  0  0  0  0
    2.4716   -3.4293   -5.1695 H   0  0  0  0  0  0  0  0  0  0  0  0
   -0.2812   -5.5838   -3.0841 H   0  0  0  0  0  0  0  0  0  0  0  0
   -0.7040   -4.7355   -4.6100 H   0  0  0  0  0  0  0  0  0  0  0  0
    0.5687   -6.0032   -4.6100 H   0  0  0  0  0  0  0  0  0  0  0  0
   -0.1717   -3.1531   -6.2737 H   0  0  0  0  0  0  0  0  0  0  0  0
   -0.1604   -3.4961  -10.5004 H   0  0  0  0  0  0  0  0  0  0  0  0
   -1.0928   -3.0898  -11.9810 H   0  0  0  0  0  0  0  0  0  0  0  0
    0.6981   -2.9509  -11.9810 H   0  0  0  0  0  0  0  0  0  0  0  0
    1.3048    0.0496  -10.9726 H   0  0  0  0  0  0  0  0  0  0  0  0
    1.3021   -1.1453  -12.3138 H   0  0  0  0  0  0  0  0  0  0  0  0
    0.1204    0.2076  -12.3138 H   0  0  0  0  0  0  0  0  0  0  0  0
   -2.2481   -0.6867  -10.1824 H   0  0  0  0  0  0  0  0  0  0  0  0
   -1.7130    0.0758  -11.7182 H   0  0  0  0  0  0  0  0  0  0  0  0
   -2.3175   -1.6157  -11.7182 H   0  0  0  0  0  0  0  0  0  0  0  0
    1.6796   -2.2774   -1.2762 H   0  0  0  0  0  0  0  0  0  0  0  0
    0.2674   -4.6381   -1.1052 H   0  0  0  0  0  0  0  0  0  0  0  0
    1.5795   -4.0806    0.0294 H   0  0  0  0  0  0  0  0  0  0  0  0
   -1.4173   -3.7297    0.4211 H   0  0  0  0  0  0  0  0  0  0  0  0
   -0.3175   -4.9006    1.2780 H   0  0  0  0  0  0  0  0  0  0  0  0
   -1.0431   -2.5777    2.3281 H   0  0  0  0  0  0  0  0  0  0  0  0
    0.4213   -3.1638    3.9515 H   0  0  0  0  0  0  0  0  0  0  0  0
    0.8941   -4.5105    2.8609 H   0  0  0  0  0  0  0  0  0  0  0  0
    1.8370   -2.9815    2.8609 H   0  0  0  0  0  0  0  0  0  0  0  0
    0.2089   -0.7124    1.8700 H   0  0  0  0  0  0  0  0  0  0  0  0
    1.6252   -1.6791    1.2871 H   0  0  0  0  0  0  0  0  0  0  0  0
   -1.0111   -1.3674   -0.2153 H   0  0  0  0  0  0  0  0  0  0  0  0
    0.4908   -0.4159   -0.5323 H   0  0  0  0  0  0  0  0  0  0  0  0
  1  2  1  0
  2  3  1  0
  2  4  1  0
  4  5  1  0
  5  6  1  0
  6  7  2  0
  7  8  1  0
  8  9  3  0
  9 10  1  0
 10 11  1  0
 10 12  1  0
 10 13  1  0
  7 14  1  0
 14 15  1  0
 15 16  1  0
 16 17  2  0
 16 18  1  0
  4 19  1  0
 19 20  2  0
 19 21  1  0
 21 22  1  0
 22 23  1  0
 23 24  1  0
 24 25  1  0
 24 26  1  0
 26 27  1  0
 15  5  2  0
 27 21  1  0
  1 28  1  0
  1 29  1  0
  1 30  1  0
  3 31  1  0
  3 32  1  0
  3 33  1  0
  6 34  1  0
 11 35  1  0
 11 36  1  0
 11 37  1  0
 12 38  1  0
 12 39  1  0
 12 40  1  0
 13 41  1  0
 13 42  1  0
 13 43  1  0
 21 44  1  1
 22 45  1  0
 22 46  1  0
 23 47  1  0
 23 48  1  0
 24 49  1  6
 25 50  1  0
 25 51  1  0
 25 52  1  0
 26 53  1  0
 26 54  1  0
 27 55  1  0
 27 56  1  0
M  CHG  1  18  -1
M  END
>  <meeko>  (7) 
{"is_sidechain": [false], "free_energy": -6.305, "intermolecular_energy": -8.745, "internal_energy": -0.767}

$$$$
4eo8_ligand
     RDKit          3D

 56 57  0  0  0  0  0  0  0  0999 V2000
    1.6360    2.4270   -2.4500 C   0  0  0  0  0  0  0  0  0  0  0  0
    0.6460    3.0590   -1.5880 N   0  0  0  0  0  0  0  0  0  0  0  0
    0.3320    4.4310   -1.9580 C   0  0  0  0  0  0  0  0  0  0  0  0
    0.7820    2.7920   -0.1920 N   0  0  0  0  0  0  0  0  0  0  0  0
    0.1880    3.6440    0.7840 C   0  0  0  0  0  0  0  0  0  0  0  0
   -1.2410    3.7240    1.0000 C   0  0  0  0  0  0  0  0  0  0  0  0
   -1.6190    4.6790    1.9140 C   0  0  0  0  0  0  0  0  0  0  0  0
   -2.9660    4.9740    2.2770 C   0  0  0  0  0  0  0  0  0  0  0  0
   -4.1010    5.2200    2.5840 C   0  0  0  0  0  0  0  0  0  0  0  0
   -5.4990    5.5250    2.9550 C   0  0  0  0  0  0  0  0  0  0  0  0
   -6.1170    6.4490    1.8970 C   0  0  0  0  0  0  0  0  0  0  0  0
   -5.5220    6.2210    4.3220 C   0  0  0  0  0  0  0  0  0  0  0  0
   -6.3030    4.2200    3.0300 C   0  0  0  0  0  0  0  0  0  0  0  0
   -0.2740    5.4880    2.5590 S   0  0  0  0  0  0  0  0  0  0  0  0
    0.8160    4.5310    1.6460 C   0  0  0  0  0  0  0  0  0  0  0  0
    2.3530    4.6550    1.9170 C   0  0  0  0  0  0  0  0  0  0  0  0
    3.1120    4.6250    0.8990 O   0  0  0  0  0  0  0  0  0  0  0  0
    2.7080    4.7830    3.1280 O   0  0  0  0  0  0  0  0  0  0  0  0
    1.2780    1.5170    0.1940 C   0  0  0  0  0  0  0  0  0  0  0  0
    2.3800    1.3190    0.7170 O   0  0  0  0  0  0  0  0  0  0  0  0
    0.3420    0.3120   -0.0480 C   0  0  2  0  0  0  0  0  0  0  0  0
   -0.2950   -0.1610    1.2760 C   0  0  0  0  0  0  0  0  0  0  0  0
    0.3260   -1.4510    1.8070 C   0  0  0  0  0  0  0  0  0  0  0  0
    0.2300   -2.6130    0.8040 C   0  0  1  0  0  0  0  0  0  0  0  0
   -1.0350   -3.4460    1.0280 C   0  0  0  0  0  0  0  0  0  0  0  0
    0.3030   -2.1380   -0.6560 C   0  0  0  0  0  0  0  0  0  0  0  0
    1.0770   -0.8320   -0.7780 C   0  0  0  0  0  0  0  0  0  0  0  0
    2.4024    1.9378   -1.8309 H   0  0  0  0  0  0  0  0  0  0  0  0
    1.1433    1.6760   -3.0850 H   0  0  0  0  0  0  0  0  0  0  0  0
    2.1098    3.1901   -3.0850 H   0  0  0  0  0  0  0  0  0  0  0  0
    0.1941    5.0337   -1.0482 H   0  0  0  0  0  0  0  0  0  0  0  0
    1.1578    4.8485   -2.5527 H   0  0  0  0  0  0  0  0  0  0  0  0
   -0.5932    4.4478   -2.5527 H   0  0  0  0  0  0  0  0  0  0  0  0
   -1.9617    3.0771    0.4784 H   0  0  0  0  0  0  0  0  0  0  0  0
   -6.6622    7.2641    2.3954 H   0  0  0  0  0  0  0  0  0  0  0  0
   -5.3194    6.8719    1.2686 H   0  0  0  0  0  0  0  0  0  0  0  0
   -6.8125    5.8733    1.2686 H   0  0  0  0  0  0  0  0  0  0  0  0
   -5.4970    5.4638    5.1195 H   0  0  0  0  0  0  0  0  0  0  0  0
   -4.6451    6.8788    4.4133 H   0  0  0  0  0  0  0  0  0  0  0  0
   -6.4404    6.8195    4.4133 H   0  0  0  0  0  0  0  0  0  0  0  0
   -6.4685    3.9514    4.0838 H   0  0  0  0  0  0  0  0  0  0  0  0
   -7.2731    4.3577    2.5300 H   0  0  0  0  0  0  0  0  0  0  0  0
   -5.7437    3.4155    2.5300 H   0  0  0  0  0  0  0  0  0  0  0  0
   -0.4747    0.6386   -0.7085 H   0  0  0  0  0  0  0  0  0  0  0  0
   -0.1632    0.6285    2.0306 H   0  0  0  0  0  0  0  0  0  0  0  0
   -1.3576   -0.3639    1.0769 H   0  0  0  0  0  0  0  0  0  0  0  0
    1.3871   -1.2651    2.0296 H   0  0  0  0  0  0  0  0  0  0  0  0
   -0.2337   -1.7428    2.7079 H   0  0  0  0  0  0  0  0  0  0  0  0
    1.1071   -3.2504    0.9894 H   0  0  0  0  0  0  0  0  0  0  0  0
   -1.2112   -3.5620    2.1076 H   0  0  0  0  0  0  0  0  0  0  0  0
   -1.8953   -2.9371    0.5687 H   0  0  0  0  0  0  0  0  0  0  0  0
   -0.9073   -4.4373    0.5687 H   0  0  0  0  0  0  0  0  0  0  0  0
    0.8053   -2.9092   -1.2585 H   0  0  0  0  0  0  0  0  0  0  0  0
   -0.7223   -1.9674   -1.0160 H   0  0  0  0  0  0  0  0  0  0  0  0
    2.0746   -0.9613   -0.3330 H   0  0  0  0  0  0  0  0  0  0  0  0
    1.1632   -0.5719   -1.8433 H   0  0  0  0  0  0  0  0  0  0  0  0
  1  2  1  0
  2  3  1  0
  2  4  1  0
  4  5  1  0
  5  6  1  0
  6  7  2  0
  7  8  1  0
  8  9  3  0
  9 10  1  0
 10 11  1  0
 10 12  1  0
 10 13  1  0
  7 14  1  0
 14 15  1  0
 15 16  1  0
 16 17  2  0
 16 18  1  0
  4 19  1  0
 19 20  2  0
 19 21  1  0
 21 22  1  0
 22 23  1  0
 23 24  1  0
 24 25  1  0
 24 26  1  0
 26 27  1  0
 15  5  2  0
 27 21  1  0
  1 28  1  0
  1 29  1  0
  1 30  1  0
  3 31  1  0
  3 32  1  0
  3 33  1  0
  6 34  1  0
 11 35  1  0
 11 36  1  0
 11 37  1  0
 12 38  1  0
 12 39  1  0
 12 40  1  0
 13 41  1  0
 13 42  1  0
 13 43  1  0
 21 44  1  1
 22 45  1  0
 22 46  1  0
 23 47  1  0
 23 48  1  0
 24 49  1  6
 25 50  1  0
 25 51  1  0
 25 52  1  0
 26 53  1  0
 26 54  1  0
 27 55  1  0
 27 56  1  0
M  CHG  1  18  -1
M  END
>  <meeko>  (8) 
{"is_sidechain": [false], "free_energy": -6.26, "intermolecular_energy": -8.602, "internal_energy": -0.85}

$$$$
4eo8_ligand
     RDKit          3D

 56 57  0  0  0  0  0  0  0  0999 V2000
    2.5860    0.0080   -1.2290 C   0  0  0  0  0  0  0  0  0  0  0  0
    1.6600   -1.0660   -1.5640 N   0  0  0  0  0  0  0  0  0  0  0  0
    1.9500   -1.7210   -2.8310 C   0  0  0  0  0  0  0  0  0  0  0  0
    0.2850   -0.8040   -1.2840 N   0  0  0  0  0  0  0  0  0  0  0  0
   -0.1920    0.5260   -1.1030 C   0  0  0  0  0  0  0  0  0  0  0  0
   -0.2690    1.1710    0.1910 C   0  0  0  0  0  0  0  0  0  0  0  0
   -0.8530    2.4160    0.1650 C   0  0  0  0  0  0  0  0  0  0  0  0
   -1.0720    3.2380    1.3090 C   0  0  0  0  0  0  0  0  0  0  0  0
   -1.2540    3.9310    2.2730 C   0  0  0  0  0  0  0  0  0  0  0  0
   -1.4840    4.7860    3.4580 C   0  0  0  0  0  0  0  0  0  0  0  0
   -2.6850    5.7050    3.1970 C   0  0  0  0  0  0  0  0  0  0  0  0
   -0.2340    5.6360    3.7220 C   0  0  0  0  0  0  0  0  0  0  0  0
   -1.7700    3.8990    4.6780 C   0  0  0  0  0  0  0  0  0  0  0  0
   -1.3010    2.8590   -1.4100 S   0  0  0  0  0  0  0  0  0  0  0  0
   -0.6760    1.4030   -2.0630 C   0  0  0  0  0  0  0  0  0  0  0  0
   -0.6090    1.2300   -3.6170 C   0  0  0  0  0  0  0  0  0  0  0  0
    0.5490    1.1390   -4.1290 O   0  0  0  0  0  0  0  0  0  0  0  0
   -1.7180    1.1870   -4.2330 O   0  0  0  0  0  0  0  0  0  0  0  0
   -0.6430   -1.8650   -1.4660 C   0  0  0  0  0  0  0  0  0  0  0  0
   -1.3310   -2.0330   -2.4800 O   0  0  0  0  0  0  0  0  0  0  0  0
   -0.7660   -2.8810   -0.3090 C   0  0  2  0  0  0  0  0  0  0  0  0
   -0.9410   -2.1540    1.0410 C   0  0  0  0  0  0  0  0  0  0  0  0
    0.3260   -2.1700    1.8930 C   0  0  0  0  0  0  0  0  0  0  0  0
    0.8220   -3.5950    2.1940 C   0  0  1  0  0  0  0  0  0  0  0  0
    0.2510   -4.1220    3.5120 C   0  0  0  0  0  0  0  0  0  0  0  0
    0.5190   -4.5770    1.0510 C   0  0  0  0  0  0  0  0  0  0  0  0
    0.4270   -3.8590   -0.2900 C   0  0  0  0  0  0  0  0  0  0  0  0
    2.6633    0.0977   -0.1354 H   0  0  0  0  0  0  0  0  0  0  0  0
    3.5771   -0.2179   -1.6494 H   0  0  0  0  0  0  0  0  0  0  0  0
    2.2166    0.9550   -1.6494 H   0  0  0  0  0  0  0  0  0  0  0  0
    2.3885   -2.7115   -2.6398 H   0  0  0  0  0  0  0  0  0  0  0  0
    1.0191   -1.8369   -3.4054 H   0  0  0  0  0  0  0  0  0  0  0  0
    2.6616   -1.1097   -3.4054 H   0  0  0  0  0  0  0  0  0  0  0  0
    0.1068    0.7059    1.1143 H   0  0  0  0  0  0  0  0  0  0  0  0
   -3.1120    6.0318    4.1566 H   0  0  0  0  0  0  0  0  0  0  0  0
   -2.3561    6.5843    2.6236 H   0  0  0  0  0  0  0  0  0  0  0  0
   -3.4477    5.1577    2.6236 H   0  0  0  0  0  0  0  0  0  0  0  0
   -0.0829    5.7388    4.8067 H   0  0  0  0  0  0  0  0  0  0  0  0
    0.6435    5.1466    3.2743 H   0  0  0  0  0  0  0  0  0  0  0  0
   -0.3666    6.6320    3.2743 H   0  0  0  0  0  0  0  0  0  0  0  0
   -1.5854    4.4715    5.5989 H   0  0  0  0  0  0  0  0  0  0  0  0
   -2.8196    3.5706    4.6546 H   0  0  0  0  0  0  0  0  0  0  0  0
   -1.1100    3.0193    4.6546 H   0  0  0  0  0  0  0  0  0  0  0  0
   -1.6694   -3.4855   -0.4777 H   0  0  0  0  0  0  0  0  0  0  0  0
   -1.2177   -1.1079    0.8431 H   0  0  0  0  0  0  0  0  0  0  0  0
   -1.7234   -2.6850    1.6029 H   0  0  0  0  0  0  0  0  0  0  0  0
    1.1181   -1.6280    1.3557 H   0  0  0  0  0  0  0  0  0  0  0  0
    0.0857   -1.6922    2.8542 H   0  0  0  0  0  0  0  0  0  0  0  0
    1.9156   -3.5250    2.2893 H   0  0  0  0  0  0  0  0  0  0  0  0
    0.7707   -3.6424    4.3546 H   0  0  0  0  0  0  0  0  0  0  0  0
   -0.8232   -3.8913    3.5645 H   0  0  0  0  0  0  0  0  0  0  0  0
    0.3950   -5.2113    3.5645 H   0  0  0  0  0  0  0  0  0  0  0  0
    1.3224   -5.3267    1.0010 H   0  0  0  0  0  0  0  0  0  0  0  0
   -0.4502   -5.0559    1.2542 H   0  0  0  0  0  0  0  0  0  0  0  0
    1.3566   -3.2967   -0.4622 H   0  0  0  0  0  0  0  0  0  0  0  0
    0.2799   -4.6089   -1.0813 H   0  0  0  0  0  0  0  0  0  0  0  0
  1  2  1  0
  2  3  1  0
  2  4  1  0
  4  5  1  0
  5  6  1  0
  6  7  2  0
  7  8  1  0
  8  9  3  0
  9 10  1  0
 10 11  1  0
 10 12  1  0
 10 13  1  0
  7 14  1  0
 14 15  1  0
 15 16  1  0
 16 17  2  0
 16 18  1  0
  4 19  1  0
 19 20  2  0
 19 21  1  0
 21 22  1  0
 22 23  1  0
 23 24  1  0
 24 25  1  0
 24 26  1  0
 26 27  1  0
 15  5  2  0
 27 21  1  0
  1 28  1  0
  1 29  1  0
  1 30  1  0
  3 31  1  0
  3 32  1  0
  3 33  1  0
  6 34  1  0
 11 35  1  0
 11 36  1  0
 11 37  1  0
 12 38  1  0
 12 39  1  0
 12 40  1  0
 13 41  1  0
 13 42  1  0
 13 43  1  0
 21 44  1  1
 22 45  1  0
 22 46  1  0
 23 47  1  0
 23 48  1  0
 24 49  1  6
 25 50  1  0
 25 51  1  0
 25 52  1  0
 26 53  1  0
 26 54  1  0
 27 55  1  0
 27 56  1  0
M  CHG  1  18  -1
M  END
>  <meeko>  (9) 
{"is_sidechain": [false], "free_energy": -6.243, "intermolecular_energy": -8.533, "internal_energy": -0.896}

$$$$
