
     RDKit          3D

 15 16  0  0  0  0  0  0  0  0999 V2000
   -2.0830    4.4810  -26.0300 C   0  0  0  0  0  0  0  0  0  0  0  0
   -2.1020    3.1970  -26.6530 O   0  0  0  0  0  0  0  0  0  0  0  0
   -1.5830    2.1250  -25.9430 C   0  0  0  0  0  0  0  0  0  0  0  0
   -0.9710    2.2670  -24.6860 C   0  0  0  0  0  0  0  0  0  0  0  0
   -0.4710    1.1490  -24.0070 C   0  0  0  0  0  0  0  0  0  0  0  0
   -0.5870   -0.1010  -24.5740 C   0  0  0  0  0  0  0  0  0  0  0  0
   -0.2110   -1.4190  -24.1770 C   0  0  0  0  0  0  0  0  0  0  0  0
    0.4490   -1.8300  -22.8890 C   0  0  0  0  0  0  0  0  0  0  0  0
    1.8670   -2.3460  -23.0370 C   0  0  0  0  0  0  0  0  0  0  0  0
    2.7720   -1.7730  -22.4000 O   0  0  0  0  0  0  0  0  0  0  0  0
    2.0760   -3.3320  -23.7830 O   0  0  0  0  0  0  0  0  0  0  0  0
   -0.6210   -2.2540  -25.1820 C   0  0  0  0  0  0  0  0  0  0  0  0
   -1.2100   -1.5560  -26.1920 O   0  0  0  0  0  0  0  0  0  0  0  0
   -1.2000   -0.2220  -25.8230 C   0  0  0  0  0  0  0  0  0  0  0  0
   -1.6970    0.8660  -26.5240 C   0  0  0  0  0  0  0  0  0  0  0  0
  2  1  1  0
  3  2  1  0
  4  3  2  0
  5  4  1  0
  6  5  2  0
  7  6  1  0
  8  7  1  0
  9  8  1  0
 10  9  2  0
 11  9  1  0
 12  7  2  0
 13 12  1  0
 14 13  1  0
 14  6  1  0
 15 14  2  0
 15  3  1  0
M  CHG  1  11  -1
M  END
$$$$
