4ciw_ligand
     RDKit          3D

 28 28  0  0  0  0  0  0  0  0999 V2000
    0.1310   23.9910  -11.9360 O   0  0  0  0  0  0  0  0  0  0  0  0
   -0.3740   24.5760  -12.9320 C   0  0  0  0  0  0  0  0  0  0  0  0
   -0.2120   25.7680  -13.3510 O   0  0  0  0  0  0  0  0  0  0  0  0
   -1.3520   23.7410  -13.8470 C   0  0  2  0  0  0  0  0  0  0  0  0
   -0.5760   23.1180  -14.9040 O   0  0  0  0  0  0  0  0  0  0  0  0
   -2.3270   24.6550  -14.5520 C   0  0  0  0  0  0  0  0  0  0  0  0
   -3.6470   24.4060  -14.6780 C   0  0  0  0  0  0  0  0  0  0  0  0
   -4.5770   25.3960  -15.3420 C   0  0  0  0  0  0  0  0  0  0  0  0
   -4.7300   26.7040  -14.5600 C   0  0  0  0  0  0  0  0  0  0  0  0
   -5.4980   27.6570  -15.2910 O   0  0  0  0  0  0  0  0  0  0  0  0
   -4.2500   23.1580  -14.0800 C   0  0  1  0  0  0  0  0  0  0  0  0
   -5.2440   22.6110  -14.9520 O   0  0  0  0  0  0  0  0  0  0  0  0
   -3.2030   22.0600  -13.7930 C   0  0  2  0  0  0  0  0  0  0  0  0
   -3.8350   21.0060  -13.0430 O   0  0  0  0  0  0  0  0  0  0  0  0
   -2.0180   22.6370  -13.0280 C   0  0  0  0  0  0  0  0  0  0  0  0
    0.2190   23.7090  -14.9360 H   0  0  0  0  0  0  0  0  0  0  0  0
   -1.9350   25.5842  -14.9912 H   0  0  0  0  0  0  0  0  0  0  0  0
   -4.1808   25.6310  -16.3409 H   0  0  0  0  0  0  0  0  0  0  0  0
   -5.5710   24.9272  -15.3893 H   0  0  0  0  0  0  0  0  0  0  0  0
   -5.2342   26.4939  -13.6052 H   0  0  0  0  0  0  0  0  0  0  0  0
   -3.7284   27.1244  -14.3866 H   0  0  0  0  0  0  0  0  0  0  0  0
   -5.8620   27.1760  -16.0600 H   0  0  0  0  0  0  0  0  0  0  0  0
   -4.6966   23.4690  -13.1240 H   0  0  0  0  0  0  0  0  0  0  0  0
   -4.8260   21.8000  -15.3000 H   0  0  0  0  0  0  0  0  0  0  0  0
   -2.8186   21.6550  -14.7408 H   0  0  0  0  0  0  0  0  0  0  0  0
   -3.5890   20.1770  -13.4920 H   0  0  0  0  0  0  0  0  0  0  0  0
   -2.3698   23.0543  -12.0730 H   0  0  0  0  0  0  0  0  0  0  0  0
   -1.2867   21.8370  -12.8401 H   0  0  0  0  0  0  0  0  0  0  0  0
  1  2  2  0
  2  3  1  0
  2  4  1  0
  4  5  1  6
  4  6  1  0
  6  7  2  0
  7  8  1  0
  8  9  1  0
  9 10  1  0
  7 11  1  0
 11 12  1  0
 11 13  1  0
 13 14  1  0
 13 15  1  0
 15  4  1  0
  5 16  1  0
  6 17  1  0
  8 18  1  0
  8 19  1  0
  9 20  1  0
  9 21  1  0
 10 22  1  0
 11 23  1  1
 12 24  1  0
 13 25  1  6
 14 26  1  0
 15 27  1  0
 15 28  1  0
M  CHG  1   3  -1
M  END
>  <meeko>  (1) 
{"is_sidechain": [false], "free_energy": -6.29, "intermolecular_energy": -8.129, "internal_energy": -0.155}

$$$$
4ciw_ligand
     RDKit          3D

 28 28  0  0  0  0  0  0  0  0999 V2000
   -5.7970   22.5410  -15.4780 O   0  0  0  0  0  0  0  0  0  0  0  0
   -5.0350   23.5020  -15.1890 C   0  0  0  0  0  0  0  0  0  0  0  0
   -4.9620   24.6710  -15.6910 O   0  0  0  0  0  0  0  0  0  0  0  0
   -4.0030   23.2840  -14.0140 C   0  0  2  0  0  0  0  0  0  0  0  0
   -4.6520   23.6210  -12.7610 O   0  0  0  0  0  0  0  0  0  0  0  0
   -2.8470   24.2490  -14.1390 C   0  0  0  0  0  0  0  0  0  0  0  0
   -1.5520   23.9110  -13.9650 C   0  0  0  0  0  0  0  0  0  0  0  0
   -0.4410   24.9160  -14.1670 C   0  0  0  0  0  0  0  0  0  0  0  0
   -0.1380   25.7460  -12.9160 C   0  0  0  0  0  0  0  0  0  0  0  0
    0.7030   25.0320  -12.0120 O   0  0  0  0  0  0  0  0  0  0  0  0
   -1.1720   22.4870  -13.6410 C   0  0  1  0  0  0  0  0  0  0  0  0
   -0.1040   22.4550  -12.6880 O   0  0  0  0  0  0  0  0  0  0  0  0
   -2.3470   21.6600  -13.0760 C   0  0  2  0  0  0  0  0  0  0  0  0
   -1.9440   20.2810  -12.9960 O   0  0  0  0  0  0  0  0  0  0  0  0
   -3.5820   21.8160  -13.9560 C   0  0  0  0  0  0  0  0  0  0  0  0
   -5.3110   22.8840  -12.6780 H   0  0  0  0  0  0  0  0  0  0  0  0
   -3.0759   25.2957  -14.3882 H   0  0  0  0  0  0  0  0  0  0  0  0
    0.4716   24.3739  -14.4554 H   0  0  0  0  0  0  0  0  0  0  0  0
   -0.7732   25.6152  -14.9485 H   0  0  0  0  0  0  0  0  0  0  0  0
    0.3668   26.6760  -13.2165 H   0  0  0  0  0  0  0  0  0  0  0  0
   -1.0878   25.9660  -12.4067 H   0  0  0  0  0  0  0  0  0  0  0  0
    1.2150   25.7090  -11.5290 H   0  0  0  0  0  0  0  0  0  0  0  0
   -0.8603   22.0366  -14.5949 H   0  0  0  0  0  0  0  0  0  0  0  0
    0.0240   21.5020  -12.5160 H   0  0  0  0  0  0  0  0  0  0  0  0
   -2.6085   22.0228  -12.0710 H   0  0  0  0  0  0  0  0  0  0  0  0
   -1.6780   20.1370  -12.0700 H   0  0  0  0  0  0  0  0  0  0  0  0
   -3.3518   21.4630  -14.9721 H   0  0  0  0  0  0  0  0  0  0  0  0
   -4.4045   21.2219  -13.5310 H   0  0  0  0  0  0  0  0  0  0  0  0
  1  2  2  0
  2  3  1  0
  2  4  1  0
  4  5  1  1
  4  6  1  0
  6  7  2  0
  7  8  1  0
  8  9  1  0
  9 10  1  0
  7 11  1  0
 11 12  1  0
 11 13  1  0
 13 14  1  0
 13 15  1  0
 15  4  1  0
  5 16  1  0
  6 17  1  0
  8 18  1  0
  8 19  1  0
  9 20  1  0
  9 21  1  0
 10 22  1  0
 11 23  1  6
 12 24  1  0
 13 25  1  1
 14 26  1  0
 15 27  1  0
 15 28  1  0
M  CHG  1   3  -1
M  END
>  <meeko>  (2) 
{"is_sidechain": [false], "free_energy": -5.269, "intermolecular_energy": -6.635, "internal_energy": -0.328}

$$$$
4ciw_ligand
     RDKit          3D

 28 28  0  0  0  0  0  0  0  0999 V2000
   -4.5160   25.8590  -14.8430 O   0  0  0  0  0  0  0  0  0  0  0  0
   -4.1910   24.6460  -14.9490 C   0  0  0  0  0  0  0  0  0  0  0  0
   -4.9020   23.6290  -15.2370 O   0  0  0  0  0  0  0  0  0  0  0  0
   -2.6730   24.2770  -14.7200 C   0  0  2  0  0  0  0  0  0  0  0  0
   -2.0990   23.8750  -15.9900 O   0  0  0  0  0  0  0  0  0  0  0  0
   -2.5530   23.0670  -13.8240 C   0  0  0  0  0  0  0  0  0  0  0  0
   -1.6690   22.9570  -12.8100 C   0  0  0  0  0  0  0  0  0  0  0  0
   -1.6460   21.7400  -11.9130 C   0  0  0  0  0  0  0  0  0  0  0  0
   -0.5500   20.7350  -12.2800 C   0  0  0  0  0  0  0  0  0  0  0  0
   -0.6230   20.3690  -13.6560 O   0  0  0  0  0  0  0  0  0  0  0  0
   -0.7270   24.0920  -12.4910 C   0  0  1  0  0  0  0  0  0  0  0  0
    0.5640   23.5900  -12.1330 O   0  0  0  0  0  0  0  0  0  0  0  0
   -0.5530   25.0810  -13.6640 C   0  0  2  0  0  0  0  0  0  0  0  0
    0.1890   26.2230  -13.1970 O   0  0  0  0  0  0  0  0  0  0  0  0
   -1.9100   25.5010  -14.2150 C   0  0  0  0  0  0  0  0  0  0  0  0
   -1.2350   23.4870  -15.6990 H   0  0  0  0  0  0  0  0  0  0  0  0
   -3.2301   22.2203  -14.0100 H   0  0  0  0  0  0  0  0  0  0  0  0
   -1.4814   22.0730  -10.8776 H   0  0  0  0  0  0  0  0  0  0  0  0
   -2.6114   21.2273  -12.0361 H   0  0  0  0  0  0  0  0  0  0  0  0
    0.4326   21.1878  -12.0812 H   0  0  0  0  0  0  0  0  0  0  0  0
   -0.6912   19.8294  -11.6717 H   0  0  0  0  0  0  0  0  0  0  0  0
   -1.1280   21.0810  -14.0960 H   0  0  0  0  0  0  0  0  0  0  0  0
   -1.1837   24.6324  -11.6487 H   0  0  0  0  0  0  0  0  0  0  0  0
    0.6020   22.7180  -12.5720 H   0  0  0  0  0  0  0  0  0  0  0  0
   -0.0004   24.5959  -14.4821 H   0  0  0  0  0  0  0  0  0  0  0  0
    0.9390   26.3200  -13.8110 H   0  0  0  0  0  0  0  0  0  0  0  0
   -2.4910   25.9889  -13.4185 H   0  0  0  0  0  0  0  0  0  0  0  0
   -1.7587   26.2009  -15.0500 H   0  0  0  0  0  0  0  0  0  0  0  0
  1  2  2  0
  2  3  1  0
  2  4  1  0
  4  5  1  6
  4  6  1  0
  6  7  2  0
  7  8  1  0
  8  9  1  0
  9 10  1  0
  7 11  1  0
 11 12  1  0
 11 13  1  0
 13 14  1  0
 13 15  1  0
 15  4  1  0
  5 16  1  0
  6 17  1  0
  8 18  1  0
  8 19  1  0
  9 20  1  0
  9 21  1  0
 10 22  1  0
 11 23  1  1
 12 24  1  0
 13 25  1  6
 14 26  1  0
 15 27  1  0
 15 28  1  0
M  CHG  1   3  -1
M  END
>  <meeko>  (3) 
{"is_sidechain": [false], "free_energy": -5.084, "intermolecular_energy": -6.82, "internal_energy": 0.096}

$$$$
4ciw_ligand
     RDKit          3D

 28 28  0  0  0  0  0  0  0  0999 V2000
   -0.6050   27.4450   -5.0120 O   0  0  0  0  0  0  0  0  0  0  0  0
    0.1300   28.4640   -4.9130 C   0  0  0  0  0  0  0  0  0  0  0  0
   -0.1600   29.6520   -4.5550 O   0  0  0  0  0  0  0  0  0  0  0  0
    1.6610   28.2920   -5.2560 C   0  0  2  0  0  0  0  0  0  0  0  0
    1.9170   26.8910   -5.5360 O   0  0  0  0  0  0  0  0  0  0  0  0
    2.5130   28.6220   -4.0530 C   0  0  0  0  0  0  0  0  0  0  0  0
    3.6400   29.3630   -4.1000 C   0  0  0  0  0  0  0  0  0  0  0  0
    4.4100   29.7080   -2.8450 C   0  0  0  0  0  0  0  0  0  0  0  0
    5.2520   28.5450   -2.3110 C   0  0  0  0  0  0  0  0  0  0  0  0
    5.9180   27.8600   -3.3700 O   0  0  0  0  0  0  0  0  0  0  0  0
    4.1200   29.9410   -5.4090 C   0  0  1  0  0  0  0  0  0  0  0  0
    5.5470   29.8700   -5.4980 O   0  0  0  0  0  0  0  0  0  0  0  0
    3.5220   29.2270   -6.6400 C   0  0  2  0  0  0  0  0  0  0  0  0
    3.8720   29.9730   -7.8210 O   0  0  0  0  0  0  0  0  0  0  0  0
    2.0100   29.1010   -6.5050 C   0  0  0  0  0  0  0  0  0  0  0  0
    1.6540   26.4700   -4.6780 H   0  0  0  0  0  0  0  0  0  0  0  0
    2.1940   28.2329   -3.0748 H   0  0  0  0  0  0  0  0  0  0  0  0
    5.0806   30.5510   -3.0676 H   0  0  0  0  0  0  0  0  0  0  0  0
    3.6720   29.9588   -2.0689 H   0  0  0  0  0  0  0  0  0  0  0  0
    6.0031   28.9383   -1.6101 H   0  0  0  0  0  0  0  0  0  0  0  0
    4.5822   27.8346   -1.8043 H   0  0  0  0  0  0  0  0  0  0  0  0
    6.5990   27.3040   -2.9430 H   0  0  0  0  0  0  0  0  0  0  0  0
    3.7795   30.9869   -5.4179 H   0  0  0  0  0  0  0  0  0  0  0  0
    5.7160   29.8380   -6.4600 H   0  0  0  0  0  0  0  0  0  0  0  0
    3.9325   28.2092   -6.7148 H   0  0  0  0  0  0  0  0  0  0  0  0
    4.5370   30.6250   -7.5340 H   0  0  0  0  0  0  0  0  0  0  0  0
    1.5668   30.1045   -6.4243 H   0  0  0  0  0  0  0  0  0  0  0  0
    1.6105   28.5862   -7.3913 H   0  0  0  0  0  0  0  0  0  0  0  0
  1  2  2  0
  2  3  1  0
  2  4  1  0
  4  5  1  6
  4  6  1  0
  6  7  2  0
  7  8  1  0
  8  9  1  0
  9 10  1  0
  7 11  1  0
 11 12  1  0
 11 13  1  0
 13 14  1  0
 13 15  1  0
 15  4  1  0
  5 16  1  0
  6 17  1  0
  8 18  1  0
  8 19  1  0
  9 20  1  0
  9 21  1  0
 10 22  1  0
 11 23  1  1
 12 24  1  0
 13 25  1  6
 14 26  1  0
 15 27  1  0
 15 28  1  0
M  CHG  1   3  -1
M  END
>  <meeko>  (4) 
{"is_sidechain": [false], "free_energy": -4.893, "intermolecular_energy": -6.057, "internal_energy": -0.421}

$$$$
4ciw_ligand
     RDKit          3D

 28 28  0  0  0  0  0  0  0  0999 V2000
    2.4800   31.6960   -5.7500 O   0  0  0  0  0  0  0  0  0  0  0  0
    3.1660   30.9990   -6.5440 C   0  0  0  0  0  0  0  0  0  0  0  0
    3.6890   31.3090   -7.6640 O   0  0  0  0  0  0  0  0  0  0  0  0
    3.4740   29.5080   -6.1250 C   0  0  2  0  0  0  0  0  0  0  0  0
    3.8530   28.7640   -7.3120 O   0  0  0  0  0  0  0  0  0  0  0  0
    2.2220   28.8350   -5.6130 C   0  0  0  0  0  0  0  0  0  0  0  0
    2.1760   28.0510   -4.5150 C   0  0  0  0  0  0  0  0  0  0  0  0
    0.8740   27.4590   -4.0240 C   0  0  0  0  0  0  0  0  0  0  0  0
    0.3500   26.3240   -4.9090 C   0  0  0  0  0  0  0  0  0  0  0  0
    1.3690   25.3630   -5.1760 O   0  0  0  0  0  0  0  0  0  0  0  0
    3.4200   27.8100   -3.6950 C   0  0  1  0  0  0  0  0  0  0  0  0
    3.4700   26.4540   -3.2410 O   0  0  0  0  0  0  0  0  0  0  0  0
    4.7210   28.1080   -4.4700 C   0  0  2  0  0  0  0  0  0  0  0  0
    5.8280   28.0500   -3.5520 O   0  0  0  0  0  0  0  0  0  0  0  0
    4.6430   29.4740   -5.1430 C   0  0  0  0  0  0  0  0  0  0  0  0
    4.6580   28.2830   -6.9910 H   0  0  0  0  0  0  0  0  0  0  0  0
    1.2875   28.9941   -6.1710 H   0  0  0  0  0  0  0  0  0  0  0  0
    1.0307   27.0656   -3.0088 H   0  0  0  0  0  0  0  0  0  0  0  0
    0.1228   28.2622   -4.0472 H   0  0  0  0  0  0  0  0  0  0  0  0
   -0.4863   25.8265   -4.3960 H   0  0  0  0  0  0  0  0  0  0  0  0
    0.0189   26.7541   -5.8658 H   0  0  0  0  0  0  0  0  0  0  0  0
    1.3150   25.1730   -6.1330 H   0  0  0  0  0  0  0  0  0  0  0  0
    3.3573   28.5048   -2.8446 H   0  0  0  0  0  0  0  0  0  0  0  0
    4.1750   26.0540   -3.7860 H   0  0  0  0  0  0  0  0  0  0  0  0
    4.8626   27.3574   -5.2615 H   0  0  0  0  0  0  0  0  0  0  0  0
    5.4420   27.8320   -2.6850 H   0  0  0  0  0  0  0  0  0  0  0  0
    4.4973   30.2496   -4.3767 H   0  0  0  0  0  0  0  0  0  0  0  0
    5.5789   29.6603   -5.6901 H   0  0  0  0  0  0  0  0  0  0  0  0
  1  2  2  0
  2  3  1  0
  2  4  1  0
  4  5  1  6
  4  6  1  0
  6  7  2  0
  7  8  1  0
  8  9  1  0
  9 10  1  0
  7 11  1  0
 11 12  1  0
 11 13  1  0
 13 14  1  0
 13 15  1  0
 15  4  1  0
  5 16  1  0
  6 17  1  0
  8 18  1  0
  8 19  1  0
  9 20  1  0
  9 21  1  0
 10 22  1  0
 11 23  1  1
 12 24  1  0
 13 25  1  6
 14 26  1  0
 15 27  1  0
 15 28  1  0
M  CHG  1   3  -1
M  END
>  <meeko>  (5) 
{"is_sidechain": [false], "free_energy": -4.826, "intermolecular_energy": -5.951, "internal_energy": -0.441}

$$$$
4ciw_ligand
     RDKit          3D

 28 28  0  0  0  0  0  0  0  0999 V2000
    1.0060   25.6300   -5.2460 O   0  0  0  0  0  0  0  0  0  0  0  0
    1.2200   26.0320   -4.0710 C   0  0  0  0  0  0  0  0  0  0  0  0
    0.8020   25.5740   -2.9580 O   0  0  0  0  0  0  0  0  0  0  0  0
    2.1640   27.2850   -3.8920 C   0  0  2  0  0  0  0  0  0  0  0  0
    1.5550   28.1880   -2.9320 O   0  0  0  0  0  0  0  0  0  0  0  0
    2.2510   28.0700   -5.1800 C   0  0  0  0  0  0  0  0  0  0  0  0
    3.3970   28.5680   -5.6900 C   0  0  0  0  0  0  0  0  0  0  0  0
    3.4200   29.2900   -7.0190 C   0  0  0  0  0  0  0  0  0  0  0  0
    2.2250   30.2260   -7.2220 C   0  0  0  0  0  0  0  0  0  0  0  0
    1.7650   30.1920   -8.5720 O   0  0  0  0  0  0  0  0  0  0  0  0
    4.7100   28.3430   -4.9820 C   0  0  1  0  0  0  0  0  0  0  0  0
    5.5290   29.5150   -5.0540 O   0  0  0  0  0  0  0  0  0  0  0  0
    4.5370   27.9660   -3.4940 C   0  0  2  0  0  0  0  0  0  0  0  0
    5.8170   27.5740   -2.9660 O   0  0  0  0  0  0  0  0  0  0  0  0
    3.5180   26.8430   -3.3420 C   0  0  0  0  0  0  0  0  0  0  0  0
    1.7450   29.0690   -3.3450 H   0  0  0  0  0  0  0  0  0  0  0  0
    1.3199   28.2471   -5.7383 H   0  0  0  0  0  0  0  0  0  0  0  0
    4.3432   29.8853   -7.0768 H   0  0  0  0  0  0  0  0  0  0  0  0
    3.3703   28.5236   -7.8065 H   0  0  0  0  0  0  0  0  0  0  0  0
    1.4071   29.9128   -6.5565 H   0  0  0  0  0  0  0  0  0  0  0  0
    2.5439   31.2527   -6.9890 H   0  0  0  0  0  0  0  0  0  0  0  0
    0.7940   30.2910   -8.5270 H   0  0  0  0  0  0  0  0  0  0  0  0
    5.1886   27.4986   -5.4996 H   0  0  0  0  0  0  0  0  0  0  0  0
    5.1460   30.0180   -5.7990 H   0  0  0  0  0  0  0  0  0  0  0  0
    4.1600   28.8328   -2.9314 H   0  0  0  0  0  0  0  0  0  0  0  0
    6.3530   27.3130   -3.7370 H   0  0  0  0  0  0  0  0  0  0  0  0
    3.8652   25.9591   -3.8971 H   0  0  0  0  0  0  0  0  0  0  0  0
    3.4102   26.5966   -2.2754 H   0  0  0  0  0  0  0  0  0  0  0  0
  1  2  2  0
  2  3  1  0
  2  4  1  0
  4  5  1  1
  4  6  1  0
  6  7  2  0
  7  8  1  0
  8  9  1  0
  9 10  1  0
  7 11  1  0
 11 12  1  0
 11 13  1  0
 13 14  1  0
 13 15  1  0
 15  4  1  0
  5 16  1  0
  6 17  1  0
  8 18  1  0
  8 19  1  0
  9 20  1  0
  9 21  1  0
 10 22  1  0
 11 23  1  6
 12 24  1  0
 13 25  1  1
 14 26  1  0
 15 27  1  0
 15 28  1  0
M  CHG  1   3  -1
M  END
>  <meeko>  (6) 
{"is_sidechain": [false], "free_energy": -4.75, "intermolecular_energy": -6.111, "internal_energy": -0.182}

$$$$
4ciw_ligand
     RDKit          3D

 28 28  0  0  0  0  0  0  0  0999 V2000
    5.7320   31.6640   -5.2030 O   0  0  0  0  0  0  0  0  0  0  0  0
    5.3310   31.7720   -6.3930 C   0  0  0  0  0  0  0  0  0  0  0  0
    5.8070   32.4520   -7.3600 O   0  0  0  0  0  0  0  0  0  0  0  0
    4.0540   30.9410   -6.8090 C   0  0  2  0  0  0  0  0  0  0  0  0
    4.0980   30.7140   -8.2420 O   0  0  0  0  0  0  0  0  0  0  0  0
    2.7990   31.7460   -6.5690 C   0  0  0  0  0  0  0  0  0  0  0  0
    1.6740   31.2500   -6.0110 C   0  0  0  0  0  0  0  0  0  0  0  0
    0.4740   32.1300   -5.7420 C   0  0  0  0  0  0  0  0  0  0  0  0
    0.2370   33.1830   -6.8290 C   0  0  0  0  0  0  0  0  0  0  0  0
   -1.1140   33.1600   -7.2860 O   0  0  0  0  0  0  0  0  0  0  0  0
    1.6150   29.8110   -5.5600 C   0  0  1  0  0  0  0  0  0  0  0  0
    0.3330   29.2440   -5.8510 O   0  0  0  0  0  0  0  0  0  0  0  0
    2.6950   28.9270   -6.2190 C   0  0  2  0  0  0  0  0  0  0  0  0
    2.6890   27.6380   -5.5780 O   0  0  0  0  0  0  0  0  0  0  0  0
    4.0660   29.5840   -6.1080 C   0  0  0  0  0  0  0  0  0  0  0  0
    4.7370   31.4140   -8.5310 H   0  0  0  0  0  0  0  0  0  0  0  0
    2.8016   32.8046   -6.8680 H   0  0  0  0  0  0  0  0  0  0  0  0
   -0.4189   31.4912   -5.6745 H   0  0  0  0  0  0  0  0  0  0  0  0
    0.6704   32.6697   -4.8038 H   0  0  0  0  0  0  0  0  0  0  0  0
    0.4595   34.1788   -6.4180 H   0  0  0  0  0  0  0  0  0  0  0  0
    0.8958   32.9578   -7.6806 H   0  0  0  0  0  0  0  0  0  0  0  0
   -1.3640   34.0930   -7.4290 H   0  0  0  0  0  0  0  0  0  0  0  0
    1.7978   29.8289   -4.4754 H   0  0  0  0  0  0  0  0  0  0  0  0
    0.5080   28.6560   -6.6100 H   0  0  0  0  0  0  0  0  0  0  0  0
    2.4736   28.8042   -7.2895 H   0  0  0  0  0  0  0  0  0  0  0  0
    3.5210   27.5900   -5.0720 H   0  0  0  0  0  0  0  0  0  0  0  0
    4.3175   29.7247   -5.0464 H   0  0  0  0  0  0  0  0  0  0  0  0
    4.8159   28.9372   -6.5868 H   0  0  0  0  0  0  0  0  0  0  0  0
  1  2  2  0
  2  3  1  0
  2  4  1  0
  4  5  1  6
  4  6  1  0
  6  7  2  0
  7  8  1  0
  8  9  1  0
  9 10  1  0
  7 11  1  0
 11 12  1  0
 11 13  1  0
 13 14  1  0
 13 15  1  0
 15  4  1  0
  5 16  1  0
  6 17  1  0
  8 18  1  0
  8 19  1  0
  9 20  1  0
  9 21  1  0
 10 22  1  0
 11 23  1  1
 12 24  1  0
 13 25  1  6
 14 26  1  0
 15 27  1  0
 15 28  1  0
M  CHG  1   3  -1
M  END
>  <meeko>  (7) 
{"is_sidechain": [false], "free_energy": -4.687, "intermolecular_energy": -6.053, "internal_energy": -0.158}

$$$$
4ciw_ligand
     RDKit          3D

 28 28  0  0  0  0  0  0  0  0999 V2000
   -1.4820   25.6210   -4.4410 O   0  0  0  0  0  0  0  0  0  0  0  0
   -0.4750   25.9230   -3.7470 C   0  0  0  0  0  0  0  0  0  0  0  0
   -0.2900   25.8350   -2.4890 O   0  0  0  0  0  0  0  0  0  0  0  0
    0.7910   26.4840   -4.5060 C   0  0  2  0  0  0  0  0  0  0  0  0
    1.2840   25.4550   -5.4030 O   0  0  0  0  0  0  0  0  0  0  0  0
    1.9180   26.7430   -3.5350 C   0  0  0  0  0  0  0  0  0  0  0  0
    2.6970   27.8450   -3.5510 C   0  0  0  0  0  0  0  0  0  0  0  0
    3.7680   28.0690   -2.5080 C   0  0  0  0  0  0  0  0  0  0  0  0
    5.0010   27.1810   -2.7040 C   0  0  0  0  0  0  0  0  0  0  0  0
    5.8060   27.6460   -3.7860 O   0  0  0  0  0  0  0  0  0  0  0  0
    2.4600   28.9330   -4.5700 C   0  0  1  0  0  0  0  0  0  0  0  0
    3.7040   29.4630   -5.0400 O   0  0  0  0  0  0  0  0  0  0  0  0
    1.6480   28.4500   -5.7920 C   0  0  2  0  0  0  0  0  0  0  0  0
    1.3020   29.5930   -6.5950 O   0  0  0  0  0  0  0  0  0  0  0  0
    0.3990   27.7010   -5.3430 C   0  0  0  0  0  0  0  0  0  0  0  0
    0.4360   25.0710   -5.7440 H   0  0  0  0  0  0  0  0  0  0  0  0
    2.1171   25.9839   -2.7642 H   0  0  0  0  0  0  0  0  0  0  0  0
    4.0850   29.1213   -2.5537 H   0  0  0  0  0  0  0  0  0  0  0  0
    3.3315   27.8092   -1.5323 H   0  0  0  0  0  0  0  0  0  0  0  0
    5.6000   27.1904   -1.7815 H   0  0  0  0  0  0  0  0  0  0  0  0
    4.6616   26.1608   -2.9363 H   0  0  0  0  0  0  0  0  0  0  0  0
    6.6110   27.0920   -3.7790 H   0  0  0  0  0  0  0  0  0  0  0  0
    1.8759   29.7074   -4.0512 H   0  0  0  0  0  0  0  0  0  0  0  0
    3.9520   28.8590   -5.7660 H   0  0  0  0  0  0  0  0  0  0  0  0
    2.2533   27.7527   -6.3899 H   0  0  0  0  0  0  0  0  0  0  0  0
    0.7630   30.1670   -6.0210 H   0  0  0  0  0  0  0  0  0  0  0  0
   -0.2300   28.3712   -4.7387 H   0  0  0  0  0  0  0  0  0  0  0  0
   -0.1582   27.3646   -6.2298 H   0  0  0  0  0  0  0  0  0  0  0  0
  1  2  2  0
  2  3  1  0
  2  4  1  0
  4  5  1  6
  4  6  1  0
  6  7  2  0
  7  8  1  0
  8  9  1  0
  9 10  1  0
  7 11  1  0
 11 12  1  0
 11 13  1  0
 13 14  1  0
 13 15  1  0
 15  4  1  0
  5 16  1  0
  6 17  1  0
  8 18  1  0
  8 19  1  0
  9 20  1  0
  9 21  1  0
 10 22  1  0
 11 23  1  1
 12 24  1  0
 13 25  1  6
 14 26  1  0
 15 27  1  0
 15 28  1  0
M  CHG  1   3  -1
M  END
>  <meeko>  (8) 
{"is_sidechain": [false], "free_energy": -4.593, "intermolecular_energy": -5.659, "internal_energy": -0.431}

$$$$
4ciw_ligand
     RDKit          3D

 28 28  0  0  0  0  0  0  0  0999 V2000
    4.6010   27.1030   -2.9660 O   0  0  0  0  0  0  0  0  0  0  0  0
    4.9520   28.2440   -3.3690 C   0  0  0  0  0  0  0  0  0  0  0  0
    5.6830   29.1230   -2.8060 O   0  0  0  0  0  0  0  0  0  0  0  0
    4.4510   28.6980   -4.7960 C   0  0  2  0  0  0  0  0  0  0  0  0
    5.1100   27.8800   -5.7970 O   0  0  0  0  0  0  0  0  0  0  0  0
    4.8900   30.1150   -5.0840 C   0  0  0  0  0  0  0  0  0  0  0  0
    4.0980   31.0570   -5.6380 C   0  0  0  0  0  0  0  0  0  0  0  0
    4.5830   32.4750   -5.8410 C   0  0  0  0  0  0  0  0  0  0  0  0
    5.6370   32.6040   -6.9450 C   0  0  0  0  0  0  0  0  0  0  0  0
    5.2500   31.8880   -8.1160 O   0  0  0  0  0  0  0  0  0  0  0  0
    2.6670   30.7380   -5.9980 C   0  0  1  0  0  0  0  0  0  0  0  0
    2.3070   31.3630   -7.2340 O   0  0  0  0  0  0  0  0  0  0  0  0
    2.4000   29.2230   -6.1270 C   0  0  2  0  0  0  0  0  0  0  0  0
    0.9820   29.0150   -6.2650 O   0  0  0  0  0  0  0  0  0  0  0  0
    2.9440   28.4780   -4.9130 C   0  0  0  0  0  0  0  0  0  0  0  0
    4.5110   27.0910   -5.8290 H   0  0  0  0  0  0  0  0  0  0  0  0
    5.9214   30.3968   -4.8255 H   0  0  0  0  0  0  0  0  0  0  0  0
    3.7206   33.1040   -6.1067 H   0  0  0  0  0  0  0  0  0  0  0  0
    5.0560   32.7947   -4.9008 H   0  0  0  0  0  0  0  0  0  0  0  0
    5.7614   33.6669   -7.1995 H   0  0  0  0  0  0  0  0  0  0  0  0
    6.5819   32.1798   -6.5747 H   0  0  0  0  0  0  0  0  0  0  0  0
    5.6400   32.3740   -8.8690 H   0  0  0  0  0  0  0  0  0  0  0  0
    2.0559   31.1272   -5.1703 H   0  0  0  0  0  0  0  0  0  0  0  0
    1.3580   31.1560   -7.3290 H   0  0  0  0  0  0  0  0  0  0  0  0
    2.9155   28.8285   -7.0150 H   0  0  0  0  0  0  0  0  0  0  0  0
    0.5610   29.6630   -5.6720 H   0  0  0  0  0  0  0  0  0  0  0  0
    2.4497   28.8525   -4.0044 H   0  0  0  0  0  0  0  0  0  0  0  0
    2.7445   27.4026   -5.0305 H   0  0  0  0  0  0  0  0  0  0  0  0
  1  2  2  0
  2  3  1  0
  2  4  1  0
  4  5  1  6
  4  6  1  0
  6  7  2  0
  7  8  1  0
  8  9  1  0
  9 10  1  0
  7 11  1  0
 11 12  1  0
 11 13  1  0
 13 14  1  0
 13 15  1  0
 15  4  1  0
  5 16  1  0
  6 17  1  0
  8 18  1  0
  8 19  1  0
  9 20  1  0
  9 21  1  0
 10 22  1  0
 11 23  1  1
 12 24  1  0
 13 25  1  6
 14 26  1  0
 15 27  1  0
 15 28  1  0
M  CHG  1   3  -1
M  END
>  <meeko>  (9) 
{"is_sidechain": [false], "free_energy": -4.434, "intermolecular_energy": -5.458, "internal_energy": -0.428}

$$$$
