2vw5_ligand
     RDKit          3D

 78 79  0  0  0  0  0  0  0  0999 V2000
   -3.7520    2.4410   -9.6710 C   0  0  0  0  0  0  0  0  0  0  0  0
   -4.8990    2.0060  -10.3890 O   0  0  0  0  0  0  0  0  0  0  0  0
   -6.1110    2.1280   -9.6390 C   0  0  1  0  0  0  0  0  0  0  0  0
   -6.2910    3.5790   -9.1130 C   0  0  0  0  0  0  0  0  0  0  0  0
   -6.6970    3.8420   -7.6380 C   0  0  2  0  0  0  0  0  0  0  0  0
   -7.8860    4.7940   -7.5040 C   0  0  0  0  0  0  0  0  0  0  0  0
   -5.4770    4.1530   -6.7240 C   0  0  0  0  0  0  0  0  0  0  0  0
   -5.4750    3.4870   -5.3680 C   0  0  0  0  0  0  0  0  0  0  0  0
   -4.8700    4.0850   -4.2580 C   0  0  0  0  0  0  0  0  0  0  0  0
   -4.7660    3.3700   -3.0670 C   0  0  0  0  0  0  0  0  0  0  0  0
   -4.1630    3.9120   -1.9680 O   0  0  0  0  0  0  0  0  0  0  0  0
   -5.2410    2.0650   -2.9630 C   0  0  0  0  0  0  0  0  0  0  0  0
   -5.8760    1.4700   -4.0530 C   0  0  0  0  0  0  0  0  0  0  0  0
   -6.0100    2.1950   -5.2430 C   0  0  0  0  0  0  0  0  0  0  0  0
   -6.2360    0.1100   -3.9670 N   0  0  0  0  0  0  0  0  0  0  0  0
   -7.5080   -0.3390   -3.6930 C   0  0  0  0  0  0  0  0  0  0  0  0
   -8.3110    0.1900   -2.9320 O   0  0  0  0  0  0  0  0  0  0  0  0
   -7.8950   -1.5860   -4.4250 C   0  0  0  0  0  0  0  0  0  0  0  0
   -6.9600   -2.7400   -4.2600 C   0  0  0  0  0  0  0  0  0  0  0  0
   -9.1360   -1.6120   -4.9530 C   0  0  0  0  0  0  0  0  0  0  0  0
   -9.9210   -2.8370   -5.3470 C   0  0  0  0  0  0  0  0  0  0  0  0
  -11.1790   -2.3560   -6.0900 C   0  0  0  0  0  0  0  0  0  0  0  0
  -11.0960   -0.9220   -6.6490 C   0  0  2  0  0  0  0  0  0  0  0  0
  -12.4910   -0.2910   -6.7480 C   0  0  0  0  0  0  0  0  0  0  0  0
  -10.3860   -0.9050   -8.0390 C   0  0  1  0  0  0  0  0  0  0  0  0
  -11.3860   -1.0680   -9.0630 O   0  0  0  0  0  0  0  0  0  0  0  0
  -11.2340   -2.1360   -9.8720 C   0  0  0  0  0  0  0  0  0  0  0  0
  -10.7320   -1.7390  -11.0620 N   0  0  0  0  0  0  0  0  0  0  0  0
  -11.4930   -3.3000   -9.6120 O   0  0  0  0  0  0  0  0  0  0  0  0
   -9.6330    0.4000   -8.3180 C   0  0  0  0  0  0  0  0  0  0  0  0
   -9.0100    1.0750   -7.1210 C   0  0  0  0  0  0  0  0  0  0  0  0
   -9.5320    0.8680   -9.5820 C   0  0  0  0  0  0  0  0  0  0  0  0
   -8.6910    2.0450  -10.0610 C   0  0  2  0  0  0  0  0  0  0  0  0
   -9.4450    2.7940  -11.1630 C   0  0  0  0  0  0  0  0  0  0  0  0
   -7.2740    1.5580  -10.5190 C   0  0  1  0  0  0  0  0  0  0  0  0
   -7.0400    1.8980  -11.8900 O   0  0  0  0  0  0  0  0  0  0  0  0
   -3.9460    2.3674   -8.5907 H   0  0  0  0  0  0  0  0  0  0  0  0
   -2.8927    1.8063   -9.9333 H   0  0  0  0  0  0  0  0  0  0  0  0
   -3.5297    3.4859   -9.9333 H   0  0  0  0  0  0  0  0  0  0  0  0
   -6.0970    1.5299   -8.7159 H   0  0  0  0  0  0  0  0  0  0  0  0
   -5.3308    4.0919   -9.2709 H   0  0  0  0  0  0  0  0  0  0  0  0
   -7.1654    3.9374   -9.6759 H   0  0  0  0  0  0  0  0  0  0  0  0
   -7.0862    2.8938   -7.2386 H   0  0  0  0  0  0  0  0  0  0  0  0
   -8.1002    4.9655   -6.4388 H   0  0  0  0  0  0  0  0  0  0  0  0
   -7.6452    5.7518   -7.9884 H   0  0  0  0  0  0  0  0  0  0  0  0
   -8.7680    4.3496   -7.9884 H   0  0  0  0  0  0  0  0  0  0  0  0
   -4.5686    3.8343   -7.2562 H   0  0  0  0  0  0  0  0  0  0  0  0
   -5.5269    5.2332   -6.5223 H   0  0  0  0  0  0  0  0  0  0  0  0
   -4.4796    5.1112   -4.3248 H   0  0  0  0  0  0  0  0  0  0  0  0
   -4.8400    4.3680   -1.4410 H   0  0  0  0  0  0  0  0  0  0  0  0
   -5.1158    1.5053   -2.0243 H   0  0  0  0  0  0  0  0  0  0  0  0
   -6.5430    1.7452   -6.0937 H   0  0  0  0  0  0  0  0  0  0  0  0
   -5.5590   -0.5610   -4.3040 H   0  0  0  0  0  0  0  0  0  0  0  0
   -6.8027   -2.9342   -3.1888 H   0  0  0  0  0  0  0  0  0  0  0  0
   -7.3924   -3.6330   -4.7349 H   0  0  0  0  0  0  0  0  0  0  0  0
   -5.9967   -2.5022   -4.7349 H   0  0  0  0  0  0  0  0  0  0  0  0
   -9.6252   -0.6397   -5.1124 H   0  0  0  0  0  0  0  0  0  0  0  0
   -9.3155   -3.4758   -6.0068 H   0  0  0  0  0  0  0  0  0  0  0  0
  -10.1949   -3.4257   -4.4591 H   0  0  0  0  0  0  0  0  0  0  0  0
  -11.3611   -3.0405   -6.9316 H   0  0  0  0  0  0  0  0  0  0  0  0
  -11.9913   -2.3507   -5.3483 H   0  0  0  0  0  0  0  0  0  0  0  0
  -10.4958   -0.3218   -5.9494 H   0  0  0  0  0  0  0  0  0  0  0  0
  -12.8854   -0.1126   -5.7367 H   0  0  0  0  0  0  0  0  0  0  0  0
  -12.4237    0.6643   -7.2891 H   0  0  0  0  0  0  0  0  0  0  0  0
  -13.1641   -0.9723   -7.2891 H   0  0  0  0  0  0  0  0  0  0  0  0
   -9.6484   -1.7211   -8.0363 H   0  0  0  0  0  0  0  0  0  0  0  0
  -10.4630   -2.4450  -11.7290 H   0  0  0  0  0  0  0  0  0  0  0  0
  -10.4190   -0.7870  -11.1710 H   0  0  0  0  0  0  0  0  0  0  0  0
   -9.4166    0.6344   -6.1987 H   0  0  0  0  0  0  0  0  0  0  0  0
   -7.9196    0.9322   -7.1458 H   0  0  0  0  0  0  0  0  0  0  0  0
   -9.2396    2.1505   -7.1458 H   0  0  0  0  0  0  0  0  0  0  0  0
  -10.1208    0.3422  -10.3480 H   0  0  0  0  0  0  0  0  0  0  0  0
   -8.5249    2.7499   -9.2330 H   0  0  0  0  0  0  0  0  0  0  0  0
  -10.1552    3.4995  -10.7070 H   0  0  0  0  0  0  0  0  0  0  0  0
   -8.7278    3.3475  -11.7869 H   0  0  0  0  0  0  0  0  0  0  0  0
   -9.9937    2.0731  -11.7869 H   0  0  0  0  0  0  0  0  0  0  0  0
   -7.2761    0.4650  -10.3953 H   0  0  0  0  0  0  0  0  0  0  0  0
   -7.0090    1.0670  -12.3950 H   0  0  0  0  0  0  0  0  0  0  0  0
  1  2  1  0
  2  3  1  0
  3  4  1  0
  4  5  1  0
  5  6  1  0
  5  7  1  0
  7  8  1  0
  8  9  2  0
  9 10  1  0
 10 11  1  0
 10 12  2  0
 12 13  1  0
 13 14  2  0
 13 15  1  0
 15 16  1  0
 16 17  2  0
 16 18  1  0
 18 19  1  0
 18 20  2  0
 20 21  1  0
 21 22  1  0
 22 23  1  0
 23 24  1  0
 23 25  1  0
 25 26  1  0
 26 27  1  0
 27 28  1  0
 27 29  2  0
 25 30  1  0
 30 31  1  0
 30 32  2  0
 32 33  1  0
 33 34  1  0
 33 35  1  0
 35 36  1  0
 35  3  1  0
 14  8  1  0
  1 37  1  0
  1 38  1  0
  1 39  1  0
  3 40  1  1
  4 41  1  0
  4 42  1  0
  5 43  1  1
  6 44  1  0
  6 45  1  0
  6 46  1  0
  7 47  1  0
  7 48  1  0
  9 49  1  0
 11 50  1  0
 12 51  1  0
 14 52  1  0
 15 53  1  0
 19 54  1  0
 19 55  1  0
 19 56  1  0
 20 57  1  0
 21 58  1  0
 21 59  1  0
 22 60  1  0
 22 61  1  0
 23 62  1  1
 24 63  1  0
 24 64  1  0
 24 65  1  0
 25 66  1  1
 28 67  1  0
 28 68  1  0
 31 69  1  0
 31 70  1  0
 31 71  1  0
 32 72  1  0
 33 73  1  1
 34 74  1  0
 34 75  1  0
 34 76  1  0
 35 77  1  6
 36 78  1  0
M  END
>  <meeko>  (1) 
{"is_sidechain": [false], "free_energy": -5.12, "intermolecular_energy": -10.209, "internal_energy": -2.903}

$$$$
2vw5_ligand
     RDKit          3D

 78 79  0  0  0  0  0  0  0  0999 V2000
   -7.7600    6.6080   -9.2190 C   0  0  0  0  0  0  0  0  0  0  0  0
   -6.7680    5.9310   -8.4570 O   0  0  0  0  0  0  0  0  0  0  0  0
   -7.3150    4.9590   -7.5610 C   0  0  1  0  0  0  0  0  0  0  0  0
   -8.2640    3.9860   -8.3130 C   0  0  0  0  0  0  0  0  0  0  0  0
   -9.7750    3.9230   -7.9640 C   0  0  2  0  0  0  0  0  0  0  0  0
  -10.1130    4.6040   -6.6370 C   0  0  0  0  0  0  0  0  0  0  0  0
  -10.3830    2.5060   -8.1700 C   0  0  0  0  0  0  0  0  0  0  0  0
  -10.6880    1.7250   -6.9140 C   0  0  0  0  0  0  0  0  0  0  0  0
  -11.9750    1.6910   -6.3660 C   0  0  0  0  0  0  0  0  0  0  0  0
  -12.1770    1.0810   -5.1300 C   0  0  0  0  0  0  0  0  0  0  0  0
  -13.4140    1.0460   -4.5530 O   0  0  0  0  0  0  0  0  0  0  0  0
  -11.1190    0.5150   -4.4220 C   0  0  0  0  0  0  0  0  0  0  0  0
   -9.8390    0.5130   -4.9730 C   0  0  0  0  0  0  0  0  0  0  0  0
   -9.6350    1.0990   -6.2280 C   0  0  0  0  0  0  0  0  0  0  0  0
   -8.7640    0.0480   -4.1870 N   0  0  0  0  0  0  0  0  0  0  0  0
   -8.0730   -1.1160   -4.4320 C   0  0  0  0  0  0  0  0  0  0  0  0
   -8.5490   -2.1610   -4.8630 O   0  0  0  0  0  0  0  0  0  0  0  0
   -6.6080   -1.0410   -4.1340 C   0  0  0  0  0  0  0  0  0  0  0  0
   -5.7050   -1.2850   -5.2990 C   0  0  0  0  0  0  0  0  0  0  0  0
   -6.2640   -0.5440   -2.9270 C   0  0  0  0  0  0  0  0  0  0  0  0
   -4.9270    0.0280   -2.5380 C   0  0  0  0  0  0  0  0  0  0  0  0
   -5.1850    1.1290   -1.4960 C   0  0  0  0  0  0  0  0  0  0  0  0
   -4.6540    2.5250   -1.8790 C   0  0  2  0  0  0  0  0  0  0  0  0
   -3.6530    3.0360   -0.8350 C   0  0  0  0  0  0  0  0  0  0  0  0
   -5.8280    3.5390   -2.0550 C   0  0  1  0  0  0  0  0  0  0  0  0
   -5.2780    4.8700   -2.0890 O   0  0  0  0  0  0  0  0  0  0  0  0
   -6.0590    5.8440   -1.5790 C   0  0  0  0  0  0  0  0  0  0  0  0
   -6.6420    5.4100   -0.4390 N   0  0  0  0  0  0  0  0  0  0  0  0
   -6.2410    6.9600   -2.0380 O   0  0  0  0  0  0  0  0  0  0  0  0
   -6.6240    3.3240   -3.3470 C   0  0  0  0  0  0  0  0  0  0  0  0
   -8.1250    3.3760   -3.2180 C   0  0  0  0  0  0  0  0  0  0  0  0
   -5.9760    3.1300   -4.5180 C   0  0  0  0  0  0  0  0  0  0  0  0
   -6.5940    3.0660   -5.9100 C   0  0  2  0  0  0  0  0  0  0  0  0
   -6.2580    1.7190   -6.5540 C   0  0  0  0  0  0  0  0  0  0  0  0
   -6.1270    4.2850   -6.7750 C   0  0  1  0  0  0  0  0  0  0  0  0
   -5.1090    3.8890   -7.7010 O   0  0  0  0  0  0  0  0  0  0  0  0
   -8.4747    7.0957   -8.5397 H   0  0  0  0  0  0  0  0  0  0  0  0
   -7.2800    7.3678   -9.8533 H   0  0  0  0  0  0  0  0  0  0  0  0
   -8.2926    5.8841   -9.8533 H   0  0  0  0  0  0  0  0  0  0  0  0
   -7.9649    5.4226   -6.8042 H   0  0  0  0  0  0  0  0  0  0  0  0
   -8.1988    4.2458   -9.3799 H   0  0  0  0  0  0  0  0  0  0  0  0
   -7.8990    2.9969   -7.9991 H   0  0  0  0  0  0  0  0  0  0  0  0
  -10.3011    4.5412   -8.7064 H   0  0  0  0  0  0  0  0  0  0  0  0
   -9.7940    3.9612   -5.8033 H   0  0  0  0  0  0  0  0  0  0  0  0
   -9.5896    5.5696   -6.5766 H   0  0  0  0  0  0  0  0  0  0  0  0
  -11.1986    4.7710   -6.5766 H   0  0  0  0  0  0  0  0  0  0  0  0
  -11.3225    2.6216   -8.7304 H   0  0  0  0  0  0  0  0  0  0  0  0
   -9.6109    1.9270   -8.6978 H   0  0  0  0  0  0  0  0  0  0  0  0
  -12.8201    2.1421   -6.9066 H   0  0  0  0  0  0  0  0  0  0  0  0
  -14.0230    0.5930   -5.1590 H   0  0  0  0  0  0  0  0  0  0  0  0
  -11.2935    0.0709   -3.4309 H   0  0  0  0  0  0  0  0  0  0  0  0
   -8.6343    1.0685   -6.6836 H   0  0  0  0  0  0  0  0  0  0  0  0
   -8.3730    0.7000   -3.5220 H   0  0  0  0  0  0  0  0  0  0  0  0
   -4.7027   -1.5558   -4.9356 H   0  0  0  0  0  0  0  0  0  0  0  0
   -6.1080   -2.1065   -5.9096 H   0  0  0  0  0  0  0  0  0  0  0  0
   -5.6394   -0.3724   -5.9096 H   0  0  0  0  0  0  0  0  0  0  0  0
   -7.0403   -0.5585   -2.1478 H   0  0  0  0  0  0  0  0  0  0  0  0
   -4.2928   -0.7592   -2.1044 H   0  0  0  0  0  0  0  0  0  0  0  0
   -4.4088    0.4384   -3.4173 H   0  0  0  0  0  0  0  0  0  0  0  0
   -6.2716    1.2070   -1.3437 H   0  0  0  0  0  0  0  0  0  0  0  0
   -4.6378    0.8295   -0.5900 H   0  0  0  0  0  0  0  0  0  0  0  0
   -4.1304    2.4339   -2.8421 H   0  0  0  0  0  0  0  0  0  0  0  0
   -4.0424    2.8372    0.1744 H   0  0  0  0  0  0  0  0  0  0  0  0
   -2.6910    2.5187   -0.9654 H   0  0  0  0  0  0  0  0  0  0  0  0
   -3.5078    4.1185   -0.9654 H   0  0  0  0  0  0  0  0  0  0  0  0
   -6.5164    3.3887   -1.2103 H   0  0  0  0  0  0  0  0  0  0  0  0
   -7.1690    6.0700    0.1110 H   0  0  0  0  0  0  0  0  0  0  0  0
   -6.3530    4.5290   -0.0430 H   0  0  0  0  0  0  0  0  0  0  0  0
   -8.4014    3.3856   -2.1533 H   0  0  0  0  0  0  0  0  0  0  0  0
   -8.5034    4.2878   -3.7033 H   0  0  0  0  0  0  0  0  0  0  0  0
   -8.5655    2.4926   -3.7033 H   0  0  0  0  0  0  0  0  0  0  0  0
   -4.8847    3.0048   -4.4597 H   0  0  0  0  0  0  0  0  0  0  0  0
   -7.6894    3.1369   -5.8388 H   0  0  0  0  0  0  0  0  0  0  0  0
   -6.0719    0.9728   -5.7675 H   0  0  0  0  0  0  0  0  0  0  0  0
   -7.1018    1.3906   -7.1787 H   0  0  0  0  0  0  0  0  0  0  0  0
   -5.3589    1.8254   -7.1787 H   0  0  0  0  0  0  0  0  0  0  0  0
   -5.7227    5.0284   -6.0722 H   0  0  0  0  0  0  0  0  0  0  0  0
   -5.0400    2.9200   -7.6610 H   0  0  0  0  0  0  0  0  0  0  0  0
  1  2  1  0
  2  3  1  0
  3  4  1  0
  4  5  1  0
  5  6  1  0
  5  7  1  0
  7  8  1  0
  8  9  2  0
  9 10  1  0
 10 11  1  0
 10 12  2  0
 12 13  1  0
 13 14  2  0
 13 15  1  0
 15 16  1  0
 16 17  2  0
 16 18  1  0
 18 19  1  0
 18 20  2  0
 20 21  1  0
 21 22  1  0
 22 23  1  0
 23 24  1  0
 23 25  1  0
 25 26  1  0
 26 27  1  0
 27 28  1  0
 27 29  2  0
 25 30  1  0
 30 31  1  0
 30 32  2  0
 32 33  1  0
 33 34  1  0
 33 35  1  0
 35 36  1  0
 35  3  1  0
 14  8  1  0
  1 37  1  0
  1 38  1  0
  1 39  1  0
  3 40  1  1
  4 41  1  0
  4 42  1  0
  5 43  1  6
  6 44  1  0
  6 45  1  0
  6 46  1  0
  7 47  1  0
  7 48  1  0
  9 49  1  0
 11 50  1  0
 12 51  1  0
 14 52  1  0
 15 53  1  0
 19 54  1  0
 19 55  1  0
 19 56  1  0
 20 57  1  0
 21 58  1  0
 21 59  1  0
 22 60  1  0
 22 61  1  0
 23 62  1  6
 24 63  1  0
 24 64  1  0
 24 65  1  0
 25 66  1  1
 28 67  1  0
 28 68  1  0
 31 69  1  0
 31 70  1  0
 31 71  1  0
 32 72  1  0
 33 73  1  1
 34 74  1  0
 34 75  1  0
 34 76  1  0
 35 77  1  1
 36 78  1  0
M  END
>  <meeko>  (2) 
{"is_sidechain": [false], "free_energy": -5.113, "intermolecular_energy": -9.626, "internal_energy": -3.471}

$$$$
2vw5_ligand
     RDKit          3D

 78 79  0  0  0  0  0  0  0  0999 V2000
  -14.4330    2.0890   -7.4430 C   0  0  0  0  0  0  0  0  0  0  0  0
  -13.5420    0.9820   -7.5020 O   0  0  0  0  0  0  0  0  0  0  0  0
  -12.1970    1.3250   -7.1530 C   0  0  1  0  0  0  0  0  0  0  0  0
  -12.1740    2.4850   -6.1190 C   0  0  0  0  0  0  0  0  0  0  0  0
  -11.0510    3.5570   -6.1560 C   0  0  2  0  0  0  0  0  0  0  0  0
  -11.4760    4.8910   -5.5400 C   0  0  0  0  0  0  0  0  0  0  0  0
  -10.3480    3.6460   -7.5410 C   0  0  0  0  0  0  0  0  0  0  0  0
   -8.8690    3.9520   -7.5170 C   0  0  0  0  0  0  0  0  0  0  0  0
   -8.2010    4.4270   -8.6490 C   0  0  0  0  0  0  0  0  0  0  0  0
   -6.8130    4.5550   -8.6220 C   0  0  0  0  0  0  0  0  0  0  0  0
   -6.1230    4.9960   -9.7140 O   0  0  0  0  0  0  0  0  0  0  0  0
   -6.0770    4.2060   -7.4920 C   0  0  0  0  0  0  0  0  0  0  0  0
   -6.7360    3.7620   -6.3460 C   0  0  0  0  0  0  0  0  0  0  0  0
   -8.1320    3.6590   -6.3580 C   0  0  0  0  0  0  0  0  0  0  0  0
   -5.9660    3.2960   -5.2610 N   0  0  0  0  0  0  0  0  0  0  0  0
   -5.6360    4.0570   -4.1630 C   0  0  0  0  0  0  0  0  0  0  0  0
   -5.3790    5.2560   -4.1670 O   0  0  0  0  0  0  0  0  0  0  0  0
   -5.6110    3.3010   -2.8700 C   0  0  0  0  0  0  0  0  0  0  0  0
   -6.4840    3.8540   -1.7910 C   0  0  0  0  0  0  0  0  0  0  0  0
   -5.0000    2.0980   -2.8890 C   0  0  0  0  0  0  0  0  0  0  0  0
   -5.1910    0.9780   -1.9000 C   0  0  0  0  0  0  0  0  0  0  0  0
   -5.3630   -0.3210   -2.7070 C   0  0  0  0  0  0  0  0  0  0  0  0
   -6.8180   -0.6690   -3.0750 C   0  0  2  0  0  0  0  0  0  0  0  0
   -6.9940   -2.1840   -3.2410 C   0  0  0  0  0  0  0  0  0  0  0  0
   -7.2600    0.0800   -4.3720 C   0  0  1  0  0  0  0  0  0  0  0  0
   -7.0340   -0.7900   -5.4990 O   0  0  0  0  0  0  0  0  0  0  0  0
   -5.9580   -0.5010   -6.2600 C   0  0  0  0  0  0  0  0  0  0  0  0
   -5.1430   -1.5780   -6.3240 N   0  0  0  0  0  0  0  0  0  0  0  0
   -5.7160    0.5530   -6.8240 O   0  0  0  0  0  0  0  0  0  0  0  0
   -8.7400    0.4730   -4.3690 C   0  0  0  0  0  0  0  0  0  0  0  0
   -9.0770    1.7850   -3.7040 C   0  0  0  0  0  0  0  0  0  0  0  0
   -9.6560   -0.3250   -4.9640 C   0  0  0  0  0  0  0  0  0  0  0  0
  -11.1290   -0.0150   -5.2000 C   0  0  2  0  0  0  0  0  0  0  0  0
  -11.9900   -1.0270   -4.4390 C   0  0  0  0  0  0  0  0  0  0  0  0
  -11.4450    0.0180   -6.7340 C   0  0  1  0  0  0  0  0  0  0  0  0
  -12.2110   -1.1290   -7.1170 O   0  0  0  0  0  0  0  0  0  0  0  0
  -14.6357    2.3409   -6.3916 H   0  0  0  0  0  0  0  0  0  0  0  0
  -13.9765    2.9543   -7.9459 H   0  0  0  0  0  0  0  0  0  0  0  0
  -15.3759    1.8280   -7.9459 H   0  0  0  0  0  0  0  0  0  0  0  0
  -11.6436    1.7339   -8.0112 H   0  0  0  0  0  0  0  0  0  0  0  0
  -13.1266    3.0238   -6.2298 H   0  0  0  0  0  0  0  0  0  0  0  0
  -11.9844    1.9635   -5.1692 H   0  0  0  0  0  0  0  0  0  0  0  0
  -10.2535    3.2098   -5.4826 H   0  0  0  0  0  0  0  0  0  0  0  0
  -11.4511    4.8128   -4.4431 H   0  0  0  0  0  0  0  0  0  0  0  0
  -10.7855    5.6824   -5.8670 H   0  0  0  0  0  0  0  0  0  0  0  0
  -12.4970    5.1371   -5.8670 H   0  0  0  0  0  0  0  0  0  0  0  0
  -10.4831    2.6798   -8.0492 H   0  0  0  0  0  0  0  0  0  0  0  0
  -10.8175    4.4968   -8.0565 H   0  0  0  0  0  0  0  0  0  0  0  0
   -8.7655    4.6975   -9.5535 H   0  0  0  0  0  0  0  0  0  0  0  0
   -6.5870    4.6950  -10.5130 H   0  0  0  0  0  0  0  0  0  0  0  0
   -4.9796    4.2804   -7.5036 H   0  0  0  0  0  0  0  0  0  0  0  0
   -8.6597    3.3438   -5.4458 H   0  0  0  0  0  0  0  0  0  0  0  0
   -5.8070    2.2990   -5.2110 H   0  0  0  0  0  0  0  0  0  0  0  0
   -6.0655    3.5889   -0.8089 H   0  0  0  0  0  0  0  0  0  0  0  0
   -6.5340    4.9488   -1.8849 H   0  0  0  0  0  0  0  0  0  0  0  0
   -7.4952    3.4314   -1.8849 H   0  0  0  0  0  0  0  0  0  0  0  0
   -4.2906    1.9169   -3.7099 H   0  0  0  0  0  0  0  0  0  0  0  0
   -4.3109    0.9003   -1.2447 H   0  0  0  0  0  0  0  0  0  0  0  0
   -6.0718    1.1630   -1.2676 H   0  0  0  0  0  0  0  0  0  0  0  0
   -4.7890   -0.2219   -3.6401 H   0  0  0  0  0  0  0  0  0  0  0  0
   -5.0055   -1.1355   -2.0598 H   0  0  0  0  0  0  0  0  0  0  0  0
   -7.4634   -0.3361   -2.2487 H   0  0  0  0  0  0  0  0  0  0  0  0
   -7.0490   -2.6575   -2.2497 H   0  0  0  0  0  0  0  0  0  0  0  0
   -7.9217   -2.3867   -3.7962 H   0  0  0  0  0  0  0  0  0  0  0  0
   -6.1374   -2.5940   -3.7962 H   0  0  0  0  0  0  0  0  0  0  0  0
   -6.6696    1.0064   -4.4289 H   0  0  0  0  0  0  0  0  0  0  0  0
   -4.3520   -1.5440   -6.9480 H   0  0  0  0  0  0  0  0  0  0  0  0
   -5.4590   -2.4570   -5.9450 H   0  0  0  0  0  0  0  0  0  0  0  0
   -9.0452    1.6611   -2.6115 H   0  0  0  0  0  0  0  0  0  0  0  0
   -8.3458    2.5486   -4.0079 H   0  0  0  0  0  0  0  0  0  0  0  0
  -10.0856    2.1017   -4.0079 H   0  0  0  0  0  0  0  0  0  0  0  0
   -9.2986   -1.3041   -5.3157 H   0  0  0  0  0  0  0  0  0  0  0  0
  -11.3696    0.9856   -4.8116 H   0  0  0  0  0  0  0  0  0  0  0  0
  -11.8622   -0.8768   -3.3568 H   0  0  0  0  0  0  0  0  0  0  0  0
  -13.0472   -0.8836   -4.7067 H   0  0  0  0  0  0  0  0  0  0  0  0
  -11.6791   -2.0476   -4.7067 H   0  0  0  0  0  0  0  0  0  0  0  0
  -10.4794    0.0028   -7.2607 H   0  0  0  0  0  0  0  0  0  0  0  0
  -11.5850   -1.8140   -7.4080 H   0  0  0  0  0  0  0  0  0  0  0  0
  1  2  1  0
  2  3  1  0
  3  4  1  0
  4  5  1  0
  5  6  1  0
  5  7  1  0
  7  8  1  0
  8  9  2  0
  9 10  1  0
 10 11  1  0
 10 12  2  0
 12 13  1  0
 13 14  2  0
 13 15  1  0
 15 16  1  0
 16 17  2  0
 16 18  1  0
 18 19  1  0
 18 20  2  0
 20 21  1  0
 21 22  1  0
 22 23  1  0
 23 24  1  0
 23 25  1  0
 25 26  1  0
 26 27  1  0
 27 28  1  0
 27 29  2  0
 25 30  1  0
 30 31  1  0
 30 32  2  0
 32 33  1  0
 33 34  1  0
 33 35  1  0
 35 36  1  0
 35  3  1  0
 14  8  1  0
  1 37  1  0
  1 38  1  0
  1 39  1  0
  3 40  1  6
  4 41  1  0
  4 42  1  0
  5 43  1  1
  6 44  1  0
  6 45  1  0
  6 46  1  0
  7 47  1  0
  7 48  1  0
  9 49  1  0
 11 50  1  0
 12 51  1  0
 14 52  1  0
 15 53  1  0
 19 54  1  0
 19 55  1  0
 19 56  1  0
 20 57  1  0
 21 58  1  0
 21 59  1  0
 22 60  1  0
 22 61  1  0
 23 62  1  1
 24 63  1  0
 24 64  1  0
 24 65  1  0
 25 66  1  6
 28 67  1  0
 28 68  1  0
 31 69  1  0
 31 70  1  0
 31 71  1  0
 32 72  1  0
 33 73  1  1
 34 74  1  0
 34 75  1  0
 34 76  1  0
 35 77  1  6
 36 78  1  0
M  END
>  <meeko>  (3) 
{"is_sidechain": [false], "free_energy": -5.059, "intermolecular_energy": -9.226, "internal_energy": -3.764}

$$$$
2vw5_ligand
     RDKit          3D

 78 79  0  0  0  0  0  0  0  0999 V2000
  -12.4640    7.0770   -4.4680 C   0  0  0  0  0  0  0  0  0  0  0  0
  -11.2310    6.7210   -3.8550 O   0  0  0  0  0  0  0  0  0  0  0  0
  -11.2270    5.3880   -3.3350 C   0  0  1  0  0  0  0  0  0  0  0  0
  -10.3380    4.4580   -4.2060 C   0  0  0  0  0  0  0  0  0  0  0  0
  -10.9380    3.6920   -5.4160 C   0  0  2  0  0  0  0  0  0  0  0  0
  -11.0630    4.5580   -6.6710 C   0  0  0  0  0  0  0  0  0  0  0  0
  -12.1990    2.8630   -5.0390 C   0  0  0  0  0  0  0  0  0  0  0  0
  -12.0050    1.3700   -4.9310 C   0  0  0  0  0  0  0  0  0  0  0  0
  -13.0700    0.5110   -4.6420 C   0  0  0  0  0  0  0  0  0  0  0  0
  -12.8180   -0.8400   -4.4080 C   0  0  0  0  0  0  0  0  0  0  0  0
  -13.8280   -1.7050   -4.1020 O   0  0  0  0  0  0  0  0  0  0  0  0
  -11.5210   -1.3490   -4.4430 C   0  0  0  0  0  0  0  0  0  0  0  0
  -10.4550   -0.5080   -4.7630 C   0  0  0  0  0  0  0  0  0  0  0  0
  -10.7070    0.8430   -5.0280 C   0  0  0  0  0  0  0  0  0  0  0  0
   -9.1430   -1.0150   -4.6700 N   0  0  0  0  0  0  0  0  0  0  0  0
   -8.0660   -0.5080   -5.3610 C   0  0  0  0  0  0  0  0  0  0  0  0
   -8.0890   -0.0560   -6.5010 O   0  0  0  0  0  0  0  0  0  0  0  0
   -6.7760   -0.5290   -4.6000 C   0  0  0  0  0  0  0  0  0  0  0  0
   -5.5600   -0.8300   -5.4140 C   0  0  0  0  0  0  0  0  0  0  0  0
   -6.8150   -0.0560   -3.3370 C   0  0  0  0  0  0  0  0  0  0  0  0
   -5.6450    0.4280   -2.5220 C   0  0  0  0  0  0  0  0  0  0  0  0
   -6.1710    1.5030   -1.5570 C   0  0  0  0  0  0  0  0  0  0  0  0
   -6.2730    2.9200   -2.1540 C   0  0  2  0  0  0  0  0  0  0  0  0
   -5.1960    3.1420   -3.2240 C   0  0  0  0  0  0  0  0  0  0  0  0
   -6.1680    4.0060   -1.0370 C   0  0  1  0  0  0  0  0  0  0  0  0
   -4.8070    4.4760   -0.9860 O   0  0  0  0  0  0  0  0  0  0  0  0
   -4.1700    4.3120    0.1930 C   0  0  0  0  0  0  0  0  0  0  0  0
   -4.2080    5.4650    0.8950 N   0  0  0  0  0  0  0  0  0  0  0  0
   -3.6310    3.2970    0.6040 O   0  0  0  0  0  0  0  0  0  0  0  0
   -7.0760    5.2150   -1.2810 C   0  0  0  0  0  0  0  0  0  0  0  0
   -6.3830    6.5000   -1.6600 C   0  0  0  0  0  0  0  0  0  0  0  0
   -8.4190    5.0870   -1.1800 C   0  0  0  0  0  0  0  0  0  0  0  0
   -9.4710    6.1260   -1.5460 C   0  0  2  0  0  0  0  0  0  0  0  0
   -9.5410    7.1890   -0.4460 C   0  0  0  0  0  0  0  0  0  0  0  0
  -10.8520    5.4390   -1.8140 C   0  0  1  0  0  0  0  0  0  0  0  0
  -11.8970    6.1080   -1.1000 O   0  0  0  0  0  0  0  0  0  0  0  0
  -13.2113    7.2928   -3.6902 H   0  0  0  0  0  0  0  0  0  0  0  0
  -12.3180    7.9697   -5.0939 H   0  0  0  0  0  0  0  0  0  0  0  0
  -12.8163    6.2439   -5.0939 H   0  0  0  0  0  0  0  0  0  0  0  0
  -12.2280    4.9355   -3.3924 H   0  0  0  0  0  0  0  0  0  0  0  0
   -9.5239    5.0827   -4.6022 H   0  0  0  0  0  0  0  0  0  0  0  0
  -10.0751    3.6481   -3.5096 H   0  0  0  0  0  0  0  0  0  0  0  0
  -10.2032    2.9275   -5.7084 H   0  0  0  0  0  0  0  0  0  0  0  0
  -11.2145    5.6076   -6.3787 H   0  0  0  0  0  0  0  0  0  0  0  0
  -10.1433    4.4729   -7.2683 H   0  0  0  0  0  0  0  0  0  0  0  0
  -11.9211    4.2162   -7.2683 H   0  0  0  0  0  0  0  0  0  0  0  0
  -12.5611    3.2260   -4.0658 H   0  0  0  0  0  0  0  0  0  0  0  0
  -12.9072    3.0095   -5.8678 H   0  0  0  0  0  0  0  0  0  0  0  0
  -14.0987    0.8984   -4.5996 H   0  0  0  0  0  0  0  0  0  0  0  0
  -13.5990   -2.1660   -3.2780 H   0  0  0  0  0  0  0  0  0  0  0  0
  -11.3385   -2.4104   -4.2190 H   0  0  0  0  0  0  0  0  0  0  0  0
   -9.8752    1.5023   -5.3168 H   0  0  0  0  0  0  0  0  0  0  0  0
   -8.9590   -1.6660   -3.9190 H   0  0  0  0  0  0  0  0  0  0  0  0
   -4.7130   -1.0397   -4.7442 H   0  0  0  0  0  0  0  0  0  0  0  0
   -5.7516   -1.7078   -6.0486 H   0  0  0  0  0  0  0  0  0  0  0  0
   -5.3200    0.0358   -6.0486 H   0  0  0  0  0  0  0  0  0  0  0  0
   -7.8023   -0.0203   -2.8533 H   0  0  0  0  0  0  0  0  0  0  0  0
   -5.2112   -0.4079   -1.9535 H   0  0  0  0  0  0  0  0  0  0  0  0
   -4.8614    0.8411   -3.1742 H   0  0  0  0  0  0  0  0  0  0  0  0
   -7.1744    1.2003   -1.2231 H   0  0  0  0  0  0  0  0  0  0  0  0
   -5.4390    1.5661   -0.7384 H   0  0  0  0  0  0  0  0  0  0  0  0
   -7.2590    3.0136   -2.6325 H   0  0  0  0  0  0  0  0  0  0  0  0
   -4.2303    3.3411   -2.7364 H   0  0  0  0  0  0  0  0  0  0  0  0
   -5.1115    2.2424   -3.8513 H   0  0  0  0  0  0  0  0  0  0  0  0
   -5.4741    4.0017   -3.8513 H   0  0  0  0  0  0  0  0  0  0  0  0
   -6.4871    3.5348   -0.0957 H   0  0  0  0  0  0  0  0  0  0  0  0
   -3.8670    5.4600    1.8440 H   0  0  0  0  0  0  0  0  0  0  0  0
   -4.7770    6.2270    0.5600 H   0  0  0  0  0  0  0  0  0  0  0  0
   -6.0908    7.0417   -0.7483 H   0  0  0  0  0  0  0  0  0  0  0  0
   -5.4859    6.2714   -2.2540 H   0  0  0  0  0  0  0  0  0  0  0  0
   -7.0669    7.1240   -2.2540 H   0  0  0  0  0  0  0  0  0  0  0  0
   -8.7920    4.1280   -0.7912 H   0  0  0  0  0  0  0  0  0  0  0  0
   -9.1894    6.6327   -2.4809 H   0  0  0  0  0  0  0  0  0  0  0  0
   -9.5088    6.7002    0.5389 H   0  0  0  0  0  0  0  0  0  0  0  0
   -8.6860    7.8742   -0.5434 H   0  0  0  0  0  0  0  0  0  0  0  0
  -10.4784    7.7562   -0.5434 H   0  0  0  0  0  0  0  0  0  0  0  0
  -10.7487    4.4034   -1.4578 H   0  0  0  0  0  0  0  0  0  0  0  0
  -12.7280    5.6390   -1.2910 H   0  0  0  0  0  0  0  0  0  0  0  0
  1  2  1  0
  2  3  1  0
  3  4  1  0
  4  5  1  0
  5  6  1  0
  5  7  1  0
  7  8  1  0
  8  9  2  0
  9 10  1  0
 10 11  1  0
 10 12  2  0
 12 13  1  0
 13 14  2  0
 13 15  1  0
 15 16  1  0
 16 17  2  0
 16 18  1  0
 18 19  1  0
 18 20  2  0
 20 21  1  0
 21 22  1  0
 22 23  1  0
 23 24  1  0
 23 25  1  0
 25 26  1  0
 26 27  1  0
 27 28  1  0
 27 29  2  0
 25 30  1  0
 30 31  1  0
 30 32  2  0
 32 33  1  0
 33 34  1  0
 33 35  1  0
 35 36  1  0
 35  3  1  0
 14  8  1  0
  1 37  1  0
  1 38  1  0
  1 39  1  0
  3 40  1  1
  4 41  1  0
  4 42  1  0
  5 43  1  6
  6 44  1  0
  6 45  1  0
  6 46  1  0
  7 47  1  0
  7 48  1  0
  9 49  1  0
 11 50  1  0
 12 51  1  0
 14 52  1  0
 15 53  1  0
 19 54  1  0
 19 55  1  0
 19 56  1  0
 20 57  1  0
 21 58  1  0
 21 59  1  0
 22 60  1  0
 22 61  1  0
 23 62  1  6
 24 63  1  0
 24 64  1  0
 24 65  1  0
 25 66  1  1
 28 67  1  0
 28 68  1  0
 31 69  1  0
 31 70  1  0
 31 71  1  0
 32 72  1  0
 33 73  1  6
 34 74  1  0
 34 75  1  0
 34 76  1  0
 35 77  1  1
 36 78  1  0
M  END
>  <meeko>  (4) 
{"is_sidechain": [false], "free_energy": -5.04, "intermolecular_energy": -10.785, "internal_energy": -2.168}

$$$$
2vw5_ligand
     RDKit          3D

 78 79  0  0  0  0  0  0  0  0999 V2000
   -7.5970    4.1880   -6.9570 C   0  0  0  0  0  0  0  0  0  0  0  0
   -7.3810    3.5180   -5.7220 O   0  0  0  0  0  0  0  0  0  0  0  0
   -8.4740    3.6570   -4.8080 C   0  0  1  0  0  0  0  0  0  0  0  0
   -9.7350    2.9230   -5.3410 C   0  0  0  0  0  0  0  0  0  0  0  0
  -11.1270    3.6110   -5.3070 C   0  0  2  0  0  0  0  0  0  0  0  0
  -11.0770    5.0370   -4.7560 C   0  0  0  0  0  0  0  0  0  0  0  0
  -12.2370    2.6960   -4.7140 C   0  0  0  0  0  0  0  0  0  0  0  0
  -12.1060    1.2200   -5.0020 C   0  0  0  0  0  0  0  0  0  0  0  0
  -13.2080    0.4460   -5.3780 C   0  0  0  0  0  0  0  0  0  0  0  0
  -13.0680   -0.9360   -5.4900 C   0  0  0  0  0  0  0  0  0  0  0  0
  -14.1260   -1.7280   -5.8350 O   0  0  0  0  0  0  0  0  0  0  0  0
  -11.8540   -1.5640   -5.2220 C   0  0  0  0  0  0  0  0  0  0  0  0
  -10.7400   -0.7990   -4.8780 C   0  0  0  0  0  0  0  0  0  0  0  0
  -10.8670    0.5920   -4.7930 C   0  0  0  0  0  0  0  0  0  0  0  0
   -9.5570   -1.4620   -4.4900 N   0  0  0  0  0  0  0  0  0  0  0  0
   -8.2880   -1.0200   -4.7870 C   0  0  0  0  0  0  0  0  0  0  0  0
   -7.9430   -0.4610   -5.8230 O   0  0  0  0  0  0  0  0  0  0  0  0
   -7.2790   -1.2630   -3.7090 C   0  0  0  0  0  0  0  0  0  0  0  0
   -6.9500   -2.6980   -3.4540 C   0  0  0  0  0  0  0  0  0  0  0  0
   -6.6150   -0.1810   -3.2510 C   0  0  0  0  0  0  0  0  0  0  0  0
   -5.3010   -0.1780   -2.5160 C   0  0  0  0  0  0  0  0  0  0  0  0
   -5.3960    0.8880   -1.4110 C   0  0  0  0  0  0  0  0  0  0  0  0
   -4.0500    1.5070   -0.9860 C   0  0  2  0  0  0  0  0  0  0  0  0
   -3.6710    1.0720    0.4360 C   0  0  0  0  0  0  0  0  0  0  0  0
   -4.0950    3.0640   -1.0890 C   0  0  1  0  0  0  0  0  0  0  0  0
   -2.8000    3.5280   -1.5200 O   0  0  0  0  0  0  0  0  0  0  0  0
   -1.9480    3.8930   -0.5390 C   0  0  0  0  0  0  0  0  0  0  0  0
   -2.5420    4.8020    0.2650 N   0  0  0  0  0  0  0  0  0  0  0  0
   -0.8100    3.4890   -0.3650 O   0  0  0  0  0  0  0  0  0  0  0  0
   -5.1360    3.5740   -2.0900 C   0  0  0  0  0  0  0  0  0  0  0  0
   -4.7590    3.4790   -3.5470 C   0  0  0  0  0  0  0  0  0  0  0  0
   -6.3240    4.0490   -1.6510 C   0  0  0  0  0  0  0  0  0  0  0  0
   -7.5280    4.4380   -2.4990 C   0  0  2  0  0  0  0  0  0  0  0  0
   -8.6370    4.9780   -1.5920 C   0  0  0  0  0  0  0  0  0  0  0  0
   -7.9970    3.2270   -3.3760 C   0  0  1  0  0  0  0  0  0  0  0  0
   -9.0430    2.5030   -2.7200 O   0  0  0  0  0  0  0  0  0  0  0  0
   -7.9292    5.2184   -6.7620 H   0  0  0  0  0  0  0  0  0  0  0  0
   -6.6597    4.2076   -7.5323 H   0  0  0  0  0  0  0  0  0  0  0  0
   -8.3693    3.6565   -7.5323 H   0  0  0  0  0  0  0  0  0  0  0  0
   -8.7921    4.7065   -4.7220 H   0  0  0  0  0  0  0  0  0  0  0  0
   -9.5328    2.6751   -6.3934 H   0  0  0  0  0  0  0  0  0  0  0  0
   -9.8545    2.0929   -4.6292 H   0  0  0  0  0  0  0  0  0  0  0  0
  -11.4400    3.7544   -6.3517 H   0  0  0  0  0  0  0  0  0  0  0  0
  -11.0781    5.0055   -3.6565 H   0  0  0  0  0  0  0  0  0  0  0  0
  -10.1609    5.5341   -5.1076 H   0  0  0  0  0  0  0  0  0  0  0  0
  -11.9561    5.5970   -5.1076 H   0  0  0  0  0  0  0  0  0  0  0  0
  -12.2323    2.8269   -3.6218 H   0  0  0  0  0  0  0  0  0  0  0  0
  -13.1710    3.0103   -5.2028 H   0  0  0  0  0  0  0  0  0  0  0  0
  -14.1772    0.9238   -5.5837 H   0  0  0  0  0  0  0  0  0  0  0  0
  -14.9080   -1.1630   -5.9450 H   0  0  0  0  0  0  0  0  0  0  0  0
  -11.7743   -2.6595   -5.2815 H   0  0  0  0  0  0  0  0  0  0  0  0
   -9.9829    1.2031   -4.5589 H   0  0  0  0  0  0  0  0  0  0  0  0
   -9.6540   -2.1980   -3.8040 H   0  0  0  0  0  0  0  0  0  0  0  0
   -6.9088   -2.8776   -2.3695 H   0  0  0  0  0  0  0  0  0  0  0  0
   -7.7249   -3.3371   -3.9024 H   0  0  0  0  0  0  0  0  0  0  0  0
   -5.9741   -2.9357   -3.9024 H   0  0  0  0  0  0  0  0  0  0  0  0
   -7.0813    0.7985   -3.4333 H   0  0  0  0  0  0  0  0  0  0  0  0
   -5.1170   -1.1666   -2.0702 H   0  0  0  0  0  0  0  0  0  0  0  0
   -4.4717    0.0466   -3.2028 H   0  0  0  0  0  0  0  0  0  0  0  0
   -6.0451    1.6986   -1.7737 H   0  0  0  0  0  0  0  0  0  0  0  0
   -5.7929    0.3753   -0.5224 H   0  0  0  0  0  0  0  0  0  0  0  0
   -3.2769    1.1384   -1.6762 H   0  0  0  0  0  0  0  0  0  0  0  0
   -4.2117    1.6926    1.1657 H   0  0  0  0  0  0  0  0  0  0  0  0
   -3.9420    0.0158    0.5808 H   0  0  0  0  0  0  0  0  0  0  0  0
   -2.5876    1.1958    0.5808 H   0  0  0  0  0  0  0  0  0  0  0  0
   -4.3722    3.4477   -0.0960 H   0  0  0  0  0  0  0  0  0  0  0  0
   -2.0620    5.0840    1.1050 H   0  0  0  0  0  0  0  0  0  0  0  0
   -3.5230    4.9990    0.1450 H   0  0  0  0  0  0  0  0  0  0  0  0
   -3.6957    3.2111   -3.6339 H   0  0  0  0  0  0  0  0  0  0  0  0
   -5.3726    2.7074   -4.0350 H   0  0  0  0  0  0  0  0  0  0  0  0
   -4.9337    4.4492   -4.0350 H   0  0  0  0  0  0  0  0  0  0  0  0
   -6.4324    4.1673   -0.5628 H   0  0  0  0  0  0  0  0  0  0  0  0
   -7.2511    5.2401   -3.1990 H   0  0  0  0  0  0  0  0  0  0  0  0
   -8.3502    4.8384   -0.5393 H   0  0  0  0  0  0  0  0  0  0  0  0
   -8.7856    6.0493   -1.7925 H   0  0  0  0  0  0  0  0  0  0  0  0
   -9.5720    4.4343   -1.7925 H   0  0  0  0  0  0  0  0  0  0  0  0
   -7.1167    2.5795   -3.5023 H   0  0  0  0  0  0  0  0  0  0  0  0
   -8.6340    1.9750   -2.0120 H   0  0  0  0  0  0  0  0  0  0  0  0
  1  2  1  0
  2  3  1  0
  3  4  1  0
  4  5  1  0
  5  6  1  0
  5  7  1  0
  7  8  1  0
  8  9  2  0
  9 10  1  0
 10 11  1  0
 10 12  2  0
 12 13  1  0
 13 14  2  0
 13 15  1  0
 15 16  1  0
 16 17  2  0
 16 18  1  0
 18 19  1  0
 18 20  2  0
 20 21  1  0
 21 22  1  0
 22 23  1  0
 23 24  1  0
 23 25  1  0
 25 26  1  0
 26 27  1  0
 27 28  1  0
 27 29  2  0
 25 30  1  0
 30 31  1  0
 30 32  2  0
 32 33  1  0
 33 34  1  0
 33 35  1  0
 35 36  1  0
 35  3  1  0
 14  8  1  0
  1 37  1  0
  1 38  1  0
  1 39  1  0
  3 40  1  1
  4 41  1  0
  4 42  1  0
  5 43  1  6
  6 44  1  0
  6 45  1  0
  6 46  1  0
  7 47  1  0
  7 48  1  0
  9 49  1  0
 11 50  1  0
 12 51  1  0
 14 52  1  0
 15 53  1  0
 19 54  1  0
 19 55  1  0
 19 56  1  0
 20 57  1  0
 21 58  1  0
 21 59  1  0
 22 60  1  0
 22 61  1  0
 23 62  1  6
 24 63  1  0
 24 64  1  0
 24 65  1  0
 25 66  1  1
 28 67  1  0
 28 68  1  0
 31 69  1  0
 31 70  1  0
 31 71  1  0
 32 72  1  0
 33 73  1  6
 34 74  1  0
 34 75  1  0
 34 76  1  0
 35 77  1  6
 36 78  1  0
M  END
>  <meeko>  (5) 
{"is_sidechain": [false], "free_energy": -4.92, "intermolecular_energy": -11.65, "internal_energy": -1.062}

$$$$
2vw5_ligand
     RDKit          3D

 78 79  0  0  0  0  0  0  0  0999 V2000
  -10.7250    6.4700   -7.4590 C   0  0  0  0  0  0  0  0  0  0  0  0
   -9.7210    5.4640   -7.4480 O   0  0  0  0  0  0  0  0  0  0  0  0
  -10.0820    4.3180   -6.6710 C   0  0  1  0  0  0  0  0  0  0  0  0
  -11.4950    4.4950   -6.0510 C   0  0  0  0  0  0  0  0  0  0  0  0
  -11.7350    4.2420   -4.5380 C   0  0  2  0  0  0  0  0  0  0  0  0
  -12.9060    3.2970   -4.2660 C   0  0  0  0  0  0  0  0  0  0  0  0
  -11.7150    5.5520   -3.6980 C   0  0  0  0  0  0  0  0  0  0  0  0
  -10.6970    5.6110   -2.5840 C   0  0  0  0  0  0  0  0  0  0  0  0
  -10.8800    6.4330   -1.4670 C   0  0  0  0  0  0  0  0  0  0  0  0
   -9.8490    6.5660   -0.5390 C   0  0  0  0  0  0  0  0  0  0  0  0
   -9.9820    7.3750    0.5530 O   0  0  0  0  0  0  0  0  0  0  0  0
   -8.6340    5.9060   -0.7080 C   0  0  0  0  0  0  0  0  0  0  0  0
   -8.4530    5.0580   -1.8000 C   0  0  0  0  0  0  0  0  0  0  0  0
   -9.4950    4.8980   -2.7200 C   0  0  0  0  0  0  0  0  0  0  0  0
   -7.1760    4.5010   -2.0190 N   0  0  0  0  0  0  0  0  0  0  0  0
   -6.1200    4.6190   -1.1450 C   0  0  0  0  0  0  0  0  0  0  0  0
   -5.8580    5.6010   -0.4580 O   0  0  0  0  0  0  0  0  0  0  0  0
   -5.2450    3.4060   -1.0620 C   0  0  0  0  0  0  0  0  0  0  0  0
   -4.1840    3.4550   -0.0120 C   0  0  0  0  0  0  0  0  0  0  0  0
   -5.6440    2.3280   -1.7680 C   0  0  0  0  0  0  0  0  0  0  0  0
   -5.2230    0.9000   -1.5420 C   0  0  0  0  0  0  0  0  0  0  0  0
   -5.2920    0.1810   -2.9000 C   0  0  0  0  0  0  0  0  0  0  0  0
   -6.7160   -0.1510   -3.3890 C   0  0  2  0  0  0  0  0  0  0  0  0
   -6.9800   -1.6610   -3.3230 C   0  0  0  0  0  0  0  0  0  0  0  0
   -6.9480    0.3840   -4.8380 C   0  0  1  0  0  0  0  0  0  0  0  0
   -6.7190   -0.6970   -5.7630 O   0  0  0  0  0  0  0  0  0  0  0  0
   -5.5980   -0.6080   -6.5080 C   0  0  0  0  0  0  0  0  0  0  0  0
   -4.8530   -1.7240   -6.3440 N   0  0  0  0  0  0  0  0  0  0  0  0
   -5.2660    0.3160   -7.2320 O   0  0  0  0  0  0  0  0  0  0  0  0
   -8.3680    0.9110   -5.0680 C   0  0  0  0  0  0  0  0  0  0  0  0
   -9.1510    1.2700   -3.8300 C   0  0  0  0  0  0  0  0  0  0  0  0
   -8.8420    1.0560   -6.3260 C   0  0  0  0  0  0  0  0  0  0  0  0
  -10.1510    1.7130   -6.7440 C   0  0  2  0  0  0  0  0  0  0  0  0
  -10.9960    0.7090   -7.5310 C   0  0  0  0  0  0  0  0  0  0  0  0
   -9.8750    3.0310   -7.5430 C   0  0  1  0  0  0  0  0  0  0  0  0
  -10.6990    3.0970   -8.7120 O   0  0  0  0  0  0  0  0  0  0  0  0
  -10.9897    6.7352   -6.4248 H   0  0  0  0  0  0  0  0  0  0  0  0
  -10.3455    7.3611   -7.9804 H   0  0  0  0  0  0  0  0  0  0  0  0
  -11.6169    6.0922   -7.9804 H   0  0  0  0  0  0  0  0  0  0  0  0
   -9.4253    4.2002   -5.7964 H   0  0  0  0  0  0  0  0  0  0  0  0
  -11.7960    5.5347   -6.2471 H   0  0  0  0  0  0  0  0  0  0  0  0
  -12.0743    3.6911   -6.5286 H   0  0  0  0  0  0  0  0  0  0  0  0
  -10.8659    3.6803   -4.1650 H   0  0  0  0  0  0  0  0  0  0  0  0
  -13.0432    3.1863   -3.1802 H   0  0  0  0  0  0  0  0  0  0  0  0
  -13.8226    3.7114   -4.7111 H   0  0  0  0  0  0  0  0  0  0  0  0
  -12.6945    2.3135   -4.7111 H   0  0  0  0  0  0  0  0  0  0  0  0
  -11.5119    6.3879   -4.3836 H   0  0  0  0  0  0  0  0  0  0  0  0
  -12.6967    5.6016   -3.2043 H   0  0  0  0  0  0  0  0  0  0  0  0
  -11.8293    6.9696   -1.3225 H   0  0  0  0  0  0  0  0  0  0  0  0
   -9.1160    7.4470    0.9890 H   0  0  0  0  0  0  0  0  0  0  0  0
   -7.8203    6.0532    0.0174 H   0  0  0  0  0  0  0  0  0  0  0  0
   -9.3706    4.2026   -3.5632 H   0  0  0  0  0  0  0  0  0  0  0  0
   -7.0970    3.8290   -2.7700 H   0  0  0  0  0  0  0  0  0  0  0  0
   -4.6519    3.4334    0.9833 H   0  0  0  0  0  0  0  0  0  0  0  0
   -3.5179    2.5867   -0.1230 H   0  0  0  0  0  0  0  0  0  0  0  0
   -3.6008    4.3810   -0.1230 H   0  0  0  0  0  0  0  0  0  0  0  0
   -6.3486    2.5107   -2.5927 H   0  0  0  0  0  0  0  0  0  0  0  0
   -4.1952    0.8681   -1.1513 H   0  0  0  0  0  0  0  0  0  0  0  0
   -5.8823    0.4115   -0.8094 H   0  0  0  0  0  0  0  0  0  0  0  0
   -4.8144    0.8258   -3.6524 H   0  0  0  0  0  0  0  0  0  0  0  0
   -4.7806   -0.7834   -2.7640 H   0  0  0  0  0  0  0  0  0  0  0  0
   -7.4282    0.3525   -2.7187 H   0  0  0  0  0  0  0  0  0  0  0  0
   -7.0354   -1.9779   -2.2711 H   0  0  0  0  0  0  0  0  0  0  0  0
   -7.9317   -1.8891   -3.8253 H   0  0  0  0  0  0  0  0  0  0  0  0
   -6.1622   -2.1985   -3.8253 H   0  0  0  0  0  0  0  0  0  0  0  0
   -6.2535    1.2234   -4.9901 H   0  0  0  0  0  0  0  0  0  0  0  0
   -4.0380   -1.8450   -6.9250 H   0  0  0  0  0  0  0  0  0  0  0  0
   -5.2400   -2.5040   -5.8360 H   0  0  0  0  0  0  0  0  0  0  0  0
   -8.5675    1.0025   -2.9367 H   0  0  0  0  0  0  0  0  0  0  0  0
   -9.3540    2.3511   -3.8252 H   0  0  0  0  0  0  0  0  0  0  0  0
  -10.1026    0.7183   -3.8252 H   0  0  0  0  0  0  0  0  0  0  0  0
   -8.2139    0.6560   -7.1356 H   0  0  0  0  0  0  0  0  0  0  0  0
  -10.7255    2.0050   -5.8526 H   0  0  0  0  0  0  0  0  0  0  0  0
  -11.5420    0.0603   -6.8302 H   0  0  0  0  0  0  0  0  0  0  0  0
  -11.7139    1.2508   -8.1643 H   0  0  0  0  0  0  0  0  0  0  0  0
  -10.3396    0.0941   -8.1643 H   0  0  0  0  0  0  0  0  0  0  0  0
   -8.8169    3.0011   -7.8421 H   0  0  0  0  0  0  0  0  0  0  0  0
  -10.2880    2.5350   -9.3910 H   0  0  0  0  0  0  0  0  0  0  0  0
  1  2  1  0
  2  3  1  0
  3  4  1  0
  4  5  1  0
  5  6  1  0
  5  7  1  0
  7  8  1  0
  8  9  2  0
  9 10  1  0
 10 11  1  0
 10 12  2  0
 12 13  1  0
 13 14  2  0
 13 15  1  0
 15 16  1  0
 16 17  2  0
 16 18  1  0
 18 19  1  0
 18 20  2  0
 20 21  1  0
 21 22  1  0
 22 23  1  0
 23 24  1  0
 23 25  1  0
 25 26  1  0
 26 27  1  0
 27 28  1  0
 27 29  2  0
 25 30  1  0
 30 31  1  0
 30 32  2  0
 32 33  1  0
 33 34  1  0
 33 35  1  0
 35 36  1  0
 35  3  1  0
 14  8  1  0
  1 37  1  0
  1 38  1  0
  1 39  1  0
  3 40  1  1
  4 41  1  0
  4 42  1  0
  5 43  1  1
  6 44  1  0
  6 45  1  0
  6 46  1  0
  7 47  1  0
  7 48  1  0
  9 49  1  0
 11 50  1  0
 12 51  1  0
 14 52  1  0
 15 53  1  0
 19 54  1  0
 19 55  1  0
 19 56  1  0
 20 57  1  0
 21 58  1  0
 21 59  1  0
 22 60  1  0
 22 61  1  0
 23 62  1  1
 24 63  1  0
 24 64  1  0
 24 65  1  0
 25 66  1  6
 28 67  1  0
 28 68  1  0
 31 69  1  0
 31 70  1  0
 31 71  1  0
 32 72  1  0
 33 73  1  1
 34 74  1  0
 34 75  1  0
 34 76  1  0
 35 77  1  6
 36 78  1  0
M  END
>  <meeko>  (6) 
{"is_sidechain": [false], "free_energy": -4.913, "intermolecular_energy": -10.237, "internal_energy": -2.462}

$$$$
2vw5_ligand
     RDKit          3D

 78 79  0  0  0  0  0  0  0  0999 V2000
  -12.0030    4.8400   -7.6150 C   0  0  0  0  0  0  0  0  0  0  0  0
  -10.9090    4.7310   -6.7140 O   0  0  0  0  0  0  0  0  0  0  0  0
  -10.0300    3.6470   -7.0270 C   0  0  1  0  0  0  0  0  0  0  0  0
  -10.2420    3.1690   -8.4900 C   0  0  0  0  0  0  0  0  0  0  0  0
   -9.9430    1.7010   -8.8970 C   0  0  2  0  0  0  0  0  0  0  0  0
   -9.3240    1.5780  -10.2900 C   0  0  0  0  0  0  0  0  0  0  0  0
  -11.1290    0.7400   -8.5970 C   0  0  0  0  0  0  0  0  0  0  0  0
  -11.0180   -0.0800   -7.3340 C   0  0  0  0  0  0  0  0  0  0  0  0
  -12.1090   -0.7900   -6.8230 C   0  0  0  0  0  0  0  0  0  0  0  0
  -12.0010   -1.4100   -5.5790 C   0  0  0  0  0  0  0  0  0  0  0  0
  -13.0500   -2.0960   -5.0380 O   0  0  0  0  0  0  0  0  0  0  0  0
  -10.8300   -1.3260   -4.8290 C   0  0  0  0  0  0  0  0  0  0  0  0
   -9.7250   -0.6480   -5.3430 C   0  0  0  0  0  0  0  0  0  0  0  0
   -9.8190   -0.0480   -6.6040 C   0  0  0  0  0  0  0  0  0  0  0  0
   -8.5970   -0.4680   -4.5170 N   0  0  0  0  0  0  0  0  0  0  0  0
   -7.6160   -1.4140   -4.3300 C   0  0  0  0  0  0  0  0  0  0  0  0
   -7.7840   -2.6280   -4.2760 O   0  0  0  0  0  0  0  0  0  0  0  0
   -6.2340   -0.8550   -4.1910 C   0  0  0  0  0  0  0  0  0  0  0  0
   -5.5690   -0.4710   -5.4730 C   0  0  0  0  0  0  0  0  0  0  0  0
   -5.8330   -0.5450   -2.9410 C   0  0  0  0  0  0  0  0  0  0  0  0
   -4.7170    0.3920   -2.5610 C   0  0  0  0  0  0  0  0  0  0  0  0
   -5.3340    1.5210   -1.7180 C   0  0  0  0  0  0  0  0  0  0  0  0
   -5.4020    2.8930   -2.4180 C   0  0  2  0  0  0  0  0  0  0  0  0
   -4.4710    3.9040   -1.7350 C   0  0  0  0  0  0  0  0  0  0  0  0
   -6.8670    3.4310   -2.4510 C   0  0  1  0  0  0  0  0  0  0  0  0
   -6.8240    4.8710   -2.4120 O   0  0  0  0  0  0  0  0  0  0  0  0
   -7.5960    5.4590   -1.4750 C   0  0  0  0  0  0  0  0  0  0  0  0
   -6.9000    5.5800   -0.3230 N   0  0  0  0  0  0  0  0  0  0  0  0
   -8.7480    5.8400   -1.6030 O   0  0  0  0  0  0  0  0  0  0  0  0
   -7.6360    3.0150   -3.7080 C   0  0  0  0  0  0  0  0  0  0  0  0
   -9.0740    2.6100   -3.5040 C   0  0  0  0  0  0  0  0  0  0  0  0
   -7.0300    3.0500   -4.9170 C   0  0  0  0  0  0  0  0  0  0  0  0
   -7.6810    2.8340   -6.2770 C   0  0  2  0  0  0  0  0  0  0  0  0
   -6.5990    2.5340   -7.3180 C   0  0  0  0  0  0  0  0  0  0  0  0
   -8.5700    4.0650   -6.6640 C   0  0  1  0  0  0  0  0  0  0  0  0
   -7.9880    4.7860   -7.7550 O   0  0  0  0  0  0  0  0  0  0  0  0
  -12.9393    4.9333   -7.0453 H   0  0  0  0  0  0  0  0  0  0  0  0
  -11.8691    5.7293   -8.2485 H   0  0  0  0  0  0  0  0  0  0  0  0
  -12.0472    3.9418   -8.2485 H   0  0  0  0  0  0  0  0  0  0  0  0
  -10.2578    2.7583   -6.4200 H   0  0  0  0  0  0  0  0  0  0  0  0
  -11.2998    3.3519   -8.7298 H   0  0  0  0  0  0  0  0  0  0  0  0
   -9.4807    3.7365   -9.0453 H   0  0  0  0  0  0  0  0  0  0  0  0
   -9.1426    1.3410   -8.2338 H   0  0  0  0  0  0  0  0  0  0  0  0
   -8.2490    1.3644  -10.1960 H   0  0  0  0  0  0  0  0  0  0  0  0
   -9.8139    0.7596  -10.8380 H   0  0  0  0  0  0  0  0  0  0  0  0
   -9.4638    2.5215  -10.8380 H   0  0  0  0  0  0  0  0  0  0  0  0
  -12.0432    1.3474   -8.5238 H   0  0  0  0  0  0  0  0  0  0  0  0
  -11.1346    0.0121   -9.4217 H   0  0  0  0  0  0  0  0  0  0  0  0
  -13.0444   -0.8587   -7.3977 H   0  0  0  0  0  0  0  0  0  0  0  0
  -12.7040   -2.8940   -4.6060 H   0  0  0  0  0  0  0  0  0  0  0  0
  -10.7771   -1.7930   -3.8345 H   0  0  0  0  0  0  0  0  0  0  0  0
   -8.9394    0.4568   -7.0300 H   0  0  0  0  0  0  0  0  0  0  0  0
   -8.4160    0.4720   -4.1940 H   0  0  0  0  0  0  0  0  0  0  0  0
   -4.6354    0.0681   -5.2546 H   0  0  0  0  0  0  0  0  0  0  0  0
   -5.3419   -1.3770   -6.0540 H   0  0  0  0  0  0  0  0  0  0  0  0
   -6.2402    0.1786   -6.0540 H   0  0  0  0  0  0  0  0  0  0  0  0
   -6.3768   -1.0259   -2.1146 H   0  0  0  0  0  0  0  0  0  0  0  0
   -3.9584   -0.1452   -1.9729 H   0  0  0  0  0  0  0  0  0  0  0  0
   -4.2280    0.7990   -3.4583 H   0  0  0  0  0  0  0  0  0  0  0  0
   -6.3582    1.2245   -1.4476 H   0  0  0  0  0  0  0  0  0  0  0  0
   -4.6736    1.6517   -0.8480 H   0  0  0  0  0  0  0  0  0  0  0  0
   -5.0619    2.7589   -3.4555 H   0  0  0  0  0  0  0  0  0  0  0  0
   -4.5612    3.8060   -0.6431 H   0  0  0  0  0  0  0  0  0  0  0  0
   -3.4316    3.7069   -2.0362 H   0  0  0  0  0  0  0  0  0  0  0  0
   -4.7529    4.9237   -2.0362 H   0  0  0  0  0  0  0  0  0  0  0  0
   -7.3900    3.0014   -1.5839 H   0  0  0  0  0  0  0  0  0  0  0  0
   -7.3140    6.1000    0.4350 H   0  0  0  0  0  0  0  0  0  0  0  0
   -5.9150    5.3640   -0.3170 H   0  0  0  0  0  0  0  0  0  0  0  0
   -9.2886    2.5496   -2.4268 H   0  0  0  0  0  0  0  0  0  0  0  0
   -9.7347    3.3570   -3.9682 H   0  0  0  0  0  0  0  0  0  0  0  0
   -9.2477    1.6280   -3.9682 H   0  0  0  0  0  0  0  0  0  0  0  0
   -5.9496    3.2570   -4.9180 H   0  0  0  0  0  0  0  0  0  0  0  0
   -8.3543    1.9650   -6.2366 H   0  0  0  0  0  0  0  0  0  0  0  0
   -5.6604    2.2738   -6.8068 H   0  0  0  0  0  0  0  0  0  0  0  0
   -6.9196    1.6909   -7.9476 H   0  0  0  0  0  0  0  0  0  0  0  0
   -6.4397    3.4218   -7.9476 H   0  0  0  0  0  0  0  0  0  0  0  0
   -8.6161    4.7159   -5.7784 H   0  0  0  0  0  0  0  0  0  0  0  0
   -8.6090    4.7360   -8.5020 H   0  0  0  0  0  0  0  0  0  0  0  0
  1  2  1  0
  2  3  1  0
  3  4  1  0
  4  5  1  0
  5  6  1  0
  5  7  1  0
  7  8  1  0
  8  9  2  0
  9 10  1  0
 10 11  1  0
 10 12  2  0
 12 13  1  0
 13 14  2  0
 13 15  1  0
 15 16  1  0
 16 17  2  0
 16 18  1  0
 18 19  1  0
 18 20  2  0
 20 21  1  0
 21 22  1  0
 22 23  1  0
 23 24  1  0
 23 25  1  0
 25 26  1  0
 26 27  1  0
 27 28  1  0
 27 29  2  0
 25 30  1  0
 30 31  1  0
 30 32  2  0
 32 33  1  0
 33 34  1  0
 33 35  1  0
 35 36  1  0
 35  3  1  0
 14  8  1  0
  1 37  1  0
  1 38  1  0
  1 39  1  0
  3 40  1  1
  4 41  1  0
  4 42  1  0
  5 43  1  1
  6 44  1  0
  6 45  1  0
  6 46  1  0
  7 47  1  0
  7 48  1  0
  9 49  1  0
 11 50  1  0
 12 51  1  0
 14 52  1  0
 15 53  1  0
 19 54  1  0
 19 55  1  0
 19 56  1  0
 20 57  1  0
 21 58  1  0
 21 59  1  0
 22 60  1  0
 22 61  1  0
 23 62  1  6
 24 63  1  0
 24 64  1  0
 24 65  1  0
 25 66  1  1
 28 67  1  0
 28 68  1  0
 31 69  1  0
 31 70  1  0
 31 71  1  0
 32 72  1  0
 33 73  1  1
 34 74  1  0
 34 75  1  0
 34 76  1  0
 35 77  1  1
 36 78  1  0
M  END
>  <meeko>  (7) 
{"is_sidechain": [false], "free_energy": -4.913, "intermolecular_energy": -9.433, "internal_energy": -3.266}

$$$$
2vw5_ligand
     RDKit          3D

 78 79  0  0  0  0  0  0  0  0999 V2000
  -12.5550   -0.1270  -10.7350 C   0  0  0  0  0  0  0  0  0  0  0  0
  -12.1970   -0.9740   -9.6510 O   0  0  0  0  0  0  0  0  0  0  0  0
  -11.0440   -0.5170   -8.9370 C   0  0  1  0  0  0  0  0  0  0  0  0
  -11.2670    0.9220   -8.3950 C   0  0  0  0  0  0  0  0  0  0  0  0
  -10.1730    2.0110   -8.5640 C   0  0  2  0  0  0  0  0  0  0  0  0
  -10.7490    3.4200   -8.7130 C   0  0  0  0  0  0  0  0  0  0  0  0
   -9.0830    1.6140   -9.6010 C   0  0  0  0  0  0  0  0  0  0  0  0
   -7.6980    2.1610   -9.3510 C   0  0  0  0  0  0  0  0  0  0  0  0
   -6.7830    2.3450  -10.3930 C   0  0  0  0  0  0  0  0  0  0  0  0
   -5.4720    2.7110  -10.0960 C   0  0  0  0  0  0  0  0  0  0  0  0
   -4.5450    2.8800  -11.0840 O   0  0  0  0  0  0  0  0  0  0  0  0
   -5.0500    2.8870   -8.7800 C   0  0  0  0  0  0  0  0  0  0  0  0
   -5.9620    2.7390   -7.7350 C   0  0  0  0  0  0  0  0  0  0  0  0
   -7.2870    2.3990   -8.0290 C   0  0  0  0  0  0  0  0  0  0  0  0
   -5.4860    2.7970   -6.4090 N   0  0  0  0  0  0  0  0  0  0  0  0
   -5.7170    3.8460   -5.5500 C   0  0  0  0  0  0  0  0  0  0  0  0
   -5.7710    5.0330   -5.8570 O   0  0  0  0  0  0  0  0  0  0  0  0
   -5.9190    3.4450   -4.1210 C   0  0  0  0  0  0  0  0  0  0  0  0
   -7.1520    3.9870   -3.4740 C   0  0  0  0  0  0  0  0  0  0  0  0
   -5.1120    2.4720   -3.6500 C   0  0  0  0  0  0  0  0  0  0  0  0
   -5.3610    1.6020   -2.4460 C   0  0  0  0  0  0  0  0  0  0  0  0
   -5.4200    0.1450   -2.9380 C   0  0  0  0  0  0  0  0  0  0  0  0
   -6.8250   -0.3510   -3.3340 C   0  0  2  0  0  0  0  0  0  0  0  0
   -6.9800   -1.8490   -3.0420 C   0  0  0  0  0  0  0  0  0  0  0  0
   -7.1190   -0.0510   -4.8380 C   0  0  1  0  0  0  0  0  0  0  0  0
   -6.5490   -1.1100   -5.6320 O   0  0  0  0  0  0  0  0  0  0  0  0
   -5.5790   -0.7430   -6.4950 C   0  0  0  0  0  0  0  0  0  0  0  0
   -4.3670   -0.9930   -5.9510 N   0  0  0  0  0  0  0  0  0  0  0  0
   -5.7250   -0.2590   -7.6050 O   0  0  0  0  0  0  0  0  0  0  0  0
   -8.6150    0.0270   -5.1580 C   0  0  0  0  0  0  0  0  0  0  0  0
   -9.3360    1.2560   -4.6650 C   0  0  0  0  0  0  0  0  0  0  0  0
   -9.2090   -0.9590   -5.8690 C   0  0  0  0  0  0  0  0  0  0  0  0
  -10.6310   -0.9670   -6.4160 C   0  0  2  0  0  0  0  0  0  0  0  0
  -11.5470   -1.7080   -5.4390 C   0  0  0  0  0  0  0  0  0  0  0  0
  -10.6620   -1.5780   -7.8580 C   0  0  1  0  0  0  0  0  0  0  0  0
  -11.5740   -2.6790   -7.9220 O   0  0  0  0  0  0  0  0  0  0  0  0
  -12.9552    0.8199  -10.3437 H   0  0  0  0  0  0  0  0  0  0  0  0
  -11.6661    0.0769  -11.3501 H   0  0  0  0  0  0  0  0  0  0  0  0
  -13.3207   -0.6224  -11.3501 H   0  0  0  0  0  0  0  0  0  0  0  0
  -10.1747   -0.4269   -9.6049 H   0  0  0  0  0  0  0  0  0  0  0  0
  -12.1721    1.3067   -8.8879 H   0  0  0  0  0  0  0  0  0  0  0  0
  -11.2974    0.7718   -7.3057 H   0  0  0  0  0  0  0  0  0  0  0  0
   -9.6210    2.0621   -7.6139 H   0  0  0  0  0  0  0  0  0  0  0  0
  -10.9253    3.8513   -7.7166 H   0  0  0  0  0  0  0  0  0  0  0  0
  -10.0366    4.0509   -9.2648 H   0  0  0  0  0  0  0  0  0  0  0  0
  -11.6993    3.3712   -9.2648 H   0  0  0  0  0  0  0  0  0  0  0  0
   -9.0138    0.5162   -9.6124 H   0  0  0  0  0  0  0  0  0  0  0  0
   -9.4075    2.0557  -10.5547 H   0  0  0  0  0  0  0  0  0  0  0  0
   -7.0959    2.2019  -11.4378 H   0  0  0  0  0  0  0  0  0  0  0  0
   -4.8060    2.3370  -11.8460 H   0  0  0  0  0  0  0  0  0  0  0  0
   -4.0015    3.1417   -8.5658 H   0  0  0  0  0  0  0  0  0  0  0  0
   -8.0187    2.3167   -7.2117 H   0  0  0  0  0  0  0  0  0  0  0  0
   -5.1140    1.9410   -6.0220 H   0  0  0  0  0  0  0  0  0  0  0  0
   -7.0435    3.9393   -2.3804 H   0  0  0  0  0  0  0  0  0  0  0  0
   -7.2987    5.0326   -3.7826 H   0  0  0  0  0  0  0  0  0  0  0  0
   -8.0215    3.3881   -3.7826 H   0  0  0  0  0  0  0  0  0  0  0  0
   -4.1767    2.2960   -4.2015 H   0  0  0  0  0  0  0  0  0  0  0  0
   -4.5433    1.7212   -1.7199 H   0  0  0  0  0  0  0  0  0  0  0  0
   -6.3015    1.8837   -1.9500 H   0  0  0  0  0  0  0  0  0  0  0  0
   -4.7655    0.0548   -3.8175 H   0  0  0  0  0  0  0  0  0  0  0  0
   -5.1003   -0.4795   -2.0908 H   0  0  0  0  0  0  0  0  0  0  0  0
   -7.5598    0.1955   -2.7245 H   0  0  0  0  0  0  0  0  0  0  0  0
   -6.9967   -2.0107   -1.9541 H   0  0  0  0  0  0  0  0  0  0  0  0
   -7.9206   -2.2128   -3.4813 H   0  0  0  0  0  0  0  0  0  0  0  0
   -6.1338   -2.3977   -3.4813 H   0  0  0  0  0  0  0  0  0  0  0  0
   -6.6787    0.9309   -5.0659 H   0  0  0  0  0  0  0  0  0  0  0  0
   -3.5490   -0.8700   -6.5270 H   0  0  0  0  0  0  0  0  0  0  0  0
   -4.3120   -1.5110   -5.0880 H   0  0  0  0  0  0  0  0  0  0  0  0
   -9.3397    1.2624   -3.5650 H   0  0  0  0  0  0  0  0  0  0  0  0
   -8.8225    2.1556   -5.0352 H   0  0  0  0  0  0  0  0  0  0  0  0
  -10.3718    1.2467   -5.0352 H   0  0  0  0  0  0  0  0  0  0  0  0
   -8.5994   -1.8513   -6.0743 H   0  0  0  0  0  0  0  0  0  0  0  0
  -11.0047    0.0636   -6.5070 H   0  0  0  0  0  0  0  0  0  0  0  0
  -11.2518   -1.4692   -4.4066 H   0  0  0  0  0  0  0  0  0  0  0  0
  -12.5886   -1.3954   -5.6041 H   0  0  0  0  0  0  0  0  0  0  0  0
  -11.4589   -2.7920   -5.6041 H   0  0  0  0  0  0  0  0  0  0  0  0
   -9.6439   -1.9329   -8.0759 H   0  0  0  0  0  0  0  0  0  0  0  0
  -12.1010   -2.6700   -7.1040 H   0  0  0  0  0  0  0  0  0  0  0  0
  1  2  1  0
  2  3  1  0
  3  4  1  0
  4  5  1  0
  5  6  1  0
  5  7  1  0
  7  8  1  0
  8  9  2  0
  9 10  1  0
 10 11  1  0
 10 12  2  0
 12 13  1  0
 13 14  2  0
 13 15  1  0
 15 16  1  0
 16 17  2  0
 16 18  1  0
 18 19  1  0
 18 20  2  0
 20 21  1  0
 21 22  1  0
 22 23  1  0
 23 24  1  0
 23 25  1  0
 25 26  1  0
 26 27  1  0
 27 28  1  0
 27 29  2  0
 25 30  1  0
 30 31  1  0
 30 32  2  0
 32 33  1  0
 33 34  1  0
 33 35  1  0
 35 36  1  0
 35  3  1  0
 14  8  1  0
  1 37  1  0
  1 38  1  0
  1 39  1  0
  3 40  1  6
  4 41  1  0
  4 42  1  0
  5 43  1  1
  6 44  1  0
  6 45  1  0
  6 46  1  0
  7 47  1  0
  7 48  1  0
  9 49  1  0
 11 50  1  0
 12 51  1  0
 14 52  1  0
 15 53  1  0
 19 54  1  0
 19 55  1  0
 19 56  1  0
 20 57  1  0
 21 58  1  0
 21 59  1  0
 22 60  1  0
 22 61  1  0
 23 62  1  1
 24 63  1  0
 24 64  1  0
 24 65  1  0
 25 66  1  6
 28 67  1  0
 28 68  1  0
 31 69  1  0
 31 70  1  0
 31 71  1  0
 32 72  1  0
 33 73  1  6
 34 74  1  0
 34 75  1  0
 34 76  1  0
 35 77  1  6
 36 78  1  0
M  END
>  <meeko>  (8) 
{"is_sidechain": [false], "free_energy": -4.863, "intermolecular_energy": -9.155, "internal_energy": -3.445}

$$$$
2vw5_ligand
     RDKit          3D

 78 79  0  0  0  0  0  0  0  0999 V2000
   -7.3710    5.8630   -8.2350 C   0  0  0  0  0  0  0  0  0  0  0  0
   -6.2590    5.1470   -7.7140 O   0  0  0  0  0  0  0  0  0  0  0  0
   -6.5390    3.7620   -7.4870 C   0  0  1  0  0  0  0  0  0  0  0  0
   -6.3910    2.9470   -8.8010 C   0  0  0  0  0  0  0  0  0  0  0  0
   -7.5410    2.0300   -9.2990 C   0  0  2  0  0  0  0  0  0  0  0  0
   -7.3040    1.4830  -10.7080 C   0  0  0  0  0  0  0  0  0  0  0  0
   -8.9500    2.6350   -9.0370 C   0  0  0  0  0  0  0  0  0  0  0  0
   -9.8050    1.9130   -8.0240 C   0  0  0  0  0  0  0  0  0  0  0  0
  -11.1980    2.0370   -8.0190 C   0  0  0  0  0  0  0  0  0  0  0  0
  -11.9330    1.4720   -6.9780 C   0  0  0  0  0  0  0  0  0  0  0  0
  -13.2920    1.5890   -6.9270 O   0  0  0  0  0  0  0  0  0  0  0  0
  -11.3040    0.7960   -5.9340 C   0  0  0  0  0  0  0  0  0  0  0  0
   -9.9190    0.6380   -5.9460 C   0  0  0  0  0  0  0  0  0  0  0  0
   -9.1790    1.1780   -7.0040 C   0  0  0  0  0  0  0  0  0  0  0  0
   -9.2940    0.0620   -4.8200 N   0  0  0  0  0  0  0  0  0  0  0  0
   -8.8110   -1.2260   -4.7780 C   0  0  0  0  0  0  0  0  0  0  0  0
   -9.3120   -2.2040   -5.3230 O   0  0  0  0  0  0  0  0  0  0  0  0
   -7.5520   -1.3890   -3.9830 C   0  0  0  0  0  0  0  0  0  0  0  0
   -7.0150   -2.7820   -3.9180 C   0  0  0  0  0  0  0  0  0  0  0  0
   -6.9230   -0.2540   -3.6140 C   0  0  0  0  0  0  0  0  0  0  0  0
   -5.4790   -0.1190   -3.2060 C   0  0  0  0  0  0  0  0  0  0  0  0
   -5.4450    0.7060   -1.9080 C   0  0  0  0  0  0  0  0  0  0  0  0
   -4.1340    1.4770   -1.6610 C   0  0  2  0  0  0  0  0  0  0  0  0
   -3.3790    0.9030   -0.4560 C   0  0  0  0  0  0  0  0  0  0  0  0
   -4.4120    3.0000   -1.4600 C   0  0  1  0  0  0  0  0  0  0  0  0
   -3.1740    3.7160   -1.6400 O   0  0  0  0  0  0  0  0  0  0  0  0
   -2.7230    4.3920   -0.5630 C   0  0  0  0  0  0  0  0  0  0  0  0
   -1.3980    4.6240   -0.6940 N   0  0  0  0  0  0  0  0  0  0  0  0
   -3.3730    4.7600    0.4020 O   0  0  0  0  0  0  0  0  0  0  0  0
   -5.4320    3.5650   -2.4530 C   0  0  0  0  0  0  0  0  0  0  0  0
   -6.4540    4.5180   -1.8850 C   0  0  0  0  0  0  0  0  0  0  0  0
   -5.3680    3.2240   -3.7600 C   0  0  0  0  0  0  0  0  0  0  0  0
   -6.1850    3.8120   -4.9040 C   0  0  2  0  0  0  0  0  0  0  0  0
   -7.6680    3.5060   -4.6790 C   0  0  0  0  0  0  0  0  0  0  0  0
   -5.6600    3.2850   -6.2820 C   0  0  1  0  0  0  0  0  0  0  0  0
   -5.5790    1.8560   -6.2810 O   0  0  0  0  0  0  0  0  0  0  0  0
   -7.9774    6.2535   -7.4045 H   0  0  0  0  0  0  0  0  0  0  0  0
   -7.0118    6.6999   -8.8519 H   0  0  0  0  0  0  0  0  0  0  0  0
   -7.9843    5.1897   -8.8519 H   0  0  0  0  0  0  0  0  0  0  0  0
   -7.5866    3.5918   -7.1981 H   0  0  0  0  0  0  0  0  0  0  0  0
   -6.2005    3.6756   -9.6028 H   0  0  0  0  0  0  0  0  0  0  0  0
   -5.5940    2.2296   -8.5560 H   0  0  0  0  0  0  0  0  0  0  0  0
   -7.5261    1.1266   -8.6717 H   0  0  0  0  0  0  0  0  0  0  0  0
   -6.8675    0.4755  -10.6416 H   0  0  0  0  0  0  0  0  0  0  0  0
   -8.2612    1.4330  -11.2477 H   0  0  0  0  0  0  0  0  0  0  0  0
   -6.6129    2.1472  -11.2477 H   0  0  0  0  0  0  0  0  0  0  0  0
   -8.8120    3.6680   -8.6850 H   0  0  0  0  0  0  0  0  0  0  0  0
   -9.4895    2.5516   -9.9920 H   0  0  0  0  0  0  0  0  0  0  0  0
  -11.7095    2.5760   -8.8300 H   0  0  0  0  0  0  0  0  0  0  0  0
  -13.6780    0.6990   -6.9780 H   0  0  0  0  0  0  0  0  0  0  0  0
  -11.8986    0.3884   -5.1031 H   0  0  0  0  0  0  0  0  0  0  0  0
   -8.0903    1.0244   -7.0372 H   0  0  0  0  0  0  0  0  0  0  0  0
   -9.0300    0.6920   -4.0760 H   0  0  0  0  0  0  0  0  0  0  0  0
   -6.8995   -3.0817   -2.8659 H   0  0  0  0  0  0  0  0  0  0  0  0
   -7.7132   -3.4679   -4.4201 H   0  0  0  0  0  0  0  0  0  0  0  0
   -6.0371   -2.8218   -4.4201 H   0  0  0  0  0  0  0  0  0  0  0  0
   -7.5256    0.6663   -3.6107 H   0  0  0  0  0  0  0  0  0  0  0  0
   -5.0427   -1.1136   -3.0313 H   0  0  0  0  0  0  0  0  0  0  0  0
   -4.8957    0.3754   -3.9968 H   0  0  0  0  0  0  0  0  0  0  0  0
   -6.2679    1.4351   -1.9453 H   0  0  0  0  0  0  0  0  0  0  0  0
   -5.5378   -0.0152   -1.0826 H   0  0  0  0  0  0  0  0  0  0  0  0
   -3.5001    1.3578   -2.5521 H   0  0  0  0  0  0  0  0  0  0  0  0
   -3.8472    1.2590    0.4735 H   0  0  0  0  0  0  0  0  0  0  0  0
   -3.4177   -0.1958   -0.4886 H   0  0  0  0  0  0  0  0  0  0  0  0
   -2.3305    1.2341   -0.4886 H   0  0  0  0  0  0  0  0  0  0  0  0
   -4.8278    3.1232   -0.4491 H   0  0  0  0  0  0  0  0  0  0  0  0
   -0.9460    5.2150   -0.0140 H   0  0  0  0  0  0  0  0  0  0  0  0
   -0.9440    4.4100   -1.5680 H   0  0  0  0  0  0  0  0  0  0  0  0
   -6.4168    4.4833   -0.7862 H   0  0  0  0  0  0  0  0  0  0  0  0
   -6.2327    5.5397   -2.2273 H   0  0  0  0  0  0  0  0  0  0  0  0
   -7.4578    4.2260   -2.2273 H   0  0  0  0  0  0  0  0  0  0  0  0
   -4.6478    2.4364   -4.0263 H   0  0  0  0  0  0  0  0  0  0  0  0
   -6.0696    4.9057   -4.9251 H   0  0  0  0  0  0  0  0  0  0  0  0
   -7.8739    3.4635   -3.5993 H   0  0  0  0  0  0  0  0  0  0  0  0
   -8.2793    4.2969   -5.1380 H   0  0  0  0  0  0  0  0  0  0  0  0
   -7.9163    2.5377   -5.1380 H   0  0  0  0  0  0  0  0  0  0  0  0
   -4.6552    3.7124   -6.4150 H   0  0  0  0  0  0  0  0  0  0  0  0
   -4.7970    1.6080   -5.7590 H   0  0  0  0  0  0  0  0  0  0  0  0
  1  2  1  0
  2  3  1  0
  3  4  1  0
  4  5  1  0
  5  6  1  0
  5  7  1  0
  7  8  1  0
  8  9  2  0
  9 10  1  0
 10 11  1  0
 10 12  2  0
 12 13  1  0
 13 14  2  0
 13 15  1  0
 15 16  1  0
 16 17  2  0
 16 18  1  0
 18 19  1  0
 18 20  2  0
 20 21  1  0
 21 22  1  0
 22 23  1  0
 23 24  1  0
 23 25  1  0
 25 26  1  0
 26 27  1  0
 27 28  1  0
 27 29  2  0
 25 30  1  0
 30 31  1  0
 30 32  2  0
 32 33  1  0
 33 34  1  0
 33 35  1  0
 35 36  1  0
 35  3  1  0
 14  8  1  0
  1 37  1  0
  1 38  1  0
  1 39  1  0
  3 40  1  1
  4 41  1  0
  4 42  1  0
  5 43  1  1
  6 44  1  0
  6 45  1  0
  6 46  1  0
  7 47  1  0
  7 48  1  0
  9 49  1  0
 11 50  1  0
 12 51  1  0
 14 52  1  0
 15 53  1  0
 19 54  1  0
 19 55  1  0
 19 56  1  0
 20 57  1  0
 21 58  1  0
 21 59  1  0
 22 60  1  0
 22 61  1  0
 23 62  1  6
 24 63  1  0
 24 64  1  0
 24 65  1  0
 25 66  1  1
 28 67  1  0
 28 68  1  0
 31 69  1  0
 31 70  1  0
 31 71  1  0
 32 72  1  0
 33 73  1  6
 34 74  1  0
 34 75  1  0
 34 76  1  0
 35 77  1  6
 36 78  1  0
M  END
>  <meeko>  (9) 
{"is_sidechain": [false], "free_energy": -4.788, "intermolecular_energy": -10.545, "internal_energy": -1.906}

$$$$
