1w4o_ligand
     RDKit          3D

 32 33  0  0  0  0  0  0  0  0999 V2000
   -0.0620    3.2230   -3.4990 O   0  0  0  0  0  0  0  0  0  0  0  0
   -1.2820    3.3150   -3.4280 C   0  0  0  0  0  0  0  0  0  0  0  0
   -1.9500    3.5950   -2.1520 C   0  0  0  0  0  0  0  0  0  0  0  0
   -3.2820    3.6690   -2.1320 C   0  0  0  0  0  0  0  0  0  0  0  0
   -4.0620    3.4740   -3.2630 N   0  0  0  0  0  0  0  0  0  0  0  0
   -5.5220    3.6820   -3.1250 C   0  0  2  0  0  0  0  0  0  0  0  0
   -5.7640    4.3490   -1.8660 O   0  0  0  0  0  0  0  0  0  0  0  0
   -7.1870    4.1960   -1.5990 C   0  0  2  0  0  0  0  0  0  0  0  0
   -7.4000    3.8510   -0.1250 C   0  0  0  0  0  0  0  0  0  0  0  0
   -6.2000    3.5360    0.5740 O   0  0  0  0  0  0  0  0  0  0  0  0
   -7.7180    3.1050   -2.5390 C   0  0  1  0  0  0  0  0  0  0  0  0
   -8.3980    3.7440   -3.6120 O   0  0  0  0  0  0  0  0  0  0  0  0
   -9.6380    2.8720   -4.2350 P   0  0  0  0  0  0  0  0  0  0  0  0
   -9.0730    2.3720   -5.5510 O   0  0  0  0  0  0  0  0  0  0  0  0
   -9.8710    1.8160   -3.1700 O   0  0  0  0  0  0  0  0  0  0  0  0
  -10.7580    3.8990   -4.3590 O   0  0  0  0  0  0  0  0  0  0  0  0
   -6.4640    2.4700   -3.0990 C   0  0  2  0  0  0  0  0  0  0  0  0
   -5.9770    1.4300   -2.2290 O   0  0  0  0  0  0  0  0  0  0  0  0
   -3.4770    3.2590   -4.5000 C   0  0  0  0  0  0  0  0  0  0  0  0
   -4.0690    3.1190   -5.5680 O   0  0  0  0  0  0  0  0  0  0  0  0
   -2.1060    3.1800   -4.5050 N   0  0  0  0  0  0  0  0  0  0  0  0
   -1.3653    3.7408   -1.2318 H   0  0  0  0  0  0  0  0  0  0  0  0
   -3.7829    3.8940   -1.1789 H   0  0  0  0  0  0  0  0  0  0  0  0
   -5.7602    4.2271   -4.0503 H   0  0  0  0  0  0  0  0  0  0  0  0
   -7.7390    5.1285   -1.7879 H   0  0  0  0  0  0  0  0  0  0  0  0
   -7.8714    4.7140    0.3679 H   0  0  0  0  0  0  0  0  0  0  0  0
   -8.0315    2.9508   -0.0962 H   0  0  0  0  0  0  0  0  0  0  0  0
   -5.5000    4.2130    0.2980 H   0  0  0  0  0  0  0  0  0  0  0  0
   -8.3911    2.3895   -2.0440 H   0  0  0  0  0  0  0  0  0  0  0  0
   -6.5890    1.9741   -4.0729 H   0  0  0  0  0  0  0  0  0  0  0  0
   -5.9960    1.8440   -1.3440 H   0  0  0  0  0  0  0  0  0  0  0  0
   -1.6780    3.0030   -5.3990 H   0  0  0  0  0  0  0  0  0  0  0  0
  1  2  2  0
  2  3  1  0
  3  4  2  0
  4  5  1  0
  5  6  1  0
  6  7  1  0
  7  8  1  0
  8  9  1  0
  9 10  1  0
  8 11  1  0
 11 12  1  0
 12 13  1  0
 13 14  2  0
 13 15  1  0
 13 16  1  0
 11 17  1  0
 17 18  1  0
  5 19  1  0
 19 20  2  0
 19 21  1  0
 21  2  1  0
 17  6  1  0
  3 22  1  0
  4 23  1  0
  6 24  1  6
  8 25  1  6
  9 26  1  0
  9 27  1  0
 10 28  1  0
 11 29  1  1
 17 30  1  6
 18 31  1  0
 21 32  1  0
M  CHG  2  15  -1  16  -1
M  END
>  <meeko>  (1) 
{"is_sidechain": [false], "free_energy": -5.821, "intermolecular_energy": -7.523, "internal_energy": -0.725}

$$$$
1w4o_ligand
     RDKit          3D

 32 33  0  0  0  0  0  0  0  0999 V2000
  -11.3810    4.4350    2.4050 O   0  0  0  0  0  0  0  0  0  0  0  0
  -10.5980    4.3030    1.4710 C   0  0  0  0  0  0  0  0  0  0  0  0
  -10.9430    3.4930    0.2970 C   0  0  0  0  0  0  0  0  0  0  0  0
  -10.0460    3.3730   -0.6820 C   0  0  0  0  0  0  0  0  0  0  0  0
   -8.7920    3.9660   -0.6290 N   0  0  0  0  0  0  0  0  0  0  0  0
   -7.9290    3.8380   -1.8250 C   0  0  2  0  0  0  0  0  0  0  0  0
   -8.7410    3.3480   -2.9150 O   0  0  0  0  0  0  0  0  0  0  0  0
   -7.8080    2.8850   -3.9330 C   0  0  2  0  0  0  0  0  0  0  0  0
   -8.2960    1.5570   -4.5120 C   0  0  0  0  0  0  0  0  0  0  0  0
   -7.6920    0.4120   -3.9190 O   0  0  0  0  0  0  0  0  0  0  0  0
   -6.4280    2.7650   -3.2740 C   0  0  1  0  0  0  0  0  0  0  0  0
   -5.6600    3.8990   -3.6570 O   0  0  0  0  0  0  0  0  0  0  0  0
   -4.2560    3.5300   -4.4200 P   0  0  0  0  0  0  0  0  0  0  0  0
   -4.3500    2.0260   -4.5930 O   0  0  0  0  0  0  0  0  0  0  0  0
   -4.3420    4.3500   -5.6930 O   0  0  0  0  0  0  0  0  0  0  0  0
   -3.1910    4.0030   -3.4360 O   0  0  0  0  0  0  0  0  0  0  0  0
   -6.7230    2.8870   -1.7950 C   0  0  2  0  0  0  0  0  0  0  0  0
   -7.0630    1.6070   -1.2270 O   0  0  0  0  0  0  0  0  0  0  0  0
   -8.4390    4.7830    0.4330 C   0  0  0  0  0  0  0  0  0  0  0  0
   -7.3780    5.3910    0.5580 O   0  0  0  0  0  0  0  0  0  0  0  0
   -9.3700    4.8940    1.4360 N   0  0  0  0  0  0  0  0  0  0  0  0
  -11.9214    2.9952    0.2262 H   0  0  0  0  0  0  0  0  0  0  0  0
  -10.3108    2.7790   -1.5692 H   0  0  0  0  0  0  0  0  0  0  0  0
   -7.5105    4.8517   -1.9099 H   0  0  0  0  0  0  0  0  0  0  0  0
   -7.7405    3.5906   -4.7741 H   0  0  0  0  0  0  0  0  0  0  0  0
   -9.3836    1.4922   -4.3609 H   0  0  0  0  0  0  0  0  0  0  0  0
   -8.0161    1.5506   -5.5758 H   0  0  0  0  0  0  0  0  0  0  0  0
   -8.2910    0.1100   -3.1600 H   0  0  0  0  0  0  0  0  0  0  0  0
   -5.8929    1.8423   -3.5428 H   0  0  0  0  0  0  0  0  0  0  0  0
   -5.8823    3.2430   -1.1814 H   0  0  0  0  0  0  0  0  0  0  0  0
   -7.1410    1.0240   -2.0070 H   0  0  0  0  0  0  0  0  0  0  0  0
   -9.1090    5.4700    2.2180 H   0  0  0  0  0  0  0  0  0  0  0  0
  1  2  2  0
  2  3  1  0
  3  4  2  0
  4  5  1  0
  5  6  1  0
  6  7  1  0
  7  8  1  0
  8  9  1  0
  9 10  1  0
  8 11  1  0
 11 12  1  0
 12 13  1  0
 13 14  2  0
 13 15  1  0
 13 16  1  0
 11 17  1  0
 17 18  1  0
  5 19  1  0
 19 20  2  0
 19 21  1  0
 21  2  1  0
 17  6  1  0
  3 22  1  0
  4 23  1  0
  6 24  1  6
  8 25  1  6
  9 26  1  0
  9 27  1  0
 10 28  1  0
 11 29  1  1
 17 30  1  1
 18 31  1  0
 21 32  1  0
M  CHG  2  15  -1  16  -1
M  END
>  <meeko>  (2) 
{"is_sidechain": [false], "free_energy": -5.782, "intermolecular_energy": -7.323, "internal_energy": -0.874}

$$$$
1w4o_ligand
     RDKit          3D

 32 33  0  0  0  0  0  0  0  0999 V2000
   -7.2180    1.0090   -2.5790 O   0  0  0  0  0  0  0  0  0  0  0  0
   -6.3540    1.7910   -2.9590 C   0  0  0  0  0  0  0  0  0  0  0  0
   -6.0550    1.9590   -4.3860 C   0  0  0  0  0  0  0  0  0  0  0  0
   -5.0930    2.8120   -4.7400 C   0  0  0  0  0  0  0  0  0  0  0  0
   -4.3510    3.5330   -3.8160 N   0  0  0  0  0  0  0  0  0  0  0  0
   -3.3820    4.5210   -4.3450 C   0  0  2  0  0  0  0  0  0  0  0  0
   -3.4660    4.5050   -5.7880 O   0  0  0  0  0  0  0  0  0  0  0  0
   -2.2700    5.1840   -6.2660 C   0  0  2  0  0  0  0  0  0  0  0  0
   -1.6860    4.4210   -7.4540 C   0  0  0  0  0  0  0  0  0  0  0  0
   -1.7890    3.0050   -7.3400 O   0  0  0  0  0  0  0  0  0  0  0  0
   -1.2900    5.2760   -5.0890 C   0  0  1  0  0  0  0  0  0  0  0  0
   -1.3490    6.6000   -4.5730 O   0  0  0  0  0  0  0  0  0  0  0  0
    0.0680    7.4200   -4.6670 P   0  0  0  0  0  0  0  0  0  0  0  0
   -0.1880    8.6380   -3.8000 O   0  0  0  0  0  0  0  0  0  0  0  0
    1.0700    6.4180   -4.1230 O   0  0  0  0  0  0  0  0  0  0  0  0
    0.2070    7.7030   -6.1590 O   0  0  0  0  0  0  0  0  0  0  0  0
   -1.8850    4.3490   -4.0510 C   0  0  2  0  0  0  0  0  0  0  0  0
   -1.4490    2.9920   -4.2590 O   0  0  0  0  0  0  0  0  0  0  0  0
   -4.6300    3.4490   -2.4620 C   0  0  0  0  0  0  0  0  0  0  0  0
   -4.0680    4.0740   -1.5650 O   0  0  0  0  0  0  0  0  0  0  0  0
   -5.6190    2.5630   -2.1100 N   0  0  0  0  0  0  0  0  0  0  0  0
   -6.6124    1.3935   -5.1472 H   0  0  0  0  0  0  0  0  0  0  0  0
   -4.8788    2.9497   -5.8101 H   0  0  0  0  0  0  0  0  0  0  0  0
   -3.6876    5.4393   -3.8222 H   0  0  0  0  0  0  0  0  0  0  0  0
   -2.4938    6.2002   -6.6226 H   0  0  0  0  0  0  0  0  0  0  0  0
   -2.2202    4.7346   -8.3630 H   0  0  0  0  0  0  0  0  0  0  0  0
   -0.6129    4.6603   -7.4896 H   0  0  0  0  0  0  0  0  0  0  0  0
   -2.5440    2.8060   -6.6950 H   0  0  0  0  0  0  0  0  0  0  0  0
   -0.2537    5.0264   -5.3608 H   0  0  0  0  0  0  0  0  0  0  0  0
   -1.6009    4.5703   -3.0116 H   0  0  0  0  0  0  0  0  0  0  0  0
   -2.1540    2.6070   -4.8130 H   0  0  0  0  0  0  0  0  0  0  0  0
   -5.8100    2.4840   -1.1260 H   0  0  0  0  0  0  0  0  0  0  0  0
  1  2  2  0
  2  3  1  0
  3  4  2  0
  4  5  1  0
  5  6  1  0
  6  7  1  0
  7  8  1  0
  8  9  1  0
  9 10  1  0
  8 11  1  0
 11 12  1  0
 12 13  1  0
 13 14  2  0
 13 15  1  0
 13 16  1  0
 11 17  1  0
 17 18  1  0
  5 19  1  0
 19 20  2  0
 19 21  1  0
 21  2  1  0
 17  6  1  0
  3 22  1  0
  4 23  1  0
  6 24  1  1
  8 25  1  6
  9 26  1  0
  9 27  1  0
 10 28  1  0
 11 29  1  6
 17 30  1  1
 18 31  1  0
 21 32  1  0
M  CHG  2  15  -1  16  -1
M  END
>  <meeko>  (3) 
{"is_sidechain": [false], "free_energy": -5.439, "intermolecular_energy": -6.917, "internal_energy": -0.837}

$$$$
1w4o_ligand
     RDKit          3D

 32 33  0  0  0  0  0  0  0  0999 V2000
   -0.4260    3.4040   -3.2820 O   0  0  0  0  0  0  0  0  0  0  0  0
   -1.6390    3.3470   -3.4500 C   0  0  0  0  0  0  0  0  0  0  0  0
   -2.5610    3.2430   -2.3130 C   0  0  0  0  0  0  0  0  0  0  0  0
   -3.8700    3.1690   -2.5570 C   0  0  0  0  0  0  0  0  0  0  0  0
   -4.3950    3.1670   -3.8410 N   0  0  0  0  0  0  0  0  0  0  0  0
   -5.8700    3.1820   -3.9720 C   0  0  2  0  0  0  0  0  0  0  0  0
   -6.4300    3.5820   -2.7010 O   0  0  0  0  0  0  0  0  0  0  0  0
   -7.8400    3.2250   -2.7540 C   0  0  2  0  0  0  0  0  0  0  0  0
   -8.2630    2.6010   -1.4240 C   0  0  0  0  0  0  0  0  0  0  0  0
   -8.2570    1.1770   -1.4250 O   0  0  0  0  0  0  0  0  0  0  0  0
   -8.0290    2.2660   -3.9370 C   0  0  1  0  0  0  0  0  0  0  0  0
   -8.5890    3.0050   -5.0150 O   0  0  0  0  0  0  0  0  0  0  0  0
  -10.1890    2.7380   -5.2520 P   0  0  0  0  0  0  0  0  0  0  0  0
  -10.2910    2.6130   -6.7600 O   0  0  0  0  0  0  0  0  0  0  0  0
  -10.4350    1.4650   -4.4640 O   0  0  0  0  0  0  0  0  0  0  0  0
  -10.8410    3.9820   -4.6590 O   0  0  0  0  0  0  0  0  0  0  0  0
   -6.6160    1.8860   -4.3220 C   0  0  2  0  0  0  0  0  0  0  0  0
   -6.1480    0.7690   -3.5410 O   0  0  0  0  0  0  0  0  0  0  0  0
   -3.5710    3.3160   -4.9450 C   0  0  0  0  0  0  0  0  0  0  0  0
   -3.9330    3.3730   -6.1180 O   0  0  0  0  0  0  0  0  0  0  0  0
   -2.2260    3.3860   -4.6800 N   0  0  0  0  0  0  0  0  0  0  0  0
   -2.1803    3.2264   -1.2811 H   0  0  0  0  0  0  0  0  0  0  0  0
   -4.5623    3.1070   -1.7045 H   0  0  0  0  0  0  0  0  0  0  0  0
   -6.0128    3.8529   -4.8320 H   0  0  0  0  0  0  0  0  0  0  0  0
   -8.4778    4.1082   -2.9059 H   0  0  0  0  0  0  0  0  0  0  0  0
   -7.5713    2.9494   -0.6429 H   0  0  0  0  0  0  0  0  0  0  0  0
   -9.3012    2.9150   -1.2408 H   0  0  0  0  0  0  0  0  0  0  0  0
   -7.2950    0.8770   -1.5310 H   0  0  0  0  0  0  0  0  0  0  0  0
   -8.6697    1.4029   -3.7035 H   0  0  0  0  0  0  0  0  0  0  0  0
   -6.4903    1.5602   -5.3651 H   0  0  0  0  0  0  0  0  0  0  0  0
   -6.5740   -0.0010   -3.9650 H   0  0  0  0  0  0  0  0  0  0  0  0
   -1.6220    3.4730   -5.4800 H   0  0  0  0  0  0  0  0  0  0  0  0
  1  2  2  0
  2  3  1  0
  3  4  2  0
  4  5  1  0
  5  6  1  0
  6  7  1  0
  7  8  1  0
  8  9  1  0
  9 10  1  0
  8 11  1  0
 11 12  1  0
 12 13  1  0
 13 14  2  0
 13 15  1  0
 13 16  1  0
 11 17  1  0
 17 18  1  0
  5 19  1  0
 19 20  2  0
 19 21  1  0
 21  2  1  0
 17  6  1  0
  3 22  1  0
  4 23  1  0
  6 24  1  6
  8 25  1  6
  9 26  1  0
  9 27  1  0
 10 28  1  0
 11 29  1  1
 17 30  1  6
 18 31  1  0
 21 32  1  0
M  CHG  2  15  -1  16  -1
M  END
>  <meeko>  (4) 
{"is_sidechain": [false], "free_energy": -5.422, "intermolecular_energy": -6.846, "internal_energy": -0.886}

$$$$
1w4o_ligand
     RDKit          3D

 32 33  0  0  0  0  0  0  0  0999 V2000
    2.1430    9.1500   -4.0140 O   0  0  0  0  0  0  0  0  0  0  0  0
    2.9170    9.3940   -3.0950 C   0  0  0  0  0  0  0  0  0  0  0  0
    4.0580    8.5170   -2.8090 C   0  0  0  0  0  0  0  0  0  0  0  0
    4.8590    8.8230   -1.7870 C   0  0  0  0  0  0  0  0  0  0  0  0
    4.6460    9.9260   -0.9720 N   0  0  0  0  0  0  0  0  0  0  0  0
    5.6650   10.2100    0.0650 C   0  0  2  0  0  0  0  0  0  0  0  0
    5.1020   11.1590    0.9990 O   0  0  0  0  0  0  0  0  0  0  0  0
    6.2270   11.6890    1.7570 C   0  0  2  0  0  0  0  0  0  0  0  0
    6.0700   13.2000    1.9230 C   0  0  0  0  0  0  0  0  0  0  0  0
    4.7960   13.5980    2.4190 O   0  0  0  0  0  0  0  0  0  0  0  0
    7.5100   11.3120    1.0050 C   0  0  1  0  0  0  0  0  0  0  0  0
    8.0990   10.2030    1.6720 O   0  0  0  0  0  0  0  0  0  0  0  0
    9.7160   10.3450    1.9070 P   0  0  0  0  0  0  0  0  0  0  0  0
   10.2960    9.7260    0.6490 O   0  0  0  0  0  0  0  0  0  0  0  0
    9.9020   11.8430    2.0550 O   0  0  0  0  0  0  0  0  0  0  0  0
    9.9520    9.5510    3.1870 O   0  0  0  0  0  0  0  0  0  0  0  0
    7.0100   10.8290   -0.3400 C   0  0  2  0  0  0  0  0  0  0  0  0
    6.8420   11.9290   -1.2550 O   0  0  0  0  0  0  0  0  0  0  0  0
    3.6140   10.8120   -1.2320 C   0  0  0  0  0  0  0  0  0  0  0  0
    3.3650   11.8400   -0.6050 O   0  0  0  0  0  0  0  0  0  0  0  0
    2.7950   10.4820   -2.2840 N   0  0  0  0  0  0  0  0  0  0  0  0
    4.2490    7.6256   -3.4246 H   0  0  0  0  0  0  0  0  0  0  0  0
    5.7236    8.1746   -1.5819 H   0  0  0  0  0  0  0  0  0  0  0  0
    5.8989    9.2007    0.4346 H   0  0  0  0  0  0  0  0  0  0  0  0
    6.2707   11.2631    2.7703 H   0  0  0  0  0  0  0  0  0  0  0  0
    6.8402   13.5530    2.6246 H   0  0  0  0  0  0  0  0  0  0  0  0
    6.1748   13.6432    0.9217 H   0  0  0  0  0  0  0  0  0  0  0  0
    4.9370   13.9860    3.3440 H   0  0  0  0  0  0  0  0  0  0  0  0
    8.2361   12.1355    0.9366 H   0  0  0  0  0  0  0  0  0  0  0  0
    7.6845   10.1375   -0.8663 H   0  0  0  0  0  0  0  0  0  0  0  0
    7.3020   11.6280   -2.0620 H   0  0  0  0  0  0  0  0  0  0  0  0
    2.0330   11.1130   -2.4640 H   0  0  0  0  0  0  0  0  0  0  0  0
  1  2  2  0
  2  3  1  0
  3  4  2  0
  4  5  1  0
  5  6  1  0
  6  7  1  0
  7  8  1  0
  8  9  1  0
  9 10  1  0
  8 11  1  0
 11 12  1  0
 12 13  1  0
 13 14  2  0
 13 15  1  0
 13 16  1  0
 11 17  1  0
 17 18  1  0
  5 19  1  0
 19 20  2  0
 19 21  1  0
 21  2  1  0
 17  6  1  0
  3 22  1  0
  4 23  1  0
  6 24  1  1
  8 25  1  1
  9 26  1  0
  9 27  1  0
 10 28  1  0
 11 29  1  6
 17 30  1  6
 18 31  1  0
 21 32  1  0
M  CHG  2  15  -1  16  -1
M  END
>  <meeko>  (5) 
{"is_sidechain": [false], "free_energy": -5.279, "intermolecular_energy": -7.599, "internal_energy": 0.051}

$$$$
1w4o_ligand
     RDKit          3D

 32 33  0  0  0  0  0  0  0  0999 V2000
   -6.4660    2.3050   -2.7330 O   0  0  0  0  0  0  0  0  0  0  0  0
   -5.4330    2.8680   -3.0770 C   0  0  0  0  0  0  0  0  0  0  0  0
   -5.4390    3.8860   -4.1340 C   0  0  0  0  0  0  0  0  0  0  0  0
   -4.2830    4.4560   -4.4780 C   0  0  0  0  0  0  0  0  0  0  0  0
   -3.0730    4.1120   -3.8920 N   0  0  0  0  0  0  0  0  0  0  0  0
   -1.8780    4.8890   -4.2930 C   0  0  2  0  0  0  0  0  0  0  0  0
   -0.8000    3.9590   -4.5440 O   0  0  0  0  0  0  0  0  0  0  0  0
    0.4190    4.7550   -4.5610 C   0  0  2  0  0  0  0  0  0  0  0  0
    1.5220    4.0230   -3.7960 C   0  0  0  0  0  0  0  0  0  0  0  0
    1.6340    2.6420   -4.1250 O   0  0  0  0  0  0  0  0  0  0  0  0
    0.0870    6.1210   -3.9450 C   0  0  1  0  0  0  0  0  0  0  0  0
   -0.0600    7.0560   -5.0060 O   0  0  0  0  0  0  0  0  0  0  0  0
    0.8240    8.4250   -4.8210 P   0  0  0  0  0  0  0  0  0  0  0  0
    2.1550    7.9030   -4.3160 O   0  0  0  0  0  0  0  0  0  0  0  0
    0.8290    9.0110   -6.2200 O   0  0  0  0  0  0  0  0  0  0  0  0
    0.0150    9.2250   -3.8060 O   0  0  0  0  0  0  0  0  0  0  0  0
   -1.2750    5.9140   -3.3210 C   0  0  2  0  0  0  0  0  0  0  0  0
   -1.1580    5.3830   -1.9860 O   0  0  0  0  0  0  0  0  0  0  0  0
   -3.0220    3.1950   -2.8540 C   0  0  0  0  0  0  0  0  0  0  0  0
   -2.0160    2.8530   -2.2370 O   0  0  0  0  0  0  0  0  0  0  0  0
   -4.2190    2.6130   -2.5140 N   0  0  0  0  0  0  0  0  0  0  0  0
   -6.3769    4.1730   -4.6321 H   0  0  0  0  0  0  0  0  0  0  0  0
   -4.2891    5.2309   -5.2587 H   0  0  0  0  0  0  0  0  0  0  0  0
   -2.2635    5.4717   -5.1426 H   0  0  0  0  0  0  0  0  0  0  0  0
    0.7913    4.9069   -5.5849 H   0  0  0  0  0  0  0  0  0  0  0  0
    2.4818    4.5114   -4.0204 H   0  0  0  0  0  0  0  0  0  0  0  0
    1.2599    4.0766   -2.7290 H   0  0  0  0  0  0  0  0  0  0  0  0
    2.0510    2.5810   -5.0460 H   0  0  0  0  0  0  0  0  0  0  0  0
    0.8478    6.4777   -3.2351 H   0  0  0  0  0  0  0  0  0  0  0  0
   -1.8743    6.8284   -3.1996 H   0  0  0  0  0  0  0  0  0  0  0  0
   -1.2090    4.4170   -2.1180 H   0  0  0  0  0  0  0  0  0  0  0  0
   -4.1830    1.9320   -1.7740 H   0  0  0  0  0  0  0  0  0  0  0  0
  1  2  2  0
  2  3  1  0
  3  4  2  0
  4  5  1  0
  5  6  1  0
  6  7  1  0
  7  8  1  0
  8  9  1  0
  9 10  1  0
  8 11  1  0
 11 12  1  0
 12 13  1  0
 13 14  2  0
 13 15  1  0
 13 16  1  0
 11 17  1  0
 17 18  1  0
  5 19  1  0
 19 20  2  0
 19 21  1  0
 21  2  1  0
 17  6  1  0
  3 22  1  0
  4 23  1  0
  6 24  1  6
  8 25  1  6
  9 26  1  0
  9 27  1  0
 10 28  1  0
 11 29  1  1
 17 30  1  1
 18 31  1  0
 21 32  1  0
M  CHG  2  15  -1  16  -1
M  END
>  <meeko>  (6) 
{"is_sidechain": [false], "free_energy": -5.179, "intermolecular_energy": -7.267, "internal_energy": -0.151}

$$$$
1w4o_ligand
     RDKit          3D

 32 33  0  0  0  0  0  0  0  0999 V2000
  -10.8300    0.4130   -3.1660 O   0  0  0  0  0  0  0  0  0  0  0  0
   -9.7040    0.8520   -3.3720 C   0  0  0  0  0  0  0  0  0  0  0  0
   -9.0960    0.7900   -4.7060 C   0  0  0  0  0  0  0  0  0  0  0  0
   -7.8620    1.2700   -4.8670 C   0  0  0  0  0  0  0  0  0  0  0  0
   -7.1210    1.8050   -3.8230 N   0  0  0  0  0  0  0  0  0  0  0  0
   -5.8040    2.3930   -4.1560 C   0  0  2  0  0  0  0  0  0  0  0  0
   -4.9220    2.1860   -3.0290 O   0  0  0  0  0  0  0  0  0  0  0  0
   -3.7940    3.0840   -3.2330 C   0  0  2  0  0  0  0  0  0  0  0  0
   -3.4240    3.7530   -1.9100 C   0  0  0  0  0  0  0  0  0  0  0  0
   -4.5240    3.9260   -1.0220 O   0  0  0  0  0  0  0  0  0  0  0  0
   -4.2010    4.0990   -4.3100 C   0  0  1  0  0  0  0  0  0  0  0  0
   -3.5930    3.7070   -5.5340 O   0  0  0  0  0  0  0  0  0  0  0  0
   -2.4260    4.7300   -6.0610 P   0  0  0  0  0  0  0  0  0  0  0  0
   -2.9430    6.0870   -5.6230 O   0  0  0  0  0  0  0  0  0  0  0  0
   -1.1900    4.2270   -5.3390 O   0  0  0  0  0  0  0  0  0  0  0  0
   -2.4130    4.4970   -7.5680 O   0  0  0  0  0  0  0  0  0  0  0  0
   -5.6940    3.8970   -4.4500 C   0  0  2  0  0  0  0  0  0  0  0  0
   -6.4170    4.6870   -3.4860 O   0  0  0  0  0  0  0  0  0  0  0  0
   -7.6700    1.9330   -2.5570 C   0  0  0  0  0  0  0  0  0  0  0  0
   -7.1230    2.4320   -1.5760 O   0  0  0  0  0  0  0  0  0  0  0  0
   -8.9400    1.4320   -2.4040 N   0  0  0  0  0  0  0  0  0  0  0  0
   -9.6459    0.3571   -5.5547 H   0  0  0  0  0  0  0  0  0  0  0  0
   -7.4125    1.2405   -5.8705 H   0  0  0  0  0  0  0  0  0  0  0  0
   -5.5622    1.8836   -5.1005 H   0  0  0  0  0  0  0  0  0  0  0  0
   -2.8992    2.5428   -3.5743 H   0  0  0  0  0  0  0  0  0  0  0  0
   -2.6680    3.1317   -1.4076 H   0  0  0  0  0  0  0  0  0  0  0  0
   -3.0507    4.7584   -2.1547 H   0  0  0  0  0  0  0  0  0  0  0  0
   -4.1700    4.3680   -0.1820 H   0  0  0  0  0  0  0  0  0  0  0  0
   -3.9170    5.1335   -4.0668 H   0  0  0  0  0  0  0  0  0  0  0  0
   -6.1149    4.1995   -5.4202 H   0  0  0  0  0  0  0  0  0  0  0  0
   -7.1620    4.1100   -3.2290 H   0  0  0  0  0  0  0  0  0  0  0  0
   -9.3330    1.5040   -1.4810 H   0  0  0  0  0  0  0  0  0  0  0  0
  1  2  2  0
  2  3  1  0
  3  4  2  0
  4  5  1  0
  5  6  1  0
  6  7  1  0
  7  8  1  0
  8  9  1  0
  9 10  1  0
  8 11  1  0
 11 12  1  0
 12 13  1  0
 13 14  2  0
 13 15  1  0
 13 16  1  0
 11 17  1  0
 17 18  1  0
  5 19  1  0
 19 20  2  0
 19 21  1  0
 21  2  1  0
 17  6  1  0
  3 22  1  0
  4 23  1  0
  6 24  1  6
  8 25  1  6
  9 26  1  0
  9 27  1  0
 10 28  1  0
 11 29  1  1
 17 30  1  6
 18 31  1  0
 21 32  1  0
M  CHG  2  15  -1  16  -1
M  END
>  <meeko>  (7) 
{"is_sidechain": [false], "free_energy": -5.154, "intermolecular_energy": -6.717, "internal_energy": -0.668}

$$$$
1w4o_ligand
     RDKit          3D

 32 33  0  0  0  0  0  0  0  0999 V2000
   -6.2790    2.1920   -2.8360 O   0  0  0  0  0  0  0  0  0  0  0  0
   -5.2390    2.8010   -3.0660 C   0  0  0  0  0  0  0  0  0  0  0  0
   -5.1400    3.7400   -4.1880 C   0  0  0  0  0  0  0  0  0  0  0  0
   -3.9790    4.3620   -4.3990 C   0  0  0  0  0  0  0  0  0  0  0  0
   -2.8570    4.1440   -3.6120 N   0  0  0  0  0  0  0  0  0  0  0  0
   -1.6610    4.9730   -3.8900 C   0  0  2  0  0  0  0  0  0  0  0  0
   -2.0920    6.1610   -4.5920 O   0  0  0  0  0  0  0  0  0  0  0  0
   -0.8880    6.7440   -5.1680 C   0  0  2  0  0  0  0  0  0  0  0  0
   -1.1730    7.2090   -6.5950 C   0  0  0  0  0  0  0  0  0  0  0  0
   -2.0220    6.3330   -7.3300 O   0  0  0  0  0  0  0  0  0  0  0  0
    0.2150    5.6780   -5.1080 C   0  0  1  0  0  0  0  0  0  0  0  0
    1.0690    5.9920   -4.0150 O   0  0  0  0  0  0  0  0  0  0  0  0
    2.6680    5.9390   -4.3770 P   0  0  0  0  0  0  0  0  0  0  0  0
    3.2500    7.0260   -3.4950 O   0  0  0  0  0  0  0  0  0  0  0  0
    3.0450    4.5160   -4.0120 O   0  0  0  0  0  0  0  0  0  0  0  0
    2.6960    6.2340   -5.8730 O   0  0  0  0  0  0  0  0  0  0  0  0
   -0.5300    4.4080   -4.7620 C   0  0  2  0  0  0  0  0  0  0  0  0
   -1.0360    3.7640   -5.9470 O   0  0  0  0  0  0  0  0  0  0  0  0
   -2.9150    3.3070   -2.5100 C   0  0  0  0  0  0  0  0  0  0  0  0
   -1.9980    3.0790   -1.7230 O   0  0  0  0  0  0  0  0  0  0  0  0
   -4.1140    2.6690   -2.3080 N   0  0  0  0  0  0  0  0  0  0  0  0
   -6.0046    3.9274   -4.8417 H   0  0  0  0  0  0  0  0  0  0  0  0
   -3.9080    5.0775   -5.2315 H   0  0  0  0  0  0  0  0  0  0  0  0
   -1.2324    5.0957   -2.8844 H   0  0  0  0  0  0  0  0  0  0  0  0
   -0.5573    7.6308   -4.6075 H   0  0  0  0  0  0  0  0  0  0  0  0
   -1.6534    8.1974   -6.5475 H   0  0  0  0  0  0  0  0  0  0  0  0
   -0.2074    7.2329   -7.1213 H   0  0  0  0  0  0  0  0  0  0  0  0
   -1.4530    5.5600   -7.6530 H   0  0  0  0  0  0  0  0  0  0  0  0
    0.8048    5.6050   -6.0336 H   0  0  0  0  0  0  0  0  0  0  0  0
    0.0761    3.6334   -4.2694 H   0  0  0  0  0  0  0  0  0  0  0  0
   -0.2300    3.4360   -6.3910 H   0  0  0  0  0  0  0  0  0  0  0  0
   -4.1540    2.0450   -1.5200 H   0  0  0  0  0  0  0  0  0  0  0  0
  1  2  2  0
  2  3  1  0
  3  4  2  0
  4  5  1  0
  5  6  1  0
  6  7  1  0
  7  8  1  0
  8  9  1  0
  9 10  1  0
  8 11  1  0
 11 12  1  0
 12 13  1  0
 13 14  2  0
 13 15  1  0
 13 16  1  0
 11 17  1  0
 17 18  1  0
  5 19  1  0
 19 20  2  0
 19 21  1  0
 21  2  1  0
 17  6  1  0
  3 22  1  0
  4 23  1  0
  6 24  1  1
  8 25  1  1
  9 26  1  0
  9 27  1  0
 10 28  1  0
 11 29  1  6
 17 30  1  1
 18 31  1  0
 21 32  1  0
M  CHG  2  15  -1  16  -1
M  END
>  <meeko>  (8) 
{"is_sidechain": [false], "free_energy": -5.141, "intermolecular_energy": -6.499, "internal_energy": -0.87}

$$$$
1w4o_ligand
     RDKit          3D

 32 33  0  0  0  0  0  0  0  0999 V2000
   -0.3810    6.1230   -9.9310 O   0  0  0  0  0  0  0  0  0  0  0  0
   -1.0230    5.8350   -8.9270 C   0  0  0  0  0  0  0  0  0  0  0  0
   -0.4060    5.8640   -7.5960 C   0  0  0  0  0  0  0  0  0  0  0  0
   -1.1490    5.5270   -6.5410 C   0  0  0  0  0  0  0  0  0  0  0  0
   -2.4740    5.1310   -6.6510 N   0  0  0  0  0  0  0  0  0  0  0  0
   -3.2150    4.8790   -5.3940 C   0  0  2  0  0  0  0  0  0  0  0  0
   -2.3080    5.0890   -4.2890 O   0  0  0  0  0  0  0  0  0  0  0  0
   -2.9430    4.4790   -3.1280 C   0  0  2  0  0  0  0  0  0  0  0  0
   -1.9020    3.7070   -2.3190 C   0  0  0  0  0  0  0  0  0  0  0  0
   -2.4550    2.7020   -1.4740 O   0  0  0  0  0  0  0  0  0  0  0  0
   -4.0730    3.5760   -3.6420 C   0  0  1  0  0  0  0  0  0  0  0  0
   -5.3030    4.2640   -3.4520 O   0  0  0  0  0  0  0  0  0  0  0  0
   -6.1910    3.7130   -2.1880 P   0  0  0  0  0  0  0  0  0  0  0  0
   -5.3020    4.0100   -0.9960 O   0  0  0  0  0  0  0  0  0  0  0  0
   -7.4620    4.5350   -2.2880 O   0  0  0  0  0  0  0  0  0  0  0  0
   -6.3710    2.2330   -2.5090 O   0  0  0  0  0  0  0  0  0  0  0  0
   -3.8170    3.4910   -5.1310 C   0  0  2  0  0  0  0  0  0  0  0  0
   -2.8860    2.4350   -5.4370 O   0  0  0  0  0  0  0  0  0  0  0  0
   -3.1160    5.1370   -7.8790 C   0  0  0  0  0  0  0  0  0  0  0  0
   -4.2940    4.8500   -8.0830 O   0  0  0  0  0  0  0  0  0  0  0  0
   -2.3390    5.4820   -8.9570 N   0  0  0  0  0  0  0  0  0  0  0  0
    0.6468    6.1574   -7.4711 H   0  0  0  0  0  0  0  0  0  0  0  0
   -0.6918    5.5646   -5.5412 H   0  0  0  0  0  0  0  0  0  0  0  0
   -4.0706    5.5629   -5.4953 H   0  0  0  0  0  0  0  0  0  0  0  0
   -3.3701    5.2355   -2.4532 H   0  0  0  0  0  0  0  0  0  0  0  0
   -1.2062    3.2244   -3.0212 H   0  0  0  0  0  0  0  0  0  0  0  0
   -1.4034    4.4359   -1.6632 H   0  0  0  0  0  0  0  0  0  0  0  0
   -2.1580    2.9040   -0.5270 H   0  0  0  0  0  0  0  0  0  0  0  0
   -4.1120    2.5957   -3.1445 H   0  0  0  0  0  0  0  0  0  0  0  0
   -4.7019    3.2598   -5.7422 H   0  0  0  0  0  0  0  0  0  0  0  0
   -3.4560    1.6470   -5.5320 H   0  0  0  0  0  0  0  0  0  0  0  0
   -2.7970    5.4680   -9.8530 H   0  0  0  0  0  0  0  0  0  0  0  0
  1  2  2  0
  2  3  1  0
  3  4  2  0
  4  5  1  0
  5  6  1  0
  6  7  1  0
  7  8  1  0
  8  9  1  0
  9 10  1  0
  8 11  1  0
 11 12  1  0
 12 13  1  0
 13 14  2  0
 13 15  1  0
 13 16  1  0
 11 17  1  0
 17 18  1  0
  5 19  1  0
 19 20  2  0
 19 21  1  0
 21  2  1  0
 17  6  1  0
  3 22  1  0
  4 23  1  0
  6 24  1  1
  8 25  1  1
  9 26  1  0
  9 27  1  0
 10 28  1  0
 11 29  1  1
 17 30  1  6
 18 31  1  0
 21 32  1  0
M  CHG  2  15  -1  16  -1
M  END
>  <meeko>  (9) 
{"is_sidechain": [false], "free_energy": -4.89, "intermolecular_energy": -6.373, "internal_energy": -0.671}

$$$$
