
     RDKit          3D

 36 37  0  0  0  0  0  0  0  0999 V2000
  -14.0550    5.1480    3.5360 C   0  0  0  0  0  0  0  0  0  0  0  0
  -13.0500    6.0700    2.8510 C   0  0  2  0  0  0  0  0  0  0  0  0
  -13.6720    6.7220    1.6100 C   0  0  0  0  0  0  0  0  0  0  0  0
  -11.8390    5.2470    2.4610 C   0  0  0  0  0  0  0  0  0  0  0  0
  -10.6370    6.1080    2.0670 C   0  0  2  0  0  0  0  0  0  0  0  0
   -9.5100    5.2640    1.7260 N   0  0  0  0  0  0  0  0  0  0  0  0
   -8.4520    5.8590    0.6150 P   0  0  0  0  0  0  0  0  0  0  0  0
   -8.1720    7.2790    0.9200 O   0  0  0  0  0  0  0  0  0  0  0  0
   -9.0200    5.6380   -0.7280 O   0  0  0  0  0  0  0  0  0  0  0  0
   -6.9870    4.8930    0.7330 C   0  0  2  0  0  0  0  0  0  0  0  0
   -6.3660    4.8390    2.1350 C   0  0  0  0  0  0  0  0  0  0  0  0
   -5.2120    3.8480    2.1730 C   0  0  0  0  0  0  0  0  0  0  0  0
   -5.4380    2.5720    2.6780 C   0  0  0  0  0  0  0  0  0  0  0  0
   -4.3850    1.6490    2.6990 C   0  0  0  0  0  0  0  0  0  0  0  0
   -3.1250    2.0170    2.2210 C   0  0  0  0  0  0  0  0  0  0  0  0
   -2.9180    3.3120    1.7420 C   0  0  0  0  0  0  0  0  0  0  0  0
   -3.9580    4.2330    1.7170 C   0  0  0  0  0  0  0  0  0  0  0  0
   -6.0740    5.4740   -0.2110 N   0  0  0  0  0  0  0  0  0  0  0  0
   -5.8810    4.9690   -1.4700 C   0  0  0  0  0  0  0  0  0  0  0  0
   -6.4290    3.9760   -1.8940 O   0  0  0  0  0  0  0  0  0  0  0  0
   -4.9850    5.7010   -2.1950 O   0  0  0  0  0  0  0  0  0  0  0  0
   -4.5940    5.2200   -3.4840 C   0  0  0  0  0  0  0  0  0  0  0  0
   -3.0920    5.0210   -3.4570 C   0  0  0  0  0  0  0  0  0  0  0  0
   -2.5830    3.7650   -3.0910 C   0  0  0  0  0  0  0  0  0  0  0  0
   -1.1990    3.5610   -3.0280 C   0  0  0  0  0  0  0  0  0  0  0  0
   -0.3340    4.6190   -3.3490 C   0  0  0  0  0  0  0  0  0  0  0  0
   -0.8460    5.8690   -3.7300 C   0  0  0  0  0  0  0  0  0  0  0  0
   -2.2450    6.0600   -3.7890 C   0  0  0  0  0  0  0  0  0  0  0  0
  -10.2950    7.0220    3.2520 C   0  0  0  0  0  0  0  0  0  0  0  0
  -10.6560    8.2000    3.2230 O   0  0  0  0  0  0  0  0  0  0  0  0
   -9.6450    6.4510    4.2590 N   0  0  0  0  0  0  0  0  0  0  0  0
   -9.3410    7.1770    5.4830 C   0  0  1  0  0  0  0  0  0  0  0  0
  -10.2360    6.6410    6.6100 C   0  0  0  0  0  0  0  0  0  0  0  0
   -7.8580    6.9950    5.8540 C   0  0  0  0  0  0  0  0  0  0  0  0
   -7.2140    6.1030    5.3240 O   0  0  0  0  0  0  0  0  0  0  0  0
   -7.3850    7.7700    6.7150 O   0  0  0  0  0  0  0  0  0  0  0  0
  2  1  1  6
  3  2  1  0
  4  2  1  0
  5  4  1  1
  6  5  1  0
  7  6  1  0
  8  7  2  0
  9  7  1  0
 10  7  1  0
 10 11  1  1
 12 11  1  0
 13 12  2  0
 14 13  1  0
 15 14  2  0
 16 15  1  0
 17 16  2  0
 17 12  1  0
 18 10  1  0
 19 18  1  0
 20 19  2  0
 21 19  1  0
 22 21  1  0
 23 22  1  0
 24 23  2  0
 25 24  1  0
 26 25  2  0
 27 26  1  0
 28 23  1  0
 28 27  2  0
 29  5  1  0
 30 29  2  0
 31 29  1  0
 32 31  1  0
 32 33  1  1
 34 32  1  0
 35 34  2  0
 36 34  1  0
M  CHG  2   9  -1  36  -1
M  END
$$$$
