2vkm_ligand
     RDKit          3D

 90 93  0  0  0  0  0  0  0  0999 V2000
   -0.4690    5.4270  -13.3260 C   0  0  0  0  0  0  0  0  0  0  0  0
   -1.2710    5.8120  -12.2140 O   0  0  0  0  0  0  0  0  0  0  0  0
   -0.9630    5.2560  -11.0050 C   0  0  0  0  0  0  0  0  0  0  0  0
   -1.2050    5.8190   -9.7540 C   0  0  0  0  0  0  0  0  0  0  0  0
   -0.8270    5.1360   -8.5960 C   0  0  0  0  0  0  0  0  0  0  0  0
   -0.2030    3.8910   -8.6800 C   0  0  0  0  0  0  0  0  0  0  0  0
    0.0400    3.3090   -9.9310 C   0  0  0  0  0  0  0  0  0  0  0  0
    0.7500    1.9930  -10.0430 C   0  0  0  0  0  0  0  0  0  0  0  0
    0.4750    1.1470   -8.8590 N   0  0  0  0  0  0  0  0  0  0  0  0
    1.5880    0.2380   -8.4270 C   0  0  0  0  0  0  0  0  0  0  0  0
    2.4630    1.0360   -7.4490 C   0  0  1  0  0  0  0  0  0  0  0  0
    2.1410    0.5850   -6.1190 O   0  0  0  0  0  0  0  0  0  0  0  0
    3.9830    0.9110   -7.7500 C   0  0  2  0  0  0  0  0  0  0  0  0
    4.5120   -0.5210   -7.4880 C   0  0  0  0  0  0  0  0  0  0  0  0
    5.9770   -0.6870   -7.8230 C   0  0  0  0  0  0  0  0  0  0  0  0
    6.4520   -0.3490   -9.0980 C   0  0  0  0  0  0  0  0  0  0  0  0
    7.7990   -0.5190   -9.4200 C   0  0  0  0  0  0  0  0  0  0  0  0
    8.6850   -1.0220   -8.4700 C   0  0  0  0  0  0  0  0  0  0  0  0
    8.2270   -1.3520   -7.1970 C   0  0  0  0  0  0  0  0  0  0  0  0
    6.8800   -1.1840   -6.8720 C   0  0  0  0  0  0  0  0  0  0  0  0
    4.7380    1.8930   -6.9540 N   0  0  0  0  0  0  0  0  0  0  0  0
    5.2630    3.0160   -7.5730 C   0  0  0  0  0  0  0  0  0  0  0  0
    4.9900    3.2920   -8.7380 O   0  0  0  0  0  0  0  0  0  0  0  0
    6.1910    3.8730   -6.7810 C   0  0  0  0  0  0  0  0  0  0  0  0
    7.2730    3.3480   -6.0670 C   0  0  0  0  0  0  0  0  0  0  0  0
    8.1150    4.1940   -5.3280 C   0  0  0  0  0  0  0  0  0  0  0  0
    9.2460    3.5710   -4.5880 C   0  0  0  0  0  0  0  0  0  0  0  0
    9.0340    2.5740   -3.9050 O   0  0  0  0  0  0  0  0  0  0  0  0
   10.4860    4.1430   -4.7470 N   0  0  0  0  0  0  0  0  0  0  0  0
   11.6760    3.5770   -4.1260 C   0  0  2  0  0  0  0  0  0  0  0  0
   12.3210    4.5630   -3.1470 C   0  0  0  0  0  0  0  0  0  0  0  0
   12.6380    3.1230   -5.2110 C   0  0  0  0  0  0  0  0  0  0  0  0
   13.9920    2.8710   -4.9390 C   0  0  0  0  0  0  0  0  0  0  0  0
   14.8630    2.4800   -5.9590 C   0  0  0  0  0  0  0  0  0  0  0  0
   14.3940    2.3440   -7.2630 C   0  0  0  0  0  0  0  0  0  0  0  0
   13.0560    2.6010   -7.5500 C   0  0  0  0  0  0  0  0  0  0  0  0
   12.1840    2.9920   -6.5330 C   0  0  0  0  0  0  0  0  0  0  0  0
    7.8500    5.5660   -5.2750 C   0  0  0  0  0  0  0  0  0  0  0  0
    6.7570    6.0890   -5.9690 C   0  0  0  0  0  0  0  0  0  0  0  0
    6.5170    7.5050   -5.8690 N   0  0  0  0  0  0  0  0  0  0  0  0
    6.4130    8.0240   -4.4810 C   0  0  0  0  0  0  0  0  0  0  0  0
    7.4850    8.5000   -6.8870 S   0  0  0  0  0  0  0  0  0  0  0  0
    6.9310   10.1260   -6.4200 C   0  0  0  0  0  0  0  0  0  0  0  0
    8.8590    8.3720   -6.4470 O   0  0  0  0  0  0  0  0  0  0  0  0
    7.1250    8.2610   -8.2690 O   0  0  0  0  0  0  0  0  0  0  0  0
    5.9370    5.2490   -6.7270 C   0  0  0  0  0  0  0  0  0  0  0  0
   -0.3400    4.0070  -11.0870 C   0  0  0  0  0  0  0  0  0  0  0  0
    0.4676    4.9774  -12.9644 H   0  0  0  0  0  0  0  0  0  0  0  0
   -1.0162    4.6934  -13.9363 H   0  0  0  0  0  0  0  0  0  0  0  0
   -0.2388    6.3128  -13.9363 H   0  0  0  0  0  0  0  0  0  0  0  0
   -1.6938    6.8015   -9.6783 H   0  0  0  0  0  0  0  0  0  0  0  0
   -1.0227    5.5830   -7.6102 H   0  0  0  0  0  0  0  0  0  0  0  0
    0.0988    3.3653   -7.7621 H   0  0  0  0  0  0  0  0  0  0  0  0
    0.4035    1.4717  -10.9475 H   0  0  0  0  0  0  0  0  0  0  0  0
    1.8326    2.1792  -10.1007 H   0  0  0  0  0  0  0  0  0  0  0  0
   -0.3390    0.5360   -9.0450 H   0  0  0  0  0  0  0  0  0  0  0  0
    0.1740    1.7390   -8.0730 H   0  0  0  0  0  0  0  0  0  0  0  0
    1.1772   -0.6517   -7.9273 H   0  0  0  0  0  0  0  0  0  0  0  0
    2.1756   -0.1030   -9.2921 H   0  0  0  0  0  0  0  0  0  0  0  0
    2.2461    2.1089   -7.5579 H   0  0  0  0  0  0  0  0  0  0  0  0
    2.8400    0.9510   -5.5360 H   0  0  0  0  0  0  0  0  0  0  0  0
    4.1292    1.1208   -8.8199 H   0  0  0  0  0  0  0  0  0  0  0  0
    4.3682   -0.7572   -6.4233 H   0  0  0  0  0  0  0  0  0  0  0  0
    3.9484   -1.2018   -8.1429 H   0  0  0  0  0  0  0  0  0  0  0  0
    5.7575    0.0533   -9.8503 H   0  0  0  0  0  0  0  0  0  0  0  0
    8.1615   -0.2557  -10.4246 H   0  0  0  0  0  0  0  0  0  0  0  0
    9.7462   -1.1585   -8.7253 H   0  0  0  0  0  0  0  0  0  0  0  0
    8.9280   -1.7457   -6.4463 H   0  0  0  0  0  0  0  0  0  0  0  0
    6.5245   -1.4430   -5.8638 H   0  0  0  0  0  0  0  0  0  0  0  0
    5.2830    1.5210   -6.1820 H   0  0  0  0  0  0  0  0  0  0  0  0
    7.4655    2.2651   -6.0846 H   0  0  0  0  0  0  0  0  0  0  0  0
   10.6410    4.8210   -5.4800 H   0  0  0  0  0  0  0  0  0  0  0  0
   11.3921    2.6996   -3.5263 H   0  0  0  0  0  0  0  0  0  0  0  0
   12.1126    4.2444   -2.1150 H   0  0  0  0  0  0  0  0  0  0  0  0
   13.4084    4.5847   -3.3115 H   0  0  0  0  0  0  0  0  0  0  0  0
   11.9052    5.5680   -3.3115 H   0  0  0  0  0  0  0  0  0  0  0  0
   14.3710    2.9825   -3.9124 H   0  0  0  0  0  0  0  0  0  0  0  0
   15.9204    2.2794   -5.7317 H   0  0  0  0  0  0  0  0  0  0  0  0
   15.0796    2.0339   -8.0653 H   0  0  0  0  0  0  0  0  0  0  0  0
   12.6855    2.4956   -8.5804 H   0  0  0  0  0  0  0  0  0  0  0  0
   11.1300    3.1997   -6.7697 H   0  0  0  0  0  0  0  0  0  0  0  0
    8.5006    6.2313   -4.6884 H   0  0  0  0  0  0  0  0  0  0  0  0
    6.5777    7.2020   -3.7689 H   0  0  0  0  0  0  0  0  0  0  0  0
    7.1728    8.8036   -4.3232 H   0  0  0  0  0  0  0  0  0  0  0  0
    5.4115    8.4507   -4.3232 H   0  0  0  0  0  0  0  0  0  0  0  0
    6.9046   10.2034   -5.3230 H   0  0  0  0  0  0  0  0  0  0  0  0
    7.6232   10.8793   -6.8242 H   0  0  0  0  0  0  0  0  0  0  0  0
    5.9229   10.3000   -6.8242 H   0  0  0  0  0  0  0  0  0  0  0  0
    5.0875    5.6709   -7.2842 H   0  0  0  0  0  0  0  0  0  0  0  0
   -0.1445    3.5641  -12.0748 H   0  0  0  0  0  0  0  0  0  0  0  0
  1  2  1  0
  2  3  1  0
  3  4  2  0
  4  5  1  0
  5  6  2  0
  6  7  1  0
  7  8  1  0
  8  9  1  0
  9 10  1  0
 10 11  1  0
 11 12  1  0
 11 13  1  0
 13 14  1  0
 14 15  1  0
 15 16  2  0
 16 17  1  0
 17 18  2  0
 18 19  1  0
 19 20  2  0
 13 21  1  0
 21 22  1  0
 22 23  2  0
 22 24  1  0
 24 25  2  0
 25 26  1  0
 26 27  1  0
 27 28  2  0
 27 29  1  0
 29 30  1  0
 30 31  1  0
 30 32  1  0
 32 33  2  0
 33 34  1  0
 34 35  2  0
 35 36  1  0
 36 37  2  0
 26 38  2  0
 38 39  1  0
 39 40  1  0
 40 41  1  0
 40 42  1  0
 42 43  1  0
 42 44  2  0
 42 45  2  0
 39 46  2  0
  7 47  2  0
 47  3  1  0
 20 15  1  0
 46 24  1  0
 37 32  1  0
  1 48  1  0
  1 49  1  0
  1 50  1  0
  4 51  1  0
  5 52  1  0
  6 53  1  0
  8 54  1  0
  8 55  1  0
  9 56  1  0
  9 57  1  0
 10 58  1  0
 10 59  1  0
 11 60  1  1
 12 61  1  0
 13 62  1  6
 14 63  1  0
 14 64  1  0
 16 65  1  0
 17 66  1  0
 18 67  1  0
 19 68  1  0
 20 69  1  0
 21 70  1  0
 25 71  1  0
 29 72  1  0
 30 73  1  1
 31 74  1  0
 31 75  1  0
 31 76  1  0
 33 77  1  0
 34 78  1  0
 35 79  1  0
 36 80  1  0
 37 81  1  0
 38 82  1  0
 41 83  1  0
 41 84  1  0
 41 85  1  0
 43 86  1  0
 43 87  1  0
 43 88  1  0
 46 89  1  0
 47 90  1  0
M  CHG  1   9   1
M  END
>  <meeko>  (1) 
{"is_sidechain": [false], "free_energy": -9.647, "intermolecular_energy": -18.388, "internal_energy": -2.377}

$$$$
2vkm_ligand
     RDKit          3D

 90 93  0  0  0  0  0  0  0  0999 V2000
    8.1280   -0.7410   -4.1160 C   0  0  0  0  0  0  0  0  0  0  0  0
    8.4530   -0.7650   -5.5020 O   0  0  0  0  0  0  0  0  0  0  0  0
    8.5360    0.4400   -6.1400 C   0  0  0  0  0  0  0  0  0  0  0  0
    9.4520    0.7860   -7.1300 C   0  0  0  0  0  0  0  0  0  0  0  0
    9.4260    2.0650   -7.6910 C   0  0  0  0  0  0  0  0  0  0  0  0
    8.4870    3.0050   -7.2650 C   0  0  0  0  0  0  0  0  0  0  0  0
    7.5550    2.6690   -6.2750 C   0  0  0  0  0  0  0  0  0  0  0  0
    6.5690    3.6810   -5.7710 C   0  0  0  0  0  0  0  0  0  0  0  0
    5.2620    3.5210   -6.4490 N   0  0  0  0  0  0  0  0  0  0  0  0
    4.7640    4.7160   -7.2080 C   0  0  0  0  0  0  0  0  0  0  0  0
    4.8700    4.3750   -8.7010 C   0  0  1  0  0  0  0  0  0  0  0  0
    6.1950    4.7410   -9.1320 O   0  0  0  0  0  0  0  0  0  0  0  0
    4.5510    2.8850   -9.0100 C   0  0  2  0  0  0  0  0  0  0  0  0
    5.8100    2.1030   -9.4590 C   0  0  0  0  0  0  0  0  0  0  0  0
    5.8680    0.6970   -8.9060 C   0  0  0  0  0  0  0  0  0  0  0  0
    4.9490    0.2830   -7.9320 C   0  0  0  0  0  0  0  0  0  0  0  0
    5.0090   -1.0070   -7.4030 C   0  0  0  0  0  0  0  0  0  0  0  0
    5.9850   -1.8970   -7.8460 C   0  0  0  0  0  0  0  0  0  0  0  0
    6.8980   -1.5000   -8.8200 C   0  0  0  0  0  0  0  0  0  0  0  0
    6.8410   -0.2110   -9.3510 C   0  0  0  0  0  0  0  0  0  0  0  0
    3.4960    2.7960  -10.0320 N   0  0  0  0  0  0  0  0  0  0  0  0
    2.2520    2.2930   -9.6880 C   0  0  0  0  0  0  0  0  0  0  0  0
    1.9560    2.0580   -8.5200 O   0  0  0  0  0  0  0  0  0  0  0  0
    1.2850    2.0260  -10.7910 C   0  0  0  0  0  0  0  0  0  0  0  0
    0.8270    3.0310  -11.6500 C   0  0  0  0  0  0  0  0  0  0  0  0
   -0.0900    2.7320  -12.6690 C   0  0  0  0  0  0  0  0  0  0  0  0
   -0.5390    3.8490  -13.5450 C   0  0  0  0  0  0  0  0  0  0  0  0
    0.3030    4.5580  -14.0880 O   0  0  0  0  0  0  0  0  0  0  0  0
   -1.8940    3.9980  -13.7210 N   0  0  0  0  0  0  0  0  0  0  0  0
   -2.4450    5.0120  -14.6100 C   0  0  2  0  0  0  0  0  0  0  0  0
   -2.3780    6.4060  -13.9800 C   0  0  0  0  0  0  0  0  0  0  0  0
   -3.8600    4.6190  -15.0000 C   0  0  0  0  0  0  0  0  0  0  0  0
   -4.1180    3.7820  -16.0980 C   0  0  0  0  0  0  0  0  0  0  0  0
   -5.4290    3.4550  -16.4530 C   0  0  0  0  0  0  0  0  0  0  0  0
   -6.4980    3.9680  -15.7220 C   0  0  0  0  0  0  0  0  0  0  0  0
   -6.2590    4.8070  -14.6380 C   0  0  0  0  0  0  0  0  0  0  0  0
   -4.9490    5.1340  -14.2800 C   0  0  0  0  0  0  0  0  0  0  0  0
   -0.5790    1.4300  -12.8060 C   0  0  0  0  0  0  0  0  0  0  0  0
   -0.1410    0.4290  -11.9360 C   0  0  0  0  0  0  0  0  0  0  0  0
   -0.6870   -0.8920  -12.1070 N   0  0  0  0  0  0  0  0  0  0  0  0
   -2.1690   -0.9480  -12.2000 C   0  0  0  0  0  0  0  0  0  0  0  0
    0.0970   -1.8770  -13.2810 S   0  0  0  0  0  0  0  0  0  0  0  0
   -1.0140   -1.7260  -14.6640 C   0  0  0  0  0  0  0  0  0  0  0  0
    1.3320   -1.2190  -13.6500 O   0  0  0  0  0  0  0  0  0  0  0  0
    0.0960   -3.2510  -12.8260 O   0  0  0  0  0  0  0  0  0  0  0  0
    0.7940    0.7230  -10.9400 C   0  0  0  0  0  0  0  0  0  0  0  0
    7.5950    1.3830   -5.7160 C   0  0  0  0  0  0  0  0  0  0  0  0
    9.0511   -0.8092   -3.5217 H   0  0  0  0  0  0  0  0  0  0  0  0
    7.6070    0.1981   -3.8778 H   0  0  0  0  0  0  0  0  0  0  0  0
    7.4747   -1.5934   -3.8778 H   0  0  0  0  0  0  0  0  0  0  0  0
   10.1967    0.0516   -7.4706 H   0  0  0  0  0  0  0  0  0  0  0  0
   10.1507    2.3329   -8.4739 H   0  0  0  0  0  0  0  0  0  0  0  0
    8.4787    4.0120   -7.7076 H   0  0  0  0  0  0  0  0  0  0  0  0
    6.4331    3.5445   -4.6880 H   0  0  0  0  0  0  0  0  0  0  0  0
    6.9565    4.6884   -5.9830 H   0  0  0  0  0  0  0  0  0  0  0  0
    4.5290    3.2970   -5.7530 H   0  0  0  0  0  0  0  0  0  0  0  0
    5.2890    2.6960   -7.0630 H   0  0  0  0  0  0  0  0  0  0  0  0
    3.7172    4.9237   -6.9413 H   0  0  0  0  0  0  0  0  0  0  0  0
    5.3575    5.6101   -6.9663 H   0  0  0  0  0  0  0  0  0  0  0  0
    4.1107    4.9421   -9.2593 H   0  0  0  0  0  0  0  0  0  0  0  0
    6.1700    4.7290  -10.1130 H   0  0  0  0  0  0  0  0  0  0  0  0
    4.1942    2.4196   -8.0793 H   0  0  0  0  0  0  0  0  0  0  0  0
    5.8130    2.0468  -10.5576 H   0  0  0  0  0  0  0  0  0  0  0  0
    6.6857    2.6431   -9.0699 H   0  0  0  0  0  0  0  0  0  0  0  0
    4.1741    0.9807   -7.5817 H   0  0  0  0  0  0  0  0  0  0  0  0
    4.2856   -1.3211   -6.6362 H   0  0  0  0  0  0  0  0  0  0  0  0
    6.0345   -2.9128   -7.4267 H   0  0  0  0  0  0  0  0  0  0  0  0
    7.6661   -2.2046   -9.1716 H   0  0  0  0  0  0  0  0  0  0  0  0
    7.5627    0.0951  -10.1226 H   0  0  0  0  0  0  0  0  0  0  0  0
    3.8050    2.5960  -10.9800 H   0  0  0  0  0  0  0  0  0  0  0  0
    1.1883    4.0625  -11.5256 H   0  0  0  0  0  0  0  0  0  0  0  0
   -2.5260    3.2660  -13.4290 H   0  0  0  0  0  0  0  0  0  0  0  0
   -1.8362    5.0650  -15.5246 H   0  0  0  0  0  0  0  0  0  0  0  0
   -2.3824    6.3136  -12.8839 H   0  0  0  0  0  0  0  0  0  0  0  0
   -1.4546    6.9098  -14.3018 H   0  0  0  0  0  0  0  0  0  0  0  0
   -3.2488    6.9960  -14.3018 H   0  0  0  0  0  0  0  0  0  0  0  0
   -3.2789    3.3797  -16.6846 H   0  0  0  0  0  0  0  0  0  0  0  0
   -5.6172    2.7920  -17.3103 H   0  0  0  0  0  0  0  0  0  0  0  0
   -7.5302    3.7101  -16.0014 H   0  0  0  0  0  0  0  0  0  0  0  0
   -7.1033    5.2135  -14.0619 H   0  0  0  0  0  0  0  0  0  0  0  0
   -4.7691    5.8021  -13.4249 H   0  0  0  0  0  0  0  0  0  0  0  0
   -1.3066    1.1943  -13.5966 H   0  0  0  0  0  0  0  0  0  0  0  0
   -2.5995   -0.9643  -11.1879 H   0  0  0  0  0  0  0  0  0  0  0  0
   -2.5362   -0.0631  -12.7405 H   0  0  0  0  0  0  0  0  0  0  0  0
   -2.4683   -1.8581  -12.7405 H   0  0  0  0  0  0  0  0  0  0  0  0
   -2.0411   -1.5864  -14.2957 H   0  0  0  0  0  0  0  0  0  0  0  0
   -0.7227   -0.8592  -15.2754 H   0  0  0  0  0  0  0  0  0  0  0  0
   -0.9646   -2.6391  -15.2754 H   0  0  0  0  0  0  0  0  0  0  0  0
    1.1465   -0.0740  -10.2688 H   0  0  0  0  0  0  0  0  0  0  0  0
    6.8738    1.1120   -4.9308 H   0  0  0  0  0  0  0  0  0  0  0  0
  1  2  1  0
  2  3  1  0
  3  4  2  0
  4  5  1  0
  5  6  2  0
  6  7  1  0
  7  8  1  0
  8  9  1  0
  9 10  1  0
 10 11  1  0
 11 12  1  0
 11 13  1  0
 13 14  1  0
 14 15  1  0
 15 16  2  0
 16 17  1  0
 17 18  2  0
 18 19  1  0
 19 20  2  0
 13 21  1  0
 21 22  1  0
 22 23  2  0
 22 24  1  0
 24 25  2  0
 25 26  1  0
 26 27  1  0
 27 28  2  0
 27 29  1  0
 29 30  1  0
 30 31  1  0
 30 32  1  0
 32 33  2  0
 33 34  1  0
 34 35  2  0
 35 36  1  0
 36 37  2  0
 26 38  2  0
 38 39  1  0
 39 40  1  0
 40 41  1  0
 40 42  1  0
 42 43  1  0
 42 44  2  0
 42 45  2  0
 39 46  2  0
  7 47  2  0
 47  3  1  0
 20 15  1  0
 46 24  1  0
 37 32  1  0
  1 48  1  0
  1 49  1  0
  1 50  1  0
  4 51  1  0
  5 52  1  0
  6 53  1  0
  8 54  1  0
  8 55  1  0
  9 56  1  0
  9 57  1  0
 10 58  1  0
 10 59  1  0
 11 60  1  6
 12 61  1  0
 13 62  1  1
 14 63  1  0
 14 64  1  0
 16 65  1  0
 17 66  1  0
 18 67  1  0
 19 68  1  0
 20 69  1  0
 21 70  1  0
 25 71  1  0
 29 72  1  0
 30 73  1  6
 31 74  1  0
 31 75  1  0
 31 76  1  0
 33 77  1  0
 34 78  1  0
 35 79  1  0
 36 80  1  0
 37 81  1  0
 38 82  1  0
 41 83  1  0
 41 84  1  0
 41 85  1  0
 43 86  1  0
 43 87  1  0
 43 88  1  0
 46 89  1  0
 47 90  1  0
M  CHG  1   9   1
M  END
>  <meeko>  (2) 
{"is_sidechain": [false], "free_energy": -9.645, "intermolecular_energy": -16.883, "internal_energy": -3.878}

$$$$
2vkm_ligand
     RDKit          3D

 90 93  0  0  0  0  0  0  0  0999 V2000
   -0.6900   -2.6690  -13.2990 C   0  0  0  0  0  0  0  0  0  0  0  0
   -1.3530   -1.5570  -12.7060 O   0  0  0  0  0  0  0  0  0  0  0  0
   -0.7560   -0.3360  -12.8390 C   0  0  0  0  0  0  0  0  0  0  0  0
   -0.7980    0.4830  -13.9650 C   0  0  0  0  0  0  0  0  0  0  0  0
   -0.1300    1.7100  -13.9630 C   0  0  0  0  0  0  0  0  0  0  0  0
    0.5860    2.1230  -12.8380 C   0  0  0  0  0  0  0  0  0  0  0  0
    0.6310    1.3140  -11.6960 C   0  0  0  0  0  0  0  0  0  0  0  0
    1.4330    1.7200  -10.4950 C   0  0  0  0  0  0  0  0  0  0  0  0
    0.7860    1.2460   -9.2500 N   0  0  0  0  0  0  0  0  0  0  0  0
    1.5610    0.2400   -8.4500 C   0  0  0  0  0  0  0  0  0  0  0  0
    2.4470    1.0290   -7.4750 C   0  0  1  0  0  0  0  0  0  0  0  0
    2.1410    0.5660   -6.1460 O   0  0  0  0  0  0  0  0  0  0  0  0
    3.9640    0.9080   -7.7960 C   0  0  2  0  0  0  0  0  0  0  0  0
    4.4930   -0.5290   -7.5670 C   0  0  0  0  0  0  0  0  0  0  0  0
    5.9730   -0.6700   -7.8420 C   0  0  0  0  0  0  0  0  0  0  0  0
    6.4900   -0.3530   -9.1060 C   0  0  0  0  0  0  0  0  0  0  0  0
    7.8520   -0.5010   -9.3720 C   0  0  0  0  0  0  0  0  0  0  0  0
    8.7110   -0.9600   -8.3770 C   0  0  0  0  0  0  0  0  0  0  0  0
    8.2110   -1.2690   -7.1140 C   0  0  0  0  0  0  0  0  0  0  0  0
    6.8490   -1.1230   -6.8450 C   0  0  0  0  0  0  0  0  0  0  0  0
    4.7280    1.8750   -6.9910 N   0  0  0  0  0  0  0  0  0  0  0  0
    5.2250    3.0210   -7.5890 C   0  0  0  0  0  0  0  0  0  0  0  0
    4.9200    3.3290   -8.7380 O   0  0  0  0  0  0  0  0  0  0  0  0
    6.1640    3.8650   -6.7950 C   0  0  0  0  0  0  0  0  0  0  0  0
    7.2510    3.3260   -6.0970 C   0  0  0  0  0  0  0  0  0  0  0  0
    8.1030    4.1600   -5.3560 C   0  0  0  0  0  0  0  0  0  0  0  0
    9.2370    3.5230   -4.6330 C   0  0  0  0  0  0  0  0  0  0  0  0
    9.0340    2.5000   -3.9860 O   0  0  0  0  0  0  0  0  0  0  0  0
   10.4720    4.1130   -4.7660 N   0  0  0  0  0  0  0  0  0  0  0  0
   11.6660    3.5380   -4.1600 C   0  0  2  0  0  0  0  0  0  0  0  0
   12.3000    4.4980   -3.1500 C   0  0  0  0  0  0  0  0  0  0  0  0
   12.6330    3.1260   -5.2560 C   0  0  0  0  0  0  0  0  0  0  0  0
   12.2100    2.9370   -6.5820 C   0  0  0  0  0  0  0  0  0  0  0  0
   13.1140    2.5320   -7.5680 C   0  0  0  0  0  0  0  0  0  0  0  0
   14.4480    2.3030   -7.2400 C   0  0  0  0  0  0  0  0  0  0  0  0
   14.8800    2.4760   -5.9270 C   0  0  0  0  0  0  0  0  0  0  0  0
   13.9790    2.8810   -4.9410 C   0  0  0  0  0  0  0  0  0  0  0  0
    7.8460    5.5330   -5.2850 C   0  0  0  0  0  0  0  0  0  0  0  0
    6.7490    6.0690   -5.9640 C   0  0  0  0  0  0  0  0  0  0  0  0
    6.5170    7.4850   -5.8460 N   0  0  0  0  0  0  0  0  0  0  0  0
    6.4040    7.9850   -4.4510 C   0  0  0  0  0  0  0  0  0  0  0  0
    7.5010    8.4880   -6.8410 S   0  0  0  0  0  0  0  0  0  0  0  0
    6.9560   10.1110   -6.3510 C   0  0  0  0  0  0  0  0  0  0  0  0
    8.8700    8.3420   -6.3920 O   0  0  0  0  0  0  0  0  0  0  0  0
    7.1480    8.2740   -8.2280 O   0  0  0  0  0  0  0  0  0  0  0  0
    5.9180    5.2420   -6.7230 C   0  0  0  0  0  0  0  0  0  0  0  0
   -0.0400    0.0820  -11.7130 C   0  0  0  0  0  0  0  0  0  0  0  0
   -0.2981   -3.3263  -12.5088 H   0  0  0  0  0  0  0  0  0  0  0  0
   -1.4013   -3.2298  -13.9231 H   0  0  0  0  0  0  0  0  0  0  0  0
    0.1416   -2.3099  -13.9231 H   0  0  0  0  0  0  0  0  0  0  0  0
   -1.3576    0.1634  -14.8565 H   0  0  0  0  0  0  0  0  0  0  0  0
   -0.1685    2.3547  -14.8534 H   0  0  0  0  0  0  0  0  0  0  0  0
    1.1163    3.0867  -12.8487 H   0  0  0  0  0  0  0  0  0  0  0  0
    2.4397    1.2826  -10.5681 H   0  0  0  0  0  0  0  0  0  0  0  0
    1.4956    2.8178  -10.4657 H   0  0  0  0  0  0  0  0  0  0  0  0
   -0.1210    0.8000   -9.4720 H   0  0  0  0  0  0  0  0  0  0  0  0
    0.5350    2.0510   -8.6610 H   0  0  0  0  0  0  0  0  0  0  0  0
    0.8718   -0.4110   -7.8921 H   0  0  0  0  0  0  0  0  0  0  0  0
    2.1708   -0.3982   -9.1064 H   0  0  0  0  0  0  0  0  0  0  0  0
    2.2283    2.1028   -7.5708 H   0  0  0  0  0  0  0  0  0  0  0  0
    1.1620    0.5490   -6.0870 H   0  0  0  0  0  0  0  0  0  0  0  0
    4.0998    1.1370   -8.8633 H   0  0  0  0  0  0  0  0  0  0  0  0
    4.3038   -0.8084   -6.5200 H   0  0  0  0  0  0  0  0  0  0  0  0
    3.9653   -1.1877   -8.2724 H   0  0  0  0  0  0  0  0  0  0  0  0
    5.8169    0.0152   -9.8942 H   0  0  0  0  0  0  0  0  0  0  0  0
    8.2472   -0.2548  -10.3686 H   0  0  0  0  0  0  0  0  0  0  0  0
    9.7840   -1.0786   -8.5881 H   0  0  0  0  0  0  0  0  0  0  0  0
    8.8906   -1.6286   -6.3273 H   0  0  0  0  0  0  0  0  0  0  0  0
    6.4605   -1.3648   -5.8447 H   0  0  0  0  0  0  0  0  0  0  0  0
    5.2970    1.4860   -6.2440 H   0  0  0  0  0  0  0  0  0  0  0  0
    7.4387    2.2426   -6.1293 H   0  0  0  0  0  0  0  0  0  0  0  0
   10.6230    4.8180   -5.4740 H   0  0  0  0  0  0  0  0  0  0  0  0
   11.3889    2.6401   -3.5882 H   0  0  0  0  0  0  0  0  0  0  0  0
   12.0748    4.1570   -2.1287 H   0  0  0  0  0  0  0  0  0  0  0  0
   13.3898    4.5184   -3.2978 H   0  0  0  0  0  0  0  0  0  0  0  0
   11.8909    5.5084   -3.2978 H   0  0  0  0  0  0  0  0  0  0  0  0
   11.1565    3.1095   -6.8471 H   0  0  0  0  0  0  0  0  0  0  0  0
   12.7715    2.3940   -8.6042 H   0  0  0  0  0  0  0  0  0  0  0  0
   15.1595    1.9860   -8.0167 H   0  0  0  0  0  0  0  0  0  0  0  0
   15.9330    2.2931   -5.6668 H   0  0  0  0  0  0  0  0  0  0  0  0
   14.3274    3.0097   -3.9056 H   0  0  0  0  0  0  0  0  0  0  0  0
    8.5052    6.1883   -4.6967 H   0  0  0  0  0  0  0  0  0  0  0  0
    6.5907    7.1589   -3.7491 H   0  0  0  0  0  0  0  0  0  0  0  0
    7.1449    8.7811   -4.2857 H   0  0  0  0  0  0  0  0  0  0  0  0
    5.3928    8.3851   -4.2857 H   0  0  0  0  0  0  0  0  0  0  0  0
    6.9346   10.1747   -5.2531 H   0  0  0  0  0  0  0  0  0  0  0  0
    7.6498   10.8663   -6.7486 H   0  0  0  0  0  0  0  0  0  0  0  0
    5.9469   10.2945   -6.7486 H   0  0  0  0  0  0  0  0  0  0  0  0
    5.0655    5.6745   -7.2673 H   0  0  0  0  0  0  0  0  0  0  0  0
   -0.0022   -0.5663  -10.8252 H   0  0  0  0  0  0  0  0  0  0  0  0
  1  2  1  0
  2  3  1  0
  3  4  2  0
  4  5  1  0
  5  6  2  0
  6  7  1  0
  7  8  1  0
  8  9  1  0
  9 10  1  0
 10 11  1  0
 11 12  1  0
 11 13  1  0
 13 14  1  0
 14 15  1  0
 15 16  2  0
 16 17  1  0
 17 18  2  0
 18 19  1  0
 19 20  2  0
 13 21  1  0
 21 22  1  0
 22 23  2  0
 22 24  1  0
 24 25  2  0
 25 26  1  0
 26 27  1  0
 27 28  2  0
 27 29  1  0
 29 30  1  0
 30 31  1  0
 30 32  1  0
 32 33  2  0
 33 34  1  0
 34 35  2  0
 35 36  1  0
 36 37  2  0
 26 38  2  0
 38 39  1  0
 39 40  1  0
 40 41  1  0
 40 42  1  0
 42 43  1  0
 42 44  2  0
 42 45  2  0
 39 46  2  0
  7 47  2  0
 47  3  1  0
 20 15  1  0
 46 24  1  0
 37 32  1  0
  1 48  1  0
  1 49  1  0
  1 50  1  0
  4 51  1  0
  5 52  1  0
  6 53  1  0
  8 54  1  0
  8 55  1  0
  9 56  1  0
  9 57  1  0
 10 58  1  0
 10 59  1  0
 11 60  1  1
 12 61  1  0
 13 62  1  6
 14 63  1  0
 14 64  1  0
 16 65  1  0
 17 66  1  0
 18 67  1  0
 19 68  1  0
 20 69  1  0
 21 70  1  0
 25 71  1  0
 29 72  1  0
 30 73  1  1
 31 74  1  0
 31 75  1  0
 31 76  1  0
 33 77  1  0
 34 78  1  0
 35 79  1  0
 36 80  1  0
 37 81  1  0
 38 82  1  0
 41 83  1  0
 41 84  1  0
 41 85  1  0
 43 86  1  0
 43 87  1  0
 43 88  1  0
 46 89  1  0
 47 90  1  0
M  CHG  1   9   1
M  END
>  <meeko>  (3) 
{"is_sidechain": [false], "free_energy": -9.62, "intermolecular_energy": -18.45, "internal_energy": -2.265}

$$$$
2vkm_ligand
     RDKit          3D

 90 93  0  0  0  0  0  0  0  0999 V2000
   -1.9730    5.9160  -13.6490 C   0  0  0  0  0  0  0  0  0  0  0  0
   -0.7940    5.8800  -12.8520 O   0  0  0  0  0  0  0  0  0  0  0  0
   -0.9030    5.3280  -11.6070 C   0  0  0  0  0  0  0  0  0  0  0  0
   -1.8850    4.4340  -11.1860 C   0  0  0  0  0  0  0  0  0  0  0  0
   -1.8780    3.9550   -9.8740 C   0  0  0  0  0  0  0  0  0  0  0  0
   -0.8930    4.3670   -8.9760 C   0  0  0  0  0  0  0  0  0  0  0  0
    0.1060    5.2600   -9.3870 C   0  0  0  0  0  0  0  0  0  0  0  0
    1.1440    5.7500   -8.4230 C   0  0  0  0  0  0  0  0  0  0  0  0
    1.7640    4.6160   -7.6990 N   0  0  0  0  0  0  0  0  0  0  0  0
    3.2360    4.7300   -7.4340 C   0  0  0  0  0  0  0  0  0  0  0  0
    3.9550    4.4220   -8.7550 C   0  0  1  0  0  0  0  0  0  0  0  0
    5.3170    4.8710   -8.6180 O   0  0  0  0  0  0  0  0  0  0  0  0
    3.8780    2.9210   -9.1550 C   0  0  2  0  0  0  0  0  0  0  0  0
    5.2820    2.3030   -9.3630 C   0  0  0  0  0  0  0  0  0  0  0  0
    5.4020    0.8980   -8.8180 C   0  0  0  0  0  0  0  0  0  0  0  0
    6.4950    0.0940   -9.1730 C   0  0  0  0  0  0  0  0  0  0  0  0
    6.6010   -1.2110   -8.6900 C   0  0  0  0  0  0  0  0  0  0  0  0
    5.6200   -1.7230   -7.8430 C   0  0  0  0  0  0  0  0  0  0  0  0
    4.5340   -0.9310   -7.4770 C   0  0  0  0  0  0  0  0  0  0  0  0
    4.4250    0.3740   -7.9590 C   0  0  0  0  0  0  0  0  0  0  0  0
    3.0590    2.7640  -10.3680 N   0  0  0  0  0  0  0  0  0  0  0  0
    1.8040    2.1840  -10.2750 C   0  0  0  0  0  0  0  0  0  0  0  0
    1.2930    1.9340   -9.1880 O   0  0  0  0  0  0  0  0  0  0  0  0
    1.0990    1.8550  -11.5470 C   0  0  0  0  0  0  0  0  0  0  0  0
    1.2160    2.6420  -12.6980 C   0  0  0  0  0  0  0  0  0  0  0  0
    0.5250    2.2960  -13.8690 C   0  0  0  0  0  0  0  0  0  0  0  0
    0.6900    3.1780  -15.0560 C   0  0  0  0  0  0  0  0  0  0  0  0
   -0.3080    3.5740  -15.6500 O   0  0  0  0  0  0  0  0  0  0  0  0
    1.9750    3.5280  -15.3990 N   0  0  0  0  0  0  0  0  0  0  0  0
    2.2530    4.4420  -16.4990 C   0  0  2  0  0  0  0  0  0  0  0  0
    3.3110    3.8720  -17.4480 C   0  0  0  0  0  0  0  0  0  0  0  0
    2.6470    5.7970  -15.9370 C   0  0  0  0  0  0  0  0  0  0  0  0
    3.8570    6.4180  -16.2870 C   0  0  0  0  0  0  0  0  0  0  0  0
    4.2100    7.6520  -15.7360 C   0  0  0  0  0  0  0  0  0  0  0  0
    3.3640    8.2770  -14.8230 C   0  0  0  0  0  0  0  0  0  0  0  0
    2.1650    7.6680  -14.4580 C   0  0  0  0  0  0  0  0  0  0  0  0
    1.8100    6.4350  -15.0080 C   0  0  0  0  0  0  0  0  0  0  0  0
   -0.3140    1.1770  -13.8780 C   0  0  0  0  0  0  0  0  0  0  0  0
   -0.4500    0.4030  -12.7240 C   0  0  0  0  0  0  0  0  0  0  0  0
   -1.3390   -0.7290  -12.7790 N   0  0  0  0  0  0  0  0  0  0  0  0
   -2.6330   -0.4730  -13.4630 C   0  0  0  0  0  0  0  0  0  0  0  0
   -0.6190   -2.2220  -13.2410 S   0  0  0  0  0  0  0  0  0  0  0  0
   -0.7280   -2.1300  -15.0160 C   0  0  0  0  0  0  0  0  0  0  0  0
    0.7860   -2.1560  -12.8950 O   0  0  0  0  0  0  0  0  0  0  0  0
   -1.4470   -3.3140  -12.7760 O   0  0  0  0  0  0  0  0  0  0  0  0
    0.2600    0.7330  -11.5670 C   0  0  0  0  0  0  0  0  0  0  0  0
    0.0840    5.7380  -10.7060 C   0  0  0  0  0  0  0  0  0  0  0  0
   -2.8570    5.9430  -12.9950 H   0  0  0  0  0  0  0  0  0  0  0  0
   -1.9591    6.8141  -14.2839 H   0  0  0  0  0  0  0  0  0  0  0  0
   -2.0139    5.0187  -14.2839 H   0  0  0  0  0  0  0  0  0  0  0  0
   -2.6662    4.1052  -11.8871 H   0  0  0  0  0  0  0  0  0  0  0  0
   -2.6545    3.2480   -9.5465 H   0  0  0  0  0  0  0  0  0  0  0  0
   -0.9004    3.9900   -7.9427 H   0  0  0  0  0  0  0  0  0  0  0  0
    1.9232    6.2938   -8.9772 H   0  0  0  0  0  0  0  0  0  0  0  0
    0.6612    6.4147   -7.6915 H   0  0  0  0  0  0  0  0  0  0  0  0
    1.6360    3.7420   -8.2390 H   0  0  0  0  0  0  0  0  0  0  0  0
    1.2560    4.4470   -6.8210 H   0  0  0  0  0  0  0  0  0  0  0  0
    3.4817    5.7484   -7.0987 H   0  0  0  0  0  0  0  0  0  0  0  0
    3.5481    4.0303   -6.6447 H   0  0  0  0  0  0  0  0  0  0  0  0
    3.4524    4.9543   -9.5760 H   0  0  0  0  0  0  0  0  0  0  0  0
    5.4840    5.4580   -9.3860 H   0  0  0  0  0  0  0  0  0  0  0  0
    3.4042    2.3771   -8.3245 H   0  0  0  0  0  0  0  0  0  0  0  0
    5.4969    2.2790  -10.4415 H   0  0  0  0  0  0  0  0  0  0  0  0
    5.9992    2.9292   -8.8121 H   0  0  0  0  0  0  0  0  0  0  0  0
    7.2747    0.4951   -9.8372 H   0  0  0  0  0  0  0  0  0  0  0  0
    7.4593   -1.8358   -8.9780 H   0  0  0  0  0  0  0  0  0  0  0  0
    5.7031   -2.7521   -7.4636 H   0  0  0  0  0  0  0  0  0  0  0  0
    3.7610   -1.3351   -6.8068 H   0  0  0  0  0  0  0  0  0  0  0  0
    3.5672    0.9958   -7.6633 H   0  0  0  0  0  0  0  0  0  0  0  0
    3.5650    2.5830  -11.2310 H   0  0  0  0  0  0  0  0  0  0  0  0
    1.8540    3.5380  -12.6847 H   0  0  0  0  0  0  0  0  0  0  0  0
    2.7360    3.3540  -14.7580 H   0  0  0  0  0  0  0  0  0  0  0  0
    1.3434    4.5707  -17.1041 H   0  0  0  0  0  0  0  0  0  0  0  0
    4.1302    3.4307  -16.8613 H   0  0  0  0  0  0  0  0  0  0  0  0
    2.8554    3.0972  -18.0822 H   0  0  0  0  0  0  0  0  0  0  0  0
    3.7074    4.6786  -18.0822 H   0  0  0  0  0  0  0  0  0  0  0  0
    4.5336    5.9276  -17.0023 H   0  0  0  0  0  0  0  0  0  0  0  0
    5.1576    8.1309  -16.0236 H   0  0  0  0  0  0  0  0  0  0  0  0
    3.6419    9.2496  -14.3908 H   0  0  0  0  0  0  0  0  0  0  0  0
    1.4971    8.1596  -13.7353 H   0  0  0  0  0  0  0  0  0  0  0  0
    0.8644    5.9583  -14.7103 H   0  0  0  0  0  0  0  0  0  0  0  0
   -0.8649    0.9076  -14.7912 H   0  0  0  0  0  0  0  0  0  0  0  0
   -3.4206   -0.3172  -12.7111 H   0  0  0  0  0  0  0  0  0  0  0  0
   -2.5438    0.4249  -14.0921 H   0  0  0  0  0  0  0  0  0  0  0  0
   -2.8925   -1.3372  -14.0921 H   0  0  0  0  0  0  0  0  0  0  0  0
   -1.5404   -1.4443  -15.2984 H   0  0  0  0  0  0  0  0  0  0  0  0
    0.2238   -1.7581  -15.4230 H   0  0  0  0  0  0  0  0  0  0  0  0
   -0.9348   -3.1308  -15.4230 H   0  0  0  0  0  0  0  0  0  0  0  0
    0.1598    0.1087  -10.6669 H   0  0  0  0  0  0  0  0  0  0  0  0
    0.8567    6.4476  -11.0367 H   0  0  0  0  0  0  0  0  0  0  0  0
  1  2  1  0
  2  3  1  0
  3  4  2  0
  4  5  1  0
  5  6  2  0
  6  7  1  0
  7  8  1  0
  8  9  1  0
  9 10  1  0
 10 11  1  0
 11 12  1  0
 11 13  1  0
 13 14  1  0
 14 15  1  0
 15 16  2  0
 16 17  1  0
 17 18  2  0
 18 19  1  0
 19 20  2  0
 13 21  1  0
 21 22  1  0
 22 23  2  0
 22 24  1  0
 24 25  2  0
 25 26  1  0
 26 27  1  0
 27 28  2  0
 27 29  1  0
 29 30  1  0
 30 31  1  0
 30 32  1  0
 32 33  2  0
 33 34  1  0
 34 35  2  0
 35 36  1  0
 36 37  2  0
 26 38  2  0
 38 39  1  0
 39 40  1  0
 40 41  1  0
 40 42  1  0
 42 43  1  0
 42 44  2  0
 42 45  2  0
 39 46  2  0
  7 47  2  0
 47  3  1  0
 20 15  1  0
 46 24  1  0
 37 32  1  0
  1 48  1  0
  1 49  1  0
  1 50  1  0
  4 51  1  0
  5 52  1  0
  6 53  1  0
  8 54  1  0
  8 55  1  0
  9 56  1  0
  9 57  1  0
 10 58  1  0
 10 59  1  0
 11 60  1  6
 12 61  1  0
 13 62  1  1
 14 63  1  0
 14 64  1  0
 16 65  1  0
 17 66  1  0
 18 67  1  0
 19 68  1  0
 20 69  1  0
 21 70  1  0
 25 71  1  0
 29 72  1  0
 30 73  1  6
 31 74  1  0
 31 75  1  0
 31 76  1  0
 33 77  1  0
 34 78  1  0
 35 79  1  0
 36 80  1  0
 37 81  1  0
 38 82  1  0
 41 83  1  0
 41 84  1  0
 41 85  1  0
 43 86  1  0
 43 87  1  0
 43 88  1  0
 46 89  1  0
 47 90  1  0
M  CHG  1   9   1
M  END
>  <meeko>  (4) 
{"is_sidechain": [false], "free_energy": -9.553, "intermolecular_energy": -16.236, "internal_energy": -4.35}

$$$$
2vkm_ligand
     RDKit          3D

 90 93  0  0  0  0  0  0  0  0999 V2000
    8.3870   -0.1060   -3.7630 C   0  0  0  0  0  0  0  0  0  0  0  0
    8.0330   -0.2710   -5.1330 O   0  0  0  0  0  0  0  0  0  0  0  0
    8.2820    0.7810   -5.9690 C   0  0  0  0  0  0  0  0  0  0  0  0
    9.2030    0.8020   -7.0130 C   0  0  0  0  0  0  0  0  0  0  0  0
    9.3590    1.9560   -7.7850 C   0  0  0  0  0  0  0  0  0  0  0  0
    8.5970    3.0940   -7.5160 C   0  0  0  0  0  0  0  0  0  0  0  0
    7.6610    3.0840   -6.4750 C   0  0  0  0  0  0  0  0  0  0  0  0
    6.8670    4.3120   -6.1420 C   0  0  0  0  0  0  0  0  0  0  0  0
    5.4290    4.1000   -6.4290 N   0  0  0  0  0  0  0  0  0  0  0  0
    4.9690    4.4850   -7.8040 C   0  0  0  0  0  0  0  0  0  0  0  0
    3.6130    3.8020   -8.0300 C   0  0  1  0  0  0  0  0  0  0  0  0
    2.7840    4.7260   -8.7620 O   0  0  0  0  0  0  0  0  0  0  0  0
    3.7330    2.4320   -8.7550 C   0  0  2  0  0  0  0  0  0  0  0  0
    5.2040    2.0750   -9.0810 C   0  0  0  0  0  0  0  0  0  0  0  0
    5.5800    0.6680   -8.6760 C   0  0  0  0  0  0  0  0  0  0  0  0
    4.8860    0.0200   -7.6440 C   0  0  0  0  0  0  0  0  0  0  0  0
    5.2420   -1.2710   -7.2520 C   0  0  0  0  0  0  0  0  0  0  0  0
    6.2890   -1.9300   -7.8900 C   0  0  0  0  0  0  0  0  0  0  0  0
    6.9810   -1.3010   -8.9230 C   0  0  0  0  0  0  0  0  0  0  0  0
    6.6280   -0.0090   -9.3170 C   0  0  0  0  0  0  0  0  0  0  0  0
    2.9190    2.4370   -9.9820 N   0  0  0  0  0  0  0  0  0  0  0  0
    1.7190    1.7460  -10.0080 C   0  0  0  0  0  0  0  0  0  0  0  0
    1.2410    1.2530   -8.9910 O   0  0  0  0  0  0  0  0  0  0  0  0
    1.0310    1.6030  -11.3240 C   0  0  0  0  0  0  0  0  0  0  0  0
    1.1950    2.5260  -12.3620 C   0  0  0  0  0  0  0  0  0  0  0  0
    0.5200    2.3530  -13.5800 C   0  0  0  0  0  0  0  0  0  0  0  0
    0.7350    3.3750  -14.6410 C   0  0  0  0  0  0  0  0  0  0  0  0
    0.8040    3.0140  -15.8120 O   0  0  0  0  0  0  0  0  0  0  0  0
    0.8120    4.6870  -14.2370 N   0  0  0  0  0  0  0  0  0  0  0  0
    0.9520    5.7760  -15.1940 C   0  0  2  0  0  0  0  0  0  0  0  0
    2.0390    6.7650  -14.7630 C   0  0  0  0  0  0  0  0  0  0  0  0
   -0.3970    6.4460  -15.3900 C   0  0  0  0  0  0  0  0  0  0  0  0
   -0.5960    7.4360  -16.3670 C   0  0  0  0  0  0  0  0  0  0  0  0
   -1.8390    8.0560  -16.5110 C   0  0  0  0  0  0  0  0  0  0  0  0
   -2.8970    7.7020  -15.6760 C   0  0  0  0  0  0  0  0  0  0  0  0
   -2.7120    6.7290  -14.6970 C   0  0  0  0  0  0  0  0  0  0  0  0
   -1.4700    6.1080  -14.5510 C   0  0  0  0  0  0  0  0  0  0  0  0
   -0.3500    1.2710  -13.7470 C   0  0  0  0  0  0  0  0  0  0  0  0
   -0.5310    0.3600  -12.7040 C   0  0  0  0  0  0  0  0  0  0  0  0
   -1.4500   -0.7270  -12.9190 N   0  0  0  0  0  0  0  0  0  0  0  0
   -2.6110   -0.4010  -13.7870 C   0  0  0  0  0  0  0  0  0  0  0  0
   -0.7340   -2.2460  -13.2980 S   0  0  0  0  0  0  0  0  0  0  0  0
   -0.7820   -2.2220  -15.0780 C   0  0  0  0  0  0  0  0  0  0  0  0
    0.6590   -2.1830  -12.9070 O   0  0  0  0  0  0  0  0  0  0  0  0
   -1.5910   -3.3090  -12.8200 O   0  0  0  0  0  0  0  0  0  0  0  0
    0.1630    0.5190  -11.5020 C   0  0  0  0  0  0  0  0  0  0  0  0
    7.5190    1.9210   -5.7030 C   0  0  0  0  0  0  0  0  0  0  0  0
    7.5741   -0.4849   -3.1261 H   0  0  0  0  0  0  0  0  0  0  0  0
    9.3095   -0.6669   -3.5525 H   0  0  0  0  0  0  0  0  0  0  0  0
    8.5507    0.9612   -3.5525 H   0  0  0  0  0  0  0  0  0  0  0  0
    9.8082   -0.0905   -7.2301 H   0  0  0  0  0  0  0  0  0  0  0  0
   10.0867    1.9678   -8.6098 H   0  0  0  0  0  0  0  0  0  0  0  0
    8.7322    4.0010   -8.1235 H   0  0  0  0  0  0  0  0  0  0  0  0
    6.9916    4.5439   -5.0740 H   0  0  0  0  0  0  0  0  0  0  0  0
    7.2313    5.1466   -6.7590 H   0  0  0  0  0  0  0  0  0  0  0  0
    4.8530    4.6500   -5.7680 H   0  0  0  0  0  0  0  0  0  0  0  0
    5.1780    3.1220   -6.2300 H   0  0  0  0  0  0  0  0  0  0  0  0
    4.8583    5.5772   -7.8735 H   0  0  0  0  0  0  0  0  0  0  0  0
    5.6988    4.1711   -8.5648 H   0  0  0  0  0  0  0  0  0  0  0  0
    3.1597    3.5610   -7.0571 H   0  0  0  0  0  0  0  0  0  0  0  0
    1.8750    4.3600   -8.7210 H   0  0  0  0  0  0  0  0  0  0  0  0
    3.3542    1.6578   -8.0715 H   0  0  0  0  0  0  0  0  0  0  0  0
    5.3568    2.1791  -10.1653 H   0  0  0  0  0  0  0  0  0  0  0  0
    5.8419    2.7619   -8.5055 H   0  0  0  0  0  0  0  0  0  0  0  0
    4.0543    0.5335   -7.1395 H   0  0  0  0  0  0  0  0  0  0  0  0
    4.6946   -1.7685   -6.4379 H   0  0  0  0  0  0  0  0  0  0  0  0
    6.5700   -2.9470   -7.5788 H   0  0  0  0  0  0  0  0  0  0  0  0
    7.8066   -1.8232   -9.4288 H   0  0  0  0  0  0  0  0  0  0  0  0
    7.1753    0.4813  -10.1355 H   0  0  0  0  0  0  0  0  0  0  0  0
    3.4300    2.4650  -10.8600 H   0  0  0  0  0  0  0  0  0  0  0  0
    1.8574    3.3931  -12.2227 H   0  0  0  0  0  0  0  0  0  0  0  0
    0.5380    4.9450  -13.3000 H   0  0  0  0  0  0  0  0  0  0  0  0
    1.2803    5.3702  -16.1623 H   0  0  0  0  0  0  0  0  0  0  0  0
    2.0834    6.8054  -13.6646 H   0  0  0  0  0  0  0  0  0  0  0  0
    3.0116    6.4357  -15.1574 H   0  0  0  0  0  0  0  0  0  0  0  0
    1.8028    7.7643  -15.1574 H   0  0  0  0  0  0  0  0  0  0  0  0
    0.2362    7.7258  -17.0254 H   0  0  0  0  0  0  0  0  0  0  0  0
   -1.9831    8.8247  -17.2845 H   0  0  0  0  0  0  0  0  0  0  0  0
   -3.8762    8.1901  -15.7899 H   0  0  0  0  0  0  0  0  0  0  0  0
   -3.5464    6.4490  -14.0371 H   0  0  0  0  0  0  0  0  0  0  0  0
   -1.3311    5.3458  -13.7701 H   0  0  0  0  0  0  0  0  0  0  0  0
   -0.8897    1.1379  -14.6962 H   0  0  0  0  0  0  0  0  0  0  0  0
   -3.4808   -0.1568  -13.1595 H   0  0  0  0  0  0  0  0  0  0  0  0
   -2.3631    0.4623  -14.4221 H   0  0  0  0  0  0  0  0  0  0  0  0
   -2.8487   -1.2671  -14.4221 H   0  0  0  0  0  0  0  0  0  0  0  0
   -1.7191   -1.7535  -15.4132 H   0  0  0  0  0  0  0  0  0  0  0  0
    0.0734   -1.6455  -15.4601 H   0  0  0  0  0  0  0  0  0  0  0  0
   -0.7300   -3.2522  -15.4601 H   0  0  0  0  0  0  0  0  0  0  0  0
    0.0267   -0.2115  -10.6910 H   0  0  0  0  0  0  0  0  0  0  0  0
    6.7952    1.9064   -4.8748 H   0  0  0  0  0  0  0  0  0  0  0  0
  1  2  1  0
  2  3  1  0
  3  4  2  0
  4  5  1  0
  5  6  2  0
  6  7  1  0
  7  8  1  0
  8  9  1  0
  9 10  1  0
 10 11  1  0
 11 12  1  0
 11 13  1  0
 13 14  1  0
 14 15  1  0
 15 16  2  0
 16 17  1  0
 17 18  2  0
 18 19  1  0
 19 20  2  0
 13 21  1  0
 21 22  1  0
 22 23  2  0
 22 24  1  0
 24 25  2  0
 25 26  1  0
 26 27  1  0
 27 28  2  0
 27 29  1  0
 29 30  1  0
 30 31  1  0
 30 32  1  0
 32 33  2  0
 33 34  1  0
 34 35  2  0
 35 36  1  0
 36 37  2  0
 26 38  2  0
 38 39  1  0
 39 40  1  0
 40 41  1  0
 40 42  1  0
 42 43  1  0
 42 44  2  0
 42 45  2  0
 39 46  2  0
  7 47  2  0
 47  3  1  0
 20 15  1  0
 46 24  1  0
 37 32  1  0
  1 48  1  0
  1 49  1  0
  1 50  1  0
  4 51  1  0
  5 52  1  0
  6 53  1  0
  8 54  1  0
  8 55  1  0
  9 56  1  0
  9 57  1  0
 10 58  1  0
 10 59  1  0
 11 60  1  1
 12 61  1  0
 13 62  1  1
 14 63  1  0
 14 64  1  0
 16 65  1  0
 17 66  1  0
 18 67  1  0
 19 68  1  0
 20 69  1  0
 21 70  1  0
 25 71  1  0
 29 72  1  0
 30 73  1  6
 31 74  1  0
 31 75  1  0
 31 76  1  0
 33 77  1  0
 34 78  1  0
 35 79  1  0
 36 80  1  0
 37 81  1  0
 38 82  1  0
 41 83  1  0
 41 84  1  0
 41 85  1  0
 43 86  1  0
 43 87  1  0
 43 88  1  0
 46 89  1  0
 47 90  1  0
M  CHG  1   9   1
M  END
>  <meeko>  (5) 
{"is_sidechain": [false], "free_energy": -9.517, "intermolecular_energy": -16.961, "internal_energy": -3.557}

$$$$
2vkm_ligand
     RDKit          3D

 90 93  0  0  0  0  0  0  0  0999 V2000
    8.4600   -0.8700   -3.9200 C   0  0  0  0  0  0  0  0  0  0  0  0
    8.1100   -0.8580   -5.3000 O   0  0  0  0  0  0  0  0  0  0  0  0
    8.3270    0.3040   -5.9850 C   0  0  0  0  0  0  0  0  0  0  0  0
    9.3070    0.5200   -6.9510 C   0  0  0  0  0  0  0  0  0  0  0  0
    9.4190    1.7690   -7.5660 C   0  0  0  0  0  0  0  0  0  0  0  0
    8.5550    2.8090   -7.2190 C   0  0  0  0  0  0  0  0  0  0  0  0
    7.5590    2.6040   -6.2550 C   0  0  0  0  0  0  0  0  0  0  0  0
    6.6530    3.7220   -5.8350 C   0  0  0  0  0  0  0  0  0  0  0  0
    5.3190    3.5780   -6.4630 N   0  0  0  0  0  0  0  0  0  0  0  0
    4.8290    4.7600   -7.2460 C   0  0  0  0  0  0  0  0  0  0  0  0
    4.9300    4.3870   -8.7320 C   0  0  1  0  0  0  0  0  0  0  0  0
    6.2730    4.6860   -9.1590 O   0  0  0  0  0  0  0  0  0  0  0  0
    4.5490    2.9060   -9.0150 C   0  0  2  0  0  0  0  0  0  0  0  0
    5.7680    2.0700   -9.4770 C   0  0  0  0  0  0  0  0  0  0  0  0
    5.7870    0.6740   -8.8990 C   0  0  0  0  0  0  0  0  0  0  0  0
    4.8450    0.2970   -7.9300 C   0  0  0  0  0  0  0  0  0  0  0  0
    4.8700   -0.9840   -7.3780 C   0  0  0  0  0  0  0  0  0  0  0  0
    5.8310   -1.9030   -7.7920 C   0  0  0  0  0  0  0  0  0  0  0  0
    6.7660   -1.5440   -8.7600 C   0  0  0  0  0  0  0  0  0  0  0  0
    6.7450   -0.2630   -9.3140 C   0  0  0  0  0  0  0  0  0  0  0  0
    3.4720    2.8460  -10.0180 N   0  0  0  0  0  0  0  0  0  0  0  0
    2.2020    2.4500   -9.6330 C   0  0  0  0  0  0  0  0  0  0  0  0
    1.9100    2.2910   -8.4510 O   0  0  0  0  0  0  0  0  0  0  0  0
    1.1990    2.2020  -10.7090 C   0  0  0  0  0  0  0  0  0  0  0  0
    0.6380    3.2360  -11.4660 C   0  0  0  0  0  0  0  0  0  0  0  0
   -0.3090    2.9540  -12.4630 C   0  0  0  0  0  0  0  0  0  0  0  0
   -0.8700    4.1010  -13.2290 C   0  0  0  0  0  0  0  0  0  0  0  0
   -1.6840    4.8410  -12.6850 O   0  0  0  0  0  0  0  0  0  0  0  0
   -0.4050    4.2810  -14.5100 N   0  0  0  0  0  0  0  0  0  0  0  0
   -0.8320    5.4090  -15.3280 C   0  0  2  0  0  0  0  0  0  0  0  0
   -1.3830    4.9450  -16.6800 C   0  0  0  0  0  0  0  0  0  0  0  0
    0.3240    6.3830  -15.4770 C   0  0  0  0  0  0  0  0  0  0  0  0
    1.4250    6.3620  -14.6040 C   0  0  0  0  0  0  0  0  0  0  0  0
    2.4630    7.2860  -14.7440 C   0  0  0  0  0  0  0  0  0  0  0  0
    2.4110    8.2470  -15.7510 C   0  0  0  0  0  0  0  0  0  0  0  0
    1.3220    8.2870  -16.6170 C   0  0  0  0  0  0  0  0  0  0  0  0
    0.2830    7.3640  -16.4790 C   0  0  0  0  0  0  0  0  0  0  0  0
   -0.7220    1.6360  -12.6770 C   0  0  0  0  0  0  0  0  0  0  0  0
   -0.1800    0.6040  -11.9080 C   0  0  0  0  0  0  0  0  0  0  0  0
   -0.6510   -0.7330  -12.1560 N   0  0  0  0  0  0  0  0  0  0  0  0
   -2.1190   -0.8530  -12.3470 C   0  0  0  0  0  0  0  0  0  0  0  0
    0.2520   -1.6410  -13.3060 S   0  0  0  0  0  0  0  0  0  0  0  0
   -0.8230   -1.5810  -14.7240 C   0  0  0  0  0  0  0  0  0  0  0  0
    1.4370   -0.8760  -13.6340 O   0  0  0  0  0  0  0  0  0  0  0  0
    0.3570   -3.0120  -12.8540 O   0  0  0  0  0  0  0  0  0  0  0  0
    0.7830    0.8840  -10.9350 C   0  0  0  0  0  0  0  0  0  0  0  0
    7.4620    1.3460   -5.6400 C   0  0  0  0  0  0  0  0  0  0  0  0
    7.5455   -0.8386   -3.3095 H   0  0  0  0  0  0  0  0  0  0  0  0
    9.0217   -1.7879   -3.6921 H   0  0  0  0  0  0  0  0  0  0  0  0
    9.0832    0.0073   -3.6921 H   0  0  0  0  0  0  0  0  0  0  0  0
    9.9930   -0.2935   -7.2296 H   0  0  0  0  0  0  0  0  0  0  0  0
   10.1936    1.9343   -8.3293 H   0  0  0  0  0  0  0  0  0  0  0  0
    8.6563    3.7914   -7.7033 H   0  0  0  0  0  0  0  0  0  0  0  0
    6.5410    3.7045   -4.7409 H   0  0  0  0  0  0  0  0  0  0  0  0
    7.0951    4.6761   -6.1578 H   0  0  0  0  0  0  0  0  0  0  0  0
    4.6050    3.3990   -5.7350 H   0  0  0  0  0  0  0  0  0  0  0  0
    5.3010    2.7320   -7.0480 H   0  0  0  0  0  0  0  0  0  0  0  0
    3.7843    4.9811   -6.9822 H   0  0  0  0  0  0  0  0  0  0  0  0
    5.4297    5.6544   -7.0240 H   0  0  0  0  0  0  0  0  0  0  0  0
    4.2003    4.9762   -9.3067 H   0  0  0  0  0  0  0  0  0  0  0  0
    6.8560    4.0770   -8.6570 H   0  0  0  0  0  0  0  0  0  0  0  0
    4.1930    2.4662   -8.0717 H   0  0  0  0  0  0  0  0  0  0  0  0
    5.7438    1.9937  -10.5741 H   0  0  0  0  0  0  0  0  0  0  0  0
    6.6716    2.5844   -9.1180 H   0  0  0  0  0  0  0  0  0  0  0  0
    4.0806    1.0172   -7.6029 H   0  0  0  0  0  0  0  0  0  0  0  0
    4.1302   -1.2683   -6.6152 H   0  0  0  0  0  0  0  0  0  0  0  0
    5.8517   -2.9121   -7.3547 H   0  0  0  0  0  0  0  0  0  0  0  0
    7.5227   -2.2717   -9.0886 H   0  0  0  0  0  0  0  0  0  0  0  0
    7.4840    0.0134  -10.0805 H   0  0  0  0  0  0  0  0  0  0  0  0
    3.7500    2.5820  -10.9590 H   0  0  0  0  0  0  0  0  0  0  0  0
    0.9409    4.2768  -11.2787 H   0  0  0  0  0  0  0  0  0  0  0  0
    0.4110    3.7790  -14.8280 H   0  0  0  0  0  0  0  0  0  0  0  0
   -1.6615    5.9295  -14.8270 H   0  0  0  0  0  0  0  0  0  0  0  0
   -2.2150    4.2444  -16.5159 H   0  0  0  0  0  0  0  0  0  0  0  0
   -1.7434    5.8157  -17.2474 H   0  0  0  0  0  0  0  0  0  0  0  0
   -0.5863    4.4417  -17.2474 H   0  0  0  0  0  0  0  0  0  0  0  0
    1.4698    5.6102  -13.8022 H   0  0  0  0  0  0  0  0  0  0  0  0
    3.3225    7.2548  -14.0583 H   0  0  0  0  0  0  0  0  0  0  0  0
    3.2296    8.9734  -15.8617 H   0  0  0  0  0  0  0  0  0  0  0  0
    1.2797    9.0468  -17.4113 H   0  0  0  0  0  0  0  0  0  0  0  0
   -0.5770    7.4067  -17.1635 H   0  0  0  0  0  0  0  0  0  0  0  0
   -1.4724    1.4121  -13.4495 H   0  0  0  0  0  0  0  0  0  0  0  0
   -2.6143   -0.8935  -11.3657 H   0  0  0  0  0  0  0  0  0  0  0  0
   -2.4881    0.0180  -12.9084 H   0  0  0  0  0  0  0  0  0  0  0  0
   -2.3418   -1.7724  -12.9084 H   0  0  0  0  0  0  0  0  0  0  0  0
   -1.8691   -1.5226  -14.3889 H   0  0  0  0  0  0  0  0  0  0  0  0
   -0.5820   -0.6949  -15.3296 H   0  0  0  0  0  0  0  0  0  0  0  0
   -0.6821   -2.4884  -15.3296 H   0  0  0  0  0  0  0  0  0  0  0  0
    1.2168    0.0645  -10.3432 H   0  0  0  0  0  0  0  0  0  0  0  0
    6.6917    1.1774   -4.8731 H   0  0  0  0  0  0  0  0  0  0  0  0
  1  2  1  0
  2  3  1  0
  3  4  2  0
  4  5  1  0
  5  6  2  0
  6  7  1  0
  7  8  1  0
  8  9  1  0
  9 10  1  0
 10 11  1  0
 11 12  1  0
 11 13  1  0
 13 14  1  0
 14 15  1  0
 15 16  2  0
 16 17  1  0
 17 18  2  0
 18 19  1  0
 19 20  2  0
 13 21  1  0
 21 22  1  0
 22 23  2  0
 22 24  1  0
 24 25  2  0
 25 26  1  0
 26 27  1  0
 27 28  2  0
 27 29  1  0
 29 30  1  0
 30 31  1  0
 30 32  1  0
 32 33  2  0
 33 34  1  0
 34 35  2  0
 35 36  1  0
 36 37  2  0
 26 38  2  0
 38 39  1  0
 39 40  1  0
 40 41  1  0
 40 42  1  0
 42 43  1  0
 42 44  2  0
 42 45  2  0
 39 46  2  0
  7 47  2  0
 47  3  1  0
 20 15  1  0
 46 24  1  0
 37 32  1  0
  1 48  1  0
  1 49  1  0
  1 50  1  0
  4 51  1  0
  5 52  1  0
  6 53  1  0
  8 54  1  0
  8 55  1  0
  9 56  1  0
  9 57  1  0
 10 58  1  0
 10 59  1  0
 11 60  1  6
 12 61  1  0
 13 62  1  1
 14 63  1  0
 14 64  1  0
 16 65  1  0
 17 66  1  0
 18 67  1  0
 19 68  1  0
 20 69  1  0
 21 70  1  0
 25 71  1  0
 29 72  1  0
 30 73  1  1
 31 74  1  0
 31 75  1  0
 31 76  1  0
 33 77  1  0
 34 78  1  0
 35 79  1  0
 36 80  1  0
 37 81  1  0
 38 82  1  0
 41 83  1  0
 41 84  1  0
 41 85  1  0
 43 86  1  0
 43 87  1  0
 43 88  1  0
 46 89  1  0
 47 90  1  0
M  CHG  1   9   1
M  END
>  <meeko>  (6) 
{"is_sidechain": [false], "free_energy": -9.508, "intermolecular_energy": -16.381, "internal_energy": -4.119}

$$$$
2vkm_ligand
     RDKit          3D

 90 93  0  0  0  0  0  0  0  0999 V2000
   11.6660    2.2100   -8.3790 C   0  0  0  0  0  0  0  0  0  0  0  0
   10.2710    2.4550   -8.5280 O   0  0  0  0  0  0  0  0  0  0  0  0
    9.4450    1.9350   -7.5720 C   0  0  0  0  0  0  0  0  0  0  0  0
    9.4520    0.6230   -7.1030 C   0  0  0  0  0  0  0  0  0  0  0  0
    8.5380    0.2260   -6.1240 C   0  0  0  0  0  0  0  0  0  0  0  0
    7.6120    1.1340   -5.6100 C   0  0  0  0  0  0  0  0  0  0  0  0
    7.5980    2.4590   -6.0670 C   0  0  0  0  0  0  0  0  0  0  0  0
    6.5800    3.4370   -5.5610 C   0  0  0  0  0  0  0  0  0  0  0  0
    5.3740    3.4280   -6.4200 N   0  0  0  0  0  0  0  0  0  0  0  0
    5.0510    4.7190   -7.1140 C   0  0  0  0  0  0  0  0  0  0  0  0
    5.1210    4.4460   -8.6230 C   0  0  1  0  0  0  0  0  0  0  0  0
    6.4680    4.7300   -9.0490 O   0  0  0  0  0  0  0  0  0  0  0  0
    4.6870    3.0020   -9.0020 C   0  0  2  0  0  0  0  0  0  0  0  0
    5.8830    2.1410   -9.4780 C   0  0  0  0  0  0  0  0  0  0  0  0
    5.8600    0.7320   -8.9290 C   0  0  0  0  0  0  0  0  0  0  0  0
    4.8960    0.3600   -7.9810 C   0  0  0  0  0  0  0  0  0  0  0  0
    4.8820   -0.9330   -7.4560 C   0  0  0  0  0  0  0  0  0  0  0  0
    5.8260   -1.8670   -7.8750 C   0  0  0  0  0  0  0  0  0  0  0  0
    6.7830   -1.5110   -8.8220 C   0  0  0  0  0  0  0  0  0  0  0  0
    6.8010   -0.2190   -9.3500 C   0  0  0  0  0  0  0  0  0  0  0  0
    3.6390    3.0450  -10.0360 N   0  0  0  0  0  0  0  0  0  0  0  0
    2.3150    2.8520   -9.6750 C   0  0  0  0  0  0  0  0  0  0  0  0
    1.9740    2.7950   -8.4980 O   0  0  0  0  0  0  0  0  0  0  0  0
    1.3160    2.6970  -10.7710 C   0  0  0  0  0  0  0  0  0  0  0  0
    0.3910    3.6960  -11.0920 C   0  0  0  0  0  0  0  0  0  0  0  0
   -0.5370    3.5000  -12.1270 C   0  0  0  0  0  0  0  0  0  0  0  0
   -1.4960    4.6010  -12.4150 C   0  0  0  0  0  0  0  0  0  0  0  0
   -1.4650    5.6140  -11.7230 O   0  0  0  0  0  0  0  0  0  0  0  0
   -2.3480    4.4240  -13.4790 N   0  0  0  0  0  0  0  0  0  0  0  0
   -3.2810    5.4630  -13.8950 C   0  0  2  0  0  0  0  0  0  0  0  0
   -4.6190    4.8690  -14.3420 C   0  0  0  0  0  0  0  0  0  0  0  0
   -2.6330    6.3130  -14.9750 C   0  0  0  0  0  0  0  0  0  0  0  0
   -3.0530    7.6280  -15.2310 C   0  0  0  0  0  0  0  0  0  0  0  0
   -2.4600    8.3810  -16.2470 C   0  0  0  0  0  0  0  0  0  0  0  0
   -1.4460    7.8270  -17.0250 C   0  0  0  0  0  0  0  0  0  0  0  0
   -1.0250    6.5210  -16.7890 C   0  0  0  0  0  0  0  0  0  0  0  0
   -1.6170    5.7660  -15.7740 C   0  0  0  0  0  0  0  0  0  0  0  0
   -0.5620    2.2840  -12.8180 C   0  0  0  0  0  0  0  0  0  0  0  0
    0.3460    1.2770  -12.4840 C   0  0  0  0  0  0  0  0  0  0  0  0
    0.2680    0.0380  -13.2140 N   0  0  0  0  0  0  0  0  0  0  0  0
    0.0790   -1.1710  -12.3720 C   0  0  0  0  0  0  0  0  0  0  0  0
   -0.7460    0.0540  -14.6050 S   0  0  0  0  0  0  0  0  0  0  0  0
   -0.2550   -1.4540  -15.4150 C   0  0  0  0  0  0  0  0  0  0  0  0
   -2.1100   -0.1270  -14.1540 O   0  0  0  0  0  0  0  0  0  0  0  0
   -0.3850    1.1760  -15.4450 O   0  0  0  0  0  0  0  0  0  0  0  0
    1.2870    1.4850  -11.4730 C   0  0  0  0  0  0  0  0  0  0  0  0
    8.5180    2.8430   -7.0550 C   0  0  0  0  0  0  0  0  0  0  0  0
   11.9183    2.1657   -7.3092 H   0  0  0  0  0  0  0  0  0  0  0  0
   11.9232    1.2529   -8.8563 H   0  0  0  0  0  0  0  0  0  0  0  0
   12.2340    3.0221   -8.8563 H   0  0  0  0  0  0  0  0  0  0  0  0
   10.1774   -0.1003   -7.5037 H   0  0  0  0  0  0  0  0  0  0  0  0
    8.5485   -0.8104   -5.7556 H   0  0  0  0  0  0  0  0  0  0  0  0
    6.8915    0.8096   -4.8447 H   0  0  0  0  0  0  0  0  0  0  0  0
    6.2945    3.1626   -4.5347 H   0  0  0  0  0  0  0  0  0  0  0  0
    7.0191    4.4454   -5.5781 H   0  0  0  0  0  0  0  0  0  0  0  0
    4.5410    3.1890   -5.8550 H   0  0  0  0  0  0  0  0  0  0  0  0
    5.4430    2.6630   -7.1050 H   0  0  0  0  0  0  0  0  0  0  0  0
    4.0407    5.0544   -6.8371 H   0  0  0  0  0  0  0  0  0  0  0  0
    5.7597    5.5089   -6.8243 H   0  0  0  0  0  0  0  0  0  0  0  0
    4.4039    5.0971   -9.1445 H   0  0  0  0  0  0  0  0  0  0  0  0
    6.5460    5.7070   -9.0550 H   0  0  0  0  0  0  0  0  0  0  0  0
    4.2846    2.5261   -8.0956 H   0  0  0  0  0  0  0  0  0  0  0  0
    5.8603    2.0884  -10.5765 H   0  0  0  0  0  0  0  0  0  0  0  0
    6.7998    2.6215   -9.1056 H   0  0  0  0  0  0  0  0  0  0  0  0
    4.1456    1.0925   -7.6488 H   0  0  0  0  0  0  0  0  0  0  0  0
    4.1242   -1.2147   -6.7101 H   0  0  0  0  0  0  0  0  0  0  0  0
    5.8158   -2.8850   -7.4584 H   0  0  0  0  0  0  0  0  0  0  0  0
    7.5267   -2.2500   -9.1548 H   0  0  0  0  0  0  0  0  0  0  0  0
    7.5573    0.0548  -10.1004 H   0  0  0  0  0  0  0  0  0  0  0  0
    3.9000    2.6980  -10.9550 H   0  0  0  0  0  0  0  0  0  0  0  0
    0.3907    4.6414  -10.5297 H   0  0  0  0  0  0  0  0  0  0  0  0
   -2.1870    3.6750  -14.1380 H   0  0  0  0  0  0  0  0  0  0  0  0
   -3.5115    6.1112  -13.0367 H   0  0  0  0  0  0  0  0  0  0  0  0
   -5.2163    4.6038  -13.4572 H   0  0  0  0  0  0  0  0  0  0  0  0
   -5.1655    5.6090  -14.9450 H   0  0  0  0  0  0  0  0  0  0  0  0
   -4.4367    3.9673  -14.9450 H   0  0  0  0  0  0  0  0  0  0  0  0
   -3.8576    8.0700  -14.6250 H   0  0  0  0  0  0  0  0  0  0  0  0
   -2.7940    9.4124  -16.4329 H   0  0  0  0  0  0  0  0  0  0  0  0
   -0.9786    8.4204  -17.8246 H   0  0  0  0  0  0  0  0  0  0  0  0
   -0.2245    6.0829  -17.4032 H   0  0  0  0  0  0  0  0  0  0  0  0
   -1.2837    4.7324  -15.5991 H   0  0  0  0  0  0  0  0  0  0  0  0
   -1.2948    2.1215  -13.6221 H   0  0  0  0  0  0  0  0  0  0  0  0
    0.1231   -0.8886  -11.3098 H   0  0  0  0  0  0  0  0  0  0  0  0
   -0.9004   -1.6211  -12.5913 H   0  0  0  0  0  0  0  0  0  0  0  0
    0.8743   -1.8986  -12.5913 H   0  0  0  0  0  0  0  0  0  0  0  0
   -0.0079   -2.2130  -14.6582 H   0  0  0  0  0  0  0  0  0  0  0  0
   -1.0809   -1.8183  -16.0436 H   0  0  0  0  0  0  0  0  0  0  0  0
    0.6271   -1.2622  -16.0436 H   0  0  0  0  0  0  0  0  0  0  0  0
    2.0093    0.6928  -11.2266 H   0  0  0  0  0  0  0  0  0  0  0  0
    8.5088    3.8775   -7.4288 H   0  0  0  0  0  0  0  0  0  0  0  0
  1  2  1  0
  2  3  1  0
  3  4  2  0
  4  5  1  0
  5  6  2  0
  6  7  1  0
  7  8  1  0
  8  9  1  0
  9 10  1  0
 10 11  1  0
 11 12  1  0
 11 13  1  0
 13 14  1  0
 14 15  1  0
 15 16  2  0
 16 17  1  0
 17 18  2  0
 18 19  1  0
 19 20  2  0
 13 21  1  0
 21 22  1  0
 22 23  2  0
 22 24  1  0
 24 25  2  0
 25 26  1  0
 26 27  1  0
 27 28  2  0
 27 29  1  0
 29 30  1  0
 30 31  1  0
 30 32  1  0
 32 33  2  0
 33 34  1  0
 34 35  2  0
 35 36  1  0
 36 37  2  0
 26 38  2  0
 38 39  1  0
 39 40  1  0
 40 41  1  0
 40 42  1  0
 42 43  1  0
 42 44  2  0
 42 45  2  0
 39 46  2  0
  7 47  2  0
 47  3  1  0
 20 15  1  0
 46 24  1  0
 37 32  1  0
  1 48  1  0
  1 49  1  0
  1 50  1  0
  4 51  1  0
  5 52  1  0
  6 53  1  0
  8 54  1  0
  8 55  1  0
  9 56  1  0
  9 57  1  0
 10 58  1  0
 10 59  1  0
 11 60  1  6
 12 61  1  0
 13 62  1  1
 14 63  1  0
 14 64  1  0
 16 65  1  0
 17 66  1  0
 18 67  1  0
 19 68  1  0
 20 69  1  0
 21 70  1  0
 25 71  1  0
 29 72  1  0
 30 73  1  1
 31 74  1  0
 31 75  1  0
 31 76  1  0
 33 77  1  0
 34 78  1  0
 35 79  1  0
 36 80  1  0
 37 81  1  0
 38 82  1  0
 41 83  1  0
 41 84  1  0
 41 85  1  0
 43 86  1  0
 43 87  1  0
 43 88  1  0
 46 89  1  0
 47 90  1  0
M  CHG  1   9   1
M  END
>  <meeko>  (7) 
{"is_sidechain": [false], "free_energy": -9.49, "intermolecular_energy": -17.038, "internal_energy": -3.428}

$$$$
2vkm_ligand
     RDKit          3D

 90 93  0  0  0  0  0  0  0  0999 V2000
    8.2220   -0.6060   -4.3320 C   0  0  0  0  0  0  0  0  0  0  0  0
    8.6070   -0.6460   -5.7020 O   0  0  0  0  0  0  0  0  0  0  0  0
    8.6060    0.5390   -6.3820 C   0  0  0  0  0  0  0  0  0  0  0  0
    9.4130    0.8650   -7.4690 C   0  0  0  0  0  0  0  0  0  0  0  0
    9.3100    2.1250   -8.0630 C   0  0  0  0  0  0  0  0  0  0  0  0
    8.4030    3.0660   -7.5730 C   0  0  0  0  0  0  0  0  0  0  0  0
    7.5800    2.7490   -6.4850 C   0  0  0  0  0  0  0  0  0  0  0  0
    6.6330    3.7630   -5.9160 C   0  0  0  0  0  0  0  0  0  0  0  0
    5.2570    3.5330   -6.4160 N   0  0  0  0  0  0  0  0  0  0  0  0
    4.8720    4.2900   -7.6530 C   0  0  0  0  0  0  0  0  0  0  0  0
    3.5010    3.7580   -8.0950 C   0  0  1  0  0  0  0  0  0  0  0  0
    2.8180    4.8360   -8.7620 O   0  0  0  0  0  0  0  0  0  0  0  0
    3.5990    2.4910   -8.9900 C   0  0  2  0  0  0  0  0  0  0  0  0
    5.0680    2.1030   -9.2890 C   0  0  0  0  0  0  0  0  0  0  0  0
    5.4340    0.7240   -8.7880 C   0  0  0  0  0  0  0  0  0  0  0  0
    6.4990    0.0210   -9.3690 C   0  0  0  0  0  0  0  0  0  0  0  0
    6.8290   -1.2600   -8.9260 C   0  0  0  0  0  0  0  0  0  0  0  0
    6.1020   -1.8500   -7.8950 C   0  0  0  0  0  0  0  0  0  0  0  0
    5.0470   -1.1580   -7.3040 C   0  0  0  0  0  0  0  0  0  0  0  0
    4.7140    0.1230   -7.7450 C   0  0  0  0  0  0  0  0  0  0  0  0
    2.8560    2.7010  -10.2440 N   0  0  0  0  0  0  0  0  0  0  0  0
    1.6530    2.0440  -10.4440 C   0  0  0  0  0  0  0  0  0  0  0  0
    1.1140    1.4070   -9.5430 O   0  0  0  0  0  0  0  0  0  0  0  0
    1.0400    2.1190  -11.8010 C   0  0  0  0  0  0  0  0  0  0  0  0
    1.2540    3.2000  -12.6630 C   0  0  0  0  0  0  0  0  0  0  0  0
    0.6490    3.2300  -13.9290 C   0  0  0  0  0  0  0  0  0  0  0  0
    0.9140    4.4110  -14.7960 C   0  0  0  0  0  0  0  0  0  0  0  0
    0.1340    4.6700  -15.7060 O   0  0  0  0  0  0  0  0  0  0  0  0
    2.0200    5.1690  -14.4930 N   0  0  0  0  0  0  0  0  0  0  0  0
    2.3400    6.3850  -15.2290 C   0  0  2  0  0  0  0  0  0  0  0  0
    1.0880    7.0130  -15.8480 C   0  0  0  0  0  0  0  0  0  0  0  0
    3.4070    6.0760  -16.2650 C   0  0  0  0  0  0  0  0  0  0  0  0
    4.6020    6.8110  -16.3370 C   0  0  0  0  0  0  0  0  0  0  0  0
    5.5570    6.5250  -17.3160 C   0  0  0  0  0  0  0  0  0  0  0  0
    5.3270    5.5070  -18.2390 C   0  0  0  0  0  0  0  0  0  0  0  0
    4.1430    4.7760  -18.1860 C   0  0  0  0  0  0  0  0  0  0  0  0
    3.1880    5.0600  -17.2080 C   0  0  0  0  0  0  0  0  0  0  0  0
   -0.2030    2.1910  -14.3190 C   0  0  0  0  0  0  0  0  0  0  0  0
   -0.4350    1.1220  -13.4500 C   0  0  0  0  0  0  0  0  0  0  0  0
   -1.3330    0.0860  -13.8910 N   0  0  0  0  0  0  0  0  0  0  0  0
   -2.1120    0.4140  -15.1130 C   0  0  0  0  0  0  0  0  0  0  0  0
   -0.6790   -1.5060  -13.9180 S   0  0  0  0  0  0  0  0  0  0  0  0
   -1.6200   -2.2940  -12.6290 C   0  0  0  0  0  0  0  0  0  0  0  0
   -1.0710   -2.1190  -15.1700 O   0  0  0  0  0  0  0  0  0  0  0  0
    0.7120   -1.4570  -13.5200 O   0  0  0  0  0  0  0  0  0  0  0  0
    0.1910    1.0800  -12.2020 C   0  0  0  0  0  0  0  0  0  0  0  0
    7.6970    1.4820   -5.8940 C   0  0  0  0  0  0  0  0  0  0  0  0
    9.1155   -0.6988   -3.6972 H   0  0  0  0  0  0  0  0  0  0  0  0
    7.7193    0.3492   -4.1201 H   0  0  0  0  0  0  0  0  0  0  0  0
    7.5337   -1.4375   -4.1201 H   0  0  0  0  0  0  0  0  0  0  0  0
   10.1319    0.1300   -7.8600 H   0  0  0  0  0  0  0  0  0  0  0  0
    9.9480    2.3774   -8.9228 H   0  0  0  0  0  0  0  0  0  0  0  0
    8.3345    4.0585   -8.0423 H   0  0  0  0  0  0  0  0  0  0  0  0
    6.6364    3.6845   -4.8188 H   0  0  0  0  0  0  0  0  0  0  0  0
    6.9596    4.7661   -6.2278 H   0  0  0  0  0  0  0  0  0  0  0  0
    4.5700    3.8000   -5.6890 H   0  0  0  0  0  0  0  0  0  0  0  0
    5.1030    2.5250   -6.5530 H   0  0  0  0  0  0  0  0  0  0  0  0
    4.8069    5.3658   -7.4329 H   0  0  0  0  0  0  0  0  0  0  0  0
    5.6212    4.1531   -8.4467 H   0  0  0  0  0  0  0  0  0  0  0  0
    2.9346    3.4287   -7.2114 H   0  0  0  0  0  0  0  0  0  0  0  0
    2.2390    5.2470   -8.0850 H   0  0  0  0  0  0  0  0  0  0  0  0
    3.1483    1.6546   -8.4356 H   0  0  0  0  0  0  0  0  0  0  0  0
    5.2225    2.1318  -10.3777 H   0  0  0  0  0  0  0  0  0  0  0  0
    5.7102    2.8235   -8.7612 H   0  0  0  0  0  0  0  0  0  0  0  0
    7.0792    0.4835  -10.1810 H   0  0  0  0  0  0  0  0  0  0  0  0
    7.6639   -1.8044   -9.3913 H   0  0  0  0  0  0  0  0  0  0  0  0
    6.3604   -2.8612   -7.5477 H   0  0  0  0  0  0  0  0  0  0  0  0
    4.4751   -1.6229   -6.4875 H   0  0  0  0  0  0  0  0  0  0  0  0
    3.8818    0.6649   -7.2719 H   0  0  0  0  0  0  0  0  0  0  0  0
    3.4170    2.8560  -11.0780 H   0  0  0  0  0  0  0  0  0  0  0  0
    1.9006    4.0317  -12.3464 H   0  0  0  0  0  0  0  0  0  0  0  0
    2.5000    5.0380  -13.6140 H   0  0  0  0  0  0  0  0  0  0  0  0
    2.7408    7.1368  -14.5332 H   0  0  0  0  0  0  0  0  0  0  0  0
    0.4135    7.3513  -15.0476 H   0  0  0  0  0  0  0  0  0  0  0  0
    1.3783    7.8722  -16.4705 H   0  0  0  0  0  0  0  0  0  0  0  0
    0.5729    6.2666  -16.4705 H   0  0  0  0  0  0  0  0  0  0  0  0
    4.7878    7.6200  -15.6152 H   0  0  0  0  0  0  0  0  0  0  0  0
    6.4913    7.1041  -17.3580 H   0  0  0  0  0  0  0  0  0  0  0  0
    6.0798    5.2810  -19.0086 H   0  0  0  0  0  0  0  0  0  0  0  0
    3.9599    3.9736  -18.9158 H   0  0  0  0  0  0  0  0  0  0  0  0
    2.2533    4.4809  -17.1762 H   0  0  0  0  0  0  0  0  0  0  0  0
   -0.6882    2.2157  -15.3059 H   0  0  0  0  0  0  0  0  0  0  0  0
   -3.0903    0.8259  -14.8246 H   0  0  0  0  0  0  0  0  0  0  0  0
   -1.5627    1.1572  -15.7095 H   0  0  0  0  0  0  0  0  0  0  0  0
   -2.2597   -0.4983  -15.7095 H   0  0  0  0  0  0  0  0  0  0  0  0
   -1.2380   -1.9741  -11.6483 H   0  0  0  0  0  0  0  0  0  0  0  0
   -2.6784   -2.0088  -12.7210 H   0  0  0  0  0  0  0  0  0  0  0  0
   -1.5251   -3.3860  -12.7210 H   0  0  0  0  0  0  0  0  0  0  0  0
    0.0162    0.2263  -11.5307 H   0  0  0  0  0  0  0  0  0  0  0  0
    7.0628    1.2265   -5.0323 H   0  0  0  0  0  0  0  0  0  0  0  0
  1  2  1  0
  2  3  1  0
  3  4  2  0
  4  5  1  0
  5  6  2  0
  6  7  1  0
  7  8  1  0
  8  9  1  0
  9 10  1  0
 10 11  1  0
 11 12  1  0
 11 13  1  0
 13 14  1  0
 14 15  1  0
 15 16  2  0
 16 17  1  0
 17 18  2  0
 18 19  1  0
 19 20  2  0
 13 21  1  0
 21 22  1  0
 22 23  2  0
 22 24  1  0
 24 25  2  0
 25 26  1  0
 26 27  1  0
 27 28  2  0
 27 29  1  0
 29 30  1  0
 30 31  1  0
 30 32  1  0
 32 33  2  0
 33 34  1  0
 34 35  2  0
 35 36  1  0
 36 37  2  0
 26 38  2  0
 38 39  1  0
 39 40  1  0
 40 41  1  0
 40 42  1  0
 42 43  1  0
 42 44  2  0
 42 45  2  0
 39 46  2  0
  7 47  2  0
 47  3  1  0
 20 15  1  0
 46 24  1  0
 37 32  1  0
  1 48  1  0
  1 49  1  0
  1 50  1  0
  4 51  1  0
  5 52  1  0
  6 53  1  0
  8 54  1  0
  8 55  1  0
  9 56  1  0
  9 57  1  0
 10 58  1  0
 10 59  1  0
 11 60  1  1
 12 61  1  0
 13 62  1  1
 14 63  1  0
 14 64  1  0
 16 65  1  0
 17 66  1  0
 18 67  1  0
 19 68  1  0
 20 69  1  0
 21 70  1  0
 25 71  1  0
 29 72  1  0
 30 73  1  1
 31 74  1  0
 31 75  1  0
 31 76  1  0
 33 77  1  0
 34 78  1  0
 35 79  1  0
 36 80  1  0
 37 81  1  0
 38 82  1  0
 41 83  1  0
 41 84  1  0
 41 85  1  0
 43 86  1  0
 43 87  1  0
 43 88  1  0
 46 89  1  0
 47 90  1  0
M  CHG  1   9   1
M  END
>  <meeko>  (8) 
{"is_sidechain": [false], "free_energy": -9.171, "intermolecular_energy": -17.653, "internal_energy": -2.206}

$$$$
2vkm_ligand
     RDKit          3D

 90 93  0  0  0  0  0  0  0  0999 V2000
   -0.7270   -2.8450  -13.3050 C   0  0  0  0  0  0  0  0  0  0  0  0
   -1.1330   -1.7770  -12.4560 O   0  0  0  0  0  0  0  0  0  0  0  0
   -0.6890   -0.5250  -12.7790 C   0  0  0  0  0  0  0  0  0  0  0  0
   -0.8840    0.1290  -13.9930 C   0  0  0  0  0  0  0  0  0  0  0  0
   -0.3640    1.4110  -14.1870 C   0  0  0  0  0  0  0  0  0  0  0  0
    0.3550    2.0440  -13.1720 C   0  0  0  0  0  0  0  0  0  0  0  0
    0.5510    1.4010  -11.9430 C   0  0  0  0  0  0  0  0  0  0  0  0
    1.3600    2.0460  -10.8580 C   0  0  0  0  0  0  0  0  0  0  0  0
    0.9550    1.5340   -9.5290 N   0  0  0  0  0  0  0  0  0  0  0  0
    1.6640    2.1320   -8.3490 C   0  0  0  0  0  0  0  0  0  0  0  0
    2.3200    0.9720   -7.5860 C   0  0  1  0  0  0  0  0  0  0  0  0
    1.6530   -0.2390   -7.9900 O   0  0  0  0  0  0  0  0  0  0  0  0
    3.8560    0.8890   -7.8060 C   0  0  2  0  0  0  0  0  0  0  0  0
    4.3870   -0.5580   -7.6600 C   0  0  0  0  0  0  0  0  0  0  0  0
    5.8780   -0.6730   -7.8830 C   0  0  0  0  0  0  0  0  0  0  0  0
    6.4290   -0.3820   -9.1390 C   0  0  0  0  0  0  0  0  0  0  0  0
    7.8010   -0.5050   -9.3570 C   0  0  0  0  0  0  0  0  0  0  0  0
    8.6380   -0.9140   -8.3210 C   0  0  0  0  0  0  0  0  0  0  0  0
    8.1030   -1.1980   -7.0660 C   0  0  0  0  0  0  0  0  0  0  0  0
    6.7310   -1.0760   -6.8450 C   0  0  0  0  0  0  0  0  0  0  0  0
    4.5500    1.7900   -6.8710 N   0  0  0  0  0  0  0  0  0  0  0  0
    5.2700    2.8660   -7.3650 C   0  0  0  0  0  0  0  0  0  0  0  0
    5.2240    3.1770   -8.5520 O   0  0  0  0  0  0  0  0  0  0  0  0
    6.1230    3.6260   -6.4080 C   0  0  0  0  0  0  0  0  0  0  0  0
    6.0270    5.0130   -6.2520 C   0  0  0  0  0  0  0  0  0  0  0  0
    6.8580    5.6860   -5.3430 C   0  0  0  0  0  0  0  0  0  0  0  0
    6.7060    7.1620   -5.2290 C   0  0  0  0  0  0  0  0  0  0  0  0
    5.8060    7.6180   -4.5310 O   0  0  0  0  0  0  0  0  0  0  0  0
    7.6230    7.9370   -5.9010 N   0  0  0  0  0  0  0  0  0  0  0  0
    7.6130    9.3900   -5.8060 C   0  0  2  0  0  0  0  0  0  0  0  0
    7.5190   10.0420   -7.1890 C   0  0  0  0  0  0  0  0  0  0  0  0
    8.8360    9.8490   -5.0300 C   0  0  0  0  0  0  0  0  0  0  0  0
    9.7080    8.9330   -4.4180 C   0  0  0  0  0  0  0  0  0  0  0  0
   10.8110    9.3800   -3.6870 C   0  0  0  0  0  0  0  0  0  0  0  0
   11.0540   10.7450   -3.5520 C   0  0  0  0  0  0  0  0  0  0  0  0
   10.1930   11.6640   -4.1450 C   0  0  0  0  0  0  0  0  0  0  0  0
    9.0890   11.2200   -4.8770 C   0  0  0  0  0  0  0  0  0  0  0  0
    7.8140    4.9720   -4.6140 C   0  0  0  0  0  0  0  0  0  0  0  0
    7.9270    3.5910   -4.7840 C   0  0  0  0  0  0  0  0  0  0  0  0
    8.9390    2.9040   -4.0230 N   0  0  0  0  0  0  0  0  0  0  0  0
    8.7910    1.4270   -3.9780 C   0  0  0  0  0  0  0  0  0  0  0  0
   10.5590    3.4090   -4.3090 S   0  0  0  0  0  0  0  0  0  0  0  0
   10.6770    3.2270   -6.0760 C   0  0  0  0  0  0  0  0  0  0  0  0
   10.6340    4.8260   -4.0180 O   0  0  0  0  0  0  0  0  0  0  0  0
   11.4670    2.4740   -3.6790 O   0  0  0  0  0  0  0  0  0  0  0  0
    7.0800    2.9190   -5.6690 C   0  0  0  0  0  0  0  0  0  0  0  0
    0.0290    0.1110  -11.7630 C   0  0  0  0  0  0  0  0  0  0  0  0
   -0.4026   -3.6983  -12.6913 H   0  0  0  0  0  0  0  0  0  0  0  0
   -1.5718   -3.1502  -13.9399 H   0  0  0  0  0  0  0  0  0  0  0  0
    0.1072   -2.5119  -13.9399 H   0  0  0  0  0  0  0  0  0  0  0  0
   -1.4474   -0.3638  -14.7990 H   0  0  0  0  0  0  0  0  0  0  0  0
   -0.5223    1.9252  -15.1465 H   0  0  0  0  0  0  0  0  0  0  0  0
    0.7686    3.0498  -13.3374 H   0  0  0  0  0  0  0  0  0  0  0  0
    2.4250    1.8243  -11.0212 H   0  0  0  0  0  0  0  0  0  0  0  0
    1.1877    3.1321  -10.8863 H   0  0  0  0  0  0  0  0  0  0  0  0
    1.1230    0.5140   -9.4790 H   0  0  0  0  0  0  0  0  0  0  0  0
   -0.0630    1.6280   -9.4170 H   0  0  0  0  0  0  0  0  0  0  0  0
    2.4316    2.8425   -8.6895 H   0  0  0  0  0  0  0  0  0  0  0  0
    0.9609    2.6792   -7.7038 H   0  0  0  0  0  0  0  0  0  0  0  0
    2.2044    1.1354   -6.5044 H   0  0  0  0  0  0  0  0  0  0  0  0
    1.3090   -0.6430   -7.1650 H   0  0  0  0  0  0  0  0  0  0  0  0
    4.0624    1.2081   -8.8383 H   0  0  0  0  0  0  0  0  0  0  0  0
    4.1573   -0.9134   -6.6447 H   0  0  0  0  0  0  0  0  0  0  0  0
    3.8940   -1.1656   -8.4331 H   0  0  0  0  0  0  0  0  0  0  0  0
    5.7737   -0.0539   -9.9593 H   0  0  0  0  0  0  0  0  0  0  0  0
    8.2226   -0.2790  -10.3475 H   0  0  0  0  0  0  0  0  0  0  0  0
    9.7199   -1.0126   -8.4935 H   0  0  0  0  0  0  0  0  0  0  0  0
    8.7641   -1.5192   -6.2476 H   0  0  0  0  0  0  0  0  0  0  0  0
    6.3156   -1.2972   -5.8507 H   0  0  0  0  0  0  0  0  0  0  0  0
    4.9220    1.3620   -6.0280 H   0  0  0  0  0  0  0  0  0  0  0  0
    5.2951    5.5800   -6.8459 H   0  0  0  0  0  0  0  0  0  0  0  0
    8.4600    7.5170   -6.2800 H   0  0  0  0  0  0  0  0  0  0  0  0
    6.7151    9.7132   -5.2588 H   0  0  0  0  0  0  0  0  0  0  0  0
    7.3629   11.1248   -7.0741 H   0  0  0  0  0  0  0  0  0  0  0  0
    8.4523    9.8629   -7.7430 H   0  0  0  0  0  0  0  0  0  0  0  0
    6.6743    9.6065   -7.7430 H   0  0  0  0  0  0  0  0  0  0  0  0
    9.5202    7.8535   -4.5155 H   0  0  0  0  0  0  0  0  0  0  0  0
   11.4892    8.6527   -3.2169 H   0  0  0  0  0  0  0  0  0  0  0  0
   11.9243   11.0958   -2.9781 H   0  0  0  0  0  0  0  0  0  0  0  0
   10.3823   12.7422   -4.0370 H   0  0  0  0  0  0  0  0  0  0  0  0
    8.4111   11.9533   -5.3382 H   0  0  0  0  0  0  0  0  0  0  0  0
    8.4750    5.4969   -3.9087 H   0  0  0  0  0  0  0  0  0  0  0  0
    8.7576    1.0936   -2.9303 H   0  0  0  0  0  0  0  0  0  0  0  0
    7.8592    1.1362   -4.4852 H   0  0  0  0  0  0  0  0  0  0  0  0
    9.6466    0.9571   -4.4852 H   0  0  0  0  0  0  0  0  0  0  0  0
   11.2613    2.3258   -6.3136 H   0  0  0  0  0  0  0  0  0  0  0  0
    9.6677    3.1328   -6.5031 H   0  0  0  0  0  0  0  0  0  0  0  0
   11.1749    4.1100   -6.5031 H   0  0  0  0  0  0  0  0  0  0  0  0
    7.1652    1.8286   -5.7860 H   0  0  0  0  0  0  0  0  0  0  0  0
    0.1877   -0.4081  -10.8063 H   0  0  0  0  0  0  0  0  0  0  0  0
  1  2  1  0
  2  3  1  0
  3  4  2  0
  4  5  1  0
  5  6  2  0
  6  7  1  0
  7  8  1  0
  8  9  1  0
  9 10  1  0
 10 11  1  0
 11 12  1  0
 11 13  1  0
 13 14  1  0
 14 15  1  0
 15 16  2  0
 16 17  1  0
 17 18  2  0
 18 19  1  0
 19 20  2  0
 13 21  1  0
 21 22  1  0
 22 23  2  0
 22 24  1  0
 24 25  2  0
 25 26  1  0
 26 27  1  0
 27 28  2  0
 27 29  1  0
 29 30  1  0
 30 31  1  0
 30 32  1  0
 32 33  2  0
 33 34  1  0
 34 35  2  0
 35 36  1  0
 36 37  2  0
 26 38  2  0
 38 39  1  0
 39 40  1  0
 40 41  1  0
 40 42  1  0
 42 43  1  0
 42 44  2  0
 42 45  2  0
 39 46  2  0
  7 47  2  0
 47  3  1  0
 20 15  1  0
 46 24  1  0
 37 32  1  0
  1 48  1  0
  1 49  1  0
  1 50  1  0
  4 51  1  0
  5 52  1  0
  6 53  1  0
  8 54  1  0
  8 55  1  0
  9 56  1  0
  9 57  1  0
 10 58  1  0
 10 59  1  0
 11 60  1  1
 12 61  1  0
 13 62  1  6
 14 63  1  0
 14 64  1  0
 16 65  1  0
 17 66  1  0
 18 67  1  0
 19 68  1  0
 20 69  1  0
 21 70  1  0
 25 71  1  0
 29 72  1  0
 30 73  1  1
 31 74  1  0
 31 75  1  0
 31 76  1  0
 33 77  1  0
 34 78  1  0
 35 79  1  0
 36 80  1  0
 37 81  1  0
 38 82  1  0
 41 83  1  0
 41 84  1  0
 41 85  1  0
 43 86  1  0
 43 87  1  0
 43 88  1  0
 46 89  1  0
 47 90  1  0
M  CHG  1   9   1
M  END
>  <meeko>  (9) 
{"is_sidechain": [false], "free_energy": -9.09, "intermolecular_energy": -17.533, "internal_energy": -2.17}

$$$$
