3dxg_ligand
     RDKit          3D

 32 33  0  0  0  0  0  0  0  0999 V2000
    9.3230   12.7160   -3.5760 O   0  0  0  0  0  0  0  0  0  0  0  0
    8.7090   12.7880   -2.5160 C   0  0  0  0  0  0  0  0  0  0  0  0
    7.4420   13.5110   -2.3800 C   0  0  0  0  0  0  0  0  0  0  0  0
    6.8120   13.4840   -1.2040 C   0  0  0  0  0  0  0  0  0  0  0  0
    7.3250   12.8350   -0.0940 N   0  0  0  0  0  0  0  0  0  0  0  0
    6.5750   12.7770    1.1620 C   0  0  2  0  0  0  0  0  0  0  0  0
    6.1840   11.4380    1.5040 O   0  0  0  0  0  0  0  0  0  0  0  0
    4.8040   11.2160    1.0910 C   0  0  2  0  0  0  0  0  0  0  0  0
    4.6770   10.1280    0.0250 C   0  0  0  0  0  0  0  0  0  0  0  0
    4.6340   10.7160   -1.2610 O   0  0  0  0  0  0  0  0  0  0  0  0
    5.5010    9.9160   -2.4020 P   0  0  0  0  0  0  0  0  0  0  0  0
    4.7620    8.5990   -2.5540 O   0  0  0  0  0  0  0  0  0  0  0  0
    5.4350   10.8440   -3.6060 O   0  0  0  0  0  0  0  0  0  0  0  0
    6.8880    9.8020   -1.7780 O   0  0  0  0  0  0  0  0  0  0  0  0
    4.2830   12.5590    0.5720 C   0  0  1  0  0  0  0  0  0  0  0  0
    2.9420   12.8440    0.9740 O   0  0  0  0  0  0  0  0  0  0  0  0
    5.2510   13.5500    1.2010 C   0  0  1  0  0  0  0  0  0  0  0  0
    4.8290   13.7780    2.5750 O   0  0  0  0  0  0  0  0  0  0  0  0
    8.4890   12.0900   -0.1880 C   0  0  0  0  0  0  0  0  0  0  0  0
    8.9390   11.3860    0.7160 O   0  0  0  0  0  0  0  0  0  0  0  0
    9.1520   12.1620   -1.3850 N   0  0  0  0  0  0  0  0  0  0  0  0
    7.0184   14.0652   -3.2306 H   0  0  0  0  0  0  0  0  0  0  0  0
    5.8443   13.9991   -1.1127 H   0  0  0  0  0  0  0  0  0  0  0  0
    7.3006   13.2295    1.8539 H   0  0  0  0  0  0  0  0  0  0  0  0
    4.2107   10.8560    1.9445 H   0  0  0  0  0  0  0  0  0  0  0  0
    5.5429    9.4526    0.0884 H   0  0  0  0  0  0  0  0  0  0  0  0
    3.7498    9.5612    0.1950 H   0  0  0  0  0  0  0  0  0  0  0  0
    4.2427   12.5869   -0.5269 H   0  0  0  0  0  0  0  0  0  0  0  0
    2.7930   13.7800    0.7340 H   0  0  0  0  0  0  0  0  0  0  0  0
    5.3127   14.5300    0.7052 H   0  0  0  0  0  0  0  0  0  0  0  0
    4.1570   14.4890    2.5320 H   0  0  0  0  0  0  0  0  0  0  0  0
    9.9960   11.6230   -1.4710 H   0  0  0  0  0  0  0  0  0  0  0  0
  1  2  2  0
  2  3  1  0
  3  4  2  0
  4  5  1  0
  5  6  1  0
  6  7  1  0
  7  8  1  0
  8  9  1  0
  9 10  1  0
 10 11  1  0
 11 12  2  0
 11 13  1  0
 11 14  1  0
  8 15  1  0
 15 16  1  0
 15 17  1  0
 17 18  1  0
  5 19  1  0
 19 20  2  0
 19 21  1  0
 21  2  1  0
 17  6  1  0
  3 22  1  0
  4 23  1  0
  6 24  1  1
  8 25  1  1
  9 26  1  0
  9 27  1  0
 15 28  1  6
 16 29  1  0
 17 30  1  6
 18 31  1  0
 21 32  1  0
M  CHG  2  13  -1  14  -1
M  END
>  <meeko>  (1) 
{"is_sidechain": [false], "free_energy": -5.227, "intermolecular_energy": -6.755, "internal_energy": -0.738}

$$$$
3dxg_ligand
     RDKit          3D

 32 33  0  0  0  0  0  0  0  0999 V2000
    4.7310    8.0480   -3.1100 O   0  0  0  0  0  0  0  0  0  0  0  0
    4.7830    9.0800   -2.4480 C   0  0  0  0  0  0  0  0  0  0  0  0
    4.5210    9.1120   -1.0070 C   0  0  0  0  0  0  0  0  0  0  0  0
    4.6620   10.2690   -0.3560 C   0  0  0  0  0  0  0  0  0  0  0  0
    5.0080   11.4490   -0.9910 N   0  0  0  0  0  0  0  0  0  0  0  0
    5.2120   12.6840   -0.2330 C   0  0  2  0  0  0  0  0  0  0  0  0
    6.5770   13.1320   -0.2740 O   0  0  0  0  0  0  0  0  0  0  0  0
    7.2640   12.7030    0.9380 C   0  0  2  0  0  0  0  0  0  0  0  0
    8.4100   11.7320    0.6520 C   0  0  0  0  0  0  0  0  0  0  0  0
    8.5490   10.8210    1.7240 O   0  0  0  0  0  0  0  0  0  0  0  0
   10.1020   10.4990    2.1450 P   0  0  0  0  0  0  0  0  0  0  0  0
   10.6550   11.8580    2.5350 O   0  0  0  0  0  0  0  0  0  0  0  0
    9.9560    9.5030    3.2860 O   0  0  0  0  0  0  0  0  0  0  0  0
   10.7000    9.9070    0.8730 O   0  0  0  0  0  0  0  0  0  0  0  0
    6.2040   12.0540    1.8330 C   0  0  1  0  0  0  0  0  0  0  0  0
    6.3400   12.3940    3.2140 O   0  0  0  0  0  0  0  0  0  0  0  0
    4.9100   12.6200    1.2690 C   0  0  1  0  0  0  0  0  0  0  0  0
    4.7300   13.9570    1.8150 O   0  0  0  0  0  0  0  0  0  0  0  0
    5.3230   11.4570   -2.3400 C   0  0  0  0  0  0  0  0  0  0  0  0
    5.7580   12.4360   -2.9470 O   0  0  0  0  0  0  0  0  0  0  0  0
    5.1300   10.2770   -3.0090 N   0  0  0  0  0  0  0  0  0  0  0  0
    4.2143    8.2010   -0.4721 H   0  0  0  0  0  0  0  0  0  0  0  0
    4.4961   10.2851    0.7313 H   0  0  0  0  0  0  0  0  0  0  0  0
    4.4981   13.3521   -0.7370 H   0  0  0  0  0  0  0  0  0  0  0  0
    7.7325   13.5684    1.4295 H   0  0  0  0  0  0  0  0  0  0  0  0
    8.1950   11.1766   -0.2728 H   0  0  0  0  0  0  0  0  0  0  0  0
    9.3449   12.2999    0.5365 H   0  0  0  0  0  0  0  0  0  0  0  0
    6.2715   10.9561    1.8209 H   0  0  0  0  0  0  0  0  0  0  0  0
    7.2780   12.2250    3.4310 H   0  0  0  0  0  0  0  0  0  0  0  0
    4.0024   12.0423    1.4983 H   0  0  0  0  0  0  0  0  0  0  0  0
    4.0410   14.3790    1.2620 H   0  0  0  0  0  0  0  0  0  0  0  0
    5.3590   10.2650   -3.9870 H   0  0  0  0  0  0  0  0  0  0  0  0
  1  2  2  0
  2  3  1  0
  3  4  2  0
  4  5  1  0
  5  6  1  0
  6  7  1  0
  7  8  1  0
  8  9  1  0
  9 10  1  0
 10 11  1  0
 11 12  2  0
 11 13  1  0
 11 14  1  0
  8 15  1  0
 15 16  1  0
 15 17  1  0
 17 18  1  0
  5 19  1  0
 19 20  2  0
 19 21  1  0
 21  2  1  0
 17  6  1  0
  3 22  1  0
  4 23  1  0
  6 24  1  6
  8 25  1  1
  9 26  1  0
  9 27  1  0
 15 28  1  1
 16 29  1  0
 17 30  1  6
 18 31  1  0
 21 32  1  0
M  CHG  2  13  -1  14  -1
M  END
>  <meeko>  (2) 
{"is_sidechain": [false], "free_energy": -5.187, "intermolecular_energy": -7.084, "internal_energy": -0.358}

$$$$
3dxg_ligand
     RDKit          3D

 32 33  0  0  0  0  0  0  0  0999 V2000
   -6.7070    4.2300   -1.0800 O   0  0  0  0  0  0  0  0  0  0  0  0
   -5.8450    3.9300   -1.9000 C   0  0  0  0  0  0  0  0  0  0  0  0
   -6.0600    4.0200   -3.3460 C   0  0  0  0  0  0  0  0  0  0  0  0
   -5.0450    3.7330   -4.1640 C   0  0  0  0  0  0  0  0  0  0  0  0
   -3.8070    3.3160   -3.7050 N   0  0  0  0  0  0  0  0  0  0  0  0
   -2.7010    3.0690   -4.6310 C   0  0  2  0  0  0  0  0  0  0  0  0
   -1.4660    3.6420   -4.1720 O   0  0  0  0  0  0  0  0  0  0  0  0
   -1.2530    4.9240   -4.8310 C   0  0  2  0  0  0  0  0  0  0  0  0
   -1.2370    6.0960   -3.8480 C   0  0  0  0  0  0  0  0  0  0  0  0
   -1.5960    7.2900   -4.5150 O   0  0  0  0  0  0  0  0  0  0  0  0
   -0.3240    8.2260   -4.9620 P   0  0  0  0  0  0  0  0  0  0  0  0
   -0.7190    9.6130   -4.4880 O   0  0  0  0  0  0  0  0  0  0  0  0
    0.8500    7.5960   -4.2260 O   0  0  0  0  0  0  0  0  0  0  0  0
   -0.2730    8.0580   -6.4760 O   0  0  0  0  0  0  0  0  0  0  0  0
   -2.3810    5.0810   -5.8550 C   0  0  1  0  0  0  0  0  0  0  0  0
   -1.9480    5.6340   -7.1000 O   0  0  0  0  0  0  0  0  0  0  0  0
   -2.8520    3.6470   -6.0430 C   0  0  1  0  0  0  0  0  0  0  0  0
   -1.9380    2.9920   -6.9680 O   0  0  0  0  0  0  0  0  0  0  0  0
   -3.5380    3.2710   -2.3470 C   0  0  0  0  0  0  0  0  0  0  0  0
   -2.4300    3.0320   -1.8650 O   0  0  0  0  0  0  0  0  0  0  0  0
   -4.5980    3.5220   -1.5160 N   0  0  0  0  0  0  0  0  0  0  0  0
   -7.0387    4.3183   -3.7500 H   0  0  0  0  0  0  0  0  0  0  0  0
   -5.1986    3.8320   -5.2487 H   0  0  0  0  0  0  0  0  0  0  0  0
   -2.7072    1.9696   -4.6674 H   0  0  0  0  0  0  0  0  0  0  0  0
   -0.2648    4.9367   -5.3139 H   0  0  0  0  0  0  0  0  0  0  0  0
   -1.9545    5.9015   -3.0372 H   0  0  0  0  0  0  0  0  0  0  0  0
   -0.2248    6.2048   -3.4314 H   0  0  0  0  0  0  0  0  0  0  0  0
   -3.1562    5.7804   -5.5088 H   0  0  0  0  0  0  0  0  0  0  0  0
   -1.6090    4.8760   -7.6150 H   0  0  0  0  0  0  0  0  0  0  0  0
   -3.8695    3.5331   -6.4450 H   0  0  0  0  0  0  0  0  0  0  0  0
   -1.8910    3.5750   -7.7520 H   0  0  0  0  0  0  0  0  0  0  0  0
   -4.4180    3.4980   -0.5280 H   0  0  0  0  0  0  0  0  0  0  0  0
  1  2  2  0
  2  3  1  0
  3  4  2  0
  4  5  1  0
  5  6  1  0
  6  7  1  0
  7  8  1  0
  8  9  1  0
  9 10  1  0
 10 11  1  0
 11 12  2  0
 11 13  1  0
 11 14  1  0
  8 15  1  0
 15 16  1  0
 15 17  1  0
 17 18  1  0
  5 19  1  0
 19 20  2  0
 19 21  1  0
 21  2  1  0
 17  6  1  0
  3 22  1  0
  4 23  1  0
  6 24  1  6
  8 25  1  6
  9 26  1  0
  9 27  1  0
 15 28  1  1
 16 29  1  0
 17 30  1  6
 18 31  1  0
 21 32  1  0
M  CHG  2  13  -1  14  -1
M  END
>  <meeko>  (3) 
{"is_sidechain": [false], "free_energy": -5.18, "intermolecular_energy": -6.945, "internal_energy": -0.487}

$$$$
3dxg_ligand
     RDKit          3D

 32 33  0  0  0  0  0  0  0  0999 V2000
   -1.8970    8.0190   -7.0000 O   0  0  0  0  0  0  0  0  0  0  0  0
   -2.0650    7.0390   -6.2810 C   0  0  0  0  0  0  0  0  0  0  0  0
   -2.8630    5.8810   -6.6910 C   0  0  0  0  0  0  0  0  0  0  0  0
   -2.9400    4.8330   -5.8690 C   0  0  0  0  0  0  0  0  0  0  0  0
   -2.3320    4.8080   -4.6260 N   0  0  0  0  0  0  0  0  0  0  0  0
   -2.3900    3.6170   -3.7790 C   0  0  2  0  0  0  0  0  0  0  0  0
   -3.3150    2.6370   -4.2750 O   0  0  0  0  0  0  0  0  0  0  0  0
   -4.5810    2.7610   -3.5630 C   0  0  2  0  0  0  0  0  0  0  0  0
   -5.7380    3.1550   -4.4820 C   0  0  0  0  0  0  0  0  0  0  0  0
   -6.8860    3.4490   -3.7120 O   0  0  0  0  0  0  0  0  0  0  0  0
   -7.8280    2.1490   -3.3730 P   0  0  0  0  0  0  0  0  0  0  0  0
   -7.4060    1.7600   -1.9670 O   0  0  0  0  0  0  0  0  0  0  0  0
   -9.2410    2.6970   -3.5020 O   0  0  0  0  0  0  0  0  0  0  0  0
   -7.4480    1.1430   -4.4550 O   0  0  0  0  0  0  0  0  0  0  0  0
   -4.3640    3.8120   -2.4700 C   0  0  1  0  0  0  0  0  0  0  0  0
   -4.9780    3.4740   -1.2250 O   0  0  0  0  0  0  0  0  0  0  0  0
   -2.8500    3.8310   -2.3320 C   0  0  1  0  0  0  0  0  0  0  0  0
   -2.4620    2.7040   -1.4960 O   0  0  0  0  0  0  0  0  0  0  0  0
   -1.5200    5.8550   -4.2180 C   0  0  0  0  0  0  0  0  0  0  0  0
   -0.8480    5.8520   -3.1870 O   0  0  0  0  0  0  0  0  0  0  0  0
   -1.4840    6.9450   -5.0470 N   0  0  0  0  0  0  0  0  0  0  0  0
   -3.3883    5.8756   -7.6574 H   0  0  0  0  0  0  0  0  0  0  0  0
   -3.5114    3.9507   -6.1932 H   0  0  0  0  0  0  0  0  0  0  0  0
   -1.3366    3.3009   -3.8013 H   0  0  0  0  0  0  0  0  0  0  0  0
   -4.8682    1.7882   -3.1373 H   0  0  0  0  0  0  0  0  0  0  0  0
   -5.4536    4.0426   -5.0662 H   0  0  0  0  0  0  0  0  0  0  0  0
   -5.9619    2.3188   -5.1608 H   0  0  0  0  0  0  0  0  0  0  0  0
   -4.8152    4.7798   -2.7343 H   0  0  0  0  0  0  0  0  0  0  0  0
   -5.9390    3.4610   -1.4050 H   0  0  0  0  0  0  0  0  0  0  0  0
   -2.4283    4.7408   -1.8799 H   0  0  0  0  0  0  0  0  0  0  0  0
   -2.1160    2.0250   -2.1090 H   0  0  0  0  0  0  0  0  0  0  0  0
   -0.8960    7.7100   -4.7680 H   0  0  0  0  0  0  0  0  0  0  0  0
  1  2  2  0
  2  3  1  0
  3  4  2  0
  4  5  1  0
  5  6  1  0
  6  7  1  0
  7  8  1  0
  8  9  1  0
  9 10  1  0
 10 11  1  0
 11 12  2  0
 11 13  1  0
 11 14  1  0
  8 15  1  0
 15 16  1  0
 15 17  1  0
 17 18  1  0
  5 19  1  0
 19 20  2  0
 19 21  1  0
 21  2  1  0
 17  6  1  0
  3 22  1  0
  4 23  1  0
  6 24  1  1
  8 25  1  1
  9 26  1  0
  9 27  1  0
 15 28  1  6
 16 29  1  0
 17 30  1  1
 18 31  1  0
 21 32  1  0
M  CHG  2  13  -1  14  -1
M  END
>  <meeko>  (4) 
{"is_sidechain": [false], "free_energy": -5.103, "intermolecular_energy": -6.765, "internal_energy": -0.568}

$$$$
3dxg_ligand
     RDKit          3D

 32 33  0  0  0  0  0  0  0  0999 V2000
   -3.3090    9.5600   -5.9380 O   0  0  0  0  0  0  0  0  0  0  0  0
   -3.0750    8.3870   -5.6640 C   0  0  0  0  0  0  0  0  0  0  0  0
   -3.9870    7.2940   -6.0090 C   0  0  0  0  0  0  0  0  0  0  0  0
   -3.6220    6.0420   -5.7280 C   0  0  0  0  0  0  0  0  0  0  0  0
   -2.4350    5.7330   -5.0860 N   0  0  0  0  0  0  0  0  0  0  0  0
   -2.0420    4.3440   -4.8480 C   0  0  2  0  0  0  0  0  0  0  0  0
   -3.1090    3.4210   -5.1140 O   0  0  0  0  0  0  0  0  0  0  0  0
   -3.7680    3.0680   -3.8630 C   0  0  2  0  0  0  0  0  0  0  0  0
   -5.2310    3.5110   -3.8230 C   0  0  0  0  0  0  0  0  0  0  0  0
   -5.9250    2.7920   -2.8230 O   0  0  0  0  0  0  0  0  0  0  0  0
   -6.7070    3.7330   -1.7290 P   0  0  0  0  0  0  0  0  0  0  0  0
   -5.6230    4.0910   -0.7270 O   0  0  0  0  0  0  0  0  0  0  0  0
   -7.2250    4.8900   -2.5700 O   0  0  0  0  0  0  0  0  0  0  0  0
   -7.7990    2.8170   -1.1880 O   0  0  0  0  0  0  0  0  0  0  0  0
   -2.9610    3.7310   -2.7440 C   0  0  1  0  0  0  0  0  0  0  0  0
   -2.7930    2.9000   -1.5930 O   0  0  0  0  0  0  0  0  0  0  0  0
   -1.6220    3.9900   -3.4160 C   0  0  1  0  0  0  0  0  0  0  0  0
   -0.8620    2.7480   -3.3950 O   0  0  0  0  0  0  0  0  0  0  0  0
   -1.5140    6.7270   -4.7920 C   0  0  0  0  0  0  0  0  0  0  0  0
   -0.3890    6.5190   -4.3380 O   0  0  0  0  0  0  0  0  0  0  0  0
   -1.9170    8.0120   -5.0420 N   0  0  0  0  0  0  0  0  0  0  0  0
   -4.9541    7.5015   -6.4904 H   0  0  0  0  0  0  0  0  0  0  0  0
   -4.2928    5.2201   -6.0188 H   0  0  0  0  0  0  0  0  0  0  0  0
   -1.1832    4.2559   -5.5296 H   0  0  0  0  0  0  0  0  0  0  0  0
   -3.7937    1.9743   -3.7483 H   0  0  0  0  0  0  0  0  0  0  0  0
   -5.2802    4.5868   -3.5990 H   0  0  0  0  0  0  0  0  0  0  0  0
   -5.6960    3.3125   -4.7999 H   0  0  0  0  0  0  0  0  0  0  0  0
   -3.4619    4.6288   -2.3527 H   0  0  0  0  0  0  0  0  0  0  0  0
   -3.3140    2.0940   -1.7780 H   0  0  0  0  0  0  0  0  0  0  0  0
   -1.0010    4.7678   -2.9476 H   0  0  0  0  0  0  0  0  0  0  0  0
   -1.3550    2.1250   -3.9660 H   0  0  0  0  0  0  0  0  0  0  0  0
   -1.2590    8.7430   -4.8390 H   0  0  0  0  0  0  0  0  0  0  0  0
  1  2  2  0
  2  3  1  0
  3  4  2  0
  4  5  1  0
  5  6  1  0
  6  7  1  0
  7  8  1  0
  8  9  1  0
  9 10  1  0
 10 11  1  0
 11 12  2  0
 11 13  1  0
 11 14  1  0
  8 15  1  0
 15 16  1  0
 15 17  1  0
 17 18  1  0
  5 19  1  0
 19 20  2  0
 19 21  1  0
 21  2  1  0
 17  6  1  0
  3 22  1  0
  4 23  1  0
  6 24  1  6
  8 25  1  1
  9 26  1  0
  9 27  1  0
 15 28  1  1
 16 29  1  0
 17 30  1  1
 18 31  1  0
 21 32  1  0
M  CHG  2  13  -1  14  -1
M  END
>  <meeko>  (5) 
{"is_sidechain": [false], "free_energy": -4.996, "intermolecular_energy": -6.781, "internal_energy": -0.414}

$$$$
3dxg_ligand
     RDKit          3D

 32 33  0  0  0  0  0  0  0  0999 V2000
    1.2710    8.4830   -4.8310 O   0  0  0  0  0  0  0  0  0  0  0  0
    0.7010    7.5070   -4.3540 C   0  0  0  0  0  0  0  0  0  0  0  0
   -0.7030    7.5330   -3.9370 C   0  0  0  0  0  0  0  0  0  0  0  0
   -1.2600    6.4060   -3.4880 C   0  0  0  0  0  0  0  0  0  0  0  0
   -0.5550    5.2210   -3.3610 N   0  0  0  0  0  0  0  0  0  0  0  0
   -1.2160    3.9920   -2.9210 C   0  0  2  0  0  0  0  0  0  0  0  0
   -1.3990    3.0550   -3.9940 O   0  0  0  0  0  0  0  0  0  0  0  0
   -2.7570    3.1700   -4.5110 C   0  0  2  0  0  0  0  0  0  0  0  0
   -2.7950    3.6290   -5.9690 C   0  0  0  0  0  0  0  0  0  0  0  0
   -1.5140    4.0730   -6.3680 O   0  0  0  0  0  0  0  0  0  0  0  0
   -1.5240    5.4080   -7.3230 P   0  0  0  0  0  0  0  0  0  0  0  0
   -0.1280    5.9800   -7.1520 O   0  0  0  0  0  0  0  0  0  0  0  0
   -1.8350    4.8490   -8.7030 O   0  0  0  0  0  0  0  0  0  0  0  0
   -2.6410    6.2600   -6.7300 O   0  0  0  0  0  0  0  0  0  0  0  0
   -3.4870    4.1630   -3.6020 C   0  0  1  0  0  0  0  0  0  0  0  0
   -4.8290    3.7780   -3.2980 O   0  0  0  0  0  0  0  0  0  0  0  0
   -2.6290    4.1460   -2.3460 C   0  0  1  0  0  0  0  0  0  0  0  0
   -2.9990    2.9730   -1.5670 O   0  0  0  0  0  0  0  0  0  0  0  0
    0.7570    5.1320   -3.7960 C   0  0  0  0  0  0  0  0  0  0  0  0
    1.4070    4.0870   -3.8330 O   0  0  0  0  0  0  0  0  0  0  0  0
    1.3330    6.3030   -4.2120 N   0  0  0  0  0  0  0  0  0  0  0  0
   -1.2872    8.4634   -3.9928 H   0  0  0  0  0  0  0  0  0  0  0  0
   -2.3235    6.4192   -3.2072 H   0  0  0  0  0  0  0  0  0  0  0  0
   -0.5205    3.6566   -2.1375 H   0  0  0  0  0  0  0  0  0  0  0  0
   -3.2446    2.1840   -4.5050 H   0  0  0  0  0  0  0  0  0  0  0  0
   -3.1049    2.7888   -6.6077 H   0  0  0  0  0  0  0  0  0  0  0  0
   -3.5122    4.4570   -6.0690 H   0  0  0  0  0  0  0  0  0  0  0  0
   -3.5949    5.1503   -4.0748 H   0  0  0  0  0  0  0  0  0  0  0  0
   -4.8260    2.8010   -3.3110 H   0  0  0  0  0  0  0  0  0  0  0  0
   -2.7305    5.0249   -1.6923 H   0  0  0  0  0  0  0  0  0  0  0  0
   -2.3950    2.2600   -1.8570 H   0  0  0  0  0  0  0  0  0  0  0  0
    2.2830    6.2540   -4.5360 H   0  0  0  0  0  0  0  0  0  0  0  0
  1  2  2  0
  2  3  1  0
  3  4  2  0
  4  5  1  0
  5  6  1  0
  6  7  1  0
  7  8  1  0
  8  9  1  0
  9 10  1  0
 10 11  1  0
 11 12  2  0
 11 13  1  0
 11 14  1  0
  8 15  1  0
 15 16  1  0
 15 17  1  0
 17 18  1  0
  5 19  1  0
 19 20  2  0
 19 21  1  0
 21  2  1  0
 17  6  1  0
  3 22  1  0
  4 23  1  0
  6 24  1  1
  8 25  1  6
  9 26  1  0
  9 27  1  0
 15 28  1  6
 16 29  1  0
 17 30  1  1
 18 31  1  0
 21 32  1  0
M  CHG  2  13  -1  14  -1
M  END
>  <meeko>  (6) 
{"is_sidechain": [false], "free_energy": -4.947, "intermolecular_energy": -6.38, "internal_energy": -0.751}

$$$$
3dxg_ligand
     RDKit          3D

 32 33  0  0  0  0  0  0  0  0999 V2000
   -8.5230    5.3810    1.3630 O   0  0  0  0  0  0  0  0  0  0  0  0
   -8.2600    4.6020    0.4520 C   0  0  0  0  0  0  0  0  0  0  0  0
   -6.8990    4.3980   -0.0500 C   0  0  0  0  0  0  0  0  0  0  0  0
   -6.6970    3.4840   -1.0010 C   0  0  0  0  0  0  0  0  0  0  0  0
   -7.7260    2.7470   -1.5630 N   0  0  0  0  0  0  0  0  0  0  0  0
   -7.4570    1.7120   -2.5610 C   0  0  2  0  0  0  0  0  0  0  0  0
   -6.2770    1.9890   -3.3320 O   0  0  0  0  0  0  0  0  0  0  0  0
   -6.6590    2.5990   -4.5990 C   0  0  2  0  0  0  0  0  0  0  0  0
   -6.1240    4.0240   -4.7500 C   0  0  0  0  0  0  0  0  0  0  0  0
   -4.8790    4.1450   -4.0920 O   0  0  0  0  0  0  0  0  0  0  0  0
   -3.5740    3.9930   -5.0760 P   0  0  0  0  0  0  0  0  0  0  0  0
   -3.1430    2.5500   -4.8760 O   0  0  0  0  0  0  0  0  0  0  0  0
   -4.1330    4.3200   -6.4520 O   0  0  0  0  0  0  0  0  0  0  0  0
   -2.5980    5.0320   -4.5350 O   0  0  0  0  0  0  0  0  0  0  0  0
   -8.1890    2.5780   -4.6500 C   0  0  1  0  0  0  0  0  0  0  0  0
   -8.7120    2.2380   -5.9360 O   0  0  0  0  0  0  0  0  0  0  0  0
   -8.5330    1.5010   -3.6320 C   0  0  1  0  0  0  0  0  0  0  0  0
   -8.3710    0.2060   -4.2770 O   0  0  0  0  0  0  0  0  0  0  0  0
   -9.0200    2.8630   -1.0820 C   0  0  0  0  0  0  0  0  0  0  0  0
   -9.9610    2.1550   -1.4420 O   0  0  0  0  0  0  0  0  0  0  0  0
   -9.2250    3.8350   -0.1390 N   0  0  0  0  0  0  0  0  0  0  0  0
   -6.0599    4.9868    0.3492 H   0  0  0  0  0  0  0  0  0  0  0  0
   -5.6699    3.3086   -1.3534 H   0  0  0  0  0  0  0  0  0  0  0  0
   -7.3819    0.8236   -1.9167 H   0  0  0  0  0  0  0  0  0  0  0  0
   -6.2202    2.0335   -5.4343 H   0  0  0  0  0  0  0  0  0  0  0  0
   -5.9954    4.2536   -5.8181 H   0  0  0  0  0  0  0  0  0  0  0  0
   -6.8399    4.7280   -4.3007 H   0  0  0  0  0  0  0  0  0  0  0  0
   -8.6214    3.5675   -4.4405 H   0  0  0  0  0  0  0  0  0  0  0  0
   -9.6830    2.2430   -5.8280 H   0  0  0  0  0  0  0  0  0  0  0  0
   -9.5543    1.5442   -3.2257 H   0  0  0  0  0  0  0  0  0  0  0  0
   -7.4090    0.0270   -4.2760 H   0  0  0  0  0  0  0  0  0  0  0  0
  -10.1570    3.9280    0.2240 H   0  0  0  0  0  0  0  0  0  0  0  0
  1  2  2  0
  2  3  1  0
  3  4  2  0
  4  5  1  0
  5  6  1  0
  6  7  1  0
  7  8  1  0
  8  9  1  0
  9 10  1  0
 10 11  1  0
 11 12  2  0
 11 13  1  0
 11 14  1  0
  8 15  1  0
 15 16  1  0
 15 17  1  0
 17 18  1  0
  5 19  1  0
 19 20  2  0
 19 21  1  0
 21  2  1  0
 17  6  1  0
  3 22  1  0
  4 23  1  0
  6 24  1  1
  8 25  1  6
  9 26  1  0
  9 27  1  0
 15 28  1  1
 16 29  1  0
 17 30  1  1
 18 31  1  0
 21 32  1  0
M  CHG  2  13  -1  14  -1
M  END
>  <meeko>  (7) 
{"is_sidechain": [false], "free_energy": -4.908, "intermolecular_energy": -6.987, "internal_energy": -0.093}

$$$$
3dxg_ligand
     RDKit          3D

 32 33  0  0  0  0  0  0  0  0999 V2000
    4.4020    7.7970   -2.8930 O   0  0  0  0  0  0  0  0  0  0  0  0
    4.5630    8.8090   -2.2190 C   0  0  0  0  0  0  0  0  0  0  0  0
    4.7840   10.1310   -2.8100 C   0  0  0  0  0  0  0  0  0  0  0  0
    4.8860   11.1870   -2.0000 C   0  0  0  0  0  0  0  0  0  0  0  0
    4.8330   11.0810   -0.6210 N   0  0  0  0  0  0  0  0  0  0  0  0
    4.8890   12.2690    0.2320 C   0  0  2  0  0  0  0  0  0  0  0  0
    5.5110   13.3850   -0.4250 O   0  0  0  0  0  0  0  0  0  0  0  0
    6.9070   13.4710   -0.0170 C   0  0  2  0  0  0  0  0  0  0  0  0
    7.8750   13.2680   -1.1830 C   0  0  0  0  0  0  0  0  0  0  0  0
    8.7950   12.2400   -0.8730 O   0  0  0  0  0  0  0  0  0  0  0  0
    8.8530   11.0260   -1.9770 P   0  0  0  0  0  0  0  0  0  0  0  0
    8.1970   11.6300   -3.2060 O   0  0  0  0  0  0  0  0  0  0  0  0
   10.3430   10.7430   -2.1060 O   0  0  0  0  0  0  0  0  0  0  0  0
    8.0600    9.9050   -1.3150 O   0  0  0  0  0  0  0  0  0  0  0  0
    7.1130   12.4030    1.0610 C   0  0  1  0  0  0  0  0  0  0  0  0
    7.9290   12.8410    2.1490 O   0  0  0  0  0  0  0  0  0  0  0  0
    5.6920   12.1370    1.5320 C   0  0  1  0  0  0  0  0  0  0  0  0
    5.3270   13.1890    2.4710 O   0  0  0  0  0  0  0  0  0  0  0  0
    4.5680    9.8620   -0.0170 C   0  0  0  0  0  0  0  0  0  0  0  0
    4.3830    9.7100    1.1900 O   0  0  0  0  0  0  0  0  0  0  0  0
    4.5110    8.7780   -0.8530 N   0  0  0  0  0  0  0  0  0  0  0  0
    4.8644   10.2512   -3.9005 H   0  0  0  0  0  0  0  0  0  0  0  0
    5.0177   12.1833   -2.4472 H   0  0  0  0  0  0  0  0  0  0  0  0
    3.8212   12.4097    0.4558 H   0  0  0  0  0  0  0  0  0  0  0  0
    7.1230   14.4789    0.3669 H   0  0  0  0  0  0  0  0  0  0  0  0
    7.3077   12.9901   -2.0835 H   0  0  0  0  0  0  0  0  0  0  0  0
    8.4252   14.2033   -1.3632 H   0  0  0  0  0  0  0  0  0  0  0  0
    7.6425   11.5215    0.6704 H   0  0  0  0  0  0  0  0  0  0  0  0
    7.5890   13.7260    2.3860 H   0  0  0  0  0  0  0  0  0  0  0  0
    5.5345   11.1717    2.0354 H   0  0  0  0  0  0  0  0  0  0  0  0
    6.1600   13.4530    2.9110 H   0  0  0  0  0  0  0  0  0  0  0  0
    4.3150    7.8880   -0.4310 H   0  0  0  0  0  0  0  0  0  0  0  0
  1  2  2  0
  2  3  1  0
  3  4  2  0
  4  5  1  0
  5  6  1  0
  6  7  1  0
  7  8  1  0
  8  9  1  0
  9 10  1  0
 10 11  1  0
 11 12  2  0
 11 13  1  0
 11 14  1  0
  8 15  1  0
 15 16  1  0
 15 17  1  0
 17 18  1  0
  5 19  1  0
 19 20  2  0
 19 21  1  0
 21  2  1  0
 17  6  1  0
  3 22  1  0
  4 23  1  0
  6 24  1  1
  8 25  1  1
  9 26  1  0
  9 27  1  0
 15 28  1  6
 16 29  1  0
 17 30  1  1
 18 31  1  0
 21 32  1  0
M  CHG  2  13  -1  14  -1
M  END
>  <meeko>  (8) 
{"is_sidechain": [false], "free_energy": -4.872, "intermolecular_energy": -6.427, "internal_energy": -0.607}

$$$$
3dxg_ligand
     RDKit          3D

 32 33  0  0  0  0  0  0  0  0999 V2000
   -6.2620    3.9780   -0.5500 O   0  0  0  0  0  0  0  0  0  0  0  0
   -5.4680    3.8970   -1.4830 C   0  0  0  0  0  0  0  0  0  0  0  0
   -5.8900    3.8780   -2.8850 C   0  0  0  0  0  0  0  0  0  0  0  0
   -4.9540    3.8520   -3.8360 C   0  0  0  0  0  0  0  0  0  0  0  0
   -3.5990    3.8020   -3.5530 N   0  0  0  0  0  0  0  0  0  0  0  0
   -2.6020    3.8350   -4.6220 C   0  0  2  0  0  0  0  0  0  0  0  0
   -2.1460    5.1680   -4.9050 O   0  0  0  0  0  0  0  0  0  0  0  0
   -2.8680    5.6920   -6.0570 C   0  0  2  0  0  0  0  0  0  0  0  0
   -3.7210    6.9140   -5.7100 C   0  0  0  0  0  0  0  0  0  0  0  0
   -4.8590    6.9600   -6.5470 O   0  0  0  0  0  0  0  0  0  0  0  0
   -4.7780    8.0810   -7.7430 P   0  0  0  0  0  0  0  0  0  0  0  0
   -3.6120    8.9600   -7.3290 O   0  0  0  0  0  0  0  0  0  0  0  0
   -4.5510    7.2430   -8.9930 O   0  0  0  0  0  0  0  0  0  0  0  0
   -6.1420    8.7600   -7.6870 O   0  0  0  0  0  0  0  0  0  0  0  0
   -3.7370    4.5480   -6.5850 C   0  0  1  0  0  0  0  0  0  0  0  0
   -3.7660    4.4660   -8.0120 O   0  0  0  0  0  0  0  0  0  0  0  0
   -3.0560    3.3230   -5.9950 C   0  0  1  0  0  0  0  0  0  0  0  0
   -1.9080    3.0010   -6.8300 O   0  0  0  0  0  0  0  0  0  0  0  0
   -3.1500    3.8770   -2.2450 C   0  0  0  0  0  0  0  0  0  0  0  0
   -1.9650    3.9640   -1.9210 O   0  0  0  0  0  0  0  0  0  0  0  0
   -4.1180    3.8570   -1.2750 N   0  0  0  0  0  0  0  0  0  0  0  0
   -6.9578    3.8850   -3.1493 H   0  0  0  0  0  0  0  0  0  0  0  0
   -5.2720    3.8711   -4.8889 H   0  0  0  0  0  0  0  0  0  0  0  0
   -1.8331    3.1699   -4.2020 H   0  0  0  0  0  0  0  0  0  0  0  0
   -2.1550    6.0412   -6.8184 H   0  0  0  0  0  0  0  0  0  0  0  0
   -4.0428    6.8479   -4.6602 H   0  0  0  0  0  0  0  0  0  0  0  0
   -3.1246    7.8261   -5.8595 H   0  0  0  0  0  0  0  0  0  0  0  0
   -4.7933    4.6706   -6.3035 H   0  0  0  0  0  0  0  0  0  0  0  0
   -3.3870    5.3110   -8.3260 H   0  0  0  0  0  0  0  0  0  0  0  0
   -3.6818    2.4207   -5.9295 H   0  0  0  0  0  0  0  0  0  0  0  0
   -1.9820    3.5770   -7.6170 H   0  0  0  0  0  0  0  0  0  0  0  0
   -3.8080    3.9160   -0.3210 H   0  0  0  0  0  0  0  0  0  0  0  0
  1  2  2  0
  2  3  1  0
  3  4  2  0
  4  5  1  0
  5  6  1  0
  6  7  1  0
  7  8  1  0
  8  9  1  0
  9 10  1  0
 10 11  1  0
 11 12  2  0
 11 13  1  0
 11 14  1  0
  8 15  1  0
 15 16  1  0
 15 17  1  0
 17 18  1  0
  5 19  1  0
 19 20  2  0
 19 21  1  0
 21  2  1  0
 17  6  1  0
  3 22  1  0
  4 23  1  0
  6 24  1  1
  8 25  1  6
  9 26  1  0
  9 27  1  0
 15 28  1  1
 16 29  1  0
 17 30  1  1
 18 31  1  0
 21 32  1  0
M  CHG  2  13  -1  14  -1
M  END
>  <meeko>  (9) 
{"is_sidechain": [false], "free_energy": -4.673, "intermolecular_energy": -6.16, "internal_energy": -0.617}

$$$$
