
     RDKit          3D

 23 26  0  0  0  0  0  0  0  0999 V2000
   -0.3740    2.1970  -19.5350 O   0  0  0  0  0  0  0  0  0  0  0  0
    0.0520    1.8330  -18.4460 C   0  0  0  0  0  0  0  0  0  0  0  0
    0.4310    0.4500  -18.1610 C   0  0  0  0  0  0  0  0  0  0  0  0
    0.8920    0.4790  -16.7850 C   0  0  0  0  0  0  0  0  0  0  0  0
    1.3730   -0.5690  -16.0450 C   0  0  0  0  0  0  0  0  0  0  0  0
    1.7570   -0.3350  -14.7330 C   0  0  0  0  0  0  0  0  0  0  0  0
    1.6490    0.9340  -14.1890 C   0  0  0  0  0  0  0  0  0  0  0  0
    1.1630    2.0000  -14.9340 C   0  0  0  0  0  0  0  0  0  0  0  0
    0.7780    1.7610  -16.2570 C   0  0  0  0  0  0  0  0  0  0  0  0
    0.2700    2.6360  -17.2640 C   0  0  0  0  0  0  0  0  0  0  0  0
    0.0220    4.0110  -17.2030 C   0  0  0  0  0  0  0  0  0  0  0  0
   -0.5080    4.7120  -16.0350 C   0  0  0  0  0  0  0  0  0  0  0  0
   -1.5380    4.1440  -15.3140 C   0  0  0  0  0  0  0  0  0  0  0  0
   -2.0860    4.7840  -14.2340 C   0  0  0  0  0  0  0  0  0  0  0  0
   -1.6000    6.0120  -13.8680 C   0  0  0  0  0  0  0  0  0  0  0  0
   -0.5810    6.6010  -14.5720 C   0  0  0  0  0  0  0  0  0  0  0  0
   -0.0030    5.9900  -15.6490 C   0  0  0  0  0  0  0  0  0  0  0  0
    1.1350    6.6610  -16.3580 C   0  0  0  0  0  0  0  0  0  0  0  0
    1.3190    6.4560  -17.5630 O   0  0  0  0  0  0  0  0  0  0  0  0
    1.8870    7.3850  -15.6960 O   0  0  0  0  0  0  0  0  0  0  0  0
   -0.2670    7.8150  -14.0400 O   0  0  0  0  0  0  0  0  0  0  0  0
   -1.1290    7.9780  -12.8880 C   0  0  0  0  0  0  0  0  0  0  0  0
   -1.9740    6.8340  -12.8580 O   0  0  0  0  0  0  0  0  0  0  0  0
  2  1  2  0
  3  2  1  0
  4  3  1  0
  5  4  2  0
  6  5  1  0
  7  6  2  0
  8  7  1  0
  9  4  1  0
  9  8  2  0
 10  2  1  0
 10  9  1  0
 11 10  2  3
 12 11  1  0
 13 12  2  0
 14 13  1  0
 15 14  2  0
 16 15  1  0
 17 12  1  0
 17 16  2  0
 18 17  1  0
 19 18  2  0
 20 18  1  0
 21 16  1  0
 22 21  1  0
 23 22  1  0
 23 15  1  0
M  CHG  1  20  -1
M  END
$$$$
