
     RDKit          3D

 19 20  0  0  0  0  0  0  0  0999 V2000
    7.3240    9.8220   -1.3890 O   0  0  0  0  0  0  0  0  0  0  0  0
    7.5390    9.9600   -2.5850 C   0  0  0  0  0  0  0  0  0  0  0  0
    8.6610   10.2360   -3.0330 O   0  0  0  0  0  0  0  0  0  0  0  0
    6.3950    9.8030   -3.5520 C   0  0  0  0  0  0  0  0  0  0  0  0
    5.1550    9.3930   -3.0810 C   0  0  0  0  0  0  0  0  0  0  0  0
    4.0820    9.2490   -3.9440 C   0  0  0  0  0  0  0  0  0  0  0  0
    4.2490    9.5040   -5.2820 C   0  0  0  0  0  0  0  0  0  0  0  0
    5.4850    9.9050   -5.7650 C   0  0  0  0  0  0  0  0  0  0  0  0
    6.5670   10.0730   -4.9210 C   0  0  0  0  0  0  0  0  0  0  0  0
    7.8150   10.4750   -5.3990 N   0  0  0  0  0  0  0  0  0  0  0  0
    8.0990   11.1120   -6.6090 C   0  0  0  0  0  0  0  0  0  0  0  0
    7.1050   11.6390   -7.3980 C   0  0  0  0  0  0  0  0  0  0  0  0
    7.4060   12.2750   -8.5880 C   0  0  0  0  0  0  0  0  0  0  0  0
    8.7030   12.3970   -8.9970 C   0  0  0  0  0  0  0  0  0  0  0  0
    9.7250   11.8880   -8.2050 C   0  0  0  0  0  0  0  0  0  0  0  0
    9.4430   11.2440   -7.0150 C   0  0  0  0  0  0  0  0  0  0  0  0
   10.5770   10.7010   -6.1870 C   0  0  0  0  0  0  0  0  0  0  0  0
   10.3210   10.0230   -5.2050 O   0  0  0  0  0  0  0  0  0  0  0  0
   11.7300   10.9640   -6.5420 O   0  0  0  0  0  0  0  0  0  0  0  0
  2  1  1  0
  3  2  2  0
  4  2  1  0
  5  4  2  0
  6  5  1  0
  7  6  2  0
  8  7  1  0
  9  8  2  0
  9  4  1  0
 10  9  1  0
 11 10  1  0
 12 11  2  0
 13 12  1  0
 14 13  2  0
 15 14  1  0
 16 15  2  0
 16 11  1  0
 17 16  1  0
 18 17  2  0
 19 17  1  0
M  CHG  2   1  -1  19  -1
M  END
$$$$
