2cbv_ligand
     RDKit          3D

 26 27  0  0  0  0  0  0  0  0999 V2000
    4.5540    7.2520   -1.5140 O   0  0  0  0  0  0  0  0  0  0  0  0
    5.6020    7.9790   -0.8860 C   0  0  2  0  0  0  0  0  0  0  0  0
    5.4070    9.4880   -1.1280 C   0  0  1  0  0  0  0  0  0  0  0  0
    4.2770    9.9760   -0.3980 O   0  0  0  0  0  0  0  0  0  0  0  0
    6.6640   10.2990   -0.7760 C   0  0  2  0  0  0  0  0  0  0  0  0
    6.5660   11.6190   -1.3190 O   0  0  0  0  0  0  0  0  0  0  0  0
    7.9510    9.6090   -1.3180 C   0  0  2  0  0  0  0  0  0  0  0  0
    9.0890   10.3640   -1.0120 O   0  0  0  0  0  0  0  0  0  0  0  0
    7.8820    9.2780   -2.8150 C   0  0  0  0  0  0  0  0  0  0  0  0
    7.2280    7.8900   -2.8850 C   0  0  0  0  0  0  0  0  0  0  0  0
    6.9710    7.4940   -1.4260 C   0  0  1  0  0  0  0  0  0  0  0  0
    8.0450    8.2590   -0.7180 N   0  0  0  0  0  0  0  0  0  0  0  0
    4.5280    7.5020   -2.4610 H   0  0  0  0  0  0  0  0  0  0  0  0
    5.5793    7.8013    0.1993 H   0  0  0  0  0  0  0  0  0  0  0  0
    5.2210    9.6209   -2.2040 H   0  0  0  0  0  0  0  0  0  0  0  0
    3.4480    9.8300   -0.8900 H   0  0  0  0  0  0  0  0  0  0  0  0
    6.7330   10.3541    0.3205 H   0  0  0  0  0  0  0  0  0  0  0  0
    6.8520   11.5780   -2.2570 H   0  0  0  0  0  0  0  0  0  0  0  0
    8.7920   11.0620   -0.3900 H   0  0  0  0  0  0  0  0  0  0  0  0
    7.2702   10.0210   -3.3475 H   0  0  0  0  0  0  0  0  0  0  0  0
    8.8753    9.2913   -3.2875 H   0  0  0  0  0  0  0  0  0  0  0  0
    6.2821    7.9368   -3.4446 H   0  0  0  0  0  0  0  0  0  0  0  0
    7.8667    7.1597   -3.4034 H   0  0  0  0  0  0  0  0  0  0  0  0
    6.9693    6.4018   -1.2949 H   0  0  0  0  0  0  0  0  0  0  0  0
    8.9840    7.9010   -0.9390 H   0  0  0  0  0  0  0  0  0  0  0  0
    7.9890    8.2780    0.3070 H   0  0  0  0  0  0  0  0  0  0  0  0
  1  2  1  0
  2  3  1  0
  3  4  1  0
  3  5  1  0
  5  6  1  0
  5  7  1  0
  7  8  1  6
  7  9  1  0
  9 10  1  0
 10 11  1  0
 11 12  1  0
 11  2  1  0
 12  7  1  0
  1 13  1  0
  2 14  1  1
  3 15  1  6
  4 16  1  0
  5 17  1  1
  6 18  1  0
  8 19  1  0
  9 20  1  0
  9 21  1  0
 10 22  1  0
 10 23  1  0
 11 24  1  6
 12 25  1  0
 12 26  1  0
M  CHG  1  12   1
M  END
>  <meeko>  (1) 
{"is_sidechain": [false], "free_energy": -6.145, "intermolecular_energy": -6.864, "internal_energy": 0.0}

$$$$
2cbv_ligand
     RDKit          3D

 26 27  0  0  0  0  0  0  0  0999 V2000
    3.8240   10.5430   -2.2160 O   0  0  0  0  0  0  0  0  0  0  0  0
    4.8100    9.9920   -1.3530 C   0  0  2  0  0  0  0  0  0  0  0  0
    6.1910   10.5820   -1.6970 C   0  0  1  0  0  0  0  0  0  0  0  0
    6.2600   11.9620   -1.3250 O   0  0  0  0  0  0  0  0  0  0  0  0
    7.3370    9.7930   -1.0440 C   0  0  2  0  0  0  0  0  0  0  0  0
    8.5860   10.1520   -1.6440 O   0  0  0  0  0  0  0  0  0  0  0  0
    7.1170    8.2570   -1.1850 C   0  0  2  0  0  0  0  0  0  0  0  0
    8.1750    7.5460   -0.6060 O   0  0  0  0  0  0  0  0  0  0  0  0
    6.8600    7.8070   -2.6290 C   0  0  0  0  0  0  0  0  0  0  0  0
    5.3430    7.9420   -2.8230 C   0  0  0  0  0  0  0  0  0  0  0  0
    4.8100    8.4480   -1.4770 C   0  0  1  0  0  0  0  0  0  0  0  0
    5.8360    7.9080   -0.5310 N   0  0  0  0  0  0  0  0  0  0  0  0
    2.9600   10.1310   -2.0030 H   0  0  0  0  0  0  0  0  0  0  0  0
    4.5777   10.2513   -0.3095 H   0  0  0  0  0  0  0  0  0  0  0  0
    6.3141   10.5003   -2.7870 H   0  0  0  0  0  0  0  0  0  0  0  0
    6.9330   12.1100   -0.6360 H   0  0  0  0  0  0  0  0  0  0  0  0
    7.3533   10.0469    0.0262 H   0  0  0  0  0  0  0  0  0  0  0  0
    9.0480   10.7620   -1.0290 H   0  0  0  0  0  0  0  0  0  0  0  0
    7.7640    6.8890   -0.0050 H   0  0  0  0  0  0  0  0  0  0  0  0
    7.3994    8.4532   -3.3372 H   0  0  0  0  0  0  0  0  0  0  0  0
    7.2101    6.7801   -2.8104 H   0  0  0  0  0  0  0  0  0  0  0  0
    5.1189    8.6634   -3.6226 H   0  0  0  0  0  0  0  0  0  0  0  0
    4.8793    6.9889   -3.1172 H   0  0  0  0  0  0  0  0  0  0  0  0
    3.7675    8.1393   -1.3101 H   0  0  0  0  0  0  0  0  0  0  0  0
    5.8040    6.8810   -0.4710 H   0  0  0  0  0  0  0  0  0  0  0  0
    5.7830    8.2440    0.4380 H   0  0  0  0  0  0  0  0  0  0  0  0
  1  2  1  0
  2  3  1  0
  3  4  1  0
  3  5  1  0
  5  6  1  0
  5  7  1  0
  7  8  1  1
  7  9  1  0
  9 10  1  0
 10 11  1  0
 11 12  1  0
 11  2  1  0
 12  7  1  0
  1 13  1  0
  2 14  1  1
  3 15  1  6
  4 16  1  0
  5 17  1  1
  6 18  1  0
  8 19  1  0
  9 20  1  0
  9 21  1  0
 10 22  1  0
 10 23  1  0
 11 24  1  1
 12 25  1  0
 12 26  1  0
M  CHG  1  12   1
M  END
>  <meeko>  (2) 
{"is_sidechain": [false], "free_energy": -6.082, "intermolecular_energy": -6.793, "internal_energy": 0.0}

$$$$
2cbv_ligand
     RDKit          3D

 26 27  0  0  0  0  0  0  0  0999 V2000
    6.5630   11.7690   -2.5600 O   0  0  0  0  0  0  0  0  0  0  0  0
    6.3580   10.8570   -1.4890 C   0  0  2  0  0  0  0  0  0  0  0  0
    7.3670    9.6970   -1.5930 C   0  0  1  0  0  0  0  0  0  0  0  0
    8.6920   10.1510   -1.3000 O   0  0  0  0  0  0  0  0  0  0  0  0
    6.9910    8.5180   -0.6820 C   0  0  2  0  0  0  0  0  0  0  0  0
    7.7400    7.3550   -1.0480 O   0  0  0  0  0  0  0  0  0  0  0  0
    5.4670    8.2020   -0.7700 C   0  0  2  0  0  0  0  0  0  0  0  0
    5.1350    7.1140    0.0460 O   0  0  0  0  0  0  0  0  0  0  0  0
    4.9660    8.0020   -2.2060 C   0  0  0  0  0  0  0  0  0  0  0  0
    4.6020    9.4090   -2.6990 C   0  0  0  0  0  0  0  0  0  0  0  0
    4.8990   10.3380   -1.5160 C   0  0  1  0  0  0  0  0  0  0  0  0
    4.7170    9.4090   -0.3570 N   0  0  0  0  0  0  0  0  0  0  0  0
    5.9450   12.5210   -2.4490 H   0  0  0  0  0  0  0  0  0  0  0  0
    6.5218   11.3682   -0.5289 H   0  0  0  0  0  0  0  0  0  0  0  0
    7.3352    9.3337   -2.6308 H   0  0  0  0  0  0  0  0  0  0  0  0
    9.2390   10.1910   -2.1060 H   0  0  0  0  0  0  0  0  0  0  0  0
    7.2306    8.8020    0.3533 H   0  0  0  0  0  0  0  0  0  0  0  0
    8.2790    7.0910   -0.2720 H   0  0  0  0  0  0  0  0  0  0  0  0
    4.8490    7.4950    0.9040 H   0  0  0  0  0  0  0  0  0  0  0  0
    5.7563    7.5647   -2.8339 H   0  0  0  0  0  0  0  0  0  0  0  0
    4.1096    7.3133   -2.2528 H   0  0  0  0  0  0  0  0  0  0  0  0
    5.2162    9.6839   -3.5692 H   0  0  0  0  0  0  0  0  0  0  0  0
    3.5517    9.4738   -3.0194 H   0  0  0  0  0  0  0  0  0  0  0  0
    4.2666   11.2378   -1.5365 H   0  0  0  0  0  0  0  0  0  0  0  0
    3.7350    9.1230   -0.2430 H   0  0  0  0  0  0  0  0  0  0  0  0
    5.0110    9.7640    0.5600 H   0  0  0  0  0  0  0  0  0  0  0  0
  1  2  1  0
  2  3  1  0
  3  4  1  0
  3  5  1  0
  5  6  1  0
  5  7  1  0
  7  8  1  1
  7  9  1  0
  9 10  1  0
 10 11  1  0
 11 12  1  0
 11  2  1  0
 12  7  1  0
  1 13  1  0
  2 14  1  1
  3 15  1  6
  4 16  1  0
  5 17  1  1
  6 18  1  0
  8 19  1  0
  9 20  1  0
  9 21  1  0
 10 22  1  0
 10 23  1  0
 11 24  1  1
 12 25  1  0
 12 26  1  0
M  CHG  1  12   1
M  END
>  <meeko>  (3) 
{"is_sidechain": [false], "free_energy": -5.845, "intermolecular_energy": -6.528, "internal_energy": 0.0}

$$$$
2cbv_ligand
     RDKit          3D

 26 27  0  0  0  0  0  0  0  0999 V2000
    5.1620    7.2340   -0.1150 O   0  0  0  0  0  0  0  0  0  0  0  0
    5.7420    7.7920   -1.2860 C   0  0  2  0  0  0  0  0  0  0  0  0
    7.1000    8.4320   -0.9410 C   0  0  1  0  0  0  0  0  0  0  0  0
    8.0680    7.4270   -0.6240 O   0  0  0  0  0  0  0  0  0  0  0  0
    7.6170    9.3380   -2.0700 C   0  0  2  0  0  0  0  0  0  0  0  0
    8.6850   10.1610   -1.5900 O   0  0  0  0  0  0  0  0  0  0  0  0
    6.4790   10.2400   -2.6350 C   0  0  2  0  0  0  0  0  0  0  0  0
    6.9630   11.0760   -3.6480 O   0  0  0  0  0  0  0  0  0  0  0  0
    5.7380   11.0370   -1.5540 C   0  0  0  0  0  0  0  0  0  0  0  0
    4.6200   10.1030   -1.0690 C   0  0  0  0  0  0  0  0  0  0  0  0
    4.7710    8.8280   -1.9070 C   0  0  1  0  0  0  0  0  0  0  0  0
    5.4040    9.3650   -3.1520 N   0  0  0  0  0  0  0  0  0  0  0  0
    4.3960    7.7870    0.1460 H   0  0  0  0  0  0  0  0  0  0  0  0
    5.9176    6.9994   -2.0283 H   0  0  0  0  0  0  0  0  0  0  0  0
    6.9424    9.0664   -0.0563 H   0  0  0  0  0  0  0  0  0  0  0  0
    7.9900    6.6600   -1.2200 H   0  0  0  0  0  0  0  0  0  0  0  0
    7.9842    8.6912   -2.8804 H   0  0  0  0  0  0  0  0  0  0  0  0
    8.3780   11.0930   -1.6170 H   0  0  0  0  0  0  0  0  0  0  0  0
    7.8900   10.8000   -3.8100 H   0  0  0  0  0  0  0  0  0  0  0  0
    6.4169   11.2899   -0.7263 H   0  0  0  0  0  0  0  0  0  0  0  0
    5.3436   11.9888   -1.9394 H   0  0  0  0  0  0  0  0  0  0  0  0
    4.7418    9.8783    0.0009 H   0  0  0  0  0  0  0  0  0  0  0  0
    3.6249   10.5569   -1.1860 H   0  0  0  0  0  0  0  0  0  0  0  0
    3.8121    8.3017   -2.0232 H   0  0  0  0  0  0  0  0  0  0  0  0
    4.7610    9.9690   -3.6820 H   0  0  0  0  0  0  0  0  0  0  0  0
    5.7490    8.6700   -3.8240 H   0  0  0  0  0  0  0  0  0  0  0  0
  1  2  1  0
  2  3  1  0
  3  4  1  0
  3  5  1  0
  5  6  1  0
  5  7  1  0
  7  8  1  6
  7  9  1  0
  9 10  1  0
 10 11  1  0
 11 12  1  0
 11  2  1  0
 12  7  1  0
  1 13  1  0
  2 14  1  6
  3 15  1  1
  4 16  1  0
  5 17  1  6
  6 18  1  0
  8 19  1  0
  9 20  1  0
  9 21  1  0
 10 22  1  0
 10 23  1  0
 11 24  1  6
 12 25  1  0
 12 26  1  0
M  CHG  1  12   1
M  END
>  <meeko>  (4) 
{"is_sidechain": [false], "free_energy": -5.84, "intermolecular_energy": -6.523, "internal_energy": 0.0}

$$$$
2cbv_ligand
     RDKit          3D

 26 27  0  0  0  0  0  0  0  0999 V2000
    8.0270    7.3710   -0.5230 O   0  0  0  0  0  0  0  0  0  0  0  0
    7.2960    8.5160   -0.9420 C   0  0  2  0  0  0  0  0  0  0  0  0
    5.8310    8.1250   -1.2180 C   0  0  1  0  0  0  0  0  0  0  0  0
    5.1520    7.8130    0.0030 O   0  0  0  0  0  0  0  0  0  0  0  0
    5.0740    9.2190   -1.9870 C   0  0  2  0  0  0  0  0  0  0  0  0
    3.8490    8.6960   -2.5100 O   0  0  0  0  0  0  0  0  0  0  0  0
    5.9370    9.7860   -3.1550 C   0  0  2  0  0  0  0  0  0  0  0  0
    5.2330   10.7660   -3.8640 O   0  0  0  0  0  0  0  0  0  0  0  0
    6.4860    8.7010   -4.0910 C   0  0  0  0  0  0  0  0  0  0  0  0
    7.8140    8.2640   -3.4550 C   0  0  0  0  0  0  0  0  0  0  0  0
    7.9610    9.1310   -2.1990 C   0  0  1  0  0  0  0  0  0  0  0  0
    7.1810   10.3480   -2.5860 N   0  0  0  0  0  0  0  0  0  0  0  0
    7.3910    6.6540   -0.3180 H   0  0  0  0  0  0  0  0  0  0  0  0
    7.3042    9.2744   -0.1453 H   0  0  0  0  0  0  0  0  0  0  0  0
    5.8507    7.2286   -1.8553 H   0  0  0  0  0  0  0  0  0  0  0  0
    5.1170    6.8510    0.1530 H   0  0  0  0  0  0  0  0  0  0  0  0
    4.8563   10.0363   -1.2837 H   0  0  0  0  0  0  0  0  0  0  0  0
    3.9760    7.7350   -2.6610 H   0  0  0  0  0  0  0  0  0  0  0  0
    4.2830   10.6000   -3.6880 H   0  0  0  0  0  0  0  0  0  0  0  0
    5.7883    7.8527   -4.1512 H   0  0  0  0  0  0  0  0  0  0  0  0
    6.6211    9.0704   -5.1183 H   0  0  0  0  0  0  0  0  0  0  0  0
    7.7809    7.1978   -3.1864 H   0  0  0  0  0  0  0  0  0  0  0  0
    8.6619    8.3906   -4.1442 H   0  0  0  0  0  0  0  0  0  0  0  0
    9.0169    9.2815   -1.9301 H   0  0  0  0  0  0  0  0  0  0  0  0
    7.6400   10.8760   -3.3400 H   0  0  0  0  0  0  0  0  0  0  0  0
    7.0020   11.0300   -1.8390 H   0  0  0  0  0  0  0  0  0  0  0  0
  1  2  1  0
  2  3  1  0
  3  4  1  0
  3  5  1  0
  5  6  1  0
  5  7  1  0
  7  8  1  6
  7  9  1  0
  9 10  1  0
 10 11  1  0
 11 12  1  0
 11  2  1  0
 12  7  1  0
  1 13  1  0
  2 14  1  1
  3 15  1  6
  4 16  1  0
  5 17  1  1
  6 18  1  0
  8 19  1  0
  9 20  1  0
  9 21  1  0
 10 22  1  0
 10 23  1  0
 11 24  1  1
 12 25  1  0
 12 26  1  0
M  CHG  1  12   1
M  END
>  <meeko>  (5) 
{"is_sidechain": [false], "free_energy": -5.812, "intermolecular_energy": -6.492, "internal_energy": 0.0}

$$$$
2cbv_ligand
     RDKit          3D

 26 27  0  0  0  0  0  0  0  0999 V2000
    2.5050    4.6150   -8.0620 O   0  0  0  0  0  0  0  0  0  0  0  0
    3.1940    4.6490   -6.8190 C   0  0  2  0  0  0  0  0  0  0  0  0
    2.7250    3.4800   -5.9320 C   0  0  1  0  0  0  0  0  0  0  0  0
    3.1900    2.2310   -6.4530 O   0  0  0  0  0  0  0  0  0  0  0  0
    3.1680    3.6480   -4.4700 C   0  0  2  0  0  0  0  0  0  0  0  0
    2.4460    2.7420   -3.6300 O   0  0  0  0  0  0  0  0  0  0  0  0
    2.9390    5.1080   -3.9760 C   0  0  2  0  0  0  0  0  0  0  0  0
    3.3250    5.2480   -2.6380 O   0  0  0  0  0  0  0  0  0  0  0  0
    1.5090    5.6130   -4.2050 C   0  0  0  0  0  0  0  0  0  0  0  0
    1.5170    6.2000   -5.6230 C   0  0  0  0  0  0  0  0  0  0  0  0
    2.9540    6.0140   -6.1260 C   0  0  1  0  0  0  0  0  0  0  0  0
    3.7200    6.0210   -4.8410 N   0  0  0  0  0  0  0  0  0  0  0  0
    3.0470    5.0850   -8.7300 H   0  0  0  0  0  0  0  0  0  0  0  0
    4.2749    4.5366   -6.9892 H   0  0  0  0  0  0  0  0  0  0  0  0
    1.6251    3.4856   -5.9457 H   0  0  0  0  0  0  0  0  0  0  0  0
    2.5540    1.5140   -6.2750 H   0  0  0  0  0  0  0  0  0  0  0  0
    4.2439    3.4253   -4.4159 H   0  0  0  0  0  0  0  0  0  0  0  0
    2.8270    1.8470   -3.7600 H   0  0  0  0  0  0  0  0  0  0  0  0
    3.4210    4.3380   -2.2860 H   0  0  0  0  0  0  0  0  0  0  0  0
    0.7901    4.7835   -4.1341 H   0  0  0  0  0  0  0  0  0  0  0  0
    1.2079    6.3562   -3.4520 H   0  0  0  0  0  0  0  0  0  0  0  0
    0.8092    5.6593   -6.2685 H   0  0  0  0  0  0  0  0  0  0  0  0
    1.2111    7.2566   -5.6328 H   0  0  0  0  0  0  0  0  0  0  0  0
    3.2262    6.7753   -6.8719 H   0  0  0  0  0  0  0  0  0  0  0  0
    3.7050    6.9440   -4.3870 H   0  0  0  0  0  0  0  0  0  0  0  0
    4.7110    5.7580   -4.9000 H   0  0  0  0  0  0  0  0  0  0  0  0
  1  2  1  0
  2  3  1  0
  3  4  1  0
  3  5  1  0
  5  6  1  0
  5  7  1  0
  7  8  1  1
  7  9  1  0
  9 10  1  0
 10 11  1  0
 11 12  1  0
 11  2  1  0
 12  7  1  0
  1 13  1  0
  2 14  1  6
  3 15  1  1
  4 16  1  0
  5 17  1  6
  6 18  1  0
  8 19  1  0
  9 20  1  0
  9 21  1  0
 10 22  1  0
 10 23  1  0
 11 24  1  6
 12 25  1  0
 12 26  1  0
M  CHG  1  12   1
M  END
>  <meeko>  (6) 
{"is_sidechain": [false], "free_energy": -5.713, "intermolecular_energy": -6.381, "internal_energy": 0.0}

$$$$
2cbv_ligand
     RDKit          3D

 26 27  0  0  0  0  0  0  0  0999 V2000
    6.5570   11.3000   -2.0730 O   0  0  0  0  0  0  0  0  0  0  0  0
    5.4990   10.3510   -2.0500 C   0  0  2  0  0  0  0  0  0  0  0  0
    5.6790    9.4000   -0.8510 C   0  0  1  0  0  0  0  0  0  0  0  0
    5.4400   10.0880    0.3810 O   0  0  0  0  0  0  0  0  0  0  0  0
    4.7780    8.1590   -0.9550 C   0  0  2  0  0  0  0  0  0  0  0  0
    5.2060    7.1600   -0.0240 O   0  0  0  0  0  0  0  0  0  0  0  0
    4.7980    7.5680   -2.3960 C   0  0  2  0  0  0  0  0  0  0  0  0
    3.9920    6.4260   -2.4780 O   0  0  0  0  0  0  0  0  0  0  0  0
    6.2130    7.2970   -2.9250 C   0  0  0  0  0  0  0  0  0  0  0  0
    6.6550    8.6190   -3.5690 C   0  0  0  0  0  0  0  0  0  0  0  0
    5.4670    9.5710   -3.3880 C   0  0  1  0  0  0  0  0  0  0  0  0
    4.3220    8.6090   -3.3340 N   0  0  0  0  0  0  0  0  0  0  0  0
    6.5990   11.7400   -1.1980 H   0  0  0  0  0  0  0  0  0  0  0  0
    4.5362   10.8700   -1.9334 H   0  0  0  0  0  0  0  0  0  0  0  0
    6.7222    9.0516   -0.8691 H   0  0  0  0  0  0  0  0  0  0  0  0
    5.0440    9.4950    1.0470 H   0  0  0  0  0  0  0  0  0  0  0  0
    3.7494    8.4684   -0.7180 H   0  0  0  0  0  0  0  0  0  0  0  0
    4.4140    6.8480    0.4640 H   0  0  0  0  0  0  0  0  0  0  0  0
    3.5080    6.4960   -3.3280 H   0  0  0  0  0  0  0  0  0  0  0  0
    6.8883    7.0234   -2.1009 H   0  0  0  0  0  0  0  0  0  0  0  0
    6.2344    6.4611   -3.6397 H   0  0  0  0  0  0  0  0  0  0  0  0
    7.5475    9.0153   -3.0627 H   0  0  0  0  0  0  0  0  0  0  0  0
    6.9219    8.4913   -4.6285 H   0  0  0  0  0  0  0  0  0  0  0  0
    5.4363   10.3376   -4.1763 H   0  0  0  0  0  0  0  0  0  0  0  0
    4.1670    8.1430   -4.2390 H   0  0  0  0  0  0  0  0  0  0  0  0
    3.4120    8.9990   -3.0630 H   0  0  0  0  0  0  0  0  0  0  0  0
  1  2  1  0
  2  3  1  0
  3  4  1  0
  3  5  1  0
  5  6  1  0
  5  7  1  0
  7  8  1  1
  7  9  1  0
  9 10  1  0
 10 11  1  0
 11 12  1  0
 11  2  1  0
 12  7  1  0
  1 13  1  0
  2 14  1  1
  3 15  1  1
  4 16  1  0
  5 17  1  1
  6 18  1  0
  8 19  1  0
  9 20  1  0
  9 21  1  0
 10 22  1  0
 10 23  1  0
 11 24  1  6
 12 25  1  0
 12 26  1  0
M  CHG  1  12   1
M  END
>  <meeko>  (7) 
{"is_sidechain": [false], "free_energy": -5.619, "intermolecular_energy": -6.276, "internal_energy": 0.0}

$$$$
2cbv_ligand
     RDKit          3D

 26 27  0  0  0  0  0  0  0  0999 V2000
    4.1030    6.3770   -3.1220 O   0  0  0  0  0  0  0  0  0  0  0  0
    3.9790    7.2780   -2.0290 C   0  0  2  0  0  0  0  0  0  0  0  0
    3.8510    8.7200   -2.5550 C   0  0  1  0  0  0  0  0  0  0  0  0
    2.5880    8.9150   -3.1990 O   0  0  0  0  0  0  0  0  0  0  0  0
    4.0520    9.7630   -1.4440 C   0  0  2  0  0  0  0  0  0  0  0  0
    4.2600   11.0580   -2.0160 O   0  0  0  0  0  0  0  0  0  0  0  0
    5.2660    9.3940   -0.5390 C   0  0  2  0  0  0  0  0  0  0  0  0
    5.4560   10.3590    0.4570 O   0  0  0  0  0  0  0  0  0  0  0  0
    6.5580    9.1360   -1.3260 C   0  0  0  0  0  0  0  0  0  0  0  0
    6.5080    7.6470   -1.6940 C   0  0  0  0  0  0  0  0  0  0  0  0
    5.1990    7.1280   -1.0870 C   0  0  1  0  0  0  0  0  0  0  0  0
    5.0130    8.0670    0.0630 N   0  0  0  0  0  0  0  0  0  0  0  0
    4.3890    6.8840   -3.9110 H   0  0  0  0  0  0  0  0  0  0  0  0
    3.0715    7.0423   -1.4538 H   0  0  0  0  0  0  0  0  0  0  0  0
    4.6539    8.8657   -3.2926 H   0  0  0  0  0  0  0  0  0  0  0  0
    2.0970    9.6570   -2.8000 H   0  0  0  0  0  0  0  0  0  0  0  0
    3.1436    9.7748   -0.8237 H   0  0  0  0  0  0  0  0  0  0  0  0
    5.0210   10.9940   -2.6310 H   0  0  0  0  0  0  0  0  0  0  0  0
    4.7770   10.1790    1.1420 H   0  0  0  0  0  0  0  0  0  0  0  0
    6.5889    9.7576   -2.2330 H   0  0  0  0  0  0  0  0  0  0  0  0
    7.4552    9.3873   -0.7413 H   0  0  0  0  0  0  0  0  0  0  0  0
    6.5041    7.5194   -2.7866 H   0  0  0  0  0  0  0  0  0  0  0  0
    7.3833    7.0995   -1.3144 H   0  0  0  0  0  0  0  0  0  0  0  0
    5.2580    6.0556   -0.8493 H   0  0  0  0  0  0  0  0  0  0  0  0
    5.7270    7.9310    0.7920 H   0  0  0  0  0  0  0  0  0  0  0  0
    4.1100    8.0180    0.5490 H   0  0  0  0  0  0  0  0  0  0  0  0
  1  2  1  0
  2  3  1  0
  3  4  1  0
  3  5  1  0
  5  6  1  0
  5  7  1  0
  7  8  1  1
  7  9  1  0
  9 10  1  0
 10 11  1  0
 11 12  1  0
 11  2  1  0
 12  7  1  0
  1 13  1  0
  2 14  1  1
  3 15  1  6
  4 16  1  0
  5 17  1  1
  6 18  1  0
  8 19  1  0
  9 20  1  0
  9 21  1  0
 10 22  1  0
 10 23  1  0
 11 24  1  1
 12 25  1  0
 12 26  1  0
M  CHG  1  12   1
M  END
>  <meeko>  (8) 
{"is_sidechain": [false], "free_energy": -5.409, "intermolecular_energy": -6.041, "internal_energy": 0.0}

$$$$
2cbv_ligand
     RDKit          3D

 26 27  0  0  0  0  0  0  0  0999 V2000
    3.4010    6.7920   -2.2950 O   0  0  0  0  0  0  0  0  0  0  0  0
    4.5120    7.6770   -2.2610 C   0  0  2  0  0  0  0  0  0  0  0  0
    4.6690    8.2620   -0.8440 C   0  0  1  0  0  0  0  0  0  0  0  0
    5.1070    7.2560    0.0740 O   0  0  0  0  0  0  0  0  0  0  0  0
    5.6240    9.4660   -0.8160 C   0  0  2  0  0  0  0  0  0  0  0  0
    5.4850   10.1760    0.4180 O   0  0  0  0  0  0  0  0  0  0  0  0
    5.3460   10.4340   -2.0060 C   0  0  2  0  0  0  0  0  0  0  0  0
    6.2060   11.5370   -1.9620 O   0  0  0  0  0  0  0  0  0  0  0  0
    3.8780   10.8680   -2.1100 C   0  0  0  0  0  0  0  0  0  0  0  0
    3.2040    9.7840   -2.9640 C   0  0  0  0  0  0  0  0  0  0  0  0
    4.3230    8.7970   -3.3150 C   0  0  1  0  0  0  0  0  0  0  0  0
    5.5270    9.6840   -3.2690 N   0  0  0  0  0  0  0  0  0  0  0  0
    3.6410    6.0140   -2.8400 H   0  0  0  0  0  0  0  0  0  0  0  0
    5.4320    7.1269   -2.5081 H   0  0  0  0  0  0  0  0  0  0  0  0
    3.6773    8.6217   -0.5322 H   0  0  0  0  0  0  0  0  0  0  0  0
    4.7940    7.4410    0.9790 H   0  0  0  0  0  0  0  0  0  0  0  0
    6.6512    9.0835   -0.9089 H   0  0  0  0  0  0  0  0  0  0  0  0
    6.1480   10.9000    0.4220 H   0  0  0  0  0  0  0  0  0  0  0  0
    5.7570   12.2520   -2.4630 H   0  0  0  0  0  0  0  0  0  0  0  0
    3.4173   10.9165   -1.1123 H   0  0  0  0  0  0  0  0  0  0  0  0
    3.7730   11.8690   -2.5537 H   0  0  0  0  0  0  0  0  0  0  0  0
    2.4104    9.2804   -2.3925 H   0  0  0  0  0  0  0  0  0  0  0  0
    2.7290   10.2043   -3.8627 H   0  0  0  0  0  0  0  0  0  0  0  0
    4.1244    8.2779   -4.2643 H   0  0  0  0  0  0  0  0  0  0  0  0
    5.5240   10.3780   -4.0280 H   0  0  0  0  0  0  0  0  0  0  0  0
    6.4390    9.2160   -3.3240 H   0  0  0  0  0  0  0  0  0  0  0  0
  1  2  1  0
  2  3  1  0
  3  4  1  0
  3  5  1  0
  5  6  1  0
  5  7  1  0
  7  8  1  6
  7  9  1  0
  9 10  1  0
 10 11  1  0
 11 12  1  0
 11  2  1  0
 12  7  1  0
  1 13  1  0
  2 14  1  6
  3 15  1  1
  4 16  1  0
  5 17  1  6
  6 18  1  0
  8 19  1  0
  9 20  1  0
  9 21  1  0
 10 22  1  0
 10 23  1  0
 11 24  1  6
 12 25  1  0
 12 26  1  0
M  CHG  1  12   1
M  END
>  <meeko>  (9) 
{"is_sidechain": [false], "free_energy": -5.395, "intermolecular_energy": -6.026, "internal_energy": 0.0}

$$$$
