4wiv_ligand
     RDKit          3D

 50 53  0  0  0  0  0  0  0  0999 V2000
    1.2800    7.3640    4.9180 C   0  0  0  0  0  0  0  0  0  0  0  0
    0.7370    8.6410    5.4350 C   0  0  0  0  0  0  0  0  0  0  0  0
   -0.3320    9.2000    4.8530 N   0  0  0  0  0  0  0  0  0  0  0  0
   -0.5870   10.3570    5.5650 O   0  0  0  0  0  0  0  0  0  0  0  0
    0.3290   10.4930    6.5630 C   0  0  0  0  0  0  0  0  0  0  0  0
    0.1990   11.6990    7.4010 C   0  0  0  0  0  0  0  0  0  0  0  0
    1.1940    9.4200    6.5300 C   0  0  0  0  0  0  0  0  0  0  0  0
    2.3090    9.2260    7.4320 C   0  0  0  0  0  0  0  0  0  0  0  0
    2.2600    8.2150    8.3980 C   0  0  0  0  0  0  0  0  0  0  0  0
    3.3310    8.0270    9.2780 C   0  0  0  0  0  0  0  0  0  0  0  0
    4.4590    8.8550    9.2150 C   0  0  0  0  0  0  0  0  0  0  0  0
    5.5930    8.6720   10.1080 C   0  0  0  0  0  0  0  0  0  0  0  0
    5.8470    9.5630   11.1370 N   0  0  0  0  0  0  0  0  0  0  0  0
    6.9890    9.1600   11.6380 C   0  0  0  0  0  0  0  0  0  0  0  0
    7.7460    9.7460   12.7080 C   0  0  0  0  0  0  0  0  0  0  0  0
    8.8920    9.2470   13.0950 N   0  0  0  0  0  0  0  0  0  0  0  0
    9.3560    8.1250   12.4300 C   0  0  0  0  0  0  0  0  0  0  0  0
    8.7020    7.5200   11.4220 C   0  0  0  0  0  0  0  0  0  0  0  0
    7.4860    8.0460   11.0140 N   0  0  0  0  0  0  0  0  0  0  0  0
    6.5610    7.6660   10.0550 C   0  0  0  0  0  0  0  0  0  0  0  0
    6.7340    6.5520    9.2680 N   0  0  0  0  0  0  0  0  0  0  0  0
    6.1810    5.2370    9.6950 C   0  0  0  0  0  0  0  0  0  0  0  0
    5.0720    4.8780    8.6880 C   0  0  0  0  0  0  0  0  0  0  0  0
    7.2750    4.1590    9.6300 C   0  0  0  0  0  0  0  0  0  0  0  0
    5.5650    5.2610   11.0980 C   0  0  0  0  0  0  0  0  0  0  0  0
    4.5070    9.8580    8.2380 C   0  0  0  0  0  0  0  0  0  0  0  0
    3.4390   10.0470    7.3560 C   0  0  0  0  0  0  0  0  0  0  0  0
    1.5561    6.7146    5.7618 H   0  0  0  0  0  0  0  0  0  0  0  0
    0.5171    6.8630    4.3041 H   0  0  0  0  0  0  0  0  0  0  0  0
    2.1701    7.5659    4.3041 H   0  0  0  0  0  0  0  0  0  0  0  0
    0.2298   11.4128    8.4627 H   0  0  0  0  0  0  0  0  0  0  0  0
    1.0281   12.3882    7.1828 H   0  0  0  0  0  0  0  0  0  0  0  0
   -0.7579   12.1957    7.1828 H   0  0  0  0  0  0  0  0  0  0  0  0
    1.3752    7.5650    8.4658 H   0  0  0  0  0  0  0  0  0  0  0  0
    3.2870    7.2218   10.0261 H   0  0  0  0  0  0  0  0  0  0  0  0
    7.3520   10.6385   13.2161 H   0  0  0  0  0  0  0  0  0  0  0  0
   10.3207    7.7012   12.7459 H   0  0  0  0  0  0  0  0  0  0  0  0
    9.1223    6.6288   10.9330 H   0  0  0  0  0  0  0  0  0  0  0  0
    7.6950    6.4020    8.9560 H   0  0  0  0  0  0  0  0  0  0  0  0
    4.1630    4.5837    9.2331 H   0  0  0  0  0  0  0  0  0  0  0  0
    4.8539    5.7514    8.0559 H   0  0  0  0  0  0  0  0  0  0  0  0
    5.4071    4.0425    8.0559 H   0  0  0  0  0  0  0  0  0  0  0  0
    7.5672    3.8711   10.6507 H   0  0  0  0  0  0  0  0  0  0  0  0
    6.8899    3.2775    9.0964 H   0  0  0  0  0  0  0  0  0  0  0  0
    8.1507    4.5570    9.0964 H   0  0  0  0  0  0  0  0  0  0  0  0
    6.3664    5.2298   11.8509 H   0  0  0  0  0  0  0  0  0  0  0  0
    4.9782    6.1827   11.2251 H   0  0  0  0  0  0  0  0  0  0  0  0
    4.9083    4.3878   11.2251 H   0  0  0  0  0  0  0  0  0  0  0  0
    5.3945   10.5037    8.1641 H   0  0  0  0  0  0  0  0  0  0  0  0
    3.4874   10.8441    6.5995 H   0  0  0  0  0  0  0  0  0  0  0  0
  1  2  1  0
  2  3  2  0
  3  4  1  0
  4  5  1  0
  5  6  1  0
  5  7  2  0
  7  8  1  0
  8  9  2  0
  9 10  1  0
 10 11  2  0
 11 12  1  0
 12 13  1  0
 13 14  2  0
 14 15  1  0
 15 16  2  0
 16 17  1  0
 17 18  2  0
 18 19  1  0
 19 20  1  0
 20 21  1  0
 21 22  1  0
 22 23  1  0
 22 24  1  0
 22 25  1  0
 11 26  1  0
 26 27  2  0
  7  2  1  0
 27  8  1  0
 20 12  2  0
 19 14  1  0
  1 28  1  0
  1 29  1  0
  1 30  1  0
  6 31  1  0
  6 32  1  0
  6 33  1  0
  9 34  1  0
 10 35  1  0
 15 36  1  0
 17 37  1  0
 18 38  1  0
 21 39  1  0
 23 40  1  0
 23 41  1  0
 23 42  1  0
 24 43  1  0
 24 44  1  0
 24 45  1  0
 25 46  1  0
 25 47  1  0
 25 48  1  0
 26 49  1  0
 27 50  1  0
M  END
>  <meeko>  (1) 
{"is_sidechain": [false], "free_energy": -7.063, "intermolecular_energy": -8.715, "internal_energy": -1.27}

$$$$
4wiv_ligand
     RDKit          3D

 50 53  0  0  0  0  0  0  0  0999 V2000
    4.6950    5.3030    9.0710 C   0  0  0  0  0  0  0  0  0  0  0  0
    4.5230    6.0020   10.3650 C   0  0  0  0  0  0  0  0  0  0  0  0
    4.3700    5.2960   11.4930 N   0  0  0  0  0  0  0  0  0  0  0  0
    4.2430    6.2280   12.5050 O   0  0  0  0  0  0  0  0  0  0  0  0
    4.3120    7.4840   11.9850 C   0  0  0  0  0  0  0  0  0  0  0  0
    4.1710    8.5920   12.9480 C   0  0  0  0  0  0  0  0  0  0  0  0
    4.4980    7.3980   10.6220 C   0  0  0  0  0  0  0  0  0  0  0  0
    4.6060    8.5290    9.7260 C   0  0  0  0  0  0  0  0  0  0  0  0
    3.8440    8.5690    8.5530 C   0  0  0  0  0  0  0  0  0  0  0  0
    3.9500    9.6560    7.6800 C   0  0  0  0  0  0  0  0  0  0  0  0
    4.8290   10.7100    7.9570 C   0  0  0  0  0  0  0  0  0  0  0  0
    4.9480   11.8600    7.0730 C   0  0  0  0  0  0  0  0  0  0  0  0
    5.6470   11.7790    5.8810 N   0  0  0  0  0  0  0  0  0  0  0  0
    5.6470   13.0070    5.4230 C   0  0  0  0  0  0  0  0  0  0  0  0
    6.2680   13.5100    4.2300 C   0  0  0  0  0  0  0  0  0  0  0  0
    6.2080   14.7750    3.9030 N   0  0  0  0  0  0  0  0  0  0  0  0
    5.5200   15.6220    4.7560 C   0  0  0  0  0  0  0  0  0  0  0  0
    4.9120   15.2240    5.8870 C   0  0  0  0  0  0  0  0  0  0  0  0
    4.9730   13.8820    6.2320 N   0  0  0  0  0  0  0  0  0  0  0  0
    4.4470   13.1470    7.2830 C   0  0  0  0  0  0  0  0  0  0  0  0
    3.6740   13.7190    8.2650 N   0  0  0  0  0  0  0  0  0  0  0  0
    2.1920   13.7620    8.1250 C   0  0  0  0  0  0  0  0  0  0  0  0
    1.6420   14.3440    9.4410 C   0  0  0  0  0  0  0  0  0  0  0  0
    1.7990   14.6970    6.9700 C   0  0  0  0  0  0  0  0  0  0  0  0
    1.5590   12.3830    7.9090 C   0  0  0  0  0  0  0  0  0  0  0  0
    5.5810   10.6700    9.1380 C   0  0  0  0  0  0  0  0  0  0  0  0
    5.4760    9.5850   10.0140 C   0  0  0  0  0  0  0  0  0  0  0  0
    4.9541    4.2499    9.2548 H   0  0  0  0  0  0  0  0  0  0  0  0
    3.7572    5.3553    8.4985 H   0  0  0  0  0  0  0  0  0  0  0  0
    5.5014    5.7845    8.4985 H   0  0  0  0  0  0  0  0  0  0  0  0
    4.2214    8.1957   13.9729 H   0  0  0  0  0  0  0  0  0  0  0  0
    4.9842    9.3168   12.7947 H   0  0  0  0  0  0  0  0  0  0  0  0
    3.2022    9.0900   12.7947 H   0  0  0  0  0  0  0  0  0  0  0  0
    3.1586    7.7417    8.3167 H   0  0  0  0  0  0  0  0  0  0  0  0
    3.3371    9.6834    6.7670 H   0  0  0  0  0  0  0  0  0  0  0  0
    6.8088   12.8126    3.5734 H   0  0  0  0  0  0  0  0  0  0  0  0
    5.4678   16.6884    4.4911 H   0  0  0  0  0  0  0  0  0  0  0  0
    4.3789   15.9454    6.5236 H   0  0  0  0  0  0  0  0  0  0  0  0
    3.9880   14.6440    8.5630 H   0  0  0  0  0  0  0  0  0  0  0  0
    2.1196   13.8386   10.2933 H   0  0  0  0  0  0  0  0  0  0  0  0
    1.8596   15.4214    9.4847 H   0  0  0  0  0  0  0  0  0  0  0  0
    0.5541   14.1876    9.4847 H   0  0  0  0  0  0  0  0  0  0  0  0
    1.4033   15.6384    7.3788 H   0  0  0  0  0  0  0  0  0  0  0  0
    2.6842   14.9089    6.3523 H   0  0  0  0  0  0  0  0  0  0  0  0
    1.0283   14.2128    6.3523 H   0  0  0  0  0  0  0  0  0  0  0  0
    1.3466   11.9203    8.8841 H   0  0  0  0  0  0  0  0  0  0  0  0
    0.6218   12.4942    7.3440 H   0  0  0  0  0  0  0  0  0  0  0  0
    2.2543   11.7448    7.3440 H   0  0  0  0  0  0  0  0  0  0  0  0
    6.2610   11.5004    9.3789 H   0  0  0  0  0  0  0  0  0  0  0  0
    6.0801    9.5622   10.9330 H   0  0  0  0  0  0  0  0  0  0  0  0
  1  2  1  0
  2  3  2  0
  3  4  1  0
  4  5  1  0
  5  6  1  0
  5  7  2  0
  7  8  1  0
  8  9  2  0
  9 10  1  0
 10 11  2  0
 11 12  1  0
 12 13  1  0
 13 14  2  0
 14 15  1  0
 15 16  2  0
 16 17  1  0
 17 18  2  0
 18 19  1  0
 19 20  1  0
 20 21  1  0
 21 22  1  0
 22 23  1  0
 22 24  1  0
 22 25  1  0
 11 26  1  0
 26 27  2  0
  7  2  1  0
 27  8  1  0
 20 12  2  0
 19 14  1  0
  1 28  1  0
  1 29  1  0
  1 30  1  0
  6 31  1  0
  6 32  1  0
  6 33  1  0
  9 34  1  0
 10 35  1  0
 15 36  1  0
 17 37  1  0
 18 38  1  0
 21 39  1  0
 23 40  1  0
 23 41  1  0
 23 42  1  0
 24 43  1  0
 24 44  1  0
 24 45  1  0
 25 46  1  0
 25 47  1  0
 25 48  1  0
 26 49  1  0
 27 50  1  0
M  END
>  <meeko>  (2) 
{"is_sidechain": [false], "free_energy": -6.9, "intermolecular_energy": -9.209, "internal_energy": -0.575}

$$$$
4wiv_ligand
     RDKit          3D

 50 53  0  0  0  0  0  0  0  0999 V2000
    4.1260    8.4750   13.0460 C   0  0  0  0  0  0  0  0  0  0  0  0
    4.2750    7.3640   12.0780 C   0  0  0  0  0  0  0  0  0  0  0  0
    4.2270    6.0950   12.5010 N   0  0  0  0  0  0  0  0  0  0  0  0
    4.3870    5.3160   11.3720 O   0  0  0  0  0  0  0  0  0  0  0  0
    4.5370    6.1140   10.2800 C   0  0  0  0  0  0  0  0  0  0  0  0
    4.7410    5.4210    8.9940 C   0  0  0  0  0  0  0  0  0  0  0  0
    4.4660    7.4330   10.6730 C   0  0  0  0  0  0  0  0  0  0  0  0
    4.5950    8.5710    9.7880 C   0  0  0  0  0  0  0  0  0  0  0  0
    3.8160    8.6480    8.6280 C   0  0  0  0  0  0  0  0  0  0  0  0
    3.9430    9.7410    7.7660 C   0  0  0  0  0  0  0  0  0  0  0  0
    4.8580   10.7650    8.0410 C   0  0  0  0  0  0  0  0  0  0  0  0
    4.9980   11.9210    7.1680 C   0  0  0  0  0  0  0  0  0  0  0  0
    5.6580   11.8280    5.9550 N   0  0  0  0  0  0  0  0  0  0  0  0
    5.6960   13.0610    5.5130 C   0  0  0  0  0  0  0  0  0  0  0  0
    6.3020   13.5550    4.3080 C   0  0  0  0  0  0  0  0  0  0  0  0
    6.2840   14.8260    3.9990 N   0  0  0  0  0  0  0  0  0  0  0  0
    5.6560   15.6880    4.8820 C   0  0  0  0  0  0  0  0  0  0  0  0
    5.0650   15.2990    6.0260 C   0  0  0  0  0  0  0  0  0  0  0  0
    5.0800   13.9520    6.3520 N   0  0  0  0  0  0  0  0  0  0  0  0
    4.5560   13.2240    7.4080 C   0  0  0  0  0  0  0  0  0  0  0  0
    3.8350   13.8140    8.4190 N   0  0  0  0  0  0  0  0  0  0  0  0
    2.3550   13.9490    8.3070 C   0  0  0  0  0  0  0  0  0  0  0  0
    1.8560   14.4570    9.6730 C   0  0  0  0  0  0  0  0  0  0  0  0
    2.0010   14.9910    7.2340 C   0  0  0  0  0  0  0  0  0  0  0  0
    1.6440   12.6280    7.9970 C   0  0  0  0  0  0  0  0  0  0  0  0
    5.6250   10.6880    9.2100 C   0  0  0  0  0  0  0  0  0  0  0  0
    5.5010    9.5970   10.0750 C   0  0  0  0  0  0  0  0  0  0  0  0
    4.1792    8.0782   14.0706 H   0  0  0  0  0  0  0  0  0  0  0  0
    4.9342    9.2053   12.8932 H   0  0  0  0  0  0  0  0  0  0  0  0
    3.1539    8.9666   12.8932 H   0  0  0  0  0  0  0  0  0  0  0  0
    5.0470    4.3813    9.1822 H   0  0  0  0  0  0  0  0  0  0  0  0
    3.8025    5.4288    8.4204 H   0  0  0  0  0  0  0  0  0  0  0  0
    5.5256    5.9361    8.4204 H   0  0  0  0  0  0  0  0  0  0  0  0
    3.1011    7.8455    8.3937 H   0  0  0  0  0  0  0  0  0  0  0  0
    3.3180    9.7974    6.8626 H   0  0  0  0  0  0  0  0  0  0  0  0
    6.7944   12.8455    3.6268 H   0  0  0  0  0  0  0  0  0  0  0  0
    5.6393   16.7591    4.6321 H   0  0  0  0  0  0  0  0  0  0  0  0
    4.5811   16.0328    6.6873 H   0  0  0  0  0  0  0  0  0  0  0  0
    4.2090   14.7090    8.7370 H   0  0  0  0  0  0  0  0  0  0  0  0
    2.3817   13.9218   10.4775 H   0  0  0  0  0  0  0  0  0  0  0  0
    2.0557   15.5353    9.7584 H   0  0  0  0  0  0  0  0  0  0  0  0
    0.7743   14.2766    9.7584 H   0  0  0  0  0  0  0  0  0  0  0  0
    1.6837   15.9251    7.7206 H   0  0  0  0  0  0  0  0  0  0  0  0
    2.8834   15.1857    6.6068 H   0  0  0  0  0  0  0  0  0  0  0  0
    1.1826   14.6079    6.6068 H   0  0  0  0  0  0  0  0  0  0  0  0
    1.3744   12.1270    8.9384 H   0  0  0  0  0  0  0  0  0  0  0  0
    0.7327   12.8299    7.4150 H   0  0  0  0  0  0  0  0  0  0  0  0
    2.3144   11.9785    7.4150 H   0  0  0  0  0  0  0  0  0  0  0  0
    6.3329   11.4949    9.4503 H   0  0  0  0  0  0  0  0  0  0  0  0
    6.1179    9.5453   10.9842 H   0  0  0  0  0  0  0  0  0  0  0  0
  1  2  1  0
  2  3  2  0
  3  4  1  0
  4  5  1  0
  5  6  1  0
  5  7  2  0
  7  8  1  0
  8  9  2  0
  9 10  1  0
 10 11  2  0
 11 12  1  0
 12 13  1  0
 13 14  2  0
 14 15  1  0
 15 16  2  0
 16 17  1  0
 17 18  2  0
 18 19  1  0
 19 20  1  0
 20 21  1  0
 21 22  1  0
 22 23  1  0
 22 24  1  0
 22 25  1  0
 11 26  1  0
 26 27  2  0
  7  2  1  0
 27  8  1  0
 20 12  2  0
 19 14  1  0
  1 28  1  0
  1 29  1  0
  1 30  1  0
  6 31  1  0
  6 32  1  0
  6 33  1  0
  9 34  1  0
 10 35  1  0
 15 36  1  0
 17 37  1  0
 18 38  1  0
 21 39  1  0
 23 40  1  0
 23 41  1  0
 23 42  1  0
 24 43  1  0
 24 44  1  0
 24 45  1  0
 25 46  1  0
 25 47  1  0
 25 48  1  0
 26 49  1  0
 27 50  1  0
M  END
>  <meeko>  (3) 
{"is_sidechain": [false], "free_energy": -6.865, "intermolecular_energy": -9.129, "internal_energy": -0.611}

$$$$
4wiv_ligand
     RDKit          3D

 50 53  0  0  0  0  0  0  0  0999 V2000
    6.2890   10.2520   10.1920 C   0  0  0  0  0  0  0  0  0  0  0  0
    5.1730    9.5520    9.5150 C   0  0  0  0  0  0  0  0  0  0  0  0
    4.8380    8.3090    9.8860 N   0  0  0  0  0  0  0  0  0  0  0  0
    3.7740    7.9510    9.0810 O   0  0  0  0  0  0  0  0  0  0  0  0
    3.4790    8.9700    8.2280 C   0  0  0  0  0  0  0  0  0  0  0  0
    2.3720    8.7250    7.2850 C   0  0  0  0  0  0  0  0  0  0  0  0
    4.3380   10.0210    8.4680 C   0  0  0  0  0  0  0  0  0  0  0  0
    4.3360   11.2750    7.7460 C   0  0  0  0  0  0  0  0  0  0  0  0
    3.5200   12.3280    8.1740 C   0  0  0  0  0  0  0  0  0  0  0  0
    3.5080   13.5400    7.4760 C   0  0  0  0  0  0  0  0  0  0  0  0
    4.2990   13.7130    6.3330 C   0  0  0  0  0  0  0  0  0  0  0  0
    4.3170   14.9680    5.5970 C   0  0  0  0  0  0  0  0  0  0  0  0
    5.5090   15.5540    5.2080 N   0  0  0  0  0  0  0  0  0  0  0  0
    5.1500   16.7040    4.6930 C   0  0  0  0  0  0  0  0  0  0  0  0
    5.9900   17.7410    4.1630 C   0  0  0  0  0  0  0  0  0  0  0  0
    5.4950   18.8580    3.6960 N   0  0  0  0  0  0  0  0  0  0  0  0
    4.1180   19.0080    3.7310 C   0  0  0  0  0  0  0  0  0  0  0  0
    3.2690   18.0810    4.2080 C   0  0  0  0  0  0  0  0  0  0  0  0
    3.7940   16.8960    4.7000 N   0  0  0  0  0  0  0  0  0  0  0  0
    3.2210   15.7480    5.2230 C   0  0  0  0  0  0  0  0  0  0  0  0
    1.8590   15.5930    5.3350 N   0  0  0  0  0  0  0  0  0  0  0  0
    1.1300   16.1680    6.5000 C   0  0  0  0  0  0  0  0  0  0  0  0
    0.1690   17.2320    5.9360 C   0  0  0  0  0  0  0  0  0  0  0  0
    0.3040   15.0760    7.1970 C   0  0  0  0  0  0  0  0  0  0  0  0
    2.0510   16.8470    7.5210 C   0  0  0  0  0  0  0  0  0  0  0  0
    5.1230   12.6590    5.9170 C   0  0  0  0  0  0  0  0  0  0  0  0
    5.1380   11.4470    6.6130 C   0  0  0  0  0  0  0  0  0  0  0  0
    6.1637   10.1734   11.2820 H   0  0  0  0  0  0  0  0  0  0  0  0
    7.2433    9.7904    9.8984 H   0  0  0  0  0  0  0  0  0  0  0  0
    6.2888   11.3121    9.8984 H   0  0  0  0  0  0  0  0  0  0  0  0
    1.4493    8.5208    7.8479 H   0  0  0  0  0  0  0  0  0  0  0  0
    2.2264    9.6127    6.6519 H   0  0  0  0  0  0  0  0  0  0  0  0
    2.6146    7.8588    6.6519 H   0  0  0  0  0  0  0  0  0  0  0  0
    2.8851   12.2021    9.0634 H   0  0  0  0  0  0  0  0  0  0  0  0
    2.8714   14.3651    7.8280 H   0  0  0  0  0  0  0  0  0  0  0  0
    7.0798   17.5919    4.1494 H   0  0  0  0  0  0  0  0  0  0  0  0
    3.6922   19.9454    3.3438 H   0  0  0  0  0  0  0  0  0  0  0  0
    2.1834   18.2586    4.2079 H   0  0  0  0  0  0  0  0  0  0  0  0
    1.5320   14.6350    5.2030 H   0  0  0  0  0  0  0  0  0  0  0  0
   -0.3142   17.7670    6.7669 H   0  0  0  0  0  0  0  0  0  0  0  0
    0.7341   17.9464    5.3192 H   0  0  0  0  0  0  0  0  0  0  0  0
   -0.5990   16.7423    5.3192 H   0  0  0  0  0  0  0  0  0  0  0  0
    0.3907   15.1906    8.2876 H   0  0  0  0  0  0  0  0  0  0  0  0
   -0.7513   15.1696    6.9012 H   0  0  0  0  0  0  0  0  0  0  0  0
    0.6813   14.0860    6.9012 H   0  0  0  0  0  0  0  0  0  0  0  0
    1.7154   16.5996    8.5389 H   0  0  0  0  0  0  0  0  0  0  0  0
    3.0821   16.4913    7.3782 H   0  0  0  0  0  0  0  0  0  0  0  0
    2.0161   17.9371    7.3782 H   0  0  0  0  0  0  0  0  0  0  0  0
    5.7651   12.7867    5.0330 H   0  0  0  0  0  0  0  0  0  0  0  0
    5.7830   10.6253    6.2684 H   0  0  0  0  0  0  0  0  0  0  0  0
  1  2  1  0
  2  3  2  0
  3  4  1  0
  4  5  1  0
  5  6  1  0
  5  7  2  0
  7  8  1  0
  8  9  2  0
  9 10  1  0
 10 11  2  0
 11 12  1  0
 12 13  1  0
 13 14  2  0
 14 15  1  0
 15 16  2  0
 16 17  1  0
 17 18  2  0
 18 19  1  0
 19 20  1  0
 20 21  1  0
 21 22  1  0
 22 23  1  0
 22 24  1  0
 22 25  1  0
 11 26  1  0
 26 27  2  0
  7  2  1  0
 27  8  1  0
 20 12  2  0
 19 14  1  0
  1 28  1  0
  1 29  1  0
  1 30  1  0
  6 31  1  0
  6 32  1  0
  6 33  1  0
  9 34  1  0
 10 35  1  0
 15 36  1  0
 17 37  1  0
 18 38  1  0
 21 39  1  0
 23 40  1  0
 23 41  1  0
 23 42  1  0
 24 43  1  0
 24 44  1  0
 24 45  1  0
 25 46  1  0
 25 47  1  0
 25 48  1  0
 26 49  1  0
 27 50  1  0
M  END
>  <meeko>  (4) 
{"is_sidechain": [false], "free_energy": -6.715, "intermolecular_energy": -8.499, "internal_energy": -1.057}

$$$$
4wiv_ligand
     RDKit          3D

 50 53  0  0  0  0  0  0  0  0999 V2000
    6.0530   12.4530    5.1390 C   0  0  0  0  0  0  0  0  0  0  0  0
    4.9200   13.0160    5.9090 C   0  0  0  0  0  0  0  0  0  0  0  0
    4.3460   14.1610    5.5190 N   0  0  0  0  0  0  0  0  0  0  0  0
    3.3350   14.4050    6.4280 O   0  0  0  0  0  0  0  0  0  0  0  0
    3.3090   13.4150    7.3620 C   0  0  0  0  0  0  0  0  0  0  0  0
    2.2890   13.5490    8.4190 C   0  0  0  0  0  0  0  0  0  0  0  0
    4.2960   12.4970    7.0740 C   0  0  0  0  0  0  0  0  0  0  0  0
    4.5800   11.3120    7.8530 C   0  0  0  0  0  0  0  0  0  0  0  0
    5.3700   11.4030    9.0040 C   0  0  0  0  0  0  0  0  0  0  0  0
    5.6540   10.2590    9.7570 C   0  0  0  0  0  0  0  0  0  0  0  0
    5.1670    9.0070    9.3640 C   0  0  0  0  0  0  0  0  0  0  0  0
    5.4350    7.8030   10.1370 C   0  0  0  0  0  0  0  0  0  0  0  0
    4.4150    6.9380   10.4920 N   0  0  0  0  0  0  0  0  0  0  0  0
    4.9960    6.0570   11.2690 C   0  0  0  0  0  0  0  0  0  0  0  0
    4.3980    4.9460   11.9550 C   0  0  0  0  0  0  0  0  0  0  0  0
    5.0990    4.1520   12.7240 N   0  0  0  0  0  0  0  0  0  0  0  0
    6.4510    4.4220   12.8550 C   0  0  0  0  0  0  0  0  0  0  0  0
    7.0800    5.4400   12.2420 C   0  0  0  0  0  0  0  0  0  0  0  0
    6.3380    6.2800   11.4250 N   0  0  0  0  0  0  0  0  0  0  0  0
    6.6650    7.3750   10.6420 C   0  0  0  0  0  0  0  0  0  0  0  0
    7.9520    7.8460   10.5390 N   0  0  0  0  0  0  0  0  0  0  0  0
    8.5110    8.7430   11.5890 C   0  0  0  0  0  0  0  0  0  0  0  0
    9.6790    7.9810   12.2420 C   0  0  0  0  0  0  0  0  0  0  0  0
    9.0570   10.0280   10.9480 C   0  0  0  0  0  0  0  0  0  0  0  0
    7.5010    9.1030   12.6840 C   0  0  0  0  0  0  0  0  0  0  0  0
    4.3660    8.9240    8.2170 C   0  0  0  0  0  0  0  0  0  0  0  0
    4.0790   10.0650    7.4630 C   0  0  0  0  0  0  0  0  0  0  0  0
    6.8163   12.0737    5.8343 H   0  0  0  0  0  0  0  0  0  0  0  0
    5.6924   11.6293    4.5054 H   0  0  0  0  0  0  0  0  0  0  0  0
    6.4917   13.2379    4.5054 H   0  0  0  0  0  0  0  0  0  0  0  0
    2.7723   13.4855    9.4051 H   0  0  0  0  0  0  0  0  0  0  0  0
    1.7840   14.5212    8.3201 H   0  0  0  0  0  0  0  0  0  0  0  0
    1.5500   12.7402    8.3201 H   0  0  0  0  0  0  0  0  0  0  0  0
    5.7696   12.3785    9.3182 H   0  0  0  0  0  0  0  0  0  0  0  0
    6.2661   10.3441   10.6670 H   0  0  0  0  0  0  0  0  0  0  0  0
    3.3215    4.7572   11.8308 H   0  0  0  0  0  0  0  0  0  0  0  0
    7.0480    3.7619   13.5014 H   0  0  0  0  0  0  0  0  0  0  0  0
    8.1584    5.6029   12.3852 H   0  0  0  0  0  0  0  0  0  0  0  0
    8.1820    8.2480    9.6280 H   0  0  0  0  0  0  0  0  0  0  0  0
    9.5888    8.0399   13.3367 H   0  0  0  0  0  0  0  0  0  0  0  0
    9.6505    6.9272   11.9279 H   0  0  0  0  0  0  0  0  0  0  0  0
   10.6320    8.4316   11.9279 H   0  0  0  0  0  0  0  0  0  0  0  0
    9.3565   10.7329   11.7375 H   0  0  0  0  0  0  0  0  0  0  0  0
    9.9293    9.7843   10.3238 H   0  0  0  0  0  0  0  0  0  0  0  0
    8.2761   10.4868   10.3238 H   0  0  0  0  0  0  0  0  0  0  0  0
    7.9573    8.9403   13.6716 H   0  0  0  0  0  0  0  0  0  0  0  0
    7.2119   10.1595   12.5832 H   0  0  0  0  0  0  0  0  0  0  0  0
    6.6088    8.4675   12.5832 H   0  0  0  0  0  0  0  0  0  0  0  0
    3.9589    7.9503    7.9069 H   0  0  0  0  0  0  0  0  0  0  0  0
    3.4569    9.9826    6.5595 H   0  0  0  0  0  0  0  0  0  0  0  0
  1  2  1  0
  2  3  2  0
  3  4  1  0
  4  5  1  0
  5  6  1  0
  5  7  2  0
  7  8  1  0
  8  9  2  0
  9 10  1  0
 10 11  2  0
 11 12  1  0
 12 13  1  0
 13 14  2  0
 14 15  1  0
 15 16  2  0
 16 17  1  0
 17 18  2  0
 18 19  1  0
 19 20  1  0
 20 21  1  0
 21 22  1  0
 22 23  1  0
 22 24  1  0
 22 25  1  0
 11 26  1  0
 26 27  2  0
  7  2  1  0
 27  8  1  0
 20 12  2  0
 19 14  1  0
  1 28  1  0
  1 29  1  0
  1 30  1  0
  6 31  1  0
  6 32  1  0
  6 33  1  0
  9 34  1  0
 10 35  1  0
 15 36  1  0
 17 37  1  0
 18 38  1  0
 21 39  1  0
 23 40  1  0
 23 41  1  0
 23 42  1  0
 24 43  1  0
 24 44  1  0
 24 45  1  0
 25 46  1  0
 25 47  1  0
 25 48  1  0
 26 49  1  0
 27 50  1  0
M  END
>  <meeko>  (5) 
{"is_sidechain": [false], "free_energy": -6.652, "intermolecular_energy": -8.39, "internal_energy": -1.088}

$$$$
4wiv_ligand
     RDKit          3D

 50 53  0  0  0  0  0  0  0  0999 V2000
    7.5330    8.8030   10.8740 C   0  0  0  0  0  0  0  0  0  0  0  0
    6.1900    8.2370   10.6100 C   0  0  0  0  0  0  0  0  0  0  0  0
    5.8150    7.0960   11.2030 N   0  0  0  0  0  0  0  0  0  0  0  0
    4.5300    6.8470   10.7610 O   0  0  0  0  0  0  0  0  0  0  0  0
    4.1410    7.8300    9.9040 C   0  0  0  0  0  0  0  0  0  0  0  0
    2.7890    7.6900    9.3290 C   0  0  0  0  0  0  0  0  0  0  0  0
    5.1610    8.7480    9.7770 C   0  0  0  0  0  0  0  0  0  0  0  0
    5.1170    9.9270    8.9390 C   0  0  0  0  0  0  0  0  0  0  0  0
    4.7320    9.8190    7.5980 C   0  0  0  0  0  0  0  0  0  0  0  0
    4.6960   10.9540    6.7820 C   0  0  0  0  0  0  0  0  0  0  0  0
    5.0560   12.2090    7.2880 C   0  0  0  0  0  0  0  0  0  0  0  0
    5.0120   13.4080    6.4640 C   0  0  0  0  0  0  0  0  0  0  0  0
    6.1740   14.0480    6.0670 N   0  0  0  0  0  0  0  0  0  0  0  0
    5.7540   15.1310    5.4600 C   0  0  0  0  0  0  0  0  0  0  0  0
    6.5370   16.1860    4.8810 C   0  0  0  0  0  0  0  0  0  0  0  0
    5.9820   17.2290    4.3210 N   0  0  0  0  0  0  0  0  0  0  0  0
    4.5980   17.2840    4.3070 C   0  0  0  0  0  0  0  0  0  0  0  0
    3.7990   16.3340    4.8260 C   0  0  0  0  0  0  0  0  0  0  0  0
    4.3880   15.2270    5.4160 N   0  0  0  0  0  0  0  0  0  0  0  0
    3.8780   14.0800    6.0050 C   0  0  0  0  0  0  0  0  0  0  0  0
    2.5270   13.8380    6.0910 N   0  0  0  0  0  0  0  0  0  0  0  0
    1.8250   13.9490    7.4000 C   0  0  0  0  0  0  0  0  0  0  0  0
    0.4950   14.6760    7.1250 C   0  0  0  0  0  0  0  0  0  0  0  0
    1.5170   12.5490    7.9530 C   0  0  0  0  0  0  0  0  0  0  0  0
    2.6050   14.7550    8.4440 C   0  0  0  0  0  0  0  0  0  0  0  0
    5.4290   12.3120    8.6340 C   0  0  0  0  0  0  0  0  0  0  0  0
    5.4650   11.1800    9.4540 C   0  0  0  0  0  0  0  0  0  0  0  0
    7.6951    8.8713   11.9598 H   0  0  0  0  0  0  0  0  0  0  0  0
    8.2995    8.1514   10.4291 H   0  0  0  0  0  0  0  0  0  0  0  0
    7.6018    9.8067   10.4291 H   0  0  0  0  0  0  0  0  0  0  0  0
    2.0512    7.6136   10.1413 H   0  0  0  0  0  0  0  0  0  0  0  0
    2.5615    8.5694    8.7086 H   0  0  0  0  0  0  0  0  0  0  0  0
    2.7466    6.7827    8.7086 H   0  0  0  0  0  0  0  0  0  0  0  0
    4.4567    8.8377    7.1843 H   0  0  0  0  0  0  0  0  0  0  0  0
    4.3817   10.8600    5.7321 H   0  0  0  0  0  0  0  0  0  0  0  0
    7.6343   16.1148    4.9093 H   0  0  0  0  0  0  0  0  0  0  0  0
    4.1220   18.1599    3.8421 H   0  0  0  0  0  0  0  0  0  0  0  0
    2.7044   16.4336    4.7830 H   0  0  0  0  0  0  0  0  0  0  0  0
    2.2260   12.9700    5.6460 H   0  0  0  0  0  0  0  0  0  0  0  0
    0.0160   14.9378    8.0800 H   0  0  0  0  0  0  0  0  0  0  0  0
    0.6904   15.5927    6.5493 H   0  0  0  0  0  0  0  0  0  0  0  0
   -0.1711   14.0166    6.5493 H   0  0  0  0  0  0  0  0  0  0  0  0
    1.5237   12.5795    9.0526 H   0  0  0  0  0  0  0  0  0  0  0  0
    0.5262   12.2256    7.6012 H   0  0  0  0  0  0  0  0  0  0  0  0
    2.2806   11.8396    7.6012 H   0  0  0  0  0  0  0  0  0  0  0  0
    2.3003   14.4401    9.4529 H   0  0  0  0  0  0  0  0  0  0  0  0
    3.6827   14.5772    8.3143 H   0  0  0  0  0  0  0  0  0  0  0  0
    2.3919   15.8263    8.3143 H   0  0  0  0  0  0  0  0  0  0  0  0
    5.6966   13.2942    9.0507 H   0  0  0  0  0  0  0  0  0  0  0  0
    5.7679   11.2752   10.5072 H   0  0  0  0  0  0  0  0  0  0  0  0
  1  2  1  0
  2  3  2  0
  3  4  1  0
  4  5  1  0
  5  6  1  0
  5  7  2  0
  7  8  1  0
  8  9  2  0
  9 10  1  0
 10 11  2  0
 11 12  1  0
 12 13  1  0
 13 14  2  0
 14 15  1  0
 15 16  2  0
 16 17  1  0
 17 18  2  0
 18 19  1  0
 19 20  1  0
 20 21  1  0
 21 22  1  0
 22 23  1  0
 22 24  1  0
 22 25  1  0
 11 26  1  0
 26 27  2  0
  7  2  1  0
 27  8  1  0
 20 12  2  0
 19 14  1  0
  1 28  1  0
  1 29  1  0
  1 30  1  0
  6 31  1  0
  6 32  1  0
  6 33  1  0
  9 34  1  0
 10 35  1  0
 15 36  1  0
 17 37  1  0
 18 38  1  0
 21 39  1  0
 23 40  1  0
 23 41  1  0
 23 42  1  0
 24 43  1  0
 24 44  1  0
 24 45  1  0
 25 46  1  0
 25 47  1  0
 25 48  1  0
 26 49  1  0
 27 50  1  0
M  END
>  <meeko>  (6) 
{"is_sidechain": [false], "free_energy": -6.602, "intermolecular_energy": -8.282, "internal_energy": -1.133}

$$$$
4wiv_ligand
     RDKit          3D

 50 53  0  0  0  0  0  0  0  0999 V2000
   -3.0300   10.1960    4.4840 C   0  0  0  0  0  0  0  0  0  0  0  0
   -1.9290    9.2100    4.3930 C   0  0  0  0  0  0  0  0  0  0  0  0
   -2.0950    8.0820    3.6900 N   0  0  0  0  0  0  0  0  0  0  0  0
   -0.9010    7.3940    3.7950 O   0  0  0  0  0  0  0  0  0  0  0  0
   -0.0280    8.1030    4.5620 C   0  0  0  0  0  0  0  0  0  0  0  0
    1.2910    7.4820    4.7830 C   0  0  0  0  0  0  0  0  0  0  0  0
   -0.6310    9.2760    4.9640 C   0  0  0  0  0  0  0  0  0  0  0  0
   -0.0140   10.2810    5.8030 C   0  0  0  0  0  0  0  0  0  0  0  0
   -0.4160   11.6170    5.7060 C   0  0  0  0  0  0  0  0  0  0  0  0
    0.1830   12.5930    6.5090 C   0  0  0  0  0  0  0  0  0  0  0  0
    1.2010   12.2520    7.4080 C   0  0  0  0  0  0  0  0  0  0  0  0
    1.8290   13.2450    8.2660 C   0  0  0  0  0  0  0  0  0  0  0  0
    1.0870   14.2480    8.8640 N   0  0  0  0  0  0  0  0  0  0  0  0
    1.9820   15.0090    9.4460 C   0  0  0  0  0  0  0  0  0  0  0  0
    1.7730   16.2230   10.1840 C   0  0  0  0  0  0  0  0  0  0  0  0
    2.7690   16.8990   10.6960 N   0  0  0  0  0  0  0  0  0  0  0  0
    4.0460   16.3990   10.4990 C   0  0  0  0  0  0  0  0  0  0  0  0
    4.3190   15.2690    9.8230 C   0  0  0  0  0  0  0  0  0  0  0  0
    3.2630   14.5510    9.2830 N   0  0  0  0  0  0  0  0  0  0  0  0
    3.1870   13.3630    8.5740 C   0  0  0  0  0  0  0  0  0  0  0  0
    4.3000   12.6160    8.2710 N   0  0  0  0  0  0  0  0  0  0  0  0
    5.0150   12.8210    6.9800 C   0  0  0  0  0  0  0  0  0  0  0  0
    6.3880   13.4260    7.3300 C   0  0  0  0  0  0  0  0  0  0  0  0
    5.2340   11.4710    6.2790 C   0  0  0  0  0  0  0  0  0  0  0  0
    4.2940   13.7840    6.0310 C   0  0  0  0  0  0  0  0  0  0  0  0
    1.5900   10.9100    7.5090 C   0  0  0  0  0  0  0  0  0  0  0  0
    0.9930    9.9310    6.7090 C   0  0  0  0  0  0  0  0  0  0  0  0
   -3.2551   10.3976    5.5417 H   0  0  0  0  0  0  0  0  0  0  0  0
   -2.7272   11.1305    3.9890 H   0  0  0  0  0  0  0  0  0  0  0  0
   -3.9255    9.7923    3.9890 H   0  0  0  0  0  0  0  0  0  0  0  0
    1.4784    7.3938    5.8633 H   0  0  0  0  0  0  0  0  0  0  0  0
    1.3067    6.4819    4.3253 H   0  0  0  0  0  0  0  0  0  0  0  0
    2.0719    8.1071    4.3253 H   0  0  0  0  0  0  0  0  0  0  0  0
   -1.2062   11.9013    4.9955 H   0  0  0  0  0  0  0  0  0  0  0  0
   -0.1489   13.6390    6.4336 H   0  0  0  0  0  0  0  0  0  0  0  0
    0.7470   16.5947   10.3226 H   0  0  0  0  0  0  0  0  0  0  0  0
    4.8905   16.9623   10.9226 H   0  0  0  0  0  0  0  0  0  0  0  0
    5.3559   14.9224    9.7013 H   0  0  0  0  0  0  0  0  0  0  0  0
    4.1830   11.6110    8.4080 H   0  0  0  0  0  0  0  0  0  0  0  0
    6.4992   13.4750    8.4233 H   0  0  0  0  0  0  0  0  0  0  0  0
    7.1847   12.7956    6.9083 H   0  0  0  0  0  0  0  0  0  0  0  0
    6.4604   14.4394    6.9083 H   0  0  0  0  0  0  0  0  0  0  0  0
    5.3620   10.6820    7.0347 H   0  0  0  0  0  0  0  0  0  0  0  0
    4.3618   11.2386    5.6503 H   0  0  0  0  0  0  0  0  0  0  0  0
    6.1349   11.5262    5.6503 H   0  0  0  0  0  0  0  0  0  0  0  0
    3.7365   14.5286    6.6181 H   0  0  0  0  0  0  0  0  0  0  0  0
    5.0329   14.2956    5.3968 H   0  0  0  0  0  0  0  0  0  0  0  0
    3.5950   13.2191    5.3968 H   0  0  0  0  0  0  0  0  0  0  0  0
    2.3738   10.6233    8.2256 H   0  0  0  0  0  0  0  0  0  0  0  0
    1.3159    8.8828    6.7922 H   0  0  0  0  0  0  0  0  0  0  0  0
  1  2  1  0
  2  3  2  0
  3  4  1  0
  4  5  1  0
  5  6  1  0
  5  7  2  0
  7  8  1  0
  8  9  2  0
  9 10  1  0
 10 11  2  0
 11 12  1  0
 12 13  1  0
 13 14  2  0
 14 15  1  0
 15 16  2  0
 16 17  1  0
 17 18  2  0
 18 19  1  0
 19 20  1  0
 20 21  1  0
 21 22  1  0
 22 23  1  0
 22 24  1  0
 22 25  1  0
 11 26  1  0
 26 27  2  0
  7  2  1  0
 27  8  1  0
 20 12  2  0
 19 14  1  0
  1 28  1  0
  1 29  1  0
  1 30  1  0
  6 31  1  0
  6 32  1  0
  6 33  1  0
  9 34  1  0
 10 35  1  0
 15 36  1  0
 17 37  1  0
 18 38  1  0
 21 39  1  0
 23 40  1  0
 23 41  1  0
 23 42  1  0
 24 43  1  0
 24 44  1  0
 24 45  1  0
 25 46  1  0
 25 47  1  0
 25 48  1  0
 26 49  1  0
 27 50  1  0
M  END
>  <meeko>  (7) 
{"is_sidechain": [false], "free_energy": -6.589, "intermolecular_energy": -8.996, "internal_energy": -0.404}

$$$$
4wiv_ligand
     RDKit          3D

 50 53  0  0  0  0  0  0  0  0999 V2000
    2.4820    6.9990    8.8980 C   0  0  0  0  0  0  0  0  0  0  0  0
    3.8620    6.7960    9.3940 C   0  0  0  0  0  0  0  0  0  0  0  0
    4.2170    5.6220    9.9300 N   0  0  0  0  0  0  0  0  0  0  0  0
    5.5470    5.7540   10.2800 O   0  0  0  0  0  0  0  0  0  0  0  0
    5.9840    7.0030    9.9610 C   0  0  0  0  0  0  0  0  0  0  0  0
    7.3880    7.3030   10.2970 C   0  0  0  0  0  0  0  0  0  0  0  0
    4.9500    7.7090    9.3850 C   0  0  0  0  0  0  0  0  0  0  0  0
    5.0340    9.0790    8.9270 C   0  0  0  0  0  0  0  0  0  0  0  0
    4.5630    9.4230    7.6560 C   0  0  0  0  0  0  0  0  0  0  0  0
    4.6500   10.7440    7.2050 C   0  0  0  0  0  0  0  0  0  0  0  0
    5.2210   11.7370    8.0110 C   0  0  0  0  0  0  0  0  0  0  0  0
    5.3090   13.1220    7.5730 C   0  0  0  0  0  0  0  0  0  0  0  0
    6.4310   13.5950    6.9160 N   0  0  0  0  0  0  0  0  0  0  0  0
    6.2120   14.8810    6.7900 C   0  0  0  0  0  0  0  0  0  0  0  0
    7.0720   15.8770    6.2140 C   0  0  0  0  0  0  0  0  0  0  0  0
    6.7340   17.1400    6.1740 N   0  0  0  0  0  0  0  0  0  0  0  0
    5.5060   17.4890    6.7130 C   0  0  0  0  0  0  0  0  0  0  0  0
    4.6480   16.6130    7.2660 C   0  0  0  0  0  0  0  0  0  0  0  0
    5.0050   15.2740    7.3050 N   0  0  0  0  0  0  0  0  0  0  0  0
    4.3650   14.1330    7.7630 C   0  0  0  0  0  0  0  0  0  0  0  0
    3.1040   14.1690    8.3090 N   0  0  0  0  0  0  0  0  0  0  0  0
    1.9080   13.9230    7.4550 C   0  0  0  0  0  0  0  0  0  0  0  0
    1.4420   12.4850    7.7530 C   0  0  0  0  0  0  0  0  0  0  0  0
    0.7800   14.8960    7.8360 C   0  0  0  0  0  0  0  0  0  0  0  0
    2.1970   14.0320    5.9540 C   0  0  0  0  0  0  0  0  0  0  0  0
    5.6790   11.3890    9.2890 C   0  0  0  0  0  0  0  0  0  0  0  0
    5.5930   10.0690    9.7430 C   0  0  0  0  0  0  0  0  0  0  0  0
    1.7964    7.0998    9.7523 H   0  0  0  0  0  0  0  0  0  0  0  0
    2.4428    7.9126    8.2866 H   0  0  0  0  0  0  0  0  0  0  0  0
    2.1814    6.1354    8.2866 H   0  0  0  0  0  0  0  0  0  0  0  0
    7.5060    7.3282   11.3904 H   0  0  0  0  0  0  0  0  0  0  0  0
    8.0404    6.5240    9.8757 H   0  0  0  0  0  0  0  0  0  0  0  0
    7.6650    8.2806    9.8757 H   0  0  0  0  0  0  0  0  0  0  0  0
    4.1221    8.6511    7.0080 H   0  0  0  0  0  0  0  0  0  0  0  0
    4.2663   11.0056    6.2078 H   0  0  0  0  0  0  0  0  0  0  0  0
    8.0414   15.5692    5.7951 H   0  0  0  0  0  0  0  0  0  0  0  0
    5.2145   18.5493    6.6870 H   0  0  0  0  0  0  0  0  0  0  0  0
    3.6856   16.9512    7.6776 H   0  0  0  0  0  0  0  0  0  0  0  0
    2.9160   14.9920    8.8820 H   0  0  0  0  0  0  0  0  0  0  0  0
    1.3929   12.3336    8.8414 H   0  0  0  0  0  0  0  0  0  0  0  0
    0.4458   12.3242    7.3152 H   0  0  0  0  0  0  0  0  0  0  0  0
    2.1546   11.7705    7.3152 H   0  0  0  0  0  0  0  0  0  0  0  0
    0.7056   14.9602    8.9316 H   0  0  0  0  0  0  0  0  0  0  0  0
    1.0004   15.8920    7.4245 H   0  0  0  0  0  0  0  0  0  0  0  0
   -0.1729   14.5319    7.4245 H   0  0  0  0  0  0  0  0  0  0  0  0
    3.2166   14.4166    5.8039 H   0  0  0  0  0  0  0  0  0  0  0  0
    2.1079   13.0385    5.4903 H   0  0  0  0  0  0  0  0  0  0  0  0
    1.4740   14.7192    5.4903 H   0  0  0  0  0  0  0  0  0  0  0  0
    6.1106   12.1621    9.9417 H   0  0  0  0  0  0  0  0  0  0  0  0
    5.9659    9.8082   10.7445 H   0  0  0  0  0  0  0  0  0  0  0  0
  1  2  1  0
  2  3  2  0
  3  4  1  0
  4  5  1  0
  5  6  1  0
  5  7  2  0
  7  8  1  0
  8  9  2  0
  9 10  1  0
 10 11  2  0
 11 12  1  0
 12 13  1  0
 13 14  2  0
 14 15  1  0
 15 16  2  0
 16 17  1  0
 17 18  2  0
 18 19  1  0
 19 20  1  0
 20 21  1  0
 21 22  1  0
 22 23  1  0
 22 24  1  0
 22 25  1  0
 11 26  1  0
 26 27  2  0
  7  2  1  0
 27  8  1  0
 20 12  2  0
 19 14  1  0
  1 28  1  0
  1 29  1  0
  1 30  1  0
  6 31  1  0
  6 32  1  0
  6 33  1  0
  9 34  1  0
 10 35  1  0
 15 36  1  0
 17 37  1  0
 18 38  1  0
 21 39  1  0
 23 40  1  0
 23 41  1  0
 23 42  1  0
 24 43  1  0
 24 44  1  0
 24 45  1  0
 25 46  1  0
 25 47  1  0
 25 48  1  0
 26 49  1  0
 27 50  1  0
M  END
>  <meeko>  (8) 
{"is_sidechain": [false], "free_energy": -6.493, "intermolecular_energy": -8.305, "internal_energy": -0.976}

$$$$
4wiv_ligand
     RDKit          3D

 50 53  0  0  0  0  0  0  0  0999 V2000
    2.1100    8.8900    6.9320 C   0  0  0  0  0  0  0  0  0  0  0  0
    3.1720    8.9130    7.9650 C   0  0  0  0  0  0  0  0  0  0  0  0
    3.3300    7.8670    8.7870 N   0  0  0  0  0  0  0  0  0  0  0  0
    4.3890    8.1950    9.6110 O   0  0  0  0  0  0  0  0  0  0  0  0
    4.8570    9.4320    9.2900 C   0  0  0  0  0  0  0  0  0  0  0  0
    5.9820    9.9310   10.1030 C   0  0  0  0  0  0  0  0  0  0  0  0
    4.1190    9.9330    8.2390 C   0  0  0  0  0  0  0  0  0  0  0  0
    4.3180   11.2310    7.6300 C   0  0  0  0  0  0  0  0  0  0  0  0
    5.2260   11.3790    6.5760 C   0  0  0  0  0  0  0  0  0  0  0  0
    5.4280   12.6320    5.9900 C   0  0  0  0  0  0  0  0  0  0  0  0
    4.7380   13.7580    6.4570 C   0  0  0  0  0  0  0  0  0  0  0  0
    4.9170   15.0700    5.8540 C   0  0  0  0  0  0  0  0  0  0  0  0
    3.9940   15.5800    4.9590 N   0  0  0  0  0  0  0  0  0  0  0  0
    4.5340   16.6980    4.5400 C   0  0  0  0  0  0  0  0  0  0  0  0
    4.0240   17.6220    3.5660 C   0  0  0  0  0  0  0  0  0  0  0  0
    4.6850   18.6980    3.2230 N   0  0  0  0  0  0  0  0  0  0  0  0
    5.9070   18.9180    3.8380 C   0  0  0  0  0  0  0  0  0  0  0  0
    6.4470   18.1010    4.7590 C   0  0  0  0  0  0  0  0  0  0  0  0
    5.7450   16.9620    5.1250 N   0  0  0  0  0  0  0  0  0  0  0  0
    5.9870   15.9490    6.0380 C   0  0  0  0  0  0  0  0  0  0  0  0
    7.1100   15.9290    6.8320 N   0  0  0  0  0  0  0  0  0  0  0  0
    8.3600   15.2790    6.3500 C   0  0  0  0  0  0  0  0  0  0  0  0
    9.4570   16.3610    6.3760 C   0  0  0  0  0  0  0  0  0  0  0  0
    8.7650   14.1430    7.3030 C   0  0  0  0  0  0  0  0  0  0  0  0
    8.2540   14.7380    4.9200 C   0  0  0  0  0  0  0  0  0  0  0  0
    3.8210   13.6010    7.5040 C   0  0  0  0  0  0  0  0  0  0  0  0
    3.6160   12.3490    8.0920 C   0  0  0  0  0  0  0  0  0  0  0  0
    1.1243    8.8687    7.4199 H   0  0  0  0  0  0  0  0  0  0  0  0
    2.1892    9.7901    6.3046 H   0  0  0  0  0  0  0  0  0  0  0  0
    2.2281    7.9942    6.3046 H   0  0  0  0  0  0  0  0  0  0  0  0
    5.7391    9.8233   11.1704 H   0  0  0  0  0  0  0  0  0  0  0  0
    6.8871    9.3499    9.8724 H   0  0  0  0  0  0  0  0  0  0  0  0
    6.1588   10.9919    9.8724 H   0  0  0  0  0  0  0  0  0  0  0  0
    5.7834   10.5055    6.2068 H   0  0  0  0  0  0  0  0  0  0  0  0
    6.1356   12.7347    5.1541 H   0  0  0  0  0  0  0  0  0  0  0  0
    3.0507   17.4196    3.0952 H   0  0  0  0  0  0  0  0  0  0  0  0
    6.4713   19.8187    3.5545 H   0  0  0  0  0  0  0  0  0  0  0  0
    7.4229   18.3304    5.2118 H   0  0  0  0  0  0  0  0  0  0  0  0
    6.9430   15.6170    7.7900 H   0  0  0  0  0  0  0  0  0  0  0  0
    9.7056   16.6062    7.4191 H   0  0  0  0  0  0  0  0  0  0  0  0
   10.3549   15.9851    5.8637 H   0  0  0  0  0  0  0  0  0  0  0  0
    9.0935   17.2640    5.8637 H   0  0  0  0  0  0  0  0  0  0  0  0
    8.6457   14.4777    8.3440 H   0  0  0  0  0  0  0  0  0  0  0  0
    8.1236   13.2676    7.1235 H   0  0  0  0  0  0  0  0  0  0  0  0
    9.8156   13.8708    7.1235 H   0  0  0  0  0  0  0  0  0  0  0  0
    8.0426   13.6590    4.9509 H   0  0  0  0  0  0  0  0  0  0  0  0
    7.4403   15.2561    4.3913 H   0  0  0  0  0  0  0  0  0  0  0  0
    9.2031   14.9107    4.3913 H   0  0  0  0  0  0  0  0  0  0  0  0
    3.2560   14.4720    7.8676 H   0  0  0  0  0  0  0  0  0  0  0  0
    2.9003   12.2430    8.9206 H   0  0  0  0  0  0  0  0  0  0  0  0
  1  2  1  0
  2  3  2  0
  3  4  1  0
  4  5  1  0
  5  6  1  0
  5  7  2  0
  7  8  1  0
  8  9  2  0
  9 10  1  0
 10 11  2  0
 11 12  1  0
 12 13  1  0
 13 14  2  0
 14 15  1  0
 15 16  2  0
 16 17  1  0
 17 18  2  0
 18 19  1  0
 19 20  1  0
 20 21  1  0
 21 22  1  0
 22 23  1  0
 22 24  1  0
 22 25  1  0
 11 26  1  0
 26 27  2  0
  7  2  1  0
 27  8  1  0
 20 12  2  0
 19 14  1  0
  1 28  1  0
  1 29  1  0
  1 30  1  0
  6 31  1  0
  6 32  1  0
  6 33  1  0
  9 34  1  0
 10 35  1  0
 15 36  1  0
 17 37  1  0
 18 38  1  0
 21 39  1  0
 23 40  1  0
 23 41  1  0
 23 42  1  0
 24 43  1  0
 24 44  1  0
 24 45  1  0
 25 46  1  0
 25 47  1  0
 25 48  1  0
 26 49  1  0
 27 50  1  0
M  END
>  <meeko>  (9) 
{"is_sidechain": [false], "free_energy": -6.354, "intermolecular_energy": -7.806, "internal_energy": -1.304}

$$$$
