
     RDKit          3D

 31 33  0  0  0  0  0  0  0  0999 V2000
   -2.7480  -16.4780   -7.1760 C   0  0  0  0  0  0  0  0  0  0  0  0
   -1.6140  -15.6560   -7.7640 C   0  0  1  0  0  0  0  0  0  0  0  0
   -2.1730  -14.3220   -8.1880 C   0  0  0  0  0  0  0  0  0  0  0  0
   -0.5540  -15.4560   -6.6820 C   0  0  0  0  0  0  0  0  0  0  0  0
   -0.9910  -16.3600   -9.0190 C   0  0  1  0  0  0  0  0  0  0  0  0
    0.1630  -15.5960   -9.5280 N   0  0  0  0  0  0  0  0  0  0  0  0
   -0.5960  -17.7820   -8.7720 C   0  0  0  0  0  0  0  0  0  0  0  0
    0.5730  -18.0950   -8.5070 O   0  0  0  0  0  0  0  0  0  0  0  0
   -1.5780  -18.6860   -8.8890 N   0  0  0  0  0  0  0  0  0  0  0  0
   -1.3830  -20.3200   -8.8600 S   0  0  2  0  0  0  0  0  0  0  0  0
   -0.5760  -20.7360   -9.9820 O   0  0  0  0  0  0  0  0  0  0  0  0
   -2.7290  -20.9100   -8.7380 O   0  0  0  0  0  0  0  0  0  0  0  0
   -0.5680  -20.6880   -7.5500 O   0  0  0  0  0  0  0  0  0  0  0  0
   -1.1660  -20.4550   -6.3280 C   0  0  0  0  0  0  0  0  0  0  0  0
   -0.1640  -20.7090   -5.2420 C   0  0  1  0  0  0  0  0  0  0  0  0
    0.2560  -22.0660   -5.3160 O   0  0  0  0  0  0  0  0  0  0  0  0
    1.6530  -22.0880   -5.2070 C   0  0  1  0  0  0  0  0  0  0  0  0
    2.2530  -23.2910   -5.8100 N   0  0  0  0  0  0  0  0  0  0  0  0
    2.2390  -23.6720   -7.1090 C   0  0  0  0  0  0  0  0  0  0  0  0
    2.9180  -24.7950   -7.2620 N   0  0  0  0  0  0  0  0  0  0  0  0
    3.3880  -25.1430   -6.0590 C   0  0  0  0  0  0  0  0  0  0  0  0
    4.1770  -26.2250   -5.5960 C   0  0  0  0  0  0  0  0  0  0  0  0
    4.6240  -27.1620   -6.4440 N   0  0  0  0  0  0  0  0  0  0  0  0
    4.4730  -26.3000   -4.3070 N   0  0  0  0  0  0  0  0  0  0  0  0
    4.0340  -25.3660   -3.4610 C   0  0  0  0  0  0  0  0  0  0  0  0
    3.2840  -24.3040   -3.8230 N   0  0  0  0  0  0  0  0  0  0  0  0
    2.9770  -24.2190   -5.1220 C   0  0  0  0  0  0  0  0  0  0  0  0
    2.0820  -20.8200   -5.9040 C   0  0  2  0  0  0  0  0  0  0  0  0
    3.3970  -20.4660   -5.5630 O   0  0  0  0  0  0  0  0  0  0  0  0
    1.0680  -19.8390   -5.3870 C   0  0  2  0  0  0  0  0  0  0  0  0
    1.4210  -19.3600   -4.1230 O   0  0  0  0  0  0  0  0  0  0  0  0
  2  1  1  1
  3  2  1  0
  4  2  1  0
  5  2  1  0
  5  6  1  1
  7  5  1  0
  8  7  2  0
  9  7  1  0
 10  9  1  6
 11 10  2  0
 12 10  2  0
 13 10  1  0
 14 13  1  0
 15 14  1  6
 16 15  1  0
 17 16  1  0
 17 18  1  6
 19 18  1  0
 20 19  2  0
 21 20  1  0
 22 21  2  0
 23 22  1  0
 24 22  1  0
 25 24  2  0
 26 25  1  0
 27 21  1  0
 27 18  1  0
 27 26  2  0
 28 17  1  0
 28 29  1  1
 30 28  1  0
 30 15  1  0
 30 31  1  1
M  CHG  1   6   1
M  END
$$$$
