
     RDKit          3D

 14 16  0  0  0  0  0  0  0  0999 V2000
    6.3310    1.9990    5.4080 O   0  0  0  0  0  0  0  0  0  0  0  0
    5.5670    1.5480    6.2460 C   0  0  0  0  0  0  0  0  0  0  0  0
    5.5510    1.9390    7.5650 N   0  0  0  0  0  0  0  0  0  0  0  0
    4.5620    1.2300    8.2620 C   0  0  0  0  0  0  0  0  0  0  0  0
    4.2220    1.3270    9.6020 C   0  0  0  0  0  0  0  0  0  0  0  0
    3.1770    0.5220   10.0790 C   0  0  0  0  0  0  0  0  0  0  0  0
    2.5050   -0.3490    9.2250 C   0  0  0  0  0  0  0  0  0  0  0  0
    2.8610   -0.4370    7.8680 C   0  0  0  0  0  0  0  0  0  0  0  0
    3.8990    0.3590    7.4020 C   0  0  0  0  0  0  0  0  0  0  0  0
    4.5250    0.4630    6.0360 C   0  0  2  0  0  0  0  0  0  0  0  0
    5.1810   -0.8140    5.5620 C   0  0  0  0  0  0  0  0  0  0  0  0
    5.1080   -0.7910    4.0510 C   0  0  0  0  0  0  0  0  0  0  0  0
    3.8000   -0.1370    3.7860 N   0  0  0  0  0  0  0  0  0  0  0  0
    3.5310    0.7770    4.9270 C   0  0  0  0  0  0  0  0  0  0  0  0
  2  1  2  0
  3  2  1  0
  4  3  1  0
  5  4  2  0
  6  5  1  0
  7  6  2  0
  8  7  1  0
  9  8  2  0
  9  4  1  0
 10  9  1  0
 10  2  1  0
 10 11  1  6
 12 11  1  0
 13 12  1  0
 14 13  1  0
 14 10  1  0
M  CHG  1  13   1
M  END
$$$$
