3d6q_ligand
     RDKit          3D

 44 46  0  0  0  0  0  0  0  0999 V2000
  -10.3850    5.0000    1.7730 O   0  0  0  0  0  0  0  0  0  0  0  0
   -9.5960    4.5270    0.9660 C   0  0  0  0  0  0  0  0  0  0  0  0
  -10.0540    3.6650   -0.1320 C   0  0  0  0  0  0  0  0  0  0  0  0
   -9.1520    3.1610   -0.9780 C   0  0  0  0  0  0  0  0  0  0  0  0
   -7.7990    3.4260   -0.8560 N   0  0  0  0  0  0  0  0  0  0  0  0
   -6.8650    2.8290   -1.8090 C   0  0  2  0  0  0  0  0  0  0  0  0
   -6.4410    3.8380   -2.7460 O   0  0  0  0  0  0  0  0  0  0  0  0
   -6.4190    3.2650   -4.0680 C   0  0  1  0  0  0  0  0  0  0  0  0
   -4.9790    2.8280   -4.4080 C   0  0  0  0  0  0  0  0  0  0  0  0
   -3.9240    3.7200   -3.7340 N   0  0  0  0  0  0  0  0  0  0  0  0
   -2.9650    4.2600   -4.7760 C   0  0  0  0  0  0  0  0  0  0  0  0
   -1.9930    5.2380   -4.1360 C   0  0  0  0  0  0  0  0  0  0  0  0
   -1.2330    4.5920   -2.9860 C   0  0  0  0  0  0  0  0  0  0  0  0
   -2.1970    4.0120   -1.9620 C   0  0  0  0  0  0  0  0  0  0  0  0
   -3.1940    3.0450   -2.5900 C   0  0  0  0  0  0  0  0  0  0  0  0
   -7.3750    2.0720   -4.0520 C   0  0  2  0  0  0  0  0  0  0  0  0
   -8.6670    2.4550   -4.5100 O   0  0  0  0  0  0  0  0  0  0  0  0
   -7.3860    1.6130   -2.6040 C   0  0  1  0  0  0  0  0  0  0  0  0
   -6.4380    0.5370   -2.4800 O   0  0  0  0  0  0  0  0  0  0  0  0
   -7.3170    4.2430    0.1570 C   0  0  0  0  0  0  0  0  0  0  0  0
   -6.1270    4.5190    0.2970 O   0  0  0  0  0  0  0  0  0  0  0  0
   -8.2520    4.7530    1.0160 N   0  0  0  0  0  0  0  0  0  0  0  0
  -11.1233    3.4383   -0.2553 H   0  0  0  0  0  0  0  0  0  0  0  0
   -9.4955    2.5141   -1.7987 H   0  0  0  0  0  0  0  0  0  0  0  0
   -6.0423    2.4421   -1.1897 H   0  0  0  0  0  0  0  0  0  0  0  0
   -6.7364    3.9869   -4.8349 H   0  0  0  0  0  0  0  0  0  0  0  0
   -4.8346    1.7915   -4.0691 H   0  0  0  0  0  0  0  0  0  0  0  0
   -4.8487    2.9166   -5.4967 H   0  0  0  0  0  0  0  0  0  0  0  0
   -4.4240    4.5270   -3.3320 H   0  0  0  0  0  0  0  0  0  0  0  0
   -2.4020    3.4254   -5.2193 H   0  0  0  0  0  0  0  0  0  0  0  0
   -3.5384    4.7817   -5.5564 H   0  0  0  0  0  0  0  0  0  0  0  0
   -1.2730    5.5762   -4.8958 H   0  0  0  0  0  0  0  0  0  0  0  0
   -2.5676    6.0873   -3.7380 H   0  0  0  0  0  0  0  0  0  0  0  0
   -0.5978    3.7855   -3.3810 H   0  0  0  0  0  0  0  0  0  0  0  0
   -0.6157    5.3590   -2.4954 H   0  0  0  0  0  0  0  0  0  0  0  0
   -1.6185    3.4756   -1.1955 H   0  0  0  0  0  0  0  0  0  0  0  0
   -2.7660    4.8458   -1.5250 H   0  0  0  0  0  0  0  0  0  0  0  0
   -2.6562    2.1642   -2.9708 H   0  0  0  0  0  0  0  0  0  0  0  0
   -3.9252    2.7365   -1.8283 H   0  0  0  0  0  0  0  0  0  0  0  0
   -7.0607    1.2613   -4.7257 H   0  0  0  0  0  0  0  0  0  0  0  0
   -9.3340    1.8100   -4.1800 H   0  0  0  0  0  0  0  0  0  0  0  0
   -8.3740    1.2758   -2.2574 H   0  0  0  0  0  0  0  0  0  0  0  0
   -6.2140    0.2530   -3.3880 H   0  0  0  0  0  0  0  0  0  0  0  0
   -7.9210    5.3470    1.7620 H   0  0  0  0  0  0  0  0  0  0  0  0
  1  2  2  0
  2  3  1  0
  3  4  2  0
  4  5  1  0
  5  6  1  0
  6  7  1  0
  7  8  1  0
  8  9  1  0
  9 10  1  0
 10 11  1  0
 11 12  1  0
 12 13  1  0
 13 14  1  0
 14 15  1  0
  8 16  1  0
 16 17  1  0
 16 18  1  0
 18 19  1  0
  5 20  1  0
 20 21  2  0
 20 22  1  0
 22  2  1  0
 18  6  1  0
 15 10  1  0
  3 23  1  0
  4 24  1  0
  6 25  1  1
  8 26  1  6
  9 27  1  0
  9 28  1  0
 10 29  1  0
 11 30  1  0
 11 31  1  0
 12 32  1  0
 12 33  1  0
 13 34  1  0
 13 35  1  0
 14 36  1  0
 14 37  1  0
 15 38  1  0
 15 39  1  0
 16 40  1  6
 17 41  1  0
 18 42  1  1
 19 43  1  0
 22 44  1  0
M  CHG  1  10   1
M  END
>  <meeko>  (1) 
{"is_sidechain": [false], "free_energy": -6.248, "intermolecular_energy": -7.71, "internal_energy": -0.594}

$$$$
3d6q_ligand
     RDKit          3D

 44 46  0  0  0  0  0  0  0  0999 V2000
   -6.5410    1.0460   -3.8970 O   0  0  0  0  0  0  0  0  0  0  0  0
   -5.6410    1.8540   -3.7130 C   0  0  0  0  0  0  0  0  0  0  0  0
   -4.6110    2.0940   -4.7330 C   0  0  0  0  0  0  0  0  0  0  0  0
   -3.6410    2.9760   -4.4780 C   0  0  0  0  0  0  0  0  0  0  0  0
   -3.5750    3.6730   -3.2850 N   0  0  0  0  0  0  0  0  0  0  0  0
   -2.4760    4.6120   -3.0660 C   0  0  2  0  0  0  0  0  0  0  0  0
   -2.0950    5.1910   -4.3290 O   0  0  0  0  0  0  0  0  0  0  0  0
   -0.6560    5.2510   -4.3970 C   0  0  1  0  0  0  0  0  0  0  0  0
   -0.1880    6.6640   -3.9950 C   0  0  0  0  0  0  0  0  0  0  0  0
   -1.2010    7.7500   -4.3950 N   0  0  0  0  0  0  0  0  0  0  0  0
   -0.9180    8.2230   -5.8060 C   0  0  0  0  0  0  0  0  0  0  0  0
   -1.9860    9.2090   -6.2520 C   0  0  0  0  0  0  0  0  0  0  0  0
   -2.0850   10.3900   -5.2960 C   0  0  0  0  0  0  0  0  0  0  0  0
   -2.3250    9.9110   -3.8720 C   0  0  0  0  0  0  0  0  0  0  0  0
   -1.2750    8.9050   -3.4150 C   0  0  0  0  0  0  0  0  0  0  0  0
   -0.1200    4.1910   -3.4350 C   0  0  2  0  0  0  0  0  0  0  0  0
    0.1470    2.9750   -4.1230 O   0  0  0  0  0  0  0  0  0  0  0  0
   -1.2130    4.0380   -2.3900 C   0  0  1  0  0  0  0  0  0  0  0  0
   -0.8660    4.8730   -1.2700 O   0  0  0  0  0  0  0  0  0  0  0  0
   -4.5290    3.4900   -2.2930 C   0  0  0  0  0  0  0  0  0  0  0  0
   -4.5210    4.0970   -1.2230 O   0  0  0  0  0  0  0  0  0  0  0  0
   -5.5180    2.5850   -2.5680 N   0  0  0  0  0  0  0  0  0  0  0  0
   -4.6384    1.5556   -5.6918 H   0  0  0  0  0  0  0  0  0  0  0  0
   -2.8694    3.1539   -5.2416 H   0  0  0  0  0  0  0  0  0  0  0  0
   -2.8756    5.3509   -2.3559 H   0  0  0  0  0  0  0  0  0  0  0  0
   -0.2833    5.0544   -5.4131 H   0  0  0  0  0  0  0  0  0  0  0  0
   -0.0496    6.6938   -2.9041 H   0  0  0  0  0  0  0  0  0  0  0  0
    0.7535    6.8703   -4.5251 H   0  0  0  0  0  0  0  0  0  0  0  0
   -2.1310    7.3070   -4.4010 H   0  0  0  0  0  0  0  0  0  0  0  0
    0.0655    8.7149   -5.8342 H   0  0  0  0  0  0  0  0  0  0  0  0
   -0.9234    7.3564   -6.4835 H   0  0  0  0  0  0  0  0  0  0  0  0
   -1.7329    9.5811   -7.2557 H   0  0  0  0  0  0  0  0  0  0  0  0
   -2.9553    8.6890   -6.2617 H   0  0  0  0  0  0  0  0  0  0  0  0
   -1.1463   10.9625   -5.3310 H   0  0  0  0  0  0  0  0  0  0  0  0
   -2.9302   11.0235   -5.6031 H   0  0  0  0  0  0  0  0  0  0  0  0
   -2.2997   10.7797   -3.1976 H   0  0  0  0  0  0  0  0  0  0  0  0
   -3.3042    9.4105   -3.8460 H   0  0  0  0  0  0  0  0  0  0  0  0
   -0.2945    9.4008   -3.3618 H   0  0  0  0  0  0  0  0  0  0  0  0
   -1.5527    8.5192   -2.4230 H   0  0  0  0  0  0  0  0  0  0  0  0
    0.8371    4.4753   -2.9733 H   0  0  0  0  0  0  0  0  0  0  0  0
    0.1950    3.1520   -5.0910 H   0  0  0  0  0  0  0  0  0  0  0  0
   -1.3526    3.0019   -2.0480 H   0  0  0  0  0  0  0  0  0  0  0  0
   -1.7000    5.0760   -0.8010 H   0  0  0  0  0  0  0  0  0  0  0  0
   -6.2200    2.4350   -1.8590 H   0  0  0  0  0  0  0  0  0  0  0  0
  1  2  2  0
  2  3  1  0
  3  4  2  0
  4  5  1  0
  5  6  1  0
  6  7  1  0
  7  8  1  0
  8  9  1  0
  9 10  1  0
 10 11  1  0
 11 12  1  0
 12 13  1  0
 13 14  1  0
 14 15  1  0
  8 16  1  0
 16 17  1  0
 16 18  1  0
 18 19  1  0
  5 20  1  0
 20 21  2  0
 20 22  1  0
 22  2  1  0
 18  6  1  0
 15 10  1  0
  3 23  1  0
  4 24  1  0
  6 25  1  1
  8 26  1  6
  9 27  1  0
  9 28  1  0
 10 29  1  0
 11 30  1  0
 11 31  1  0
 12 32  1  0
 12 33  1  0
 13 34  1  0
 13 35  1  0
 14 36  1  0
 14 37  1  0
 15 38  1  0
 15 39  1  0
 16 40  1  1
 17 41  1  0
 18 42  1  1
 19 43  1  0
 22 44  1  0
M  CHG  1  10   1
M  END
>  <meeko>  (2) 
{"is_sidechain": [false], "free_energy": -6.181, "intermolecular_energy": -7.507, "internal_energy": -0.714}

$$$$
3d6q_ligand
     RDKit          3D

 44 46  0  0  0  0  0  0  0  0999 V2000
  -10.8030    4.5210    1.3540 O   0  0  0  0  0  0  0  0  0  0  0  0
   -9.9520    4.1300    0.5670 C   0  0  0  0  0  0  0  0  0  0  0  0
   -8.6240    4.7560    0.5060 C   0  0  0  0  0  0  0  0  0  0  0  0
   -7.7340    4.3020   -0.3800 C   0  0  0  0  0  0  0  0  0  0  0  0
   -8.0210    3.2590   -1.2420 N   0  0  0  0  0  0  0  0  0  0  0  0
   -7.0050    2.8220   -2.1990 C   0  0  2  0  0  0  0  0  0  0  0  0
   -5.7520    3.4550   -1.8740 O   0  0  0  0  0  0  0  0  0  0  0  0
   -5.1200    3.8870   -3.0950 C   0  0  1  0  0  0  0  0  0  0  0  0
   -4.0830    2.8310   -3.5290 C   0  0  0  0  0  0  0  0  0  0  0  0
   -2.6480    3.3820   -3.5200 N   0  0  0  0  0  0  0  0  0  0  0  0
   -2.4120    4.1820   -2.2550 C   0  0  0  0  0  0  0  0  0  0  0  0
   -0.9600    4.6290   -2.1810 C   0  0  0  0  0  0  0  0  0  0  0  0
   -0.5650    5.4340   -3.4110 C   0  0  0  0  0  0  0  0  0  0  0  0
   -0.8430    4.6470   -4.6820 C   0  0  0  0  0  0  0  0  0  0  0  0
   -2.2890    4.1710   -4.7630 C   0  0  0  0  0  0  0  0  0  0  0  0
   -6.2250    4.0450   -4.1380 C   0  0  2  0  0  0  0  0  0  0  0  0
   -6.6800    5.3930   -4.1900 O   0  0  0  0  0  0  0  0  0  0  0  0
   -7.3130    3.0840   -3.6880 C   0  0  1  0  0  0  0  0  0  0  0  0
   -7.1410    1.8570   -4.4200 O   0  0  0  0  0  0  0  0  0  0  0  0
   -9.2560    2.6260   -1.2170 C   0  0  0  0  0  0  0  0  0  0  0  0
   -9.5520    1.6860   -1.9530 O   0  0  0  0  0  0  0  0  0  0  0  0
  -10.1580    3.1000   -0.3040 N   0  0  0  0  0  0  0  0  0  0  0  0
   -8.3668    5.5863    1.1802 H   0  0  0  0  0  0  0  0  0  0  0  0
   -6.7408    4.7726   -0.4258 H   0  0  0  0  0  0  0  0  0  0  0  0
   -6.9752    1.7272   -2.0963 H   0  0  0  0  0  0  0  0  0  0  0  0
   -4.5893    4.8421   -2.9683 H   0  0  0  0  0  0  0  0  0  0  0  0
   -4.1380    1.9768   -2.8381 H   0  0  0  0  0  0  0  0  0  0  0  0
   -4.3209    2.5307   -4.5601 H   0  0  0  0  0  0  0  0  0  0  0  0
   -2.0140    2.5700   -3.4910 H   0  0  0  0  0  0  0  0  0  0  0  0
   -3.0652    5.0670   -2.2573 H   0  0  0  0  0  0  0  0  0  0  0  0
   -2.6388    3.5510   -1.3830 H   0  0  0  0  0  0  0  0  0  0  0  0
   -0.8224    5.2527   -1.2854 H   0  0  0  0  0  0  0  0  0  0  0  0
   -0.3233    3.7333   -2.1335 H   0  0  0  0  0  0  0  0  0  0  0  0
   -1.1441    6.3690   -3.4316 H   0  0  0  0  0  0  0  0  0  0  0  0
    0.5119    5.6523   -3.3593 H   0  0  0  0  0  0  0  0  0  0  0  0
   -0.6332    5.2902   -5.5494 H   0  0  0  0  0  0  0  0  0  0  0  0
   -0.1958    3.7576   -4.6755 H   0  0  0  0  0  0  0  0  0  0  0  0
   -2.9549    5.0427   -4.8456 H   0  0  0  0  0  0  0  0  0  0  0  0
   -2.4065    3.5253   -5.6457 H   0  0  0  0  0  0  0  0  0  0  0  0
   -5.8866    3.8162   -5.1594 H   0  0  0  0  0  0  0  0  0  0  0  0
   -7.1230    5.6200   -3.3400 H   0  0  0  0  0  0  0  0  0  0  0  0
   -8.3317    3.4679   -3.8458 H   0  0  0  0  0  0  0  0  0  0  0  0
   -7.9740    1.3530   -4.3250 H   0  0  0  0  0  0  0  0  0  0  0  0
  -11.0630    2.6570   -0.2720 H   0  0  0  0  0  0  0  0  0  0  0  0
  1  2  2  0
  2  3  1  0
  3  4  2  0
  4  5  1  0
  5  6  1  0
  6  7  1  0
  7  8  1  0
  8  9  1  0
  9 10  1  0
 10 11  1  0
 11 12  1  0
 12 13  1  0
 13 14  1  0
 14 15  1  0
  8 16  1  0
 16 17  1  0
 16 18  1  0
 18 19  1  0
  5 20  1  0
 20 21  2  0
 20 22  1  0
 22  2  1  0
 18  6  1  0
 15 10  1  0
  3 23  1  0
  4 24  1  0
  6 25  1  6
  8 26  1  1
  9 27  1  0
  9 28  1  0
 10 29  1  0
 11 30  1  0
 11 31  1  0
 12 32  1  0
 12 33  1  0
 13 34  1  0
 13 35  1  0
 14 36  1  0
 14 37  1  0
 15 38  1  0
 15 39  1  0
 16 40  1  6
 17 41  1  0
 18 42  1  1
 19 43  1  0
 22 44  1  0
M  CHG  1  10   1
M  END
>  <meeko>  (3) 
{"is_sidechain": [false], "free_energy": -5.961, "intermolecular_energy": -7.517, "internal_energy": -0.433}

$$$$
3d6q_ligand
     RDKit          3D

 44 46  0  0  0  0  0  0  0  0999 V2000
    8.5240    2.7910   -6.1070 O   0  0  0  0  0  0  0  0  0  0  0  0
    7.5220    3.2890   -5.6130 C   0  0  0  0  0  0  0  0  0  0  0  0
    6.8480    4.4320   -6.2460 C   0  0  0  0  0  0  0  0  0  0  0  0
    5.7660    4.9500   -5.6610 C   0  0  0  0  0  0  0  0  0  0  0  0
    5.2550    4.4440   -4.4780 N   0  0  0  0  0  0  0  0  0  0  0  0
    4.0750    5.0700   -3.8830 C   0  0  2  0  0  0  0  0  0  0  0  0
    2.9100    4.2980   -4.2300 O   0  0  0  0  0  0  0  0  0  0  0  0
    1.8400    5.2010   -4.5740 C   0  0  1  0  0  0  0  0  0  0  0  0
    0.9270    5.3960   -3.3470 C   0  0  0  0  0  0  0  0  0  0  0  0
   -0.2590    4.4170   -3.3390 N   0  0  0  0  0  0  0  0  0  0  0  0
   -1.1280    4.6510   -4.5590 C   0  0  0  0  0  0  0  0  0  0  0  0
   -2.2330    3.6090   -4.6210 C   0  0  0  0  0  0  0  0  0  0  0  0
   -3.0730    3.6130   -3.3520 C   0  0  0  0  0  0  0  0  0  0  0  0
   -2.1940    3.4230   -2.1250 C   0  0  0  0  0  0  0  0  0  0  0  0
   -1.0660    4.4450   -2.0560 C   0  0  0  0  0  0  0  0  0  0  0  0
    2.4880    6.5170   -5.0020 C   0  0  2  0  0  0  0  0  0  0  0  0
    2.6480    6.5640   -6.4150 O   0  0  0  0  0  0  0  0  0  0  0  0
    3.8180    6.5420   -4.2670 C   0  0  1  0  0  0  0  0  0  0  0  0
    3.6370    7.3110   -3.0640 O   0  0  0  0  0  0  0  0  0  0  0  0
    5.8480    3.3600   -3.8460 C   0  0  0  0  0  0  0  0  0  0  0  0
    5.4230    2.8670   -2.8030 O   0  0  0  0  0  0  0  0  0  0  0  0
    6.9560    2.8380   -4.4580 N   0  0  0  0  0  0  0  0  0  0  0  0
    7.2297    4.8539   -7.1875 H   0  0  0  0  0  0  0  0  0  0  0  0
    5.2639    5.8068   -6.1342 H   0  0  0  0  0  0  0  0  0  0  0  0
    4.2783    5.0822   -2.8020 H   0  0  0  0  0  0  0  0  0  0  0  0
    1.2175    4.8092   -5.3919 H   0  0  0  0  0  0  0  0  0  0  0  0
    1.5217    5.2383   -2.4352 H   0  0  0  0  0  0  0  0  0  0  0  0
    0.5197    6.4169   -3.3901 H   0  0  0  0  0  0  0  0  0  0  0  0
    0.1340    3.4680   -3.4210 H   0  0  0  0  0  0  0  0  0  0  0  0
   -1.5764    5.6537   -4.4994 H   0  0  0  0  0  0  0  0  0  0  0  0
   -0.5073    4.5717   -5.4637 H   0  0  0  0  0  0  0  0  0  0  0  0
   -2.8831    3.8277   -5.4810 H   0  0  0  0  0  0  0  0  0  0  0  0
   -1.7680    2.6175   -4.7248 H   0  0  0  0  0  0  0  0  0  0  0  0
   -3.6019    4.5742   -3.2720 H   0  0  0  0  0  0  0  0  0  0  0  0
   -3.7941    2.7838   -3.4024 H   0  0  0  0  0  0  0  0  0  0  0  0
   -2.8176    3.5235   -1.2245 H   0  0  0  0  0  0  0  0  0  0  0  0
   -1.7385    2.4239   -2.1897 H   0  0  0  0  0  0  0  0  0  0  0  0
   -1.4928    5.4492   -1.9164 H   0  0  0  0  0  0  0  0  0  0  0  0
   -0.4071    4.1977   -1.2106 H   0  0  0  0  0  0  0  0  0  0  0  0
    1.8770    7.3972   -4.7533 H   0  0  0  0  0  0  0  0  0  0  0  0
    3.5310    6.1980   -6.6560 H   0  0  0  0  0  0  0  0  0  0  0  0
    4.6396    6.9716   -4.8590 H   0  0  0  0  0  0  0  0  0  0  0  0
    2.7880    7.0250   -2.6720 H   0  0  0  0  0  0  0  0  0  0  0  0
    7.4040    2.0510   -4.0130 H   0  0  0  0  0  0  0  0  0  0  0  0
  1  2  2  0
  2  3  1  0
  3  4  2  0
  4  5  1  0
  5  6  1  0
  6  7  1  0
  7  8  1  0
  8  9  1  0
  9 10  1  0
 10 11  1  0
 11 12  1  0
 12 13  1  0
 13 14  1  0
 14 15  1  0
  8 16  1  0
 16 17  1  0
 16 18  1  0
 18 19  1  0
  5 20  1  0
 20 21  2  0
 20 22  1  0
 22  2  1  0
 18  6  1  0
 15 10  1  0
  3 23  1  0
  4 24  1  0
  6 25  1  1
  8 26  1  6
  9 27  1  0
  9 28  1  0
 10 29  1  0
 11 30  1  0
 11 31  1  0
 12 32  1  0
 12 33  1  0
 13 34  1  0
 13 35  1  0
 14 36  1  0
 14 37  1  0
 15 38  1  0
 15 39  1  0
 16 40  1  1
 17 41  1  0
 18 42  1  6
 19 43  1  0
 22 44  1  0
M  CHG  1  10   1
M  END
>  <meeko>  (4) 
{"is_sidechain": [false], "free_energy": -5.932, "intermolecular_energy": -7.364, "internal_energy": -0.549}

$$$$
3d6q_ligand
     RDKit          3D

 44 46  0  0  0  0  0  0  0  0999 V2000
   -9.6510    3.6080   -0.2650 O   0  0  0  0  0  0  0  0  0  0  0  0
   -8.5920    3.4220   -0.8490 C   0  0  0  0  0  0  0  0  0  0  0  0
   -7.6460    4.5220   -1.0800 C   0  0  0  0  0  0  0  0  0  0  0  0
   -6.5090    4.2710   -1.7340 C   0  0  0  0  0  0  0  0  0  0  0  0
   -6.1920    3.0070   -2.2010 N   0  0  0  0  0  0  0  0  0  0  0  0
   -4.9370    2.8060   -2.9240 C   0  0  2  0  0  0  0  0  0  0  0  0
   -3.9710    3.7700   -2.4630 O   0  0  0  0  0  0  0  0  0  0  0  0
   -3.2510    4.2850   -3.6010 C   0  0  1  0  0  0  0  0  0  0  0  0
   -1.9170    3.5240   -3.7430 C   0  0  0  0  0  0  0  0  0  0  0  0
   -0.6970    4.4460   -3.5810 N   0  0  0  0  0  0  0  0  0  0  0  0
   -0.9170    5.7300   -4.3550 C   0  0  0  0  0  0  0  0  0  0  0  0
    0.2310    6.6950   -4.1020 C   0  0  0  0  0  0  0  0  0  0  0  0
    1.5710    6.0710   -4.4620 C   0  0  0  0  0  0  0  0  0  0  0  0
    1.7700    4.7590   -3.7180 C   0  0  0  0  0  0  0  0  0  0  0  0
    0.6190    3.7860   -3.9420 C   0  0  0  0  0  0  0  0  0  0  0  0
   -4.1440    4.0810   -4.8240 C   0  0  2  0  0  0  0  0  0  0  0  0
   -4.9070    5.2510   -5.0920 O   0  0  0  0  0  0  0  0  0  0  0  0
   -5.0160    2.8900   -4.4620 C   0  0  1  0  0  0  0  0  0  0  0  0
   -4.4030    1.7140   -5.0230 O   0  0  0  0  0  0  0  0  0  0  0  0
   -7.0470    1.9320   -1.9990 C   0  0  0  0  0  0  0  0  0  0  0  0
   -6.8020    0.7890   -2.3810 O   0  0  0  0  0  0  0  0  0  0  0  0
   -8.2070    2.2030   -1.3260 N   0  0  0  0  0  0  0  0  0  0  0  0
   -7.8707    5.5368   -0.7198 H   0  0  0  0  0  0  0  0  0  0  0  0
   -5.8015    5.0953   -1.9072 H   0  0  0  0  0  0  0  0  0  0  0  0
   -4.6489    1.7675   -2.7036 H   0  0  0  0  0  0  0  0  0  0  0  0
   -3.0134    5.3532   -3.4890 H   0  0  0  0  0  0  0  0  0  0  0  0
   -1.8730    2.7409   -2.9718 H   0  0  0  0  0  0  0  0  0  0  0  0
   -1.8814    3.0948   -4.7552 H   0  0  0  0  0  0  0  0  0  0  0  0
   -0.6400    4.6960   -2.5830 H   0  0  0  0  0  0  0  0  0  0  0  0
   -0.9710    5.5024   -5.4298 H   0  0  0  0  0  0  0  0  0  0  0  0
   -1.8576    6.1940   -4.0234 H   0  0  0  0  0  0  0  0  0  0  0  0
    0.0810    7.5975   -4.7127 H   0  0  0  0  0  0  0  0  0  0  0  0
    0.2426    6.9456   -3.0310 H   0  0  0  0  0  0  0  0  0  0  0  0
    1.6013    5.8803   -5.5449 H   0  0  0  0  0  0  0  0  0  0  0  0
    2.3736    6.7661   -4.1745 H   0  0  0  0  0  0  0  0  0  0  0  0
    2.7017    4.2913   -4.0689 H   0  0  0  0  0  0  0  0  0  0  0  0
    1.8141    4.9857   -2.6425 H   0  0  0  0  0  0  0  0  0  0  0  0
    0.5973    3.4851   -4.9998 H   0  0  0  0  0  0  0  0  0  0  0  0
    0.7655    2.9014   -3.3049 H   0  0  0  0  0  0  0  0  0  0  0  0
   -3.5738    3.8939   -5.7459 H   0  0  0  0  0  0  0  0  0  0  0  0
   -4.8420    5.4710   -6.0500 H   0  0  0  0  0  0  0  0  0  0  0  0
   -6.0505    2.9762   -4.8257 H   0  0  0  0  0  0  0  0  0  0  0  0
   -4.6810    0.9590   -4.4670 H   0  0  0  0  0  0  0  0  0  0  0  0
   -8.8440    1.4360   -1.1710 H   0  0  0  0  0  0  0  0  0  0  0  0
  1  2  2  0
  2  3  1  0
  3  4  2  0
  4  5  1  0
  5  6  1  0
  6  7  1  0
  7  8  1  0
  8  9  1  0
  9 10  1  0
 10 11  1  0
 11 12  1  0
 12 13  1  0
 13 14  1  0
 14 15  1  0
  8 16  1  0
 16 17  1  0
 16 18  1  0
 18 19  1  0
  5 20  1  0
 20 21  2  0
 20 22  1  0
 22  2  1  0
 18  6  1  0
 15 10  1  0
  3 23  1  0
  4 24  1  0
  6 25  1  6
  8 26  1  1
  9 27  1  0
  9 28  1  0
 10 29  1  0
 11 30  1  0
 11 31  1  0
 12 32  1  0
 12 33  1  0
 13 34  1  0
 13 35  1  0
 14 36  1  0
 14 37  1  0
 15 38  1  0
 15 39  1  0
 16 40  1  6
 17 41  1  0
 18 42  1  1
 19 43  1  0
 22 44  1  0
M  CHG  1  10   1
M  END
>  <meeko>  (5) 
{"is_sidechain": [false], "free_energy": -5.889, "intermolecular_energy": -7.284, "internal_energy": -0.576}

$$$$
3d6q_ligand
     RDKit          3D

 44 46  0  0  0  0  0  0  0  0999 V2000
    3.4210    5.4750   -3.6050 O   0  0  0  0  0  0  0  0  0  0  0  0
    2.2290    5.4300   -3.8730 C   0  0  0  0  0  0  0  0  0  0  0  0
    1.4820    4.1660   -3.8180 C   0  0  0  0  0  0  0  0  0  0  0  0
    0.1840    4.1670   -4.1340 C   0  0  0  0  0  0  0  0  0  0  0  0
   -0.4810    5.3200   -4.5120 N   0  0  0  0  0  0  0  0  0  0  0  0
   -1.8990    5.2460   -4.8610 C   0  0  2  0  0  0  0  0  0  0  0  0
   -2.4660    4.0610   -4.2690 O   0  0  0  0  0  0  0  0  0  0  0  0
   -3.3410    3.4360   -5.2290 C   0  0  1  0  0  0  0  0  0  0  0  0
   -4.7950    3.8630   -4.9420 C   0  0  0  0  0  0  0  0  0  0  0  0
   -5.3610    3.1980   -3.6770 N   0  0  0  0  0  0  0  0  0  0  0  0
   -6.0460    1.8970   -4.0420 C   0  0  0  0  0  0  0  0  0  0  0  0
   -6.5020    1.1750   -2.7840 C   0  0  0  0  0  0  0  0  0  0  0  0
   -7.4200    2.0500   -1.9420 C   0  0  0  0  0  0  0  0  0  0  0  0
   -6.7460    3.3750   -1.6140 C   0  0  0  0  0  0  0  0  0  0  0  0
   -6.2630    4.1040   -2.8620 C   0  0  0  0  0  0  0  0  0  0  0  0
   -2.8870    3.8980   -6.6140 C   0  0  2  0  0  0  0  0  0  0  0  0
   -1.9900    2.9550   -7.1900 O   0  0  0  0  0  0  0  0  0  0  0  0
   -2.2310    5.2460   -6.3680 C   0  0  1  0  0  0  0  0  0  0  0  0
   -3.2150    6.2640   -6.6260 O   0  0  0  0  0  0  0  0  0  0  0  0
    0.1770    6.5410   -4.5700 C   0  0  0  0  0  0  0  0  0  0  0  0
   -0.3740    7.5940   -4.8860 O   0  0  0  0  0  0  0  0  0  0  0  0
    1.5050    6.5260   -4.2420 N   0  0  0  0  0  0  0  0  0  0  0  0
    1.9838    3.2332   -3.5212 H   0  0  0  0  0  0  0  0  0  0  0  0
   -0.3744    3.2202   -4.0923 H   0  0  0  0  0  0  0  0  0  0  0  0
   -2.3342    6.1762   -4.4668 H   0  0  0  0  0  0  0  0  0  0  0  0
   -3.2990    2.3383   -5.1707 H   0  0  0  0  0  0  0  0  0  0  0  0
   -4.8233    4.9547   -4.8103 H   0  0  0  0  0  0  0  0  0  0  0  0
   -5.4131    3.5442   -5.7943 H   0  0  0  0  0  0  0  0  0  0  0  0
   -4.5570    2.9620   -3.0760 H   0  0  0  0  0  0  0  0  0  0  0  0
   -6.9195    2.1111   -4.6753 H   0  0  0  0  0  0  0  0  0  0  0  0
   -5.3362    1.2572   -4.5867 H   0  0  0  0  0  0  0  0  0  0  0  0
   -7.0434    0.2618   -3.0720 H   0  0  0  0  0  0  0  0  0  0  0  0
   -5.6129    0.9296   -2.1847 H   0  0  0  0  0  0  0  0  0  0  0  0
   -8.3468    2.2448   -2.5015 H   0  0  0  0  0  0  0  0  0  0  0  0
   -7.6457    1.5251   -1.0021 H   0  0  0  0  0  0  0  0  0  0  0  0
   -7.4665    4.0170   -1.0861 H   0  0  0  0  0  0  0  0  0  0  0  0
   -5.8666    3.1591   -0.9894 H   0  0  0  0  0  0  0  0  0  0  0  0
   -7.1308    4.3971   -3.4711 H   0  0  0  0  0  0  0  0  0  0  0  0
   -5.6983    4.9987   -2.5610 H   0  0  0  0  0  0  0  0  0  0  0  0
   -3.7159    3.9819   -7.3323 H   0  0  0  0  0  0  0  0  0  0  0  0
   -1.0630    3.2170   -6.9820 H   0  0  0  0  0  0  0  0  0  0  0  0
   -1.3440    5.4233   -6.9939 H   0  0  0  0  0  0  0  0  0  0  0  0
   -3.3340    6.7590   -5.7910 H   0  0  0  0  0  0  0  0  0  0  0  0
    2.0030    7.4030   -4.2810 H   0  0  0  0  0  0  0  0  0  0  0  0
  1  2  2  0
  2  3  1  0
  3  4  2  0
  4  5  1  0
  5  6  1  0
  6  7  1  0
  7  8  1  0
  8  9  1  0
  9 10  1  0
 10 11  1  0
 11 12  1  0
 12 13  1  0
 13 14  1  0
 14 15  1  0
  8 16  1  0
 16 17  1  0
 16 18  1  0
 18 19  1  0
  5 20  1  0
 20 21  2  0
 20 22  1  0
 22  2  1  0
 18  6  1  0
 15 10  1  0
  3 23  1  0
  4 24  1  0
  6 25  1  1
  8 26  1  6
  9 27  1  0
  9 28  1  0
 10 29  1  0
 11 30  1  0
 11 31  1  0
 12 32  1  0
 12 33  1  0
 13 34  1  0
 13 35  1  0
 14 36  1  0
 14 37  1  0
 15 38  1  0
 15 39  1  0
 16 40  1  6
 17 41  1  0
 18 42  1  6
 19 43  1  0
 22 44  1  0
M  CHG  1  10   1
M  END
>  <meeko>  (6) 
{"is_sidechain": [false], "free_energy": -5.746, "intermolecular_energy": -7.134, "internal_energy": -0.551}

$$$$
3d6q_ligand
     RDKit          3D

 44 46  0  0  0  0  0  0  0  0999 V2000
    0.4950    5.6270   -5.1880 O   0  0  0  0  0  0  0  0  0  0  0  0
   -0.4700    5.0320   -4.7280 C   0  0  0  0  0  0  0  0  0  0  0  0
   -1.5980    4.6360   -5.5820 C   0  0  0  0  0  0  0  0  0  0  0  0
   -2.6350    4.0000   -5.0300 C   0  0  0  0  0  0  0  0  0  0  0  0
   -2.6810    3.7010   -3.6800 N   0  0  0  0  0  0  0  0  0  0  0  0
   -3.8550    3.0170   -3.1390 C   0  0  2  0  0  0  0  0  0  0  0  0
   -4.4510    2.2160   -4.1770 O   0  0  0  0  0  0  0  0  0  0  0  0
   -5.8830    2.3570   -4.1080 C   0  0  1  0  0  0  0  0  0  0  0  0
   -6.4720    1.1670   -3.3220 C   0  0  0  0  0  0  0  0  0  0  0  0
   -7.8690    0.7670   -3.8270 N   0  0  0  0  0  0  0  0  0  0  0  0
   -8.0030    1.1120   -5.2970 C   0  0  0  0  0  0  0  0  0  0  0  0
   -9.3350    0.6110   -5.8320 C   0  0  0  0  0  0  0  0  0  0  0  0
  -10.5020    1.1780   -5.0360 C   0  0  0  0  0  0  0  0  0  0  0  0
  -10.3430    0.8690   -3.5550 C   0  0  0  0  0  0  0  0  0  0  0  0
   -9.0030    1.3450   -3.0050 C   0  0  0  0  0  0  0  0  0  0  0  0
   -6.1670    3.6840   -3.4060 C   0  0  2  0  0  0  0  0  0  0  0  0
   -6.3600    4.7260   -4.3560 O   0  0  0  0  0  0  0  0  0  0  0  0
   -4.9480    3.9180   -2.5290 C   0  0  1  0  0  0  0  0  0  0  0  0
   -5.2620    3.4390   -1.2090 O   0  0  0  0  0  0  0  0  0  0  0  0
   -1.6360    4.0430   -2.8330 C   0  0  0  0  0  0  0  0  0  0  0  0
   -1.6240    3.7850   -1.6310 O   0  0  0  0  0  0  0  0  0  0  0  0
   -0.5790    4.6920   -3.4120 N   0  0  0  0  0  0  0  0  0  0  0  0
   -1.5888    4.8597   -6.6590 H   0  0  0  0  0  0  0  0  0  0  0  0
   -3.4797    3.7044   -5.6696 H   0  0  0  0  0  0  0  0  0  0  0  0
   -3.4692    2.4189   -2.3003 H   0  0  0  0  0  0  0  0  0  0  0  0
   -6.3452    2.3576   -5.1062 H   0  0  0  0  0  0  0  0  0  0  0  0
   -5.7974    0.3046   -3.4279 H   0  0  0  0  0  0  0  0  0  0  0  0
   -6.5699    1.4741   -2.2703 H   0  0  0  0  0  0  0  0  0  0  0  0
   -7.9350   -0.2580   -3.7460 H   0  0  0  0  0  0  0  0  0  0  0  0
   -7.9486    2.2036   -5.4209 H   0  0  0  0  0  0  0  0  0  0  0  0
   -7.1867    0.6307   -5.8556 H   0  0  0  0  0  0  0  0  0  0  0  0
   -9.4365    0.9176   -6.8835 H   0  0  0  0  0  0  0  0  0  0  0  0
   -9.3542   -0.4851   -5.7414 H   0  0  0  0  0  0  0  0  0  0  0  0
  -10.5384    2.2685   -5.1755 H   0  0  0  0  0  0  0  0  0  0  0  0
  -11.4332    0.7161   -5.3958 H   0  0  0  0  0  0  0  0  0  0  0  0
  -11.1507    1.3692   -3.0006 H   0  0  0  0  0  0  0  0  0  0  0  0
  -10.3881   -0.2232   -3.4325 H   0  0  0  0  0  0  0  0  0  0  0  0
   -8.9611    2.4433   -3.0486 H   0  0  0  0  0  0  0  0  0  0  0  0
   -8.9009    1.0081   -1.9629 H   0  0  0  0  0  0  0  0  0  0  0  0
   -7.0912    3.6649   -2.8097 H   0  0  0  0  0  0  0  0  0  0  0  0
   -7.0420    4.4480   -5.0100 H   0  0  0  0  0  0  0  0  0  0  0  0
   -4.6411    4.9729   -2.4746 H   0  0  0  0  0  0  0  0  0  0  0  0
   -5.8230    4.1200   -0.7870 H   0  0  0  0  0  0  0  0  0  0  0  0
    0.1900    4.9540   -2.8130 H   0  0  0  0  0  0  0  0  0  0  0  0
  1  2  2  0
  2  3  1  0
  3  4  2  0
  4  5  1  0
  5  6  1  0
  6  7  1  0
  7  8  1  0
  8  9  1  0
  9 10  1  0
 10 11  1  0
 11 12  1  0
 12 13  1  0
 13 14  1  0
 14 15  1  0
  8 16  1  0
 16 17  1  0
 16 18  1  0
 18 19  1  0
  5 20  1  0
 20 21  2  0
 20 22  1  0
 22  2  1  0
 18  6  1  0
 15 10  1  0
  3 23  1  0
  4 24  1  0
  6 25  1  1
  8 26  1  6
  9 27  1  0
  9 28  1  0
 10 29  1  0
 11 30  1  0
 11 31  1  0
 12 32  1  0
 12 33  1  0
 13 34  1  0
 13 35  1  0
 14 36  1  0
 14 37  1  0
 15 38  1  0
 15 39  1  0
 16 40  1  1
 17 41  1  0
 18 42  1  1
 19 43  1  0
 22 44  1  0
M  CHG  1  10   1
M  END
>  <meeko>  (7) 
{"is_sidechain": [false], "free_energy": -5.69, "intermolecular_energy": -6.997, "internal_energy": -0.619}

$$$$
3d6q_ligand
     RDKit          3D

 44 46  0  0  0  0  0  0  0  0999 V2000
    0.2760    3.9020   -3.3400 O   0  0  0  0  0  0  0  0  0  0  0  0
   -0.9270    3.7290   -3.4810 C   0  0  0  0  0  0  0  0  0  0  0  0
   -1.8170    3.5850   -2.3210 C   0  0  0  0  0  0  0  0  0  0  0  0
   -3.1210    3.3830   -2.5270 C   0  0  0  0  0  0  0  0  0  0  0  0
   -3.6620    3.3060   -3.7990 N   0  0  0  0  0  0  0  0  0  0  0  0
   -5.0960    3.0670   -3.9520 C   0  0  2  0  0  0  0  0  0  0  0  0
   -5.8000    4.3130   -3.7830 O   0  0  0  0  0  0  0  0  0  0  0  0
   -6.9770    4.0770   -2.9850 C   0  0  1  0  0  0  0  0  0  0  0  0
   -8.1950    3.9080   -3.9170 C   0  0  0  0  0  0  0  0  0  0  0  0
   -9.0200    2.6550   -3.5780 N   0  0  0  0  0  0  0  0  0  0  0  0
   -9.5230    2.0100   -4.8540 C   0  0  0  0  0  0  0  0  0  0  0  0
  -10.2370    0.7060   -4.5340 C   0  0  0  0  0  0  0  0  0  0  0  0
  -11.3800    0.9250   -3.5530 C   0  0  0  0  0  0  0  0  0  0  0  0
  -10.8810    1.6130   -2.2910 C   0  0  0  0  0  0  0  0  0  0  0  0
  -10.1430    2.9120   -2.5930 C   0  0  0  0  0  0  0  0  0  0  0  0
   -6.7170    2.8100   -2.1710 C   0  0  2  0  0  0  0  0  0  0  0  0
   -6.2120    3.1350   -0.8810 O   0  0  0  0  0  0  0  0  0  0  0  0
   -5.7190    2.0220   -3.0030 C   0  0  1  0  0  0  0  0  0  0  0  0
   -6.4590    1.0680   -3.7850 O   0  0  0  0  0  0  0  0  0  0  0  0
   -2.8650    3.4460   -4.9260 C   0  0  0  0  0  0  0  0  0  0  0  0
   -3.3020    3.4000   -6.0750 O   0  0  0  0  0  0  0  0  0  0  0  0
   -1.5320    3.6540   -4.7010 N   0  0  0  0  0  0  0  0  0  0  0  0
   -1.4155    3.6427   -1.2985 H   0  0  0  0  0  0  0  0  0  0  0  0
   -3.7866    3.2743   -1.6580 H   0  0  0  0  0  0  0  0  0  0  0  0
   -5.2030    2.6438   -4.9617 H   0  0  0  0  0  0  0  0  0  0  0  0
   -7.1908    4.9169   -2.3076 H   0  0  0  0  0  0  0  0  0  0  0  0
   -8.8404    4.7935   -3.8198 H   0  0  0  0  0  0  0  0  0  0  0  0
   -7.8193    3.7956   -4.9447 H   0  0  0  0  0  0  0  0  0  0  0  0
   -8.3790    1.9850   -3.1290 H   0  0  0  0  0  0  0  0  0  0  0  0
  -10.2227    2.6942   -5.3562 H   0  0  0  0  0  0  0  0  0  0  0  0
   -8.6675    1.7998   -5.5127 H   0  0  0  0  0  0  0  0  0  0  0  0
  -10.6407    0.2812   -5.4649 H   0  0  0  0  0  0  0  0  0  0  0  0
   -9.5123    0.0185   -4.0734 H   0  0  0  0  0  0  0  0  0  0  0  0
  -12.1477    1.5538   -4.0276 H   0  0  0  0  0  0  0  0  0  0  0  0
  -11.8033   -0.0527   -3.2791 H   0  0  0  0  0  0  0  0  0  0  0  0
  -11.7434    1.8379   -1.6462 H   0  0  0  0  0  0  0  0  0  0  0  0
  -10.1741    0.9323   -1.7940 H   0  0  0  0  0  0  0  0  0  0  0  0
  -10.8469    3.6386   -3.0250 H   0  0  0  0  0  0  0  0  0  0  0  0
   -9.7195    3.3113   -1.6596 H   0  0  0  0  0  0  0  0  0  0  0  0
   -7.6297    2.2255   -1.9827 H   0  0  0  0  0  0  0  0  0  0  0  0
   -5.2430    3.3010   -0.9430 H   0  0  0  0  0  0  0  0  0  0  0  0
   -4.9628    1.4972   -2.4008 H   0  0  0  0  0  0  0  0  0  0  0  0
   -6.0470    1.0500   -4.6720 H   0  0  0  0  0  0  0  0  0  0  0  0
   -0.9350    3.7550   -5.5080 H   0  0  0  0  0  0  0  0  0  0  0  0
  1  2  2  0
  2  3  1  0
  3  4  2  0
  4  5  1  0
  5  6  1  0
  6  7  1  0
  7  8  1  0
  8  9  1  0
  9 10  1  0
 10 11  1  0
 11 12  1  0
 12 13  1  0
 13 14  1  0
 14 15  1  0
  8 16  1  0
 16 17  1  0
 16 18  1  0
 18 19  1  0
  5 20  1  0
 20 21  2  0
 20 22  1  0
 22  2  1  0
 18  6  1  0
 15 10  1  0
  3 23  1  0
  4 24  1  0
  6 25  1  6
  8 26  1  1
  9 27  1  0
  9 28  1  0
 10 29  1  0
 11 30  1  0
 11 31  1  0
 12 32  1  0
 12 33  1  0
 13 34  1  0
 13 35  1  0
 14 36  1  0
 14 37  1  0
 15 38  1  0
 15 39  1  0
 16 40  1  1
 17 41  1  0
 18 42  1  1
 19 43  1  0
 22 44  1  0
M  CHG  1  10   1
M  END
>  <meeko>  (8) 
{"is_sidechain": [false], "free_energy": -5.681, "intermolecular_energy": -6.891, "internal_energy": -0.713}

$$$$
3d6q_ligand
     RDKit          3D

 44 46  0  0  0  0  0  0  0  0999 V2000
    4.7280    9.0080   -3.1810 O   0  0  0  0  0  0  0  0  0  0  0  0
    3.9190    8.1560   -3.5230 C   0  0  0  0  0  0  0  0  0  0  0  0
    2.5440    8.5160   -3.8940 C   0  0  0  0  0  0  0  0  0  0  0  0
    1.6950    7.5480   -4.2470 C   0  0  0  0  0  0  0  0  0  0  0  0
    2.0680    6.2160   -4.2760 N   0  0  0  0  0  0  0  0  0  0  0  0
    1.0820    5.2060   -4.6570 C   0  0  2  0  0  0  0  0  0  0  0  0
   -0.0400    5.8580   -5.2830 O   0  0  0  0  0  0  0  0  0  0  0  0
   -1.2560    5.2560   -4.7980 C   0  0  1  0  0  0  0  0  0  0  0  0
   -1.7390    4.2000   -5.8130 C   0  0  0  0  0  0  0  0  0  0  0  0
   -3.2340    3.8760   -5.6520 N   0  0  0  0  0  0  0  0  0  0  0  0
   -3.9850    5.1160   -5.2120 C   0  0  0  0  0  0  0  0  0  0  0  0
   -5.4790    4.8340   -5.1670 C   0  0  0  0  0  0  0  0  0  0  0  0
   -5.7950    3.6580   -4.2540 C   0  0  0  0  0  0  0  0  0  0  0  0
   -5.0060    2.4260   -4.6700 C   0  0  0  0  0  0  0  0  0  0  0  0
   -3.5070    2.6950   -4.7420 C   0  0  0  0  0  0  0  0  0  0  0  0
   -0.9320    4.6230   -3.4450 C   0  0  2  0  0  0  0  0  0  0  0  0
   -1.2440    5.5160   -2.3830 O   0  0  0  0  0  0  0  0  0  0  0  0
    0.5530    4.3070   -3.5210 C   0  0  1  0  0  0  0  0  0  0  0  0
    0.6870    2.9300   -3.9170 O   0  0  0  0  0  0  0  0  0  0  0  0
    3.3580    5.8250   -3.9450 C   0  0  0  0  0  0  0  0  0  0  0  0
    3.7410    4.6570   -3.9720 O   0  0  0  0  0  0  0  0  0  0  0  0
    4.2180    6.8270   -3.5880 N   0  0  0  0  0  0  0  0  0  0  0  0
    2.2189    9.5668   -3.8812 H   0  0  0  0  0  0  0  0  0  0  0  0
    0.6653    7.8183   -4.5238 H   0  0  0  0  0  0  0  0  0  0  0  0
    1.6218    4.5297   -5.3361 H   0  0  0  0  0  0  0  0  0  0  0  0
   -2.0620    5.9951   -4.6792 H   0  0  0  0  0  0  0  0  0  0  0  0
   -1.5675    4.5825   -6.8300 H   0  0  0  0  0  0  0  0  0  0  0  0
   -1.1728    3.2747   -5.6309 H   0  0  0  0  0  0  0  0  0  0  0  0
   -3.5880    3.6190   -6.5850 H   0  0  0  0  0  0  0  0  0  0  0  0
   -3.6406    5.4137   -4.2106 H   0  0  0  0  0  0  0  0  0  0  0  0
   -3.7932    5.9268   -5.9302 H   0  0  0  0  0  0  0  0  0  0  0  0
   -6.0007    5.7274   -4.7934 H   0  0  0  0  0  0  0  0  0  0  0  0
   -5.8146    4.5826   -6.1840 H   0  0  0  0  0  0  0  0  0  0  0  0
   -5.5313    3.9232   -3.2195 H   0  0  0  0  0  0  0  0  0  0  0  0
   -6.8689    3.4315   -4.3285 H   0  0  0  0  0  0  0  0  0  0  0  0
   -5.1869    1.6261   -3.9369 H   0  0  0  0  0  0  0  0  0  0  0  0
   -5.3438    2.1341   -5.6753 H   0  0  0  0  0  0  0  0  0  0  0  0
   -3.1282    2.9173   -3.7335 H   0  0  0  0  0  0  0  0  0  0  0  0
   -3.0000    1.8054   -5.1440 H   0  0  0  0  0  0  0  0  0  0  0  0
   -1.5236    3.7184   -3.2406 H   0  0  0  0  0  0  0  0  0  0  0  0
   -1.0820    5.0660   -1.5210 H   0  0  0  0  0  0  0  0  0  0  0  0
    1.0861    4.4707   -2.5728 H   0  0  0  0  0  0  0  0  0  0  0  0
    1.5940    2.8240   -4.2670 H   0  0  0  0  0  0  0  0  0  0  0  0
    5.1600    6.5640   -3.3400 H   0  0  0  0  0  0  0  0  0  0  0  0
  1  2  2  0
  2  3  1  0
  3  4  2  0
  4  5  1  0
  5  6  1  0
  6  7  1  0
  7  8  1  0
  8  9  1  0
  9 10  1  0
 10 11  1  0
 11 12  1  0
 12 13  1  0
 13 14  1  0
 14 15  1  0
  8 16  1  0
 16 17  1  0
 16 18  1  0
 18 19  1  0
  5 20  1  0
 20 21  2  0
 20 22  1  0
 22  2  1  0
 18  6  1  0
 15 10  1  0
  3 23  1  0
  4 24  1  0
  6 25  1  6
  8 26  1  1
  9 27  1  0
  9 28  1  0
 10 29  1  0
 11 30  1  0
 11 31  1  0
 12 32  1  0
 12 33  1  0
 13 34  1  0
 13 35  1  0
 14 36  1  0
 14 37  1  0
 15 38  1  0
 15 39  1  0
 16 40  1  1
 17 41  1  0
 18 42  1  1
 19 43  1  0
 22 44  1  0
M  CHG  1  10   1
M  END
>  <meeko>  (9) 
{"is_sidechain": [false], "free_energy": -5.68, "intermolecular_energy": -7.209, "internal_energy": -0.394}

$$$$
