2wnc_ligand
     RDKit          3D

 42 45  0  0  0  0  0  0  0  0999 V2000
  -17.0520  -15.0300   -8.5980 C   0  0  0  0  0  0  0  0  0  0  0  0
  -16.5880  -16.3890   -8.1500 N   0  0  2  0  0  0  0  0  0  0  0  0
  -17.2960  -17.5530   -8.8160 C   0  0  2  0  0  0  0  0  0  0  0  0
  -18.6190  -17.6310   -8.0500 C   0  0  0  0  0  0  0  0  0  0  0  0
  -18.3170  -17.0830   -6.6590 C   0  0  0  0  0  0  0  0  0  0  0  0
  -16.8370  -16.6880   -6.6840 C   0  0  1  0  0  0  0  0  0  0  0  0
  -15.9360  -17.8610   -6.2740 C   0  0  0  0  0  0  0  0  0  0  0  0
  -15.4520  -18.7230   -7.4500 C   0  0  1  0  0  0  0  0  0  0  0  0
  -15.1410  -20.0550   -7.0100 O   0  0  0  0  0  0  0  0  0  0  0  0
  -16.0540  -21.0210   -7.3530 C   0  0  0  0  0  0  0  0  0  0  0  0
  -16.0830  -21.5410   -8.4630 O   0  0  0  0  0  0  0  0  0  0  0  0
  -16.9590  -21.3550   -6.2640 C   0  0  0  0  0  0  0  0  0  0  0  0
  -16.5940  -21.7250   -4.9800 C   0  0  0  0  0  0  0  0  0  0  0  0
  -17.7300  -21.9570   -4.2520 N   0  0  0  0  0  0  0  0  0  0  0  0
  -18.8420  -21.7500   -5.0320 C   0  0  0  0  0  0  0  0  0  0  0  0
  -20.2000  -21.8680   -4.7100 C   0  0  0  0  0  0  0  0  0  0  0  0
  -21.1320  -21.5900   -5.7140 C   0  0  0  0  0  0  0  0  0  0  0  0
  -20.7210  -21.2100   -6.9870 C   0  0  0  0  0  0  0  0  0  0  0  0
  -19.3590  -21.0950   -7.2930 C   0  0  0  0  0  0  0  0  0  0  0  0
  -18.3940  -21.3700   -6.2990 C   0  0  0  0  0  0  0  0  0  0  0  0
  -16.4550  -18.8200   -8.6060 C   0  0  0  0  0  0  0  0  0  0  0  0
  -17.2649  -14.4065   -7.7172 H   0  0  0  0  0  0  0  0  0  0  0  0
  -16.2652  -14.5547   -9.2022 H   0  0  0  0  0  0  0  0  0  0  0  0
  -17.9652  -15.1351   -9.2022 H   0  0  0  0  0  0  0  0  0  0  0  0
  -15.5800  -16.4010   -8.3570 H   0  0  0  0  0  0  0  0  0  0  0  0
  -17.4475  -17.4435   -9.9000 H   0  0  0  0  0  0  0  0  0  0  0  0
  -19.3870  -17.0192   -8.5459 H   0  0  0  0  0  0  0  0  0  0  0  0
  -19.0065  -18.6596   -8.0083 H   0  0  0  0  0  0  0  0  0  0  0  0
  -18.9452  -16.2051   -6.4475 H   0  0  0  0  0  0  0  0  0  0  0  0
  -18.5269  -17.8253   -5.8748 H   0  0  0  0  0  0  0  0  0  0  0  0
  -16.6206  -15.8573   -5.9961 H   0  0  0  0  0  0  0  0  0  0  0  0
  -15.0537  -17.4545   -5.7579 H   0  0  0  0  0  0  0  0  0  0  0  0
  -16.5418  -18.5155   -5.6301 H   0  0  0  0  0  0  0  0  0  0  0  0
  -14.5549  -18.2114   -7.8289 H   0  0  0  0  0  0  0  0  0  0  0  0
  -15.5631  -21.8171   -4.6074 H   0  0  0  0  0  0  0  0  0  0  0  0
  -17.7600  -22.2400   -3.2810 H   0  0  0  0  0  0  0  0  0  0  0  0
  -20.5219  -22.1690   -3.7021 H   0  0  0  0  0  0  0  0  0  0  0  0
  -22.2065  -21.6731   -5.4938 H   0  0  0  0  0  0  0  0  0  0  0  0
  -21.4729  -20.9976   -7.7613 H   0  0  0  0  0  0  0  0  0  0  0  0
  -19.0426  -20.7921   -8.3020 H   0  0  0  0  0  0  0  0  0  0  0  0
  -15.8961  -19.0207   -9.5319 H   0  0  0  0  0  0  0  0  0  0  0  0
  -17.1570  -19.6270   -8.3491 H   0  0  0  0  0  0  0  0  0  0  0  0
  1  2  1  0
  2  3  1  0
  3  4  1  0
  4  5  1  0
  5  6  1  0
  6  7  1  0
  7  8  1  0
  8  9  1  0
  9 10  1  0
 10 11  2  0
 10 12  1  0
 12 13  2  0
 13 14  1  0
 14 15  1  0
 15 16  2  0
 16 17  1  0
 17 18  2  0
 18 19  1  0
 19 20  2  0
  8 21  1  0
  6  2  1  0
 20 12  1  0
 21  3  1  0
 20 15  1  0
  1 22  1  0
  1 23  1  0
  1 24  1  0
  2 25  1  1
  3 26  1  6
  4 27  1  0
  4 28  1  0
  5 29  1  0
  5 30  1  0
  6 31  1  1
  7 32  1  0
  7 33  1  0
  8 34  1  6
 13 35  1  0
 14 36  1  0
 16 37  1  0
 17 38  1  0
 18 39  1  0
 19 40  1  0
 21 41  1  0
 21 42  1  0
M  CHG  1   2   1
M  END
>  <meeko>  (1) 
{"is_sidechain": [false], "free_energy": -8.126, "intermolecular_energy": -9.551, "internal_energy": -0.477}

$$$$
2wnc_ligand
     RDKit          3D

 42 45  0  0  0  0  0  0  0  0999 V2000
  -13.8240  -23.8540    1.3590 C   0  0  0  0  0  0  0  0  0  0  0  0
  -14.0310  -23.6080   -0.1100 N   0  0  2  0  0  0  0  0  0  0  0  0
  -13.6820  -24.7820   -1.0050 C   0  0  2  0  0  0  0  0  0  0  0  0
  -12.1550  -24.7000   -1.0940 C   0  0  0  0  0  0  0  0  0  0  0  0
  -11.8150  -23.2250   -0.9090 C   0  0  0  0  0  0  0  0  0  0  0  0
  -13.1570  -22.5170   -0.6960 C   0  0  1  0  0  0  0  0  0  0  0  0
  -13.7740  -22.0710   -2.0280 C   0  0  0  0  0  0  0  0  0  0  0  0
  -14.7220  -23.1030   -2.6590 C   0  0  1  0  0  0  0  0  0  0  0  0
  -14.7960  -22.9230   -4.0820 O   0  0  0  0  0  0  0  0  0  0  0  0
  -15.8820  -22.2170   -4.5350 C   0  0  0  0  0  0  0  0  0  0  0  0
  -17.0370  -22.5910   -4.3570 O   0  0  0  0  0  0  0  0  0  0  0  0
  -15.5110  -20.9930   -5.2290 C   0  0  0  0  0  0  0  0  0  0  0  0
  -14.9900  -19.8490   -4.6480 C   0  0  0  0  0  0  0  0  0  0  0  0
  -14.7730  -18.9200   -5.6300 N   0  0  0  0  0  0  0  0  0  0  0  0
  -15.1440  -19.4280   -6.8520 C   0  0  0  0  0  0  0  0  0  0  0  0
  -15.1000  -18.8370   -8.1210 C   0  0  0  0  0  0  0  0  0  0  0  0
  -15.5460  -19.5970   -9.2060 C   0  0  0  0  0  0  0  0  0  0  0  0
  -16.0170  -20.8940   -9.0270 C   0  0  0  0  0  0  0  0  0  0  0  0
  -16.0540  -21.4700   -7.7520 C   0  0  0  0  0  0  0  0  0  0  0  0
  -15.6100  -20.7270   -6.6360 C   0  0  0  0  0  0  0  0  0  0  0  0
  -14.3330  -24.5590   -2.3770 C   0  0  0  0  0  0  0  0  0  0  0  0
  -14.4258  -23.1388    1.9389 H   0  0  0  0  0  0  0  0  0  0  0  0
  -14.1346  -24.8798    1.6063 H   0  0  0  0  0  0  0  0  0  0  0  0
  -12.7602  -23.7233    1.6063 H   0  0  0  0  0  0  0  0  0  0  0  0
  -15.0270  -23.3620   -0.1940 H   0  0  0  0  0  0  0  0  0  0  0  0
  -14.0269  -25.7610   -0.6407 H   0  0  0  0  0  0  0  0  0  0  0  0
  -11.6906  -25.3040   -0.3006 H   0  0  0  0  0  0  0  0  0  0  0  0
  -11.7806  -25.0881   -2.0527 H   0  0  0  0  0  0  0  0  0  0  0  0
  -11.1649  -23.0877   -0.0323 H   0  0  0  0  0  0  0  0  0  0  0  0
  -11.2740  -22.8198   -1.7768 H   0  0  0  0  0  0  0  0  0  0  0  0
  -13.0532  -21.6184   -0.0702 H   0  0  0  0  0  0  0  0  0  0  0  0
  -14.3399  -21.1441   -1.8530 H   0  0  0  0  0  0  0  0  0  0  0  0
  -12.9406  -21.9343   -2.7328 H   0  0  0  0  0  0  0  0  0  0  0  0
  -15.6985  -22.9208   -2.1865 H   0  0  0  0  0  0  0  0  0  0  0  0
  -14.7847  -19.7099   -3.5763 H   0  0  0  0  0  0  0  0  0  0  0  0
  -14.3950  -17.9920   -5.4900 H   0  0  0  0  0  0  0  0  0  0  0  0
  -14.7277  -17.8112   -8.2589 H   0  0  0  0  0  0  0  0  0  0  0  0
  -15.5243  -19.1632  -10.2166 H   0  0  0  0  0  0  0  0  0  0  0  0
  -16.3637  -21.4723   -9.8961 H   0  0  0  0  0  0  0  0  0  0  0  0
  -16.4271  -22.4963   -7.6198 H   0  0  0  0  0  0  0  0  0  0  0  0
  -15.2422  -25.1758   -2.4317 H   0  0  0  0  0  0  0  0  0  0  0  0
  -13.5829  -24.8376   -3.1318 H   0  0  0  0  0  0  0  0  0  0  0  0
  1  2  1  0
  2  3  1  0
  3  4  1  0
  4  5  1  0
  5  6  1  0
  6  7  1  0
  7  8  1  0
  8  9  1  0
  9 10  1  0
 10 11  2  0
 10 12  1  0
 12 13  2  0
 13 14  1  0
 14 15  1  0
 15 16  2  0
 16 17  1  0
 17 18  2  0
 18 19  1  0
 19 20  2  0
  8 21  1  0
  6  2  1  0
 20 12  1  0
 21  3  1  0
 20 15  1  0
  1 22  1  0
  1 23  1  0
  1 24  1  0
  2 25  1  1
  3 26  1  1
  4 27  1  0
  4 28  1  0
  5 29  1  0
  5 30  1  0
  6 31  1  1
  7 32  1  0
  7 33  1  0
  8 34  1  1
 13 35  1  0
 14 36  1  0
 16 37  1  0
 17 38  1  0
 18 39  1  0
 19 40  1  0
 21 41  1  0
 21 42  1  0
M  CHG  1   2   1
M  END
>  <meeko>  (2) 
{"is_sidechain": [false], "free_energy": -7.737, "intermolecular_energy": -9.052, "internal_energy": -0.52}

$$$$
2wnc_ligand
     RDKit          3D

 42 45  0  0  0  0  0  0  0  0999 V2000
  -15.9190  -24.6690   -0.8350 C   0  0  0  0  0  0  0  0  0  0  0  0
  -15.6550  -23.6900   -1.9460 N   0  0  2  0  0  0  0  0  0  0  0  0
  -14.5700  -24.1110   -2.9180 C   0  0  2  0  0  0  0  0  0  0  0  0
  -13.2830  -23.7680   -2.1620 C   0  0  0  0  0  0  0  0  0  0  0  0
  -13.6490  -22.6070   -1.2420 C   0  0  0  0  0  0  0  0  0  0  0  0
  -15.1380  -22.3410   -1.4870 C   0  0  1  0  0  0  0  0  0  0  0  0
  -15.3480  -21.3340   -2.6250 C   0  0  0  0  0  0  0  0  0  0  0  0
  -15.5080  -21.9760   -4.0120 C   0  0  1  0  0  0  0  0  0  0  0  0
  -15.1230  -21.0570   -5.0470 O   0  0  0  0  0  0  0  0  0  0  0  0
  -15.9600  -21.0020   -6.1330 C   0  0  0  0  0  0  0  0  0  0  0  0
  -15.8460  -21.7530   -7.0960 O   0  0  0  0  0  0  0  0  0  0  0  0
  -16.9830  -19.9750   -6.0070 C   0  0  0  0  0  0  0  0  0  0  0  0
  -18.2080  -20.1140   -5.3750 C   0  0  0  0  0  0  0  0  0  0  0  0
  -18.8850  -18.9270   -5.4700 N   0  0  0  0  0  0  0  0  0  0  0  0
  -18.1310  -18.0060   -6.1560 C   0  0  0  0  0  0  0  0  0  0  0  0
  -18.4200  -16.6760   -6.4880 C   0  0  0  0  0  0  0  0  0  0  0  0
  -17.4540  -15.9600   -7.2000 C   0  0  0  0  0  0  0  0  0  0  0  0
  -16.2480  -16.5510   -7.5650 C   0  0  0  0  0  0  0  0  0  0  0  0
  -15.9740  -17.8810   -7.2250 C   0  0  0  0  0  0  0  0  0  0  0  0
  -16.9310  -18.6300   -6.5060 C   0  0  0  0  0  0  0  0  0  0  0  0
  -14.7070  -23.2700   -4.1950 C   0  0  0  0  0  0  0  0  0  0  0  0
  -15.7839  -24.1680    0.1349 H   0  0  0  0  0  0  0  0  0  0  0  0
  -16.9502  -25.0436   -0.9137 H   0  0  0  0  0  0  0  0  0  0  0  0
  -15.2159  -25.5113   -0.9137 H   0  0  0  0  0  0  0  0  0  0  0  0
  -16.5620  -23.5890   -2.4240 H   0  0  0  0  0  0  0  0  0  0  0  0
  -14.6058  -25.1673   -3.2228 H   0  0  0  0  0  0  0  0  0  0  0  0
  -12.9408  -24.6320   -1.5734 H   0  0  0  0  0  0  0  0  0  0  0  0
  -12.4646  -23.5035   -2.8477 H   0  0  0  0  0  0  0  0  0  0  0  0
  -13.4757  -22.8807   -0.1908 H   0  0  0  0  0  0  0  0  0  0  0  0
  -13.0371  -21.7163   -1.4474 H   0  0  0  0  0  0  0  0  0  0  0  0
  -15.6354  -21.9309   -0.5957 H   0  0  0  0  0  0  0  0  0  0  0  0
  -16.2556  -20.7518   -2.4075 H   0  0  0  0  0  0  0  0  0  0  0  0
  -14.4423  -20.7111   -2.6673 H   0  0  0  0  0  0  0  0  0  0  0  0
  -16.5755  -22.2305   -4.0869 H   0  0  0  0  0  0  0  0  0  0  0  0
  -18.5754  -21.0250   -4.8799 H   0  0  0  0  0  0  0  0  0  0  0  0
  -19.8060  -18.7430   -5.0950 H   0  0  0  0  0  0  0  0  0  0  0  0
  -19.3741  -16.2115   -6.1983 H   0  0  0  0  0  0  0  0  0  0  0  0
  -17.6498  -14.9134   -7.4762 H   0  0  0  0  0  0  0  0  0  0  0  0
  -15.5031  -15.9675   -8.1259 H   0  0  0  0  0  0  0  0  0  0  0  0
  -15.0179  -18.3403   -7.5165 H   0  0  0  0  0  0  0  0  0  0  0  0
  -15.2095  -23.8817   -4.9587 H   0  0  0  0  0  0  0  0  0  0  0  0
  -13.6894  -22.9731   -4.4887 H   0  0  0  0  0  0  0  0  0  0  0  0
  1  2  1  0
  2  3  1  0
  3  4  1  0
  4  5  1  0
  5  6  1  0
  6  7  1  0
  7  8  1  0
  8  9  1  0
  9 10  1  0
 10 11  2  0
 10 12  1  0
 12 13  2  0
 13 14  1  0
 14 15  1  0
 15 16  2  0
 16 17  1  0
 17 18  2  0
 18 19  1  0
 19 20  2  0
  8 21  1  0
  6  2  1  0
 20 12  1  0
 21  3  1  0
 20 15  1  0
  1 22  1  0
  1 23  1  0
  1 24  1  0
  2 25  1  6
  3 26  1  6
  4 27  1  0
  4 28  1  0
  5 29  1  0
  5 30  1  0
  6 31  1  1
  7 32  1  0
  7 33  1  0
  8 34  1  6
 13 35  1  0
 14 36  1  0
 16 37  1  0
 17 38  1  0
 18 39  1  0
 19 40  1  0
 21 41  1  0
 21 42  1  0
M  CHG  1   2   1
M  END
>  <meeko>  (3) 
{"is_sidechain": [false], "free_energy": -7.729, "intermolecular_energy": -9.07, "internal_energy": -0.492}

$$$$
2wnc_ligand
     RDKit          3D

 42 45  0  0  0  0  0  0  0  0999 V2000
  -14.7790  -23.4140    0.3500 C   0  0  0  0  0  0  0  0  0  0  0  0
  -15.1900  -22.9770   -1.0300 N   0  0  2  0  0  0  0  0  0  0  0  0
  -15.5720  -24.1080   -1.9660 C   0  0  2  0  0  0  0  0  0  0  0  0
  -14.2120  -24.6460   -2.4210 C   0  0  0  0  0  0  0  0  0  0  0  0
  -13.2580  -23.4590   -2.3440 C   0  0  0  0  0  0  0  0  0  0  0  0
  -14.0980  -22.2880   -1.8240 C   0  0  1  0  0  0  0  0  0  0  0  0
  -14.7560  -21.5150   -2.9750 C   0  0  0  0  0  0  0  0  0  0  0  0
  -16.1620  -22.0140   -3.3440 C   0  0  1  0  0  0  0  0  0  0  0  0
  -16.4730  -21.6960   -4.7100 O   0  0  0  0  0  0  0  0  0  0  0  0
  -17.1870  -20.5390   -4.9020 C   0  0  0  0  0  0  0  0  0  0  0  0
  -18.2730  -20.3340   -4.3700 O   0  0  0  0  0  0  0  0  0  0  0  0
  -16.5130  -19.6000   -5.7850 C   0  0  0  0  0  0  0  0  0  0  0  0
  -15.2230  -19.7190   -6.2760 C   0  0  0  0  0  0  0  0  0  0  0  0
  -14.9570  -18.6360   -7.0710 N   0  0  0  0  0  0  0  0  0  0  0  0
  -16.0470  -17.8010   -7.1140 C   0  0  0  0  0  0  0  0  0  0  0  0
  -16.2240  -16.5890   -7.7940 C   0  0  0  0  0  0  0  0  0  0  0  0
  -17.4560  -15.9430   -7.6580 C   0  0  0  0  0  0  0  0  0  0  0  0
  -18.4680  -16.4880   -6.8750 C   0  0  0  0  0  0  0  0  0  0  0  0
  -18.2750  -17.7000   -6.2020 C   0  0  0  0  0  0  0  0  0  0  0  0
  -17.0410  -18.3760   -6.3200 C   0  0  0  0  0  0  0  0  0  0  0  0
  -16.3610  -23.5210   -3.1440 C   0  0  0  0  0  0  0  0  0  0  0  0
  -15.3305  -22.8277    1.0997 H   0  0  0  0  0  0  0  0  0  0  0  0
  -15.0073  -24.4822    0.4795 H   0  0  0  0  0  0  0  0  0  0  0  0
  -13.6988  -23.2516    0.4795 H   0  0  0  0  0  0  0  0  0  0  0  0
  -15.9840  -22.3410   -0.8750 H   0  0  0  0  0  0  0  0  0  0  0  0
  -16.2014  -24.8896   -1.5155 H   0  0  0  0  0  0  0  0  0  0  0  0
  -13.8754  -25.4536   -1.7543 H   0  0  0  0  0  0  0  0  0  0  0  0
  -14.2585  -25.0670   -3.4362 H   0  0  0  0  0  0  0  0  0  0  0  0
  -12.4310  -23.6754   -1.6518 H   0  0  0  0  0  0  0  0  0  0  0  0
  -12.8083  -23.2343   -3.3224 H   0  0  0  0  0  0  0  0  0  0  0  0
  -13.4927  -21.5676   -1.2543 H   0  0  0  0  0  0  0  0  0  0  0  0
  -14.8308  -20.4573   -2.6823 H   0  0  0  0  0  0  0  0  0  0  0  0
  -14.1229  -21.6672   -3.8616 H   0  0  0  0  0  0  0  0  0  0  0  0
  -16.8400  -21.4930   -2.6520 H   0  0  0  0  0  0  0  0  0  0  0  0
  -14.5286  -20.5451   -6.0630 H   0  0  0  0  0  0  0  0  0  0  0  0
  -14.0880  -18.4650   -7.5610 H   0  0  0  0  0  0  0  0  0  0  0  0
  -15.4218  -16.1609   -8.4130 H   0  0  0  0  0  0  0  0  0  0  0  0
  -17.6278  -14.9891   -8.1781 H   0  0  0  0  0  0  0  0  0  0  0  0
  -19.4295  -15.9614   -6.7837 H   0  0  0  0  0  0  0  0  0  0  0  0
  -19.0806  -18.1237   -5.5843 H   0  0  0  0  0  0  0  0  0  0  0  0
  -17.4310  -23.7077   -2.9700 H   0  0  0  0  0  0  0  0  0  0  0  0
  -15.9853  -24.0132   -4.0531 H   0  0  0  0  0  0  0  0  0  0  0  0
  1  2  1  0
  2  3  1  0
  3  4  1  0
  4  5  1  0
  5  6  1  0
  6  7  1  0
  7  8  1  0
  8  9  1  0
  9 10  1  0
 10 11  2  0
 10 12  1  0
 12 13  2  0
 13 14  1  0
 14 15  1  0
 15 16  2  0
 16 17  1  0
 17 18  2  0
 18 19  1  0
 19 20  2  0
  8 21  1  0
  6  2  1  0
 20 12  1  0
 21  3  1  0
 20 15  1  0
  1 22  1  0
  1 23  1  0
  1 24  1  0
  2 25  1  1
  3 26  1  1
  4 27  1  0
  4 28  1  0
  5 29  1  0
  5 30  1  0
  6 31  1  1
  7 32  1  0
  7 33  1  0
  8 34  1  1
 13 35  1  0
 14 36  1  0
 16 37  1  0
 17 38  1  0
 18 39  1  0
 19 40  1  0
 21 41  1  0
 21 42  1  0
M  CHG  1   2   1
M  END
>  <meeko>  (4) 
{"is_sidechain": [false], "free_energy": -7.651, "intermolecular_energy": -9.081, "internal_energy": -0.389}

$$$$
2wnc_ligand
     RDKit          3D

 42 45  0  0  0  0  0  0  0  0999 V2000
  -12.7670  -22.8680    0.6240 C   0  0  0  0  0  0  0  0  0  0  0  0
  -13.4510  -22.8310   -0.7150 N   0  0  2  0  0  0  0  0  0  0  0  0
  -14.9670  -22.8220   -0.6520 C   0  0  2  0  0  0  0  0  0  0  0  0
  -15.3060  -24.2930   -0.3960 C   0  0  0  0  0  0  0  0  0  0  0  0
  -14.1630  -25.0890   -1.0180 C   0  0  0  0  0  0  0  0  0  0  0  0
  -13.1970  -24.0450   -1.5870 C   0  0  1  0  0  0  0  0  0  0  0  0
  -13.5540  -23.6800   -3.0340 C   0  0  0  0  0  0  0  0  0  0  0  0
  -14.5050  -22.4800   -3.1630 C   0  0  1  0  0  0  0  0  0  0  0  0
  -15.2410  -22.5440   -4.3950 O   0  0  0  0  0  0  0  0  0  0  0  0
  -15.6810  -21.3410   -4.8860 C   0  0  0  0  0  0  0  0  0  0  0  0
  -14.9680  -20.3440   -4.9370 O   0  0  0  0  0  0  0  0  0  0  0  0
  -17.0630  -21.3870   -5.3390 C   0  0  0  0  0  0  0  0  0  0  0  0
  -18.1690  -21.6950   -4.5630 C   0  0  0  0  0  0  0  0  0  0  0  0
  -19.2870  -21.6310   -5.3510 N   0  0  0  0  0  0  0  0  0  0  0  0
  -18.9420  -21.2890   -6.6360 C   0  0  0  0  0  0  0  0  0  0  0  0
  -19.7500  -21.1120   -7.7650 C   0  0  0  0  0  0  0  0  0  0  0  0
  -19.1220  -20.7570   -8.9630 C   0  0  0  0  0  0  0  0  0  0  0  0
  -17.7420  -20.5870   -9.0260 C   0  0  0  0  0  0  0  0  0  0  0  0
  -16.9490  -20.7690   -7.8870 C   0  0  0  0  0  0  0  0  0  0  0  0
  -17.5550  -21.1270   -6.6620 C   0  0  0  0  0  0  0  0  0  0  0  0
  -15.5080  -22.3530   -2.0100 C   0  0  0  0  0  0  0  0  0  0  0  0
  -13.5222  -22.8271    1.4228 H   0  0  0  0  0  0  0  0  0  0  0  0
  -12.1878  -23.7988    0.7143 H   0  0  0  0  0  0  0  0  0  0  0  0
  -12.0908  -22.0051    0.7143 H   0  0  0  0  0  0  0  0  0  0  0  0
  -13.0940  -21.9780   -1.1660 H   0  0  0  0  0  0  0  0  0  0  0  0
  -15.3952  -22.1564    0.1120 H   0  0  0  0  0  0  0  0  0  0  0  0
  -15.3688  -24.4906    0.6843 H   0  0  0  0  0  0  0  0  0  0  0  0
  -16.2786  -24.5690   -0.8294 H   0  0  0  0  0  0  0  0  0  0  0  0
  -13.6609  -25.7010   -0.2542 H   0  0  0  0  0  0  0  0  0  0  0  0
  -14.5227  -25.7781   -1.7963 H   0  0  0  0  0  0  0  0  0  0  0  0
  -12.1576  -24.4051   -1.5906 H   0  0  0  0  0  0  0  0  0  0  0  0
  -12.6232  -23.4420   -3.5697 H   0  0  0  0  0  0  0  0  0  0  0  0
  -14.0795  -24.5478   -3.4591 H   0  0  0  0  0  0  0  0  0  0  0  0
  -13.8525  -21.5948   -3.1370 H   0  0  0  0  0  0  0  0  0  0  0  0
  -18.1517  -21.9485   -3.4928 H   0  0  0  0  0  0  0  0  0  0  0  0
  -20.2350  -21.8080   -5.0430 H   0  0  0  0  0  0  0  0  0  0  0  0
  -20.8404  -21.2473   -7.7119 H   0  0  0  0  0  0  0  0  0  0  0  0
  -19.7278  -20.6099   -9.8693 H   0  0  0  0  0  0  0  0  0  0  0  0
  -17.2703  -20.3071   -9.9795 H   0  0  0  0  0  0  0  0  0  0  0  0
  -15.8589  -20.6339   -7.9454 H   0  0  0  0  0  0  0  0  0  0  0  0
  -15.7979  -21.2957   -1.9196 H   0  0  0  0  0  0  0  0  0  0  0  0
  -16.3571  -23.0077   -2.2556 H   0  0  0  0  0  0  0  0  0  0  0  0
  1  2  1  0
  2  3  1  0
  3  4  1  0
  4  5  1  0
  5  6  1  0
  6  7  1  0
  7  8  1  0
  8  9  1  0
  9 10  1  0
 10 11  2  0
 10 12  1  0
 12 13  2  0
 13 14  1  0
 14 15  1  0
 15 16  2  0
 16 17  1  0
 17 18  2  0
 18 19  1  0
 19 20  2  0
  8 21  1  0
  6  2  1  0
 20 12  1  0
 21  3  1  0
 20 15  1  0
  1 22  1  0
  1 23  1  0
  1 24  1  0
  2 25  1  6
  3 26  1  1
  4 27  1  0
  4 28  1  0
  5 29  1  0
  5 30  1  0
  6 31  1  6
  7 32  1  0
  7 33  1  0
  8 34  1  6
 13 35  1  0
 14 36  1  0
 16 37  1  0
 17 38  1  0
 18 39  1  0
 19 40  1  0
 21 41  1  0
 21 42  1  0
M  CHG  1   2   1
M  END
>  <meeko>  (5) 
{"is_sidechain": [false], "free_energy": -7.61, "intermolecular_energy": -8.894, "internal_energy": -0.529}

$$$$
2wnc_ligand
     RDKit          3D

 42 45  0  0  0  0  0  0  0  0999 V2000
  -17.6920  -17.3400   -7.3390 C   0  0  0  0  0  0  0  0  0  0  0  0
  -17.0860  -18.6100   -6.8080 N   0  0  2  0  0  0  0  0  0  0  0  0
  -15.5740  -18.5860   -6.6810 C   0  0  2  0  0  0  0  0  0  0  0  0
  -15.1090  -18.8350   -8.1190 C   0  0  0  0  0  0  0  0  0  0  0  0
  -16.2190  -19.6530   -8.7700 C   0  0  0  0  0  0  0  0  0  0  0  0
  -17.2920  -19.8250   -7.6910 C   0  0  1  0  0  0  0  0  0  0  0  0
  -17.0430  -21.0810   -6.8450 C   0  0  0  0  0  0  0  0  0  0  0  0
  -16.1950  -20.8340   -5.5870 C   0  0  1  0  0  0  0  0  0  0  0  0
  -15.5240  -22.0370   -5.1820 O   0  0  0  0  0  0  0  0  0  0  0  0
  -15.8990  -22.5430   -3.9620 C   0  0  0  0  0  0  0  0  0  0  0  0
  -16.9230  -23.1980   -3.8020 O   0  0  0  0  0  0  0  0  0  0  0  0
  -14.9520  -22.2240   -2.9040 C   0  0  0  0  0  0  0  0  0  0  0  0
  -14.5960  -20.9540   -2.4790 C   0  0  0  0  0  0  0  0  0  0  0  0
  -13.6820  -21.0720   -1.4660 N   0  0  0  0  0  0  0  0  0  0  0  0
  -13.4240  -22.3980   -1.2140 C   0  0  0  0  0  0  0  0  0  0  0  0
  -12.5640  -22.9830   -0.2760 C   0  0  0  0  0  0  0  0  0  0  0  0
  -12.4990  -24.3790   -0.2380 C   0  0  0  0  0  0  0  0  0  0  0  0
  -13.2630  -25.1560   -1.1030 C   0  0  0  0  0  0  0  0  0  0  0  0
  -14.1180  -24.5550   -2.0340 C   0  0  0  0  0  0  0  0  0  0  0  0
  -14.2050  -23.1470   -2.0970 C   0  0  0  0  0  0  0  0  0  0  0  0
  -15.1450  -19.7290   -5.7510 C   0  0  0  0  0  0  0  0  0  0  0  0
  -17.9974  -16.6999   -6.4981 H   0  0  0  0  0  0  0  0  0  0  0  0
  -16.9503  -16.8088   -7.9536 H   0  0  0  0  0  0  0  0  0  0  0  0
  -18.5715  -17.5824   -7.9536 H   0  0  0  0  0  0  0  0  0  0  0  0
  -17.5320  -18.7470   -5.8900 H   0  0  0  0  0  0  0  0  0  0  0  0
  -15.1584  -17.6577   -6.2621 H   0  0  0  0  0  0  0  0  0  0  0  0
  -14.9726  -17.8811   -8.6496 H   0  0  0  0  0  0  0  0  0  0  0  0
  -14.1429  -19.3601   -8.1504 H   0  0  0  0  0  0  0  0  0  0  0  0
  -16.6306  -19.1185   -9.6388 H   0  0  0  0  0  0  0  0  0  0  0  0
  -15.8493  -20.6229   -9.1341 H   0  0  0  0  0  0  0  0  0  0  0  0
  -18.2988  -19.9211   -8.1235 H   0  0  0  0  0  0  0  0  0  0  0  0
  -18.0170  -21.4844   -6.5310 H   0  0  0  0  0  0  0  0  0  0  0  0
  -16.4761  -21.7809   -7.4765 H   0  0  0  0  0  0  0  0  0  0  0  0
  -16.9108  -20.5029   -4.8202 H   0  0  0  0  0  0  0  0  0  0  0  0
  -14.9830  -20.0087   -2.8872 H   0  0  0  0  0  0  0  0  0  0  0  0
  -13.2520  -20.3030   -0.9690 H   0  0  0  0  0  0  0  0  0  0  0  0
  -11.9611  -22.3660    0.4065 H   0  0  0  0  0  0  0  0  0  0  0  0
  -11.8336  -24.8706    0.4869 H   0  0  0  0  0  0  0  0  0  0  0  0
  -13.1945  -26.2528   -1.0548 H   0  0  0  0  0  0  0  0  0  0  0  0
  -14.7195  -25.1767   -2.7135 H   0  0  0  0  0  0  0  0  0  0  0  0
  -14.9327  -19.3049   -4.7585 H   0  0  0  0  0  0  0  0  0  0  0  0
  -14.2629  -20.1973   -6.2121 H   0  0  0  0  0  0  0  0  0  0  0  0
  1  2  1  0
  2  3  1  0
  3  4  1  0
  4  5  1  0
  5  6  1  0
  6  7  1  0
  7  8  1  0
  8  9  1  0
  9 10  1  0
 10 11  2  0
 10 12  1  0
 12 13  2  0
 13 14  1  0
 14 15  1  0
 15 16  2  0
 16 17  1  0
 17 18  2  0
 18 19  1  0
 19 20  2  0
  8 21  1  0
  6  2  1  0
 20 12  1  0
 21  3  1  0
 20 15  1  0
  1 22  1  0
  1 23  1  0
  1 24  1  0
  2 25  1  1
  3 26  1  1
  4 27  1  0
  4 28  1  0
  5 29  1  0
  5 30  1  0
  6 31  1  6
  7 32  1  0
  7 33  1  0
  8 34  1  1
 13 35  1  0
 14 36  1  0
 16 37  1  0
 17 38  1  0
 18 39  1  0
 19 40  1  0
 21 41  1  0
 21 42  1  0
M  CHG  1   2   1
M  END
>  <meeko>  (6) 
{"is_sidechain": [false], "free_energy": -7.585, "intermolecular_energy": -9.001, "internal_energy": -0.391}

$$$$
2wnc_ligand
     RDKit          3D

 42 45  0  0  0  0  0  0  0  0999 V2000
  -16.9910  -15.0430   -8.5200 C   0  0  0  0  0  0  0  0  0  0  0  0
  -17.8880  -16.2230   -8.2650 N   0  0  2  0  0  0  0  0  0  0  0  0
  -18.0760  -16.5720   -6.8010 C   0  0  2  0  0  0  0  0  0  0  0  0
  -16.7920  -17.3360   -6.4650 C   0  0  0  0  0  0  0  0  0  0  0  0
  -16.3440  -17.9760   -7.7750 C   0  0  0  0  0  0  0  0  0  0  0  0
  -17.3740  -17.5370   -8.8210 C   0  0  1  0  0  0  0  0  0  0  0  0
  -18.5500  -18.5190   -8.8960 C   0  0  0  0  0  0  0  0  0  0  0  0
  -19.7280  -18.1620   -7.9750 C   0  0  1  0  0  0  0  0  0  0  0  0
  -20.4890  -19.3350   -7.6440 O   0  0  0  0  0  0  0  0  0  0  0  0
  -19.8330  -20.5300   -7.7990 C   0  0  0  0  0  0  0  0  0  0  0  0
  -19.6660  -21.0580   -8.8940 O   0  0  0  0  0  0  0  0  0  0  0  0
  -19.3620  -21.0840   -6.5390 C   0  0  0  0  0  0  0  0  0  0  0  0
  -20.1530  -21.5020   -5.4810 C   0  0  0  0  0  0  0  0  0  0  0  0
  -19.3380  -21.9590   -4.4800 N   0  0  0  0  0  0  0  0  0  0  0  0
  -18.0210  -21.8480   -4.8540 C   0  0  0  0  0  0  0  0  0  0  0  0
  -16.8570  -22.1890   -4.1540 C   0  0  0  0  0  0  0  0  0  0  0  0
  -15.6310  -21.9680   -4.7880 C   0  0  0  0  0  0  0  0  0  0  0  0
  -15.5730  -21.4270   -6.0680 C   0  0  0  0  0  0  0  0  0  0  0  0
  -16.7460  -21.0920   -6.7550 C   0  0  0  0  0  0  0  0  0  0  0  0
  -18.0000  -21.3050   -6.1400 C   0  0  0  0  0  0  0  0  0  0  0  0
  -19.3110  -17.4750   -6.6700 C   0  0  0  0  0  0  0  0  0  0  0  0
  -16.6659  -14.6153   -7.5601 H   0  0  0  0  0  0  0  0  0  0  0  0
  -16.1105  -15.3688   -9.0932 H   0  0  0  0  0  0  0  0  0  0  0  0
  -17.5405  -14.2818   -9.0932 H   0  0  0  0  0  0  0  0  0  0  0  0
  -18.7840  -15.9680   -8.7030 H   0  0  0  0  0  0  0  0  0  0  0  0
  -18.2351  -15.7100   -6.1365 H   0  0  0  0  0  0  0  0  0  0  0  0
  -16.0211  -16.6464   -6.0907 H   0  0  0  0  0  0  0  0  0  0  0  0
  -16.9582  -18.0878   -5.6794 H   0  0  0  0  0  0  0  0  0  0  0  0
  -15.3402  -17.6215   -8.0521 H   0  0  0  0  0  0  0  0  0  0  0  0
  -16.2871  -19.0716   -7.6944 H   0  0  0  0  0  0  0  0  0  0  0  0
  -16.9374  -17.4763   -9.8288 H   0  0  0  0  0  0  0  0  0  0  0  0
  -18.9166  -18.5398   -9.9329 H   0  0  0  0  0  0  0  0  0  0  0  0
  -18.1695  -19.4946   -8.5592 H   0  0  0  0  0  0  0  0  0  0  0  0
  -20.3342  -17.4467   -8.5502 H   0  0  0  0  0  0  0  0  0  0  0  0
  -21.2522  -21.4718   -5.4503 H   0  0  0  0  0  0  0  0  0  0  0  0
  -19.6490  -22.3270   -3.5900 H   0  0  0  0  0  0  0  0  0  0  0  0
  -16.9058  -22.6156   -3.1413 H   0  0  0  0  0  0  0  0  0  0  0  0
  -14.6975  -22.2260   -4.2664 H   0  0  0  0  0  0  0  0  0  0  0  0
  -14.5960  -21.2607   -6.5452 H   0  0  0  0  0  0  0  0  0  0  0  0
  -16.6916  -20.6655   -7.7675 H   0  0  0  0  0  0  0  0  0  0  0  0
  -20.1528  -16.8596   -6.3198 H   0  0  0  0  0  0  0  0  0  0  0  0
  -19.0446  -18.2744   -5.9630 H   0  0  0  0  0  0  0  0  0  0  0  0
  1  2  1  0
  2  3  1  0
  3  4  1  0
  4  5  1  0
  5  6  1  0
  6  7  1  0
  7  8  1  0
  8  9  1  0
  9 10  1  0
 10 11  2  0
 10 12  1  0
 12 13  2  0
 13 14  1  0
 14 15  1  0
 15 16  2  0
 16 17  1  0
 17 18  2  0
 18 19  1  0
 19 20  2  0
  8 21  1  0
  6  2  1  0
 20 12  1  0
 21  3  1  0
 20 15  1  0
  1 22  1  0
  1 23  1  0
  1 24  1  0
  2 25  1  6
  3 26  1  1
  4 27  1  0
  4 28  1  0
  5 29  1  0
  5 30  1  0
  6 31  1  6
  7 32  1  0
  7 33  1  0
  8 34  1  6
 13 35  1  0
 14 36  1  0
 16 37  1  0
 17 38  1  0
 18 39  1  0
 19 40  1  0
 21 41  1  0
 21 42  1  0
M  CHG  1   2   1
M  END
>  <meeko>  (7) 
{"is_sidechain": [false], "free_energy": -7.476, "intermolecular_energy": -8.789, "internal_energy": -0.475}

$$$$
2wnc_ligand
     RDKit          3D

 42 45  0  0  0  0  0  0  0  0999 V2000
  -13.8940  -22.9450    1.3100 C   0  0  0  0  0  0  0  0  0  0  0  0
  -14.4140  -22.8200   -0.0960 N   0  0  2  0  0  0  0  0  0  0  0  0
  -14.9080  -24.1170   -0.7070 C   0  0  2  0  0  0  0  0  0  0  0  0
  -13.6100  -24.8090   -1.1320 C   0  0  0  0  0  0  0  0  0  0  0  0
  -12.6200  -23.6830   -1.4110 C   0  0  0  0  0  0  0  0  0  0  0  0
  -13.3790  -22.3850   -1.1140 C   0  0  1  0  0  0  0  0  0  0  0  0
  -14.1160  -21.8690   -2.3570 C   0  0  0  0  0  0  0  0  0  0  0  0
  -15.5620  -22.3720   -2.4850 C   0  0  1  0  0  0  0  0  0  0  0  0
  -15.9840  -22.3640   -3.8580 O   0  0  0  0  0  0  0  0  0  0  0  0
  -16.7250  -21.2750   -4.2440 C   0  0  0  0  0  0  0  0  0  0  0  0
  -17.3420  -20.5760   -3.4470 O   0  0  0  0  0  0  0  0  0  0  0  0
  -16.6850  -21.0440   -5.6800 C   0  0  0  0  0  0  0  0  0  0  0  0
  -15.5510  -20.8040   -6.4400 C   0  0  0  0  0  0  0  0  0  0  0  0
  -15.9270  -20.6390   -7.7460 N   0  0  0  0  0  0  0  0  0  0  0  0
  -17.2910  -20.7630   -7.8650 C   0  0  0  0  0  0  0  0  0  0  0  0
  -18.1050  -20.6690   -9.0010 C   0  0  0  0  0  0  0  0  0  0  0  0
  -19.4810  -20.8430   -8.8280 C   0  0  0  0  0  0  0  0  0  0  0  0
  -20.0190  -21.0990   -7.5710 C   0  0  0  0  0  0  0  0  0  0  0  0
  -19.1910  -21.1890   -6.4460 C   0  0  0  0  0  0  0  0  0  0  0  0
  -17.7960  -21.0190   -6.5890 C   0  0  0  0  0  0  0  0  0  0  0  0
  -15.7830  -23.7810   -1.9230 C   0  0  0  0  0  0  0  0  0  0  0  0
  -14.7097  -22.7489    2.0214 H   0  0  0  0  0  0  0  0  0  0  0  0
  -13.5059  -23.9620    1.4684 H   0  0  0  0  0  0  0  0  0  0  0  0
  -13.0861  -22.2155    1.4684 H   0  0  0  0  0  0  0  0  0  0  0  0
  -15.1740  -22.1280   -0.0310 H   0  0  0  0  0  0  0  0  0  0  0  0
  -15.5151  -24.7428   -0.0364 H   0  0  0  0  0  0  0  0  0  0  0  0
  -13.2377  -25.4569   -0.3248 H   0  0  0  0  0  0  0  0  0  0  0  0
  -13.7589  -25.4492   -2.0141 H   0  0  0  0  0  0  0  0  0  0  0  0
  -11.7413  -23.7728   -0.7553 H   0  0  0  0  0  0  0  0  0  0  0  0
  -12.2519  -23.7117   -2.4472 H   0  0  0  0  0  0  0  0  0  0  0  0
  -12.7062  -21.5816   -0.7795 H   0  0  0  0  0  0  0  0  0  0  0  0
  -14.1353  -20.7700   -2.3153 H   0  0  0  0  0  0  0  0  0  0  0  0
  -13.5691  -22.2524   -3.2310 H   0  0  0  0  0  0  0  0  0  0  0  0
  -16.1614  -21.6738   -1.8824 H   0  0  0  0  0  0  0  0  0  0  0  0
  -14.5208  -20.7544   -6.0576 H   0  0  0  0  0  0  0  0  0  0  0  0
  -15.3020  -20.4520   -8.5190 H   0  0  0  0  0  0  0  0  0  0  0  0
  -17.6767  -20.4656   -9.9936 H   0  0  0  0  0  0  0  0  0  0  0  0
  -20.1489  -20.7765   -9.6995 H   0  0  0  0  0  0  0  0  0  0  0  0
  -21.1053  -21.2320   -7.4601 H   0  0  0  0  0  0  0  0  0  0  0  0
  -19.6245  -21.3911   -5.4554 H   0  0  0  0  0  0  0  0  0  0  0  0
  -16.8379  -23.8721   -1.6249 H   0  0  0  0  0  0  0  0  0  0  0  0
  -15.5031  -24.4867   -2.7190 H   0  0  0  0  0  0  0  0  0  0  0  0
  1  2  1  0
  2  3  1  0
  3  4  1  0
  4  5  1  0
  5  6  1  0
  6  7  1  0
  7  8  1  0
  8  9  1  0
  9 10  1  0
 10 11  2  0
 10 12  1  0
 12 13  2  0
 13 14  1  0
 14 15  1  0
 15 16  2  0
 16 17  1  0
 17 18  2  0
 18 19  1  0
 19 20  2  0
  8 21  1  0
  6  2  1  0
 20 12  1  0
 21  3  1  0
 20 15  1  0
  1 22  1  0
  1 23  1  0
  1 24  1  0
  2 25  1  1
  3 26  1  1
  4 27  1  0
  4 28  1  0
  5 29  1  0
  5 30  1  0
  6 31  1  1
  7 32  1  0
  7 33  1  0
  8 34  1  1
 13 35  1  0
 14 36  1  0
 16 37  1  0
 17 38  1  0
 18 39  1  0
 19 40  1  0
 21 41  1  0
 21 42  1  0
M  CHG  1   2   1
M  END
>  <meeko>  (8) 
{"is_sidechain": [false], "free_energy": -7.432, "intermolecular_energy": -8.749, "internal_energy": -0.464}

$$$$
2wnc_ligand
     RDKit          3D

 42 45  0  0  0  0  0  0  0  0999 V2000
  -13.1030  -23.4900    1.5920 C   0  0  0  0  0  0  0  0  0  0  0  0
  -13.6520  -23.3370    0.2000 N   0  0  2  0  0  0  0  0  0  0  0  0
  -13.5510  -24.5810   -0.6620 C   0  0  2  0  0  0  0  0  0  0  0  0
  -12.0890  -24.5620   -1.1180 C   0  0  0  0  0  0  0  0  0  0  0  0
  -11.6850  -23.0910   -1.1290 C   0  0  0  0  0  0  0  0  0  0  0  0
  -12.9220  -22.3200   -0.6560 C   0  0  1  0  0  0  0  0  0  0  0  0
  -13.8320  -21.9430   -1.8330 C   0  0  0  0  0  0  0  0  0  0  0  0
  -14.9240  -22.9800   -2.1410 C   0  0  1  0  0  0  0  0  0  0  0  0
  -15.3340  -22.8950   -3.5150 O   0  0  0  0  0  0  0  0  0  0  0  0
  -16.6800  -23.0290   -3.7420 C   0  0  0  0  0  0  0  0  0  0  0  0
  -17.3300  -23.9850   -3.3310 O   0  0  0  0  0  0  0  0  0  0  0  0
  -17.2390  -21.9220   -4.5030 C   0  0  0  0  0  0  0  0  0  0  0  0
  -18.5710  -21.7520   -4.8440 C   0  0  0  0  0  0  0  0  0  0  0  0
  -18.6950  -20.5910   -5.5590 N   0  0  0  0  0  0  0  0  0  0  0  0
  -17.4670  -19.9890   -5.7000 C   0  0  0  0  0  0  0  0  0  0  0  0
  -17.1210  -18.7980   -6.3500 C   0  0  0  0  0  0  0  0  0  0  0  0
  -15.7760  -18.4190   -6.3350 C   0  0  0  0  0  0  0  0  0  0  0  0
  -14.8180  -19.2000   -5.6950 C   0  0  0  0  0  0  0  0  0  0  0  0
  -15.1810  -20.3870   -5.0500 C   0  0  0  0  0  0  0  0  0  0  0  0
  -16.5330  -20.7970   -5.0480 C   0  0  0  0  0  0  0  0  0  0  0  0
  -14.5080  -24.4270   -1.8520 C   0  0  0  0  0  0  0  0  0  0  0  0
  -13.8937  -23.2696    2.3243 H   0  0  0  0  0  0  0  0  0  0  0  0
  -12.7480  -24.5213    1.7349 H   0  0  0  0  0  0  0  0  0  0  0  0
  -12.2658  -22.7909    1.7349 H   0  0  0  0  0  0  0  0  0  0  0  0
  -14.6340  -23.0600    0.3370 H   0  0  0  0  0  0  0  0  0  0  0  0
  -13.8171  -25.5197   -0.1541 H   0  0  0  0  0  0  0  0  0  0  0  0
  -11.4598  -25.1283   -0.4156 H   0  0  0  0  0  0  0  0  0  0  0  0
  -11.9637  -25.0272   -2.1069 H   0  0  0  0  0  0  0  0  0  0  0  0
  -10.8409  -22.9196   -0.4448 H   0  0  0  0  0  0  0  0  0  0  0  0
  -11.3603  -22.7657   -2.1284 H   0  0  0  0  0  0  0  0  0  0  0  0
  -12.6531  -21.3857   -0.1415 H   0  0  0  0  0  0  0  0  0  0  0  0
  -14.3211  -20.9860   -1.5985 H   0  0  0  0  0  0  0  0  0  0  0  0
  -13.1896  -21.8855   -2.7241 H   0  0  0  0  0  0  0  0  0  0  0  0
  -15.7542  -22.7296   -1.4642 H   0  0  0  0  0  0  0  0  0  0  0  0
  -19.3922  -22.4359   -4.5836 H   0  0  0  0  0  0  0  0  0  0  0  0
  -19.5580  -20.2200   -5.9340 H   0  0  0  0  0  0  0  0  0  0  0  0
  -17.8807  -18.1828   -6.8544 H   0  0  0  0  0  0  0  0  0  0  0  0
  -15.4697  -17.4892   -6.8367 H   0  0  0  0  0  0  0  0  0  0  0  0
  -13.7653  -18.8807   -5.6964 H   0  0  0  0  0  0  0  0  0  0  0  0
  -14.4174  -20.9983   -4.5467 H   0  0  0  0  0  0  0  0  0  0  0  0
  -15.4159  -25.0116   -1.6424 H   0  0  0  0  0  0  0  0  0  0  0  0
  -13.9670  -24.7838   -2.7408 H   0  0  0  0  0  0  0  0  0  0  0  0
  1  2  1  0
  2  3  1  0
  3  4  1  0
  4  5  1  0
  5  6  1  0
  6  7  1  0
  7  8  1  0
  8  9  1  0
  9 10  1  0
 10 11  2  0
 10 12  1  0
 12 13  2  0
 13 14  1  0
 14 15  1  0
 15 16  2  0
 16 17  1  0
 17 18  2  0
 18 19  1  0
 19 20  2  0
  8 21  1  0
  6  2  1  0
 20 12  1  0
 21  3  1  0
 20 15  1  0
  1 22  1  0
  1 23  1  0
  1 24  1  0
  2 25  1  1
  3 26  1  1
  4 27  1  0
  4 28  1  0
  5 29  1  0
  5 30  1  0
  6 31  1  1
  7 32  1  0
  7 33  1  0
  8 34  1  1
 13 35  1  0
 14 36  1  0
 16 37  1  0
 17 38  1  0
 18 39  1  0
 19 40  1  0
 21 41  1  0
 21 42  1  0
M  CHG  1   2   1
M  END
>  <meeko>  (9) 
{"is_sidechain": [false], "free_energy": -7.339, "intermolecular_energy": -8.942, "internal_energy": -0.162}

$$$$
