4cra_ligand
     RDKit          3D

 63 67  0  0  0  0  0  0  0  0999 V2000
   -6.4200   -4.7570  -13.8870 N   0  0  0  0  0  0  0  0  0  0  0  0
   -5.9810   -3.4870  -13.5240 C   0  0  0  0  0  0  0  0  0  0  0  0
   -5.5650   -3.2310  -12.2320 C   0  0  0  0  0  0  0  0  0  0  0  0
   -5.1120   -1.9530  -11.9210 C   0  0  0  0  0  0  0  0  0  0  0  0
   -5.0720   -0.9480  -12.9060 C   0  0  0  0  0  0  0  0  0  0  0  0
   -4.6090    0.3790  -12.6790 C   0  0  0  0  0  0  0  0  0  0  0  0
   -4.0670    0.8290  -11.3420 C   0  0  0  0  0  0  0  0  0  0  0  0
   -5.1090    0.7990  -10.3430 N   0  0  0  0  0  0  0  0  0  0  0  0
   -6.0050    1.8240  -10.1660 C   0  0  0  0  0  0  0  0  0  0  0  0
   -5.9740    2.8670  -10.8250 O   0  0  0  0  0  0  0  0  0  0  0  0
   -7.0710    1.5910   -9.0740 C   0  0  2  0  0  0  0  0  0  0  0  0
   -6.8330    2.4870   -7.8480 C   0  0  0  0  0  0  0  0  0  0  0  0
   -8.0960    3.0860   -7.2750 C   0  0  0  0  0  0  0  0  0  0  0  0
   -8.2720    3.1890   -5.8890 C   0  0  0  0  0  0  0  0  0  0  0  0
   -9.4220    3.7810   -5.3640 C   0  0  0  0  0  0  0  0  0  0  0  0
  -10.4120    4.2630   -6.2180 C   0  0  0  0  0  0  0  0  0  0  0  0
  -10.2560    4.1470   -7.5980 C   0  0  0  0  0  0  0  0  0  0  0  0
   -9.1060    3.5590   -8.1260 C   0  0  0  0  0  0  0  0  0  0  0  0
   -6.9910    0.1740   -8.7100 N   0  0  0  0  0  0  0  0  0  0  0  0
   -7.9340   -0.7310   -9.1310 C   0  0  0  0  0  0  0  0  0  0  0  0
   -8.9170   -0.4110   -9.7910 O   0  0  0  0  0  0  0  0  0  0  0  0
   -7.7050   -2.1600   -8.7750 C   0  0  0  0  0  0  0  0  0  0  0  0
   -8.6090   -3.1700   -9.1240 C   0  0  0  0  0  0  0  0  0  0  0  0
   -8.3490   -4.4920   -8.7600 C   0  0  0  0  0  0  0  0  0  0  0  0
   -7.1790   -4.8040   -8.0670 C   0  0  0  0  0  0  0  0  0  0  0  0
   -6.9510   -6.1300   -7.6790 N   0  0  0  0  0  0  0  0  0  0  0  0
   -5.8550   -6.5350   -6.9690 C   0  0  0  0  0  0  0  0  0  0  0  0
   -5.6990   -7.7000   -6.6200 O   0  0  0  0  0  0  0  0  0  0  0  0
   -4.8480   -5.5020   -6.6520 C   0  0  0  0  0  0  0  0  0  0  0  0
   -5.0160   -4.2300   -7.0280 C   0  0  0  0  0  0  0  0  0  0  0  0
   -4.0270   -3.3040   -6.7690 O   0  0  0  0  0  0  0  0  0  0  0  0
   -6.2370   -3.8120   -7.7410 C   0  0  0  0  0  0  0  0  0  0  0  0
   -6.5230   -2.4850   -8.0900 C   0  0  0  0  0  0  0  0  0  0  0  0
   -4.5950    1.2960  -13.7430 C   0  0  0  0  0  0  0  0  0  0  0  0
   -5.0400    0.9180  -15.0030 C   0  0  0  0  0  0  0  0  0  0  0  0
   -5.4940   -0.3830  -15.2120 C   0  0  0  0  0  0  0  0  0  0  0  0
   -5.5160   -1.3250  -14.1950 C   0  0  0  0  0  0  0  0  0  0  0  0
   -5.9540   -2.5610  -14.4920 N   0  0  0  0  0  0  0  0  0  0  0  0
   -5.6950   -5.1620  -14.4740 H   0  0  0  0  0  0  0  0  0  0  0  0
   -7.3130   -4.7200  -14.3650 H   0  0  0  0  0  0  0  0  0  0  0  0
   -5.5913   -4.0201  -11.4661 H   0  0  0  0  0  0  0  0  0  0  0  0
   -4.7822   -1.7257  -10.8965 H   0  0  0  0  0  0  0  0  0  0  0  0
   -3.2517    0.1569  -11.0362 H   0  0  0  0  0  0  0  0  0  0  0  0
   -3.6914    1.8586  -11.4364 H   0  0  0  0  0  0  0  0  0  0  0  0
   -5.2240   -0.0590   -9.8140 H   0  0  0  0  0  0  0  0  0  0  0  0
   -8.0715    1.8503   -9.4505 H   0  0  0  0  0  0  0  0  0  0  0  0
   -6.3500    1.8830   -7.0658 H   0  0  0  0  0  0  0  0  0  0  0  0
   -6.2040    3.3255   -8.1817 H   0  0  0  0  0  0  0  0  0  0  0  0
   -7.4987    2.8007   -5.2098 H   0  0  0  0  0  0  0  0  0  0  0  0
   -9.5469    3.8671   -4.2745 H   0  0  0  0  0  0  0  0  0  0  0  0
  -11.3153    4.7344   -5.8035 H   0  0  0  0  0  0  0  0  0  0  0  0
  -11.0410    4.5197   -8.2724 H   0  0  0  0  0  0  0  0  0  0  0  0
   -8.9907    3.4658   -9.2160 H   0  0  0  0  0  0  0  0  0  0  0  0
   -6.1010   -0.1320   -8.3280 H   0  0  0  0  0  0  0  0  0  0  0  0
   -9.5227   -2.9222   -9.6841 H   0  0  0  0  0  0  0  0  0  0  0  0
   -9.0648   -5.2861   -9.0189 H   0  0  0  0  0  0  0  0  0  0  0  0
   -7.6260   -6.8530   -7.8890 H   0  0  0  0  0  0  0  0  0  0  0  0
   -3.9421   -5.7847   -6.0957 H   0  0  0  0  0  0  0  0  0  0  0  0
   -4.3850   -2.4100   -6.8970 H   0  0  0  0  0  0  0  0  0  0  0  0
   -5.8128   -1.6883   -7.8240 H   0  0  0  0  0  0  0  0  0  0  0  0
   -4.2292    2.3200  -13.5771 H   0  0  0  0  0  0  0  0  0  0  0  0
   -5.0342    1.6415  -15.8316 H   0  0  0  0  0  0  0  0  0  0  0  0
   -5.8454   -0.6710  -16.2138 H   0  0  0  0  0  0  0  0  0  0  0  0
  1  2  1  0
  2  3  2  0
  3  4  1  0
  4  5  2  0
  5  6  1  0
  6  7  1  0
  7  8  1  0
  8  9  1  0
  9 10  2  0
  9 11  1  0
 11 12  1  0
 12 13  1  0
 13 14  2  0
 14 15  1  0
 15 16  2  0
 16 17  1  0
 17 18  2  0
 11 19  1  0
 19 20  1  0
 20 21  2  0
 20 22  1  0
 22 23  2  0
 23 24  1  0
 24 25  2  0
 25 26  1  0
 26 27  1  0
 27 28  2  0
 27 29  1  0
 29 30  2  0
 30 31  1  0
 30 32  1  0
 32 33  2  0
  6 34  2  0
 34 35  1  0
 35 36  2  0
 36 37  1  0
 37 38  2  0
 38  2  1  0
 37  5  1  0
 18 13  1  0
 33 22  1  0
 32 25  1  0
  1 39  1  0
  1 40  1  0
  3 41  1  0
  4 42  1  0
  7 43  1  0
  7 44  1  0
  8 45  1  0
 11 46  1  6
 12 47  1  0
 12 48  1  0
 14 49  1  0
 15 50  1  0
 16 51  1  0
 17 52  1  0
 18 53  1  0
 19 54  1  0
 23 55  1  0
 24 56  1  0
 26 57  1  0
 29 58  1  0
 31 59  1  0
 33 60  1  0
 34 61  1  0
 35 62  1  0
 36 63  1  0
M  END
>  <meeko>  (1) 
{"is_sidechain": [false], "free_energy": -8.744, "intermolecular_energy": -12.833, "internal_energy": -1.768}

$$$$
4cra_ligand
     RDKit          3D

 63 67  0  0  0  0  0  0  0  0999 V2000
   -3.3050   -0.0090  -10.4310 N   0  0  0  0  0  0  0  0  0  0  0  0
   -4.0470   -0.6760  -11.4010 C   0  0  0  0  0  0  0  0  0  0  0  0
   -4.6770   -1.8690  -11.1070 C   0  0  0  0  0  0  0  0  0  0  0  0
   -5.4270   -2.4880  -12.1010 C   0  0  0  0  0  0  0  0  0  0  0  0
   -5.5450   -1.9040  -13.3770 C   0  0  0  0  0  0  0  0  0  0  0  0
   -6.3040   -2.4590  -14.4460 C   0  0  0  0  0  0  0  0  0  0  0  0
   -7.1030   -3.7330  -14.2940 C   0  0  0  0  0  0  0  0  0  0  0  0
   -7.8080   -3.7350  -13.0330 N   0  0  0  0  0  0  0  0  0  0  0  0
   -9.0480   -3.1710  -12.8690 C   0  0  0  0  0  0  0  0  0  0  0  0
   -9.6480   -2.5880  -13.7750 O   0  0  0  0  0  0  0  0  0  0  0  0
   -9.6560   -3.3090  -11.4570 C   0  0  2  0  0  0  0  0  0  0  0  0
  -10.5480   -2.1070  -11.1020 C   0  0  0  0  0  0  0  0  0  0  0  0
  -11.9220   -2.4920  -10.6060 C   0  0  0  0  0  0  0  0  0  0  0  0
  -12.0690   -3.2980   -9.4700 C   0  0  0  0  0  0  0  0  0  0  0  0
  -13.3410   -3.6180   -8.9900 C   0  0  0  0  0  0  0  0  0  0  0  0
  -14.4750   -3.1460   -9.6470 C   0  0  0  0  0  0  0  0  0  0  0  0
  -14.3400   -2.3590  -10.7900 C   0  0  0  0  0  0  0  0  0  0  0  0
  -13.0690   -2.0360  -11.2700 C   0  0  0  0  0  0  0  0  0  0  0  0
   -8.5290   -3.4160  -10.5260 N   0  0  0  0  0  0  0  0  0  0  0  0
   -8.4760   -4.4000   -9.5710 C   0  0  0  0  0  0  0  0  0  0  0  0
   -9.3770   -5.2160   -9.4030 O   0  0  0  0  0  0  0  0  0  0  0  0
   -7.2420   -4.4680   -8.7390 C   0  0  0  0  0  0  0  0  0  0  0  0
   -6.4180   -3.3550   -8.5330 C   0  0  0  0  0  0  0  0  0  0  0  0
   -5.2700   -3.4750   -7.7490 C   0  0  0  0  0  0  0  0  0  0  0  0
   -4.9580   -4.7000   -7.1580 C   0  0  0  0  0  0  0  0  0  0  0  0
   -3.7830   -4.8120   -6.4040 N   0  0  0  0  0  0  0  0  0  0  0  0
   -3.3700   -5.9730   -5.8120 C   0  0  0  0  0  0  0  0  0  0  0  0
   -2.3210   -6.0450   -5.1810 O   0  0  0  0  0  0  0  0  0  0  0  0
   -4.2580   -7.1450   -5.9500 C   0  0  0  0  0  0  0  0  0  0  0  0
   -5.4020   -7.0710   -6.6400 C   0  0  0  0  0  0  0  0  0  0  0  0
   -6.2380   -8.1680   -6.6980 O   0  0  0  0  0  0  0  0  0  0  0  0
   -5.7920   -5.8210   -7.3180 C   0  0  0  0  0  0  0  0  0  0  0  0
   -6.9290   -5.6930   -8.1280 C   0  0  0  0  0  0  0  0  0  0  0  0
   -6.3680   -1.7780  -15.6730 C   0  0  0  0  0  0  0  0  0  0  0  0
   -5.6880   -0.5810  -15.8490 C   0  0  0  0  0  0  0  0  0  0  0  0
   -4.9460   -0.0480  -14.7960 C   0  0  0  0  0  0  0  0  0  0  0  0
   -4.8630   -0.6790  -13.5640 C   0  0  0  0  0  0  0  0  0  0  0  0
   -4.1380   -0.0840  -12.6010 N   0  0  0  0  0  0  0  0  0  0  0  0
   -3.1360   -0.6740   -9.6800 H   0  0  0  0  0  0  0  0  0  0  0  0
   -3.7870    0.8190  -10.0980 H   0  0  0  0  0  0  0  0  0  0  0  0
   -4.5875   -2.3201  -10.1078 H   0  0  0  0  0  0  0  0  0  0  0  0
   -5.9323   -3.4418  -11.8888 H   0  0  0  0  0  0  0  0  0  0  0  0
   -7.8300   -3.8058  -15.1163 H   0  0  0  0  0  0  0  0  0  0  0  0
   -6.4161   -4.5917  -14.3214 H   0  0  0  0  0  0  0  0  0  0  0  0
   -7.3920   -4.2550  -12.2670 H   0  0  0  0  0  0  0  0  0  0  0  0
  -10.3042   -4.1961  -11.4027 H   0  0  0  0  0  0  0  0  0  0  0  0
  -10.0466   -1.5234  -10.3159 H   0  0  0  0  0  0  0  0  0  0  0  0
  -10.6918   -1.5306  -12.0278 H   0  0  0  0  0  0  0  0  0  0  0  0
  -11.1771   -3.6814   -8.9527 H   0  0  0  0  0  0  0  0  0  0  0  0
  -13.4475   -4.2438   -8.0916 H   0  0  0  0  0  0  0  0  0  0  0  0
  -15.4761   -3.3939   -9.2644 H   0  0  0  0  0  0  0  0  0  0  0  0
  -15.2351   -1.9924  -11.3139 H   0  0  0  0  0  0  0  0  0  0  0  0
  -12.9674   -1.4195  -12.1753 H   0  0  0  0  0  0  0  0  0  0  0  0
   -7.7050   -2.8740  -10.7700 H   0  0  0  0  0  0  0  0  0  0  0  0
   -6.6752   -2.3874   -8.9885 H   0  0  0  0  0  0  0  0  0  0  0  0
   -4.6126   -2.6062   -7.5972 H   0  0  0  0  0  0  0  0  0  0  0  0
   -3.1630   -4.0210   -6.2930 H   0  0  0  0  0  0  0  0  0  0  0  0
   -3.9736   -8.0964   -5.4768 H   0  0  0  0  0  0  0  0  0  0  0  0
   -6.0700   -8.6530   -7.5220 H   0  0  0  0  0  0  0  0  0  0  0  0
   -7.5838   -6.5625   -8.2869 H   0  0  0  0  0  0  0  0  0  0  0  0
   -6.9610   -2.1962  -16.4997 H   0  0  0  0  0  0  0  0  0  0  0  0
   -5.7343   -0.0556  -16.8143 H   0  0  0  0  0  0  0  0  0  0  0  0
   -4.4106    0.9010  -14.9469 H   0  0  0  0  0  0  0  0  0  0  0  0
  1  2  1  0
  2  3  2  0
  3  4  1  0
  4  5  2  0
  5  6  1  0
  6  7  1  0
  7  8  1  0
  8  9  1  0
  9 10  2  0
  9 11  1  0
 11 12  1  0
 12 13  1  0
 13 14  2  0
 14 15  1  0
 15 16  2  0
 16 17  1  0
 17 18  2  0
 11 19  1  0
 19 20  1  0
 20 21  2  0
 20 22  1  0
 22 23  2  0
 23 24  1  0
 24 25  2  0
 25 26  1  0
 26 27  1  0
 27 28  2  0
 27 29  1  0
 29 30  2  0
 30 31  1  0
 30 32  1  0
 32 33  2  0
  6 34  2  0
 34 35  1  0
 35 36  2  0
 36 37  1  0
 37 38  2  0
 38  2  1  0
 37  5  1  0
 18 13  1  0
 33 22  1  0
 32 25  1  0
  1 39  1  0
  1 40  1  0
  3 41  1  0
  4 42  1  0
  7 43  1  0
  7 44  1  0
  8 45  1  0
 11 46  1  6
 12 47  1  0
 12 48  1  0
 14 49  1  0
 15 50  1  0
 16 51  1  0
 17 52  1  0
 18 53  1  0
 19 54  1  0
 23 55  1  0
 24 56  1  0
 26 57  1  0
 29 58  1  0
 31 59  1  0
 33 60  1  0
 34 61  1  0
 35 62  1  0
 36 63  1  0
M  END
>  <meeko>  (2) 
{"is_sidechain": [false], "free_energy": -8.699, "intermolecular_energy": -13.342, "internal_energy": -1.193}

$$$$
4cra_ligand
     RDKit          3D

 63 67  0  0  0  0  0  0  0  0999 V2000
   -3.7740   -7.5480   -4.8610 N   0  0  0  0  0  0  0  0  0  0  0  0
   -4.4380   -6.8080   -5.8340 C   0  0  0  0  0  0  0  0  0  0  0  0
   -5.2680   -7.4310   -6.7460 C   0  0  0  0  0  0  0  0  0  0  0  0
   -5.9290   -6.6470   -7.6850 C   0  0  0  0  0  0  0  0  0  0  0  0
   -5.7600   -5.2490   -7.6990 C   0  0  0  0  0  0  0  0  0  0  0  0
   -6.4100   -4.3720   -8.6130 C   0  0  0  0  0  0  0  0  0  0  0  0
   -7.3940   -4.8670   -9.6490 C   0  0  0  0  0  0  0  0  0  0  0  0
   -8.1980   -3.7730  -10.1400 N   0  0  0  0  0  0  0  0  0  0  0  0
   -9.4140   -3.4370   -9.5980 C   0  0  0  0  0  0  0  0  0  0  0  0
   -9.9330   -4.0610   -8.6700 O   0  0  0  0  0  0  0  0  0  0  0  0
  -10.1060   -2.2120  -10.2340 C   0  0  2  0  0  0  0  0  0  0  0  0
  -11.0900   -2.6260  -11.3420 C   0  0  0  0  0  0  0  0  0  0  0  0
  -12.5410   -2.5550  -10.9270 C   0  0  0  0  0  0  0  0  0  0  0  0
  -12.9950   -3.2500   -9.7990 C   0  0  0  0  0  0  0  0  0  0  0  0
  -14.3270   -3.1490   -9.3950 C   0  0  0  0  0  0  0  0  0  0  0  0
  -15.2200   -2.3630  -10.1220 C   0  0  0  0  0  0  0  0  0  0  0  0
  -14.7830   -1.6830  -11.2570 C   0  0  0  0  0  0  0  0  0  0  0  0
  -13.4500   -1.7800  -11.6610 C   0  0  0  0  0  0  0  0  0  0  0  0
   -9.0400   -1.3640  -10.7720 N   0  0  0  0  0  0  0  0  0  0  0  0
   -8.3290   -0.5060   -9.9700 C   0  0  0  0  0  0  0  0  0  0  0  0
   -8.5650   -0.3600   -8.7750 O   0  0  0  0  0  0  0  0  0  0  0  0
   -7.2090    0.2420  -10.6060 C   0  0  0  0  0  0  0  0  0  0  0  0
   -6.9900    1.6040  -10.3680 C   0  0  0  0  0  0  0  0  0  0  0  0
   -5.9290    2.2590  -10.9950 C   0  0  0  0  0  0  0  0  0  0  0  0
   -5.0790    1.5490  -11.8430 C   0  0  0  0  0  0  0  0  0  0  0  0
   -4.0420    2.2290  -12.4930 N   0  0  0  0  0  0  0  0  0  0  0  0
   -3.1760    1.6340  -13.3680 C   0  0  0  0  0  0  0  0  0  0  0  0
   -2.2940    2.2650  -13.9420 O   0  0  0  0  0  0  0  0  0  0  0  0
   -3.3370    0.1820  -13.5810 C   0  0  0  0  0  0  0  0  0  0  0  0
   -4.2990   -0.5090  -12.9590 C   0  0  0  0  0  0  0  0  0  0  0  0
   -4.3830   -1.8750  -13.1350 O   0  0  0  0  0  0  0  0  0  0  0  0
   -5.2560    0.1710  -12.0670 C   0  0  0  0  0  0  0  0  0  0  0  0
   -6.3390   -0.4680  -11.4500 C   0  0  0  0  0  0  0  0  0  0  0  0
   -6.1820   -2.9890   -8.5220 C   0  0  0  0  0  0  0  0  0  0  0  0
   -5.3210   -2.4810   -7.5580 C   0  0  0  0  0  0  0  0  0  0  0  0
   -4.6890   -3.3500   -6.6710 C   0  0  0  0  0  0  0  0  0  0  0  0
   -4.8920   -4.7200   -6.7160 C   0  0  0  0  0  0  0  0  0  0  0  0
   -4.2540   -5.4800   -5.8090 N   0  0  0  0  0  0  0  0  0  0  0  0
   -4.4810   -8.0900   -4.3690 H   0  0  0  0  0  0  0  0  0  0  0  0
   -3.2530   -6.9510   -4.2300 H   0  0  0  0  0  0  0  0  0  0  0  0
   -5.4029   -8.5226   -6.7296 H   0  0  0  0  0  0  0  0  0  0  0  0
   -6.5902   -7.1233   -8.4239 H   0  0  0  0  0  0  0  0  0  0  0  0
   -6.8423   -5.3167  -10.4877 H   0  0  0  0  0  0  0  0  0  0  0  0
   -8.0535   -5.6161   -9.1866 H   0  0  0  0  0  0  0  0  0  0  0  0
   -7.7950   -3.1840  -10.8610 H   0  0  0  0  0  0  0  0  0  0  0  0
  -10.7028   -1.6743   -9.4825 H   0  0  0  0  0  0  0  0  0  0  0  0
  -10.9427   -1.9584  -12.2038 H   0  0  0  0  0  0  0  0  0  0  0  0
  -10.8769   -3.6779  -11.5829 H   0  0  0  0  0  0  0  0  0  0  0  0
  -12.2970   -3.8797   -9.2277 H   0  0  0  0  0  0  0  0  0  0  0  0
  -14.6727   -3.6902   -8.5019 H   0  0  0  0  0  0  0  0  0  0  0  0
  -16.2685   -2.2798   -9.7999 H   0  0  0  0  0  0  0  0  0  0  0  0
  -15.4890   -1.0690  -11.8354 H   0  0  0  0  0  0  0  0  0  0  0  0
  -13.1110   -1.2452  -12.5605 H   0  0  0  0  0  0  0  0  0  0  0  0
   -8.7140   -1.6050  -11.7040 H   0  0  0  0  0  0  0  0  0  0  0  0
   -7.6536    2.1575   -9.6874 H   0  0  0  0  0  0  0  0  0  0  0  0
   -5.7635    3.3324  -10.8209 H   0  0  0  0  0  0  0  0  0  0  0  0
   -3.9110    3.2220  -12.3570 H   0  0  0  0  0  0  0  0  0  0  0  0
   -2.6526   -0.3419  -14.2645 H   0  0  0  0  0  0  0  0  0  0  0  0
   -5.3090   -2.1520  -13.0440 H   0  0  0  0  0  0  0  0  0  0  0  0
   -6.5105   -1.5398  -11.6287 H   0  0  0  0  0  0  0  0  0  0  0  0
   -6.6883   -2.3043   -9.2183 H   0  0  0  0  0  0  0  0  0  0  0  0
   -5.1389   -1.3980   -7.4950 H   0  0  0  0  0  0  0  0  0  0  0  0
   -4.0085   -2.9361   -5.9123 H   0  0  0  0  0  0  0  0  0  0  0  0
  1  2  1  0
  2  3  2  0
  3  4  1  0
  4  5  2  0
  5  6  1  0
  6  7  1  0
  7  8  1  0
  8  9  1  0
  9 10  2  0
  9 11  1  0
 11 12  1  0
 12 13  1  0
 13 14  2  0
 14 15  1  0
 15 16  2  0
 16 17  1  0
 17 18  2  0
 11 19  1  0
 19 20  1  0
 20 21  2  0
 20 22  1  0
 22 23  2  0
 23 24  1  0
 24 25  2  0
 25 26  1  0
 26 27  1  0
 27 28  2  0
 27 29  1  0
 29 30  2  0
 30 31  1  0
 30 32  1  0
 32 33  2  0
  6 34  2  0
 34 35  1  0
 35 36  2  0
 36 37  1  0
 37 38  2  0
 38  2  1  0
 37  5  1  0
 18 13  1  0
 33 22  1  0
 32 25  1  0
  1 39  1  0
  1 40  1  0
  3 41  1  0
  4 42  1  0
  7 43  1  0
  7 44  1  0
  8 45  1  0
 11 46  1  1
 12 47  1  0
 12 48  1  0
 14 49  1  0
 15 50  1  0
 16 51  1  0
 17 52  1  0
 18 53  1  0
 19 54  1  0
 23 55  1  0
 24 56  1  0
 26 57  1  0
 29 58  1  0
 31 59  1  0
 33 60  1  0
 34 61  1  0
 35 62  1  0
 36 63  1  0
M  END
>  <meeko>  (3) 
{"is_sidechain": [false], "free_energy": -8.683, "intermolecular_energy": -13.192, "internal_energy": -1.319}

$$$$
4cra_ligand
     RDKit          3D

 63 67  0  0  0  0  0  0  0  0999 V2000
   -5.5800   -7.7490  -18.0900 N   0  0  0  0  0  0  0  0  0  0  0  0
   -5.9680   -6.7280  -17.2270 C   0  0  0  0  0  0  0  0  0  0  0  0
   -7.2130   -6.1420  -17.3450 C   0  0  0  0  0  0  0  0  0  0  0  0
   -7.5660   -5.1430  -16.4460 C   0  0  0  0  0  0  0  0  0  0  0  0
   -6.6730   -4.7450  -15.4310 C   0  0  0  0  0  0  0  0  0  0  0  0
   -6.9590   -3.7430  -14.4600 C   0  0  0  0  0  0  0  0  0  0  0  0
   -8.2900   -3.0300  -14.4010 C   0  0  0  0  0  0  0  0  0  0  0  0
   -8.7910   -3.0130  -13.0460 N   0  0  0  0  0  0  0  0  0  0  0  0
   -9.5780   -4.0100  -12.5270 C   0  0  0  0  0  0  0  0  0  0  0  0
   -9.9480   -4.9860  -13.1840 O   0  0  0  0  0  0  0  0  0  0  0  0
   -9.9810   -3.8330  -11.0480 C   0  0  2  0  0  0  0  0  0  0  0  0
  -10.7260   -2.5070  -10.8180 C   0  0  0  0  0  0  0  0  0  0  0  0
  -12.2100   -2.6720  -10.5890 C   0  0  0  0  0  0  0  0  0  0  0  0
  -12.6870   -3.3050   -9.4340 C   0  0  0  0  0  0  0  0  0  0  0  0
  -14.0600   -3.4190   -9.2060 C   0  0  0  0  0  0  0  0  0  0  0  0
  -14.9670   -2.9140  -10.1350 C   0  0  0  0  0  0  0  0  0  0  0  0
  -14.5030   -2.2990  -11.2970 C   0  0  0  0  0  0  0  0  0  0  0  0
  -13.1310   -2.1810  -11.5260 C   0  0  0  0  0  0  0  0  0  0  0  0
   -8.7410   -3.8780  -10.2700 N   0  0  0  0  0  0  0  0  0  0  0  0
   -8.7410   -4.2060   -8.9370 C   0  0  0  0  0  0  0  0  0  0  0  0
   -9.7680   -4.4340   -8.3050 O   0  0  0  0  0  0  0  0  0  0  0  0
   -7.4140   -4.3080   -8.2660 C   0  0  0  0  0  0  0  0  0  0  0  0
   -6.5470   -3.2140   -8.1570 C   0  0  0  0  0  0  0  0  0  0  0  0
   -5.3120   -3.3650   -7.5250 C   0  0  0  0  0  0  0  0  0  0  0  0
   -4.9550   -4.6030   -6.9870 C   0  0  0  0  0  0  0  0  0  0  0  0
   -3.6970   -4.7470   -6.3880 N   0  0  0  0  0  0  0  0  0  0  0  0
   -3.2380   -5.9220   -5.8630 C   0  0  0  0  0  0  0  0  0  0  0  0
   -2.1190   -6.0220   -5.3700 O   0  0  0  0  0  0  0  0  0  0  0  0
   -4.1610   -7.0740   -5.8980 C   0  0  0  0  0  0  0  0  0  0  0  0
   -5.3810   -6.9700   -6.4380 C   0  0  0  0  0  0  0  0  0  0  0  0
   -6.2400   -8.0490   -6.3990 O   0  0  0  0  0  0  0  0  0  0  0  0
   -5.8260   -5.7050   -7.0510 C   0  0  0  0  0  0  0  0  0  0  0  0
   -7.0520   -5.5450   -7.7100 C   0  0  0  0  0  0  0  0  0  0  0  0
   -6.0000   -3.4410  -13.4800 C   0  0  0  0  0  0  0  0  0  0  0  0
   -4.7780   -4.1010  -13.4640 C   0  0  0  0  0  0  0  0  0  0  0  0
   -4.5090   -5.0770  -14.4220 C   0  0  0  0  0  0  0  0  0  0  0  0
   -5.4300   -5.4170  -15.4010 C   0  0  0  0  0  0  0  0  0  0  0  0
   -5.0910   -6.3830  -16.2730 N   0  0  0  0  0  0  0  0  0  0  0  0
   -4.7380   -8.1620  -17.6980 H   0  0  0  0  0  0  0  0  0  0  0  0
   -5.4270   -7.4030  -19.0300 H   0  0  0  0  0  0  0  0  0  0  0  0
   -7.9105   -6.4594  -18.1341 H   0  0  0  0  0  0  0  0  0  0  0  0
   -8.5504   -4.6589  -16.5272 H   0  0  0  0  0  0  0  0  0  0  0  0
   -8.1635   -1.9959  -14.7539 H   0  0  0  0  0  0  0  0  0  0  0  0
   -9.0091   -3.5618  -15.0413 H   0  0  0  0  0  0  0  0  0  0  0  0
   -8.4670   -2.2670  -12.4390 H   0  0  0  0  0  0  0  0  0  0  0  0
  -10.6740   -4.6295  -10.7393 H   0  0  0  0  0  0  0  0  0  0  0  0
  -10.2918   -2.0140   -9.9357 H   0  0  0  0  0  0  0  0  0  0  0  0
  -10.6081   -1.9107  -11.7348 H   0  0  0  0  0  0  0  0  0  0  0  0
  -11.9756   -3.7149   -8.7020 H   0  0  0  0  0  0  0  0  0  0  0  0
  -14.4260   -3.9084   -8.2913 H   0  0  0  0  0  0  0  0  0  0  0  0
  -16.0482   -3.0004   -9.9519 H   0  0  0  0  0  0  0  0  0  0  0  0
  -15.2188   -1.9063  -12.0342 H   0  0  0  0  0  0  0  0  0  0  0  0
  -12.7700   -1.7000  -12.4470 H   0  0  0  0  0  0  0  0  0  0  0  0
   -7.8820   -3.8740  -10.8110 H   0  0  0  0  0  0  0  0  0  0  0  0
   -6.8390   -2.2368   -8.5690 H   0  0  0  0  0  0  0  0  0  0  0  0
   -4.6220   -2.5115   -7.4509 H   0  0  0  0  0  0  0  0  0  0  0  0
   -3.0510   -3.9700   -6.3500 H   0  0  0  0  0  0  0  0  0  0  0  0
   -3.8397   -8.0360   -5.4721 H   0  0  0  0  0  0  0  0  0  0  0  0
   -7.0380   -7.8030   -5.9040 H   0  0  0  0  0  0  0  0  0  0  0  0
   -7.7396   -6.3996   -7.7927 H   0  0  0  0  0  0  0  0  0  0  0  0
   -6.2179   -2.6765  -12.7197 H   0  0  0  0  0  0  0  0  0  0  0  0
   -4.0265   -3.8548  -12.6994 H   0  0  0  0  0  0  0  0  0  0  0  0
   -3.5376   -5.5926  -14.4007 H   0  0  0  0  0  0  0  0  0  0  0  0
  1  2  1  0
  2  3  2  0
  3  4  1  0
  4  5  2  0
  5  6  1  0
  6  7  1  0
  7  8  1  0
  8  9  1  0
  9 10  2  0
  9 11  1  0
 11 12  1  0
 12 13  1  0
 13 14  2  0
 14 15  1  0
 15 16  2  0
 16 17  1  0
 17 18  2  0
 11 19  1  0
 19 20  1  0
 20 21  2  0
 20 22  1  0
 22 23  2  0
 23 24  1  0
 24 25  2  0
 25 26  1  0
 26 27  1  0
 27 28  2  0
 27 29  1  0
 29 30  2  0
 30 31  1  0
 30 32  1  0
 32 33  2  0
  6 34  2  0
 34 35  1  0
 35 36  2  0
 36 37  1  0
 37 38  2  0
 38  2  1  0
 37  5  1  0
 18 13  1  0
 33 22  1  0
 32 25  1  0
  1 39  1  0
  1 40  1  0
  3 41  1  0
  4 42  1  0
  7 43  1  0
  7 44  1  0
  8 45  1  0
 11 46  1  1
 12 47  1  0
 12 48  1  0
 14 49  1  0
 15 50  1  0
 16 51  1  0
 17 52  1  0
 18 53  1  0
 19 54  1  0
 23 55  1  0
 24 56  1  0
 26 57  1  0
 29 58  1  0
 31 59  1  0
 33 60  1  0
 34 61  1  0
 35 62  1  0
 36 63  1  0
M  END
>  <meeko>  (4) 
{"is_sidechain": [false], "free_energy": -8.662, "intermolecular_energy": -13.258, "internal_energy": -1.223}

$$$$
4cra_ligand
     RDKit          3D

 63 67  0  0  0  0  0  0  0  0999 V2000
   -3.1160    0.4800  -15.3520 N   0  0  0  0  0  0  0  0  0  0  0  0
   -4.1390    0.3530  -14.4180 C   0  0  0  0  0  0  0  0  0  0  0  0
   -5.4490    0.1910  -14.8270 C   0  0  0  0  0  0  0  0  0  0  0  0
   -6.4340    0.0440  -13.8570 C   0  0  0  0  0  0  0  0  0  0  0  0
   -6.1000    0.0520  -12.4890 C   0  0  0  0  0  0  0  0  0  0  0  0
   -7.0420   -0.1080  -11.4330 C   0  0  0  0  0  0  0  0  0  0  0  0
   -8.5120   -0.3480  -11.6900 C   0  0  0  0  0  0  0  0  0  0  0  0
   -8.9420   -1.5670  -11.0450 N   0  0  0  0  0  0  0  0  0  0  0  0
  -10.2570   -1.9550  -10.9810 C   0  0  0  0  0  0  0  0  0  0  0  0
  -11.1810   -1.2800  -11.4410 O   0  0  0  0  0  0  0  0  0  0  0  0
  -10.5130   -3.3090  -10.2860 C   0  0  2  0  0  0  0  0  0  0  0  0
  -11.8090   -3.2860   -9.4570 C   0  0  0  0  0  0  0  0  0  0  0  0
  -13.0660   -3.4070  -10.2860 C   0  0  0  0  0  0  0  0  0  0  0  0
  -14.2820   -2.8950   -9.8160 C   0  0  0  0  0  0  0  0  0  0  0  0
  -15.4330   -2.9710  -10.6030 C   0  0  0  0  0  0  0  0  0  0  0  0
  -15.3810   -3.5710  -11.8600 C   0  0  0  0  0  0  0  0  0  0  0  0
  -14.1810   -4.1000  -12.3290 C   0  0  0  0  0  0  0  0  0  0  0  0
  -13.0280   -4.0220  -11.5460 C   0  0  0  0  0  0  0  0  0  0  0  0
   -9.3510   -3.5660   -9.4320 N   0  0  0  0  0  0  0  0  0  0  0  0
   -8.2890   -4.3160   -9.8700 C   0  0  0  0  0  0  0  0  0  0  0  0
   -8.2610   -4.8540  -10.9720 O   0  0  0  0  0  0  0  0  0  0  0  0
   -7.1230   -4.4380   -8.9500 C   0  0  0  0  0  0  0  0  0  0  0  0
   -6.2680   -3.3630   -8.6820 C   0  0  0  0  0  0  0  0  0  0  0  0
   -5.1860   -3.5330   -7.8170 C   0  0  0  0  0  0  0  0  0  0  0  0
   -4.9720   -4.7700   -7.2080 C   0  0  0  0  0  0  0  0  0  0  0  0
   -3.8610   -4.9340   -6.3720 N   0  0  0  0  0  0  0  0  0  0  0  0
   -3.5430   -6.1120   -5.7550 C   0  0  0  0  0  0  0  0  0  0  0  0
   -2.5460   -6.2300   -5.0500 O   0  0  0  0  0  0  0  0  0  0  0  0
   -4.4690   -7.2430   -5.9620 C   0  0  0  0  0  0  0  0  0  0  0  0
   -5.5550   -7.1200   -6.7320 C   0  0  0  0  0  0  0  0  0  0  0  0
   -6.4310   -8.1790   -6.8540 O   0  0  0  0  0  0  0  0  0  0  0  0
   -5.8400   -5.8540   -7.4320 C   0  0  0  0  0  0  0  0  0  0  0  0
   -6.9080   -5.6760   -8.3220 C   0  0  0  0  0  0  0  0  0  0  0  0
   -6.5930   -0.1040  -10.1030 C   0  0  0  0  0  0  0  0  0  0  0  0
   -5.2450    0.0680   -9.8160 C   0  0  0  0  0  0  0  0  0  0  0  0
   -4.3330    0.2260  -10.8580 C   0  0  0  0  0  0  0  0  0  0  0  0
   -4.7290    0.2180  -12.1870 C   0  0  0  0  0  0  0  0  0  0  0  0
   -3.7780    0.3600  -13.1270 N   0  0  0  0  0  0  0  0  0  0  0  0
   -3.4650    1.0860  -16.0910 H   0  0  0  0  0  0  0  0  0  0  0  0
   -2.8260   -0.4220  -15.7120 H   0  0  0  0  0  0  0  0  0  0  0  0
   -5.7067    0.1786  -15.8963 H   0  0  0  0  0  0  0  0  0  0  0  0
   -7.4839   -0.0797  -14.1609 H   0  0  0  0  0  0  0  0  0  0  0  0
   -9.0926    0.4973  -11.2919 H   0  0  0  0  0  0  0  0  0  0  0  0
   -8.6750   -0.4404  -12.7739 H   0  0  0  0  0  0  0  0  0  0  0  0
   -8.2200   -2.1940  -10.7050 H   0  0  0  0  0  0  0  0  0  0  0  0
  -10.6430   -4.1062  -11.0328 H   0  0  0  0  0  0  0  0  0  0  0  0
  -11.7806   -4.1248   -8.7459 H   0  0  0  0  0  0  0  0  0  0  0  0
  -11.8500   -2.3085   -8.9542 H   0  0  0  0  0  0  0  0  0  0  0  0
  -14.3307   -2.4299   -8.8203 H   0  0  0  0  0  0  0  0  0  0  0  0
  -16.3816   -2.5570  -10.2306 H   0  0  0  0  0  0  0  0  0  0  0  0
  -16.2871   -3.6267  -12.4812 H   0  0  0  0  0  0  0  0  0  0  0  0
  -14.1418   -4.5800  -13.3180 H   0  0  0  0  0  0  0  0  0  0  0  0
  -12.0839   -4.4454  -11.9194 H   0  0  0  0  0  0  0  0  0  0  0  0
   -9.2780   -2.9840   -8.6020 H   0  0  0  0  0  0  0  0  0  0  0  0
   -6.4485   -2.3852   -9.1525 H   0  0  0  0  0  0  0  0  0  0  0  0
   -4.5037   -2.6940   -7.6159 H   0  0  0  0  0  0  0  0  0  0  0  0
   -3.2170   -4.1710   -6.2130 H   0  0  0  0  0  0  0  0  0  0  0  0
   -4.2613   -8.2062   -5.4729 H   0  0  0  0  0  0  0  0  0  0  0  0
   -6.0310   -8.9710   -6.4610 H   0  0  0  0  0  0  0  0  0  0  0  0
   -7.5863   -6.5163   -8.5314 H   0  0  0  0  0  0  0  0  0  0  0  0
   -7.3135   -0.2380   -9.2827 H   0  0  0  0  0  0  0  0  0  0  0  0
   -4.8990    0.0795   -8.7719 H   0  0  0  0  0  0  0  0  0  0  0  0
   -3.2678    0.3610  -10.6192 H   0  0  0  0  0  0  0  0  0  0  0  0
  1  2  1  0
  2  3  2  0
  3  4  1  0
  4  5  2  0
  5  6  1  0
  6  7  1  0
  7  8  1  0
  8  9  1  0
  9 10  2  0
  9 11  1  0
 11 12  1  0
 12 13  1  0
 13 14  2  0
 14 15  1  0
 15 16  2  0
 16 17  1  0
 17 18  2  0
 11 19  1  0
 19 20  1  0
 20 21  2  0
 20 22  1  0
 22 23  2  0
 23 24  1  0
 24 25  2  0
 25 26  1  0
 26 27  1  0
 27 28  2  0
 27 29  1  0
 29 30  2  0
 30 31  1  0
 30 32  1  0
 32 33  2  0
  6 34  2  0
 34 35  1  0
 35 36  2  0
 36 37  1  0
 37 38  2  0
 38  2  1  0
 37  5  1  0
 18 13  1  0
 33 22  1  0
 32 25  1  0
  1 39  1  0
  1 40  1  0
  3 41  1  0
  4 42  1  0
  7 43  1  0
  7 44  1  0
  8 45  1  0
 11 46  1  6
 12 47  1  0
 12 48  1  0
 14 49  1  0
 15 50  1  0
 16 51  1  0
 17 52  1  0
 18 53  1  0
 19 54  1  0
 23 55  1  0
 24 56  1  0
 26 57  1  0
 29 58  1  0
 31 59  1  0
 33 60  1  0
 34 61  1  0
 35 62  1  0
 36 63  1  0
M  END
>  <meeko>  (5) 
{"is_sidechain": [false], "free_energy": -8.573, "intermolecular_energy": -13.323, "internal_energy": -1.027}

$$$$
4cra_ligand
     RDKit          3D

 63 67  0  0  0  0  0  0  0  0999 V2000
   -5.1950   -7.5200   -6.0490 N   0  0  0  0  0  0  0  0  0  0  0  0
   -5.4780   -6.2360   -6.5050 C   0  0  0  0  0  0  0  0  0  0  0  0
   -4.5630   -5.2150   -6.3440 C   0  0  0  0  0  0  0  0  0  0  0  0
   -4.8800   -3.9540   -6.8370 C   0  0  0  0  0  0  0  0  0  0  0  0
   -6.1050   -3.7290   -7.4950 C   0  0  0  0  0  0  0  0  0  0  0  0
   -6.5020   -2.4770   -8.0440 C   0  0  0  0  0  0  0  0  0  0  0  0
   -5.6090   -1.2590   -8.0080 C   0  0  0  0  0  0  0  0  0  0  0  0
   -5.2800   -0.8380   -9.3500 N   0  0  0  0  0  0  0  0  0  0  0  0
   -5.6520    0.3790   -9.8650 C   0  0  0  0  0  0  0  0  0  0  0  0
   -6.3250    1.1990   -9.2350 O   0  0  0  0  0  0  0  0  0  0  0  0
   -5.1730    0.6630  -11.3040 C   0  0  2  0  0  0  0  0  0  0  0  0
   -5.3200    2.1500  -11.6690 C   0  0  0  0  0  0  0  0  0  0  0  0
   -4.2110    2.6750  -12.5510 C   0  0  0  0  0  0  0  0  0  0  0  0
   -3.2780    1.7990  -13.1200 C   0  0  0  0  0  0  0  0  0  0  0  0
   -2.2800    2.2830  -13.9670 C   0  0  0  0  0  0  0  0  0  0  0  0
   -2.1980    3.6460  -14.2430 C   0  0  0  0  0  0  0  0  0  0  0  0
   -3.1100    4.5280  -13.6670 C   0  0  0  0  0  0  0  0  0  0  0  0
   -4.1110    4.0470  -12.8220 C   0  0  0  0  0  0  0  0  0  0  0  0
   -5.9870   -0.1760  -12.1880 N   0  0  0  0  0  0  0  0  0  0  0  0
   -5.5830   -1.4340  -12.5580 C   0  0  0  0  0  0  0  0  0  0  0  0
   -4.5080   -1.9170  -12.2180 O   0  0  0  0  0  0  0  0  0  0  0  0
   -6.5310   -2.2310  -13.3870 C   0  0  0  0  0  0  0  0  0  0  0  0
   -6.7310   -1.9730  -14.7490 C   0  0  0  0  0  0  0  0  0  0  0  0
   -7.6350   -2.7460  -15.4780 C   0  0  0  0  0  0  0  0  0  0  0  0
   -8.3230   -3.7860  -14.8500 C   0  0  0  0  0  0  0  0  0  0  0  0
   -9.2540   -4.5290  -15.5880 N   0  0  0  0  0  0  0  0  0  0  0  0
  -10.0030   -5.5440  -15.0600 C   0  0  0  0  0  0  0  0  0  0  0  0
  -10.8300   -6.1570  -15.7270 O   0  0  0  0  0  0  0  0  0  0  0  0
   -9.7580   -5.8860  -13.6450 C   0  0  0  0  0  0  0  0  0  0  0  0
   -8.8590   -5.2180  -12.9140 C   0  0  0  0  0  0  0  0  0  0  0  0
   -8.6130   -5.6040  -11.6120 O   0  0  0  0  0  0  0  0  0  0  0  0
   -8.1090   -4.0890  -13.4930 C   0  0  0  0  0  0  0  0  0  0  0  0
   -7.2170   -3.2890  -12.7670 C   0  0  0  0  0  0  0  0  0  0  0  0
   -7.7410   -2.3730   -8.6970 C   0  0  0  0  0  0  0  0  0  0  0  0
   -8.5790   -3.4760   -8.7960 C   0  0  0  0  0  0  0  0  0  0  0  0
   -8.1800   -4.6960   -8.2520 C   0  0  0  0  0  0  0  0  0  0  0  0
   -6.9620   -4.8480   -7.6080 C   0  0  0  0  0  0  0  0  0  0  0  0
   -6.6530   -6.0660   -7.1290 N   0  0  0  0  0  0  0  0  0  0  0  0
   -5.7970   -7.6870   -5.2460 H   0  0  0  0  0  0  0  0  0  0  0  0
   -4.2150   -7.6230   -5.8110 H   0  0  0  0  0  0  0  0  0  0  0  0
   -3.6038   -5.3951   -5.8366 H   0  0  0  0  0  0  0  0  0  0  0  0
   -4.1679   -3.1249   -6.7121 H   0  0  0  0  0  0  0  0  0  0  0  0
   -6.1311   -0.4416   -7.4891 H   0  0  0  0  0  0  0  0  0  0  0  0
   -4.6806   -1.5119   -7.4749 H   0  0  0  0  0  0  0  0  0  0  0  0
   -4.6740   -1.4440   -9.8930 H   0  0  0  0  0  0  0  0  0  0  0  0
   -4.1031    0.4291  -11.4065 H   0  0  0  0  0  0  0  0  0  0  0  0
   -6.2757    2.2845  -12.1967 H   0  0  0  0  0  0  0  0  0  0  0  0
   -5.2751    2.7166  -10.7272 H   0  0  0  0  0  0  0  0  0  0  0  0
   -3.3322    0.7230  -12.8979 H   0  0  0  0  0  0  0  0  0  0  0  0
   -1.5569    1.5871  -14.4174 H   0  0  0  0  0  0  0  0  0  0  0  0
   -1.4141    4.0255  -14.9149 H   0  0  0  0  0  0  0  0  0  0  0  0
   -3.0408    5.6052  -13.8787 H   0  0  0  0  0  0  0  0  0  0  0  0
   -4.8255    4.7481  -12.3660 H   0  0  0  0  0  0  0  0  0  0  0  0
   -6.9460    0.1310  -12.3240 H   0  0  0  0  0  0  0  0  0  0  0  0
   -6.1760   -1.1620  -15.2432 H   0  0  0  0  0  0  0  0  0  0  0  0
   -7.8052   -2.5368  -16.5444 H   0  0  0  0  0  0  0  0  0  0  0  0
   -9.4330   -4.3140  -16.5590 H   0  0  0  0  0  0  0  0  0  0  0  0
  -10.3262   -6.7066  -13.1826 H   0  0  0  0  0  0  0  0  0  0  0  0
   -8.5510   -4.8140  -11.0520 H   0  0  0  0  0  0  0  0  0  0  0  0
   -7.0516   -3.4916  -11.6985 H   0  0  0  0  0  0  0  0  0  0  0  0
   -8.0498   -1.4114   -9.1330 H   0  0  0  0  0  0  0  0  0  0  0  0
   -9.5523   -3.3875   -9.3009 H   0  0  0  0  0  0  0  0  0  0  0  0
   -8.8513   -5.5633   -8.3363 H   0  0  0  0  0  0  0  0  0  0  0  0
  1  2  1  0
  2  3  2  0
  3  4  1  0
  4  5  2  0
  5  6  1  0
  6  7  1  0
  7  8  1  0
  8  9  1  0
  9 10  2  0
  9 11  1  0
 11 12  1  0
 12 13  1  0
 13 14  2  0
 14 15  1  0
 15 16  2  0
 16 17  1  0
 17 18  2  0
 11 19  1  0
 19 20  1  0
 20 21  2  0
 20 22  1  0
 22 23  2  0
 23 24  1  0
 24 25  2  0
 25 26  1  0
 26 27  1  0
 27 28  2  0
 27 29  1  0
 29 30  2  0
 30 31  1  0
 30 32  1  0
 32 33  2  0
  6 34  2  0
 34 35  1  0
 35 36  2  0
 36 37  1  0
 37 38  2  0
 38  2  1  0
 37  5  1  0
 18 13  1  0
 33 22  1  0
 32 25  1  0
  1 39  1  0
  1 40  1  0
  3 41  1  0
  4 42  1  0
  7 43  1  0
  7 44  1  0
  8 45  1  0
 11 46  1  1
 12 47  1  0
 12 48  1  0
 14 49  1  0
 15 50  1  0
 16 51  1  0
 17 52  1  0
 18 53  1  0
 19 54  1  0
 23 55  1  0
 24 56  1  0
 26 57  1  0
 29 58  1  0
 31 59  1  0
 33 60  1  0
 34 61  1  0
 35 62  1  0
 36 63  1  0
M  END
>  <meeko>  (6) 
{"is_sidechain": [false], "free_energy": -8.55, "intermolecular_energy": -12.604, "internal_energy": -1.713}

$$$$
4cra_ligand
     RDKit          3D

 63 67  0  0  0  0  0  0  0  0999 V2000
   -3.3740    0.1590  -10.5720 N   0  0  0  0  0  0  0  0  0  0  0  0
   -4.1160   -0.5390  -11.5200 C   0  0  0  0  0  0  0  0  0  0  0  0
   -4.8350   -1.6630  -11.1620 C   0  0  0  0  0  0  0  0  0  0  0  0
   -5.5800   -2.3140  -12.1390 C   0  0  0  0  0  0  0  0  0  0  0  0
   -5.6060   -1.8300  -13.4610 C   0  0  0  0  0  0  0  0  0  0  0  0
   -6.3540   -2.4240  -14.5180 C   0  0  0  0  0  0  0  0  0  0  0  0
   -7.2400   -3.6290  -14.3030 C   0  0  0  0  0  0  0  0  0  0  0  0
   -7.8830   -3.5550  -13.0110 N   0  0  0  0  0  0  0  0  0  0  0  0
   -9.2260   -3.7730  -12.8310 C   0  0  0  0  0  0  0  0  0  0  0  0
   -9.9990   -4.0190  -13.7600 O   0  0  0  0  0  0  0  0  0  0  0  0
   -9.7200   -3.6880  -11.3710 C   0  0  2  0  0  0  0  0  0  0  0  0
  -10.4630   -2.3690  -11.0990 C   0  0  0  0  0  0  0  0  0  0  0  0
   -9.5830   -1.1440  -11.1850 C   0  0  0  0  0  0  0  0  0  0  0  0
   -8.8520   -0.7110  -10.0710 C   0  0  0  0  0  0  0  0  0  0  0  0
   -8.0080    0.3960  -10.1660 C   0  0  0  0  0  0  0  0  0  0  0  0
   -7.8970    1.0890  -11.3700 C   0  0  0  0  0  0  0  0  0  0  0  0
   -8.6340    0.6790  -12.4790 C   0  0  0  0  0  0  0  0  0  0  0  0
   -9.4770   -0.4310  -12.3880 C   0  0  0  0  0  0  0  0  0  0  0  0
   -8.5330   -3.8050  -10.5220 N   0  0  0  0  0  0  0  0  0  0  0  0
   -8.6310   -4.1090   -9.1870 C   0  0  0  0  0  0  0  0  0  0  0  0
   -9.7050   -4.2540   -8.6130 O   0  0  0  0  0  0  0  0  0  0  0  0
   -7.3540   -4.2900   -8.4400 C   0  0  0  0  0  0  0  0  0  0  0  0
   -6.4580   -3.2360   -8.2250 C   0  0  0  0  0  0  0  0  0  0  0  0
   -5.2730   -3.4610   -7.5240 C   0  0  0  0  0  0  0  0  0  0  0  0
   -4.9950   -4.7340   -7.0230 C   0  0  0  0  0  0  0  0  0  0  0  0
   -3.7840   -4.9510   -6.3540 N   0  0  0  0  0  0  0  0  0  0  0  0
   -3.4010   -6.1650   -5.8550 C   0  0  0  0  0  0  0  0  0  0  0  0
   -2.3210   -6.3290   -5.2980 O   0  0  0  0  0  0  0  0  0  0  0  0
   -4.3600   -7.2790   -6.0020 C   0  0  0  0  0  0  0  0  0  0  0  0
   -5.5370   -7.1050   -6.6120 C   0  0  0  0  0  0  0  0  0  0  0  0
   -6.4340   -8.1510   -6.6780 O   0  0  0  0  0  0  0  0  0  0  0  0
   -5.8980   -5.7990   -7.1930 C   0  0  0  0  0  0  0  0  0  0  0  0
   -7.0720   -5.5640   -7.9200 C   0  0  0  0  0  0  0  0  0  0  0  0
   -6.3210   -1.8440  -15.7960 C   0  0  0  0  0  0  0  0  0  0  0  0
   -5.5570   -0.7090  -16.0340 C   0  0  0  0  0  0  0  0  0  0  0  0
   -4.8270   -0.1380  -14.9920 C   0  0  0  0  0  0  0  0  0  0  0  0
   -4.8380   -0.6700  -13.7120 C   0  0  0  0  0  0  0  0  0  0  0  0
   -4.1170   -0.0430  -12.7650 N   0  0  0  0  0  0  0  0  0  0  0  0
   -3.0230   -0.5280   -9.9090 H   0  0  0  0  0  0  0  0  0  0  0  0
   -3.9310    0.8710  -10.1140 H   0  0  0  0  0  0  0  0  0  0  0  0
   -4.8185   -2.0348  -10.1269 H   0  0  0  0  0  0  0  0  0  0  0  0
   -6.1541   -3.2150  -11.8769 H   0  0  0  0  0  0  0  0  0  0  0  0
   -8.0084   -3.6593  -15.0895 H   0  0  0  0  0  0  0  0  0  0  0  0
   -6.6228   -4.5386  -14.3438 H   0  0  0  0  0  0  0  0  0  0  0  0
   -7.2880   -3.4190  -12.2010 H   0  0  0  0  0  0  0  0  0  0  0  0
  -10.4407   -4.4920  -11.1606 H   0  0  0  0  0  0  0  0  0  0  0  0
  -11.2715   -2.2677  -11.8380 H   0  0  0  0  0  0  0  0  0  0  0  0
  -10.8398   -2.4207  -10.0668 H   0  0  0  0  0  0  0  0  0  0  0  0
   -8.9441   -1.2474   -9.1150 H   0  0  0  0  0  0  0  0  0  0  0  0
   -7.4293    0.7222   -9.2892 H   0  0  0  0  0  0  0  0  0  0  0  0
   -7.2280    1.9590  -11.4447 H   0  0  0  0  0  0  0  0  0  0  0  0
   -8.5519    1.2301  -13.4274 H   0  0  0  0  0  0  0  0  0  0  0  0
  -10.0610   -0.7477  -13.2648 H   0  0  0  0  0  0  0  0  0  0  0  0
   -7.6460   -3.8700  -11.0130 H   0  0  0  0  0  0  0  0  0  0  0  0
   -6.6882   -2.2311   -8.6086 H   0  0  0  0  0  0  0  0  0  0  0  0
   -4.5602   -2.6382   -7.3666 H   0  0  0  0  0  0  0  0  0  0  0  0
   -3.1150   -4.2020   -6.2380 H   0  0  0  0  0  0  0  0  0  0  0  0
   -4.1009   -8.2704   -5.6020 H   0  0  0  0  0  0  0  0  0  0  0  0
   -6.7710   -8.3390   -5.7870 H   0  0  0  0  0  0  0  0  0  0  0  0
   -7.7821   -6.3876   -8.0858 H   0  0  0  0  0  0  0  0  0  0  0  0
   -6.9042   -2.2915  -16.6143 H   0  0  0  0  0  0  0  0  0  0  0  0
   -5.5278   -0.2628  -17.0390 H   0  0  0  0  0  0  0  0  0  0  0  0
   -4.2249    0.7607  -15.1916 H   0  0  0  0  0  0  0  0  0  0  0  0
  1  2  1  0
  2  3  2  0
  3  4  1  0
  4  5  2  0
  5  6  1  0
  6  7  1  0
  7  8  1  0
  8  9  1  0
  9 10  2  0
  9 11  1  0
 11 12  1  0
 12 13  1  0
 13 14  2  0
 14 15  1  0
 15 16  2  0
 16 17  1  0
 17 18  2  0
 11 19  1  0
 19 20  1  0
 20 21  2  0
 20 22  1  0
 22 23  2  0
 23 24  1  0
 24 25  2  0
 25 26  1  0
 26 27  1  0
 27 28  2  0
 27 29  1  0
 29 30  2  0
 30 31  1  0
 30 32  1  0
 32 33  2  0
  6 34  2  0
 34 35  1  0
 35 36  2  0
 36 37  1  0
 37 38  2  0
 38  2  1  0
 37  5  1  0
 18 13  1  0
 33 22  1  0
 32 25  1  0
  1 39  1  0
  1 40  1  0
  3 41  1  0
  4 42  1  0
  7 43  1  0
  7 44  1  0
  8 45  1  0
 11 46  1  1
 12 47  1  0
 12 48  1  0
 14 49  1  0
 15 50  1  0
 16 51  1  0
 17 52  1  0
 18 53  1  0
 19 54  1  0
 23 55  1  0
 24 56  1  0
 26 57  1  0
 29 58  1  0
 31 59  1  0
 33 60  1  0
 34 61  1  0
 35 62  1  0
 36 63  1  0
M  END
>  <meeko>  (7) 
{"is_sidechain": [false], "free_energy": -8.525, "intermolecular_energy": -12.327, "internal_energy": -1.952}

$$$$
4cra_ligand
     RDKit          3D

 63 67  0  0  0  0  0  0  0  0999 V2000
  -15.4850   -3.2690  -11.8470 N   0  0  0  0  0  0  0  0  0  0  0  0
  -14.1870   -3.4990  -11.4000 C   0  0  0  0  0  0  0  0  0  0  0  0
  -13.7930   -3.0830  -10.1430 C   0  0  0  0  0  0  0  0  0  0  0  0
  -12.4940   -3.3560   -9.7300 C   0  0  0  0  0  0  0  0  0  0  0  0
  -11.6050   -4.0510  -10.5740 C   0  0  0  0  0  0  0  0  0  0  0  0
  -10.2660   -4.3870  -10.2250 C   0  0  0  0  0  0  0  0  0  0  0  0
   -9.6760   -4.0580   -8.8720 C   0  0  0  0  0  0  0  0  0  0  0  0
   -8.2340   -4.1210   -8.9260 N   0  0  0  0  0  0  0  0  0  0  0  0
   -7.4280   -3.0440   -8.6530 C   0  0  0  0  0  0  0  0  0  0  0  0
   -7.8690   -1.9270   -8.3720 O   0  0  0  0  0  0  0  0  0  0  0  0
   -5.9110   -3.3180   -8.7240 C   0  0  2  0  0  0  0  0  0  0  0  0
   -5.2750   -3.3590   -7.3240 C   0  0  0  0  0  0  0  0  0  0  0  0
   -4.8840   -4.7460   -6.8710 C   0  0  0  0  0  0  0  0  0  0  0  0
   -3.7360   -4.9460   -6.0950 C   0  0  0  0  0  0  0  0  0  0  0  0
   -3.4010   -6.2230   -5.6430 C   0  0  0  0  0  0  0  0  0  0  0  0
   -4.2040   -7.3140   -5.9730 C   0  0  0  0  0  0  0  0  0  0  0  0
   -5.3380   -7.1290   -6.7610 C   0  0  0  0  0  0  0  0  0  0  0  0
   -5.6770   -5.8520   -7.2110 C   0  0  0  0  0  0  0  0  0  0  0  0
   -5.3290   -2.2430   -9.5310 N   0  0  0  0  0  0  0  0  0  0  0  0
   -5.2510   -2.3320  -10.8990 C   0  0  0  0  0  0  0  0  0  0  0  0
   -5.6130   -3.3230  -11.5240 O   0  0  0  0  0  0  0  0  0  0  0  0
   -4.7230   -1.1430  -11.6240 C   0  0  0  0  0  0  0  0  0  0  0  0
   -4.1020   -0.0780  -10.9600 C   0  0  0  0  0  0  0  0  0  0  0  0
   -3.6310    1.0160  -11.6870 C   0  0  0  0  0  0  0  0  0  0  0  0
   -3.7640    1.0350  -13.0760 C   0  0  0  0  0  0  0  0  0  0  0  0
   -3.3180    2.1570  -13.7870 N   0  0  0  0  0  0  0  0  0  0  0  0
   -3.4320    2.2890  -15.1430 C   0  0  0  0  0  0  0  0  0  0  0  0
   -3.0570    3.2970  -15.7330 O   0  0  0  0  0  0  0  0  0  0  0  0
   -4.0150    1.1490  -15.8780 C   0  0  0  0  0  0  0  0  0  0  0  0
   -4.4290    0.0490  -15.2380 C   0  0  0  0  0  0  0  0  0  0  0  0
   -4.9130   -1.0220  -15.9610 O   0  0  0  0  0  0  0  0  0  0  0  0
   -4.3480   -0.0410  -13.7690 C   0  0  0  0  0  0  0  0  0  0  0  0
   -4.8390   -1.1210  -13.0240 C   0  0  0  0  0  0  0  0  0  0  0  0
   -9.4740   -5.1000  -11.1390 C   0  0  0  0  0  0  0  0  0  0  0  0
   -9.9850   -5.4650  -12.3770 C   0  0  0  0  0  0  0  0  0  0  0  0
  -11.2960   -5.1280  -12.7080 C   0  0  0  0  0  0  0  0  0  0  0  0
  -12.1180   -4.4340  -11.8340 C   0  0  0  0  0  0  0  0  0  0  0  0
  -13.3750   -4.1670  -12.2310 N   0  0  0  0  0  0  0  0  0  0  0  0
  -15.5950   -3.7910  -12.7130 H   0  0  0  0  0  0  0  0  0  0  0  0
  -15.6630   -2.2800  -11.9800 H   0  0  0  0  0  0  0  0  0  0  0  0
  -14.4917   -2.5475   -9.4834 H   0  0  0  0  0  0  0  0  0  0  0  0
  -12.1572   -3.0267   -8.7359 H   0  0  0  0  0  0  0  0  0  0  0  0
   -9.9843   -3.0437   -8.5785 H   0  0  0  0  0  0  0  0  0  0  0  0
  -10.0391   -4.7898   -8.1354 H   0  0  0  0  0  0  0  0  0  0  0  0
   -7.8120   -5.0290   -9.0900 H   0  0  0  0  0  0  0  0  0  0  0  0
   -5.7193   -4.3028   -9.1750 H   0  0  0  0  0  0  0  0  0  0  0  0
   -4.3722   -2.7306   -7.3349 H   0  0  0  0  0  0  0  0  0  0  0  0
   -6.0344   -2.9938   -6.6169 H   0  0  0  0  0  0  0  0  0  0  0  0
   -3.0935   -4.0904   -5.8398 H   0  0  0  0  0  0  0  0  0  0  0  0
   -2.5024   -6.3691   -5.0256 H   0  0  0  0  0  0  0  0  0  0  0  0
   -3.9425   -8.3195   -5.6117 H   0  0  0  0  0  0  0  0  0  0  0  0
   -5.9671   -7.9907   -7.0289 H   0  0  0  0  0  0  0  0  0  0  0  0
   -6.5713   -5.7121   -7.8360 H   0  0  0  0  0  0  0  0  0  0  0  0
   -5.1990   -1.3550   -9.0530 H   0  0  0  0  0  0  0  0  0  0  0  0
   -3.9856   -0.1037   -9.8665 H   0  0  0  0  0  0  0  0  0  0  0  0
   -3.1563    1.8609  -11.1667 H   0  0  0  0  0  0  0  0  0  0  0  0
   -2.9120    2.9460  -13.3040 H   0  0  0  0  0  0  0  0  0  0  0  0
   -4.1109    1.2048  -16.9724 H   0  0  0  0  0  0  0  0  0  0  0  0
   -4.4570   -1.0600  -16.8180 H   0  0  0  0  0  0  0  0  0  0  0  0
   -5.3217   -1.9629  -13.5419 H   0  0  0  0  0  0  0  0  0  0  0  0
   -8.4418   -5.3712  -10.8724 H   0  0  0  0  0  0  0  0  0  0  0  0
   -9.3584   -6.0173  -13.0928 H   0  0  0  0  0  0  0  0  0  0  0  0
  -11.6902   -5.4215  -13.6921 H   0  0  0  0  0  0  0  0  0  0  0  0
  1  2  1  0
  2  3  2  0
  3  4  1  0
  4  5  2  0
  5  6  1  0
  6  7  1  0
  7  8  1  0
  8  9  1  0
  9 10  2  0
  9 11  1  0
 11 12  1  0
 12 13  1  0
 13 14  2  0
 14 15  1  0
 15 16  2  0
 16 17  1  0
 17 18  2  0
 11 19  1  0
 19 20  1  0
 20 21  2  0
 20 22  1  0
 22 23  2  0
 23 24  1  0
 24 25  2  0
 25 26  1  0
 26 27  1  0
 27 28  2  0
 27 29  1  0
 29 30  2  0
 30 31  1  0
 30 32  1  0
 32 33  2  0
  6 34  2  0
 34 35  1  0
 35 36  2  0
 36 37  1  0
 37 38  2  0
 38  2  1  0
 37  5  1  0
 18 13  1  0
 33 22  1  0
 32 25  1  0
  1 39  1  0
  1 40  1  0
  3 41  1  0
  4 42  1  0
  7 43  1  0
  7 44  1  0
  8 45  1  0
 11 46  1  6
 12 47  1  0
 12 48  1  0
 14 49  1  0
 15 50  1  0
 16 51  1  0
 17 52  1  0
 18 53  1  0
 19 54  1  0
 23 55  1  0
 24 56  1  0
 26 57  1  0
 29 58  1  0
 31 59  1  0
 33 60  1  0
 34 61  1  0
 35 62  1  0
 36 63  1  0
M  END
>  <meeko>  (8) 
{"is_sidechain": [false], "free_energy": -8.516, "intermolecular_energy": -13.142, "internal_energy": -1.126}

$$$$
4cra_ligand
     RDKit          3D

 63 67  0  0  0  0  0  0  0  0999 V2000
   -1.4520    2.6050  -13.9110 N   0  0  0  0  0  0  0  0  0  0  0  0
   -2.7230    2.0740  -13.7090 C   0  0  0  0  0  0  0  0  0  0  0  0
   -3.1350    0.9530  -14.4020 C   0  0  0  0  0  0  0  0  0  0  0  0
   -4.4040    0.4450  -14.1490 C   0  0  0  0  0  0  0  0  0  0  0  0
   -5.2460    1.0580  -13.2010 C   0  0  0  0  0  0  0  0  0  0  0  0
   -6.5510    0.5960  -12.8690 C   0  0  0  0  0  0  0  0  0  0  0  0
   -7.1500   -0.6470  -13.4870 C   0  0  0  0  0  0  0  0  0  0  0  0
   -7.8640   -1.4090  -12.4890 N   0  0  0  0  0  0  0  0  0  0  0  0
   -8.8760   -2.2830  -12.7990 C   0  0  0  0  0  0  0  0  0  0  0  0
   -9.2800   -2.4650  -13.9500 O   0  0  0  0  0  0  0  0  0  0  0  0
   -9.4920   -3.0340  -11.5990 C   0  0  2  0  0  0  0  0  0  0  0  0
  -10.6730   -2.2610  -10.9900 C   0  0  0  0  0  0  0  0  0  0  0  0
  -12.0270   -2.8130  -11.3730 C   0  0  0  0  0  0  0  0  0  0  0  0
  -12.1430   -3.7800  -12.3790 C   0  0  0  0  0  0  0  0  0  0  0  0
  -13.3900   -4.3180  -12.7020 C   0  0  0  0  0  0  0  0  0  0  0  0
  -14.5330   -3.8840  -12.0320 C   0  0  0  0  0  0  0  0  0  0  0  0
  -14.4300   -2.9080  -11.0430 C   0  0  0  0  0  0  0  0  0  0  0  0
  -13.1840   -2.3710  -10.7160 C   0  0  0  0  0  0  0  0  0  0  0  0
   -8.4170   -3.2050  -10.6190 N   0  0  0  0  0  0  0  0  0  0  0  0
   -8.3350   -4.3250   -9.8290 C   0  0  0  0  0  0  0  0  0  0  0  0
   -9.1700   -5.2240   -9.8570 O   0  0  0  0  0  0  0  0  0  0  0  0
   -7.1520   -4.4330   -8.9310 C   0  0  0  0  0  0  0  0  0  0  0  0
   -6.3080   -3.3460   -8.6730 C   0  0  0  0  0  0  0  0  0  0  0  0
   -5.2080   -3.5030   -7.8280 C   0  0  0  0  0  0  0  0  0  0  0  0
   -4.9660   -4.7390   -7.2280 C   0  0  0  0  0  0  0  0  0  0  0  0
   -3.8370   -4.8900   -6.4120 N   0  0  0  0  0  0  0  0  0  0  0  0
   -3.4910   -6.0650   -5.8060 C   0  0  0  0  0  0  0  0  0  0  0  0
   -2.4810   -6.1710   -5.1190 O   0  0  0  0  0  0  0  0  0  0  0  0
   -4.4040   -7.2100   -6.0000 C   0  0  0  0  0  0  0  0  0  0  0  0
   -5.5060   -7.0990   -6.7510 C   0  0  0  0  0  0  0  0  0  0  0  0
   -6.3680   -8.1700   -6.8620 O   0  0  0  0  0  0  0  0  0  0  0  0
   -5.8210   -5.8350   -7.4410 C   0  0  0  0  0  0  0  0  0  0  0  0
   -6.9070   -5.6700   -8.3110 C   0  0  0  0  0  0  0  0  0  0  0  0
   -7.2950    1.2760  -11.8910 C   0  0  0  0  0  0  0  0  0  0  0  0
   -6.7710    2.3970  -11.2620 C   0  0  0  0  0  0  0  0  0  0  0  0
   -5.4930    2.8420  -11.5970 C   0  0  0  0  0  0  0  0  0  0  0  0
   -4.7180    2.1960  -12.5480 C   0  0  0  0  0  0  0  0  0  0  0  0
   -3.4900    2.6850  -12.7950 N   0  0  0  0  0  0  0  0  0  0  0  0
   -1.5550    3.3730  -14.5700 H   0  0  0  0  0  0  0  0  0  0  0  0
   -0.8050    1.9020  -14.2510 H   0  0  0  0  0  0  0  0  0  0  0  0
   -2.4736    0.4725  -15.1380 H   0  0  0  0  0  0  0  0  0  0  0  0
   -4.7537   -0.4440  -14.6943 H   0  0  0  0  0  0  0  0  0  0  0  0
   -7.8460   -0.3551  -14.2872 H   0  0  0  0  0  0  0  0  0  0  0  0
   -6.3405   -1.2673  -13.8993 H   0  0  0  0  0  0  0  0  0  0  0  0
   -7.5350   -1.3480  -11.5310 H   0  0  0  0  0  0  0  0  0  0  0  0
   -9.8978   -4.0049  -11.9194 H   0  0  0  0  0  0  0  0  0  0  0  0
  -10.5819   -2.2956   -9.8943 H   0  0  0  0  0  0  0  0  0  0  0  0
  -10.6221   -1.2356  -11.3850 H   0  0  0  0  0  0  0  0  0  0  0  0
  -11.2458   -4.1179  -12.9183 H   0  0  0  0  0  0  0  0  0  0  0  0
  -13.4709   -5.0853  -13.4861 H   0  0  0  0  0  0  0  0  0  0  0  0
  -15.5147   -4.3115  -12.2838 H   0  0  0  0  0  0  0  0  0  0  0  0
  -15.3324   -2.5601  -10.5190 H   0  0  0  0  0  0  0  0  0  0  0  0
  -13.1093   -1.5966   -9.9384 H   0  0  0  0  0  0  0  0  0  0  0  0
   -7.6300   -2.5690  -10.7130 H   0  0  0  0  0  0  0  0  0  0  0  0
   -6.5116   -2.3691   -9.1358 H   0  0  0  0  0  0  0  0  0  0  0  0
   -4.5343   -2.6550   -7.6359 H   0  0  0  0  0  0  0  0  0  0  0  0
   -3.2020   -4.1180   -6.2620 H   0  0  0  0  0  0  0  0  0  0  0  0
   -4.1737   -8.1717   -5.5182 H   0  0  0  0  0  0  0  0  0  0  0  0
   -7.0090   -7.9920   -7.5700 H   0  0  0  0  0  0  0  0  0  0  0  0
   -7.5763   -6.5197   -8.5112 H   0  0  0  0  0  0  0  0  0  0  0  0
   -8.2996    0.9179  -11.6217 H   0  0  0  0  0  0  0  0  0  0  0  0
   -7.3612    2.9315  -10.5031 H   0  0  0  0  0  0  0  0  0  0  0  0
   -5.0878    3.7314  -11.0922 H   0  0  0  0  0  0  0  0  0  0  0  0
  1  2  1  0
  2  3  2  0
  3  4  1  0
  4  5  2  0
  5  6  1  0
  6  7  1  0
  7  8  1  0
  8  9  1  0
  9 10  2  0
  9 11  1  0
 11 12  1  0
 12 13  1  0
 13 14  2  0
 14 15  1  0
 15 16  2  0
 16 17  1  0
 17 18  2  0
 11 19  1  0
 19 20  1  0
 20 21  2  0
 20 22  1  0
 22 23  2  0
 23 24  1  0
 24 25  2  0
 25 26  1  0
 26 27  1  0
 27 28  2  0
 27 29  1  0
 29 30  2  0
 30 31  1  0
 30 32  1  0
 32 33  2  0
  6 34  2  0
 34 35  1  0
 35 36  2  0
 36 37  1  0
 37 38  2  0
 38  2  1  0
 37  5  1  0
 18 13  1  0
 33 22  1  0
 32 25  1  0
  1 39  1  0
  1 40  1  0
  3 41  1  0
  4 42  1  0
  7 43  1  0
  7 44  1  0
  8 45  1  0
 11 46  1  6
 12 47  1  0
 12 48  1  0
 14 49  1  0
 15 50  1  0
 16 51  1  0
 17 52  1  0
 18 53  1  0
 19 54  1  0
 23 55  1  0
 24 56  1  0
 26 57  1  0
 29 58  1  0
 31 59  1  0
 33 60  1  0
 34 61  1  0
 35 62  1  0
 36 63  1  0
M  END
>  <meeko>  (9) 
{"is_sidechain": [false], "free_energy": -8.33, "intermolecular_energy": -12.823, "internal_energy": -1.17}

$$$$
