
     RDKit          3D

 26 25  0  0  0  0  0  0  0  0999 V2000
   -0.8910   -5.1510    4.3430 C   0  0  0  0  0  0  0  0  0  0  0  0
   -1.3980   -3.7390    4.2140 C   0  0  2  0  0  0  0  0  0  0  0  0
   -2.1680   -3.5510    2.8950 C   0  0  0  0  0  0  0  0  0  0  0  0
   -0.2720   -2.7000    4.3190 C   0  0  0  0  0  0  0  0  0  0  0  0
    0.6250   -2.8140    5.5450 C   0  0  1  0  0  0  0  0  0  0  0  0
    1.9980   -3.0760    5.0960 N   0  0  0  0  0  0  0  0  0  0  0  0
    2.7690   -4.0480    5.6410 C   0  0  0  0  0  0  0  0  0  0  0  0
    2.4240   -4.6940    6.5840 O   0  0  0  0  0  0  0  0  0  0  0  0
    4.1190   -4.2330    4.9730 C   0  0  2  0  0  0  0  0  0  0  0  0
    4.3670   -5.6910    4.5770 C   0  0  0  0  0  0  0  0  0  0  0  0
    5.7680   -5.9110    3.9820 C   0  0  0  0  0  0  0  0  0  0  0  0
    6.3120   -5.9960    3.7620 O   0  0  0  0  0  0  0  0  0  0  0  0
    6.2760   -5.9220    3.7510 O   0  0  0  0  0  0  0  0  0  0  0  0
    5.1710   -3.8040    5.8380 N   0  0  0  0  0  0  0  0  0  0  0  0
    5.7040   -2.6100    5.7130 C   0  0  0  0  0  0  0  0  0  0  0  0
    5.3170   -1.8080    4.8840 O   0  0  0  0  0  0  0  0  0  0  0  0
    6.8230   -2.3180    6.6740 C   0  0  1  0  0  0  0  0  0  0  0  0
    8.0760   -2.2190    5.9190 N   0  0  0  0  0  0  0  0  0  0  0  0
    6.5950   -1.0530    7.4690 C   0  0  0  0  0  0  0  0  0  0  0  0
    5.2030   -0.8170    7.9400 C   0  0  0  0  0  0  0  0  0  0  0  0
    4.7240   -1.8380    8.9650 C   0  0  0  0  0  0  0  0  0  0  0  0
    3.6280   -2.3730    8.8100 O   0  0  0  0  0  0  0  0  0  0  0  0
    5.4730   -2.0950    9.9090 O   0  0  0  0  0  0  0  0  0  0  0  0
    0.5550   -1.5730    6.4230 C   0  0  0  0  0  0  0  0  0  0  0  0
   -0.3140   -1.4830    7.3000 O   0  0  0  0  0  0  0  0  0  0  0  0
    1.3890   -0.6880    6.2400 O   0  0  0  0  0  0  0  0  0  0  0  0
  2  1  1  6
  3  2  1  0
  4  2  1  0
  5  4  1  6
  6  5  1  0
  7  6  1  0
  8  7  2  0
  9  7  1  0
  9 10  1  1
 11 10  1  0
 12 11  2  0
 13 11  1  0
 14  9  1  0
 15 14  1  0
 16 15  2  0
 17 15  1  0
 17 18  1  6
 19 17  1  0
 20 19  1  0
 21 20  1  0
 22 21  2  0
 23 21  1  0
 24  5  1  0
 25 24  2  0
 26 24  1  0
M  CHG  4  13  -1  18   1  23  -1  26  -1
M  END
$$$$
