
     RDKit          3D

 27 30  0  0  0  0  0  0  0  0999 V2000
   10.1190   -4.0990   -2.8930 C   0  0  0  0  0  0  0  0  0  0  0  0
    9.6230   -4.4900   -1.5520 C   0  0  0  0  0  0  0  0  0  0  0  0
   10.1850   -4.1100   -0.3480 C   0  0  0  0  0  0  0  0  0  0  0  0
   11.3600   -3.2690   -0.0500 C   0  0  0  0  0  0  0  0  0  0  0  0
   12.0830   -2.5950   -0.9990 C   0  0  0  0  0  0  0  0  0  0  0  0
   13.1690   -1.8370   -0.6230 C   0  0  0  0  0  0  0  0  0  0  0  0
   13.5250   -1.7490    0.6430 N   0  0  0  0  0  0  0  0  0  0  0  0
   12.8010   -2.4040    1.5620 C   0  0  0  0  0  0  0  0  0  0  0  0
   13.1710   -2.2990    2.8600 N   0  0  0  0  0  0  0  0  0  0  0  0
   12.6030   -2.7250    4.0550 C   0  0  0  0  0  0  0  0  0  0  0  0
   11.2970   -3.1890    4.1460 C   0  0  0  0  0  0  0  0  0  0  0  0
   10.7870   -3.5980    5.3930 C   0  0  0  0  0  0  0  0  0  0  0  0
   11.5700   -3.5370    6.5450 C   0  0  0  0  0  0  0  0  0  0  0  0
   11.0600   -3.9090    7.7840 N   0  0  0  0  0  0  0  0  0  0  0  0
   12.0150   -4.5220    8.7230 C   0  0  0  0  0  0  0  0  0  0  0  0
   11.4480   -4.5640   10.1530 C   0  0  0  0  0  0  0  0  0  0  0  0
   10.1370   -5.2280   10.1590 N   0  0  0  0  0  0  0  0  0  0  0  0
    9.1890   -4.4890    9.3160 C   0  0  0  0  0  0  0  0  0  0  0  0
    9.6890   -4.4710    7.8640 C   0  0  0  0  0  0  0  0  0  0  0  0
   12.8720   -3.0690    6.4280 C   0  0  0  0  0  0  0  0  0  0  0  0
   13.3740   -2.6660    5.1900 C   0  0  0  0  0  0  0  0  0  0  0  0
   11.7340   -3.1640    1.2450 N   0  0  0  0  0  0  0  0  0  0  0  0
    9.2740   -4.7990    0.9440 S   0  0  0  0  0  0  0  0  0  0  0  0
    8.1920   -5.5600   -0.1520 C   0  0  0  0  0  0  0  0  0  0  0  0
    7.2850   -6.2400    0.2150 O   0  0  0  0  0  0  0  0  0  0  0  0
    8.5450   -5.2800   -1.4220 N   0  0  0  0  0  0  0  0  0  0  0  0
    7.7970   -5.8050   -2.5710 C   0  0  0  0  0  0  0  0  0  0  0  0
  2  1  1  0
  3  2  2  0
  4  3  1  0
  5  4  2  0
  6  5  1  0
  7  6  2  0
  8  7  1  0
  9  8  1  0
 10  9  1  0
 11 10  2  0
 12 11  1  0
 13 12  2  0
 14 13  1  0
 15 14  1  0
 16 15  1  0
 17 16  1  0
 18 17  1  0
 19 18  1  0
 19 14  1  0
 20 13  1  0
 21 10  1  0
 21 20  2  0
 22  8  2  0
 22  4  1  0
 23  3  1  0
 24 23  1  0
 25 24  2  0
 26 24  1  0
 26  2  1  0
 27 26  1  0
M  CHG  1  17   1
M  END
$$$$
