
     RDKit          3D

 13 14  0  0  0  0  0  0  0  0999 V2000
    3.6730   -9.3100   -9.6070 O   0  0  0  0  0  0  0  0  0  0  0  0
    4.4970   -8.6090   -9.0160 C   0  0  0  0  0  0  0  0  0  0  0  0
    4.0980   -7.9450   -7.8350 C   0  0  0  0  0  0  0  0  0  0  0  0
    4.9620   -7.0850   -7.1830 C   0  0  0  0  0  0  0  0  0  0  0  0
    4.5210   -6.4230   -6.0300 N   0  0  0  0  0  0  0  0  0  0  0  0
    5.0090   -5.2690   -5.4770 C   0  0  0  0  0  0  0  0  0  0  0  0
    5.6200   -4.2740   -6.1260 N   0  0  0  0  0  0  0  0  0  0  0  0
    5.9380   -3.3500   -5.2010 N   0  0  0  0  0  0  0  0  0  0  0  0
    5.5310   -3.7880   -4.0250 N   0  0  0  0  0  0  0  0  0  0  0  0
    4.9480   -4.9610   -4.1850 N   0  0  0  0  0  0  0  0  0  0  0  0
    6.3520   -6.8710   -7.6800 C   0  0  0  0  0  0  0  0  0  0  0  0
    6.8680   -7.9620   -8.5830 C   0  0  0  0  0  0  0  0  0  0  0  0
    5.8680   -8.4510   -9.5760 C   0  0  0  0  0  0  0  0  0  0  0  0
  2  1  2  0
  3  2  1  0
  4  3  2  0
  5  4  1  0
  6  5  1  0
  7  6  2  0
  8  7  1  0
  9  8  2  0
 10  6  1  0
 10  9  1  0
 11  4  1  0
 12 11  1  0
 13  2  1  0
 13 12  1  0
M  CHG  1   1   1
M  END
$$$$
