4ogj_ligand
     RDKit          3D

 74 77  0  0  0  0  0  0  0  0999 V2000
   -1.2640   11.0780    5.4450 C   0  0  0  0  0  0  0  0  0  0  0  0
   -0.0740   10.4020    6.0440 C   0  0  0  0  0  0  0  0  0  0  0  0
    0.3540    9.1850    5.5610 C   0  0  0  0  0  0  0  0  0  0  0  0
    1.4280    8.5230    6.0280 N   0  0  0  0  0  0  0  0  0  0  0  0
    2.1100    9.0990    7.0240 C   0  0  0  0  0  0  0  0  0  0  0  0
    3.2560    8.5170    7.5620 N   0  0  0  0  0  0  0  0  0  0  0  0
    3.8180    8.4870    8.8410 C   0  0  0  0  0  0  0  0  0  0  0  0
    4.8680    9.3120    9.2500 C   0  0  0  0  0  0  0  0  0  0  0  0
    5.3740    9.2690   10.5580 C   0  0  0  0  0  0  0  0  0  0  0  0
    4.8220    8.4010   11.4940 C   0  0  0  0  0  0  0  0  0  0  0  0
    5.1810    8.2800   12.8060 O   0  0  0  0  0  0  0  0  0  0  0  0
    5.7320    7.0460   13.2570 C   0  0  0  0  0  0  0  0  0  0  0  0
    7.2040    6.8610   12.8490 C   0  0  0  0  0  0  0  0  0  0  0  0
    7.4580    5.8670   11.7260 N   0  0  0  0  0  0  0  0  0  0  0  0
    7.9680    6.4310   10.4170 C   0  0  0  0  0  0  0  0  0  0  0  0
    6.8460    6.1630    9.4350 C   0  0  0  0  0  0  0  0  0  0  0  0
    6.3080    4.8240    9.8930 C   0  0  0  0  0  0  0  0  0  0  0  0
    6.2940    4.9410   11.4050 C   0  0  0  0  0  0  0  0  0  0  0  0
    3.7680    7.5740   11.1040 C   0  0  0  0  0  0  0  0  0  0  0  0
    3.2720    7.6190    9.7960 C   0  0  0  0  0  0  0  0  0  0  0  0
    1.7640   10.2740    7.5730 N   0  0  0  0  0  0  0  0  0  0  0  0
    0.6660   10.8990    7.1030 C   0  0  0  0  0  0  0  0  0  0  0  0
    0.3480   12.1100    7.7480 N   0  0  0  0  0  0  0  0  0  0  0  0
    0.7950   13.4000    7.3700 C   0  0  0  0  0  0  0  0  0  0  0  0
   -0.1560   14.4190    7.2200 C   0  0  0  0  0  0  0  0  0  0  0  0
    0.2200   15.7060    6.8230 C   0  0  0  0  0  0  0  0  0  0  0  0
    1.5560   15.9850    6.5440 C   0  0  0  0  0  0  0  0  0  0  0  0
    2.5010   14.9620    6.6410 C   0  0  0  0  0  0  0  0  0  0  0  0
    4.2100   15.2880    6.3120 S   0  0  0  0  0  0  0  0  0  0  0  0
    4.8980   15.2220    7.5840 O   0  0  0  0  0  0  0  0  0  0  0  0
    4.3080   16.4600    5.4720 O   0  0  0  0  0  0  0  0  0  0  0  0
    4.7180   13.9480    5.4590 N   0  0  0  0  0  0  0  0  0  0  0  0
    5.8810   13.0830    5.7310 C   0  0  0  0  0  0  0  0  0  0  0  0
    5.4040   12.0170    6.7360 C   0  0  0  0  0  0  0  0  0  0  0  0
    6.3020   12.3810    4.4360 C   0  0  0  0  0  0  0  0  0  0  0  0
    7.0680   13.8240    6.3480 C   0  0  0  0  0  0  0  0  0  0  0  0
    2.1280   13.6750    7.0490 C   0  0  0  0  0  0  0  0  0  0  0  0
   -1.9176   11.4493    6.2481 H   0  0  0  0  0  0  0  0  0  0  0  0
   -0.9317   11.9222    4.8229 H   0  0  0  0  0  0  0  0  0  0  0  0
   -1.8189   10.3603    4.8229 H   0  0  0  0  0  0  0  0  0  0  0  0
   -0.2185    8.7255    4.7418 H   0  0  0  0  0  0  0  0  0  0  0  0
    3.7940    8.1100    6.8100 H   0  0  0  0  0  0  0  0  0  0  0  0
    5.3100   10.0140    8.5277 H   0  0  0  0  0  0  0  0  0  0  0  0
    6.2101    9.9240   10.8441 H   0  0  0  0  0  0  0  0  0  0  0  0
    5.6654    7.0125   14.3545 H   0  0  0  0  0  0  0  0  0  0  0  0
    5.1554    6.2362   12.7861 H   0  0  0  0  0  0  0  0  0  0  0  0
    7.5912    7.8394   12.5282 H   0  0  0  0  0  0  0  0  0  0  0  0
    7.7106    6.4488   13.7341 H   0  0  0  0  0  0  0  0  0  0  0  0
    8.2040    5.2530   12.0780 H   0  0  0  0  0  0  0  0  0  0  0  0
    8.1595    7.5106   10.5055 H   0  0  0  0  0  0  0  0  0  0  0  0
    8.9194    5.9761   10.1043 H   0  0  0  0  0  0  0  0  0  0  0  0
    6.0721    6.9423    9.4961 H   0  0  0  0  0  0  0  0  0  0  0  0
    7.1777    6.1620    8.3862 H   0  0  0  0  0  0  0  0  0  0  0  0
    5.2934    4.6547    9.5032 H   0  0  0  0  0  0  0  0  0  0  0  0
    6.9124    3.9769    9.5363 H   0  0  0  0  0  0  0  0  0  0  0  0
    5.3448    5.3747   11.7527 H   0  0  0  0  0  0  0  0  0  0  0  0
    6.3877    3.9637   11.9011 H   0  0  0  0  0  0  0  0  0  0  0  0
    3.3225    6.8798   11.8317 H   0  0  0  0  0  0  0  0  0  0  0  0
    2.4378    6.9605    9.5123 H   0  0  0  0  0  0  0  0  0  0  0  0
   -0.6720   12.1270    7.7760 H   0  0  0  0  0  0  0  0  0  0  0  0
   -1.2161   14.2024    7.4180 H   0  0  0  0  0  0  0  0  0  0  0  0
   -0.5385   16.4974    6.7311 H   0  0  0  0  0  0  0  0  0  0  0  0
    1.8628   16.9998    6.2506 H   0  0  0  0  0  0  0  0  0  0  0  0
    4.1800   13.7830    4.6100 H   0  0  0  0  0  0  0  0  0  0  0  0
    5.5668   12.3808    7.7613 H   0  0  0  0  0  0  0  0  0  0  0  0
    4.3325   11.8214    6.5821 H   0  0  0  0  0  0  0  0  0  0  0  0
    5.9721   11.0877    6.5821 H   0  0  0  0  0  0  0  0  0  0  0  0
    6.8536   11.4612    4.6802 H   0  0  0  0  0  0  0  0  0  0  0  0
    5.4071   12.1270    3.8490 H   0  0  0  0  0  0  0  0  0  0  0  0
    6.9476   13.0508    3.8490 H   0  0  0  0  0  0  0  0  0  0  0  0
    6.9977   13.7801    7.4449 H   0  0  0  0  0  0  0  0  0  0  0  0
    8.0057   13.3506    6.0215 H   0  0  0  0  0  0  0  0  0  0  0  0
    7.0545   14.8743    6.0215 H   0  0  0  0  0  0  0  0  0  0  0  0
    2.8847   12.8795    7.1170 H   0  0  0  0  0  0  0  0  0  0  0  0
  1  2  1  0
  2  3  2  0
  3  4  1  0
  4  5  2  0
  5  6  1  0
  6  7  1  0
  7  8  2  0
  8  9  1  0
  9 10  2  0
 10 11  1  0
 11 12  1  0
 12 13  1  0
 13 14  1  0
 14 15  1  0
 15 16  1  0
 16 17  1  0
 17 18  1  0
 10 19  1  0
 19 20  2  0
  5 21  1  0
 21 22  2  0
 22 23  1  0
 23 24  1  0
 24 25  2  0
 25 26  1  0
 26 27  2  0
 27 28  1  0
 28 29  1  0
 29 30  2  0
 29 31  2  0
 29 32  1  0
 32 33  1  0
 33 34  1  0
 33 35  1  0
 33 36  1  0
 28 37  2  0
 22  2  1  0
 37 24  1  0
 20  7  1  0
 18 14  1  0
  1 38  1  0
  1 39  1  0
  1 40  1  0
  3 41  1  0
  6 42  1  0
  8 43  1  0
  9 44  1  0
 12 45  1  0
 12 46  1  0
 13 47  1  0
 13 48  1  0
 14 49  1  0
 15 50  1  0
 15 51  1  0
 16 52  1  0
 16 53  1  0
 17 54  1  0
 17 55  1  0
 18 56  1  0
 18 57  1  0
 19 58  1  0
 20 59  1  0
 23 60  1  0
 25 61  1  0
 26 62  1  0
 27 63  1  0
 32 64  1  0
 34 65  1  0
 34 66  1  0
 34 67  1  0
 35 68  1  0
 35 69  1  0
 35 70  1  0
 36 71  1  0
 36 72  1  0
 36 73  1  0
 37 74  1  0
M  CHG  1  14   1
M  END
>  <meeko>  (1) 
{"is_sidechain": [false], "free_energy": -7.271, "intermolecular_energy": -11.947, "internal_energy": -2.125}

$$$$
4ogj_ligand
     RDKit          3D

 74 77  0  0  0  0  0  0  0  0999 V2000
    3.5770    6.8490    9.8010 C   0  0  0  0  0  0  0  0  0  0  0  0
    4.1800    8.1820    9.5010 C   0  0  0  0  0  0  0  0  0  0  0  0
    5.0980    8.7430   10.3600 C   0  0  0  0  0  0  0  0  0  0  0  0
    5.7030    9.9260   10.1510 N   0  0  0  0  0  0  0  0  0  0  0  0
    5.3810   10.5840    9.0320 C   0  0  0  0  0  0  0  0  0  0  0  0
    5.9700   11.8020    8.7000 N   0  0  0  0  0  0  0  0  0  0  0  0
    5.7160   12.7670    7.7220 C   0  0  0  0  0  0  0  0  0  0  0  0
    5.6540   12.4920    6.3540 C   0  0  0  0  0  0  0  0  0  0  0  0
    5.3590   13.4900    5.4130 C   0  0  0  0  0  0  0  0  0  0  0  0
    5.1020   14.7910    5.8300 C   0  0  0  0  0  0  0  0  0  0  0  0
    4.7630   15.8500    5.0380 O   0  0  0  0  0  0  0  0  0  0  0  0
    3.6890   16.6950    5.4410 C   0  0  0  0  0  0  0  0  0  0  0  0
    2.3920   16.4340    4.6550 C   0  0  0  0  0  0  0  0  0  0  0  0
    1.2420   15.8450    5.4560 N   0  0  0  0  0  0  0  0  0  0  0  0
    0.5010   16.7870    6.3810 C   0  0  0  0  0  0  0  0  0  0  0  0
    0.7970   16.2560    7.7680 C   0  0  0  0  0  0  0  0  0  0  0  0
    0.8260   14.7570    7.5570 C   0  0  0  0  0  0  0  0  0  0  0  0
    1.5800   14.5930    6.2510 C   0  0  0  0  0  0  0  0  0  0  0  0
    5.1540   15.0820    7.1940 C   0  0  0  0  0  0  0  0  0  0  0  0
    5.4540   14.0820    8.1260 C   0  0  0  0  0  0  0  0  0  0  0  0
    4.4870   10.1290    8.1410 N   0  0  0  0  0  0  0  0  0  0  0  0
    3.8750    8.9550    8.3930 C   0  0  0  0  0  0  0  0  0  0  0  0
    2.9270    8.5580    7.4290 N   0  0  0  0  0  0  0  0  0  0  0  0
    1.7790    9.2890    7.0370 C   0  0  0  0  0  0  0  0  0  0  0  0
    1.3960   10.3940    7.8090 C   0  0  0  0  0  0  0  0  0  0  0  0
    0.2570   11.1390    7.4880 C   0  0  0  0  0  0  0  0  0  0  0  0
   -0.5320   10.7710    6.4010 C   0  0  0  0  0  0  0  0  0  0  0  0
   -0.1850    9.6400    5.6590 C   0  0  0  0  0  0  0  0  0  0  0  0
   -1.1560    9.1560    4.2590 S   0  0  0  0  0  0  0  0  0  0  0  0
   -0.2300    8.9370    3.1680 O   0  0  0  0  0  0  0  0  0  0  0  0
   -2.2660   10.0710    4.1220 O   0  0  0  0  0  0  0  0  0  0  0  0
   -1.7280    7.6440    4.6700 N   0  0  0  0  0  0  0  0  0  0  0  0
   -1.4780    6.3610    3.9890 C   0  0  0  0  0  0  0  0  0  0  0  0
   -2.7710    5.5350    4.1300 C   0  0  0  0  0  0  0  0  0  0  0  0
   -1.2230    6.6200    2.5000 C   0  0  0  0  0  0  0  0  0  0  0  0
   -0.3280    5.5570    4.5960 C   0  0  0  0  0  0  0  0  0  0  0  0
    0.9610    8.8990    5.9710 C   0  0  0  0  0  0  0  0  0  0  0  0
    3.5148    6.7115   10.8906 H   0  0  0  0  0  0  0  0  0  0  0  0
    2.5677    6.7970    9.3667 H   0  0  0  0  0  0  0  0  0  0  0  0
    4.2043    6.0567    9.3667 H   0  0  0  0  0  0  0  0  0  0  0  0
    5.3529    8.1886   11.2753 H   0  0  0  0  0  0  0  0  0  0  0  0
    6.7960   11.9250    9.2690 H   0  0  0  0  0  0  0  0  0  0  0  0
    5.8414   11.4658    6.0051 H   0  0  0  0  0  0  0  0  0  0  0  0
    5.3310   13.2422    4.3417 H   0  0  0  0  0  0  0  0  0  0  0  0
    3.4915   16.5255    6.5098 H   0  0  0  0  0  0  0  0  0  0  0  0
    3.9930   17.7328    5.2395 H   0  0  0  0  0  0  0  0  0  0  0  0
    2.0540   17.3920    4.2332 H   0  0  0  0  0  0  0  0  0  0  0  0
    2.6476   15.6781    3.8979 H   0  0  0  0  0  0  0  0  0  0  0  0
    0.5550   15.5430    4.7530 H   0  0  0  0  0  0  0  0  0  0  0  0
    0.8734   17.8161    6.2697 H   0  0  0  0  0  0  0  0  0  0  0  0
   -0.5771   16.8263    6.1664 H   0  0  0  0  0  0  0  0  0  0  0  0
    1.7674   16.6231    8.1336 H   0  0  0  0  0  0  0  0  0  0  0  0
    0.0615   16.5746    8.5213 H   0  0  0  0  0  0  0  0  0  0  0  0
    1.3544   14.2549    8.3809 H   0  0  0  0  0  0  0  0  0  0  0  0
   -0.1790   14.3107    7.5283 H   0  0  0  0  0  0  0  0  0  0  0  0
    2.6630   14.5285    6.4328 H   0  0  0  0  0  0  0  0  0  0  0  0
    1.2999   13.6717    5.7193 H   0  0  0  0  0  0  0  0  0  0  0  0
    4.9572   16.1075    7.5399 H   0  0  0  0  0  0  0  0  0  0  0  0
    5.4846   14.3338    9.1964 H   0  0  0  0  0  0  0  0  0  0  0  0
    3.4770    8.3630    6.5910 H   0  0  0  0  0  0  0  0  0  0  0  0
    2.0013   10.6800    8.6818 H   0  0  0  0  0  0  0  0  0  0  0  0
   -0.0158   12.0156    8.0940 H   0  0  0  0  0  0  0  0  0  0  0  0
   -1.4179   11.3641    6.1301 H   0  0  0  0  0  0  0  0  0  0  0  0
   -2.3880    7.6610    5.4460 H   0  0  0  0  0  0  0  0  0  0  0  0
   -2.9987    5.3895    5.1963 H   0  0  0  0  0  0  0  0  0  0  0  0
   -3.6022    6.0698    3.6472 H   0  0  0  0  0  0  0  0  0  0  0  0
   -2.6352    4.5560    3.6472 H   0  0  0  0  0  0  0  0  0  0  0  0
   -0.4551    7.3999    2.3897 H   0  0  0  0  0  0  0  0  0  0  0  0
   -0.8754    5.6929    2.0208 H   0  0  0  0  0  0  0  0  0  0  0  0
   -2.1554    6.9531    2.0208 H   0  0  0  0  0  0  0  0  0  0  0  0
   -0.3897    5.6001    5.6934 H   0  0  0  0  0  0  0  0  0  0  0  0
   -0.3981    4.5101    4.2657 H   0  0  0  0  0  0  0  0  0  0  0  0
    0.6312    5.9823    4.2657 H   0  0  0  0  0  0  0  0  0  0  0  0
    1.2186    8.0094    5.3776 H   0  0  0  0  0  0  0  0  0  0  0  0
  1  2  1  0
  2  3  2  0
  3  4  1  0
  4  5  2  0
  5  6  1  0
  6  7  1  0
  7  8  2  0
  8  9  1  0
  9 10  2  0
 10 11  1  0
 11 12  1  0
 12 13  1  0
 13 14  1  0
 14 15  1  0
 15 16  1  0
 16 17  1  0
 17 18  1  0
 10 19  1  0
 19 20  2  0
  5 21  1  0
 21 22  2  0
 22 23  1  0
 23 24  1  0
 24 25  2  0
 25 26  1  0
 26 27  2  0
 27 28  1  0
 28 29  1  0
 29 30  2  0
 29 31  2  0
 29 32  1  0
 32 33  1  0
 33 34  1  0
 33 35  1  0
 33 36  1  0
 28 37  2  0
 22  2  1  0
 37 24  1  0
 20  7  1  0
 18 14  1  0
  1 38  1  0
  1 39  1  0
  1 40  1  0
  3 41  1  0
  6 42  1  0
  8 43  1  0
  9 44  1  0
 12 45  1  0
 12 46  1  0
 13 47  1  0
 13 48  1  0
 14 49  1  0
 15 50  1  0
 15 51  1  0
 16 52  1  0
 16 53  1  0
 17 54  1  0
 17 55  1  0
 18 56  1  0
 18 57  1  0
 19 58  1  0
 20 59  1  0
 23 60  1  0
 25 61  1  0
 26 62  1  0
 27 63  1  0
 32 64  1  0
 34 65  1  0
 34 66  1  0
 34 67  1  0
 35 68  1  0
 35 69  1  0
 35 70  1  0
 36 71  1  0
 36 72  1  0
 36 73  1  0
 37 74  1  0
M  CHG  1  14   1
M  END
>  <meeko>  (2) 
{"is_sidechain": [false], "free_energy": -7.204, "intermolecular_energy": -13.055, "internal_energy": -0.907}

$$$$
4ogj_ligand
     RDKit          3D

 74 77  0  0  0  0  0  0  0  0999 V2000
    0.4800    7.2180    4.4460 C   0  0  0  0  0  0  0  0  0  0  0  0
    0.2540    8.5510    5.0800 C   0  0  0  0  0  0  0  0  0  0  0  0
   -0.7950    9.3470    4.6780 C   0  0  0  0  0  0  0  0  0  0  0  0
   -1.0800   10.5480    5.2130 N   0  0  0  0  0  0  0  0  0  0  0  0
   -0.2840   10.9790    6.1980 C   0  0  0  0  0  0  0  0  0  0  0  0
   -0.5070   12.1920    6.8450 N   0  0  0  0  0  0  0  0  0  0  0  0
    0.3320   13.1640    7.3960 C   0  0  0  0  0  0  0  0  0  0  0  0
    1.4590   12.8730    8.1690 C   0  0  0  0  0  0  0  0  0  0  0  0
    2.2920   13.8840    8.6710 C   0  0  0  0  0  0  0  0  0  0  0  0
    2.0170   15.2190    8.3920 C   0  0  0  0  0  0  0  0  0  0  0  0
    2.7560   16.3010    8.7750 O   0  0  0  0  0  0  0  0  0  0  0  0
    4.1620   16.1470    8.9520 C   0  0  0  0  0  0  0  0  0  0  0  0
    4.9850   16.8350    7.8480 C   0  0  0  0  0  0  0  0  0  0  0  0
    5.3100   15.9760    6.6370 N   0  0  0  0  0  0  0  0  0  0  0  0
    4.3550   16.0580    5.4650 C   0  0  0  0  0  0  0  0  0  0  0  0
    3.7440   14.6740    5.3860 C   0  0  0  0  0  0  0  0  0  0  0  0
    4.8970   13.7730    5.7730 C   0  0  0  0  0  0  0  0  0  0  0  0
    5.5500   14.5030    6.9310 C   0  0  0  0  0  0  0  0  0  0  0  0
    0.8990   15.5280    7.6170 C   0  0  0  0  0  0  0  0  0  0  0  0
    0.0710   14.5130    7.1240 C   0  0  0  0  0  0  0  0  0  0  0  0
    0.7720   10.2840    6.6500 N   0  0  0  0  0  0  0  0  0  0  0  0
    1.0500    9.0980    6.0730 C   0  0  0  0  0  0  0  0  0  0  0  0
    2.1900    8.4430    6.5780 N   0  0  0  0  0  0  0  0  0  0  0  0
    3.1300    8.9850    7.4890 C   0  0  0  0  0  0  0  0  0  0  0  0
    3.8090   10.1570    7.1280 C   0  0  0  0  0  0  0  0  0  0  0  0
    4.7670   10.7250    7.9730 C   0  0  0  0  0  0  0  0  0  0  0  0
    5.0790   10.1120    9.1830 C   0  0  0  0  0  0  0  0  0  0  0  0
    4.4450    8.9160    9.5250 C   0  0  0  0  0  0  0  0  0  0  0  0
    4.8040    8.1200   11.0660 S   0  0  0  0  0  0  0  0  0  0  0  0
    3.6680    7.2780   11.3730 O   0  0  0  0  0  0  0  0  0  0  0  0
    5.2720    9.1130   12.0050 O   0  0  0  0  0  0  0  0  0  0  0  0
    6.0490    7.0730   10.6970 N   0  0  0  0  0  0  0  0  0  0  0  0
    5.9720    5.6250   10.4320 C   0  0  0  0  0  0  0  0  0  0  0  0
    7.3990    5.1730   10.0690 C   0  0  0  0  0  0  0  0  0  0  0  0
    5.5400    4.9000   11.7110 C   0  0  0  0  0  0  0  0  0  0  0  0
    5.0450    5.2600    9.2720 C   0  0  0  0  0  0  0  0  0  0  0  0
    3.4760    8.3510    8.6860 C   0  0  0  0  0  0  0  0  0  0  0  0
    0.6091    6.4566    5.2293 H   0  0  0  0  0  0  0  0  0  0  0  0
   -0.3868    6.9576    3.8208 H   0  0  0  0  0  0  0  0  0  0  0  0
    1.3842    7.2579    3.8208 H   0  0  0  0  0  0  0  0  0  0  0  0
   -1.4410    8.9775    3.8680 H   0  0  0  0  0  0  0  0  0  0  0  0
   -1.5010   12.3050    6.9840 H   0  0  0  0  0  0  0  0  0  0  0  0
    1.6996   11.8226    8.3899 H   0  0  0  0  0  0  0  0  0  0  0  0
    3.1647   13.6206    9.2867 H   0  0  0  0  0  0  0  0  0  0  0  0
    4.4432   16.5827    9.9221 H   0  0  0  0  0  0  0  0  0  0  0  0
    4.3839   15.0706    8.9061 H   0  0  0  0  0  0  0  0  0  0  0  0
    4.4176   17.7104    7.4991 H   0  0  0  0  0  0  0  0  0  0  0  0
    5.9529   17.0852    8.3070 H   0  0  0  0  0  0  0  0  0  0  0  0
    6.2110   16.3340    6.2910 H   0  0  0  0  0  0  0  0  0  0  0  0
    3.5796   16.8170    5.6459 H   0  0  0  0  0  0  0  0  0  0  0  0
    4.8578   16.3505    4.5314 H   0  0  0  0  0  0  0  0  0  0  0  0
    2.9065   14.5702    6.0916 H   0  0  0  0  0  0  0  0  0  0  0  0
    3.3233   14.4406    4.3968 H   0  0  0  0  0  0  0  0  0  0  0  0
    4.5333   12.7837    6.0878 H   0  0  0  0  0  0  0  0  0  0  0  0
    5.5911   13.5871    4.9402 H   0  0  0  0  0  0  0  0  0  0  0  0
    5.0829   14.2158    7.8846 H   0  0  0  0  0  0  0  0  0  0  0  0
    6.6196   14.2644    7.0259 H   0  0  0  0  0  0  0  0  0  0  0  0
    0.6660   16.5791    7.3913 H   0  0  0  0  0  0  0  0  0  0  0  0
   -0.8022   14.7800    6.5106 H   0  0  0  0  0  0  0  0  0  0  0  0
    1.8320    7.5730    6.9760 H   0  0  0  0  0  0  0  0  0  0  0  0
    3.5844   10.6375    6.1643 H   0  0  0  0  0  0  0  0  0  0  0  0
    5.2743   11.6565    7.6815 H   0  0  0  0  0  0  0  0  0  0  0  0
    5.8166   10.5646    9.8620 H   0  0  0  0  0  0  0  0  0  0  0  0
    6.9690    7.5090   10.7440 H   0  0  0  0  0  0  0  0  0  0  0  0
    7.9717    4.9916   10.9905 H   0  0  0  0  0  0  0  0  0  0  0  0
    7.3510    4.2461    9.4786 H   0  0  0  0  0  0  0  0  0  0  0  0
    7.8934    5.9585    9.4786 H   0  0  0  0  0  0  0  0  0  0  0  0
    5.8797    5.4701   12.5882 H   0  0  0  0  0  0  0  0  0  0  0  0
    4.4435    4.8144   11.7315 H   0  0  0  0  0  0  0  0  0  0  0  0
    5.9866    3.8950   11.7315 H   0  0  0  0  0  0  0  0  0  0  0  0
    4.0907    4.8842    9.6696 H   0  0  0  0  0  0  0  0  0  0  0  0
    4.8597    6.1523    8.6560 H   0  0  0  0  0  0  0  0  0  0  0  0
    5.5178    4.4809    8.6560 H   0  0  0  0  0  0  0  0  0  0  0  0
    2.9867    7.4074    8.9693 H   0  0  0  0  0  0  0  0  0  0  0  0
  1  2  1  0
  2  3  2  0
  3  4  1  0
  4  5  2  0
  5  6  1  0
  6  7  1  0
  7  8  2  0
  8  9  1  0
  9 10  2  0
 10 11  1  0
 11 12  1  0
 12 13  1  0
 13 14  1  0
 14 15  1  0
 15 16  1  0
 16 17  1  0
 17 18  1  0
 10 19  1  0
 19 20  2  0
  5 21  1  0
 21 22  2  0
 22 23  1  0
 23 24  1  0
 24 25  2  0
 25 26  1  0
 26 27  2  0
 27 28  1  0
 28 29  1  0
 29 30  2  0
 29 31  2  0
 29 32  1  0
 32 33  1  0
 33 34  1  0
 33 35  1  0
 33 36  1  0
 28 37  2  0
 22  2  1  0
 37 24  1  0
 20  7  1  0
 18 14  1  0
  1 38  1  0
  1 39  1  0
  1 40  1  0
  3 41  1  0
  6 42  1  0
  8 43  1  0
  9 44  1  0
 12 45  1  0
 12 46  1  0
 13 47  1  0
 13 48  1  0
 14 49  1  0
 15 50  1  0
 15 51  1  0
 16 52  1  0
 16 53  1  0
 17 54  1  0
 17 55  1  0
 18 56  1  0
 18 57  1  0
 19 58  1  0
 20 59  1  0
 23 60  1  0
 25 61  1  0
 26 62  1  0
 27 63  1  0
 32 64  1  0
 34 65  1  0
 34 66  1  0
 34 67  1  0
 35 68  1  0
 35 69  1  0
 35 70  1  0
 36 71  1  0
 36 72  1  0
 36 73  1  0
 37 74  1  0
M  CHG  1  14   1
M  END
>  <meeko>  (3) 
{"is_sidechain": [false], "free_energy": -7.189, "intermolecular_energy": -12.194, "internal_energy": -1.743}

$$$$
4ogj_ligand
     RDKit          3D

 74 77  0  0  0  0  0  0  0  0999 V2000
    8.6100   14.1180    7.3070 C   0  0  0  0  0  0  0  0  0  0  0  0
    7.1810   13.9290    7.6990 C   0  0  0  0  0  0  0  0  0  0  0  0
    6.1680   14.3920    6.8890 C   0  0  0  0  0  0  0  0  0  0  0  0
    4.8590   14.2420    7.1580 N   0  0  0  0  0  0  0  0  0  0  0  0
    4.5400   13.6000    8.2870 C   0  0  0  0  0  0  0  0  0  0  0  0
    3.2160   13.3600    8.6470 N   0  0  0  0  0  0  0  0  0  0  0  0
    2.0900   12.9080    7.9530 C   0  0  0  0  0  0  0  0  0  0  0  0
    1.1080   13.7510    7.4260 C   0  0  0  0  0  0  0  0  0  0  0  0
    0.0140   13.2490    6.7060 C   0  0  0  0  0  0  0  0  0  0  0  0
   -0.1100   11.8810    6.4840 C   0  0  0  0  0  0  0  0  0  0  0  0
   -1.0930   11.2560    5.7710 O   0  0  0  0  0  0  0  0  0  0  0  0
   -0.9700    9.8620    5.5070 C   0  0  0  0  0  0  0  0  0  0  0  0
   -0.8350    9.5440    4.0070 C   0  0  0  0  0  0  0  0  0  0  0  0
   -0.1810    8.2140    3.6710 N   0  0  0  0  0  0  0  0  0  0  0  0
   -1.0950    7.1070    3.1890 C   0  0  0  0  0  0  0  0  0  0  0  0
   -1.0140    6.0570    4.2770 C   0  0  0  0  0  0  0  0  0  0  0  0
    0.4310    6.1420    4.7230 C   0  0  0  0  0  0  0  0  0  0  0  0
    0.7060    7.6330    4.7620 C   0  0  0  0  0  0  0  0  0  0  0  0
    0.8640   11.0260    6.9990 C   0  0  0  0  0  0  0  0  0  0  0  0
    1.9500   11.5330    7.7210 C   0  0  0  0  0  0  0  0  0  0  0  0
    5.4530   13.1250    9.1480 N   0  0  0  0  0  0  0  0  0  0  0  0
    6.7570   13.3170    8.8670 C   0  0  0  0  0  0  0  0  0  0  0  0
    7.6550   12.8200    9.8320 N   0  0  0  0  0  0  0  0  0  0  0  0
    7.3360   11.9340   10.8900 C   0  0  0  0  0  0  0  0  0  0  0  0
    7.3830   12.4200   12.2040 C   0  0  0  0  0  0  0  0  0  0  0  0
    7.1060   11.5870   13.2920 C   0  0  0  0  0  0  0  0  0  0  0  0
    6.8020   10.2440   13.0810 C   0  0  0  0  0  0  0  0  0  0  0  0
    6.8050    9.7410   11.7780 C   0  0  0  0  0  0  0  0  0  0  0  0
    6.4040    8.0430   11.4730 S   0  0  0  0  0  0  0  0  0  0  0  0
    6.2530    7.4130   12.7680 O   0  0  0  0  0  0  0  0  0  0  0  0
    7.3230    7.5170   10.4910 O   0  0  0  0  0  0  0  0  0  0  0  0
    4.8690    8.1040   10.8240 N   0  0  0  0  0  0  0  0  0  0  0  0
    4.4080    7.5770    9.5260 C   0  0  0  0  0  0  0  0  0  0  0  0
    2.8720    7.6960    9.5300 C   0  0  0  0  0  0  0  0  0  0  0  0
    4.9640    8.4550    8.3990 C   0  0  0  0  0  0  0  0  0  0  0  0
    4.7740    6.1120    9.2930 C   0  0  0  0  0  0  0  0  0  0  0  0
    7.0710   10.5760   10.6860 C   0  0  0  0  0  0  0  0  0  0  0  0
    9.2306   14.2001    8.2115 H   0  0  0  0  0  0  0  0  0  0  0  0
    8.9436   13.2562    6.7104 H   0  0  0  0  0  0  0  0  0  0  0  0
    8.7081   15.0369    6.7104 H   0  0  0  0  0  0  0  0  0  0  0  0
    6.4472   14.9175    5.9639 H   0  0  0  0  0  0  0  0  0  0  0  0
    3.0800   13.6690    9.5990 H   0  0  0  0  0  0  0  0  0  0  0  0
    1.1953   14.8367    7.5799 H   0  0  0  0  0  0  0  0  0  0  0  0
   -0.7485   13.9391    6.3155 H   0  0  0  0  0  0  0  0  0  0  0  0
   -0.0775    9.4840    6.0272 H   0  0  0  0  0  0  0  0  0  0  0  0
   -1.8900    9.3767    5.8649 H   0  0  0  0  0  0  0  0  0  0  0  0
   -1.8442    9.5443    3.5694 H   0  0  0  0  0  0  0  0  0  0  0  0
   -0.1698   10.3174    3.5955 H   0  0  0  0  0  0  0  0  0  0  0  0
    0.4520    8.4190    2.8860 H   0  0  0  0  0  0  0  0  0  0  0  0
   -2.1260    7.4736    3.0769 H   0  0  0  0  0  0  0  0  0  0  0  0
   -0.7998    6.7162    2.2040 H   0  0  0  0  0  0  0  0  0  0  0  0
   -1.6983    6.2921    5.1055 H   0  0  0  0  0  0  0  0  0  0  0  0
   -1.3042    5.0530    3.9340 H   0  0  0  0  0  0  0  0  0  0  0  0
    0.5617    5.6925    5.7184 H   0  0  0  0  0  0  0  0  0  0  0  0
    1.1165    5.5986    4.0560 H   0  0  0  0  0  0  0  0  0  0  0  0
    0.4394    8.0518    5.7436 H   0  0  0  0  0  0  0  0  0  0  0  0
    1.7694    7.8659    4.6040 H   0  0  0  0  0  0  0  0  0  0  0  0
    0.7776    9.9416    6.8359 H   0  0  0  0  0  0  0  0  0  0  0  0
    2.7080   10.8394    8.1138 H   0  0  0  0  0  0  0  0  0  0  0  0
    8.4120   12.4030    9.2890 H   0  0  0  0  0  0  0  0  0  0  0  0
    7.6421   13.4741   12.3819 H   0  0  0  0  0  0  0  0  0  0  0  0
    7.1281   11.9920   14.3145 H   0  0  0  0  0  0  0  0  0  0  0  0
    6.5624    9.5875   13.9305 H   0  0  0  0  0  0  0  0  0  0  0  0
    4.2140    8.6440   11.3870 H   0  0  0  0  0  0  0  0  0  0  0  0
    2.5091    7.7241   10.5680 H   0  0  0  0  0  0  0  0  0  0  0  0
    2.5745    8.6199    9.0124 H   0  0  0  0  0  0  0  0  0  0  0  0
    2.4357    6.8290    9.0124 H   0  0  0  0  0  0  0  0  0  0  0  0
    5.5049    9.3091    8.8325 H   0  0  0  0  0  0  0  0  0  0  0  0
    5.6518    7.8624    7.7779 H   0  0  0  0  0  0  0  0  0  0  0  0
    4.1342    8.8235    7.7779 H   0  0  0  0  0  0  0  0  0  0  0  0
    4.9002    5.6070   10.2620 H   0  0  0  0  0  0  0  0  0  0  0  0
    3.9713    5.6195    8.7246 H   0  0  0  0  0  0  0  0  0  0  0  0
    5.7140    6.0548    8.7246 H   0  0  0  0  0  0  0  0  0  0  0  0
    7.0716   10.1634    9.6663 H   0  0  0  0  0  0  0  0  0  0  0  0
  1  2  1  0
  2  3  2  0
  3  4  1  0
  4  5  2  0
  5  6  1  0
  6  7  1  0
  7  8  2  0
  8  9  1  0
  9 10  2  0
 10 11  1  0
 11 12  1  0
 12 13  1  0
 13 14  1  0
 14 15  1  0
 15 16  1  0
 16 17  1  0
 17 18  1  0
 10 19  1  0
 19 20  2  0
  5 21  1  0
 21 22  2  0
 22 23  1  0
 23 24  1  0
 24 25  2  0
 25 26  1  0
 26 27  2  0
 27 28  1  0
 28 29  1  0
 29 30  2  0
 29 31  2  0
 29 32  1  0
 32 33  1  0
 33 34  1  0
 33 35  1  0
 33 36  1  0
 28 37  2  0
 22  2  1  0
 37 24  1  0
 20  7  1  0
 18 14  1  0
  1 38  1  0
  1 39  1  0
  1 40  1  0
  3 41  1  0
  6 42  1  0
  8 43  1  0
  9 44  1  0
 12 45  1  0
 12 46  1  0
 13 47  1  0
 13 48  1  0
 14 49  1  0
 15 50  1  0
 15 51  1  0
 16 52  1  0
 16 53  1  0
 17 54  1  0
 17 55  1  0
 18 56  1  0
 18 57  1  0
 19 58  1  0
 20 59  1  0
 23 60  1  0
 25 61  1  0
 26 62  1  0
 27 63  1  0
 32 64  1  0
 34 65  1  0
 34 66  1  0
 34 67  1  0
 35 68  1  0
 35 69  1  0
 35 70  1  0
 36 71  1  0
 36 72  1  0
 36 73  1  0
 37 74  1  0
M  CHG  1  14   1
M  END
>  <meeko>  (4) 
{"is_sidechain": [false], "free_energy": -7.036, "intermolecular_energy": -12.121, "internal_energy": -1.565}

$$$$
4ogj_ligand
     RDKit          3D

 74 77  0  0  0  0  0  0  0  0999 V2000
   -1.3570   11.4200    5.5960 C   0  0  0  0  0  0  0  0  0  0  0  0
   -0.1760   10.6780    6.1290 C   0  0  0  0  0  0  0  0  0  0  0  0
    0.0830    9.3890    5.7180 C   0  0  0  0  0  0  0  0  0  0  0  0
    1.1360    8.6610    6.1320 N   0  0  0  0  0  0  0  0  0  0  0  0
    1.9740    9.2440    6.9970 C   0  0  0  0  0  0  0  0  0  0  0  0
    3.1130    8.5940    7.4660 N   0  0  0  0  0  0  0  0  0  0  0  0
    3.6950    8.4480    8.7280 C   0  0  0  0  0  0  0  0  0  0  0  0
    4.7920    9.1920    9.1710 C   0  0  0  0  0  0  0  0  0  0  0  0
    5.3170    9.0340   10.4630 C   0  0  0  0  0  0  0  0  0  0  0  0
    4.7380    8.1310   11.3480 C   0  0  0  0  0  0  0  0  0  0  0  0
    5.1140    7.9020   12.6410 O   0  0  0  0  0  0  0  0  0  0  0  0
    6.4940    7.7030   12.9310 C   0  0  0  0  0  0  0  0  0  0  0  0
    6.8390    6.2320   13.2280 C   0  0  0  0  0  0  0  0  0  0  0  0
    7.3120    5.4130   12.0370 N   0  0  0  0  0  0  0  0  0  0  0  0
    8.2010    6.1180   11.0340 C   0  0  0  0  0  0  0  0  0  0  0  0
    7.3730    6.1570    9.7660 C   0  0  0  0  0  0  0  0  0  0  0  0
    6.6300    4.8380    9.8070 C   0  0  0  0  0  0  0  0  0  0  0  0
    6.2140    4.7050   11.2590 C   0  0  0  0  0  0  0  0  0  0  0  0
    3.6390    7.3850   10.9240 C   0  0  0  0  0  0  0  0  0  0  0  0
    3.1240    7.5440    9.6320 C   0  0  0  0  0  0  0  0  0  0  0  0
    1.8000   10.4880    7.4680 N   0  0  0  0  0  0  0  0  0  0  0  0
    0.7190   11.1810    7.0580 C   0  0  0  0  0  0  0  0  0  0  0  0
    0.5870   12.4660    7.6190 N   0  0  0  0  0  0  0  0  0  0  0  0
    1.0060   13.6830    7.0270 C   0  0  0  0  0  0  0  0  0  0  0  0
    2.1780   13.6810    6.2580 C   0  0  0  0  0  0  0  0  0  0  0  0
    2.6580   14.8560    5.6700 C   0  0  0  0  0  0  0  0  0  0  0  0
    1.9830   16.0580    5.8670 C   0  0  0  0  0  0  0  0  0  0  0  0
    0.8450   16.0760    6.6750 C   0  0  0  0  0  0  0  0  0  0  0  0
   -0.0480   17.5850    6.9300 S   0  0  0  0  0  0  0  0  0  0  0  0
    0.5330   18.5670    6.0390 O   0  0  0  0  0  0  0  0  0  0  0  0
   -0.1470   17.8330    8.3500 O   0  0  0  0  0  0  0  0  0  0  0  0
   -1.5640   17.2640    6.3150 N   0  0  0  0  0  0  0  0  0  0  0  0
   -2.6590   18.2150    6.0490 C   0  0  0  0  0  0  0  0  0  0  0  0
   -2.7240   18.3870    4.5200 C   0  0  0  0  0  0  0  0  0  0  0  0
   -3.9820   17.6080    6.5290 C   0  0  0  0  0  0  0  0  0  0  0  0
   -2.4430   19.5920    6.6770 C   0  0  0  0  0  0  0  0  0  0  0  0
    0.3560   14.9000    7.2550 C   0  0  0  0  0  0  0  0  0  0  0  0
   -1.9605   11.7992    6.4339 H   0  0  0  0  0  0  0  0  0  0  0  0
   -1.0125   12.2642    4.9807 H   0  0  0  0  0  0  0  0  0  0  0  0
   -1.9681   10.7432    4.9807 H   0  0  0  0  0  0  0  0  0  0  0  0
   -0.6156    8.9253    5.0060 H   0  0  0  0  0  0  0  0  0  0  0  0
    3.6290    8.2360    6.6740 H   0  0  0  0  0  0  0  0  0  0  0  0
    5.2559    9.9202    8.4895 H   0  0  0  0  0  0  0  0  0  0  0  0
    6.1892    9.6263   10.7766 H   0  0  0  0  0  0  0  0  0  0  0  0
    7.0857    8.0341   12.0649 H   0  0  0  0  0  0  0  0  0  0  0  0
    6.7283    8.2854   13.8343 H   0  0  0  0  0  0  0  0  0  0  0  0
    7.6361    6.2180   13.9859 H   0  0  0  0  0  0  0  0  0  0  0  0
    5.9002    5.7646   13.5599 H   0  0  0  0  0  0  0  0  0  0  0  0
    7.8860    4.6620   12.4430 H   0  0  0  0  0  0  0  0  0  0  0  0
    8.4418    7.1360   11.3741 H   0  0  0  0  0  0  0  0  0  0  0  0
    9.1644    5.6064   10.8924 H   0  0  0  0  0  0  0  0  0  0  0  0
    6.6735    7.0058    9.7760 H   0  0  0  0  0  0  0  0  0  0  0  0
    7.9773    6.2873    8.8562 H   0  0  0  0  0  0  0  0  0  0  0  0
    5.7500    4.8628    9.1475 H   0  0  0  0  0  0  0  0  0  0  0  0
    7.2424    3.9927    9.4598 H   0  0  0  0  0  0  0  0  0  0  0  0
    5.2416    5.1897   11.4307 H   0  0  0  0  0  0  0  0  0  0  0  0
    6.0952    3.6552   11.5652 H   0  0  0  0  0  0  0  0  0  0  0  0
    3.1720    6.6644   11.6115 H   0  0  0  0  0  0  0  0  0  0  0  0
    2.2539    6.9472    9.3210 H   0  0  0  0  0  0  0  0  0  0  0  0
   -0.4060   12.5500    7.8400 H   0  0  0  0  0  0  0  0  0  0  0  0
    2.7293   12.7400    6.1146 H   0  0  0  0  0  0  0  0  0  0  0  0
    3.5680   14.8305    5.0525 H   0  0  0  0  0  0  0  0  0  0  0  0
    2.3424   16.9825    5.3914 H   0  0  0  0  0  0  0  0  0  0  0  0
   -1.7460   16.2690    6.1910 H   0  0  0  0  0  0  0  0  0  0  0  0
   -3.1035   19.3911    4.2798 H   0  0  0  0  0  0  0  0  0  0  0  0
   -1.7173   18.2639    4.0940 H   0  0  0  0  0  0  0  0  0  0  0  0
   -3.3976   17.6289    4.0940 H   0  0  0  0  0  0  0  0  0  0  0  0
   -4.0033   17.5982    7.6288 H   0  0  0  0  0  0  0  0  0  0  0  0
   -4.8206   18.2114    6.1514 H   0  0  0  0  0  0  0  0  0  0  0  0
   -4.0716   16.5787    6.1514 H   0  0  0  0  0  0  0  0  0  0  0  0
   -2.4572   19.5014    7.7732 H   0  0  0  0  0  0  0  0  0  0  0  0
   -1.4709   19.9935    6.3548 H   0  0  0  0  0  0  0  0  0  0  0  0
   -3.2455   20.2719    6.3548 H   0  0  0  0  0  0  0  0  0  0  0  0
   -0.5408   14.9330    7.8911 H   0  0  0  0  0  0  0  0  0  0  0  0
  1  2  1  0
  2  3  2  0
  3  4  1  0
  4  5  2  0
  5  6  1  0
  6  7  1  0
  7  8  2  0
  8  9  1  0
  9 10  2  0
 10 11  1  0
 11 12  1  0
 12 13  1  0
 13 14  1  0
 14 15  1  0
 15 16  1  0
 16 17  1  0
 17 18  1  0
 10 19  1  0
 19 20  2  0
  5 21  1  0
 21 22  2  0
 22 23  1  0
 23 24  1  0
 24 25  2  0
 25 26  1  0
 26 27  2  0
 27 28  1  0
 28 29  1  0
 29 30  2  0
 29 31  2  0
 29 32  1  0
 32 33  1  0
 33 34  1  0
 33 35  1  0
 33 36  1  0
 28 37  2  0
 22  2  1  0
 37 24  1  0
 20  7  1  0
 18 14  1  0
  1 38  1  0
  1 39  1  0
  1 40  1  0
  3 41  1  0
  6 42  1  0
  8 43  1  0
  9 44  1  0
 12 45  1  0
 12 46  1  0
 13 47  1  0
 13 48  1  0
 14 49  1  0
 15 50  1  0
 15 51  1  0
 16 52  1  0
 16 53  1  0
 17 54  1  0
 17 55  1  0
 18 56  1  0
 18 57  1  0
 19 58  1  0
 20 59  1  0
 23 60  1  0
 25 61  1  0
 26 62  1  0
 27 63  1  0
 32 64  1  0
 34 65  1  0
 34 66  1  0
 34 67  1  0
 35 68  1  0
 35 69  1  0
 35 70  1  0
 36 71  1  0
 36 72  1  0
 36 73  1  0
 37 74  1  0
M  CHG  1  14   1
M  END
>  <meeko>  (5) 
{"is_sidechain": [false], "free_energy": -6.837, "intermolecular_energy": -11.663, "internal_energy": -1.696}

$$$$
4ogj_ligand
     RDKit          3D

 74 77  0  0  0  0  0  0  0  0999 V2000
   -1.4030   11.0370    5.3870 C   0  0  0  0  0  0  0  0  0  0  0  0
   -0.1800   10.4030    5.9650 C   0  0  0  0  0  0  0  0  0  0  0  0
    0.2040    9.1400    5.5720 C   0  0  0  0  0  0  0  0  0  0  0  0
    1.3020    8.5100    6.0260 N   0  0  0  0  0  0  0  0  0  0  0  0
    2.0560    9.1660    6.9150 C   0  0  0  0  0  0  0  0  0  0  0  0
    3.2310    8.6210    7.4260 N   0  0  0  0  0  0  0  0  0  0  0  0
    3.7900    8.5500    8.7050 C   0  0  0  0  0  0  0  0  0  0  0  0
    4.8540    9.3460    9.1350 C   0  0  0  0  0  0  0  0  0  0  0  0
    5.3560    9.2640   10.4430 C   0  0  0  0  0  0  0  0  0  0  0  0
    4.7860    8.3840   11.3570 C   0  0  0  0  0  0  0  0  0  0  0  0
    5.1410    8.2250   12.6660 O   0  0  0  0  0  0  0  0  0  0  0  0
    5.2840    6.9050   13.1840 C   0  0  0  0  0  0  0  0  0  0  0  0
    6.7460    6.4240   13.2030 C   0  0  0  0  0  0  0  0  0  0  0  0
    7.1710    5.5600   12.0270 N   0  0  0  0  0  0  0  0  0  0  0  0
    7.9880    6.2330   10.9450 C   0  0  0  0  0  0  0  0  0  0  0  0
    7.0900    6.1980    9.7250 C   0  0  0  0  0  0  0  0  0  0  0  0
    6.3800    4.8680    9.8660 C   0  0  0  0  0  0  0  0  0  0  0  0
    6.0460    4.7950   11.3440 C   0  0  0  0  0  0  0  0  0  0  0  0
    3.7190    7.5850   10.9460 C   0  0  0  0  0  0  0  0  0  0  0  0
    3.2270    7.6700    9.6380 C   0  0  0  0  0  0  0  0  0  0  0  0
    1.7580   10.3930    7.3710 N   0  0  0  0  0  0  0  0  0  0  0  0
    0.6350   10.9860    6.9200 C   0  0  0  0  0  0  0  0  0  0  0  0
    0.3720   12.2580    7.4680 N   0  0  0  0  0  0  0  0  0  0  0  0
    1.2830   13.3400    7.5410 C   0  0  0  0  0  0  0  0  0  0  0  0
    1.7580   13.7280    8.8020 C   0  0  0  0  0  0  0  0  0  0  0  0
    2.6380   14.8060    8.9410 C   0  0  0  0  0  0  0  0  0  0  0  0
    3.0360   15.5290    7.8200 C   0  0  0  0  0  0  0  0  0  0  0  0
    2.5260   15.1800    6.5680 C   0  0  0  0  0  0  0  0  0  0  0  0
    3.0270   16.0670    5.1180 S   0  0  0  0  0  0  0  0  0  0  0  0
    1.8310   16.2900    4.3340 O   0  0  0  0  0  0  0  0  0  0  0  0
    4.1810   15.4120    4.5480 O   0  0  0  0  0  0  0  0  0  0  0  0
    3.4670   17.5670    5.6970 N   0  0  0  0  0  0  0  0  0  0  0  0
    3.7670   18.7880    4.9270 C   0  0  0  0  0  0  0  0  0  0  0  0
    4.8360   19.5560    5.7280 C   0  0  0  0  0  0  0  0  0  0  0  0
    4.3600   18.3960    3.5700 C   0  0  0  0  0  0  0  0  0  0  0  0
    2.5600   19.7070    4.7370 C   0  0  0  0  0  0  0  0  0  0  0  0
    1.6540   14.0950    6.4230 C   0  0  0  0  0  0  0  0  0  0  0  0
   -2.0594   11.3773    6.2015 H   0  0  0  0  0  0  0  0  0  0  0  0
   -1.1117   11.8976    4.7670 H   0  0  0  0  0  0  0  0  0  0  0  0
   -1.9384   10.3029    4.7670 H   0  0  0  0  0  0  0  0  0  0  0  0
   -0.4271    8.6135    4.8408 H   0  0  0  0  0  0  0  0  0  0  0  0
    3.7940    8.2880    6.6560 H   0  0  0  0  0  0  0  0  0  0  0  0
    5.3106   10.0560    8.4298 H   0  0  0  0  0  0  0  0  0  0  0  0
    6.2026    9.8975   10.7462 H   0  0  0  0  0  0  0  0  0  0  0  0
    4.8955    6.8878   14.2130 H   0  0  0  0  0  0  0  0  0  0  0  0
    4.7225    6.2284   12.5230 H   0  0  0  0  0  0  0  0  0  0  0  0
    7.3940    7.3127   13.2210 H   0  0  0  0  0  0  0  0  0  0  0  0
    6.8399    5.7853   14.0936 H   0  0  0  0  0  0  0  0  0  0  0  0
    7.7820    4.8390   12.4330 H   0  0  0  0  0  0  0  0  0  0  0  0
    8.2264    7.2699   11.2243 H   0  0  0  0  0  0  0  0  0  0  0  0
    8.9524    5.7328   10.7727 H   0  0  0  0  0  0  0  0  0  0  0  0
    6.3734    7.0324    9.7370 H   0  0  0  0  0  0  0  0  0  0  0  0
    7.6399    6.2987    8.7777 H   0  0  0  0  0  0  0  0  0  0  0  0
    5.4654    4.8447    9.2553 H   0  0  0  0  0  0  0  0  0  0  0  0
    6.9911    4.0196    9.5241 H   0  0  0  0  0  0  0  0  0  0  0  0
    5.0743    5.2690   11.5469 H   0  0  0  0  0  0  0  0  0  0  0  0
    5.9659    3.7587   11.7041 H   0  0  0  0  0  0  0  0  0  0  0  0
    3.2599    6.8816   11.6562 H   0  0  0  0  0  0  0  0  0  0  0  0
    2.3819    7.0333    9.3372 H   0  0  0  0  0  0  0  0  0  0  0  0
   -0.4620   12.5820    6.9770 H   0  0  0  0  0  0  0  0  0  0  0  0
    1.4333   13.1757    9.6961 H   0  0  0  0  0  0  0  0  0  0  0  0
    3.0158   15.0826    9.9364 H   0  0  0  0  0  0  0  0  0  0  0  0
    3.7438   16.3652    7.9194 H   0  0  0  0  0  0  0  0  0  0  0  0
    3.6100   17.5840    6.7060 H   0  0  0  0  0  0  0  0  0  0  0  0
    4.6525   19.4242    6.8046 H   0  0  0  0  0  0  0  0  0  0  0  0
    5.8333   19.1666    5.4756 H   0  0  0  0  0  0  0  0  0  0  0  0
    4.7853   20.6255    5.4756 H   0  0  0  0  0  0  0  0  0  0  0  0
    5.2683   17.7956    3.7264 H   0  0  0  0  0  0  0  0  0  0  0  0
    3.6235   17.8062    3.0046 H   0  0  0  0  0  0  0  0  0  0  0  0
    4.6140   19.3047    3.0046 H   0  0  0  0  0  0  0  0  0  0  0  0
    2.1680   20.0055    5.7205 H   0  0  0  0  0  0  0  0  0  0  0  0
    2.8659   20.6030    4.1769 H   0  0  0  0  0  0  0  0  0  0  0  0
    1.7777   19.1738    4.1769 H   0  0  0  0  0  0  0  0  0  0  0  0
    1.2600   13.8356    5.4293 H   0  0  0  0  0  0  0  0  0  0  0  0
  1  2  1  0
  2  3  2  0
  3  4  1  0
  4  5  2  0
  5  6  1  0
  6  7  1  0
  7  8  2  0
  8  9  1  0
  9 10  2  0
 10 11  1  0
 11 12  1  0
 12 13  1  0
 13 14  1  0
 14 15  1  0
 15 16  1  0
 16 17  1  0
 17 18  1  0
 10 19  1  0
 19 20  2  0
  5 21  1  0
 21 22  2  0
 22 23  1  0
 23 24  1  0
 24 25  2  0
 25 26  1  0
 26 27  2  0
 27 28  1  0
 28 29  1  0
 29 30  2  0
 29 31  2  0
 29 32  1  0
 32 33  1  0
 33 34  1  0
 33 35  1  0
 33 36  1  0
 28 37  2  0
 22  2  1  0
 37 24  1  0
 20  7  1  0
 18 14  1  0
  1 38  1  0
  1 39  1  0
  1 40  1  0
  3 41  1  0
  6 42  1  0
  8 43  1  0
  9 44  1  0
 12 45  1  0
 12 46  1  0
 13 47  1  0
 13 48  1  0
 14 49  1  0
 15 50  1  0
 15 51  1  0
 16 52  1  0
 16 53  1  0
 17 54  1  0
 17 55  1  0
 18 56  1  0
 18 57  1  0
 19 58  1  0
 20 59  1  0
 23 60  1  0
 25 61  1  0
 26 62  1  0
 27 63  1  0
 32 64  1  0
 34 65  1  0
 34 66  1  0
 34 67  1  0
 35 68  1  0
 35 69  1  0
 35 70  1  0
 36 71  1  0
 36 72  1  0
 36 73  1  0
 37 74  1  0
M  CHG  1  14   1
M  END
>  <meeko>  (6) 
{"is_sidechain": [false], "free_energy": -6.813, "intermolecular_energy": -11.449, "internal_energy": -1.87}

$$$$
4ogj_ligand
     RDKit          3D

 74 77  0  0  0  0  0  0  0  0999 V2000
   -1.0500   11.2150    6.0180 C   0  0  0  0  0  0  0  0  0  0  0  0
    0.2370   10.6510    6.5240 C   0  0  0  0  0  0  0  0  0  0  0  0
    0.6510    9.3970    6.1330 C   0  0  0  0  0  0  0  0  0  0  0  0
    1.8050    8.8270    6.5230 N   0  0  0  0  0  0  0  0  0  0  0  0
    2.5870    9.5380    7.3430 C   0  0  0  0  0  0  0  0  0  0  0  0
    3.8180    9.0580    7.7840 N   0  0  0  0  0  0  0  0  0  0  0  0
    4.2050    8.0150    8.6290 C   0  0  0  0  0  0  0  0  0  0  0  0
    5.4450    7.3750    8.5610 C   0  0  0  0  0  0  0  0  0  0  0  0
    5.8000    6.3560    9.4570 C   0  0  0  0  0  0  0  0  0  0  0  0
    4.9170    5.9650   10.4580 C   0  0  0  0  0  0  0  0  0  0  0  0
    5.1400    5.0220   11.4210 O   0  0  0  0  0  0  0  0  0  0  0  0
    6.1860    5.2380   12.3640 C   0  0  0  0  0  0  0  0  0  0  0  0
    5.8150    6.2670   13.4460 C   0  0  0  0  0  0  0  0  0  0  0  0
    6.4850    7.6260   13.3210 N   0  0  0  0  0  0  0  0  0  0  0  0
    5.5830    8.8100   13.0450 C   0  0  0  0  0  0  0  0  0  0  0  0
    5.9940    9.2780   11.6650 C   0  0  0  0  0  0  0  0  0  0  0  0
    7.4890    9.0400   11.6590 C   0  0  0  0  0  0  0  0  0  0  0  0
    7.6410    7.6900   12.3340 C   0  0  0  0  0  0  0  0  0  0  0  0
    3.6770    6.5970   10.5440 C   0  0  0  0  0  0  0  0  0  0  0  0
    3.3270    7.6100    9.6430 C   0  0  0  0  0  0  0  0  0  0  0  0
    2.2650   10.7610    7.7930 N   0  0  0  0  0  0  0  0  0  0  0  0
    1.0880   11.2930    7.4080 C   0  0  0  0  0  0  0  0  0  0  0  0
    0.8040   12.5640    7.9450 N   0  0  0  0  0  0  0  0  0  0  0  0
    1.1200   13.8110    7.3510 C   0  0  0  0  0  0  0  0  0  0  0  0
    0.1420   14.8150    7.3490 C   0  0  0  0  0  0  0  0  0  0  0  0
    0.3840   16.0580    6.7550 C   0  0  0  0  0  0  0  0  0  0  0  0
    1.6040   16.3030    6.1290 C   0  0  0  0  0  0  0  0  0  0  0  0
    2.5620   15.2890    6.0810 C   0  0  0  0  0  0  0  0  0  0  0  0
    4.1310   15.5750    5.3090 S   0  0  0  0  0  0  0  0  0  0  0  0
    4.8990   16.3960    6.2220 O   0  0  0  0  0  0  0  0  0  0  0  0
    3.9090   15.9890    3.9420 O   0  0  0  0  0  0  0  0  0  0  0  0
    4.8660   14.0790    5.3260 N   0  0  0  0  0  0  0  0  0  0  0  0
    6.2730   13.7530    5.0320 C   0  0  0  0  0  0  0  0  0  0  0  0
    7.0160   13.7810    6.3820 C   0  0  0  0  0  0  0  0  0  0  0  0
    6.3540   12.3340    4.4600 C   0  0  0  0  0  0  0  0  0  0  0  0
    6.9510   14.7480    4.0920 C   0  0  0  0  0  0  0  0  0  0  0  0
    2.3270   14.0490    6.6850 C   0  0  0  0  0  0  0  0  0  0  0  0
   -1.6878   11.4945    6.8695 H   0  0  0  0  0  0  0  0  0  0  0  0
   -0.8446   12.1056    5.4059 H   0  0  0  0  0  0  0  0  0  0  0  0
   -1.5656   10.4603    5.4059 H   0  0  0  0  0  0  0  0  0  0  0  0
   -0.0038    8.8253    5.4589 H   0  0  0  0  0  0  0  0  0  0  0  0
    4.5430    9.6790    7.4530 H   0  0  0  0  0  0  0  0  0  0  0  0
    6.1621    7.6784    7.7840 H   0  0  0  0  0  0  0  0  0  0  0  0
    6.7800    5.8644    9.3678 H   0  0  0  0  0  0  0  0  0  0  0  0
    6.4189    4.2815   12.8547 H   0  0  0  0  0  0  0  0  0  0  0  0
    7.0501    5.6368   11.8123 H   0  0  0  0  0  0  0  0  0  0  0  0
    4.7267    6.4218   13.4061 H   0  0  0  0  0  0  0  0  0  0  0  0
    6.1709    5.8437   14.3969 H   0  0  0  0  0  0  0  0  0  0  0  0
    6.9060    7.8010   14.2430 H   0  0  0  0  0  0  0  0  0  0  0  0
    4.5260    8.5055   13.0547 H   0  0  0  0  0  0  0  0  0  0  0  0
    5.6816    9.6001   13.8040 H   0  0  0  0  0  0  0  0  0  0  0  0
    5.4960    8.6872   10.8821 H   0  0  0  0  0  0  0  0  0  0  0  0
    5.7196   10.3235   11.4610 H   0  0  0  0  0  0  0  0  0  0  0  0
    7.8773    9.0101   10.6302 H   0  0  0  0  0  0  0  0  0  0  0  0
    8.0496    9.8372   12.1692 H   0  0  0  0  0  0  0  0  0  0  0  0
    7.5688    6.8764   11.5972 H   0  0  0  0  0  0  0  0  0  0  0  0
    8.6182    7.5757   12.8260 H   0  0  0  0  0  0  0  0  0  0  0  0
    2.9663    6.2966   11.3280 H   0  0  0  0  0  0  0  0  0  0  0  0
    2.3447    8.0968    9.7329 H   0  0  0  0  0  0  0  0  0  0  0  0
   -0.2000   12.5480    8.1280 H   0  0  0  0  0  0  0  0  0  0  0  0
   -0.8320   14.6222    7.8224 H   0  0  0  0  0  0  0  0  0  0  0  0
   -0.3881   16.8410    6.7822 H   0  0  0  0  0  0  0  0  0  0  0  0
    1.8102   17.2847    5.6775 H   0  0  0  0  0  0  0  0  0  0  0  0
    4.2150   13.3120    5.4890 H   0  0  0  0  0  0  0  0  0  0  0  0
    6.2850   13.7535    7.2035 H   0  0  0  0  0  0  0  0  0  0  0  0
    7.6805   12.9073    6.4530 H   0  0  0  0  0  0  0  0  0  0  0  0
    7.6128   14.7023    6.4530 H   0  0  0  0  0  0  0  0  0  0  0  0
    6.3955   11.6078    5.2852 H   0  0  0  0  0  0  0  0  0  0  0  0
    5.4657   12.1365    3.8421 H   0  0  0  0  0  0  0  0  0  0  0  0
    7.2590   12.2389    3.8421 H   0  0  0  0  0  0  0  0  0  0  0  0
    7.4731   15.5142    4.6838 H   0  0  0  0  0  0  0  0  0  0  0  0
    7.6763   14.2174    3.4576 H   0  0  0  0  0  0  0  0  0  0  0  0
    6.1918   15.2289    3.4576 H   0  0  0  0  0  0  0  0  0  0  0  0
    3.0922   13.2603    6.6361 H   0  0  0  0  0  0  0  0  0  0  0  0
  1  2  1  0
  2  3  2  0
  3  4  1  0
  4  5  2  0
  5  6  1  0
  6  7  1  0
  7  8  2  0
  8  9  1  0
  9 10  2  0
 10 11  1  0
 11 12  1  0
 12 13  1  0
 13 14  1  0
 14 15  1  0
 15 16  1  0
 16 17  1  0
 17 18  1  0
 10 19  1  0
 19 20  2  0
  5 21  1  0
 21 22  2  0
 22 23  1  0
 23 24  1  0
 24 25  2  0
 25 26  1  0
 26 27  2  0
 27 28  1  0
 28 29  1  0
 29 30  2  0
 29 31  2  0
 29 32  1  0
 32 33  1  0
 33 34  1  0
 33 35  1  0
 33 36  1  0
 28 37  2  0
 22  2  1  0
 37 24  1  0
 20  7  1  0
 18 14  1  0
  1 38  1  0
  1 39  1  0
  1 40  1  0
  3 41  1  0
  6 42  1  0
  8 43  1  0
  9 44  1  0
 12 45  1  0
 12 46  1  0
 13 47  1  0
 13 48  1  0
 14 49  1  0
 15 50  1  0
 15 51  1  0
 16 52  1  0
 16 53  1  0
 17 54  1  0
 17 55  1  0
 18 56  1  0
 18 57  1  0
 19 58  1  0
 20 59  1  0
 23 60  1  0
 25 61  1  0
 26 62  1  0
 27 63  1  0
 32 64  1  0
 34 65  1  0
 34 66  1  0
 34 67  1  0
 35 68  1  0
 35 69  1  0
 35 70  1  0
 36 71  1  0
 36 72  1  0
 36 73  1  0
 37 74  1  0
M  CHG  1  14   1
M  END
>  <meeko>  (7) 
{"is_sidechain": [false], "free_energy": -6.785, "intermolecular_energy": -11.115, "internal_energy": -2.159}

$$$$
4ogj_ligand
     RDKit          3D

 74 77  0  0  0  0  0  0  0  0999 V2000
    6.8420   14.7000    7.9270 C   0  0  0  0  0  0  0  0  0  0  0  0
    6.1570   13.3740    7.8530 C   0  0  0  0  0  0  0  0  0  0  0  0
    6.1680   12.5220    8.9350 C   0  0  0  0  0  0  0  0  0  0  0  0
    5.5570   11.3240    8.9580 N   0  0  0  0  0  0  0  0  0  0  0  0
    4.9030   10.9540    7.8510 C   0  0  0  0  0  0  0  0  0  0  0  0
    4.2100    9.7480    7.7760 N   0  0  0  0  0  0  0  0  0  0  0  0
    4.2810    8.5440    8.4820 C   0  0  0  0  0  0  0  0  0  0  0  0
    5.4450    7.7840    8.6100 C   0  0  0  0  0  0  0  0  0  0  0  0
    5.4740    6.5990    9.3610 C   0  0  0  0  0  0  0  0  0  0  0  0
    4.3300    6.1570   10.0160 C   0  0  0  0  0  0  0  0  0  0  0  0
    4.2200    5.0520   10.8110 O   0  0  0  0  0  0  0  0  0  0  0  0
    5.0050    4.9770   11.9970 C   0  0  0  0  0  0  0  0  0  0  0  0
    4.4430    5.8350   13.1440 C   0  0  0  0  0  0  0  0  0  0  0  0
    5.2240    7.1000   13.4650 N   0  0  0  0  0  0  0  0  0  0  0  0
    4.5390    8.4180   13.1700 C   0  0  0  0  0  0  0  0  0  0  0  0
    5.3790    9.0360   12.0710 C   0  0  0  0  0  0  0  0  0  0  0  0
    6.7850    8.6130   12.4410 C   0  0  0  0  0  0  0  0  0  0  0  0
    6.6230    7.1670   12.8710 C   0  0  0  0  0  0  0  0  0  0  0  0
    3.1600    6.9080    9.9040 C   0  0  0  0  0  0  0  0  0  0  0  0
    3.1370    8.0860    9.1480 C   0  0  0  0  0  0  0  0  0  0  0  0
    4.8480   11.7060    6.7410 N   0  0  0  0  0  0  0  0  0  0  0  0
    5.4950   12.8890    6.7390 C   0  0  0  0  0  0  0  0  0  0  0  0
    5.4190   13.6070    5.5290 N   0  0  0  0  0  0  0  0  0  0  0  0
    4.5050   14.6490    5.2330 C   0  0  0  0  0  0  0  0  0  0  0  0
    4.8110   15.5260    4.1830 C   0  0  0  0  0  0  0  0  0  0  0  0
    3.9620   16.5890    3.8600 C   0  0  0  0  0  0  0  0  0  0  0  0
    2.8040   16.8050    4.6030 C   0  0  0  0  0  0  0  0  0  0  0  0
    2.5210   15.9670    5.6830 C   0  0  0  0  0  0  0  0  0  0  0  0
    1.0460   16.2030    6.6360 S   0  0  0  0  0  0  0  0  0  0  0  0
    1.3730   17.1540    7.6770 O   0  0  0  0  0  0  0  0  0  0  0  0
    0.4880   14.9090    6.9570 O   0  0  0  0  0  0  0  0  0  0  0  0
    0.0210   17.0100    5.5980 N   0  0  0  0  0  0  0  0  0  0  0  0
   -1.1530   17.8340    5.9370 C   0  0  0  0  0  0  0  0  0  0  0  0
   -2.1070   17.7470    4.7300 C   0  0  0  0  0  0  0  0  0  0  0  0
   -1.8560   17.2340    7.1590 C   0  0  0  0  0  0  0  0  0  0  0  0
   -0.8220   19.3060    6.1790 C   0  0  0  0  0  0  0  0  0  0  0  0
    3.3630   14.8950    6.0010 C   0  0  0  0  0  0  0  0  0  0  0  0
    6.9865   14.9797    8.9810 H   0  0  0  0  0  0  0  0  0  0  0  0
    7.8198   14.6360    7.4272 H   0  0  0  0  0  0  0  0  0  0  0  0
    6.2239   15.4604    7.4272 H   0  0  0  0  0  0  0  0  0  0  0  0
    6.7106   12.8413    9.8370 H   0  0  0  0  0  0  0  0  0  0  0  0
    3.5920    9.7810    6.9770 H   0  0  0  0  0  0  0  0  0  0  0  0
    6.3637    8.1230    8.1089 H   0  0  0  0  0  0  0  0  0  0  0  0
    6.4052    6.0177    9.4318 H   0  0  0  0  0  0  0  0  0  0  0  0
    5.0407    3.9287   12.3282 H   0  0  0  0  0  0  0  0  0  0  0  0
    6.0055    5.3650   11.7550 H   0  0  0  0  0  0  0  0  0  0  0  0
    3.4180    6.1298   12.8747 H   0  0  0  0  0  0  0  0  0  0  0  0
    4.5044    5.2078   14.0456 H   0  0  0  0  0  0  0  0  0  0  0  0
    5.3620    7.0770   14.4840 H   0  0  0  0  0  0  0  0  0  0  0  0
    3.5072    8.2530   12.8263 H   0  0  0  0  0  0  0  0  0  0  0  0
    4.4666    9.0631   14.0580 H   0  0  0  0  0  0  0  0  0  0  0  0
    5.0934    8.6407   11.0850 H   0  0  0  0  0  0  0  0  0  0  0  0
    5.2596   10.1268   11.9945 H   0  0  0  0  0  0  0  0  0  0  0  0
    7.4591    8.6918   11.5754 H   0  0  0  0  0  0  0  0  0  0  0  0
    7.2281    9.2443   13.2253 H   0  0  0  0  0  0  0  0  0  0  0  0
    6.7110    6.4923   12.0067 H   0  0  0  0  0  0  0  0  0  0  0  0
    7.3968    6.8548   13.5877 H   0  0  0  0  0  0  0  0  0  0  0  0
    2.2460    6.5712   10.4150 H   0  0  0  0  0  0  0  0  0  0  0  0
    2.2031    8.6627    9.0756 H   0  0  0  0  0  0  0  0  0  0  0  0
    6.3630   13.9670    5.3830 H   0  0  0  0  0  0  0  0  0  0  0  0
    5.7340   15.3754    3.6038 H   0  0  0  0  0  0  0  0  0  0  0  0
    4.2086   17.2543    3.0195 H   0  0  0  0  0  0  0  0  0  0  0  0
    2.1204   17.6263    4.3419 H   0  0  0  0  0  0  0  0  0  0  0  0
    0.2170   16.8260    4.6150 H   0  0  0  0  0  0  0  0  0  0  0  0
   -3.1430   17.6525    5.0875 H   0  0  0  0  0  0  0  0  0  0  0  0
   -2.0111   18.6576    4.1204 H   0  0  0  0  0  0  0  0  0  0  0  0
   -1.8479   16.8688    4.1204 H   0  0  0  0  0  0  0  0  0  0  0  0
   -1.3951   17.6274    8.0770 H   0  0  0  0  0  0  0  0  0  0  0  0
   -2.9219   17.5051    7.1386 H   0  0  0  0  0  0  0  0  0  0  0  0
   -1.7558   16.1388    7.1386 H   0  0  0  0  0  0  0  0  0  0  0  0
   -0.7786   19.4990    7.2611 H   0  0  0  0  0  0  0  0  0  0  0  0
    0.1517   19.5423    5.7251 H   0  0  0  0  0  0  0  0  0  0  0  0
   -1.6008   19.9364    5.7251 H   0  0  0  0  0  0  0  0  0  0  0  0
    3.1258   14.2452    6.8563 H   0  0  0  0  0  0  0  0  0  0  0  0
  1  2  1  0
  2  3  2  0
  3  4  1  0
  4  5  2  0
  5  6  1  0
  6  7  1  0
  7  8  2  0
  8  9  1  0
  9 10  2  0
 10 11  1  0
 11 12  1  0
 12 13  1  0
 13 14  1  0
 14 15  1  0
 15 16  1  0
 16 17  1  0
 17 18  1  0
 10 19  1  0
 19 20  2  0
  5 21  1  0
 21 22  2  0
 22 23  1  0
 23 24  1  0
 24 25  2  0
 25 26  1  0
 26 27  2  0
 27 28  1  0
 28 29  1  0
 29 30  2  0
 29 31  2  0
 29 32  1  0
 32 33  1  0
 33 34  1  0
 33 35  1  0
 33 36  1  0
 28 37  2  0
 22  2  1  0
 37 24  1  0
 20  7  1  0
 18 14  1  0
  1 38  1  0
  1 39  1  0
  1 40  1  0
  3 41  1  0
  6 42  1  0
  8 43  1  0
  9 44  1  0
 12 45  1  0
 12 46  1  0
 13 47  1  0
 13 48  1  0
 14 49  1  0
 15 50  1  0
 15 51  1  0
 16 52  1  0
 16 53  1  0
 17 54  1  0
 17 55  1  0
 18 56  1  0
 18 57  1  0
 19 58  1  0
 20 59  1  0
 23 60  1  0
 25 61  1  0
 26 62  1  0
 27 63  1  0
 32 64  1  0
 34 65  1  0
 34 66  1  0
 34 67  1  0
 35 68  1  0
 35 69  1  0
 35 70  1  0
 36 71  1  0
 36 72  1  0
 36 73  1  0
 37 74  1  0
M  CHG  1  14   1
M  END
>  <meeko>  (8) 
{"is_sidechain": [false], "free_energy": -6.754, "intermolecular_energy": -11.258, "internal_energy": -1.965}

$$$$
4ogj_ligand
     RDKit          3D

 74 77  0  0  0  0  0  0  0  0999 V2000
   -1.0300   11.7500    6.2420 C   0  0  0  0  0  0  0  0  0  0  0  0
    0.2480   11.1370    6.7100 C   0  0  0  0  0  0  0  0  0  0  0  0
    0.4970    9.7980    6.5030 C   0  0  0  0  0  0  0  0  0  0  0  0
    1.6310    9.1750    6.8720 N   0  0  0  0  0  0  0  0  0  0  0  0
    2.5640    9.9190    7.4760 C   0  0  0  0  0  0  0  0  0  0  0  0
    3.7880    9.3830    7.8710 N   0  0  0  0  0  0  0  0  0  0  0  0
    4.1590    8.2530    8.6040 C   0  0  0  0  0  0  0  0  0  0  0  0
    3.2530    7.4210    9.2650 C   0  0  0  0  0  0  0  0  0  0  0  0
    3.6720    6.2760    9.9590 C   0  0  0  0  0  0  0  0  0  0  0  0
    5.0200    5.9310    9.9910 C   0  0  0  0  0  0  0  0  0  0  0  0
    5.5670    4.8320   10.5870 O   0  0  0  0  0  0  0  0  0  0  0  0
    6.5570    5.0170   11.5950 C   0  0  0  0  0  0  0  0  0  0  0  0
    5.9550    5.2940   12.9840 C   0  0  0  0  0  0  0  0  0  0  0  0
    6.0460    6.7330   13.4660 N   0  0  0  0  0  0  0  0  0  0  0  0
    4.7510    7.5140   13.5340 C   0  0  0  0  0  0  0  0  0  0  0  0
    4.9200    8.6050   12.4960 C   0  0  0  0  0  0  0  0  0  0  0  0
    6.3910    8.9490   12.6040 C   0  0  0  0  0  0  0  0  0  0  0  0
    7.0660    7.5970   12.7400 C   0  0  0  0  0  0  0  0  0  0  0  0
    5.9380    6.7490    9.3310 C   0  0  0  0  0  0  0  0  0  0  0  0
    5.5120    7.8920    8.6460 C   0  0  0  0  0  0  0  0  0  0  0  0
    2.4100   11.2260    7.7370 N   0  0  0  0  0  0  0  0  0  0  0  0
    1.2510   11.8160    7.3820 C   0  0  0  0  0  0  0  0  0  0  0  0
    1.1500   13.1810    7.7160 N   0  0  0  0  0  0  0  0  0  0  0  0
    2.1340   13.9530    8.3800 C   0  0  0  0  0  0  0  0  0  0  0  0
    1.8230   14.4950    9.6350 C   0  0  0  0  0  0  0  0  0  0  0  0
    2.7430   15.2880   10.3270 C   0  0  0  0  0  0  0  0  0  0  0  0
    3.9830   15.5720    9.7590 C   0  0  0  0  0  0  0  0  0  0  0  0
    4.2790   15.0790    8.4870 C   0  0  0  0  0  0  0  0  0  0  0  0
    5.8540   15.4050    7.7450 S   0  0  0  0  0  0  0  0  0  0  0  0
    6.8540   15.1340    8.7560 O   0  0  0  0  0  0  0  0  0  0  0  0
    5.7970   16.6850    7.0770 O   0  0  0  0  0  0  0  0  0  0  0  0
    6.0230   14.1930    6.6120 N   0  0  0  0  0  0  0  0  0  0  0  0
    6.4070   14.3190    5.1940 C   0  0  0  0  0  0  0  0  0  0  0  0
    6.4160   12.8910    4.6180 C   0  0  0  0  0  0  0  0  0  0  0  0
    5.3430   15.1380    4.4540 C   0  0  0  0  0  0  0  0  0  0  0  0
    7.7920   14.9290    4.9840 C   0  0  0  0  0  0  0  0  0  0  0  0
    3.3640   14.2750    7.7970 C   0  0  0  0  0  0  0  0  0  0  0  0
   -1.6371   12.0412    7.1118 H   0  0  0  0  0  0  0  0  0  0  0  0
   -0.8089   12.6401    5.6346 H   0  0  0  0  0  0  0  0  0  0  0  0
   -1.5858   11.0205    5.6346 H   0  0  0  0  0  0  0  0  0  0  0  0
   -0.2804    9.2004    6.0045 H   0  0  0  0  0  0  0  0  0  0  0  0
    4.5200   10.0290    7.6120 H   0  0  0  0  0  0  0  0  0  0  0  0
    2.1818    7.6701    9.2409 H   0  0  0  0  0  0  0  0  0  0  0  0
    2.9330    5.6491   10.4794 H   0  0  0  0  0  0  0  0  0  0  0  0
    7.1715    4.1066   11.6543 H   0  0  0  0  0  0  0  0  0  0  0  0
    7.1538    5.8970   11.3131 H   0  0  0  0  0  0  0  0  0  0  0  0
    4.8916    5.0142   12.9535 H   0  0  0  0  0  0  0  0  0  0  0  0
    6.5515    4.7015   13.6933 H   0  0  0  0  0  0  0  0  0  0  0  0
    6.3870    6.6680   14.4350 H   0  0  0  0  0  0  0  0  0  0  0  0
    3.8938    6.8703   13.2874 H   0  0  0  0  0  0  0  0  0  0  0  0
    4.5533    7.9154   14.5389 H   0  0  0  0  0  0  0  0  0  0  0  0
    4.6727    8.2358   11.4898 H   0  0  0  0  0  0  0  0  0  0  0  0
    4.2585    9.4682   12.6611 H   0  0  0  0  0  0  0  0  0  0  0  0
    6.7390    9.4724   11.7013 H   0  0  0  0  0  0  0  0  0  0  0  0
    6.6112    9.6226   13.4453 H   0  0  0  0  0  0  0  0  0  0  0  0
    7.2973    7.1766   11.7502 H   0  0  0  0  0  0  0  0  0  0  0  0
    8.0218    7.6593   13.2809 H   0  0  0  0  0  0  0  0  0  0  0  0
    7.0075    6.4924    9.3496 H   0  0  0  0  0  0  0  0  0  0  0  0
    6.2538    8.5195    8.1303 H   0  0  0  0  0  0  0  0  0  0  0  0
    0.9270   13.6460    6.8350 H   0  0  0  0  0  0  0  0  0  0  0  0
    0.8387   14.2929   10.0826 H   0  0  0  0  0  0  0  0  0  0  0  0
    2.4880   15.6876   11.3196 H   0  0  0  0  0  0  0  0  0  0  0  0
    4.7202   16.1776   10.3065 H   0  0  0  0  0  0  0  0  0  0  0  0
    5.7460   13.2760    6.9590 H   0  0  0  0  0  0  0  0  0  0  0  0
    6.4206   12.1630    5.4426 H   0  0  0  0  0  0  0  0  0  0  0  0
    5.5188   12.7393    3.9999 H   0  0  0  0  0  0  0  0  0  0  0  0
    7.3150   12.7506    3.9999 H   0  0  0  0  0  0  0  0  0  0  0  0
    4.6919   15.6392    5.1853 H   0  0  0  0  0  0  0  0  0  0  0  0
    5.8347   15.8929    3.8229 H   0  0  0  0  0  0  0  0  0  0  0  0
    4.7390   14.4695    3.8229 H   0  0  0  0  0  0  0  0  0  0  0  0
    8.2548   15.1328    5.9609 H   0  0  0  0  0  0  0  0  0  0  0  0
    8.4212   14.2247    4.4200 H   0  0  0  0  0  0  0  0  0  0  0  0
    7.6971   15.8686    4.4200 H   0  0  0  0  0  0  0  0  0  0  0  0
    3.6127   13.8959    6.7948 H   0  0  0  0  0  0  0  0  0  0  0  0
  1  2  1  0
  2  3  2  0
  3  4  1  0
  4  5  2  0
  5  6  1  0
  6  7  1  0
  7  8  2  0
  8  9  1  0
  9 10  2  0
 10 11  1  0
 11 12  1  0
 12 13  1  0
 13 14  1  0
 14 15  1  0
 15 16  1  0
 16 17  1  0
 17 18  1  0
 10 19  1  0
 19 20  2  0
  5 21  1  0
 21 22  2  0
 22 23  1  0
 23 24  1  0
 24 25  2  0
 25 26  1  0
 26 27  2  0
 27 28  1  0
 28 29  1  0
 29 30  2  0
 29 31  2  0
 29 32  1  0
 32 33  1  0
 33 34  1  0
 33 35  1  0
 33 36  1  0
 28 37  2  0
 22  2  1  0
 37 24  1  0
 20  7  1  0
 18 14  1  0
  1 38  1  0
  1 39  1  0
  1 40  1  0
  3 41  1  0
  6 42  1  0
  8 43  1  0
  9 44  1  0
 12 45  1  0
 12 46  1  0
 13 47  1  0
 13 48  1  0
 14 49  1  0
 15 50  1  0
 15 51  1  0
 16 52  1  0
 16 53  1  0
 17 54  1  0
 17 55  1  0
 18 56  1  0
 18 57  1  0
 19 58  1  0
 20 59  1  0
 23 60  1  0
 25 61  1  0
 26 62  1  0
 27 63  1  0
 32 64  1  0
 34 65  1  0
 34 66  1  0
 34 67  1  0
 35 68  1  0
 35 69  1  0
 35 70  1  0
 36 71  1  0
 36 72  1  0
 36 73  1  0
 37 74  1  0
M  CHG  1  14   1
M  END
>  <meeko>  (9) 
{"is_sidechain": [false], "free_energy": -6.682, "intermolecular_energy": -11.289, "internal_energy": -1.815}

$$$$
