
     RDKit          3D

 20 22  0  0  0  0  0  0  0  0999 V2000
  -16.8280   -3.2590  -15.9250 C   0  0  0  0  0  0  0  0  0  0  0  0
  -17.5630   -3.6540  -17.1130 N   0  0  0  0  0  0  0  0  0  0  0  0
  -17.2910   -3.0800  -18.3120 C   0  0  0  0  0  0  0  0  0  0  0  0
  -18.0740   -3.2480  -19.3960 N   0  0  0  0  0  0  0  0  0  0  0  0
  -17.5360   -2.4910  -20.3710 C   0  0  0  0  0  0  0  0  0  0  0  0
  -17.9470   -2.2320  -21.6830 C   0  0  0  0  0  0  0  0  0  0  0  0
  -17.2040   -1.3430  -22.4610 C   0  0  0  0  0  0  0  0  0  0  0  0
  -17.5760   -0.9950  -23.8110 C   0  0  0  0  0  0  0  0  0  0  0  0
  -18.5830   -1.4840  -24.3420 O   0  0  0  0  0  0  0  0  0  0  0  0
  -16.8210   -0.1070  -24.4910 N   0  0  0  0  0  0  0  0  0  0  0  0
  -15.7070    0.4470  -23.9410 C   0  0  0  0  0  0  0  0  0  0  0  0
  -14.9880    1.3350  -24.6820 N   0  0  0  0  0  0  0  0  0  0  0  0
  -15.2830    0.1580  -22.7090 N   0  0  0  0  0  0  0  0  0  0  0  0
  -16.0150   -0.7280  -21.9390 C   0  0  0  0  0  0  0  0  0  0  0  0
  -15.6090   -1.0200  -20.5970 C   0  0  0  0  0  0  0  0  0  0  0  0
  -14.3570   -0.4270  -20.0040 C   0  0  0  0  0  0  0  0  0  0  0  0
  -13.2240   -1.4360  -20.1400 C   0  0  0  0  0  0  0  0  0  0  0  0
  -11.9580   -0.8870  -19.7510 N   0  0  0  0  0  0  0  0  0  0  0  0
  -16.4000   -1.8960  -19.8450 C   0  0  0  0  0  0  0  0  0  0  0  0
  -16.2560   -2.2850  -18.5540 N   0  0  0  0  0  0  0  0  0  0  0  0
  2  1  1  0
  3  2  1  0
  4  3  2  0
  5  4  1  0
  6  5  1  0
  7  6  2  0
  8  7  1  0
  9  8  2  0
 10  8  1  0
 11 10  1  0
 12 11  1  0
 13 11  2  0
 14  7  1  0
 14 13  1  0
 15 14  2  0
 16 15  1  0
 17 16  1  0
 18 17  1  0
 19  5  2  0
 19 15  1  0
 20 19  1  0
 20  3  1  0
M  CHG  3   4   1  13   1  18   1
M  END
$$$$
