
     RDKit          3D

 17 19  0  0  0  0  0  0  0  0999 V2000
   -8.5670   -2.3340   -2.8010 C   0  0  0  0  0  0  0  0  0  0  0  0
  -10.0670   -2.3070   -2.9650 C   0  0  2  0  0  0  0  0  0  0  0  0
  -10.6050   -3.6050   -3.3160 N   0  0  0  0  0  0  0  0  0  0  0  0
  -11.8990   -3.3680   -3.9800 C   0  0  1  0  0  0  0  0  0  0  0  0
  -13.0130   -3.9660   -3.1850 C   0  0  0  0  0  0  0  0  0  0  0  0
  -14.1790   -4.3710   -3.7470 N   0  0  0  0  0  0  0  0  0  0  0  0
  -14.9130   -4.8470   -2.7030 C   0  0  0  0  0  0  0  0  0  0  0  0
  -16.1890   -5.3800   -2.6810 C   0  0  0  0  0  0  0  0  0  0  0  0
  -16.7170   -5.7870   -1.4430 C   0  0  0  0  0  0  0  0  0  0  0  0
  -15.9900   -5.6550   -0.2880 C   0  0  0  0  0  0  0  0  0  0  0  0
  -14.6920   -5.1110   -0.3290 C   0  0  0  0  0  0  0  0  0  0  0  0
  -14.1800   -4.7120   -1.5550 C   0  0  0  0  0  0  0  0  0  0  0  0
  -12.9700   -4.1510   -1.8640 N   0  0  0  0  0  0  0  0  0  0  0  0
  -12.0190   -1.8380   -4.0660 C   0  0  2  0  0  0  0  0  0  0  0  0
  -12.7190   -1.4340   -5.2140 O   0  0  0  0  0  0  0  0  0  0  0  0
  -10.5780   -1.4340   -4.0740 C   0  0  2  0  0  0  0  0  0  0  0  0
   -9.9660   -1.7530   -5.3170 O   0  0  0  0  0  0  0  0  0  0  0  0
  2  1  1  6
  3  2  1  0
  4  3  1  0
  4  5  1  1
  6  5  2  0
  7  6  1  0
  8  7  2  0
  9  8  1  0
 10  9  2  0
 11 10  1  0
 12 11  2  0
 12  7  1  0
 13 12  1  0
 13  5  1  0
 14  4  1  0
 14 15  1  6
 16 14  1  0
 16  2  1  0
 16 17  1  6
M  CHG  1   3   1
M  END
$$$$
