
     RDKit          3D

 13 13  0  0  0  0  0  0  0  0999 V2000
   20.6290    5.4540    7.6520 N   0  0  0  0  0  0  0  0  0  0  0  0
   19.4870    6.3850    7.7920 C   0  0  1  0  0  0  0  0  0  0  0  0
   19.5380    7.1660    9.1050 C   0  0  0  0  0  0  0  0  0  0  0  0
   19.6560    6.3280   10.3410 C   0  0  0  0  0  0  0  0  0  0  0  0
   18.9090    5.1730   10.5100 C   0  0  0  0  0  0  0  0  0  0  0  0
   19.0610    4.3930   11.6510 C   0  0  0  0  0  0  0  0  0  0  0  0
   19.9490    4.8060   12.6020 C   0  0  0  0  0  0  0  0  0  0  0  0
   20.1060    4.0670   13.7240 F   0  0  0  0  0  0  0  0  0  0  0  0
   20.6950    5.9470   12.4560 C   0  0  0  0  0  0  0  0  0  0  0  0
   20.5430    6.7140   11.3110 C   0  0  0  0  0  0  0  0  0  0  0  0
   19.4580    7.3960    6.6640 C   0  0  0  0  0  0  0  0  0  0  0  0
   20.3260    7.3430    5.7930 O   0  0  0  0  0  0  0  0  0  0  0  0
   18.5600    8.2520    6.6680 O   0  0  0  0  0  0  0  0  0  0  0  0
  2  1  1  6
  3  2  1  0
  4  3  1  0
  5  4  2  0
  6  5  1  0
  7  6  2  0
  8  7  1  0
  9  7  1  0
 10  4  1  0
 10  9  2  0
 11  2  1  0
 12 11  2  0
 13 11  1  0
M  CHG  2   1   1  13  -1
M  END
$$$$
