2br1_ligand
     RDKit          3D

 50 53  0  0  0  0  0  0  0  0999 V2000
    1.6500  -11.2370   -3.5570 C   0  0  0  0  0  0  0  0  0  0  0  0
    1.9300  -11.5570   -2.2000 O   0  0  0  0  0  0  0  0  0  0  0  0
    3.2010  -11.3170   -1.7580 C   0  0  0  0  0  0  0  0  0  0  0  0
    3.5640  -12.0180   -0.6080 C   0  0  0  0  0  0  0  0  0  0  0  0
    4.8360  -11.8680   -0.0470 C   0  0  0  0  0  0  0  0  0  0  0  0
    5.7760  -11.0050   -0.6230 C   0  0  0  0  0  0  0  0  0  0  0  0
    7.1100  -10.8220   -0.0500 C   0  0  0  0  0  0  0  0  0  0  0  0
    8.1350  -10.9540   -0.9470 O   0  0  0  0  0  0  0  0  0  0  0  0
    9.3040  -10.7630   -0.2830 C   0  0  0  0  0  0  0  0  0  0  0  0
   10.4920  -10.8280   -0.8940 N   0  0  0  0  0  0  0  0  0  0  0  0
   11.4890  -10.5880   -0.0400 C   0  0  0  0  0  0  0  0  0  0  0  0
   11.3990  -10.3000    1.2720 N   0  0  0  0  0  0  0  0  0  0  0  0
   10.1800  -10.2370    1.8600 C   0  0  0  0  0  0  0  0  0  0  0  0
   10.0790   -9.8930    3.2060 N   0  0  0  0  0  0  0  0  0  0  0  0
   10.8740   -8.7620    3.6720 C   0  0  0  0  0  0  0  0  0  0  0  0
   12.0100   -9.1970    4.6010 C   0  0  0  0  0  0  0  0  0  0  0  0
   12.4590  -10.5040    4.2420 O   0  0  0  0  0  0  0  0  0  0  0  0
    9.0560  -10.4930    1.0540 C   0  0  0  0  0  0  0  0  0  0  0  0
    7.6340  -10.5490    1.2060 C   0  0  0  0  0  0  0  0  0  0  0  0
    6.8410  -10.3380    2.3980 C   0  0  0  0  0  0  0  0  0  0  0  0
    6.8090  -11.3040    3.4070 C   0  0  0  0  0  0  0  0  0  0  0  0
    6.0310  -11.1000    4.5540 C   0  0  0  0  0  0  0  0  0  0  0  0
    5.2820   -9.9330    4.6950 C   0  0  0  0  0  0  0  0  0  0  0  0
    4.4840   -9.6120    5.7580 O   0  0  0  0  0  0  0  0  0  0  0  0
    4.3020   -8.2270    6.0300 C   0  0  0  0  0  0  0  0  0  0  0  0
    5.3150   -8.9700    3.6810 C   0  0  0  0  0  0  0  0  0  0  0  0
    6.0890   -9.1680    2.5370 C   0  0  0  0  0  0  0  0  0  0  0  0
    5.4020  -10.3080   -1.7830 C   0  0  0  0  0  0  0  0  0  0  0  0
    4.1280  -10.4590   -2.3470 C   0  0  0  0  0  0  0  0  0  0  0  0
    0.9261  -10.4097   -3.5968 H   0  0  0  0  0  0  0  0  0  0  0  0
    2.5796  -10.9354   -4.0619 H   0  0  0  0  0  0  0  0  0  0  0  0
    1.2277  -12.1183   -4.0619 H   0  0  0  0  0  0  0  0  0  0  0  0
    2.8397  -12.6981   -0.1360 H   0  0  0  0  0  0  0  0  0  0  0  0
    5.1013  -12.4348    0.8576 H   0  0  0  0  0  0  0  0  0  0  0  0
   12.5056  -10.6306   -0.4579 H   0  0  0  0  0  0  0  0  0  0  0  0
   10.0880  -10.6940    3.8270 H   0  0  0  0  0  0  0  0  0  0  0  0
   11.3062   -8.2496    2.7998 H   0  0  0  0  0  0  0  0  0  0  0  0
   10.2101   -8.0942    4.2405 H   0  0  0  0  0  0  0  0  0  0  0  0
   12.8457   -8.4872    4.5121 H   0  0  0  0  0  0  0  0  0  0  0  0
   11.6434   -9.2125    5.6380 H   0  0  0  0  0  0  0  0  0  0  0  0
   13.0910  -10.3860    3.5120 H   0  0  0  0  0  0  0  0  0  0  0  0
    7.3966  -12.2277    3.3004 H   0  0  0  0  0  0  0  0  0  0  0  0
    6.0111  -11.8632    5.3459 H   0  0  0  0  0  0  0  0  0  0  0  0
    4.2809   -8.0667    7.1181 H   0  0  0  0  0  0  0  0  0  0  0  0
    5.1327   -7.6549    5.5911 H   0  0  0  0  0  0  0  0  0  0  0  0
    3.3517   -7.8889    5.5911 H   0  0  0  0  0  0  0  0  0  0  0  0
    4.7250   -8.0476    3.7865 H   0  0  0  0  0  0  0  0  0  0  0  0
    6.1073   -8.4043    1.7455 H   0  0  0  0  0  0  0  0  0  0  0  0
    6.1244   -9.6289   -2.2593 H   0  0  0  0  0  0  0  0  0  0  0  0
    3.8594   -9.8998   -3.2554 H   0  0  0  0  0  0  0  0  0  0  0  0
  1  2  1  0
  2  3  1  0
  3  4  2  0
  4  5  1  0
  5  6  2  0
  6  7  1  0
  7  8  1  0
  8  9  1  0
  9 10  2  0
 10 11  1  0
 11 12  2  0
 12 13  1  0
 13 14  1  0
 14 15  1  0
 15 16  1  0
 16 17  1  0
 13 18  2  0
 18 19  1  0
 19 20  1  0
 20 21  2  0
 21 22  1  0
 22 23  2  0
 23 24  1  0
 24 25  1  0
 23 26  1  0
 26 27  2  0
  6 28  1  0
 28 29  2  0
 29  3  1  0
 19  7  2  0
 27 20  1  0
 18  9  1  0
  1 30  1  0
  1 31  1  0
  1 32  1  0
  4 33  1  0
  5 34  1  0
 11 35  1  0
 14 36  1  0
 15 37  1  0
 15 38  1  0
 16 39  1  0
 16 40  1  0
 17 41  1  0
 21 42  1  0
 22 43  1  0
 25 44  1  0
 25 45  1  0
 25 46  1  0
 26 47  1  0
 27 48  1  0
 28 49  1  0
 29 50  1  0
M  END
>  <meeko>  (1) 
{"is_sidechain": [false], "free_energy": -8.366, "intermolecular_energy": -12.033, "internal_energy": -1.632}

$$$$
2br1_ligand
     RDKit          3D

 50 53  0  0  0  0  0  0  0  0999 V2000
   13.2770   -9.8760    2.2670 C   0  0  0  0  0  0  0  0  0  0  0  0
   12.1800   -9.3940    3.0330 O   0  0  0  0  0  0  0  0  0  0  0  0
   10.9280   -9.6980    2.5760 C   0  0  0  0  0  0  0  0  0  0  0  0
    9.8840   -9.2450    3.3840 C   0  0  0  0  0  0  0  0  0  0  0  0
    8.5510   -9.4870    3.0360 C   0  0  0  0  0  0  0  0  0  0  0  0
    8.2310  -10.1950    1.8720 C   0  0  0  0  0  0  0  0  0  0  0  0
    6.8450  -10.4690    1.4910 C   0  0  0  0  0  0  0  0  0  0  0  0
    6.6730  -10.7970    0.1740 O   0  0  0  0  0  0  0  0  0  0  0  0
    5.3510  -11.0210   -0.0360 C   0  0  0  0  0  0  0  0  0  0  0  0
    4.8650  -11.3630   -1.2360 N   0  0  0  0  0  0  0  0  0  0  0  0
    3.5440  -11.5470   -1.1870 C   0  0  0  0  0  0  0  0  0  0  0  0
    2.7350  -11.4340   -0.1180 N   0  0  0  0  0  0  0  0  0  0  0  0
    3.2580  -11.0890    1.0830 C   0  0  0  0  0  0  0  0  0  0  0  0
    2.4320  -11.0170    2.2020 N   0  0  0  0  0  0  0  0  0  0  0  0
    2.3370  -12.2050    3.0450 C   0  0  0  0  0  0  0  0  0  0  0  0
    2.1880  -11.8520    4.5270 C   0  0  0  0  0  0  0  0  0  0  0  0
    1.6370  -10.5420    4.6620 O   0  0  0  0  0  0  0  0  0  0  0  0
    4.6430  -10.8530    1.1440 C   0  0  0  0  0  0  0  0  0  0  0  0
    5.6120  -10.4780    2.1280 C   0  0  0  0  0  0  0  0  0  0  0  0
    5.4120  -10.1890    3.5320 C   0  0  0  0  0  0  0  0  0  0  0  0
    5.7530  -11.1330    4.5040 C   0  0  0  0  0  0  0  0  0  0  0  0
    5.5480  -10.8540    5.8610 C   0  0  0  0  0  0  0  0  0  0  0  0
    4.9990   -9.6320    6.2510 C   0  0  0  0  0  0  0  0  0  0  0  0
    4.7470   -9.2360    7.5360 O   0  0  0  0  0  0  0  0  0  0  0  0
    3.6150   -8.3990    7.7390 C   0  0  0  0  0  0  0  0  0  0  0  0
    4.6560   -8.6920    5.2740 C   0  0  0  0  0  0  0  0  0  0  0  0
    4.8600   -8.9650    3.9210 C   0  0  0  0  0  0  0  0  0  0  0  0
    9.2890  -10.6410    1.0640 C   0  0  0  0  0  0  0  0  0  0  0  0
   10.6250  -10.3980    1.4110 C   0  0  0  0  0  0  0  0  0  0  0  0
   14.0712  -10.2250    2.9433 H   0  0  0  0  0  0  0  0  0  0  0  0
   12.9428  -10.7102    1.6326 H   0  0  0  0  0  0  0  0  0  0  0  0
   13.6654   -9.0656    1.6326 H   0  0  0  0  0  0  0  0  0  0  0  0
   10.1124   -8.6906    4.3062 H   0  0  0  0  0  0  0  0  0  0  0  0
    7.7442   -9.1162    3.6853 H   0  0  0  0  0  0  0  0  0  0  0  0
    3.0585  -11.8243   -2.1343 H   0  0  0  0  0  0  0  0  0  0  0  0
    1.5440  -10.5640    2.0180 H   0  0  0  0  0  0  0  0  0  0  0  0
    1.4619  -12.7930    2.7312 H   0  0  0  0  0  0  0  0  0  0  0  0
    3.2681  -12.7785    2.9264 H   0  0  0  0  0  0  0  0  0  0  0  0
    1.5197  -12.5802    5.0099 H   0  0  0  0  0  0  0  0  0  0  0  0
    3.1774  -11.8797    5.0069 H   0  0  0  0  0  0  0  0  0  0  0  0
    0.6770  -10.6580    4.7700 H   0  0  0  0  0  0  0  0  0  0  0  0
    6.1841  -12.0990    4.2022 H   0  0  0  0  0  0  0  0  0  0  0  0
    5.8206  -11.6004    6.6216 H   0  0  0  0  0  0  0  0  0  0  0  0
    3.4422   -8.2712    8.8178 H   0  0  0  0  0  0  0  0  0  0  0  0
    3.7977   -7.4171    7.2781 H   0  0  0  0  0  0  0  0  0  0  0  0
    2.7297   -8.8614    7.2781 H   0  0  0  0  0  0  0  0  0  0  0  0
    4.2210   -7.7276    5.5753 H   0  0  0  0  0  0  0  0  0  0  0  0
    4.5868   -8.2179    3.1613 H   0  0  0  0  0  0  0  0  0  0  0  0
    9.0647  -11.1927    0.1392 H   0  0  0  0  0  0  0  0  0  0  0  0
   11.4356  -10.7609    0.7619 H   0  0  0  0  0  0  0  0  0  0  0  0
  1  2  1  0
  2  3  1  0
  3  4  2  0
  4  5  1  0
  5  6  2  0
  6  7  1  0
  7  8  1  0
  8  9  1  0
  9 10  2  0
 10 11  1  0
 11 12  2  0
 12 13  1  0
 13 14  1  0
 14 15  1  0
 15 16  1  0
 16 17  1  0
 13 18  2  0
 18 19  1  0
 19 20  1  0
 20 21  2  0
 21 22  1  0
 22 23  2  0
 23 24  1  0
 24 25  1  0
 23 26  1  0
 26 27  2  0
  6 28  1  0
 28 29  2  0
 29  3  1  0
 19  7  2  0
 27 20  1  0
 18  9  1  0
  1 30  1  0
  1 31  1  0
  1 32  1  0
  4 33  1  0
  5 34  1  0
 11 35  1  0
 14 36  1  0
 15 37  1  0
 15 38  1  0
 16 39  1  0
 16 40  1  0
 17 41  1  0
 21 42  1  0
 22 43  1  0
 25 44  1  0
 25 45  1  0
 25 46  1  0
 26 47  1  0
 27 48  1  0
 28 49  1  0
 29 50  1  0
M  END
>  <meeko>  (2) 
{"is_sidechain": [false], "free_energy": -7.924, "intermolecular_energy": -11.329, "internal_energy": -1.7}

$$$$
2br1_ligand
     RDKit          3D

 50 53  0  0  0  0  0  0  0  0999 V2000
   13.3610  -10.0340    6.1530 C   0  0  0  0  0  0  0  0  0  0  0  0
   13.1920   -9.1030    5.0920 O   0  0  0  0  0  0  0  0  0  0  0  0
   12.2810   -9.4260    4.1260 C   0  0  0  0  0  0  0  0  0  0  0  0
   10.9770   -9.0000    4.3840 C   0  0  0  0  0  0  0  0  0  0  0  0
    9.9430   -9.2640    3.4790 C   0  0  0  0  0  0  0  0  0  0  0  0
   10.1900   -9.9670    2.2950 C   0  0  0  0  0  0  0  0  0  0  0  0
    9.1250  -10.2640    1.3360 C   0  0  0  0  0  0  0  0  0  0  0  0
    9.5550  -10.4640    0.0530 O   0  0  0  0  0  0  0  0  0  0  0  0
    8.4700  -10.7250   -0.7200 C   0  0  0  0  0  0  0  0  0  0  0  0
    8.5700  -10.9660   -2.0330 N   0  0  0  0  0  0  0  0  0  0  0  0
    7.3730  -11.2130   -2.5700 C   0  0  0  0  0  0  0  0  0  0  0  0
    6.1800  -11.2470   -1.9470 N   0  0  0  0  0  0  0  0  0  0  0  0
    6.1150  -11.0030   -0.6160 C   0  0  0  0  0  0  0  0  0  0  0  0
    4.8900  -11.0830    0.0420 N   0  0  0  0  0  0  0  0  0  0  0  0
    3.9620  -12.1230   -0.3900 C   0  0  0  0  0  0  0  0  0  0  0  0
    2.7370  -11.5450   -1.1040 C   0  0  0  0  0  0  0  0  0  0  0  0
    3.1510  -10.6360   -2.1230 O   0  0  0  0  0  0  0  0  0  0  0  0
    7.3190  -10.7110    0.0510 C   0  0  0  0  0  0  0  0  0  0  0  0
    7.7430  -10.3940    1.3800 C   0  0  0  0  0  0  0  0  0  0  0  0
    6.9440  -10.2590    2.5790 C   0  0  0  0  0  0  0  0  0  0  0  0
    6.2700   -9.0640    2.8480 C   0  0  0  0  0  0  0  0  0  0  0  0
    5.5060   -8.9330    4.0150 C   0  0  0  0  0  0  0  0  0  0  0  0
    5.4160   -9.9930    4.9170 C   0  0  0  0  0  0  0  0  0  0  0  0
    4.7090   -9.9960    6.0880 O   0  0  0  0  0  0  0  0  0  0  0  0
    3.2920  -10.0650    5.9830 C   0  0  0  0  0  0  0  0  0  0  0  0
    6.0950  -11.1850    4.6440 C   0  0  0  0  0  0  0  0  0  0  0  0
    6.8560  -11.3210    3.4830 C   0  0  0  0  0  0  0  0  0  0  0  0
   11.5060  -10.3870    2.0420 C   0  0  0  0  0  0  0  0  0  0  0  0
   12.5430  -10.1220    2.9480 C   0  0  0  0  0  0  0  0  0  0  0  0
   13.2663   -9.5126    7.1169 H   0  0  0  0  0  0  0  0  0  0  0  0
   12.5900  -10.8153    6.0815 H   0  0  0  0  0  0  0  0  0  0  0  0
   14.3574  -10.4945    6.0815 H   0  0  0  0  0  0  0  0  0  0  0  0
   10.7594   -8.4494    5.3111 H   0  0  0  0  0  0  0  0  0  0  0  0
    8.9239   -8.9146    3.7011 H   0  0  0  0  0  0  0  0  0  0  0  0
    7.3599  -11.4128   -3.6516 H   0  0  0  0  0  0  0  0  0  0  0  0
    4.4590  -10.1790    0.2010 H   0  0  0  0  0  0  0  0  0  0  0  0
    4.4862  -12.8016   -1.0790 H   0  0  0  0  0  0  0  0  0  0  0  0
    3.6105  -12.6554    0.5061 H   0  0  0  0  0  0  0  0  0  0  0  0
    2.1600  -12.3638   -1.5585 H   0  0  0  0  0  0  0  0  0  0  0  0
    2.1123  -11.0095   -0.3739 H   0  0  0  0  0  0  0  0  0  0  0  0
    4.0690  -10.3900   -1.9160 H   0  0  0  0  0  0  0  0  0  0  0  0
    6.3398   -8.2240    2.1412 H   0  0  0  0  0  0  0  0  0  0  0  0
    4.9756   -7.9915    4.2205 H   0  0  0  0  0  0  0  0  0  0  0  0
    2.8503  -10.0865    6.9902 H   0  0  0  0  0  0  0  0  0  0  0  0
    2.9213   -9.1838    5.4388 H   0  0  0  0  0  0  0  0  0  0  0  0
    3.0087  -10.9780    5.4388 H   0  0  0  0  0  0  0  0  0  0  0  0
    6.0281  -12.0239    5.3523 H   0  0  0  0  0  0  0  0  0  0  0  0
    7.3862  -12.2630    3.2793 H   0  0  0  0  0  0  0  0  0  0  0  0
   11.7278  -10.9349    1.1143 H   0  0  0  0  0  0  0  0  0  0  0  0
   13.5650  -10.4643    2.7282 H   0  0  0  0  0  0  0  0  0  0  0  0
  1  2  1  0
  2  3  1  0
  3  4  2  0
  4  5  1  0
  5  6  2  0
  6  7  1  0
  7  8  1  0
  8  9  1  0
  9 10  2  0
 10 11  1  0
 11 12  2  0
 12 13  1  0
 13 14  1  0
 14 15  1  0
 15 16  1  0
 16 17  1  0
 13 18  2  0
 18 19  1  0
 19 20  1  0
 20 21  2  0
 21 22  1  0
 22 23  2  0
 23 24  1  0
 24 25  1  0
 23 26  1  0
 26 27  2  0
  6 28  1  0
 28 29  2  0
 29  3  1  0
 19  7  2  0
 27 20  1  0
 18  9  1  0
  1 30  1  0
  1 31  1  0
  1 32  1  0
  4 33  1  0
  5 34  1  0
 11 35  1  0
 14 36  1  0
 15 37  1  0
 15 38  1  0
 16 39  1  0
 16 40  1  0
 17 41  1  0
 21 42  1  0
 22 43  1  0
 25 44  1  0
 25 45  1  0
 25 46  1  0
 26 47  1  0
 27 48  1  0
 28 49  1  0
 29 50  1  0
M  END
>  <meeko>  (3) 
{"is_sidechain": [false], "free_energy": -7.511, "intermolecular_energy": -10.88, "internal_energy": -1.555}

$$$$
2br1_ligand
     RDKit          3D

 50 53  0  0  0  0  0  0  0  0999 V2000
   10.9190  -10.5260   -1.0300 C   0  0  0  0  0  0  0  0  0  0  0  0
   11.1720  -10.4860    0.3690 O   0  0  0  0  0  0  0  0  0  0  0  0
   10.0860  -10.3670    1.1890 C   0  0  0  0  0  0  0  0  0  0  0  0
    9.0480  -11.2610    0.9220 C   0  0  0  0  0  0  0  0  0  0  0  0
    7.8760  -11.2500    1.6850 C   0  0  0  0  0  0  0  0  0  0  0  0
    7.7120  -10.3370    2.7330 C   0  0  0  0  0  0  0  0  0  0  0  0
    6.4920  -10.2980    3.5400 C   0  0  0  0  0  0  0  0  0  0  0  0
    6.7030  -10.0920    4.8760 O   0  0  0  0  0  0  0  0  0  0  0  0
    5.4950  -10.0810    5.4970 C   0  0  0  0  0  0  0  0  0  0  0  0
    5.3710   -9.8980    6.8170 N   0  0  0  0  0  0  0  0  0  0  0  0
    4.0890   -9.9100    7.1870 C   0  0  0  0  0  0  0  0  0  0  0  0
    3.0050  -10.0660    6.4040 N   0  0  0  0  0  0  0  0  0  0  0  0
    3.1650  -10.2450    5.0710 C   0  0  0  0  0  0  0  0  0  0  0  0
    2.0460  -10.3600    4.2500 N   0  0  0  0  0  0  0  0  0  0  0  0
    0.9550  -11.2100    4.7160 C   0  0  0  0  0  0  0  0  0  0  0  0
    0.5330  -12.2370    3.6620 C   0  0  0  0  0  0  0  0  0  0  0  0
   -0.8170  -11.9980    3.2630 O   0  0  0  0  0  0  0  0  0  0  0  0
    4.4800  -10.2690    4.5720 C   0  0  0  0  0  0  0  0  0  0  0  0
    5.1300  -10.4270    3.3070 C   0  0  0  0  0  0  0  0  0  0  0  0
    4.5380  -10.6440    2.0050 C   0  0  0  0  0  0  0  0  0  0  0  0
    3.6540  -11.7070    1.7980 C   0  0  0  0  0  0  0  0  0  0  0  0
    3.0920  -11.9210    0.5330 C   0  0  0  0  0  0  0  0  0  0  0  0
    3.4120  -11.0750   -0.5290 C   0  0  0  0  0  0  0  0  0  0  0  0
    2.9360  -11.1720   -1.8080 O   0  0  0  0  0  0  0  0  0  0  0  0
    3.6020  -10.4020   -2.8010 C   0  0  0  0  0  0  0  0  0  0  0  0
    4.2990  -10.0150   -0.3180 C   0  0  0  0  0  0  0  0  0  0  0  0
    4.8610   -9.7970    0.9410 C   0  0  0  0  0  0  0  0  0  0  0  0
    8.7640   -9.4450    2.9980 C   0  0  0  0  0  0  0  0  0  0  0  0
    9.9400   -9.4570    2.2340 C   0  0  0  0  0  0  0  0  0  0  0  0
    9.8462  -10.6956   -1.2039 H   0  0  0  0  0  0  0  0  0  0  0  0
   11.2173   -9.5695   -1.4841 H   0  0  0  0  0  0  0  0  0  0  0  0
   11.4978  -11.3438   -1.4841 H   0  0  0  0  0  0  0  0  0  0  0  0
    9.1532  -11.9843    0.1000 H   0  0  0  0  0  0  0  0  0  0  0  0
    7.0735  -11.9675    1.4587 H   0  0  0  0  0  0  0  0  0  0  0  0
    3.8944   -9.7763    8.2614 H   0  0  0  0  0  0  0  0  0  0  0  0
    2.2760  -10.4750    3.2700 H   0  0  0  0  0  0  0  0  0  0  0  0
    1.2830  -11.7441    5.6199 H   0  0  0  0  0  0  0  0  0  0  0  0
    0.0891  -10.5647    4.9251 H   0  0  0  0  0  0  0  0  0  0  0  0
    1.1926  -12.1523    2.7858 H   0  0  0  0  0  0  0  0  0  0  0  0
    0.6105  -13.2474    4.0898 H   0  0  0  0  0  0  0  0  0  0  0  0
   -1.3670  -12.6240    3.7630 H   0  0  0  0  0  0  0  0  0  0  0  0
    3.3988  -12.3778    2.6316 H   0  0  0  0  0  0  0  0  0  0  0  0
    2.3963  -12.7586    0.3765 H   0  0  0  0  0  0  0  0  0  0  0  0
    4.2474   -9.6558   -2.3146 H   0  0  0  0  0  0  0  0  0  0  0  0
    4.2162  -11.0649   -3.4282 H   0  0  0  0  0  0  0  0  0  0  0  0
    2.8576   -9.8898   -3.4282 H   0  0  0  0  0  0  0  0  0  0  0  0
    4.5565   -9.3462   -1.1525 H   0  0  0  0  0  0  0  0  0  0  0  0
    5.5573   -8.9596    1.0957 H   0  0  0  0  0  0  0  0  0  0  0  0
    8.6635   -8.7225    3.8213 H   0  0  0  0  0  0  0  0  0  0  0  0
   10.7488   -8.7466    2.4602 H   0  0  0  0  0  0  0  0  0  0  0  0
  1  2  1  0
  2  3  1  0
  3  4  2  0
  4  5  1  0
  5  6  2  0
  6  7  1  0
  7  8  1  0
  8  9  1  0
  9 10  2  0
 10 11  1  0
 11 12  2  0
 12 13  1  0
 13 14  1  0
 14 15  1  0
 15 16  1  0
 16 17  1  0
 13 18  2  0
 18 19  1  0
 19 20  1  0
 20 21  2  0
 21 22  1  0
 22 23  2  0
 23 24  1  0
 24 25  1  0
 23 26  1  0
 26 27  2  0
  6 28  1  0
 28 29  2  0
 29  3  1  0
 19  7  2  0
 27 20  1  0
 18  9  1  0
  1 30  1  0
  1 31  1  0
  1 32  1  0
  4 33  1  0
  5 34  1  0
 11 35  1  0
 14 36  1  0
 15 37  1  0
 15 38  1  0
 16 39  1  0
 16 40  1  0
 17 41  1  0
 21 42  1  0
 22 43  1  0
 25 44  1  0
 25 45  1  0
 25 46  1  0
 26 47  1  0
 27 48  1  0
 28 49  1  0
 29 50  1  0
M  END
>  <meeko>  (4) 
{"is_sidechain": [false], "free_energy": -6.852, "intermolecular_energy": -10.425, "internal_energy": -1.063}

$$$$
2br1_ligand
     RDKit          3D

 50 53  0  0  0  0  0  0  0  0999 V2000
    8.4890   -7.4800    9.7560 C   0  0  0  0  0  0  0  0  0  0  0  0
    7.1290   -7.7880   10.0360 O   0  0  0  0  0  0  0  0  0  0  0  0
    6.3830   -8.2820    9.0020 C   0  0  0  0  0  0  0  0  0  0  0  0
    6.7170   -9.5770    8.6040 C   0  0  0  0  0  0  0  0  0  0  0  0
    6.0350  -10.2050    7.5570 C   0  0  0  0  0  0  0  0  0  0  0  0
    5.0020   -9.5470    6.8790 C   0  0  0  0  0  0  0  0  0  0  0  0
    4.2780  -10.1780    5.7750 C   0  0  0  0  0  0  0  0  0  0  0  0
    2.9800  -10.5030    6.0600 O   0  0  0  0  0  0  0  0  0  0  0  0
    2.4360  -11.0770    4.9560 C   0  0  0  0  0  0  0  0  0  0  0  0
    1.1690  -11.5050    4.9230 N   0  0  0  0  0  0  0  0  0  0  0  0
    0.8610  -12.0130    3.7280 C   0  0  0  0  0  0  0  0  0  0  0  0
    1.6540  -12.1090    2.6440 N   0  0  0  0  0  0  0  0  0  0  0  0
    2.9320  -11.6630    2.7090 C   0  0  0  0  0  0  0  0  0  0  0  0
    3.7410  -11.7180    1.5770 N   0  0  0  0  0  0  0  0  0  0  0  0
    3.5410  -10.6930    0.5580 C   0  0  0  0  0  0  0  0  0  0  0  0
    3.1450  -11.2910   -0.7940 C   0  0  0  0  0  0  0  0  0  0  0  0
    3.5680  -10.4290   -1.8510 O   0  0  0  0  0  0  0  0  0  0  0  0
    3.3690  -11.1230    3.9320 C   0  0  0  0  0  0  0  0  0  0  0  0
    4.5680  -10.5560    4.4710 C   0  0  0  0  0  0  0  0  0  0  0  0
    5.8460  -10.3560    3.8240 C   0  0  0  0  0  0  0  0  0  0  0  0
    6.7800  -11.3950    3.7670 C   0  0  0  0  0  0  0  0  0  0  0  0
    8.0210  -11.1940    3.1500 C   0  0  0  0  0  0  0  0  0  0  0  0
    8.3340   -9.9560    2.5900 C   0  0  0  0  0  0  0  0  0  0  0  0
    9.5050   -9.6280    1.9620 O   0  0  0  0  0  0  0  0  0  0  0  0
    9.8990  -10.4490    0.8690 C   0  0  0  0  0  0  0  0  0  0  0  0
    7.3980   -8.9190    2.6520 C   0  0  0  0  0  0  0  0  0  0  0  0
    6.1600   -9.1140    3.2650 C   0  0  0  0  0  0  0  0  0  0  0  0
    4.6690   -8.2470    7.2920 C   0  0  0  0  0  0  0  0  0  0  0  0
    5.3530   -7.6170    8.3410 C   0  0  0  0  0  0  0  0  0  0  0  0
    9.0387   -7.3555   10.7006 H   0  0  0  0  0  0  0  0  0  0  0  0
    8.9384   -8.2991    9.1754 H   0  0  0  0  0  0  0  0  0  0  0  0
    8.5417   -6.5472    9.1754 H   0  0  0  0  0  0  0  0  0  0  0  0
    7.5278  -10.1112    9.1209 H   0  0  0  0  0  0  0  0  0  0  0  0
    6.3134  -11.2277    7.2628 H   0  0  0  0  0  0  0  0  0  0  0  0
   -0.1627  -12.3994    3.6151 H   0  0  0  0  0  0  0  0  0  0  0  0
    3.8540  -12.6550    1.2090 H   0  0  0  0  0  0  0  0  0  0  0  0
    2.7436  -10.0127    0.8916 H   0  0  0  0  0  0  0  0  0  0  0  0
    4.4934  -10.1589    0.4249 H   0  0  0  0  0  0  0  0  0  0  0  0
    3.6238  -12.2743   -0.9119 H   0  0  0  0  0  0  0  0  0  0  0  0
    2.0513  -11.4020   -0.8338 H   0  0  0  0  0  0  0  0  0  0  0  0
    3.4110   -9.5200   -1.5430 H   0  0  0  0  0  0  0  0  0  0  0  0
    6.5392  -12.3734    4.2082 H   0  0  0  0  0  0  0  0  0  0  0  0
    8.7513  -12.0155    3.1070 H   0  0  0  0  0  0  0  0  0  0  0  0
   10.3453  -11.3789    1.2511 H   0  0  0  0  0  0  0  0  0  0  0  0
    9.0185  -10.6900    0.2554 H   0  0  0  0  0  0  0  0  0  0  0  0
   10.6379   -9.9128    0.2554 H   0  0  0  0  0  0  0  0  0  0  0  0
    7.6402   -7.9398    2.2131 H   0  0  0  0  0  0  0  0  0  0  0  0
    5.4316   -8.2909    3.3084 H   0  0  0  0  0  0  0  0  0  0  0  0
    3.8545   -7.7118    6.7819 H   0  0  0  0  0  0  0  0  0  0  0  0
    5.0759   -6.5961    8.6425 H   0  0  0  0  0  0  0  0  0  0  0  0
  1  2  1  0
  2  3  1  0
  3  4  2  0
  4  5  1  0
  5  6  2  0
  6  7  1  0
  7  8  1  0
  8  9  1  0
  9 10  2  0
 10 11  1  0
 11 12  2  0
 12 13  1  0
 13 14  1  0
 14 15  1  0
 15 16  1  0
 16 17  1  0
 13 18  2  0
 18 19  1  0
 19 20  1  0
 20 21  2  0
 21 22  1  0
 22 23  2  0
 23 24  1  0
 24 25  1  0
 23 26  1  0
 26 27  2  0
  6 28  1  0
 28 29  2  0
 29  3  1  0
 19  7  2  0
 27 20  1  0
 18  9  1  0
  1 30  1  0
  1 31  1  0
  1 32  1  0
  4 33  1  0
  5 34  1  0
 11 35  1  0
 14 36  1  0
 15 37  1  0
 15 38  1  0
 16 39  1  0
 16 40  1  0
 17 41  1  0
 21 42  1  0
 22 43  1  0
 25 44  1  0
 25 45  1  0
 25 46  1  0
 26 47  1  0
 27 48  1  0
 28 49  1  0
 29 50  1  0
M  END
>  <meeko>  (5) 
{"is_sidechain": [false], "free_energy": -6.743, "intermolecular_energy": -9.688, "internal_energy": -1.643}

$$$$
2br1_ligand
     RDKit          3D

 50 53  0  0  0  0  0  0  0  0999 V2000
    4.2820   -7.9120    9.5590 C   0  0  0  0  0  0  0  0  0  0  0  0
    5.2950   -8.7070    8.9570 O   0  0  0  0  0  0  0  0  0  0  0  0
    5.1420   -9.0020    7.6310 C   0  0  0  0  0  0  0  0  0  0  0  0
    5.7970  -10.1590    7.2090 C   0  0  0  0  0  0  0  0  0  0  0  0
    5.7260  -10.5800    5.8770 C   0  0  0  0  0  0  0  0  0  0  0  0
    4.9990   -9.8460    4.9330 C   0  0  0  0  0  0  0  0  0  0  0  0
    4.9160  -10.2600    3.5310 C   0  0  0  0  0  0  0  0  0  0  0  0
    3.6480  -10.5320    3.0950 O   0  0  0  0  0  0  0  0  0  0  0  0
    3.7210  -10.9010    1.7900 C   0  0  0  0  0  0  0  0  0  0  0  0
    2.6370  -11.2310    1.0780 N   0  0  0  0  0  0  0  0  0  0  0  0
    2.9600  -11.5380   -0.1800 C   0  0  0  0  0  0  0  0  0  0  0  0
    4.1830  -11.5320   -0.7420 N   0  0  0  0  0  0  0  0  0  0  0  0
    5.2600  -11.1900    0.0050 C   0  0  0  0  0  0  0  0  0  0  0  0
    6.5210  -11.1360   -0.5840 N   0  0  0  0  0  0  0  0  0  0  0  0
    6.6830  -11.7780   -1.8850 C   0  0  0  0  0  0  0  0  0  0  0  0
    7.3100  -10.8390   -2.9190 C   0  0  0  0  0  0  0  0  0  0  0  0
    8.6730  -10.5820   -2.5800 O   0  0  0  0  0  0  0  0  0  0  0  0
    5.0370  -10.8630    1.3550 C   0  0  0  0  0  0  0  0  0  0  0  0
    5.8110  -10.4650    2.4900 C   0  0  0  0  0  0  0  0  0  0  0  0
    7.2410  -10.2630    2.5860 C   0  0  0  0  0  0  0  0  0  0  0  0
    8.1230  -11.3190    2.3390 C   0  0  0  0  0  0  0  0  0  0  0  0
    9.5050  -11.1220    2.4440 C   0  0  0  0  0  0  0  0  0  0  0  0
   10.0110   -9.8720    2.7990 C   0  0  0  0  0  0  0  0  0  0  0  0
   11.3330   -9.5480    2.9370 O   0  0  0  0  0  0  0  0  0  0  0  0
   11.7270   -8.9750    4.1780 C   0  0  0  0  0  0  0  0  0  0  0  0
    9.1250   -8.8200    3.0490 C   0  0  0  0  0  0  0  0  0  0  0  0
    7.7460   -9.0100    2.9450 C   0  0  0  0  0  0  0  0  0  0  0  0
    4.3380   -8.6870    5.3690 C   0  0  0  0  0  0  0  0  0  0  0  0
    4.4090   -8.2650    6.7040 C   0  0  0  0  0  0  0  0  0  0  0  0
    4.3662   -7.9781   10.6538 H   0  0  0  0  0  0  0  0  0  0  0  0
    4.4024   -6.8648    9.2445 H   0  0  0  0  0  0  0  0  0  0  0  0
    3.2934   -8.2779    9.2445 H   0  0  0  0  0  0  0  0  0  0  0  0
    6.3775  -10.7486    7.9339 H   0  0  0  0  0  0  0  0  0  0  0  0
    6.2473  -11.4981    5.5681 H   0  0  0  0  0  0  0  0  0  0  0  0
    2.1271  -11.8310   -0.8360 H   0  0  0  0  0  0  0  0  0  0  0  0
    7.2770  -11.3150    0.0670 H   0  0  0  0  0  0  0  0  0  0  0  0
    7.3313  -12.6588   -1.7672 H   0  0  0  0  0  0  0  0  0  0  0  0
    5.6843  -12.0619   -2.2483 H   0  0  0  0  0  0  0  0  0  0  0  0
    7.2637  -11.3081   -3.9129 H   0  0  0  0  0  0  0  0  0  0  0  0
    6.7546   -9.8896   -2.9292 H   0  0  0  0  0  0  0  0  0  0  0  0
    8.7070   -9.6650   -2.2570 H   0  0  0  0  0  0  0  0  0  0  0  0
    7.7298  -12.3081    2.0612 H   0  0  0  0  0  0  0  0  0  0  0  0
   10.1942  -11.9561    2.2458 H   0  0  0  0  0  0  0  0  0  0  0  0
   11.3159   -9.5728    5.0048 H   0  0  0  0  0  0  0  0  0  0  0  0
   12.8249   -8.9634    4.2444 H   0  0  0  0  0  0  0  0  0  0  0  0
   11.3448   -7.9457    4.2444 H   0  0  0  0  0  0  0  0  0  0  0  0
    9.5186   -7.8322    3.3306 H   0  0  0  0  0  0  0  0  0  0  0  0
    7.0581   -8.1753    3.1452 H   0  0  0  0  0  0  0  0  0  0  0  0
    3.7522   -8.0977    4.6483 H   0  0  0  0  0  0  0  0  0  0  0  0
    3.8852   -7.3507    7.0197 H   0  0  0  0  0  0  0  0  0  0  0  0
  1  2  1  0
  2  3  1  0
  3  4  2  0
  4  5  1  0
  5  6  2  0
  6  7  1  0
  7  8  1  0
  8  9  1  0
  9 10  2  0
 10 11  1  0
 11 12  2  0
 12 13  1  0
 13 14  1  0
 14 15  1  0
 15 16  1  0
 16 17  1  0
 13 18  2  0
 18 19  1  0
 19 20  1  0
 20 21  2  0
 21 22  1  0
 22 23  2  0
 23 24  1  0
 24 25  1  0
 23 26  1  0
 26 27  2  0
  6 28  1  0
 28 29  2  0
 29  3  1  0
 19  7  2  0
 27 20  1  0
 18  9  1  0
  1 30  1  0
  1 31  1  0
  1 32  1  0
  4 33  1  0
  5 34  1  0
 11 35  1  0
 14 36  1  0
 15 37  1  0
 15 38  1  0
 16 39  1  0
 16 40  1  0
 17 41  1  0
 21 42  1  0
 22 43  1  0
 25 44  1  0
 25 45  1  0
 25 46  1  0
 26 47  1  0
 27 48  1  0
 28 49  1  0
 29 50  1  0
M  END
>  <meeko>  (6) 
{"is_sidechain": [false], "free_energy": -6.629, "intermolecular_energy": -9.829, "internal_energy": -1.338}

$$$$
2br1_ligand
     RDKit          3D

 50 53  0  0  0  0  0  0  0  0999 V2000
   14.0510   -9.4740    1.9940 C   0  0  0  0  0  0  0  0  0  0  0  0
   13.0680  -10.1980    1.2640 O   0  0  0  0  0  0  0  0  0  0  0  0
   11.8070  -10.2300    1.7920 C   0  0  0  0  0  0  0  0  0  0  0  0
   10.8000  -10.5630    0.8850 C   0  0  0  0  0  0  0  0  0  0  0  0
    9.4630  -10.6330    1.2900 C   0  0  0  0  0  0  0  0  0  0  0  0
    9.1020  -10.3660    2.6160 C   0  0  0  0  0  0  0  0  0  0  0  0
    7.7090  -10.4230    3.0630 C   0  0  0  0  0  0  0  0  0  0  0  0
    7.5500  -10.4240    4.4220 O   0  0  0  0  0  0  0  0  0  0  0  0
    6.2200  -10.4820    4.6900 C   0  0  0  0  0  0  0  0  0  0  0  0
    5.7430  -10.4970    5.9410 N   0  0  0  0  0  0  0  0  0  0  0  0
    4.4090  -10.5370    5.9480 C   0  0  0  0  0  0  0  0  0  0  0  0
    3.5790  -10.5510    4.8890 N   0  0  0  0  0  0  0  0  0  0  0  0
    4.0930  -10.5310    3.6360 C   0  0  0  0  0  0  0  0  0  0  0  0
    3.2370  -10.4980    2.5380 N   0  0  0  0  0  0  0  0  0  0  0  0
    2.8880  -11.7720    1.9190 C   0  0  0  0  0  0  0  0  0  0  0  0
    2.7090  -11.6490    0.4040 C   0  0  0  0  0  0  0  0  0  0  0  0
    3.5130  -12.6230   -0.2620 O   0  0  0  0  0  0  0  0  0  0  0  0
    5.4940  -10.5070    3.5100 C   0  0  0  0  0  0  0  0  0  0  0  0
    6.4620  -10.4870    2.4560 C   0  0  0  0  0  0  0  0  0  0  0  0
    6.2450  -10.4930    1.0260 C   0  0  0  0  0  0  0  0  0  0  0  0
    6.7850  -11.5100    0.2330 C   0  0  0  0  0  0  0  0  0  0  0  0
    6.5820  -11.5070   -1.1530 C   0  0  0  0  0  0  0  0  0  0  0  0
    5.8420  -10.4870   -1.7510 C   0  0  0  0  0  0  0  0  0  0  0  0
    5.5720  -10.3650   -3.0860 O   0  0  0  0  0  0  0  0  0  0  0  0
    4.2230  -10.0970   -3.4470 C   0  0  0  0  0  0  0  0  0  0  0  0
    5.3070   -9.4700   -0.9540 C   0  0  0  0  0  0  0  0  0  0  0  0
    5.5050   -9.4690    0.4270 C   0  0  0  0  0  0  0  0  0  0  0  0
   10.1230  -10.0380    3.5220 C   0  0  0  0  0  0  0  0  0  0  0  0
   11.4630   -9.9680    3.1160 C   0  0  0  0  0  0  0  0  0  0  0  0
   13.8758   -9.6030    3.0723 H   0  0  0  0  0  0  0  0  0  0  0  0
   15.0513   -9.8527    1.7371 H   0  0  0  0  0  0  0  0  0  0  0  0
   13.9860   -8.4064    1.7371 H   0  0  0  0  0  0  0  0  0  0  0  0
   11.0613  -10.7733   -0.1626 H   0  0  0  0  0  0  0  0  0  0  0  0
    8.6865  -10.9009    0.5584 H   0  0  0  0  0  0  0  0  0  0  0  0
    3.9307  -10.5615    6.9383 H   0  0  0  0  0  0  0  0  0  0  0  0
    3.4580   -9.7600    1.8790 H   0  0  0  0  0  0  0  0  0  0  0  0
    3.6901  -12.4966    2.1233 H   0  0  0  0  0  0  0  0  0  0  0  0
    1.9302  -12.1039    2.3463 H   0  0  0  0  0  0  0  0  0  0  0  0
    1.6518  -11.8118    0.1474 H   0  0  0  0  0  0  0  0  0  0  0  0
    3.0193  -10.6435    0.0836 H   0  0  0  0  0  0  0  0  0  0  0  0
    2.9810  -12.9590   -1.0040 H   0  0  0  0  0  0  0  0  0  0  0  0
    7.3714  -12.3155    0.6992 H   0  0  0  0  0  0  0  0  0  0  0  0
    7.0073  -12.3112   -1.7714 H   0  0  0  0  0  0  0  0  0  0  0  0
    3.6169   -9.9766   -2.5370 H   0  0  0  0  0  0  0  0  0  0  0  0
    4.1793   -9.1726   -4.0416 H   0  0  0  0  0  0  0  0  0  0  0  0
    3.8293  -10.9345   -4.0416 H   0  0  0  0  0  0  0  0  0  0  0  0
    4.7240   -8.6624   -1.4208 H   0  0  0  0  0  0  0  0  0  0  0  0
    5.0795   -8.6637    1.0438 H   0  0  0  0  0  0  0  0  0  0  0  0
    9.8664   -9.8318    4.5716 H   0  0  0  0  0  0  0  0  0  0  0  0
   12.2443   -9.7056    3.8445 H   0  0  0  0  0  0  0  0  0  0  0  0
  1  2  1  0
  2  3  1  0
  3  4  2  0
  4  5  1  0
  5  6  2  0
  6  7  1  0
  7  8  1  0
  8  9  1  0
  9 10  2  0
 10 11  1  0
 11 12  2  0
 12 13  1  0
 13 14  1  0
 14 15  1  0
 15 16  1  0
 16 17  1  0
 13 18  2  0
 18 19  1  0
 19 20  1  0
 20 21  2  0
 21 22  1  0
 22 23  2  0
 23 24  1  0
 24 25  1  0
 23 26  1  0
 26 27  2  0
  6 28  1  0
 28 29  2  0
 29  3  1  0
 19  7  2  0
 27 20  1  0
 18  9  1  0
  1 30  1  0
  1 31  1  0
  1 32  1  0
  4 33  1  0
  5 34  1  0
 11 35  1  0
 14 36  1  0
 15 37  1  0
 15 38  1  0
 16 39  1  0
 16 40  1  0
 17 41  1  0
 21 42  1  0
 22 43  1  0
 25 44  1  0
 25 45  1  0
 25 46  1  0
 26 47  1  0
 27 48  1  0
 28 49  1  0
 29 50  1  0
M  END
>  <meeko>  (7) 
{"is_sidechain": [false], "free_energy": -6.619, "intermolecular_energy": -10.311, "internal_energy": -0.841}

$$$$
2br1_ligand
     RDKit          3D

 50 53  0  0  0  0  0  0  0  0999 V2000
    9.9790   -7.4750    9.0840 C   0  0  0  0  0  0  0  0  0  0  0  0
    8.9060   -7.6740    9.9960 O   0  0  0  0  0  0  0  0  0  0  0  0
    7.6840   -7.9630    9.4570 C   0  0  0  0  0  0  0  0  0  0  0  0
    7.5550   -9.2600    8.9580 C   0  0  0  0  0  0  0  0  0  0  0  0
    6.3570   -9.6900    8.3780 C   0  0  0  0  0  0  0  0  0  0  0  0
    5.2580   -8.8280    8.2790 C   0  0  0  0  0  0  0  0  0  0  0  0
    3.9970   -9.2510    7.6690 C   0  0  0  0  0  0  0  0  0  0  0  0
    2.9090   -9.1580    8.4930 O   0  0  0  0  0  0  0  0  0  0  0  0
    1.8190   -9.5810    7.8020 C   0  0  0  0  0  0  0  0  0  0  0  0
    0.5960   -9.6060    8.3440 N   0  0  0  0  0  0  0  0  0  0  0  0
   -0.3110  -10.0410    7.4660 C   0  0  0  0  0  0  0  0  0  0  0  0
   -0.1110  -10.4120    6.1880 N   0  0  0  0  0  0  0  0  0  0  0  0
    1.1400  -10.3710    5.6690 C   0  0  0  0  0  0  0  0  0  0  0  0
    1.3450  -10.7090    4.3340 N   0  0  0  0  0  0  0  0  0  0  0  0
    1.5530  -12.1190    4.0220 C   0  0  0  0  0  0  0  0  0  0  0  0
    2.3810  -12.3140    2.7490 C   0  0  0  0  0  0  0  0  0  0  0  0
    2.7010  -11.0460    2.1780 O   0  0  0  0  0  0  0  0  0  0  0  0
    2.1800   -9.9440    6.5150 C   0  0  0  0  0  0  0  0  0  0  0  0
    3.5950   -9.7470    6.4360 C   0  0  0  0  0  0  0  0  0  0  0  0
    4.4800   -9.9670    5.3130 C   0  0  0  0  0  0  0  0  0  0  0  0
    4.7200   -8.9440    4.3910 C   0  0  0  0  0  0  0  0  0  0  0  0
    5.5690   -9.1640    3.2980 C   0  0  0  0  0  0  0  0  0  0  0  0
    6.1770  -10.4070    3.1220 C   0  0  0  0  0  0  0  0  0  0  0  0
    7.0220  -10.7530    2.1030 O   0  0  0  0  0  0  0  0  0  0  0  0
    6.4520  -10.8590    0.8040 C   0  0  0  0  0  0  0  0  0  0  0  0
    5.9310  -11.4280    4.0450 C   0  0  0  0  0  0  0  0  0  0  0  0
    5.0870  -11.2130    5.1360 C   0  0  0  0  0  0  0  0  0  0  0  0
    5.3970   -7.5280    8.7900 C   0  0  0  0  0  0  0  0  0  0  0  0
    6.5960   -7.0960    9.3720 C   0  0  0  0  0  0  0  0  0  0  0  0
   10.9095   -7.3024    9.6447 H   0  0  0  0  0  0  0  0  0  0  0  0
   10.0925   -8.3674    8.4510 H   0  0  0  0  0  0  0  0  0  0  0  0
    9.7649   -6.6012    8.4510 H   0  0  0  0  0  0  0  0  0  0  0  0
    8.4067   -9.9532    9.0217 H   0  0  0  0  0  0  0  0  0  0  0  0
    6.2772  -10.7180    7.9949 H   0  0  0  0  0  0  0  0  0  0  0  0
   -1.3466  -10.1037    7.8314 H   0  0  0  0  0  0  0  0  0  0  0  0
    1.9750  -10.0780    3.8520 H   0  0  0  0  0  0  0  0  0  0  0  0
    2.0793  -12.5940    4.8631 H   0  0  0  0  0  0  0  0  0  0  0  0
    0.5667  -12.5772    3.8566 H   0  0  0  0  0  0  0  0  0  0  0  0
    3.3106  -12.8473    2.9968 H   0  0  0  0  0  0  0  0  0  0  0  0
    1.7974  -12.9004    2.0240 H   0  0  0  0  0  0  0  0  0  0  0  0
    3.5850  -11.1370    1.7820 H   0  0  0  0  0  0  0  0  0  0  0  0
    4.2407   -7.9629    4.5239 H   0  0  0  0  0  0  0  0  0  0  0  0
    5.7564   -8.3545    2.5771 H   0  0  0  0  0  0  0  0  0  0  0  0
    5.3740  -11.0595    0.8919 H   0  0  0  0  0  0  0  0  0  0  0  0
    6.6064   -9.9167    0.2578 H   0  0  0  0  0  0  0  0  0  0  0  0
    6.9348  -11.6828    0.2578 H   0  0  0  0  0  0  0  0  0  0  0  0
    6.4072  -12.4104    3.9102 H   0  0  0  0  0  0  0  0  0  0  0  0
    4.9000  -12.0237    5.8556 H   0  0  0  0  0  0  0  0  0  0  0  0
    4.5460   -6.8333    8.7322 H   0  0  0  0  0  0  0  0  0  0  0  0
    6.6788   -6.0710    9.7625 H   0  0  0  0  0  0  0  0  0  0  0  0
  1  2  1  0
  2  3  1  0
  3  4  2  0
  4  5  1  0
  5  6  2  0
  6  7  1  0
  7  8  1  0
  8  9  1  0
  9 10  2  0
 10 11  1  0
 11 12  2  0
 12 13  1  0
 13 14  1  0
 14 15  1  0
 15 16  1  0
 16 17  1  0
 13 18  2  0
 18 19  1  0
 19 20  1  0
 20 21  2  0
 21 22  1  0
 22 23  2  0
 23 24  1  0
 24 25  1  0
 23 26  1  0
 26 27  2  0
  6 28  1  0
 28 29  2  0
 29  3  1  0
 19  7  2  0
 27 20  1  0
 18  9  1  0
  1 30  1  0
  1 31  1  0
  1 32  1  0
  4 33  1  0
  5 34  1  0
 11 35  1  0
 14 36  1  0
 15 37  1  0
 15 38  1  0
 16 39  1  0
 16 40  1  0
 17 41  1  0
 21 42  1  0
 22 43  1  0
 25 44  1  0
 25 45  1  0
 25 46  1  0
 26 47  1  0
 27 48  1  0
 28 49  1  0
 29 50  1  0
M  END
>  <meeko>  (8) 
{"is_sidechain": [false], "free_energy": -6.462, "intermolecular_energy": -8.976, "internal_energy": -1.951}

$$$$
2br1_ligand
     RDKit          3D

 50 53  0  0  0  0  0  0  0  0999 V2000
   -4.2690  -10.3240    2.7680 C   0  0  0  0  0  0  0  0  0  0  0  0
   -4.1840  -10.2830    4.1870 O   0  0  0  0  0  0  0  0  0  0  0  0
   -2.9410  -10.1030    4.7260 C   0  0  0  0  0  0  0  0  0  0  0  0
   -2.5660   -8.7700    4.9020 C   0  0  0  0  0  0  0  0  0  0  0  0
   -1.3190   -8.4410    5.4430 C   0  0  0  0  0  0  0  0  0  0  0  0
   -0.4140   -9.4410    5.8170 C   0  0  0  0  0  0  0  0  0  0  0  0
    0.9010   -9.1230    6.3780 C   0  0  0  0  0  0  0  0  0  0  0  0
    0.8660   -8.5870    7.6360 O   0  0  0  0  0  0  0  0  0  0  0  0
    2.1430   -8.3420    8.0250 C   0  0  0  0  0  0  0  0  0  0  0  0
    2.4380   -7.8140    9.2190 N   0  0  0  0  0  0  0  0  0  0  0  0
    3.7570   -7.6860    9.3780 C   0  0  0  0  0  0  0  0  0  0  0  0
    4.7290   -8.0270    8.5120 N   0  0  0  0  0  0  0  0  0  0  0  0
    4.3970   -8.5630    7.3130 C   0  0  0  0  0  0  0  0  0  0  0  0
    5.4010   -8.9620    6.4330 N   0  0  0  0  0  0  0  0  0  0  0  0
    5.7040  -10.3870    6.3610 C   0  0  0  0  0  0  0  0  0  0  0  0
    6.1590  -10.8110    4.9620 C   0  0  0  0  0  0  0  0  0  0  0  0
    7.3600  -10.1240    4.6110 O   0  0  0  0  0  0  0  0  0  0  0  0
    3.0290   -8.7270    7.0310 C   0  0  0  0  0  0  0  0  0  0  0  0
    2.2200   -9.2160    5.9570 C   0  0  0  0  0  0  0  0  0  0  0  0
    2.6380   -9.7490    4.6780 C   0  0  0  0  0  0  0  0  0  0  0  0
    2.4870  -11.1090    4.3950 C   0  0  0  0  0  0  0  0  0  0  0  0
    2.9020  -11.6230    3.1600 C   0  0  0  0  0  0  0  0  0  0  0  0
    3.4720  -10.7810    2.2060 C   0  0  0  0  0  0  0  0  0  0  0  0
    3.9190  -11.1520    0.9670 O   0  0  0  0  0  0  0  0  0  0  0  0
    2.9300  -11.4400   -0.0130 C   0  0  0  0  0  0  0  0  0  0  0  0
    3.6240   -9.4210    2.4950 C   0  0  0  0  0  0  0  0  0  0  0  0
    3.2110   -8.9040    3.7230 C   0  0  0  0  0  0  0  0  0  0  0  0
   -0.8030  -10.7780    5.6420 C   0  0  0  0  0  0  0  0  0  0  0  0
   -2.0530  -11.1090    5.1000 C   0  0  0  0  0  0  0  0  0  0  0  0
   -5.2230  -10.7841    2.4710 H   0  0  0  0  0  0  0  0  0  0  0  0
   -4.2151   -9.3008    2.3677 H   0  0  0  0  0  0  0  0  0  0  0  0
   -3.4347  -10.9187    2.3677 H   0  0  0  0  0  0  0  0  0  0  0  0
   -3.2603   -7.9679    4.6114 H   0  0  0  0  0  0  0  0  0  0  0  0
   -1.0462   -7.3837    5.5762 H   0  0  0  0  0  0  0  0  0  0  0  0
    4.0895   -7.2494   10.3313 H   0  0  0  0  0  0  0  0  0  0  0  0
    6.2170   -8.3620    6.4570 H   0  0  0  0  0  0  0  0  0  0  0  0
    6.5056  -10.6155    7.0788 H   0  0  0  0  0  0  0  0  0  0  0  0
    4.7838  -10.9406    6.5993 H   0  0  0  0  0  0  0  0  0  0  0  0
    6.3432  -11.8954    4.9517 H   0  0  0  0  0  0  0  0  0  0  0  0
    5.3730  -10.5596    4.2346 H   0  0  0  0  0  0  0  0  0  0  0  0
    8.0060  -10.8080    4.3630 H   0  0  0  0  0  0  0  0  0  0  0  0
    2.0405  -11.7785    5.1450 H   0  0  0  0  0  0  0  0  0  0  0  0
    2.7779  -12.6940    2.9421 H   0  0  0  0  0  0  0  0  0  0  0  0
    1.9886  -11.7141    0.4856 H   0  0  0  0  0  0  0  0  0  0  0  0
    2.7670  -10.5520   -0.6414 H   0  0  0  0  0  0  0  0  0  0  0  0
    3.2692  -12.2767   -0.6414 H   0  0  0  0  0  0  0  0  0  0  0  0
    4.0738   -8.7523    1.7463 H   0  0  0  0  0  0  0  0  0  0  0  0
    3.3360   -7.8328    3.9396 H   0  0  0  0  0  0  0  0  0  0  0  0
   -0.1131  -11.5827    5.9361 H   0  0  0  0  0  0  0  0  0  0  0  0
   -2.3329  -12.1648    4.9699 H   0  0  0  0  0  0  0  0  0  0  0  0
  1  2  1  0
  2  3  1  0
  3  4  2  0
  4  5  1  0
  5  6  2  0
  6  7  1  0
  7  8  1  0
  8  9  1  0
  9 10  2  0
 10 11  1  0
 11 12  2  0
 12 13  1  0
 13 14  1  0
 14 15  1  0
 15 16  1  0
 16 17  1  0
 13 18  2  0
 18 19  1  0
 19 20  1  0
 20 21  2  0
 21 22  1  0
 22 23  2  0
 23 24  1  0
 24 25  1  0
 23 26  1  0
 26 27  2  0
  6 28  1  0
 28 29  2  0
 29  3  1  0
 19  7  2  0
 27 20  1  0
 18  9  1  0
  1 30  1  0
  1 31  1  0
  1 32  1  0
  4 33  1  0
  5 34  1  0
 11 35  1  0
 14 36  1  0
 15 37  1  0
 15 38  1  0
 16 39  1  0
 16 40  1  0
 17 41  1  0
 21 42  1  0
 22 43  1  0
 25 44  1  0
 25 45  1  0
 25 46  1  0
 26 47  1  0
 27 48  1  0
 28 49  1  0
 29 50  1  0
M  END
>  <meeko>  (9) 
{"is_sidechain": [false], "free_energy": -6.414, "intermolecular_energy": -9.196, "internal_energy": -1.662}

$$$$
