2qe4_ligand
     RDKit          3D

 46 49  0  0  0  0  0  0  0  0999 V2000
    8.3640   11.8360   16.3950 C   0  0  0  0  0  0  0  0  0  0  0  0
    8.6290   10.4400   16.4170 O   0  0  0  0  0  0  0  0  0  0  0  0
    7.8040    9.7370   15.4850 C   0  0  0  0  0  0  0  0  0  0  0  0
    8.3550    9.8020   14.0780 C   0  0  0  0  0  0  0  0  0  0  0  0
    9.6970    9.5080   13.7980 C   0  0  0  0  0  0  0  0  0  0  0  0
   10.1770    9.5980   12.4980 C   0  0  0  0  0  0  0  0  0  0  0  0
   11.4890    9.2950   12.2810 O   0  0  0  0  0  0  0  0  0  0  0  0
    9.3420    9.9790   11.4540 C   0  0  0  0  0  0  0  0  0  0  0  0
    7.9980   10.2930   11.7070 C   0  0  0  0  0  0  0  0  0  0  0  0
    7.5170   10.2100   13.0220 C   0  0  0  0  0  0  0  0  0  0  0  0
    6.2220   10.5110   13.3560 O   0  0  0  0  0  0  0  0  0  0  0  0
    5.5270   11.4140   12.4810 C   0  0  1  0  0  0  0  0  0  0  0  0
    5.7580   12.8640   12.8960 C   0  0  0  0  0  0  0  0  0  0  0  0
    7.0310   13.3920   13.1570 C   0  0  0  0  0  0  0  0  0  0  0  0
    7.1930   14.7310   13.5260 C   0  0  0  0  0  0  0  0  0  0  0  0
    6.0840   15.5550   13.6420 C   0  0  0  0  0  0  0  0  0  0  0  0
    6.2890   16.8530   14.0040 O   0  0  0  0  0  0  0  0  0  0  0  0
    4.8090   15.0630   13.3980 C   0  0  0  0  0  0  0  0  0  0  0  0
    4.6490   13.7250   13.0290 C   0  0  0  0  0  0  0  0  0  0  0  0
    5.6630   11.0260   10.9980 C   0  0  1  0  0  0  0  0  0  0  0  0
    5.1750   12.0720    9.9790 C   0  0  0  0  0  0  0  0  0  0  0  0
    6.2590   12.1360    8.9100 C   0  0  0  0  0  0  0  0  0  0  0  0
    7.5340   11.7820    9.6610 C   0  0  0  0  0  0  0  0  0  0  0  0
    7.0840   10.6390   10.5710 C   0  0  1  0  0  0  0  0  0  0  0  0
    8.2926   12.2120   17.4263 H   0  0  0  0  0  0  0  0  0  0  0  0
    9.1795   12.3558   15.8708 H   0  0  0  0  0  0  0  0  0  0  0  0
    7.4147   12.0208   15.8708 H   0  0  0  0  0  0  0  0  0  0  0  0
    7.7396    8.6829   15.7927 H   0  0  0  0  0  0  0  0  0  0  0  0
    6.8122   10.2128   15.4834 H   0  0  0  0  0  0  0  0  0  0  0  0
   10.3725    9.2048   14.6115 H   0  0  0  0  0  0  0  0  0  0  0  0
   11.8070    8.7410   13.0110 H   0  0  0  0  0  0  0  0  0  0  0  0
    9.7353   10.0344   10.4282 H   0  0  0  0  0  0  0  0  0  0  0  0
    4.4391   11.3092   12.6052 H   0  0  0  0  0  0  0  0  0  0  0  0
    7.9150   12.7431   13.0701 H   0  0  0  0  0  0  0  0  0  0  0  0
    8.1988   15.1300   13.7239 H   0  0  0  0  0  0  0  0  0  0  0  0
    5.4270   17.2760   14.1450 H   0  0  0  0  0  0  0  0  0  0  0  0
    3.9326   15.7207   13.4943 H   0  0  0  0  0  0  0  0  0  0  0  0
    3.6381   13.3355   12.8385 H   0  0  0  0  0  0  0  0  0  0  0  0
    4.9934   10.1538   10.9680 H   0  0  0  0  0  0  0  0  0  0  0  0
    4.2172   11.7603    9.5370 H   0  0  0  0  0  0  0  0  0  0  0  0
    5.0072   13.0522   10.4491 H   0  0  0  0  0  0  0  0  0  0  0  0
    6.0619   11.4087    8.1086 H   0  0  0  0  0  0  0  0  0  0  0  0
    6.3142   13.1192    8.4198 H   0  0  0  0  0  0  0  0  0  0  0  0
    8.3225   11.4509    8.9692 H   0  0  0  0  0  0  0  0  0  0  0  0
    7.9666   12.6315   10.2099 H   0  0  0  0  0  0  0  0  0  0  0  0
    7.1118    9.6852   10.0238 H   0  0  0  0  0  0  0  0  0  0  0  0
  1  2  1  0
  2  3  1  0
  3  4  1  0
  4  5  2  0
  5  6  1  0
  6  7  1  0
  6  8  2  0
  8  9  1  0
  9 10  2  0
 10 11  1  0
 11 12  1  0
 12 13  1  0
 13 14  2  0
 14 15  1  0
 15 16  2  0
 16 17  1  0
 16 18  1  0
 18 19  2  0
 12 20  1  0
 20 21  1  0
 21 22  1  0
 22 23  1  0
 23 24  1  0
 10  4  1  0
 19 13  1  0
 24 20  1  0
 24  9  1  0
  1 25  1  0
  1 26  1  0
  1 27  1  0
  3 28  1  0
  3 29  1  0
  5 30  1  0
  7 31  1  0
  8 32  1  0
 12 33  1  1
 14 34  1  0
 15 35  1  0
 17 36  1  0
 18 37  1  0
 19 38  1  0
 20 39  1  1
 21 40  1  0
 21 41  1  0
 22 42  1  0
 22 43  1  0
 23 44  1  0
 23 45  1  0
 24 46  1  6
M  END
>  <meeko>  (1) 
{"is_sidechain": [false], "free_energy": -8.519, "intermolecular_energy": -10.511, "internal_energy": -0.848}

$$$$
2qe4_ligand
     RDKit          3D

 46 49  0  0  0  0  0  0  0  0999 V2000
    4.8370   16.1440   13.4000 C   0  0  0  0  0  0  0  0  0  0  0  0
    5.1430   14.8020   13.7510 O   0  0  0  0  0  0  0  0  0  0  0  0
    6.4890   14.4660   13.4060 C   0  0  0  0  0  0  0  0  0  0  0  0
    6.5530   13.2990   12.4440 C   0  0  0  0  0  0  0  0  0  0  0  0
    5.6010   13.1270   11.4300 C   0  0  0  0  0  0  0  0  0  0  0  0
    5.6760   12.0340   10.5770 C   0  0  0  0  0  0  0  0  0  0  0  0
    4.7270   11.9190    9.6040 O   0  0  0  0  0  0  0  0  0  0  0  0
    6.6910   11.0940   10.7110 C   0  0  0  0  0  0  0  0  0  0  0  0
    7.6500   11.2330   11.7260 C   0  0  0  0  0  0  0  0  0  0  0  0
    7.5670   12.3330   12.5910 C   0  0  0  0  0  0  0  0  0  0  0  0
    8.4560   12.5360   13.6150 O   0  0  0  0  0  0  0  0  0  0  0  0
    9.1190   11.3710   14.1310 C   0  0  1  0  0  0  0  0  0  0  0  0
    8.2980   10.7200   15.2410 C   0  0  0  0  0  0  0  0  0  0  0  0
    7.0260   10.1700   15.0300 C   0  0  0  0  0  0  0  0  0  0  0  0
    6.3150    9.5770   16.0780 C   0  0  0  0  0  0  0  0  0  0  0  0
    6.8670    9.5310   17.3500 C   0  0  0  0  0  0  0  0  0  0  0  0
    6.1390    8.9430   18.3410 O   0  0  0  0  0  0  0  0  0  0  0  0
    8.1220   10.0730   17.5950 C   0  0  0  0  0  0  0  0  0  0  0  0
    8.8310   10.6650   16.5460 C   0  0  0  0  0  0  0  0  0  0  0  0
    9.7130   10.4860   13.0210 C   0  0  1  0  0  0  0  0  0  0  0  0
   10.2100    9.0970   13.4570 C   0  0  0  0  0  0  0  0  0  0  0  0
    9.6810    8.1270   12.4080 C   0  0  0  0  0  0  0  0  0  0  0  0
    8.3950    8.7780   11.9230 C   0  0  0  0  0  0  0  0  0  0  0  0
    8.7810   10.2550   11.8260 C   0  0  1  0  0  0  0  0  0  0  0  0
    4.7010   16.7403   14.3143 H   0  0  0  0  0  0  0  0  0  0  0  0
    5.6622   16.5651   12.8069 H   0  0  0  0  0  0  0  0  0  0  0  0
    3.9108   16.1658   12.8069 H   0  0  0  0  0  0  0  0  0  0  0  0
    6.9640   15.3399   12.9364 H   0  0  0  0  0  0  0  0  0  0  0  0
    7.0139   14.1756   14.3281 H   0  0  0  0  0  0  0  0  0  0  0  0
    4.7908   13.8612   11.3094 H   0  0  0  0  0  0  0  0  0  0  0  0
    4.0240   12.5660    9.7740 H   0  0  0  0  0  0  0  0  0  0  0  0
    6.7427   10.2395   10.0202 H   0  0  0  0  0  0  0  0  0  0  0  0
   10.0394   11.6568   14.6612 H   0  0  0  0  0  0  0  0  0  0  0  0
    6.5804   10.2054   14.0249 H   0  0  0  0  0  0  0  0  0  0  0  0
    5.3192    9.1475   15.8941 H   0  0  0  0  0  0  0  0  0  0  0  0
    5.2060    9.1810   18.2220 H   0  0  0  0  0  0  0  0  0  0  0  0
    8.5543   10.0367   18.6059 H   0  0  0  0  0  0  0  0  0  0  0  0
    9.8238   11.0964   16.7418 H   0  0  0  0  0  0  0  0  0  0  0  0
   10.5769   11.1022   12.7310 H   0  0  0  0  0  0  0  0  0  0  0  0
   11.3094    9.0729   13.4830 H   0  0  0  0  0  0  0  0  0  0  0  0
    9.8595    8.8368   14.4667 H   0  0  0  0  0  0  0  0  0  0  0  0
   10.3985    8.0146   11.5818 H   0  0  0  0  0  0  0  0  0  0  0  0
    9.5193    7.1155   12.8089 H   0  0  0  0  0  0  0  0  0  0  0  0
    8.0952    8.3812   10.9418 H   0  0  0  0  0  0  0  0  0  0  0  0
    7.5362    8.5941   12.5852 H   0  0  0  0  0  0  0  0  0  0  0  0
    9.2755   10.4560   10.8642 H   0  0  0  0  0  0  0  0  0  0  0  0
  1  2  1  0
  2  3  1  0
  3  4  1  0
  4  5  2  0
  5  6  1  0
  6  7  1  0
  6  8  2  0
  8  9  1  0
  9 10  2  0
 10 11  1  0
 11 12  1  0
 12 13  1  0
 13 14  2  0
 14 15  1  0
 15 16  2  0
 16 17  1  0
 16 18  1  0
 18 19  2  0
 12 20  1  0
 20 21  1  0
 21 22  1  0
 22 23  1  0
 23 24  1  0
 10  4  1  0
 19 13  1  0
 24 20  1  0
 24  9  1  0
  1 25  1  0
  1 26  1  0
  1 27  1  0
  3 28  1  0
  3 29  1  0
  5 30  1  0
  7 31  1  0
  8 32  1  0
 12 33  1  1
 14 34  1  0
 15 35  1  0
 17 36  1  0
 18 37  1  0
 19 38  1  0
 20 39  1  6
 21 40  1  0
 21 41  1  0
 22 42  1  0
 22 43  1  0
 23 44  1  0
 23 45  1  0
 24 46  1  6
M  END
>  <meeko>  (2) 
{"is_sidechain": [false], "free_energy": -7.711, "intermolecular_energy": -9.552, "internal_energy": -0.81}

$$$$
2qe4_ligand
     RDKit          3D

 46 49  0  0  0  0  0  0  0  0999 V2000
   11.3720    9.3170   13.3900 C   0  0  0  0  0  0  0  0  0  0  0  0
   11.3360    8.5210   12.2140 O   0  0  0  0  0  0  0  0  0  0  0  0
    9.9920    8.2830   11.7860 C   0  0  0  0  0  0  0  0  0  0  0  0
    9.4150    9.4690   11.0450 C   0  0  0  0  0  0  0  0  0  0  0  0
   10.0070    9.9650    9.8750 C   0  0  0  0  0  0  0  0  0  0  0  0
    9.4640   11.0680    9.2290 C   0  0  0  0  0  0  0  0  0  0  0  0
   10.0770   11.5060    8.0910 O   0  0  0  0  0  0  0  0  0  0  0  0
    8.3300   11.7000    9.7270 C   0  0  0  0  0  0  0  0  0  0  0  0
    7.7250   11.2340   10.9040 C   0  0  0  0  0  0  0  0  0  0  0  0
    8.2800   10.1240   11.5590 C   0  0  0  0  0  0  0  0  0  0  0  0
    7.7580    9.6140   12.7190 O   0  0  0  0  0  0  0  0  0  0  0  0
    7.0010   10.5210   13.5370 C   0  0  1  0  0  0  0  0  0  0  0  0
    7.9090   11.2670   14.5110 C   0  0  0  0  0  0  0  0  0  0  0  0
    7.8910   11.0460   15.8950 C   0  0  0  0  0  0  0  0  0  0  0  0
    8.7490   11.7490   16.7470 C   0  0  0  0  0  0  0  0  0  0  0  0
    9.6300   12.6840   16.2250 C   0  0  0  0  0  0  0  0  0  0  0  0
   10.4470   13.3450   17.0930 O   0  0  0  0  0  0  0  0  0  0  0  0
    9.6680   12.9320   14.8600 C   0  0  0  0  0  0  0  0  0  0  0  0
    8.8110   12.2280   14.0090 C   0  0  0  0  0  0  0  0  0  0  0  0
    5.9530   11.3110   12.7330 C   0  0  1  0  0  0  0  0  0  0  0  0
    5.2800   12.4840   13.4690 C   0  0  0  0  0  0  0  0  0  0  0  0
    5.2830   13.6410   12.4780 C   0  0  0  0  0  0  0  0  0  0  0  0
    6.5130   13.3870   11.6210 C   0  0  0  0  0  0  0  0  0  0  0  0
    6.4660   11.8740   11.4020 C   0  0  1  0  0  0  0  0  0  0  0  0
   11.3425    8.6648   14.2753 H   0  0  0  0  0  0  0  0  0  0  0  0
   12.2979    9.9107   13.4027 H   0  0  0  0  0  0  0  0  0  0  0  0
   10.5035    9.9919   13.4027 H   0  0  0  0  0  0  0  0  0  0  0  0
    9.9812    7.4082   11.1193 H   0  0  0  0  0  0  0  0  0  0  0  0
    9.3762    8.1089   12.6807 H   0  0  0  0  0  0  0  0  0  0  0  0
   10.9053    9.4786    9.4670 H   0  0  0  0  0  0  0  0  0  0  0  0
   10.4570   12.3830    8.2570 H   0  0  0  0  0  0  0  0  0  0  0  0
    7.9067   12.5663    9.1976 H   0  0  0  0  0  0  0  0  0  0  0  0
    6.3396    9.9646   14.2174 H   0  0  0  0  0  0  0  0  0  0  0  0
    7.1920   10.3090   16.3172 H   0  0  0  0  0  0  0  0  0  0  0  0
    8.7249   11.5603   17.8304 H   0  0  0  0  0  0  0  0  0  0  0  0
   10.0230   13.3630   17.9650 H   0  0  0  0  0  0  0  0  0  0  0  0
   10.3669   13.6765   14.4510 H   0  0  0  0  0  0  0  0  0  0  0  0
    8.8407   12.4273   12.9276 H   0  0  0  0  0  0  0  0  0  0  0  0
    5.2090   10.5189   12.5626 H   0  0  0  0  0  0  0  0  0  0  0  0
    4.2495   12.2211   13.7501 H   0  0  0  0  0  0  0  0  0  0  0  0
    5.8097   12.7409   14.3982 H   0  0  0  0  0  0  0  0  0  0  0  0
    4.3702   13.6327   11.8643 H   0  0  0  0  0  0  0  0  0  0  0  0
    5.3070   14.6229   12.9732 H   0  0  0  0  0  0  0  0  0  0  0  0
    6.4488   13.9280   10.6654 H   0  0  0  0  0  0  0  0  0  0  0  0
    7.4478   13.7309   12.0877 H   0  0  0  0  0  0  0  0  0  0  0  0
    5.8001   11.6325   10.5604 H   0  0  0  0  0  0  0  0  0  0  0  0
  1  2  1  0
  2  3  1  0
  3  4  1  0
  4  5  2  0
  5  6  1  0
  6  7  1  0
  6  8  2  0
  8  9  1  0
  9 10  2  0
 10 11  1  0
 11 12  1  0
 12 13  1  0
 13 14  2  0
 14 15  1  0
 15 16  2  0
 16 17  1  0
 16 18  1  0
 18 19  2  0
 12 20  1  0
 20 21  1  0
 21 22  1  0
 22 23  1  0
 23 24  1  0
 10  4  1  0
 19 13  1  0
 24 20  1  0
 24  9  1  0
  1 25  1  0
  1 26  1  0
  1 27  1  0
  3 28  1  0
  3 29  1  0
  5 30  1  0
  7 31  1  0
  8 32  1  0
 12 33  1  1
 14 34  1  0
 15 35  1  0
 17 36  1  0
 18 37  1  0
 19 38  1  0
 20 39  1  6
 21 40  1  0
 21 41  1  0
 22 42  1  0
 22 43  1  0
 23 44  1  0
 23 45  1  0
 24 46  1  6
M  END
>  <meeko>  (3) 
{"is_sidechain": [false], "free_energy": -6.838, "intermolecular_energy": -8.519, "internal_energy": -0.767}

$$$$
2qe4_ligand
     RDKit          3D

 46 49  0  0  0  0  0  0  0  0999 V2000
    9.4730   10.3520    9.8910 C   0  0  0  0  0  0  0  0  0  0  0  0
    8.1880   10.8080    9.4910 O   0  0  0  0  0  0  0  0  0  0  0  0
    7.1720   10.3680   10.3950 C   0  0  0  0  0  0  0  0  0  0  0  0
    6.9690   11.3390   11.5370 C   0  0  0  0  0  0  0  0  0  0  0  0
    6.5010   12.6430   11.3200 C   0  0  0  0  0  0  0  0  0  0  0  0
    6.3450   13.5170   12.3870 C   0  0  0  0  0  0  0  0  0  0  0  0
    5.8800   14.7720   12.1200 O   0  0  0  0  0  0  0  0  0  0  0  0
    6.6470   13.1210   13.6850 C   0  0  0  0  0  0  0  0  0  0  0  0
    7.1310   11.8270   13.9300 C   0  0  0  0  0  0  0  0  0  0  0  0
    7.2960   10.9470   12.8490 C   0  0  0  0  0  0  0  0  0  0  0  0
    7.7740    9.6720   13.0010 O   0  0  0  0  0  0  0  0  0  0  0  0
    8.6010    9.4280   14.1500 C   0  0  1  0  0  0  0  0  0  0  0  0
   10.0660    9.7240   13.8430 C   0  0  0  0  0  0  0  0  0  0  0  0
   10.7510   10.8280   14.3730 C   0  0  0  0  0  0  0  0  0  0  0  0
   12.0970   11.0530   14.0680 C   0  0  0  0  0  0  0  0  0  0  0  0
   12.7720   10.1800   13.2270 C   0  0  0  0  0  0  0  0  0  0  0  0
   14.0830   10.4390   12.9580 O   0  0  0  0  0  0  0  0  0  0  0  0
   12.1220    9.0820   12.6800 C   0  0  0  0  0  0  0  0  0  0  0  0
   10.7760    8.8580   12.9860 C   0  0  0  0  0  0  0  0  0  0  0  0
    7.9830    9.9690   15.4520 C   0  0  1  0  0  0  0  0  0  0  0  0
    8.9070    9.9870   16.6820 C   0  0  0  0  0  0  0  0  0  0  0  0
    8.6990   11.3510   17.3290 C   0  0  0  0  0  0  0  0  0  0  0  0
    8.3340   12.2570   16.1630 C   0  0  0  0  0  0  0  0  0  0  0  0
    7.3930   11.3800   15.3360 C   0  0  1  0  0  0  0  0  0  0  0  0
    9.5294   10.3320   10.9894 H   0  0  0  0  0  0  0  0  0  0  0  0
    9.6418    9.3391    9.4966 H   0  0  0  0  0  0  0  0  0  0  0  0
   10.2425   11.0319    9.4966 H   0  0  0  0  0  0  0  0  0  0  0  0
    6.2258   10.2661    9.8433 H   0  0  0  0  0  0  0  0  0  0  0  0
    7.4905    9.4051   10.8209 H   0  0  0  0  0  0  0  0  0  0  0  0
    6.2565   12.9746   10.3001 H   0  0  0  0  0  0  0  0  0  0  0  0
    6.3860   15.4120   12.6450 H   0  0  0  0  0  0  0  0  0  0  0  0
    6.5064   13.8226   14.5205 H   0  0  0  0  0  0  0  0  0  0  0  0
    8.6265    8.3533   14.3833 H   0  0  0  0  0  0  0  0  0  0  0  0
   10.2216   11.5264   15.0379 H   0  0  0  0  0  0  0  0  0  0  0  0
   12.6203   11.9215   14.4945 H   0  0  0  0  0  0  0  0  0  0  0  0
   14.3720   11.1810   13.5130 H   0  0  0  0  0  0  0  0  0  0  0  0
   12.6610    8.3943   12.0118 H   0  0  0  0  0  0  0  0  0  0  0  0
   10.2611    7.9894   12.5497 H   0  0  0  0  0  0  0  0  0  0  0  0
    7.1896    9.2234   15.6087 H   0  0  0  0  0  0  0  0  0  0  0  0
    8.6314    9.1839   17.3814 H   0  0  0  0  0  0  0  0  0  0  0  0
    9.9587    9.8237   16.4042 H   0  0  0  0  0  0  0  0  0  0  0  0
    7.8835   11.3142   18.0663 H   0  0  0  0  0  0  0  0  0  0  0  0
    9.5867   11.7008   17.8763 H   0  0  0  0  0  0  0  0  0  0  0  0
    7.8235   13.1666   16.5124 H   0  0  0  0  0  0  0  0  0  0  0  0
    9.2077   12.6132   15.5975 H   0  0  0  0  0  0  0  0  0  0  0  0
    6.3697   11.4397   15.7352 H   0  0  0  0  0  0  0  0  0  0  0  0
  1  2  1  0
  2  3  1  0
  3  4  1  0
  4  5  2  0
  5  6  1  0
  6  7  1  0
  6  8  2  0
  8  9  1  0
  9 10  2  0
 10 11  1  0
 11 12  1  0
 12 13  1  0
 13 14  2  0
 14 15  1  0
 15 16  2  0
 16 17  1  0
 16 18  1  0
 18 19  2  0
 12 20  1  0
 20 21  1  0
 21 22  1  0
 22 23  1  0
 23 24  1  0
 10  4  1  0
 19 13  1  0
 24 20  1  0
 24  9  1  0
  1 25  1  0
  1 26  1  0
  1 27  1  0
  3 28  1  0
  3 29  1  0
  5 30  1  0
  7 31  1  0
  8 32  1  0
 12 33  1  1
 14 34  1  0
 15 35  1  0
 17 36  1  0
 18 37  1  0
 19 38  1  0
 20 39  1  1
 21 40  1  0
 21 41  1  0
 22 42  1  0
 22 43  1  0
 23 44  1  0
 23 45  1  0
 24 46  1  1
M  END
>  <meeko>  (4) 
{"is_sidechain": [false], "free_energy": -6.73, "intermolecular_energy": -8.611, "internal_energy": -0.541}

$$$$
2qe4_ligand
     RDKit          3D

 46 49  0  0  0  0  0  0  0  0999 V2000
   11.9540    8.8360   19.6410 C   0  0  0  0  0  0  0  0  0  0  0  0
   10.5580    9.0980   19.6470 O   0  0  0  0  0  0  0  0  0  0  0  0
   10.2140   10.1150   18.7030 C   0  0  0  0  0  0  0  0  0  0  0  0
    8.8230    9.9210   18.1420 C   0  0  0  0  0  0  0  0  0  0  0  0
    7.8810    9.1000   18.7760 C   0  0  0  0  0  0  0  0  0  0  0  0
    6.6180    8.9260   18.2240 C   0  0  0  0  0  0  0  0  0  0  0  0
    5.7390    8.1200   18.8870 O   0  0  0  0  0  0  0  0  0  0  0  0
    6.2650    9.5590   17.0390 C   0  0  0  0  0  0  0  0  0  0  0  0
    7.1920   10.3760   16.3740 C   0  0  0  0  0  0  0  0  0  0  0  0
    8.4690   10.5440   16.9290 C   0  0  0  0  0  0  0  0  0  0  0  0
    9.4370   11.3140   16.3370 O   0  0  0  0  0  0  0  0  0  0  0  0
    9.3330   11.4970   14.9170 C   0  0  1  0  0  0  0  0  0  0  0  0
   10.0510   10.3780   14.1670 C   0  0  0  0  0  0  0  0  0  0  0  0
    9.3730    9.3480   13.4980 C   0  0  0  0  0  0  0  0  0  0  0  0
   10.0750    8.3490   12.8170 C   0  0  0  0  0  0  0  0  0  0  0  0
   11.4620    8.3650   12.8010 C   0  0  0  0  0  0  0  0  0  0  0  0
   12.1050    7.3720   12.1250 O   0  0  0  0  0  0  0  0  0  0  0  0
   12.1640    9.3670   13.4590 C   0  0  0  0  0  0  0  0  0  0  0  0
   11.4600   10.3650   14.1390 C   0  0  0  0  0  0  0  0  0  0  0  0
    7.9180   11.9100   14.4730 C   0  0  1  0  0  0  0  0  0  0  0  0
    7.6470   11.8740   12.9590 C   0  0  0  0  0  0  0  0  0  0  0  0
    6.2910   11.1970   12.8030 C   0  0  0  0  0  0  0  0  0  0  0  0
    6.2100   10.2610   13.9990 C   0  0  0  0  0  0  0  0  0  0  0  0
    6.7880   11.1100   15.1320 C   0  0  1  0  0  0  0  0  0  0  0  0
   12.3187    8.7676   20.6765 H   0  0  0  0  0  0  0  0  0  0  0  0
   12.1466    7.8860   19.1209 H   0  0  0  0  0  0  0  0  0  0  0  0
   12.4779    9.6515   19.1209 H   0  0  0  0  0  0  0  0  0  0  0  0
   10.2620   11.0939   19.2024 H   0  0  0  0  0  0  0  0  0  0  0  0
   10.9278   10.0586   17.8679 H   0  0  0  0  0  0  0  0  0  0  0  0
    8.1427    8.5908   19.7153 H   0  0  0  0  0  0  0  0  0  0  0  0
    4.8350    8.4100   18.6840 H   0  0  0  0  0  0  0  0  0  0  0  0
    5.2570    9.4196   16.6212 H   0  0  0  0  0  0  0  0  0  0  0  0
    9.8983   12.3866   14.6024 H   0  0  0  0  0  0  0  0  0  0  0  0
    8.2733    9.3261   13.5094 H   0  0  0  0  0  0  0  0  0  0  0  0
    9.5278    7.5507   12.2942 H   0  0  0  0  0  0  0  0  0  0  0  0
   11.9320    6.5290   12.5750 H   0  0  0  0  0  0  0  0  0  0  0  0
   13.2639    9.3750   13.4451 H   0  0  0  0  0  0  0  0  0  0  0  0
   12.0169   11.1560   14.6627 H   0  0  0  0  0  0  0  0  0  0  0  0
    7.9102   12.9555   14.8148 H   0  0  0  0  0  0  0  0  0  0  0  0
    7.6163   12.8946   12.5498 H   0  0  0  0  0  0  0  0  0  0  0  0
    8.4370   11.3342   12.4162 H   0  0  0  0  0  0  0  0  0  0  0  0
    5.4783   11.9378   12.8300 H   0  0  0  0  0  0  0  0  0  0  0  0
    6.1882   10.6692   11.8434 H   0  0  0  0  0  0  0  0  0  0  0  0
    5.1687    9.9755   14.2091 H   0  0  0  0  0  0  0  0  0  0  0  0
    6.7465    9.3127   13.8475 H   0  0  0  0  0  0  0  0  0  0  0  0
    6.0079   11.7594   15.5560 H   0  0  0  0  0  0  0  0  0  0  0  0
  1  2  1  0
  2  3  1  0
  3  4  1  0
  4  5  2  0
  5  6  1  0
  6  7  1  0
  6  8  2  0
  8  9  1  0
  9 10  2  0
 10 11  1  0
 11 12  1  0
 12 13  1  0
 13 14  2  0
 14 15  1  0
 15 16  2  0
 16 17  1  0
 16 18  1  0
 18 19  2  0
 12 20  1  0
 20 21  1  0
 21 22  1  0
 22 23  1  0
 23 24  1  0
 10  4  1  0
 19 13  1  0
 24 20  1  0
 24  9  1  0
  1 25  1  0
  1 26  1  0
  1 27  1  0
  3 28  1  0
  3 29  1  0
  5 30  1  0
  7 31  1  0
  8 32  1  0
 12 33  1  1
 14 34  1  0
 15 35  1  0
 17 36  1  0
 18 37  1  0
 19 38  1  0
 20 39  1  1
 21 40  1  0
 21 41  1  0
 22 42  1  0
 22 43  1  0
 23 44  1  0
 23 45  1  0
 24 46  1  1
M  END
>  <meeko>  (5) 
{"is_sidechain": [false], "free_energy": -6.618, "intermolecular_energy": -8.593, "internal_energy": -0.42}

$$$$
2qe4_ligand
     RDKit          3D

 46 49  0  0  0  0  0  0  0  0999 V2000
   11.9480   11.1100   21.1690 C   0  0  0  0  0  0  0  0  0  0  0  0
   11.9470    9.6910   21.2340 O   0  0  0  0  0  0  0  0  0  0  0  0
   11.7100    9.1100   19.9490 C   0  0  0  0  0  0  0  0  0  0  0  0
   10.7090    7.9780   20.0150 C   0  0  0  0  0  0  0  0  0  0  0  0
   11.1140    6.6410   20.1260 C   0  0  0  0  0  0  0  0  0  0  0  0
   10.1700    5.6230   20.1630 C   0  0  0  0  0  0  0  0  0  0  0  0
   10.6200    4.3410   20.2780 O   0  0  0  0  0  0  0  0  0  0  0  0
    8.8110    5.9080   20.0910 C   0  0  0  0  0  0  0  0  0  0  0  0
    8.3770    7.2360   19.9660 C   0  0  0  0  0  0  0  0  0  0  0  0
    9.3320    8.2620   19.9200 C   0  0  0  0  0  0  0  0  0  0  0  0
    8.9920    9.5830   19.7870 O   0  0  0  0  0  0  0  0  0  0  0  0
    7.7320    9.8620   19.1570 C   0  0  1  0  0  0  0  0  0  0  0  0
    7.8850    9.9570   17.6420 C   0  0  0  0  0  0  0  0  0  0  0  0
    6.9820    9.3720   16.7430 C   0  0  0  0  0  0  0  0  0  0  0  0
    7.1600    9.4930   15.3620 C   0  0  0  0  0  0  0  0  0  0  0  0
    8.2470   10.1970   14.8640 C   0  0  0  0  0  0  0  0  0  0  0  0
    8.3810   10.2900   13.5100 O   0  0  0  0  0  0  0  0  0  0  0  0
    9.1640   10.7830   15.7260 C   0  0  0  0  0  0  0  0  0  0  0  0
    8.9830   10.6610   17.1070 C   0  0  0  0  0  0  0  0  0  0  0  0
    6.5780    9.0280   19.7440 C   0  0  1  0  0  0  0  0  0  0  0  0
    5.2520    9.0670   18.9650 C   0  0  0  0  0  0  0  0  0  0  0  0
    4.7800    7.6200   18.8920 C   0  0  0  0  0  0  0  0  0  0  0  0
    6.0690    6.8130   18.9100 C   0  0  0  0  0  0  0  0  0  0  0  0
    6.9110    7.5460   19.9560 C   0  0  1  0  0  0  0  0  0  0  0  0
   11.9483   11.5237   22.1882 H   0  0  0  0  0  0  0  0  0  0  0  0
   12.8464   11.4519   20.6342 H   0  0  0  0  0  0  0  0  0  0  0  0
   11.0501   11.4532   20.6342 H   0  0  0  0  0  0  0  0  0  0  0  0
   11.3231    9.8873   19.2737 H   0  0  0  0  0  0  0  0  0  0  0  0
   12.6621    8.7006   19.5803 H   0  0  0  0  0  0  0  0  0  0  0  0
   12.1849    6.3966   20.1841 H   0  0  0  0  0  0  0  0  0  0  0  0
    9.8620    3.7380   20.2320 H   0  0  0  0  0  0  0  0  0  0  0  0
    8.0754    5.0912   20.1321 H   0  0  0  0  0  0  0  0  0  0  0  0
    7.3888   10.8742   19.4172 H   0  0  0  0  0  0  0  0  0  0  0  0
    6.1201    8.8091   17.1306 H   0  0  0  0  0  0  0  0  0  0  0  0
    6.4395    9.0309   14.6711 H   0  0  0  0  0  0  0  0  0  0  0  0
    8.3290    9.3980   13.1320 H   0  0  0  0  0  0  0  0  0  0  0  0
   10.0252   11.3383   15.3261 H   0  0  0  0  0  0  0  0  0  0  0  0
    9.7115   11.1233   17.7893 H   0  0  0  0  0  0  0  0  0  0  0  0
    6.4436    9.5416   20.7074 H   0  0  0  0  0  0  0  0  0  0  0  0
    4.5130    9.6862   19.4947 H   0  0  0  0  0  0  0  0  0  0  0  0
    5.3793    9.5057   17.9643 H   0  0  0  0  0  0  0  0  0  0  0  0
    4.1496    7.3699   19.7581 H   0  0  0  0  0  0  0  0  0  0  0  0
    4.1660    7.4186   18.0018 H   0  0  0  0  0  0  0  0  0  0  0  0
    5.8808    5.7719   19.2111 H   0  0  0  0  0  0  0  0  0  0  0  0
    6.5562    6.7472   17.9260 H   0  0  0  0  0  0  0  0  0  0  0  0
    6.6497    7.1986   20.9665 H   0  0  0  0  0  0  0  0  0  0  0  0
  1  2  1  0
  2  3  1  0
  3  4  1  0
  4  5  2  0
  5  6  1  0
  6  7  1  0
  6  8  2  0
  8  9  1  0
  9 10  2  0
 10 11  1  0
 11 12  1  0
 12 13  1  0
 13 14  2  0
 14 15  1  0
 15 16  2  0
 16 17  1  0
 16 18  1  0
 18 19  2  0
 12 20  1  0
 20 21  1  0
 21 22  1  0
 22 23  1  0
 23 24  1  0
 10  4  1  0
 19 13  1  0
 24 20  1  0
 24  9  1  0
  1 25  1  0
  1 26  1  0
  1 27  1  0
  3 28  1  0
  3 29  1  0
  5 30  1  0
  7 31  1  0
  8 32  1  0
 12 33  1  1
 14 34  1  0
 15 35  1  0
 17 36  1  0
 18 37  1  0
 19 38  1  0
 20 39  1  1
 21 40  1  0
 21 41  1  0
 22 42  1  0
 22 43  1  0
 23 44  1  0
 23 45  1  0
 24 46  1  1
M  END
>  <meeko>  (6) 
{"is_sidechain": [false], "free_energy": -5.659, "intermolecular_energy": -7.622, "internal_energy": -0.208}

$$$$
