
     RDKit          3D

 12 11  0  0  0  0  0  0  0  0999 V2000
    5.3290   -8.7200   11.6310 C   0  0  0  0  0  0  0  0  0  0  0  0
    4.8830   -8.3280   10.2220 C   0  0  0  0  0  0  0  0  0  0  0  0
    5.6590   -7.1350    9.7130 C   0  0  0  0  0  0  0  0  0  0  0  0
    5.3340   -6.8510    8.2790 C   0  0  0  0  0  0  0  0  0  0  0  0
    6.1070   -5.6810    7.7520 C   0  0  0  0  0  0  0  0  0  0  0  0
    7.3780   -6.1380    7.0920 C   0  0  0  0  0  0  0  0  0  0  0  0
    7.5480   -5.5100    5.7360 C   0  0  0  0  0  0  0  0  0  0  0  0
    8.9390   -5.7150    5.2150 C   0  0  0  0  0  0  0  0  0  0  0  0
    8.9830   -5.6380    3.7290 C   0  0  0  0  0  0  0  0  0  0  0  0
    9.2000   -4.2410    3.2110 C   0  0  0  0  0  0  0  0  0  0  0  0
    9.8400   -3.4510    3.8820 O   0  0  0  0  0  0  0  0  0  0  0  0
    8.7090   -3.9470    2.1140 O   0  0  0  0  0  0  0  0  0  0  0  0
  2  1  1  0
  3  2  1  0
  4  3  1  0
  5  4  1  0
  6  5  1  0
  7  6  1  0
  8  7  1  0
  9  8  1  0
 10  9  1  0
 11 10  2  0
 12 10  1  0
M  CHG  1  12  -1
M  END
$$$$
