2cet_ligand
     RDKit          3D

 43 45  0  0  0  0  0  0  0  0999 V2000
    6.0170    0.7840   10.1210 O   0  0  0  0  0  0  0  0  0  0  0  0
    6.3430    1.5550    8.9610 C   0  0  0  0  0  0  0  0  0  0  0  0
    7.8780    1.6310    8.8060 C   0  0  2  0  0  0  0  0  0  0  0  0
    8.4570    2.6180    9.8820 C   0  0  1  0  0  0  0  0  0  0  0  0
    9.2890    1.8720   10.7900 O   0  0  0  0  0  0  0  0  0  0  0  0
    9.3070    3.7730    9.3170 C   0  0  2  0  0  0  0  0  0  0  0  0
    9.4910    4.7920   10.3120 O   0  0  0  0  0  0  0  0  0  0  0  0
    8.6600    4.3980    8.0800 C   0  0  1  0  0  0  0  0  0  0  0  0
    9.4920    5.4300    7.5400 O   0  0  0  0  0  0  0  0  0  0  0  0
    8.4680    3.3030    7.0800 C   0  0  0  0  0  0  0  0  0  0  0  0
    8.6340    3.3330    5.7540 N   0  0  0  0  0  0  0  0  0  0  0  0
    8.4800    2.0750    5.2010 C   0  0  0  0  0  0  0  0  0  0  0  0
    8.6130    1.8030    3.7530 C   0  0  0  0  0  0  0  0  0  0  0  0
    7.2550    1.5450    3.1050 C   0  0  0  0  0  0  0  0  0  0  0  0
    7.1470    0.1270    2.6080 C   0  0  0  0  0  0  0  0  0  0  0  0
    6.3580   -0.1750    1.4890 C   0  0  0  0  0  0  0  0  0  0  0  0
    6.2390   -1.4920    1.0430 C   0  0  0  0  0  0  0  0  0  0  0  0
    6.9030   -2.5180    1.7120 C   0  0  0  0  0  0  0  0  0  0  0  0
    7.6860   -2.2290    2.8280 C   0  0  0  0  0  0  0  0  0  0  0  0
    7.8080   -0.9130    3.2750 C   0  0  0  0  0  0  0  0  0  0  0  0
    8.2030    1.2480    6.2700 C   0  0  0  0  0  0  0  0  0  0  0  0
    8.2010    2.0310    7.4110 N   0  0  0  0  0  0  0  0  0  0  0  0
    6.8540    0.6260   10.6030 H   0  0  0  0  0  0  0  0  0  0  0  0
    5.9079    1.0784    8.0702 H   0  0  0  0  0  0  0  0  0  0  0  0
    5.9354    2.5708    9.0703 H   0  0  0  0  0  0  0  0  0  0  0  0
    8.3485    0.6525    8.9824 H   0  0  0  0  0  0  0  0  0  0  0  0
    7.5816    3.0750   10.3665 H   0  0  0  0  0  0  0  0  0  0  0  0
    9.8490    2.5090   11.2740 H   0  0  0  0  0  0  0  0  0  0  0  0
   10.2802    3.3489    9.0288 H   0  0  0  0  0  0  0  0  0  0  0  0
    8.6490    4.8900   10.7960 H   0  0  0  0  0  0  0  0  0  0  0  0
    7.6964    4.8600    8.3410 H   0  0  0  0  0  0  0  0  0  0  0  0
    9.8730    5.0520    6.7200 H   0  0  0  0  0  0  0  0  0  0  0  0
    8.8850    4.1920    5.2660 H   0  0  0  0  0  0  0  0  0  0  0  0
    9.0813    2.6720    3.2676 H   0  0  0  0  0  0  0  0  0  0  0  0
    9.2323    0.9028    3.6265 H   0  0  0  0  0  0  0  0  0  0  0  0
    6.4635    1.7260    3.8472 H   0  0  0  0  0  0  0  0  0  0  0  0
    7.1452    2.2235    2.2462 H   0  0  0  0  0  0  0  0  0  0  0  0
    5.8295    0.6313    0.9593 H   0  0  0  0  0  0  0  0  0  0  0  0
    5.6204   -1.7202    0.1625 H   0  0  0  0  0  0  0  0  0  0  0  0
    6.8092   -3.5557    1.3594 H   0  0  0  0  0  0  0  0  0  0  0  0
    8.2085   -3.0395    3.3572 H   0  0  0  0  0  0  0  0  0  0  0  0
    8.4270   -0.6905    4.1566 H   0  0  0  0  0  0  0  0  0  0  0  0
    8.0177    0.1647    6.2238 H   0  0  0  0  0  0  0  0  0  0  0  0
  1  2  1  0
  2  3  1  0
  3  4  1  0
  4  5  1  0
  4  6  1  0
  6  7  1  0
  6  8  1  0
  8  9  1  0
  8 10  1  0
 10 11  2  0
 11 12  1  0
 12 13  1  0
 13 14  1  0
 14 15  1  0
 15 16  2  0
 16 17  1  0
 17 18  2  0
 18 19  1  0
 19 20  2  0
 12 21  2  0
 21 22  1  0
 22  3  1  0
 22 10  1  0
 20 15  1  0
  1 23  1  0
  2 24  1  0
  2 25  1  0
  3 26  1  1
  4 27  1  1
  5 28  1  0
  6 29  1  6
  7 30  1  0
  8 31  1  1
  9 32  1  0
 11 33  1  0
 13 34  1  0
 13 35  1  0
 14 36  1  0
 14 37  1  0
 16 38  1  0
 17 39  1  0
 18 40  1  0
 19 41  1  0
 20 42  1  0
 21 43  1  0
M  CHG  1  11   1
M  END
>  <meeko>  (1) 
{"is_sidechain": [false], "free_energy": -8.175, "intermolecular_energy": -11.043, "internal_energy": -0.435}

$$$$
2cet_ligand
     RDKit          3D

 43 45  0  0  0  0  0  0  0  0999 V2000
   10.8450    1.5610    9.9310 O   0  0  0  0  0  0  0  0  0  0  0  0
   11.0980    2.4450    8.8360 C   0  0  0  0  0  0  0  0  0  0  0  0
    9.8330    3.2870    8.5510 C   0  0  2  0  0  0  0  0  0  0  0  0
    8.9190    3.2940    9.8280 C   0  0  1  0  0  0  0  0  0  0  0  0
    8.8460    4.6390   10.3340 O   0  0  0  0  0  0  0  0  0  0  0  0
    7.4740    2.8050    9.5980 C   0  0  2  0  0  0  0  0  0  0  0  0
    6.8380    2.5190   10.8530 O   0  0  0  0  0  0  0  0  0  0  0  0
    7.4340    1.5510    8.7230 C   0  0  1  0  0  0  0  0  0  0  0  0
    6.0830    1.1480    8.4770 O   0  0  0  0  0  0  0  0  0  0  0  0
    8.1240    1.8850    7.4390 C   0  0  0  0  0  0  0  0  0  0  0  0
    7.8020    1.5280    6.1920 N   0  0  0  0  0  0  0  0  0  0  0  0
    8.6200    2.1500    5.2660 C   0  0  0  0  0  0  0  0  0  0  0  0
    8.4930    1.9490    3.8060 C   0  0  0  0  0  0  0  0  0  0  0  0
    7.0780    1.5210    3.4210 C   0  0  0  0  0  0  0  0  0  0  0  0
    7.0680    0.1380    2.8230 C   0  0  0  0  0  0  0  0  0  0  0  0
    6.3340   -0.1270    1.6590 C   0  0  0  0  0  0  0  0  0  0  0  0
    6.3050   -1.4140    1.1200 C   0  0  0  0  0  0  0  0  0  0  0  0
    7.0080   -2.4460    1.7390 C   0  0  0  0  0  0  0  0  0  0  0  0
    7.7390   -2.1930    2.8980 C   0  0  0  0  0  0  0  0  0  0  0  0
    7.7690   -0.9070    3.4390 C   0  0  0  0  0  0  0  0  0  0  0  0
    9.4820    2.9230    6.0150 C   0  0  0  0  0  0  0  0  0  0  0  0
    9.1540    2.7390    7.3470 N   0  0  0  0  0  0  0  0  0  0  0  0
    9.9600    1.7860   10.2830 H   0  0  0  0  0  0  0  0  0  0  0  0
   11.9339    3.1134    9.0899 H   0  0  0  0  0  0  0  0  0  0  0  0
   11.3567    1.8577    7.9426 H   0  0  0  0  0  0  0  0  0  0  0  0
   10.0873    4.3351    8.3344 H   0  0  0  0  0  0  0  0  0  0  0  0
    9.3856    2.5880   10.5308 H   0  0  0  0  0  0  0  0  0  0  0  0
    9.1630    4.6290   11.2580 H   0  0  0  0  0  0  0  0  0  0  0  0
    6.9364    3.6123    9.0792 H   0  0  0  0  0  0  0  0  0  0  0  0
    7.5150    2.1510   11.4520 H   0  0  0  0  0  0  0  0  0  0  0  0
    7.9365    0.7127    9.2277 H   0  0  0  0  0  0  0  0  0  0  0  0
    5.8830    0.4810    9.1670 H   0  0  0  0  0  0  0  0  0  0  0  0
    7.0160    0.9080    5.9990 H   0  0  0  0  0  0  0  0  0  0  0  0
    8.7333    2.8920    3.2931 H   0  0  0  0  0  0  0  0  0  0  0  0
    9.1886    1.1516    3.5055 H   0  0  0  0  0  0  0  0  0  0  0  0
    6.4446    1.5271    4.3203 H   0  0  0  0  0  0  0  0  0  0  0  0
    6.6940    2.2269    2.6698 H   0  0  0  0  0  0  0  0  0  0  0  0
    5.7773    0.6843    1.1672 H   0  0  0  0  0  0  0  0  0  0  0  0
    5.7268   -1.6140    0.2058 H   0  0  0  0  0  0  0  0  0  0  0  0
    6.9858   -3.4598    1.3128 H   0  0  0  0  0  0  0  0  0  0  0  0
    8.2930   -3.0078    3.3870 H   0  0  0  0  0  0  0  0  0  0  0  0
    8.3466   -0.7126    4.3547 H   0  0  0  0  0  0  0  0  0  0  0  0
   10.2835    3.5678    5.6252 H   0  0  0  0  0  0  0  0  0  0  0  0
  1  2  1  0
  2  3  1  0
  3  4  1  0
  4  5  1  0
  4  6  1  0
  6  7  1  0
  6  8  1  0
  8  9  1  0
  8 10  1  0
 10 11  2  0
 11 12  1  0
 12 13  1  0
 13 14  1  0
 14 15  1  0
 15 16  2  0
 16 17  1  0
 17 18  2  0
 18 19  1  0
 19 20  2  0
 12 21  2  0
 21 22  1  0
 22  3  1  0
 22 10  1  0
 20 15  1  0
  1 23  1  0
  2 24  1  0
  2 25  1  0
  3 26  1  6
  4 27  1  1
  5 28  1  0
  6 29  1  6
  7 30  1  0
  8 31  1  1
  9 32  1  0
 11 33  1  0
 13 34  1  0
 13 35  1  0
 14 36  1  0
 14 37  1  0
 16 38  1  0
 17 39  1  0
 18 40  1  0
 19 41  1  0
 20 42  1  0
 21 43  1  0
M  CHG  1  11   1
M  END
>  <meeko>  (2) 
{"is_sidechain": [false], "free_energy": -7.914, "intermolecular_energy": -10.556, "internal_energy": -0.569}

$$$$
2cet_ligand
     RDKit          3D

 43 45  0  0  0  0  0  0  0  0999 V2000
    5.9260    0.7530   10.0790 O   0  0  0  0  0  0  0  0  0  0  0  0
    6.5120    1.2530    8.8740 C   0  0  0  0  0  0  0  0  0  0  0  0
    7.9040    1.8480    9.1860 C   0  0  2  0  0  0  0  0  0  0  0  0
    7.8170    2.7000   10.5020 C   0  0  1  0  0  0  0  0  0  0  0  0
    8.6340    2.0770   11.5100 O   0  0  0  0  0  0  0  0  0  0  0  0
    8.2870    4.1630   10.3640 C   0  0  2  0  0  0  0  0  0  0  0  0
    7.8500    4.9370   11.4920 O   0  0  0  0  0  0  0  0  0  0  0  0
    7.7550    4.8090    9.0830 C   0  0  1  0  0  0  0  0  0  0  0  0
    8.2490    6.1450    8.9480 O   0  0  0  0  0  0  0  0  0  0  0  0
    8.2130    3.9620    7.9380 C   0  0  0  0  0  0  0  0  0  0  0  0
    8.6540    4.3400    6.7340 N   0  0  0  0  0  0  0  0  0  0  0  0
    9.1040    3.2560    6.0030 C   0  0  0  0  0  0  0  0  0  0  0  0
    9.6540    3.3720    4.6350 C   0  0  0  0  0  0  0  0  0  0  0  0
    8.5520    3.6280    3.6080 C   0  0  0  0  0  0  0  0  0  0  0  0
    8.1310    2.3510    2.9290 C   0  0  0  0  0  0  0  0  0  0  0  0
    8.9690    1.7390    1.9860 C   0  0  0  0  0  0  0  0  0  0  0  0
    8.5680    0.5700    1.3380 C   0  0  0  0  0  0  0  0  0  0  0  0
    7.3280    0.0040    1.6250 C   0  0  0  0  0  0  0  0  0  0  0  0
    6.4870    0.6050    2.5590 C   0  0  0  0  0  0  0  0  0  0  0  0
    6.8850    1.7750    3.2080 C   0  0  0  0  0  0  0  0  0  0  0  0
    8.9150    2.1660    6.8280 C   0  0  0  0  0  0  0  0  0  0  0  0
    8.3650    2.6320    8.0100 N   0  0  0  0  0  0  0  0  0  0  0  0
    6.3430    1.2340   10.8210 H   0  0  0  0  0  0  0  0  0  0  0  0
    6.6182    0.4319    8.1498 H   0  0  0  0  0  0  0  0  0  0  0  0
    5.8658    2.0353    8.4493 H   0  0  0  0  0  0  0  0  0  0  0  0
    8.6486    1.0583    9.3644 H   0  0  0  0  0  0  0  0  0  0  0  0
    6.7490    2.7313   10.7636 H   0  0  0  0  0  0  0  0  0  0  0  0
    9.4920    1.8500   11.1010 H   0  0  0  0  0  0  0  0  0  0  0  0
    9.3860    4.1482   10.3207 H   0  0  0  0  0  0  0  0  0  0  0  0
    7.0770    4.4860   11.8810 H   0  0  0  0  0  0  0  0  0  0  0  0
    6.6569    4.8690    9.1077 H   0  0  0  0  0  0  0  0  0  0  0  0
    7.8550    6.6430    9.6950 H   0  0  0  0  0  0  0  0  0  0  0  0
    8.6750    5.3200    6.4560 H   0  0  0  0  0  0  0  0  0  0  0  0
   10.3695    4.2070    4.6071 H   0  0  0  0  0  0  0  0  0  0  0  0
   10.1491    2.4232    4.3806 H   0  0  0  0  0  0  0  0  0  0  0  0
    7.6816    4.0668    4.1178 H   0  0  0  0  0  0  0  0  0  0  0  0
    8.9421    4.3160    2.8435 H   0  0  0  0  0  0  0  0  0  0  0  0
    9.9486    2.1831    1.7556 H   0  0  0  0  0  0  0  0  0  0  0  0
    9.2315    0.0952    0.6002 H   0  0  0  0  0  0  0  0  0  0  0  0
    7.0128   -0.9177    1.1141 H   0  0  0  0  0  0  0  0  0  0  0  0
    5.5082    0.1570    2.7853 H   0  0  0  0  0  0  0  0  0  0  0  0
    6.2164    2.2474    3.9427 H   0  0  0  0  0  0  0  0  0  0  0  0
    9.1568    1.1196    6.5902 H   0  0  0  0  0  0  0  0  0  0  0  0
  1  2  1  0
  2  3  1  0
  3  4  1  0
  4  5  1  0
  4  6  1  0
  6  7  1  0
  6  8  1  0
  8  9  1  0
  8 10  1  0
 10 11  2  0
 11 12  1  0
 12 13  1  0
 13 14  1  0
 14 15  1  0
 15 16  2  0
 16 17  1  0
 17 18  2  0
 18 19  1  0
 19 20  2  0
 12 21  2  0
 21 22  1  0
 22  3  1  0
 22 10  1  0
 20 15  1  0
  1 23  1  0
  2 24  1  0
  2 25  1  0
  3 26  1  1
  4 27  1  1
  5 28  1  0
  6 29  1  6
  7 30  1  0
  8 31  1  1
  9 32  1  0
 11 33  1  0
 13 34  1  0
 13 35  1  0
 14 36  1  0
 14 37  1  0
 16 38  1  0
 17 39  1  0
 18 40  1  0
 19 41  1  0
 20 42  1  0
 21 43  1  0
M  CHG  1  11   1
M  END
>  <meeko>  (3) 
{"is_sidechain": [false], "free_energy": -7.743, "intermolecular_energy": -10.332, "internal_energy": -0.562}

$$$$
2cet_ligand
     RDKit          3D

 43 45  0  0  0  0  0  0  0  0999 V2000
   11.0030    4.4790    9.8850 O   0  0  0  0  0  0  0  0  0  0  0  0
   11.0850    4.4310    8.4580 C   0  0  0  0  0  0  0  0  0  0  0  0
    9.7260    4.8470    7.8500 C   0  0  2  0  0  0  0  0  0  0  0  0
    8.9010    5.6410    8.9250 C   0  0  1  0  0  0  0  0  0  0  0  0
    8.7260    6.9930    8.4640 O   0  0  0  0  0  0  0  0  0  0  0  0
    7.5010    5.0680    9.2260 C   0  0  2  0  0  0  0  0  0  0  0  0
    6.9800    5.6340   10.4390 O   0  0  0  0  0  0  0  0  0  0  0  0
    7.5300    3.5450    9.3610 C   0  0  1  0  0  0  0  0  0  0  0  0
    6.2130    3.0310    9.5850 O   0  0  0  0  0  0  0  0  0  0  0  0
    8.0970    2.9990    8.0900 C   0  0  0  0  0  0  0  0  0  0  0  0
    7.7330    1.9120    7.4020 N   0  0  0  0  0  0  0  0  0  0  0  0
    8.4220    1.8220    6.2060 C   0  0  0  0  0  0  0  0  0  0  0  0
    8.2200    0.7240    5.2350 C   0  0  0  0  0  0  0  0  0  0  0  0
    7.6790    1.2460    3.9050 C   0  0  0  0  0  0  0  0  0  0  0  0
    7.2750    0.1130    2.9980 C   0  0  0  0  0  0  0  0  0  0  0  0
    6.3670    0.3300    1.9530 C   0  0  0  0  0  0  0  0  0  0  0  0
    5.9740   -0.7240    1.1280 C   0  0  0  0  0  0  0  0  0  0  0  0
    6.4830   -2.0030    1.3400 C   0  0  0  0  0  0  0  0  0  0  0  0
    7.3850   -2.2300    2.3780 C   0  0  0  0  0  0  0  0  0  0  0  0
    7.7790   -1.1780    3.2040 C   0  0  0  0  0  0  0  0  0  0  0  0
    9.2490    2.9250    6.1870 C   0  0  0  0  0  0  0  0  0  0  0  0
    9.0280    3.6290    7.3580 N   0  0  0  0  0  0  0  0  0  0  0  0
   11.3730    5.3410   10.1640 H   0  0  0  0  0  0  0  0  0  0  0  0
   11.8683    5.1216    8.1122 H   0  0  0  0  0  0  0  0  0  0  0  0
   11.3318    3.4076    8.1389 H   0  0  0  0  0  0  0  0  0  0  0  0
    9.8590    5.5183    6.9888 H   0  0  0  0  0  0  0  0  0  0  0  0
    9.4811    5.5692    9.8569 H   0  0  0  0  0  0  0  0  0  0  0  0
    8.5230    6.9600    7.5090 H   0  0  0  0  0  0  0  0  0  0  0  0
    6.8526    5.3329    8.3778 H   0  0  0  0  0  0  0  0  0  0  0  0
    7.5980    5.4110   11.1600 H   0  0  0  0  0  0  0  0  0  0  0  0
    8.1462    3.2460   10.2218 H   0  0  0  0  0  0  0  0  0  0  0  0
    6.0630    2.3830    8.8650 H   0  0  0  0  0  0  0  0  0  0  0  0
    7.0020    1.2860    7.7390 H   0  0  0  0  0  0  0  0  0  0  0  0
    9.1827    0.2223    5.0572 H   0  0  0  0  0  0  0  0  0  0  0  0
    7.4847    0.0221    5.6554 H   0  0  0  0  0  0  0  0  0  0  0  0
    6.8016    1.8805    4.0989 H   0  0  0  0  0  0  0  0  0  0  0  0
    8.4732    1.8229    3.4086 H   0  0  0  0  0  0  0  0  0  0  0  0
    5.9614    1.3381    1.7821 H   0  0  0  0  0  0  0  0  0  0  0  0
    5.2615   -0.5448    0.3093 H   0  0  0  0  0  0  0  0  0  0  0  0
    6.1733   -2.8335    0.6886 H   0  0  0  0  0  0  0  0  0  0  0  0
    7.7865   -3.2403    2.5458 H   0  0  0  0  0  0  0  0  0  0  0  0
    8.4901   -1.3628    4.0226 H   0  0  0  0  0  0  0  0  0  0  0  0
    9.9548    3.1958    5.3879 H   0  0  0  0  0  0  0  0  0  0  0  0
  1  2  1  0
  2  3  1  0
  3  4  1  0
  4  5  1  0
  4  6  1  0
  6  7  1  0
  6  8  1  0
  8  9  1  0
  8 10  1  0
 10 11  2  0
 11 12  1  0
 12 13  1  0
 13 14  1  0
 14 15  1  0
 15 16  2  0
 16 17  1  0
 17 18  2  0
 18 19  1  0
 19 20  2  0
 12 21  2  0
 21 22  1  0
 22  3  1  0
 22 10  1  0
 20 15  1  0
  1 23  1  0
  2 24  1  0
  2 25  1  0
  3 26  1  6
  4 27  1  1
  5 28  1  0
  6 29  1  6
  7 30  1  0
  8 31  1  1
  9 32  1  0
 11 33  1  0
 13 34  1  0
 13 35  1  0
 14 36  1  0
 14 37  1  0
 16 38  1  0
 17 39  1  0
 18 40  1  0
 19 41  1  0
 20 42  1  0
 21 43  1  0
M  CHG  1  11   1
M  END
>  <meeko>  (4) 
{"is_sidechain": [false], "free_energy": -7.616, "intermolecular_energy": -10.282, "internal_energy": -0.44}

$$$$
2cet_ligand
     RDKit          3D

 43 45  0  0  0  0  0  0  0  0999 V2000
    6.6870    2.5870    9.0100 O   0  0  0  0  0  0  0  0  0  0  0  0
    7.2770    3.8790    8.8460 C   0  0  0  0  0  0  0  0  0  0  0  0
    8.7720    3.7220    8.4880 C   0  0  2  0  0  0  0  0  0  0  0  0
    9.5590    4.9840    8.9910 C   0  0  1  0  0  0  0  0  0  0  0  0
   10.4840    4.5720   10.0140 O   0  0  0  0  0  0  0  0  0  0  0  0
   10.3680    5.7240    7.9060 C   0  0  2  0  0  0  0  0  0  0  0  0
   10.7540    7.0260    8.3720 O   0  0  0  0  0  0  0  0  0  0  0  0
    9.5680    5.8770    6.6110 C   0  0  1  0  0  0  0  0  0  0  0  0
   10.3560    6.5160    5.6020 O   0  0  0  0  0  0  0  0  0  0  0  0
    9.1680    4.5040    6.1730 C   0  0  0  0  0  0  0  0  0  0  0  0
    9.1280    3.9910    4.9400 N   0  0  0  0  0  0  0  0  0  0  0  0
    8.8270    2.6410    4.9680 C   0  0  0  0  0  0  0  0  0  0  0  0
    8.7200    1.8080    3.7500 C   0  0  0  0  0  0  0  0  0  0  0  0
    7.2630    1.5140    3.4000 C   0  0  0  0  0  0  0  0  0  0  0  0
    7.1140    0.1490    2.7810 C   0  0  0  0  0  0  0  0  0  0  0  0
    7.7810   -0.9560    3.3290 C   0  0  0  0  0  0  0  0  0  0  0  0
    7.6640   -2.2150    2.7400 C   0  0  0  0  0  0  0  0  0  0  0  0
    6.8820   -2.3820    1.5990 C   0  0  0  0  0  0  0  0  0  0  0  0
    6.2170   -1.2900    1.0450 C   0  0  0  0  0  0  0  0  0  0  0  0
    6.3330   -0.0300    1.6320 C   0  0  0  0  0  0  0  0  0  0  0  0
    8.6790    2.3370    6.3050 C   0  0  0  0  0  0  0  0  0  0  0  0
    8.8930    3.5030    7.0210 N   0  0  0  0  0  0  0  0  0  0  0  0
    6.0170    2.4870    8.3040 H   0  0  0  0  0  0  0  0  0  0  0  0
    6.7611    4.4175    8.0374 H   0  0  0  0  0  0  0  0  0  0  0  0
    7.1826    4.4464    9.7836 H   0  0  0  0  0  0  0  0  0  0  0  0
    9.2155    2.8482    8.9878 H   0  0  0  0  0  0  0  0  0  0  0  0
    8.7928    5.6863    9.3513 H   0  0  0  0  0  0  0  0  0  0  0  0
   10.9800    5.3610   10.3050 H   0  0  0  0  0  0  0  0  0  0  0  0
   11.2624    5.1185    7.6975 H   0  0  0  0  0  0  0  0  0  0  0  0
   10.5870    7.6620    7.6500 H   0  0  0  0  0  0  0  0  0  0  0  0
    8.6809    6.5057    6.7777 H   0  0  0  0  0  0  0  0  0  0  0  0
   11.0690    5.8780    5.3890 H   0  0  0  0  0  0  0  0  0  0  0  0
    9.3420    4.5560    4.1180 H   0  0  0  0  0  0  0  0  0  0  0  0
    9.1890    2.3412    2.9099 H   0  0  0  0  0  0  0  0  0  0  0  0
    9.2294    0.8517    3.9398 H   0  0  0  0  0  0  0  0  0  0  0  0
    6.6578    1.5595    4.3174 H   0  0  0  0  0  0  0  0  0  0  0  0
    6.9224    2.2647    2.6717 H   0  0  0  0  0  0  0  0  0  0  0  0
    8.4005   -0.8292    4.2291 H   0  0  0  0  0  0  0  0  0  0  0  0
    8.1897   -3.0769    3.1768 H   0  0  0  0  0  0  0  0  0  0  0  0
    6.7896   -3.3754    1.1358 H   0  0  0  0  0  0  0  0  0  0  0  0
    5.6000   -1.4217    0.1439 H   0  0  0  0  0  0  0  0  0  0  0  0
    5.8075    0.8291    1.1895 H   0  0  0  0  0  0  0  0  0  0  0  0
    8.4357    1.3500    6.7254 H   0  0  0  0  0  0  0  0  0  0  0  0
  1  2  1  0
  2  3  1  0
  3  4  1  0
  4  5  1  0
  4  6  1  0
  6  7  1  0
  6  8  1  0
  8  9  1  0
  8 10  1  0
 10 11  2  0
 11 12  1  0
 12 13  1  0
 13 14  1  0
 14 15  1  0
 15 16  2  0
 16 17  1  0
 17 18  2  0
 18 19  1  0
 19 20  2  0
 12 21  2  0
 21 22  1  0
 22  3  1  0
 22 10  1  0
 20 15  1  0
  1 23  1  0
  2 24  1  0
  2 25  1  0
  3 26  1  1
  4 27  1  1
  5 28  1  0
  6 29  1  6
  7 30  1  0
  8 31  1  1
  9 32  1  0
 11 33  1  0
 13 34  1  0
 13 35  1  0
 14 36  1  0
 14 37  1  0
 16 38  1  0
 17 39  1  0
 18 40  1  0
 19 41  1  0
 20 42  1  0
 21 43  1  0
M  CHG  1  11   1
M  END
>  <meeko>  (5) 
{"is_sidechain": [false], "free_energy": -7.486, "intermolecular_energy": -10.215, "internal_energy": -0.331}

$$$$
2cet_ligand
     RDKit          3D

 43 45  0  0  0  0  0  0  0  0999 V2000
    9.4140    5.5670    9.9230 O   0  0  0  0  0  0  0  0  0  0  0  0
    9.0070    6.1950    8.7040 C   0  0  0  0  0  0  0  0  0  0  0  0
    7.9440    5.3190    8.0020 C   0  0  2  0  0  0  0  0  0  0  0  0
    7.3560    4.2930    9.0370 C   0  0  1  0  0  0  0  0  0  0  0  0
    5.9620    4.5900    9.2370 O   0  0  0  0  0  0  0  0  0  0  0  0
    7.4600    2.8130    8.6180 C   0  0  2  0  0  0  0  0  0  0  0  0
    7.2270    1.9570    9.7470 O   0  0  0  0  0  0  0  0  0  0  0  0
    8.8310    2.4880    8.0230 C   0  0  1  0  0  0  0  0  0  0  0  0
    8.8850    1.1240    7.5910 O   0  0  0  0  0  0  0  0  0  0  0  0
    9.0420    3.4130    6.8670 C   0  0  0  0  0  0  0  0  0  0  0  0
    9.5980    3.1630    5.6780 N   0  0  0  0  0  0  0  0  0  0  0  0
    9.4880    4.2530    4.8340 C   0  0  0  0  0  0  0  0  0  0  0  0
   10.0100    4.2640    3.4500 C   0  0  0  0  0  0  0  0  0  0  0  0
    8.8890    4.0820    2.4280 C   0  0  0  0  0  0  0  0  0  0  0  0
    8.4370    2.6460    2.3620 C   0  0  0  0  0  0  0  0  0  0  0  0
    7.1460    2.2890    2.7740 C   0  0  0  0  0  0  0  0  0  0  0  0
    6.7360    0.9550    2.7370 C   0  0  0  0  0  0  0  0  0  0  0  0
    7.6120   -0.0310    2.2890 C   0  0  0  0  0  0  0  0  0  0  0  0
    8.8990    0.3130    1.8810 C   0  0  0  0  0  0  0  0  0  0  0  0
    9.3110    1.6460    1.9170 C   0  0  0  0  0  0  0  0  0  0  0  0
    8.8260    5.2110    5.5740 C   0  0  0  0  0  0  0  0  0  0  0  0
    8.5660    4.6650    6.8190 N   0  0  0  0  0  0  0  0  0  0  0  0
   10.3290    5.2480    9.7880 H   0  0  0  0  0  0  0  0  0  0  0  0
    8.5787    7.1835    8.9262 H   0  0  0  0  0  0  0  0  0  0  0  0
    9.8789    6.3127    8.0437 H   0  0  0  0  0  0  0  0  0  0  0  0
    7.1017    5.9245    7.6362 H   0  0  0  0  0  0  0  0  0  0  0  0
    7.9622    4.4089    9.9475 H   0  0  0  0  0  0  0  0  0  0  0  0
    5.8810    5.0990   10.0670 H   0  0  0  0  0  0  0  0  0  0  0  0
    6.6934    2.6390    7.8486 H   0  0  0  0  0  0  0  0  0  0  0  0
    8.0750    1.8480   10.2180 H   0  0  0  0  0  0  0  0  0  0  0  0
    9.6204    2.6218    8.7773 H   0  0  0  0  0  0  0  0  0  0  0  0
    9.8250    0.9630    7.3640 H   0  0  0  0  0  0  0  0  0  0  0  0
   10.0000    2.2520    5.4560 H   0  0  0  0  0  0  0  0  0  0  0  0
   10.5105    5.2258    3.2643 H   0  0  0  0  0  0  0  0  0  0  0  0
   10.7163    3.4278    3.3406 H   0  0  0  0  0  0  0  0  0  0  0  0
    8.0356    4.7135    2.7158 H   0  0  0  0  0  0  0  0  0  0  0  0
    9.2709    4.3719    1.4380 H   0  0  0  0  0  0  0  0  0  0  0  0
    6.4514    3.0647    3.1287 H   0  0  0  0  0  0  0  0  0  0  0  0
    5.7210    0.6825    3.0617 H   0  0  0  0  0  0  0  0  0  0  0  0
    7.2876   -1.0816    2.2573 H   0  0  0  0  0  0  0  0  0  0  0  0
    9.5910   -0.4667    1.5302 H   0  0  0  0  0  0  0  0  0  0  0  0
   10.3281    1.9128    1.5940 H   0  0  0  0  0  0  0  0  0  0  0  0
    8.5548    6.2223    5.2367 H   0  0  0  0  0  0  0  0  0  0  0  0
  1  2  1  0
  2  3  1  0
  3  4  1  0
  4  5  1  0
  4  6  1  0
  6  7  1  0
  6  8  1  0
  8  9  1  0
  8 10  1  0
 10 11  2  0
 11 12  1  0
 12 13  1  0
 13 14  1  0
 14 15  1  0
 15 16  2  0
 16 17  1  0
 17 18  2  0
 18 19  1  0
 19 20  2  0
 12 21  2  0
 21 22  1  0
 22  3  1  0
 22 10  1  0
 20 15  1  0
  1 23  1  0
  2 24  1  0
  2 25  1  0
  3 26  1  6
  4 27  1  1
  5 28  1  0
  6 29  1  6
  7 30  1  0
  8 31  1  1
  9 32  1  0
 11 33  1  0
 13 34  1  0
 13 35  1  0
 14 36  1  0
 14 37  1  0
 16 38  1  0
 17 39  1  0
 18 40  1  0
 19 41  1  0
 20 42  1  0
 21 43  1  0
M  CHG  1  11   1
M  END
>  <meeko>  (6) 
{"is_sidechain": [false], "free_energy": -7.383, "intermolecular_energy": -9.723, "internal_energy": -0.684}

$$$$
2cet_ligand
     RDKit          3D

 43 45  0  0  0  0  0  0  0  0999 V2000
   11.8070    5.2460    6.1160 O   0  0  0  0  0  0  0  0  0  0  0  0
   12.5740    4.7700    5.0060 C   0  0  0  0  0  0  0  0  0  0  0  0
   12.4520    3.2320    4.9180 C   0  0  2  0  0  0  0  0  0  0  0  0
   13.8470    2.6260    4.5270 C   0  0  1  0  0  0  0  0  0  0  0  0
   14.3230    1.8230    5.6230 O   0  0  0  0  0  0  0  0  0  0  0  0
   13.8420    1.7360    3.2670 C   0  0  2  0  0  0  0  0  0  0  0  0
   15.1830    1.5240    2.8010 O   0  0  0  0  0  0  0  0  0  0  0  0
   13.0160    2.3570    2.1400 C   0  0  1  0  0  0  0  0  0  0  0  0
   12.9800    1.4900    1.0020 O   0  0  0  0  0  0  0  0  0  0  0  0
   11.6370    2.5810    2.6730 C   0  0  0  0  0  0  0  0  0  0  0  0
   10.4600    2.4090    2.0650 N   0  0  0  0  0  0  0  0  0  0  0  0
    9.4090    2.6020    2.9430 C   0  0  0  0  0  0  0  0  0  0  0  0
    7.9890    2.4710    2.5510 C   0  0  0  0  0  0  0  0  0  0  0  0
    7.2400    1.5070    3.4690 C   0  0  0  0  0  0  0  0  0  0  0  0
    7.1460    0.1330    2.8590 C   0  0  0  0  0  0  0  0  0  0  0  0
    6.3410   -0.0900    1.7340 C   0  0  0  0  0  0  0  0  0  0  0  0
    6.2350   -1.3680    1.1840 C   0  0  0  0  0  0  0  0  0  0  0  0
    6.9290   -2.4330    1.7530 C   0  0  0  0  0  0  0  0  0  0  0  0
    7.7300   -2.2220    2.8740 C   0  0  0  0  0  0  0  0  0  0  0  0
    7.8380   -0.9450    3.4260 C   0  0  0  0  0  0  0  0  0  0  0  0
   10.0040    2.9100    4.1490 C   0  0  0  0  0  0  0  0  0  0  0  0
   11.3740    2.8910    3.9510 N   0  0  0  0  0  0  0  0  0  0  0  0
   11.6490    6.2000    5.9660 H   0  0  0  0  0  0  0  0  0  0  0  0
   12.1948    5.2217    4.0775 H   0  0  0  0  0  0  0  0  0  0  0  0
   13.6296    5.0470    5.1437 H   0  0  0  0  0  0  0  0  0  0  0  0
   12.1725    2.7942    5.8877 H   0  0  0  0  0  0  0  0  0  0  0  0
   14.4928    3.4881    4.3042 H   0  0  0  0  0  0  0  0  0  0  0  0
   15.1110    2.2620    5.9960 H   0  0  0  0  0  0  0  0  0  0  0  0
   13.3853    0.7757    3.5485 H   0  0  0  0  0  0  0  0  0  0  0  0
   15.7840    1.6310    3.5620 H   0  0  0  0  0  0  0  0  0  0  0  0
   13.4643    3.3063    1.8116 H   0  0  0  0  0  0  0  0  0  0  0  0
   12.0430    1.4820    0.7130 H   0  0  0  0  0  0  0  0  0  0  0  0
   10.3990    2.1270    1.0870 H   0  0  0  0  0  0  0  0  0  0  0  0
    7.5108    3.4601    2.6052 H   0  0  0  0  0  0  0  0  0  0  0  0
    7.9498    2.0719    1.5267 H   0  0  0  0  0  0  0  0  0  0  0  0
    7.7740    1.4376    4.4282 H   0  0  0  0  0  0  0  0  0  0  0  0
    6.2202    1.8913    3.6186 H   0  0  0  0  0  0  0  0  0  0  0  0
    5.7894    0.7474    1.2817 H   0  0  0  0  0  0  0  0  0  0  0  0
    5.6024   -1.5346    0.2997 H   0  0  0  0  0  0  0  0  0  0  0  0
    6.8451   -3.4399    1.3181 H   0  0  0  0  0  0  0  0  0  0  0  0
    8.2776   -3.0631    3.3241 H   0  0  0  0  0  0  0  0  0  0  0  0
    8.4702   -0.7838    4.3116 H   0  0  0  0  0  0  0  0  0  0  0  0
    9.4854    3.1301    5.0938 H   0  0  0  0  0  0  0  0  0  0  0  0
  1  2  1  0
  2  3  1  0
  3  4  1  0
  4  5  1  0
  4  6  1  0
  6  7  1  0
  6  8  1  0
  8  9  1  0
  8 10  1  0
 10 11  2  0
 11 12  1  0
 12 13  1  0
 13 14  1  0
 14 15  1  0
 15 16  2  0
 16 17  1  0
 17 18  2  0
 18 19  1  0
 19 20  2  0
 12 21  2  0
 21 22  1  0
 22  3  1  0
 22 10  1  0
 20 15  1  0
  1 23  1  0
  2 24  1  0
  2 25  1  0
  3 26  1  1
  4 27  1  6
  5 28  1  0
  6 29  1  1
  7 30  1  0
  8 31  1  6
  9 32  1  0
 11 33  1  0
 13 34  1  0
 13 35  1  0
 14 36  1  0
 14 37  1  0
 16 38  1  0
 17 39  1  0
 18 40  1  0
 19 41  1  0
 20 42  1  0
 21 43  1  0
M  CHG  1  11   1
M  END
>  <meeko>  (7) 
{"is_sidechain": [false], "free_energy": -7.187, "intermolecular_energy": -9.619, "internal_energy": -0.523}

$$$$
2cet_ligand
     RDKit          3D

 43 45  0  0  0  0  0  0  0  0999 V2000
   13.5650    5.6310    3.1640 O   0  0  0  0  0  0  0  0  0  0  0  0
   12.7390    5.0920    4.1990 C   0  0  0  0  0  0  0  0  0  0  0  0
   11.4010    5.8630    4.2450 C   0  0  2  0  0  0  0  0  0  0  0  0
   11.2670    6.5810    5.6350 C   0  0  1  0  0  0  0  0  0  0  0  0
   11.2720    8.0050    5.4210 O   0  0  0  0  0  0  0  0  0  0  0  0
    9.9890    6.2370    6.4270 C   0  0  2  0  0  0  0  0  0  0  0  0
   10.1210    6.6510    7.7950 O   0  0  0  0  0  0  0  0  0  0  0  0
    9.6880    4.7380    6.3890 C   0  0  1  0  0  0  0  0  0  0  0  0
    8.4690    4.4490    7.0820 O   0  0  0  0  0  0  0  0  0  0  0  0
    9.5790    4.3440    4.9500 C   0  0  0  0  0  0  0  0  0  0  0  0
    8.7240    3.4960    4.3710 N   0  0  0  0  0  0  0  0  0  0  0  0
    8.8660    3.5040    2.9950 C   0  0  0  0  0  0  0  0  0  0  0  0
    8.0480    2.6670    2.0900 C   0  0  0  0  0  0  0  0  0  0  0  0
    6.9500    1.9280    2.8510 C   0  0  0  0  0  0  0  0  0  0  0  0
    6.9940    0.4480    2.5750 C   0  0  0  0  0  0  0  0  0  0  0  0
    6.3120   -0.0900    1.4740 C   0  0  0  0  0  0  0  0  0  0  0  0
    6.3320   -1.4640    1.2320 C   0  0  0  0  0  0  0  0  0  0  0  0
    7.0320   -2.3120    2.0870 C   0  0  0  0  0  0  0  0  0  0  0  0
    7.7110   -1.7890    3.1860 C   0  0  0  0  0  0  0  0  0  0  0  0
    7.6920   -0.4150    3.4300 C   0  0  0  0  0  0  0  0  0  0  0  0
    9.8710    4.4150    2.7460 C   0  0  0  0  0  0  0  0  0  0  0  0
   10.2900    4.9140    3.9670 N   0  0  0  0  0  0  0  0  0  0  0  0
   14.0570    4.8820    2.7710 H   0  0  0  0  0  0  0  0  0  0  0  0
   12.5427    4.0290    3.9951 H   0  0  0  0  0  0  0  0  0  0  0  0
   13.2526    5.1913    5.1667 H   0  0  0  0  0  0  0  0  0  0  0  0
   11.3621    6.6468    3.4742 H   0  0  0  0  0  0  0  0  0  0  0  0
   12.1185    6.2258    6.2339 H   0  0  0  0  0  0  0  0  0  0  0  0
   10.4220    8.3590    5.7440 H   0  0  0  0  0  0  0  0  0  0  0  0
    9.1569    6.7758    5.9502 H   0  0  0  0  0  0  0  0  0  0  0  0
   11.0630    6.5770    8.0380 H   0  0  0  0  0  0  0  0  0  0  0  0
   10.4884    4.1715    6.8874 H   0  0  0  0  0  0  0  0  0  0  0  0
    7.8800    4.0450    6.4100 H   0  0  0  0  0  0  0  0  0  0  0  0
    8.0440    2.9660    4.9150 H   0  0  0  0  0  0  0  0  0  0  0  0
    7.5837    3.3117    1.3291 H   0  0  0  0  0  0  0  0  0  0  0  0
    8.7061    1.9201    1.6219 H   0  0  0  0  0  0  0  0  0  0  0  0
    7.0865    2.0956    3.9296 H   0  0  0  0  0  0  0  0  0  0  0  0
    5.9757    2.3146    2.5173 H   0  0  0  0  0  0  0  0  0  0  0  0
    5.7574    0.5759    0.7965 H   0  0  0  0  0  0  0  0  0  0  0  0
    5.7948   -1.8776    0.3658 H   0  0  0  0  0  0  0  0  0  0  0  0
    7.0489   -3.3949    1.8947 H   0  0  0  0  0  0  0  0  0  0  0  0
    8.2623   -2.4596    3.8616 H   0  0  0  0  0  0  0  0  0  0  0  0
    8.2285   -0.0069    4.2993 H   0  0  0  0  0  0  0  0  0  0  0  0
   10.2669    4.6938    1.7583 H   0  0  0  0  0  0  0  0  0  0  0  0
  1  2  1  0
  2  3  1  0
  3  4  1  0
  4  5  1  0
  4  6  1  0
  6  7  1  0
  6  8  1  0
  8  9  1  0
  8 10  1  0
 10 11  2  0
 11 12  1  0
 12 13  1  0
 13 14  1  0
 14 15  1  0
 15 16  2  0
 16 17  1  0
 17 18  2  0
 18 19  1  0
 19 20  2  0
 12 21  2  0
 21 22  1  0
 22  3  1  0
 22 10  1  0
 20 15  1  0
  1 23  1  0
  2 24  1  0
  2 25  1  0
  3 26  1  6
  4 27  1  1
  5 28  1  0
  6 29  1  6
  7 30  1  0
  8 31  1  1
  9 32  1  0
 11 33  1  0
 13 34  1  0
 13 35  1  0
 14 36  1  0
 14 37  1  0
 16 38  1  0
 17 39  1  0
 18 40  1  0
 19 41  1  0
 20 42  1  0
 21 43  1  0
M  CHG  1  11   1
M  END
>  <meeko>  (8) 
{"is_sidechain": [false], "free_energy": -7.111, "intermolecular_energy": -9.603, "internal_energy": -0.437}

$$$$
2cet_ligand
     RDKit          3D

 43 45  0  0  0  0  0  0  0  0999 V2000
    8.5180    5.4880   11.0440 O   0  0  0  0  0  0  0  0  0  0  0  0
    9.0930    5.5970    9.7390 C   0  0  0  0  0  0  0  0  0  0  0  0
    8.2780    4.7410    8.7430 C   0  0  2  0  0  0  0  0  0  0  0  0
    7.2690    3.8410    9.5420 C   0  0  1  0  0  0  0  0  0  0  0  0
    5.9280    4.2440    9.2080 O   0  0  0  0  0  0  0  0  0  0  0  0
    7.3820    2.3280    9.2620 C   0  0  2  0  0  0  0  0  0  0  0  0
    6.6840    1.5810   10.2700 O   0  0  0  0  0  0  0  0  0  0  0  0
    8.8400    1.8680    9.2230 C   0  0  1  0  0  0  0  0  0  0  0  0
    8.9220    0.4750    8.9070 O   0  0  0  0  0  0  0  0  0  0  0  0
    9.5330    2.6850    8.1790 C   0  0  0  0  0  0  0  0  0  0  0  0
   10.4540    2.3060    7.2860 N   0  0  0  0  0  0  0  0  0  0  0  0
   10.7520    3.3320    6.4090 C   0  0  0  0  0  0  0  0  0  0  0  0
   11.7330    3.2000    5.3090 C   0  0  0  0  0  0  0  0  0  0  0  0
   11.3010    3.9900    4.0750 C   0  0  0  0  0  0  0  0  0  0  0  0
   10.3410    3.1970    3.2280 C   0  0  0  0  0  0  0  0  0  0  0  0
    9.1050    3.7440    2.8540 C   0  0  0  0  0  0  0  0  0  0  0  0
    8.2050    3.0000    2.0900 C   0  0  0  0  0  0  0  0  0  0  0  0
    8.5300    1.7050    1.6940 C   0  0  0  0  0  0  0  0  0  0  0  0
    9.7550    1.1510    2.0630 C   0  0  0  0  0  0  0  0  0  0  0  0
   10.6560    1.8930    2.8270 C   0  0  0  0  0  0  0  0  0  0  0  0
    9.9580    4.3860    6.8090 C   0  0  0  0  0  0  0  0  0  0  0  0
    9.2210    3.9580    7.9000 N   0  0  0  0  0  0  0  0  0  0  0  0
    8.4720    6.3930   11.4130 H   0  0  0  0  0  0  0  0  0  0  0  0
    9.0760    6.6489    9.4177 H   0  0  0  0  0  0  0  0  0  0  0  0
   10.1325    5.2381    9.7655 H   0  0  0  0  0  0  0  0  0  0  0  0
    7.6801    5.3699    8.0670 H   0  0  0  0  0  0  0  0  0  0  0  0
    7.5174    3.9879   10.6035 H   0  0  0  0  0  0  0  0  0  0  0  0
    5.5860    4.7850    9.9450 H   0  0  0  0  0  0  0  0  0  0  0  0
    6.9295    2.1447    8.2763 H   0  0  0  0  0  0  0  0  0  0  0  0
    7.3180    1.3820   10.9850 H   0  0  0  0  0  0  0  0  0  0  0  0
    9.3157    2.0072   10.2050 H   0  0  0  0  0  0  0  0  0  0  0  0
    8.0300    0.2300    8.5820 H   0  0  0  0  0  0  0  0  0  0  0  0
   10.8240    1.3560    7.2700 H   0  0  0  0  0  0  0  0  0  0  0  0
   12.7075    3.5778    5.6520 H   0  0  0  0  0  0  0  0  0  0  0  0
   11.7999    2.1375    5.0323 H   0  0  0  0  0  0  0  0  0  0  0  0
   10.8103    4.9199    4.3982 H   0  0  0  0  0  0  0  0  0  0  0  0
   12.1948    4.2114    3.4732 H   0  0  0  0  0  0  0  0  0  0  0  0
    8.8433    4.7662    3.1649 H   0  0  0  0  0  0  0  0  0  0  0  0
    7.2379    3.4368    1.8003 H   0  0  0  0  0  0  0  0  0  0  0  0
    7.8207    1.1196    1.0905 H   0  0  0  0  0  0  0  0  0  0  0  0
   10.0113    0.1277    1.7514 H   0  0  0  0  0  0  0  0  0  0  0  0
   11.6206    1.4506    3.1164 H   0  0  0  0  0  0  0  0  0  0  0  0
    9.9176    5.3832    6.3464 H   0  0  0  0  0  0  0  0  0  0  0  0
  1  2  1  0
  2  3  1  0
  3  4  1  0
  4  5  1  0
  4  6  1  0
  6  7  1  0
  6  8  1  0
  8  9  1  0
  8 10  1  0
 10 11  2  0
 11 12  1  0
 12 13  1  0
 13 14  1  0
 14 15  1  0
 15 16  2  0
 16 17  1  0
 17 18  2  0
 18 19  1  0
 19 20  2  0
 12 21  2  0
 21 22  1  0
 22  3  1  0
 22 10  1  0
 20 15  1  0
  1 23  1  0
  2 24  1  0
  2 25  1  0
  3 26  1  6
  4 27  1  1
  5 28  1  0
  6 29  1  6
  7 30  1  0
  8 31  1  1
  9 32  1  0
 11 33  1  0
 13 34  1  0
 13 35  1  0
 14 36  1  0
 14 37  1  0
 16 38  1  0
 17 39  1  0
 18 40  1  0
 19 41  1  0
 20 42  1  0
 21 43  1  0
M  CHG  1  11   1
M  END
>  <meeko>  (9) 
{"is_sidechain": [false], "free_energy": -7.087, "intermolecular_energy": -9.366, "internal_energy": -0.642}

$$$$
