1s38_ligand
     RDKit          3D

 22 23  0  0  0  0  0  0  0  0999 V2000
   -2.5370   -5.9750    3.1140 C   0  0  0  0  0  0  0  0  0  0  0  0
   -1.3880   -6.8210    3.5870 C   0  0  0  0  0  0  0  0  0  0  0  0
   -0.5350   -6.3450    4.5960 C   0  0  0  0  0  0  0  0  0  0  0  0
    0.5360   -7.1150    5.0520 C   0  0  0  0  0  0  0  0  0  0  0  0
    0.7670   -8.3740    4.5030 C   0  0  0  0  0  0  0  0  0  0  0  0
   -0.0810   -8.8480    3.4980 C   0  0  0  0  0  0  0  0  0  0  0  0
    0.1330  -10.1740    2.8960 C   0  0  0  0  0  0  0  0  0  0  0  0
    1.0360  -10.9200    3.2590 O   0  0  0  0  0  0  0  0  0  0  0  0
   -0.7470  -10.5240    1.9040 N   0  0  0  0  0  0  0  0  0  0  0  0
   -1.7830   -9.7370    1.5080 C   0  0  0  0  0  0  0  0  0  0  0  0
   -2.5810  -10.2310    0.5290 N   0  0  0  0  0  0  0  0  0  0  0  0
   -2.0160   -8.5700    2.0150 N   0  0  0  0  0  0  0  0  0  0  0  0
   -1.1600   -8.0920    3.0260 C   0  0  0  0  0  0  0  0  0  0  0  0
   -3.0800   -5.5752    3.9830 H   0  0  0  0  0  0  0  0  0  0  0  0
   -2.1534   -5.1421    2.5064 H   0  0  0  0  0  0  0  0  0  0  0  0
   -3.2184   -6.5886    2.5064 H   0  0  0  0  0  0  0  0  0  0  0  0
   -0.7135   -5.3514    5.0330 H   0  0  0  0  0  0  0  0  0  0  0  0
    1.1958   -6.7286    5.8428 H   0  0  0  0  0  0  0  0  0  0  0  0
    1.6079   -8.9888    4.8565 H   0  0  0  0  0  0  0  0  0  0  0  0
   -0.6390  -11.4490    1.5230 H   0  0  0  0  0  0  0  0  0  0  0  0
   -3.5620  -10.0790    0.7430 H   0  0  0  0  0  0  0  0  0  0  0  0
   -2.3460   -9.9540   -0.4150 H   0  0  0  0  0  0  0  0  0  0  0  0
  1  2  1  0
  2  3  2  0
  3  4  1  0
  4  5  2  0
  5  6  1  0
  6  7  1  0
  7  8  2  0
  7  9  1  0
  9 10  1  0
 10 11  1  0
 10 12  2  0
 12 13  1  0
 13  2  1  0
 13  6  2  0
  1 14  1  0
  1 15  1  0
  1 16  1  0
  3 17  1  0
  4 18  1  0
  5 19  1  0
  9 20  1  0
 11 21  1  0
 11 22  1  0
M  END
>  <meeko>  (1) 
{"is_sidechain": [false], "free_energy": -7.37, "intermolecular_energy": -7.585, "internal_energy": 0.0}

$$$$
1s38_ligand
     RDKit          3D

 22 23  0  0  0  0  0  0  0  0999 V2000
   -2.0660   -6.6870    2.5280 C   0  0  0  0  0  0  0  0  0  0  0  0
   -2.0710   -5.9520    3.8390 C   0  0  0  0  0  0  0  0  0  0  0  0
   -3.1590   -5.1300    4.1780 C   0  0  0  0  0  0  0  0  0  0  0  0
   -3.1850   -4.4410    5.3930 C   0  0  0  0  0  0  0  0  0  0  0  0
   -2.1220   -4.5650    6.2830 C   0  0  0  0  0  0  0  0  0  0  0  0
   -1.0390   -5.3820    5.9450 C   0  0  0  0  0  0  0  0  0  0  0  0
    0.1010   -5.5370    6.8630 C   0  0  0  0  0  0  0  0  0  0  0  0
    0.1410   -4.9850    7.9570 O   0  0  0  0  0  0  0  0  0  0  0  0
    1.1160   -6.3450    6.4170 N   0  0  0  0  0  0  0  0  0  0  0  0
    1.0830   -7.0040    5.2280 C   0  0  0  0  0  0  0  0  0  0  0  0
    2.1530   -7.7830    4.9350 N   0  0  0  0  0  0  0  0  0  0  0  0
    0.0990   -6.9060    4.3940 N   0  0  0  0  0  0  0  0  0  0  0  0
   -0.9920   -6.0810    4.7340 C   0  0  0  0  0  0  0  0  0  0  0  0
   -2.0586   -7.7709    2.7154 H   0  0  0  0  0  0  0  0  0  0  0  0
   -2.9660   -6.4201    1.9546 H   0  0  0  0  0  0  0  0  0  0  0  0
   -1.1697   -6.4079    1.9546 H   0  0  0  0  0  0  0  0  0  0  0  0
   -4.0011   -5.0277    3.4777 H   0  0  0  0  0  0  0  0  0  0  0  0
   -4.0438   -3.8018    5.6458 H   0  0  0  0  0  0  0  0  0  0  0  0
   -2.1339   -4.0260    7.2418 H   0  0  0  0  0  0  0  0  0  0  0  0
    1.8750   -6.4960    7.0590 H   0  0  0  0  0  0  0  0  0  0  0  0
    2.6360   -7.4490    4.1070 H   0  0  0  0  0  0  0  0  0  0  0  0
    2.7870   -7.9700    5.7010 H   0  0  0  0  0  0  0  0  0  0  0  0
  1  2  1  0
  2  3  2  0
  3  4  1  0
  4  5  2  0
  5  6  1  0
  6  7  1  0
  7  8  2  0
  7  9  1  0
  9 10  1  0
 10 11  1  0
 10 12  2  0
 12 13  1  0
 13  2  1  0
 13  6  2  0
  1 14  1  0
  1 15  1  0
  1 16  1  0
  3 17  1  0
  4 18  1  0
  5 19  1  0
  9 20  1  0
 11 21  1  0
 11 22  1  0
M  END
>  <meeko>  (2) 
{"is_sidechain": [false], "free_energy": -6.859, "intermolecular_energy": -7.059, "internal_energy": 0.0}

$$$$
1s38_ligand
     RDKit          3D

 22 23  0  0  0  0  0  0  0  0999 V2000
   -0.3150   -4.6050    8.0740 C   0  0  0  0  0  0  0  0  0  0  0  0
   -1.1920   -4.7900    6.8670 C   0  0  0  0  0  0  0  0  0  0  0  0
   -2.4140   -4.1030    6.7770 C   0  0  0  0  0  0  0  0  0  0  0  0
   -3.2430   -4.2590    5.6630 C   0  0  0  0  0  0  0  0  0  0  0  0
   -2.8580   -5.1040    4.6260 C   0  0  0  0  0  0  0  0  0  0  0  0
   -1.6420   -5.7880    4.7170 C   0  0  0  0  0  0  0  0  0  0  0  0
   -1.2030   -6.6880    3.6370 C   0  0  0  0  0  0  0  0  0  0  0  0
   -1.8620   -6.8580    2.6180 O   0  0  0  0  0  0  0  0  0  0  0  0
   -0.0050   -7.3220    3.8450 N   0  0  0  0  0  0  0  0  0  0  0  0
    0.7690   -7.1230    4.9460 C   0  0  0  0  0  0  0  0  0  0  0  0
    1.9390   -7.8070    4.9980 N   0  0  0  0  0  0  0  0  0  0  0  0
    0.4290   -6.3350    5.9130 N   0  0  0  0  0  0  0  0  0  0  0  0
   -0.7970   -5.6470    5.8230 C   0  0  0  0  0  0  0  0  0  0  0  0
   -0.9158   -4.7317    8.9867 H   0  0  0  0  0  0  0  0  0  0  0  0
    0.4916   -5.3528    8.0592 H   0  0  0  0  0  0  0  0  0  0  0  0
    0.1209   -3.5951    8.0592 H   0  0  0  0  0  0  0  0  0  0  0  0
   -2.7222   -3.4338    7.5938 H   0  0  0  0  0  0  0  0  0  0  0  0
   -4.1975   -3.7154    5.6057 H   0  0  0  0  0  0  0  0  0  0  0  0
   -3.5034   -5.2322    3.7445 H   0  0  0  0  0  0  0  0  0  0  0  0
    0.3260   -7.9000    3.0910 H   0  0  0  0  0  0  0  0  0  0  0  0
    2.7100   -7.1980    5.2560 H   0  0  0  0  0  0  0  0  0  0  0  0
    1.9280   -8.6620    5.5360 H   0  0  0  0  0  0  0  0  0  0  0  0
  1  2  1  0
  2  3  2  0
  3  4  1  0
  4  5  2  0
  5  6  1  0
  6  7  1  0
  7  8  2  0
  7  9  1  0
  9 10  1  0
 10 11  1  0
 10 12  2  0
 12 13  1  0
 13  2  1  0
 13  6  2  0
  1 14  1  0
  1 15  1  0
  1 16  1  0
  3 17  1  0
  4 18  1  0
  5 19  1  0
  9 20  1  0
 11 21  1  0
 11 22  1  0
M  END
>  <meeko>  (3) 
{"is_sidechain": [false], "free_energy": -6.52, "intermolecular_energy": -6.711, "internal_energy": 0.0}

$$$$
1s38_ligand
     RDKit          3D

 22 23  0  0  0  0  0  0  0  0999 V2000
   -3.6440   -4.0480    5.2140 C   0  0  0  0  0  0  0  0  0  0  0  0
   -2.6740   -5.0360    4.6290 C   0  0  0  0  0  0  0  0  0  0  0  0
   -2.9120   -5.5820    3.3570 C   0  0  0  0  0  0  0  0  0  0  0  0
   -2.0220   -6.5000    2.7930 C   0  0  0  0  0  0  0  0  0  0  0  0
   -0.8830   -6.8810    3.4970 C   0  0  0  0  0  0  0  0  0  0  0  0
   -0.6480   -6.3390    4.7640 C   0  0  0  0  0  0  0  0  0  0  0  0
    0.5480   -6.7190    5.5350 C   0  0  0  0  0  0  0  0  0  0  0  0
    1.3870   -7.4990    5.0990 O   0  0  0  0  0  0  0  0  0  0  0  0
    0.6620   -6.1410    6.7730 N   0  0  0  0  0  0  0  0  0  0  0  0
   -0.2300   -5.2410    7.2680 C   0  0  0  0  0  0  0  0  0  0  0  0
    0.0320   -4.7400    8.5000 N   0  0  0  0  0  0  0  0  0  0  0  0
   -1.2870   -4.8700    6.6220 N   0  0  0  0  0  0  0  0  0  0  0  0
   -1.5260   -5.4190    5.3470 C   0  0  0  0  0  0  0  0  0  0  0  0
   -3.5978   -4.0950    6.3120 H   0  0  0  0  0  0  0  0  0  0  0  0
   -3.3811   -3.0338    4.8790 H   0  0  0  0  0  0  0  0  0  0  0  0
   -4.6629   -4.2922    4.8790 H   0  0  0  0  0  0  0  0  0  0  0  0
   -3.8107   -5.2831    2.7975 H   0  0  0  0  0  0  0  0  0  0  0  0
   -2.2208   -6.9202    1.7960 H   0  0  0  0  0  0  0  0  0  0  0  0
   -0.1752   -7.6012    3.0608 H   0  0  0  0  0  0  0  0  0  0  0  0
    1.5010   -6.3570    7.2850 H   0  0  0  0  0  0  0  0  0  0  0  0
   -0.6480   -5.0640    9.1810 H   0  0  0  0  0  0  0  0  0  0  0  0
    0.9830   -4.8450    8.8270 H   0  0  0  0  0  0  0  0  0  0  0  0
  1  2  1  0
  2  3  2  0
  3  4  1  0
  4  5  2  0
  5  6  1  0
  6  7  1  0
  7  8  2  0
  7  9  1  0
  9 10  1  0
 10 11  1  0
 10 12  2  0
 12 13  1  0
 13  2  1  0
 13  6  2  0
  1 14  1  0
  1 15  1  0
  1 16  1  0
  3 17  1  0
  4 18  1  0
  5 19  1  0
  9 20  1  0
 11 21  1  0
 11 22  1  0
M  END
>  <meeko>  (4) 
{"is_sidechain": [false], "free_energy": -6.378, "intermolecular_energy": -6.565, "internal_energy": 0.0}

$$$$
1s38_ligand
     RDKit          3D

 22 23  0  0  0  0  0  0  0  0999 V2000
   -1.9060   -4.5100    6.5240 C   0  0  0  0  0  0  0  0  0  0  0  0
   -3.2140   -4.2630    5.8270 C   0  0  0  0  0  0  0  0  0  0  0  0
   -4.3680   -3.9860    6.5800 C   0  0  0  0  0  0  0  0  0  0  0  0
   -5.5930   -3.7510    5.9520 C   0  0  0  0  0  0  0  0  0  0  0  0
   -5.6780   -3.7880    4.5630 C   0  0  0  0  0  0  0  0  0  0  0  0
   -4.5300   -4.0640    3.8150 C   0  0  0  0  0  0  0  0  0  0  0  0
   -4.5840   -4.1100    2.3440 C   0  0  0  0  0  0  0  0  0  0  0  0
   -5.6160   -3.8900    1.7190 O   0  0  0  0  0  0  0  0  0  0  0  0
   -3.4020   -4.4110    1.7170 N   0  0  0  0  0  0  0  0  0  0  0  0
   -2.2320   -4.6190    2.3790 C   0  0  0  0  0  0  0  0  0  0  0  0
   -1.1430   -4.8870    1.6190 N   0  0  0  0  0  0  0  0  0  0  0  0
   -2.1360   -4.5790    3.6680 N   0  0  0  0  0  0  0  0  0  0  0  0
   -3.2930   -4.3040    4.4230 C   0  0  0  0  0  0  0  0  0  0  0  0
   -2.0595   -4.4810    7.6128 H   0  0  0  0  0  0  0  0  0  0  0  0
   -1.5171   -5.4975    6.2347 H   0  0  0  0  0  0  0  0  0  0  0  0
   -1.1838   -3.7324    6.2347 H   0  0  0  0  0  0  0  0  0  0  0  0
   -4.3055   -3.9539    7.6778 H   0  0  0  0  0  0  0  0  0  0  0  0
   -6.4888   -3.5371    6.5536 H   0  0  0  0  0  0  0  0  0  0  0  0
   -6.6382   -3.6020    4.0596 H   0  0  0  0  0  0  0  0  0  0  0  0
   -3.4190   -4.3950    0.7110 H   0  0  0  0  0  0  0  0  0  0  0  0
   -1.3560   -5.5700    0.8980 H   0  0  0  0  0  0  0  0  0  0  0  0
   -0.6510   -4.0830    1.2520 H   0  0  0  0  0  0  0  0  0  0  0  0
  1  2  1  0
  2  3  2  0
  3  4  1  0
  4  5  2  0
  5  6  1  0
  6  7  1  0
  7  8  2  0
  7  9  1  0
  9 10  1  0
 10 11  1  0
 10 12  2  0
 12 13  1  0
 13  2  1  0
 13  6  2  0
  1 14  1  0
  1 15  1  0
  1 16  1  0
  3 17  1  0
  4 18  1  0
  5 19  1  0
  9 20  1  0
 11 21  1  0
 11 22  1  0
M  END
>  <meeko>  (5) 
{"is_sidechain": [false], "free_energy": -6.321, "intermolecular_energy": -6.506, "internal_energy": 0.0}

$$$$
1s38_ligand
     RDKit          3D

 22 23  0  0  0  0  0  0  0  0999 V2000
   -2.1220   -3.9180    7.8900 C   0  0  0  0  0  0  0  0  0  0  0  0
   -2.6670   -4.3040    6.5430 C   0  0  0  0  0  0  0  0  0  0  0  0
   -3.9370   -3.8550    6.1450 C   0  0  0  0  0  0  0  0  0  0  0  0
   -4.4610   -4.1990    4.8970 C   0  0  0  0  0  0  0  0  0  0  0  0
   -3.7180   -4.9970    4.0310 C   0  0  0  0  0  0  0  0  0  0  0  0
   -2.4550   -5.4460    4.4280 C   0  0  0  0  0  0  0  0  0  0  0  0
   -1.6420   -6.2900    3.5360 C   0  0  0  0  0  0  0  0  0  0  0  0
   -2.0210   -6.6150    2.4160 O   0  0  0  0  0  0  0  0  0  0  0  0
   -0.4300   -6.6880    4.0390 N   0  0  0  0  0  0  0  0  0  0  0  0
    0.0370   -6.3100    5.2600 C   0  0  0  0  0  0  0  0  0  0  0  0
    1.2640   -6.7680    5.6080 N   0  0  0  0  0  0  0  0  0  0  0  0
   -0.6370   -5.5620    6.0710 N   0  0  0  0  0  0  0  0  0  0  0  0
   -1.9120   -5.1130    5.6730 C   0  0  0  0  0  0  0  0  0  0  0  0
   -2.7473   -4.3609    8.6792 H   0  0  0  0  0  0  0  0  0  0  0  0
   -1.0909   -4.2883    7.9882 H   0  0  0  0  0  0  0  0  0  0  0  0
   -2.1291   -2.8224    7.9882 H   0  0  0  0  0  0  0  0  0  0  0  0
   -4.5270   -3.2237    6.8257 H   0  0  0  0  0  0  0  0  0  0  0  0
   -5.4574   -3.8407    4.5991 H   0  0  0  0  0  0  0  0  0  0  0  0
   -4.1206   -5.2713    3.0448 H   0  0  0  0  0  0  0  0  0  0  0  0
    0.1520   -7.2230    3.4170 H   0  0  0  0  0  0  0  0  0  0  0  0
    1.9190   -6.6890    4.8360 H   0  0  0  0  0  0  0  0  0  0  0  0
    1.6430   -6.4040    6.4720 H   0  0  0  0  0  0  0  0  0  0  0  0
  1  2  1  0
  2  3  2  0
  3  4  1  0
  4  5  2  0
  5  6  1  0
  6  7  1  0
  7  8  2  0
  7  9  1  0
  9 10  1  0
 10 11  1  0
 10 12  2  0
 12 13  1  0
 13  2  1  0
 13  6  2  0
  1 14  1  0
  1 15  1  0
  1 16  1  0
  3 17  1  0
  4 18  1  0
  5 19  1  0
  9 20  1  0
 11 21  1  0
 11 22  1  0
M  END
>  <meeko>  (6) 
{"is_sidechain": [false], "free_energy": -6.284, "intermolecular_energy": -6.468, "internal_energy": 0.0}

$$$$
1s38_ligand
     RDKit          3D

 22 23  0  0  0  0  0  0  0  0999 V2000
   -2.8790   -3.4930    7.0230 C   0  0  0  0  0  0  0  0  0  0  0  0
   -1.9050   -4.4980    6.4750 C   0  0  0  0  0  0  0  0  0  0  0  0
   -0.7940   -4.8870    7.2410 C   0  0  0  0  0  0  0  0  0  0  0  0
    0.1220   -5.8220    6.7520 C   0  0  0  0  0  0  0  0  0  0  0  0
   -0.0650   -6.3790    5.4900 C   0  0  0  0  0  0  0  0  0  0  0  0
   -1.1700   -5.9900    4.7270 C   0  0  0  0  0  0  0  0  0  0  0  0
   -1.3990   -6.5610    3.3890 C   0  0  0  0  0  0  0  0  0  0  0  0
   -0.6550   -7.4040    2.9000 O   0  0  0  0  0  0  0  0  0  0  0  0
   -2.5020   -6.0890    2.7250 N   0  0  0  0  0  0  0  0  0  0  0  0
   -3.3700   -5.1860    3.2560 C   0  0  0  0  0  0  0  0  0  0  0  0
   -4.4270   -4.8330    2.4850 N   0  0  0  0  0  0  0  0  0  0  0  0
   -3.2150   -4.6660    4.4300 N   0  0  0  0  0  0  0  0  0  0  0  0
   -2.0990   -5.0560    5.1980 C   0  0  0  0  0  0  0  0  0  0  0  0
   -2.8535   -3.5194    8.1224 H   0  0  0  0  0  0  0  0  0  0  0  0
   -2.6032   -2.4870    6.6738 H   0  0  0  0  0  0  0  0  0  0  0  0
   -3.8931   -3.7371    6.6738 H   0  0  0  0  0  0  0  0  0  0  0  0
   -0.6429   -4.4499    8.2390 H   0  0  0  0  0  0  0  0  0  0  0  0
    0.9882   -6.1170    7.3624 H   0  0  0  0  0  0  0  0  0  0  0  0
    0.6493   -7.1176    5.0972 H   0  0  0  0  0  0  0  0  0  0  0  0
   -2.6940   -6.5100    1.8320 H   0  0  0  0  0  0  0  0  0  0  0  0
   -4.7140   -3.8760    2.6690 H   0  0  0  0  0  0  0  0  0  0  0  0
   -4.3370   -5.0230    1.4960 H   0  0  0  0  0  0  0  0  0  0  0  0
  1  2  1  0
  2  3  2  0
  3  4  1  0
  4  5  2  0
  5  6  1  0
  6  7  1  0
  7  8  2  0
  7  9  1  0
  9 10  1  0
 10 11  1  0
 10 12  2  0
 12 13  1  0
 13  2  1  0
 13  6  2  0
  1 14  1  0
  1 15  1  0
  1 16  1  0
  3 17  1  0
  4 18  1  0
  5 19  1  0
  9 20  1  0
 11 21  1  0
 11 22  1  0
M  END
>  <meeko>  (7) 
{"is_sidechain": [false], "free_energy": -6.138, "intermolecular_energy": -6.317, "internal_energy": 0.0}

$$$$
1s38_ligand
     RDKit          3D

 22 23  0  0  0  0  0  0  0  0999 V2000
   -4.4810   -3.9980    6.3300 C   0  0  0  0  0  0  0  0  0  0  0  0
   -4.3960   -3.9630    4.8300 C   0  0  0  0  0  0  0  0  0  0  0  0
   -5.4040   -3.3280    4.0850 C   0  0  0  0  0  0  0  0  0  0  0  0
   -5.3430   -3.2810    2.6910 C   0  0  0  0  0  0  0  0  0  0  0  0
   -4.2710   -3.8680    2.0240 C   0  0  0  0  0  0  0  0  0  0  0  0
   -3.2680   -4.5000    2.7650 C   0  0  0  0  0  0  0  0  0  0  0  0
   -2.1190   -5.1290    2.0930 C   0  0  0  0  0  0  0  0  0  0  0  0
   -1.9810   -5.1090    0.8750 O   0  0  0  0  0  0  0  0  0  0  0  0
   -1.2100   -5.7380    2.9190 N   0  0  0  0  0  0  0  0  0  0  0  0
   -1.3130   -5.7420    4.2760 C   0  0  0  0  0  0  0  0  0  0  0  0
   -0.3220   -6.3680    4.9580 N   0  0  0  0  0  0  0  0  0  0  0  0
   -2.2980   -5.1940    4.9090 N   0  0  0  0  0  0  0  0  0  0  0  0
   -3.3100   -4.5590    4.1630 C   0  0  0  0  0  0  0  0  0  0  0  0
   -3.5446   -3.6124    6.7594 H   0  0  0  0  0  0  0  0  0  0  0  0
   -5.3223   -3.3731    6.6643 H   0  0  0  0  0  0  0  0  0  0  0  0
   -4.6384   -5.0341    6.6643 H   0  0  0  0  0  0  0  0  0  0  0  0
   -6.2525   -2.8617    4.6071 H   0  0  0  0  0  0  0  0  0  0  0  0
   -6.1401   -2.7813    2.1209 H   0  0  0  0  0  0  0  0  0  0  0  0
   -4.2139   -3.8348    0.9260 H   0  0  0  0  0  0  0  0  0  0  0  0
   -0.3970   -6.1270    2.4720 H   0  0  0  0  0  0  0  0  0  0  0  0
   -0.2590   -7.3480    4.6990 H   0  0  0  0  0  0  0  0  0  0  0  0
    0.5790   -5.9090    4.9500 H   0  0  0  0  0  0  0  0  0  0  0  0
  1  2  1  0
  2  3  2  0
  3  4  1  0
  4  5  2  0
  5  6  1  0
  6  7  1  0
  7  8  2  0
  7  9  1  0
  9 10  1  0
 10 11  1  0
 10 12  2  0
 12 13  1  0
 13  2  1  0
 13  6  2  0
  1 14  1  0
  1 15  1  0
  1 16  1  0
  3 17  1  0
  4 18  1  0
  5 19  1  0
  9 20  1  0
 11 21  1  0
 11 22  1  0
M  END
>  <meeko>  (8) 
{"is_sidechain": [false], "free_energy": -6.083, "intermolecular_energy": -6.26, "internal_energy": 0.0}

$$$$
1s38_ligand
     RDKit          3D

 22 23  0  0  0  0  0  0  0  0999 V2000
   -5.8160   -3.0120    2.7690 C   0  0  0  0  0  0  0  0  0  0  0  0
   -4.8940   -3.5980    3.8010 C   0  0  0  0  0  0  0  0  0  0  0  0
   -5.2340   -3.5320    5.1630 C   0  0  0  0  0  0  0  0  0  0  0  0
   -4.3940   -4.0740    6.1380 C   0  0  0  0  0  0  0  0  0  0  0  0
   -3.2030   -4.6890    5.7630 C   0  0  0  0  0  0  0  0  0  0  0  0
   -2.8640   -4.7530    4.4080 C   0  0  0  0  0  0  0  0  0  0  0  0
   -1.6130   -5.3970    3.9750 C   0  0  0  0  0  0  0  0  0  0  0  0
   -0.8350   -5.9170    4.7680 O   0  0  0  0  0  0  0  0  0  0  0  0
   -1.3750   -5.3810    2.6250 N   0  0  0  0  0  0  0  0  0  0  0  0
   -2.2360   -4.8500    1.7160 C   0  0  0  0  0  0  0  0  0  0  0  0
   -1.8710   -4.9300    0.4130 N   0  0  0  0  0  0  0  0  0  0  0  0
   -3.3500   -4.2840    2.0490 N   0  0  0  0  0  0  0  0  0  0  0  0
   -3.6910   -4.2170    3.4140 C   0  0  0  0  0  0  0  0  0  0  0  0
   -6.6420   -2.4870    3.2711 H   0  0  0  0  0  0  0  0  0  0  0  0
   -5.2587   -2.3020    2.1403 H   0  0  0  0  0  0  0  0  0  0  0  0
   -6.2222   -3.8180    2.1403 H   0  0  0  0  0  0  0  0  0  0  0  0
   -6.1740   -3.0471    5.4650 H   0  0  0  0  0  0  0  0  0  0  0  0
   -4.6730   -4.0150    7.2004 H   0  0  0  0  0  0  0  0  0  0  0  0
   -2.5359   -5.1199    6.5241 H   0  0  0  0  0  0  0  0  0  0  0  0
   -0.5470   -5.8630    2.3160 H   0  0  0  0  0  0  0  0  0  0  0  0
   -2.6830   -4.9480   -0.1960 H   0  0  0  0  0  0  0  0  0  0  0  0
   -1.1760   -4.2630    0.1070 H   0  0  0  0  0  0  0  0  0  0  0  0
  1  2  1  0
  2  3  2  0
  3  4  1  0
  4  5  2  0
  5  6  1  0
  6  7  1  0
  7  8  2  0
  7  9  1  0
  9 10  1  0
 10 11  1  0
 10 12  2  0
 12 13  1  0
 13  2  1  0
 13  6  2  0
  1 14  1  0
  1 15  1  0
  1 16  1  0
  3 17  1  0
  4 18  1  0
  5 19  1  0
  9 20  1  0
 11 21  1  0
 11 22  1  0
M  END
>  <meeko>  (9) 
{"is_sidechain": [false], "free_energy": -6.008, "intermolecular_energy": -6.184, "internal_energy": 0.0}

$$$$
