2qbp_ligand
     RDKit          3D

 60 63  0  0  0  0  0  0  0  0999 V2000
    2.6940    4.7350   -9.0050 O   0  0  0  0  0  0  0  0  0  0  0  0
    3.6860    5.3690   -8.5300 C   0  0  0  0  0  0  0  0  0  0  0  0
    4.7970    4.8920   -8.1390 O   0  0  0  0  0  0  0  0  0  0  0  0
    3.5520    6.9080   -8.4870 C   0  0  0  0  0  0  0  0  0  0  0  0
    3.1620    7.4550   -9.7690 O   0  0  0  0  0  0  0  0  0  0  0  0
    4.2300    7.9610  -10.4350 C   0  0  0  0  0  0  0  0  0  0  0  0
    5.0260    7.2490  -11.3150 C   0  0  0  0  0  0  0  0  0  0  0  0
    4.8420    5.7450  -11.8010 C   0  0  0  0  0  0  0  0  0  0  0  0
    5.7440    4.8950  -11.5240 O   0  0  0  0  0  0  0  0  0  0  0  0
    3.7650    5.4840  -12.4330 O   0  0  0  0  0  0  0  0  0  0  0  0
    6.3410    8.2120  -11.8720 S   0  0  0  0  0  0  0  0  0  0  0  0
    5.8120    9.5900  -11.0030 C   0  0  0  0  0  0  0  0  0  0  0  0
    6.6400   10.7970  -10.9890 C   0  0  0  0  0  0  0  0  0  0  0  0
    6.1760   12.0160  -11.4910 C   0  0  0  0  0  0  0  0  0  0  0  0
    7.0080   13.1350  -11.4890 C   0  0  0  0  0  0  0  0  0  0  0  0
    8.3020   13.0400  -10.9710 C   0  0  0  0  0  0  0  0  0  0  0  0
    8.7750   11.8440  -10.4190 C   0  0  0  0  0  0  0  0  0  0  0  0
   10.1230   11.8000  -10.0000 N   0  0  0  0  0  0  0  0  0  0  0  0
   10.4060   11.2060   -8.6690 C   0  0  0  0  0  0  0  0  0  0  0  0
   10.1070    9.7010   -8.7530 C   0  0  0  0  0  0  0  0  0  0  0  0
   11.3080    8.9350   -9.2870 C   0  0  0  0  0  0  0  0  0  0  0  0
   12.4940    9.0820   -8.3990 N   0  0  0  0  0  0  0  0  0  0  0  0
   13.1350    7.6590   -7.7140 S   0  0  0  0  0  0  0  0  0  0  0  0
   14.5790    7.7810   -7.7430 O   0  0  0  0  0  0  0  0  0  0  0  0
   12.4570    6.5320   -8.3210 O   0  0  0  0  0  0  0  0  0  0  0  0
   12.5510    7.8230   -6.0190 C   0  0  0  0  0  0  0  0  0  0  0  0
   13.4240    7.0050   -5.1020 C   0  0  0  0  0  0  0  0  0  0  0  0
   14.3970    7.6230   -4.3040 C   0  0  0  0  0  0  0  0  0  0  0  0
   15.2050    6.8640   -3.4570 C   0  0  0  0  0  0  0  0  0  0  0  0
   15.0510    5.4800   -3.4010 C   0  0  0  0  0  0  0  0  0  0  0  0
   14.0930    4.8540   -4.1950 C   0  0  0  0  0  0  0  0  0  0  0  0
   13.2830    5.6120   -5.0420 C   0  0  0  0  0  0  0  0  0  0  0  0
   12.4500   10.2680   -7.4970 C   0  0  0  0  0  0  0  0  0  0  0  0
   11.8640   11.4590   -8.2460 C   0  0  0  0  0  0  0  0  0  0  0  0
    7.9450   10.7210  -10.4720 C   0  0  0  0  0  0  0  0  0  0  0  0
    4.6230    9.3280  -10.3590 C   0  0  0  0  0  0  0  0  0  0  0  0
    3.5940   10.6250   -9.4230 Br  0  0  0  0  0  0  0  0  0  0  0  0
    2.7910    7.1773   -7.7398 H   0  0  0  0  0  0  0  0  0  0  0  0
    4.5344    7.3271   -8.2238 H   0  0  0  0  0  0  0  0  0  0  0  0
    5.1531   12.0928  -11.8882 H   0  0  0  0  0  0  0  0  0  0  0  0
    6.6460   14.0912  -11.8947 H   0  0  0  0  0  0  0  0  0  0  0  0
    8.9606   13.9206  -10.9974 H   0  0  0  0  0  0  0  0  0  0  0  0
   10.5990   11.2430  -10.7140 H   0  0  0  0  0  0  0  0  0  0  0  0
    9.7701   11.6754   -7.9040 H   0  0  0  0  0  0  0  0  0  0  0  0
    9.8595    9.3269   -7.7486 H   0  0  0  0  0  0  0  0  0  0  0  0
    9.2614    9.5497   -9.4401 H   0  0  0  0  0  0  0  0  0  0  0  0
   11.0472    7.8689   -9.3599 H   0  0  0  0  0  0  0  0  0  0  0  0
   11.5657    9.3461  -10.2742 H   0  0  0  0  0  0  0  0  0  0  0  0
   12.5932    8.8802   -5.7179 H   0  0  0  0  0  0  0  0  0  0  0  0
   11.5138    7.4626   -5.9535 H   0  0  0  0  0  0  0  0  0  0  0  0
   14.5243    8.7148   -4.3460 H   0  0  0  0  0  0  0  0  0  0  0  0
   15.9641    7.3583   -2.8330 H   0  0  0  0  0  0  0  0  0  0  0  0
   15.6856    4.8824   -2.7301 H   0  0  0  0  0  0  0  0  0  0  0  0
   13.9747    3.7611   -4.1545 H   0  0  0  0  0  0  0  0  0  0  0  0
   12.5283    5.1123   -5.6671 H   0  0  0  0  0  0  0  0  0  0  0  0
   11.8219   10.0401   -6.6232 H   0  0  0  0  0  0  0  0  0  0  0  0
   13.4697   10.5117   -7.1643 H   0  0  0  0  0  0  0  0  0  0  0  0
   11.8968   12.3425   -7.5916 H   0  0  0  0  0  0  0  0  0  0  0  0
   12.4615   11.6189   -9.1557 H   0  0  0  0  0  0  0  0  0  0  0  0
    8.3212    9.7562  -10.1010 H   0  0  0  0  0  0  0  0  0  0  0  0
  1  2  2  0
  2  3  1  0
  2  4  1  0
  4  5  1  0
  5  6  1  0
  6  7  2  0
  7  8  1  0
  8  9  2  0
  8 10  1  0
  7 11  1  0
 11 12  1  0
 12 13  1  0
 13 14  2  0
 14 15  1  0
 15 16  2  0
 16 17  1  0
 17 18  1  0
 18 19  1  0
 19 20  1  0
 20 21  1  0
 21 22  1  0
 22 23  1  0
 23 24  2  0
 23 25  2  0
 23 26  1  0
 26 27  1  0
 27 28  2  0
 28 29  1  0
 29 30  2  0
 30 31  1  0
 31 32  2  0
 22 33  1  0
 33 34  1  0
 17 35  2  0
 12 36  2  0
 36 37  1  0
 36  6  1  0
 35 13  1  0
 34 19  1  0
 32 27  1  0
  4 38  1  0
  4 39  1  0
 14 40  1  0
 15 41  1  0
 16 42  1  0
 18 43  1  0
 19 44  1  0
 20 45  1  0
 20 46  1  0
 21 47  1  0
 21 48  1  0
 26 49  1  0
 26 50  1  0
 28 51  1  0
 29 52  1  0
 30 53  1  0
 31 54  1  0
 32 55  1  0
 33 56  1  0
 33 57  1  0
 34 58  1  0
 34 59  1  0
 35 60  1  0
M  CHG  2   3  -1  10  -1
M  END
>  <meeko>  (1) 
{"is_sidechain": [false], "free_energy": -7.398, "intermolecular_energy": -11.722, "internal_energy": -1.018}

$$$$
2qbp_ligand
     RDKit          3D

 60 63  0  0  0  0  0  0  0  0999 V2000
    5.5050    9.7770   -9.0120 O   0  0  0  0  0  0  0  0  0  0  0  0
    4.3430    9.9100   -9.5060 C   0  0  0  0  0  0  0  0  0  0  0  0
    3.9080   10.8690  -10.2180 O   0  0  0  0  0  0  0  0  0  0  0  0
    3.3660    8.7340   -9.2740 C   0  0  0  0  0  0  0  0  0  0  0  0
    3.2250    7.9050  -10.4530 O   0  0  0  0  0  0  0  0  0  0  0  0
    4.2460    7.0170  -10.5560 C   0  0  0  0  0  0  0  0  0  0  0  0
    4.3570    5.8490   -9.8230 C   0  0  0  0  0  0  0  0  0  0  0  0
    3.3180    5.2480   -8.7790 C   0  0  0  0  0  0  0  0  0  0  0  0
    3.4010    5.5940   -7.5600 O   0  0  0  0  0  0  0  0  0  0  0  0
    2.4370    4.4550   -9.2520 O   0  0  0  0  0  0  0  0  0  0  0  0
    5.8430    5.0480  -10.1640 S   0  0  0  0  0  0  0  0  0  0  0  0
    6.3010    6.2130  -11.3340 C   0  0  0  0  0  0  0  0  0  0  0  0
    7.6250    6.1320  -11.9540 C   0  0  0  0  0  0  0  0  0  0  0  0
    7.8100    5.5950  -13.2310 C   0  0  0  0  0  0  0  0  0  0  0  0
    9.0910    5.5060  -13.7730 C   0  0  0  0  0  0  0  0  0  0  0  0
   10.1900    5.9680  -13.0440 C   0  0  0  0  0  0  0  0  0  0  0  0
   10.0270    6.5530  -11.7820 C   0  0  0  0  0  0  0  0  0  0  0  0
   11.1920    6.9110  -11.0670 N   0  0  0  0  0  0  0  0  0  0  0  0
   11.0530    7.1430   -9.6070 C   0  0  0  0  0  0  0  0  0  0  0  0
   12.3550    6.6820   -8.9330 C   0  0  0  0  0  0  0  0  0  0  0  0
   13.3990    7.7880   -8.9520 C   0  0  0  0  0  0  0  0  0  0  0  0
   12.9410    8.9920   -8.2070 N   0  0  0  0  0  0  0  0  0  0  0  0
   13.8750    9.4840   -6.8690 S   0  0  0  0  0  0  0  0  0  0  0  0
   13.8460   10.9320   -6.8330 O   0  0  0  0  0  0  0  0  0  0  0  0
   15.1240    8.7520   -6.9100 O   0  0  0  0  0  0  0  0  0  0  0  0
   12.8800    8.8270   -5.5200 C   0  0  0  0  0  0  0  0  0  0  0  0
   13.5510    7.6070   -4.9440 C   0  0  0  0  0  0  0  0  0  0  0  0
   13.1590    6.3220   -5.3450 C   0  0  0  0  0  0  0  0  0  0  0  0
   13.7810    5.1930   -4.8090 C   0  0  0  0  0  0  0  0  0  0  0  0
   14.7980    5.3360   -3.8680 C   0  0  0  0  0  0  0  0  0  0  0  0
   15.1910    6.6080   -3.4570 C   0  0  0  0  0  0  0  0  0  0  0  0
   14.5710    7.7380   -3.9910 C   0  0  0  0  0  0  0  0  0  0  0  0
   11.4630    9.0870   -8.0310 C   0  0  0  0  0  0  0  0  0  0  0  0
   10.7660    8.6240   -9.3040 C   0  0  0  0  0  0  0  0  0  0  0  0
    8.7420    6.5920  -11.2350 C   0  0  0  0  0  0  0  0  0  0  0  0
    5.3050    7.1500  -11.4990 C   0  0  0  0  0  0  0  0  0  0  0  0
    5.3200    8.5200  -12.8170 Br  0  0  0  0  0  0  0  0  0  0  0  0
    3.7455    8.1148   -8.4478 H   0  0  0  0  0  0  0  0  0  0  0  0
    2.3784    9.1550   -9.0347 H   0  0  0  0  0  0  0  0  0  0  0  0
    6.9433    5.2421  -13.8092 H   0  0  0  0  0  0  0  0  0  0  0  0
    9.2367    5.0726  -14.7735 H   0  0  0  0  0  0  0  0  0  0  0  0
   11.2001    5.8706  -13.4685 H   0  0  0  0  0  0  0  0  0  0  0  0
   11.8360    6.1310  -11.2150 H   0  0  0  0  0  0  0  0  0  0  0  0
   10.2001    6.5705   -9.2137 H   0  0  0  0  0  0  0  0  0  0  0  0
   12.1420    6.4061   -7.8897 H   0  0  0  0  0  0  0  0  0  0  0  0
   12.7497    5.8175   -9.4869 H   0  0  0  0  0  0  0  0  0  0  0  0
   14.3237    7.4130   -8.4890 H   0  0  0  0  0  0  0  0  0  0  0  0
   13.5711    8.0783   -9.9990 H   0  0  0  0  0  0  0  0  0  0  0  0
   12.7756    9.5917   -4.7362 H   0  0  0  0  0  0  0  0  0  0  0  0
   11.8855    8.5512   -5.9006 H   0  0  0  0  0  0  0  0  0  0  0  0
   12.3558    6.2026   -6.0871 H   0  0  0  0  0  0  0  0  0  0  0  0
   13.4675    4.1888   -5.1303 H   0  0  0  0  0  0  0  0  0  0  0  0
   15.2903    4.4457   -3.4498 H   0  0  0  0  0  0  0  0  0  0  0  0
   15.9910    6.7214   -2.7106 H   0  0  0  0  0  0  0  0  0  0  0  0
   14.8849    8.7395   -3.6618 H   0  0  0  0  0  0  0  0  0  0  0  0
   11.1526    8.4486   -7.1907 H   0  0  0  0  0  0  0  0  0  0  0  0
   11.1863   10.1309   -7.8220 H   0  0  0  0  0  0  0  0  0  0  0  0
    9.6808    8.7592   -9.1850 H   0  0  0  0  0  0  0  0  0  0  0  0
   11.1500    9.2248  -10.1416 H   0  0  0  0  0  0  0  0  0  0  0  0
    8.6013    6.9913  -10.2197 H   0  0  0  0  0  0  0  0  0  0  0  0
  1  2  2  0
  2  3  1  0
  2  4  1  0
  4  5  1  0
  5  6  1  0
  6  7  2  0
  7  8  1  0
  8  9  2  0
  8 10  1  0
  7 11  1  0
 11 12  1  0
 12 13  1  0
 13 14  2  0
 14 15  1  0
 15 16  2  0
 16 17  1  0
 17 18  1  0
 18 19  1  0
 19 20  1  0
 20 21  1  0
 21 22  1  0
 22 23  1  0
 23 24  2  0
 23 25  2  0
 23 26  1  0
 26 27  1  0
 27 28  2  0
 28 29  1  0
 29 30  2  0
 30 31  1  0
 31 32  2  0
 22 33  1  0
 33 34  1  0
 17 35  2  0
 12 36  2  0
 36 37  1  0
 36  6  1  0
 35 13  1  0
 34 19  1  0
 32 27  1  0
  4 38  1  0
  4 39  1  0
 14 40  1  0
 15 41  1  0
 16 42  1  0
 18 43  1  0
 19 44  1  0
 20 45  1  0
 20 46  1  0
 21 47  1  0
 21 48  1  0
 26 49  1  0
 26 50  1  0
 28 51  1  0
 29 52  1  0
 30 53  1  0
 31 54  1  0
 32 55  1  0
 33 56  1  0
 33 57  1  0
 34 58  1  0
 34 59  1  0
 35 60  1  0
M  CHG  2   3  -1  10  -1
M  END
>  <meeko>  (2) 
{"is_sidechain": [false], "free_energy": -7.286, "intermolecular_energy": -11.004, "internal_energy": -1.561}

$$$$
2qbp_ligand
     RDKit          3D

 60 63  0  0  0  0  0  0  0  0999 V2000
    2.5230    4.6010   -8.9630 O   0  0  0  0  0  0  0  0  0  0  0  0
    3.5970    5.2110   -8.6670 C   0  0  0  0  0  0  0  0  0  0  0  0
    4.7510    4.7080   -8.4870 O   0  0  0  0  0  0  0  0  0  0  0  0
    3.5040    6.7520   -8.5860 C   0  0  0  0  0  0  0  0  0  0  0  0
    3.1410    7.3410   -9.8580 O   0  0  0  0  0  0  0  0  0  0  0  0
    4.2340    7.7960  -10.5200 C   0  0  0  0  0  0  0  0  0  0  0  0
    4.9760    7.0590  -11.4260 C   0  0  0  0  0  0  0  0  0  0  0  0
    4.6930    5.5830  -11.9490 C   0  0  0  0  0  0  0  0  0  0  0  0
    3.5190    5.2770  -12.3220 O   0  0  0  0  0  0  0  0  0  0  0  0
    5.6950    4.7930  -11.9780 O   0  0  0  0  0  0  0  0  0  0  0  0
    6.3450    7.9500  -11.9710 S   0  0  0  0  0  0  0  0  0  0  0  0
    5.9110    9.3360  -11.0610 C   0  0  0  0  0  0  0  0  0  0  0  0
    6.8150   10.4870  -11.0240 C   0  0  0  0  0  0  0  0  0  0  0  0
    6.4080   11.7580  -11.4410 C   0  0  0  0  0  0  0  0  0  0  0  0
    7.3080   12.8220  -11.4210 C   0  0  0  0  0  0  0  0  0  0  0  0
    8.6150   12.6210  -10.9690 C   0  0  0  0  0  0  0  0  0  0  0  0
    9.0340   11.3690  -10.5010 C   0  0  0  0  0  0  0  0  0  0  0  0
   10.3940   11.2200  -10.1490 N   0  0  0  0  0  0  0  0  0  0  0  0
   11.3730   11.0620  -11.2540 C   0  0  0  0  0  0  0  0  0  0  0  0
   12.4400   10.0550  -10.7940 C   0  0  0  0  0  0  0  0  0  0  0  0
   11.9920    8.6260  -11.0620 C   0  0  0  0  0  0  0  0  0  0  0  0
   11.7740    8.3800  -12.5140 N   0  0  0  0  0  0  0  0  0  0  0  0
   12.7270    7.1740  -13.2520 S   0  0  0  0  0  0  0  0  0  0  0  0
   13.6710    6.7040  -12.2570 O   0  0  0  0  0  0  0  0  0  0  0  0
   13.1680    7.6830  -14.5350 O   0  0  0  0  0  0  0  0  0  0  0  0
   11.4810    5.9090  -13.5450 C   0  0  0  0  0  0  0  0  0  0  0  0
   10.9370    5.4200  -12.2270 C   0  0  0  0  0  0  0  0  0  0  0  0
   11.7800    4.8030  -11.2920 C   0  0  0  0  0  0  0  0  0  0  0  0
   11.2750    4.3500  -10.0730 C   0  0  0  0  0  0  0  0  0  0  0  0
    9.9220    4.5060   -9.7770 C   0  0  0  0  0  0  0  0  0  0  0  0
    9.0730    5.1100  -10.7010 C   0  0  0  0  0  0  0  0  0  0  0  0
    9.5770    5.5650  -11.9210 C   0  0  0  0  0  0  0  0  0  0  0  0
   11.5530    9.6110  -13.3260 C   0  0  0  0  0  0  0  0  0  0  0  0
   10.6830   10.5880  -12.5450 C   0  0  0  0  0  0  0  0  0  0  0  0
    8.1330   10.3040  -10.5720 C   0  0  0  0  0  0  0  0  0  0  0  0
    4.7130    9.1330  -10.4120 C   0  0  0  0  0  0  0  0  0  0  0  0
    3.7760   10.4670   -9.4340 Br  0  0  0  0  0  0  0  0  0  0  0  0
    2.7433    7.0231   -7.8391 H   0  0  0  0  0  0  0  0  0  0  0  0
    4.4945    7.1378   -8.3032 H   0  0  0  0  0  0  0  0  0  0  0  0
    5.3757   11.9184  -11.7854 H   0  0  0  0  0  0  0  0  0  0  0  0
    6.9899   13.8188  -11.7606 H   0  0  0  0  0  0  0  0  0  0  0  0
    9.3265   13.4598  -10.9809 H   0  0  0  0  0  0  0  0  0  0  0  0
   10.6220   12.0710   -9.6290 H   0  0  0  0  0  0  0  0  0  0  0  0
   11.8409   12.0304  -11.4850 H   0  0  0  0  0  0  0  0  0  0  0  0
   13.3753   10.2472  -11.3401 H   0  0  0  0  0  0  0  0  0  0  0  0
   12.5938   10.1771   -9.7117 H   0  0  0  0  0  0  0  0  0  0  0  0
   12.7658    7.9353  -10.6957 H   0  0  0  0  0  0  0  0  0  0  0  0
   11.0379    8.4623  -10.5396 H   0  0  0  0  0  0  0  0  0  0  0  0
   10.6620    6.3337  -14.1441 H   0  0  0  0  0  0  0  0  0  0  0  0
   11.9358    5.0670  -14.0874 H   0  0  0  0  0  0  0  0  0  0  0  0
   12.8482    4.6751  -11.5214 H   0  0  0  0  0  0  0  0  0  0  0  0
   11.9451    3.8694   -9.3450 H   0  0  0  0  0  0  0  0  0  0  0  0
    9.5250    4.1522   -8.8141 H   0  0  0  0  0  0  0  0  0  0  0  0
    8.0042    5.2287  -10.4694 H   0  0  0  0  0  0  0  0  0  0  0  0
    8.9017    6.0408  -12.6473 H   0  0  0  0  0  0  0  0  0  0  0  0
   12.5220   10.0813  -13.5494 H   0  0  0  0  0  0  0  0  0  0  0  0
   11.0487    9.3432  -14.2662 H   0  0  0  0  0  0  0  0  0  0  0  0
   10.4732   11.4626  -13.1783 H   0  0  0  0  0  0  0  0  0  0  0  0
    9.7537   10.0700  -12.2655 H   0  0  0  0  0  0  0  0  0  0  0  0
    8.4624    9.2997  -10.2673 H   0  0  0  0  0  0  0  0  0  0  0  0
  1  2  2  0
  2  3  1  0
  2  4  1  0
  4  5  1  0
  5  6  1  0
  6  7  2  0
  7  8  1  0
  8  9  2  0
  8 10  1  0
  7 11  1  0
 11 12  1  0
 12 13  1  0
 13 14  2  0
 14 15  1  0
 15 16  2  0
 16 17  1  0
 17 18  1  0
 18 19  1  0
 19 20  1  0
 20 21  1  0
 21 22  1  0
 22 23  1  0
 23 24  2  0
 23 25  2  0
 23 26  1  0
 26 27  1  0
 27 28  2  0
 28 29  1  0
 29 30  2  0
 30 31  1  0
 31 32  2  0
 22 33  1  0
 33 34  1  0
 17 35  2  0
 12 36  2  0
 36 37  1  0
 36  6  1  0
 35 13  1  0
 34 19  1  0
 32 27  1  0
  4 38  1  0
  4 39  1  0
 14 40  1  0
 15 41  1  0
 16 42  1  0
 18 43  1  0
 19 44  1  0
 20 45  1  0
 20 46  1  0
 21 47  1  0
 21 48  1  0
 26 49  1  0
 26 50  1  0
 28 51  1  0
 29 52  1  0
 30 53  1  0
 31 54  1  0
 32 55  1  0
 33 56  1  0
 33 57  1  0
 34 58  1  0
 34 59  1  0
 35 60  1  0
M  CHG  2   3  -1  10  -1
M  END
>  <meeko>  (3) 
{"is_sidechain": [false], "free_energy": -7.187, "intermolecular_energy": -11.015, "internal_energy": -1.392}

$$$$
2qbp_ligand
     RDKit          3D

 60 63  0  0  0  0  0  0  0  0999 V2000
   14.7880    5.0320   -3.9460 O   0  0  0  0  0  0  0  0  0  0  0  0
   13.6700    4.8210   -4.5100 C   0  0  0  0  0  0  0  0  0  0  0  0
   12.7140    4.0940   -4.0930 O   0  0  0  0  0  0  0  0  0  0  0  0
   13.4150    5.5950   -5.8240 C   0  0  0  0  0  0  0  0  0  0  0  0
   14.3800    6.6550   -6.0260 O   0  0  0  0  0  0  0  0  0  0  0  0
   13.7770    7.8690   -6.0730 C   0  0  0  0  0  0  0  0  0  0  0  0
   13.6830    8.7490   -5.0090 C   0  0  0  0  0  0  0  0  0  0  0  0
   14.3020    8.5890   -3.5510 C   0  0  0  0  0  0  0  0  0  0  0  0
   15.4330    8.0280   -3.4220 O   0  0  0  0  0  0  0  0  0  0  0  0
   13.6120    9.0680   -2.5900 O   0  0  0  0  0  0  0  0  0  0  0  0
   12.7530   10.1340   -5.4360 S   0  0  0  0  0  0  0  0  0  0  0  0
   12.5400    9.5990   -7.0490 C   0  0  0  0  0  0  0  0  0  0  0  0
   11.6770   10.3600   -7.9540 C   0  0  0  0  0  0  0  0  0  0  0  0
   12.1090   11.5390   -8.5700 C   0  0  0  0  0  0  0  0  0  0  0  0
   11.2450   12.2510   -9.4000 C   0  0  0  0  0  0  0  0  0  0  0  0
    9.9500   11.7790   -9.6280 C   0  0  0  0  0  0  0  0  0  0  0  0
    9.5080   10.5770   -9.0620 C   0  0  0  0  0  0  0  0  0  0  0  0
    8.1580   10.2120   -9.2630 N   0  0  0  0  0  0  0  0  0  0  0  0
    7.6770   10.1170  -10.6650 C   0  0  0  0  0  0  0  0  0  0  0  0
    8.1390    8.7630  -11.2280 C   0  0  0  0  0  0  0  0  0  0  0  0
    7.1520    7.6610  -10.8740 C   0  0  0  0  0  0  0  0  0  0  0  0
    5.8040    7.9220  -11.4500 N   0  0  0  0  0  0  0  0  0  0  0  0
    5.1880    6.7690  -12.5430 S   0  0  0  0  0  0  0  0  0  0  0  0
    5.9950    5.5730  -12.4070 O   0  0  0  0  0  0  0  0  0  0  0  0
    5.0120    7.4230  -13.8240 O   0  0  0  0  0  0  0  0  0  0  0  0
    3.5600    6.4820  -11.8290 C   0  0  0  0  0  0  0  0  0  0  0  0
    3.6730    6.4100  -10.3270 C   0  0  0  0  0  0  0  0  0  0  0  0
    3.2570    7.4850   -9.5290 C   0  0  0  0  0  0  0  0  0  0  0  0
    3.3640    7.4170   -8.1390 C   0  0  0  0  0  0  0  0  0  0  0  0
    3.8880    6.2770   -7.5340 C   0  0  0  0  0  0  0  0  0  0  0  0
    4.3120    5.2060   -8.3180 C   0  0  0  0  0  0  0  0  0  0  0  0
    4.2060    5.2710   -9.7070 C   0  0  0  0  0  0  0  0  0  0  0  0
    5.5470    9.3470  -11.8040 C   0  0  0  0  0  0  0  0  0  0  0  0
    6.1460   10.2550  -10.7380 C   0  0  0  0  0  0  0  0  0  0  0  0
   10.3710    9.9000   -8.1960 C   0  0  0  0  0  0  0  0  0  0  0  0
   13.2220    8.4210   -7.2620 C   0  0  0  0  0  0  0  0  0  0  0  0
   13.4000    7.5680   -8.9520 Br  0  0  0  0  0  0  0  0  0  0  0  0
   13.4778    4.8922   -6.6679 H   0  0  0  0  0  0  0  0  0  0  0  0
   12.4167    6.0525   -5.7601 H   0  0  0  0  0  0  0  0  0  0  0  0
   13.1322   11.9048   -8.3991 H   0  0  0  0  0  0  0  0  0  0  0  0
   11.5824   13.1839   -9.8752 H   0  0  0  0  0  0  0  0  0  0  0  0
    9.2661   12.3615  -10.2628 H   0  0  0  0  0  0  0  0  0  0  0  0
    8.0700    9.2930   -8.8240 H   0  0  0  0  0  0  0  0  0  0  0  0
    8.0958   10.9388  -11.2644 H   0  0  0  0  0  0  0  0  0  0  0  0
    8.2187    8.8367  -12.3226 H   0  0  0  0  0  0  0  0  0  0  0  0
    9.1155    8.5144  -10.7868 H   0  0  0  0  0  0  0  0  0  0  0  0
    7.5287    6.7054  -11.2675 H   0  0  0  0  0  0  0  0  0  0  0  0
    7.0557    7.6263   -9.7788 H   0  0  0  0  0  0  0  0  0  0  0  0
    2.8877    7.3072  -12.1066 H   0  0  0  0  0  0  0  0  0  0  0  0
    3.1551    5.5333  -12.2112 H   0  0  0  0  0  0  0  0  0  0  0  0
    2.8435    8.3882  -10.0015 H   0  0  0  0  0  0  0  0  0  0  0  0
    3.0341    8.2647   -7.5205 H   0  0  0  0  0  0  0  0  0  0  0  0
    3.9670    6.2223   -6.4382 H   0  0  0  0  0  0  0  0  0  0  0  0
    4.7310    4.3079   -7.8406 H   0  0  0  0  0  0  0  0  0  0  0  0
    4.5430    4.4225  -10.3206 H   0  0  0  0  0  0  0  0  0  0  0  0
    6.0083    9.5713  -12.7771 H   0  0  0  0  0  0  0  0  0  0  0  0
    4.4620    9.5187  -11.8621 H   0  0  0  0  0  0  0  0  0  0  0  0
    5.8934   11.2988  -10.9763 H   0  0  0  0  0  0  0  0  0  0  0  0
    5.7290    9.9602   -9.7637 H   0  0  0  0  0  0  0  0  0  0  0  0
   10.0205    8.9869   -7.6926 H   0  0  0  0  0  0  0  0  0  0  0  0
  1  2  2  0
  2  3  1  0
  2  4  1  0
  4  5  1  0
  5  6  1  0
  6  7  2  0
  7  8  1  0
  8  9  2  0
  8 10  1  0
  7 11  1  0
 11 12  1  0
 12 13  1  0
 13 14  2  0
 14 15  1  0
 15 16  2  0
 16 17  1  0
 17 18  1  0
 18 19  1  0
 19 20  1  0
 20 21  1  0
 21 22  1  0
 22 23  1  0
 23 24  2  0
 23 25  2  0
 23 26  1  0
 26 27  1  0
 27 28  2  0
 28 29  1  0
 29 30  2  0
 30 31  1  0
 31 32  2  0
 22 33  1  0
 33 34  1  0
 17 35  2  0
 12 36  2  0
 36 37  1  0
 36  6  1  0
 35 13  1  0
 34 19  1  0
 32 27  1  0
  4 38  1  0
  4 39  1  0
 14 40  1  0
 15 41  1  0
 16 42  1  0
 18 43  1  0
 19 44  1  0
 20 45  1  0
 20 46  1  0
 21 47  1  0
 21 48  1  0
 26 49  1  0
 26 50  1  0
 28 51  1  0
 29 52  1  0
 30 53  1  0
 31 54  1  0
 32 55  1  0
 33 56  1  0
 33 57  1  0
 34 58  1  0
 34 59  1  0
 35 60  1  0
M  CHG  2   3  -1  10  -1
M  END
>  <meeko>  (4) 
{"is_sidechain": [false], "free_energy": -7.129, "intermolecular_energy": -10.887, "internal_energy": -1.428}

$$$$
2qbp_ligand
     RDKit          3D

 60 63  0  0  0  0  0  0  0  0999 V2000
    2.0940    9.3100   -9.1800 O   0  0  0  0  0  0  0  0  0  0  0  0
    3.2000    9.8750   -9.4420 C   0  0  0  0  0  0  0  0  0  0  0  0
    3.5380   11.0740   -9.1870 O   0  0  0  0  0  0  0  0  0  0  0  0
    4.2870    8.9810  -10.0810 C   0  0  0  0  0  0  0  0  0  0  0  0
    4.9090    8.1060   -9.1100 O   0  0  0  0  0  0  0  0  0  0  0  0
    5.5570    7.0790   -9.7160 C   0  0  0  0  0  0  0  0  0  0  0  0
    4.9620    5.8990  -10.1260 C   0  0  0  0  0  0  0  0  0  0  0  0
    3.4220    5.5050  -10.0590 C   0  0  0  0  0  0  0  0  0  0  0  0
    2.9150    5.1930   -8.9370 O   0  0  0  0  0  0  0  0  0  0  0  0
    2.7790    5.5530  -11.1600 O   0  0  0  0  0  0  0  0  0  0  0  0
    6.1350    4.8050  -10.7540 S   0  0  0  0  0  0  0  0  0  0  0  0
    7.4150    5.9250  -10.5490 C   0  0  0  0  0  0  0  0  0  0  0  0
    8.7910    5.5100  -10.8280 C   0  0  0  0  0  0  0  0  0  0  0  0
    9.5400    4.7730   -9.9050 C   0  0  0  0  0  0  0  0  0  0  0  0
   10.8580    4.4250  -10.1960 C   0  0  0  0  0  0  0  0  0  0  0  0
   11.4260    4.8000  -11.4160 C   0  0  0  0  0  0  0  0  0  0  0  0
   10.6820    5.4970  -12.3770 C   0  0  0  0  0  0  0  0  0  0  0  0
   11.3500    5.9210  -13.5460 N   0  0  0  0  0  0  0  0  0  0  0  0
   11.9400    7.2850  -13.5400 C   0  0  0  0  0  0  0  0  0  0  0  0
   11.0880    8.1680  -14.4660 C   0  0  0  0  0  0  0  0  0  0  0  0
    9.8920    8.7420  -13.7240 C   0  0  0  0  0  0  0  0  0  0  0  0
   10.3120    9.6050  -12.5850 N   0  0  0  0  0  0  0  0  0  0  0  0
    9.8240   11.2370  -12.6230 S   0  0  0  0  0  0  0  0  0  0  0  0
   10.7170   11.9320  -13.5290 O   0  0  0  0  0  0  0  0  0  0  0  0
    9.6410   11.6760  -11.2540 O   0  0  0  0  0  0  0  0  0  0  0  0
    8.2010   11.0750  -13.3850 C   0  0  0  0  0  0  0  0  0  0  0  0
    7.2700   12.1160  -12.8180 C   0  0  0  0  0  0  0  0  0  0  0  0
    6.3680   11.7860  -11.7970 C   0  0  0  0  0  0  0  0  0  0  0  0
    5.5060   12.7510  -11.2740 C   0  0  0  0  0  0  0  0  0  0  0  0
    5.5340   14.0540  -11.7690 C   0  0  0  0  0  0  0  0  0  0  0  0
    6.4210   14.3910  -12.7890 C   0  0  0  0  0  0  0  0  0  0  0  0
    7.2850   13.4280  -13.3120 C   0  0  0  0  0  0  0  0  0  0  0  0
   11.6990    9.3580  -12.1000 C   0  0  0  0  0  0  0  0  0  0  0  0
   11.9880    7.8620  -12.1140 C   0  0  0  0  0  0  0  0  0  0  0  0
    9.3780    5.8770  -12.0500 C   0  0  0  0  0  0  0  0  0  0  0  0
    6.9350    7.1250  -10.0720 C   0  0  0  0  0  0  0  0  0  0  0  0
    7.9810    8.6990   -9.8630 Br  0  0  0  0  0  0  0  0  0  0  0  0
    3.8245    8.3668  -10.8677 H   0  0  0  0  0  0  0  0  0  0  0  0
    5.0664    9.6373  -10.4955 H   0  0  0  0  0  0  0  0  0  0  0  0
    9.0889    4.4679   -8.9493 H   0  0  0  0  0  0  0  0  0  0  0  0
   11.4507    3.8552   -9.4652 H   0  0  0  0  0  0  0  0  0  0  0  0
   12.4750    4.5437  -11.6256 H   0  0  0  0  0  0  0  0  0  0  0  0
   12.1020    5.2410  -13.6770 H   0  0  0  0  0  0  0  0  0  0  0  0
   12.9784    7.2494  -13.9013 H   0  0  0  0  0  0  0  0  0  0  0  0
   11.7072    8.9948  -14.8442 H   0  0  0  0  0  0  0  0  0  0  0  0
   10.7200    7.5498  -15.2981 H   0  0  0  0  0  0  0  0  0  0  0  0
    9.2929    9.3427  -14.4242 H   0  0  0  0  0  0  0  0  0  0  0  0
    9.3046    7.9040  -13.3206 H   0  0  0  0  0  0  0  0  0  0  0  0
    8.2911   11.2175  -14.4720 H   0  0  0  0  0  0  0  0  0  0  0  0
    7.7983   10.0727  -13.1772 H   0  0  0  0  0  0  0  0  0  0  0  0
    6.3394   10.7586  -11.4050 H   0  0  0  0  0  0  0  0  0  0  0  0
    4.8040   12.4833  -10.4706 H   0  0  0  0  0  0  0  0  0  0  0  0
    4.8565   14.8151  -11.3546 H   0  0  0  0  0  0  0  0  0  0  0  0
    6.4404   15.4179  -13.1828 H   0  0  0  0  0  0  0  0  0  0  0  0
    7.9828   13.7002  -14.1176 H   0  0  0  0  0  0  0  0  0  0  0  0
   12.4138    9.8749  -12.7572 H   0  0  0  0  0  0  0  0  0  0  0  0
   11.7997    9.7393  -11.0731 H   0  0  0  0  0  0  0  0  0  0  0  0
   12.9894    7.6887  -11.6931 H   0  0  0  0  0  0  0  0  0  0  0  0
   11.2152    7.3584  -11.5147 H   0  0  0  0  0  0  0  0  0  0  0  0
    8.7977    6.4774  -12.7661 H   0  0  0  0  0  0  0  0  0  0  0  0
  1  2  2  0
  2  3  1  0
  2  4  1  0
  4  5  1  0
  5  6  1  0
  6  7  2  0
  7  8  1  0
  8  9  2  0
  8 10  1  0
  7 11  1  0
 11 12  1  0
 12 13  1  0
 13 14  2  0
 14 15  1  0
 15 16  2  0
 16 17  1  0
 17 18  1  0
 18 19  1  0
 19 20  1  0
 20 21  1  0
 21 22  1  0
 22 23  1  0
 23 24  2  0
 23 25  2  0
 23 26  1  0
 26 27  1  0
 27 28  2  0
 28 29  1  0
 29 30  2  0
 30 31  1  0
 31 32  2  0
 22 33  1  0
 33 34  1  0
 17 35  2  0
 12 36  2  0
 36 37  1  0
 36  6  1  0
 35 13  1  0
 34 19  1  0
 32 27  1  0
  4 38  1  0
  4 39  1  0
 14 40  1  0
 15 41  1  0
 16 42  1  0
 18 43  1  0
 19 44  1  0
 20 45  1  0
 20 46  1  0
 21 47  1  0
 21 48  1  0
 26 49  1  0
 26 50  1  0
 28 51  1  0
 29 52  1  0
 30 53  1  0
 31 54  1  0
 32 55  1  0
 33 56  1  0
 33 57  1  0
 34 58  1  0
 34 59  1  0
 35 60  1  0
M  CHG  2   3  -1  10  -1
M  END
>  <meeko>  (5) 
{"is_sidechain": [false], "free_energy": -7.021, "intermolecular_energy": -10.388, "internal_energy": -1.756}

$$$$
2qbp_ligand
     RDKit          3D

 60 63  0  0  0  0  0  0  0  0999 V2000
    2.3270    9.1580   -9.0680 O   0  0  0  0  0  0  0  0  0  0  0  0
    3.3820    9.8270   -9.2910 C   0  0  0  0  0  0  0  0  0  0  0  0
    3.5120   11.0920   -9.3010 O   0  0  0  0  0  0  0  0  0  0  0  0
    4.6750    9.0080   -9.5050 C   0  0  0  0  0  0  0  0  0  0  0  0
    4.5920    8.1600  -10.6760 O   0  0  0  0  0  0  0  0  0  0  0  0
    5.3780    7.0610  -10.5460 C   0  0  0  0  0  0  0  0  0  0  0  0
    4.9960    5.8820   -9.9320 C   0  0  0  0  0  0  0  0  0  0  0  0
    3.5730    5.5130   -9.3240 C   0  0  0  0  0  0  0  0  0  0  0  0
    2.7350    4.8940  -10.0510 O   0  0  0  0  0  0  0  0  0  0  0  0
    3.3730    5.8530   -8.1100 O   0  0  0  0  0  0  0  0  0  0  0  0
    6.3060    4.7660   -9.8740 S   0  0  0  0  0  0  0  0  0  0  0  0
    7.3540    5.8210  -10.7260 C   0  0  0  0  0  0  0  0  0  0  0  0
    8.7580    5.4500  -10.9120 C   0  0  0  0  0  0  0  0  0  0  0  0
    9.4620    4.7180   -9.9500 C   0  0  0  0  0  0  0  0  0  0  0  0
   10.8070    4.4130  -10.1510 C   0  0  0  0  0  0  0  0  0  0  0  0
   11.4480    4.8270  -11.3210 C   0  0  0  0  0  0  0  0  0  0  0  0
   10.7550    5.5200  -12.3210 C   0  0  0  0  0  0  0  0  0  0  0  0
   11.4920    5.9850  -13.4320 N   0  0  0  0  0  0  0  0  0  0  0  0
   12.4520    7.0950  -13.2000 C   0  0  0  0  0  0  0  0  0  0  0  0
   11.6390    8.3550  -12.8610 C   0  0  0  0  0  0  0  0  0  0  0  0
   11.3060    8.4060  -11.3780 C   0  0  0  0  0  0  0  0  0  0  0  0
   12.5340    8.4570  -10.5380 N   0  0  0  0  0  0  0  0  0  0  0  0
   12.7360    9.8190   -9.5340 S   0  0  0  0  0  0  0  0  0  0  0  0
   12.3720   10.9860  -10.3130 O   0  0  0  0  0  0  0  0  0  0  0  0
   14.0320    9.7090   -8.8950 O   0  0  0  0  0  0  0  0  0  0  0  0
   11.4680    9.5010   -8.2970 C   0  0  0  0  0  0  0  0  0  0  0  0
   11.9970    8.5370   -7.2660 C   0  0  0  0  0  0  0  0  0  0  0  0
   12.0930    8.9140   -5.9190 C   0  0  0  0  0  0  0  0  0  0  0  0
   12.5850    8.0200   -4.9670 C   0  0  0  0  0  0  0  0  0  0  0  0
   12.9880    6.7430   -5.3510 C   0  0  0  0  0  0  0  0  0  0  0  0
   12.9050    6.3600   -6.6880 C   0  0  0  0  0  0  0  0  0  0  0  0
   12.4130    7.2520   -7.6420 C   0  0  0  0  0  0  0  0  0  0  0  0
   13.7690    7.9690  -11.2160 C   0  0  0  0  0  0  0  0  0  0  0  0
   13.4360    6.7500  -12.0680 C   0  0  0  0  0  0  0  0  0  0  0  0
    9.4200    5.8570  -12.0830 C   0  0  0  0  0  0  0  0  0  0  0  0
    6.6880    6.9680  -11.0970 C   0  0  0  0  0  0  0  0  0  0  0  0
    7.4180    8.3290  -12.2060 Br  0  0  0  0  0  0  0  0  0  0  0  0
    5.5190    9.7025   -9.6285 H   0  0  0  0  0  0  0  0  0  0  0  0
    4.8172    8.3615   -8.6265 H   0  0  0  0  0  0  0  0  0  0  0  0
    8.9535    4.3828   -9.0340 H   0  0  0  0  0  0  0  0  0  0  0  0
   11.3631    3.8469   -9.3892 H   0  0  0  0  0  0  0  0  0  0  0  0
   12.5164    4.6046  -11.4592 H   0  0  0  0  0  0  0  0  0  0  0  0
   12.0110    5.1670  -13.7600 H   0  0  0  0  0  0  0  0  0  0  0  0
   13.0566    7.2662  -14.1029 H   0  0  0  0  0  0  0  0  0  0  0  0
   12.2270    9.2453  -13.1285 H   0  0  0  0  0  0  0  0  0  0  0  0
   10.6984    8.3290  -13.4307 H   0  0  0  0  0  0  0  0  0  0  0  0
   10.7010    9.3030  -11.1794 H   0  0  0  0  0  0  0  0  0  0  0  0
   10.7524    7.4912  -11.1198 H   0  0  0  0  0  0  0  0  0  0  0  0
   11.1903   10.4456   -7.8064 H   0  0  0  0  0  0  0  0  0  0  0  0
   10.5836    9.0650   -8.7846 H   0  0  0  0  0  0  0  0  0  0  0  0
   11.7782    9.9218   -5.6103 H   0  0  0  0  0  0  0  0  0  0  0  0
   12.6547    8.3241   -3.9122 H   0  0  0  0  0  0  0  0  0  0  0  0
   13.3715    6.0375   -4.5992 H   0  0  0  0  0  0  0  0  0  0  0  0
   13.2277    5.3533   -6.9921 H   0  0  0  0  0  0  0  0  0  0  0  0
   12.3512    6.9447   -8.6964 H   0  0  0  0  0  0  0  0  0  0  0  0
   14.1732    8.7653  -11.8583 H   0  0  0  0  0  0  0  0  0  0  0  0
   14.5169    7.6922  -10.4584 H   0  0  0  0  0  0  0  0  0  0  0  0
   14.3648    6.3602  -12.5101 H   0  0  0  0  0  0  0  0  0  0  0  0
   12.9611    5.9991  -11.4194 H   0  0  0  0  0  0  0  0  0  0  0  0
    8.8750    6.4542  -12.8289 H   0  0  0  0  0  0  0  0  0  0  0  0
  1  2  2  0
  2  3  1  0
  2  4  1  0
  4  5  1  0
  5  6  1  0
  6  7  2  0
  7  8  1  0
  8  9  2  0
  8 10  1  0
  7 11  1  0
 11 12  1  0
 12 13  1  0
 13 14  2  0
 14 15  1  0
 15 16  2  0
 16 17  1  0
 17 18  1  0
 18 19  1  0
 19 20  1  0
 20 21  1  0
 21 22  1  0
 22 23  1  0
 23 24  2  0
 23 25  2  0
 23 26  1  0
 26 27  1  0
 27 28  2  0
 28 29  1  0
 29 30  2  0
 30 31  1  0
 31 32  2  0
 22 33  1  0
 33 34  1  0
 17 35  2  0
 12 36  2  0
 36 37  1  0
 36  6  1  0
 35 13  1  0
 34 19  1  0
 32 27  1  0
  4 38  1  0
  4 39  1  0
 14 40  1  0
 15 41  1  0
 16 42  1  0
 18 43  1  0
 19 44  1  0
 20 45  1  0
 20 46  1  0
 21 47  1  0
 21 48  1  0
 26 49  1  0
 26 50  1  0
 28 51  1  0
 29 52  1  0
 30 53  1  0
 31 54  1  0
 32 55  1  0
 33 56  1  0
 33 57  1  0
 34 58  1  0
 34 59  1  0
 35 60  1  0
M  CHG  2   3  -1  10  -1
M  END
>  <meeko>  (6) 
{"is_sidechain": [false], "free_energy": -6.919, "intermolecular_energy": -11.775, "internal_energy": -0.208}

$$$$
2qbp_ligand
     RDKit          3D

 60 63  0  0  0  0  0  0  0  0999 V2000
    3.6400   11.2830   -9.1150 O   0  0  0  0  0  0  0  0  0  0  0  0
    4.2710   10.5760   -9.9590 C   0  0  0  0  0  0  0  0  0  0  0  0
    4.6530   10.9140  -11.1240 O   0  0  0  0  0  0  0  0  0  0  0  0
    4.6860    9.1630   -9.4890 C   0  0  0  0  0  0  0  0  0  0  0  0
    4.3330    8.1440  -10.4560 O   0  0  0  0  0  0  0  0  0  0  0  0
    5.1640    7.0750  -10.3710 C   0  0  0  0  0  0  0  0  0  0  0  0
    4.9110    5.9300   -9.6370 C   0  0  0  0  0  0  0  0  0  0  0  0
    3.6010    5.5700   -8.8080 C   0  0  0  0  0  0  0  0  0  0  0  0
    3.4840    6.0100   -7.6220 O   0  0  0  0  0  0  0  0  0  0  0  0
    2.7270    4.8640   -9.4130 O   0  0  0  0  0  0  0  0  0  0  0  0
    6.2520    4.8510   -9.6980 S   0  0  0  0  0  0  0  0  0  0  0  0
    7.1330    5.8700  -10.7560 C   0  0  0  0  0  0  0  0  0  0  0  0
    8.5080    5.5200  -11.1180 C   0  0  0  0  0  0  0  0  0  0  0  0
    9.4360    5.0910  -10.1650 C   0  0  0  0  0  0  0  0  0  0  0  0
   10.7440    4.7980  -10.5450 C   0  0  0  0  0  0  0  0  0  0  0  0
   11.1240    4.9200  -11.8840 C   0  0  0  0  0  0  0  0  0  0  0  0
   10.2030    5.3030  -12.8670 C   0  0  0  0  0  0  0  0  0  0  0  0
   10.6830    5.4940  -14.1810 N   0  0  0  0  0  0  0  0  0  0  0  0
    9.7070    5.3540  -15.2920 C   0  0  0  0  0  0  0  0  0  0  0  0
    9.0670    6.7320  -15.5300 C   0  0  0  0  0  0  0  0  0  0  0  0
    9.9220    7.5760  -16.4620 C   0  0  0  0  0  0  0  0  0  0  0  0
   10.0710    6.9410  -17.8010 N   0  0  0  0  0  0  0  0  0  0  0  0
    9.4900    7.8130  -19.1450 S   0  0  0  0  0  0  0  0  0  0  0  0
    8.7800    6.8760  -19.9920 O   0  0  0  0  0  0  0  0  0  0  0  0
   10.5820    8.6180  -19.6550 O   0  0  0  0  0  0  0  0  0  0  0  0
    8.3120    8.9090  -18.3380 C   0  0  0  0  0  0  0  0  0  0  0  0
    6.9120    8.3920  -18.5530 C   0  0  0  0  0  0  0  0  0  0  0  0
    6.1360    8.8580  -19.6230 C   0  0  0  0  0  0  0  0  0  0  0  0
    4.8400    8.3800  -19.8200 C   0  0  0  0  0  0  0  0  0  0  0  0
    4.3060    7.4340  -18.9470 C   0  0  0  0  0  0  0  0  0  0  0  0
    5.0650    6.9690  -17.8760 C   0  0  0  0  0  0  0  0  0  0  0  0
    6.3610    7.4460  -17.6780 C   0  0  0  0  0  0  0  0  0  0  0  0
    9.8100    5.4740  -17.8230 C   0  0  0  0  0  0  0  0  0  0  0  0
   10.3890    4.8320  -16.5690 C   0  0  0  0  0  0  0  0  0  0  0  0
    8.9080    5.6370  -12.4600 C   0  0  0  0  0  0  0  0  0  0  0  0
    6.3840    6.9750  -11.0980 C   0  0  0  0  0  0  0  0  0  0  0  0
    6.9060    8.2760  -12.3830 Br  0  0  0  0  0  0  0  0  0  0  0  0
    5.7752    9.1453   -9.3360 H   0  0  0  0  0  0  0  0  0  0  0  0
    4.1492    8.9446   -8.5540 H   0  0  0  0  0  0  0  0  0  0  0  0
    9.1331    4.9845   -9.1129 H   0  0  0  0  0  0  0  0  0  0  0  0
   11.4763    4.4712   -9.7921 H   0  0  0  0  0  0  0  0  0  0  0  0
   12.1652    4.7115  -12.1712 H   0  0  0  0  0  0  0  0  0  0  0  0
   11.0510    6.4480  -14.1870 H   0  0  0  0  0  0  0  0  0  0  0  0
    8.9341    4.6184  -15.0247 H   0  0  0  0  0  0  0  0  0  0  0  0
    8.0728    6.5940  -15.9801 H   0  0  0  0  0  0  0  0  0  0  0  0
    8.9839    7.2515  -14.5640 H   0  0  0  0  0  0  0  0  0  0  0  0
    9.4484    8.5611  -16.5856 H   0  0  0  0  0  0  0  0  0  0  0  0
   10.9227    7.6722  -16.0154 H   0  0  0  0  0  0  0  0  0  0  0  0
    8.5267    8.9474  -17.2598 H   0  0  0  0  0  0  0  0  0  0  0  0
    8.3989    9.9184  -18.7665 H   0  0  0  0  0  0  0  0  0  0  0  0
    6.5521    9.6067  -20.3132 H   0  0  0  0  0  0  0  0  0  0  0  0
    4.2398    8.7499  -20.6644 H   0  0  0  0  0  0  0  0  0  0  0  0
    3.2854    7.0548  -19.1038 H   0  0  0  0  0  0  0  0  0  0  0  0
    4.6421    6.2246  -17.1853 H   0  0  0  0  0  0  0  0  0  0  0  0
    6.9548    7.0769  -16.8288 H   0  0  0  0  0  0  0  0  0  0  0  0
    8.7251    5.2959  -17.8577 H   0  0  0  0  0  0  0  0  0  0  0  0
   10.2848    5.0323  -18.7115 H   0  0  0  0  0  0  0  0  0  0  0  0
   10.2469    3.7429  -16.6286 H   0  0  0  0  0  0  0  0  0  0  0  0
   11.4571    5.0893  -16.5155 H   0  0  0  0  0  0  0  0  0  0  0  0
    8.1862    5.9994  -13.2067 H   0  0  0  0  0  0  0  0  0  0  0  0
  1  2  2  0
  2  3  1  0
  2  4  1  0
  4  5  1  0
  5  6  1  0
  6  7  2  0
  7  8  1  0
  8  9  2  0
  8 10  1  0
  7 11  1  0
 11 12  1  0
 12 13  1  0
 13 14  2  0
 14 15  1  0
 15 16  2  0
 16 17  1  0
 17 18  1  0
 18 19  1  0
 19 20  1  0
 20 21  1  0
 21 22  1  0
 22 23  1  0
 23 24  2  0
 23 25  2  0
 23 26  1  0
 26 27  1  0
 27 28  2  0
 28 29  1  0
 29 30  2  0
 30 31  1  0
 31 32  2  0
 22 33  1  0
 33 34  1  0
 17 35  2  0
 12 36  2  0
 36 37  1  0
 36  6  1  0
 35 13  1  0
 34 19  1  0
 32 27  1  0
  4 38  1  0
  4 39  1  0
 14 40  1  0
 15 41  1  0
 16 42  1  0
 18 43  1  0
 19 44  1  0
 20 45  1  0
 20 46  1  0
 21 47  1  0
 21 48  1  0
 26 49  1  0
 26 50  1  0
 28 51  1  0
 29 52  1  0
 30 53  1  0
 31 54  1  0
 32 55  1  0
 33 56  1  0
 33 57  1  0
 34 58  1  0
 34 59  1  0
 35 60  1  0
M  CHG  2   3  -1  10  -1
M  END
>  <meeko>  (7) 
{"is_sidechain": [false], "free_energy": -6.906, "intermolecular_energy": -10.729, "internal_energy": -1.233}

$$$$
2qbp_ligand
     RDKit          3D

 60 63  0  0  0  0  0  0  0  0999 V2000
    2.6140   10.0350   -9.3620 O   0  0  0  0  0  0  0  0  0  0  0  0
    3.7980   10.4390   -9.5760 C   0  0  0  0  0  0  0  0  0  0  0  0
    4.3100   11.5540   -9.2430 O   0  0  0  0  0  0  0  0  0  0  0  0
    4.7490    9.4290  -10.2590 C   0  0  0  0  0  0  0  0  0  0  0  0
    5.3010    8.4800   -9.3160 O   0  0  0  0  0  0  0  0  0  0  0  0
    5.9270    7.4580   -9.9540 C   0  0  0  0  0  0  0  0  0  0  0  0
    5.2950    6.3390  -10.4660 C   0  0  0  0  0  0  0  0  0  0  0  0
    3.7350    6.0260  -10.4990 C   0  0  0  0  0  0  0  0  0  0  0  0
    3.1570    5.9000  -11.6230 O   0  0  0  0  0  0  0  0  0  0  0  0
    3.1610    5.8990   -9.3670 O   0  0  0  0  0  0  0  0  0  0  0  0
    6.4410    5.2230  -11.1040 S   0  0  0  0  0  0  0  0  0  0  0  0
    7.7640    6.2580  -10.7660 C   0  0  0  0  0  0  0  0  0  0  0  0
    9.1290    5.7860  -11.0030 C   0  0  0  0  0  0  0  0  0  0  0  0
    9.7240    4.8130  -10.1950 C   0  0  0  0  0  0  0  0  0  0  0  0
   11.0380    4.4140  -10.4350 C   0  0  0  0  0  0  0  0  0  0  0  0
   11.7560    4.9780  -11.4920 C   0  0  0  0  0  0  0  0  0  0  0  0
   11.1690    5.9200  -12.3450 C   0  0  0  0  0  0  0  0  0  0  0  0
   11.9850    6.5130  -13.3340 N   0  0  0  0  0  0  0  0  0  0  0  0
   11.8430    6.0150  -14.7260 C   0  0  0  0  0  0  0  0  0  0  0  0
   13.1730    5.3560  -15.1250 C   0  0  0  0  0  0  0  0  0  0  0  0
   13.2210    3.9050  -14.6710 C   0  0  0  0  0  0  0  0  0  0  0  0
   12.1410    3.0950  -15.2990 N   0  0  0  0  0  0  0  0  0  0  0  0
   12.6190    1.7770  -16.2680 S   0  0  0  0  0  0  0  0  0  0  0  0
   12.6640    0.6080  -15.4130 O   0  0  0  0  0  0  0  0  0  0  0  0
   13.7710    2.1940  -17.0430 O   0  0  0  0  0  0  0  0  0  0  0  0
   11.2060    1.6600  -17.3770 C   0  0  0  0  0  0  0  0  0  0  0  0
   10.3800    0.4520  -17.0160 C   0  0  0  0  0  0  0  0  0  0  0  0
   10.7110   -0.8140  -17.5190 C   0  0  0  0  0  0  0  0  0  0  0  0
    9.9440   -1.9320  -17.1860 C   0  0  0  0  0  0  0  0  0  0  0  0
    8.8380   -1.7950  -16.3490 C   0  0  0  0  0  0  0  0  0  0  0  0
    8.4950   -0.5400  -15.8500 C   0  0  0  0  0  0  0  0  0  0  0  0
    9.2610    0.5780  -16.1820 C   0  0  0  0  0  0  0  0  0  0  0  0
   10.9900    3.8890  -15.8140 C   0  0  0  0  0  0  0  0  0  0  0  0
   10.6740    5.0210  -14.8440 C   0  0  0  0  0  0  0  0  0  0  0  0
    9.8670    6.3420  -12.0630 C   0  0  0  0  0  0  0  0  0  0  0  0
    7.3220    7.4510  -10.2380 C   0  0  0  0  0  0  0  0  0  0  0  0
    8.4340    8.9510   -9.8790 Br  0  0  0  0  0  0  0  0  0  0  0  0
    4.1887    8.8790  -11.0294 H   0  0  0  0  0  0  0  0  0  0  0  0
    5.5836    9.9936  -10.7003 H   0  0  0  0  0  0  0  0  0  0  0  0
    9.1549    4.3617   -9.3689 H   0  0  0  0  0  0  0  0  0  0  0  0
   11.5090    3.6556   -9.7924 H   0  0  0  0  0  0  0  0  0  0  0  0
   12.8010    4.6767  -11.6570 H   0  0  0  0  0  0  0  0  0  0  0  0
   11.7360    7.5050  -13.3140 H   0  0  0  0  0  0  0  0  0  0  0  0
   11.6156    6.8501  -15.4049 H   0  0  0  0  0  0  0  0  0  0  0  0
   13.2792    5.3941  -16.2192 H   0  0  0  0  0  0  0  0  0  0  0  0
   13.9944    5.9025  -14.6385 H   0  0  0  0  0  0  0  0  0  0  0  0
   14.1953    3.4766  -14.9490 H   0  0  0  0  0  0  0  0  0  0  0  0
   13.0767    3.8821  -13.5807 H   0  0  0  0  0  0  0  0  0  0  0  0
   10.5901    2.5665  -17.2824 H   0  0  0  0  0  0  0  0  0  0  0  0
   11.5615    1.5636  -18.4135 H   0  0  0  0  0  0  0  0  0  0  0  0
   11.5819   -0.9274  -18.1813 H   0  0  0  0  0  0  0  0  0  0  0  0
   10.2127   -2.9215  -17.5844 H   0  0  0  0  0  0  0  0  0  0  0  0
    8.2365   -2.6766  -16.0826 H   0  0  0  0  0  0  0  0  0  0  0  0
    7.6192   -0.4305  -15.1935 H   0  0  0  0  0  0  0  0  0  0  0  0
    8.9843    1.5662  -15.7859 H   0  0  0  0  0  0  0  0  0  0  0  0
   11.2468    4.3105  -16.7971 H   0  0  0  0  0  0  0  0  0  0  0  0
   10.1104    3.2357  -15.9114 H   0  0  0  0  0  0  0  0  0  0  0  0
    9.7839    5.5589  -15.2023 H   0  0  0  0  0  0  0  0  0  0  0  0
   10.4971    4.5815  -13.8513 H   0  0  0  0  0  0  0  0  0  0  0  0
    9.4094    7.1263  -12.6838 H   0  0  0  0  0  0  0  0  0  0  0  0
  1  2  2  0
  2  3  1  0
  2  4  1  0
  4  5  1  0
  5  6  1  0
  6  7  2  0
  7  8  1  0
  8  9  2  0
  8 10  1  0
  7 11  1  0
 11 12  1  0
 12 13  1  0
 13 14  2  0
 14 15  1  0
 15 16  2  0
 16 17  1  0
 17 18  1  0
 18 19  1  0
 19 20  1  0
 20 21  1  0
 21 22  1  0
 22 23  1  0
 23 24  2  0
 23 25  2  0
 23 26  1  0
 26 27  1  0
 27 28  2  0
 28 29  1  0
 29 30  2  0
 30 31  1  0
 31 32  2  0
 22 33  1  0
 33 34  1  0
 17 35  2  0
 12 36  2  0
 36 37  1  0
 36  6  1  0
 35 13  1  0
 34 19  1  0
 32 27  1  0
  4 38  1  0
  4 39  1  0
 14 40  1  0
 15 41  1  0
 16 42  1  0
 18 43  1  0
 19 44  1  0
 20 45  1  0
 20 46  1  0
 21 47  1  0
 21 48  1  0
 26 49  1  0
 26 50  1  0
 28 51  1  0
 29 52  1  0
 30 53  1  0
 31 54  1  0
 32 55  1  0
 33 56  1  0
 33 57  1  0
 34 58  1  0
 34 59  1  0
 35 60  1  0
M  CHG  2   3  -1  10  -1
M  END
>  <meeko>  (8) 
{"is_sidechain": [false], "free_energy": -6.828, "intermolecular_energy": -10.669, "internal_energy": -1.17}

$$$$
2qbp_ligand
     RDKit          3D

 60 63  0  0  0  0  0  0  0  0999 V2000
    4.2280   11.9500   -9.1550 O   0  0  0  0  0  0  0  0  0  0  0  0
    3.9370   10.7240   -9.3090 C   0  0  0  0  0  0  0  0  0  0  0  0
    2.7800   10.2090   -9.4240 O   0  0  0  0  0  0  0  0  0  0  0  0
    5.1320    9.7520   -9.4440 C   0  0  0  0  0  0  0  0  0  0  0  0
    5.0680    8.9800  -10.6670 O   0  0  0  0  0  0  0  0  0  0  0  0
    5.7800    7.8300  -10.5620 C   0  0  0  0  0  0  0  0  0  0  0  0
    5.2490    6.5970  -10.2290 C   0  0  0  0  0  0  0  0  0  0  0  0
    3.7220    6.2260   -9.9750 C   0  0  0  0  0  0  0  0  0  0  0  0
    3.1630    6.6240   -8.9060 O   0  0  0  0  0  0  0  0  0  0  0  0
    3.1440    5.5570  -10.8940 O   0  0  0  0  0  0  0  0  0  0  0  0
    6.4890    5.4090  -10.0950 S   0  0  0  0  0  0  0  0  0  0  0  0
    7.7160    6.5150  -10.5490 C   0  0  0  0  0  0  0  0  0  0  0  0
    9.1170    6.0930  -10.5140 C   0  0  0  0  0  0  0  0  0  0  0  0
    9.4860    4.7830  -10.1950 C   0  0  0  0  0  0  0  0  0  0  0  0
   10.8330    4.4290  -10.1420 C   0  0  0  0  0  0  0  0  0  0  0  0
   11.8160    5.3830  -10.4220 C   0  0  0  0  0  0  0  0  0  0  0  0
   11.4720    6.6900  -10.7900 C   0  0  0  0  0  0  0  0  0  0  0  0
   12.5200    7.6210  -10.9670 N   0  0  0  0  0  0  0  0  0  0  0  0
   13.2640    8.0500   -9.7560 C   0  0  0  0  0  0  0  0  0  0  0  0
   14.1100    9.2760  -10.1360 C   0  0  0  0  0  0  0  0  0  0  0  0
   13.2970   10.5560  -10.0220 C   0  0  0  0  0  0  0  0  0  0  0  0
   12.8220   10.7860   -8.6300 N   0  0  0  0  0  0  0  0  0  0  0  0
   13.3400   12.2120   -7.8540 S   0  0  0  0  0  0  0  0  0  0  0  0
   14.7400   12.3960   -8.1820 O   0  0  0  0  0  0  0  0  0  0  0  0
   12.8850   12.1580   -6.4790 O   0  0  0  0  0  0  0  0  0  0  0  0
   12.3510   13.4350   -8.7280 C   0  0  0  0  0  0  0  0  0  0  0  0
   12.0890   14.6130   -7.8240 C   0  0  0  0  0  0  0  0  0  0  0  0
   13.1280   15.4890   -7.4770 C   0  0  0  0  0  0  0  0  0  0  0  0
   12.8840   16.5780   -6.6390 C   0  0  0  0  0  0  0  0  0  0  0  0
   11.6030   16.8020   -6.1380 C   0  0  0  0  0  0  0  0  0  0  0  0
   10.5650   15.9330   -6.4710 C   0  0  0  0  0  0  0  0  0  0  0  0
   10.8070   14.8440   -7.3090 C   0  0  0  0  0  0  0  0  0  0  0  0
   12.7900    9.5640   -7.7770 C   0  0  0  0  0  0  0  0  0  0  0  0
   12.3020    8.3780   -8.6000 C   0  0  0  0  0  0  0  0  0  0  0  0
   10.1190    7.0380  -10.7930 C   0  0  0  0  0  0  0  0  0  0  0  0
    7.1710    7.7420  -10.8560 C   0  0  0  0  0  0  0  0  0  0  0  0
    8.1480    9.2080  -11.5720 Br  0  0  0  0  0  0  0  0  0  0  0  0
    6.0654   10.3341   -9.4399 H   0  0  0  0  0  0  0  0  0  0  0  0
    5.0966    9.0506   -8.5974 H   0  0  0  0  0  0  0  0  0  0  0  0
    8.7119    4.0302   -9.9854 H   0  0  0  0  0  0  0  0  0  0  0  0
   11.1223    3.4005   -9.8803 H   0  0  0  0  0  0  0  0  0  0  0  0
   12.8773    5.1025  -10.3521 H   0  0  0  0  0  0  0  0  0  0  0  0
   13.1720    7.1590  -11.6050 H   0  0  0  0  0  0  0  0  0  0  0  0
   13.9140    7.2354   -9.4039 H   0  0  0  0  0  0  0  0  0  0  0  0
   14.9761    9.3387   -9.4607 H   0  0  0  0  0  0  0  0  0  0  0  0
   14.4416    9.1633  -11.1788 H   0  0  0  0  0  0  0  0  0  0  0  0
   13.9249   11.4054  -10.3291 H   0  0  0  0  0  0  0  0  0  0  0  0
   12.4156   10.4608  -10.6732 H   0  0  0  0  0  0  0  0  0  0  0  0
   12.8942   13.7737   -9.6226 H   0  0  0  0  0  0  0  0  0  0  0  0
   11.3934   12.9842   -9.0275 H   0  0  0  0  0  0  0  0  0  0  0  0
   14.1416   15.3166   -7.8679 H   0  0  0  0  0  0  0  0  0  0  0  0
   13.7044   17.2609   -6.3734 H   0  0  0  0  0  0  0  0  0  0  0  0
   11.4112   17.6631   -5.4809 H   0  0  0  0  0  0  0  0  0  0  0  0
    9.5543   16.1060   -6.0727 H   0  0  0  0  0  0  0  0  0  0  0  0
    9.9842   14.1612   -7.5674 H   0  0  0  0  0  0  0  0  0  0  0  0
   13.8015    9.3553   -7.3985 H   0  0  0  0  0  0  0  0  0  0  0  0
   12.1063    9.7272   -6.9309 H   0  0  0  0  0  0  0  0  0  0  0  0
   12.2207    7.4987   -7.9440 H   0  0  0  0  0  0  0  0  0  0  0  0
   11.3251    8.6405   -9.0321 H   0  0  0  0  0  0  0  0  0  0  0  0
    9.8314    8.0754  -11.0189 H   0  0  0  0  0  0  0  0  0  0  0  0
  1  2  2  0
  2  3  1  0
  2  4  1  0
  4  5  1  0
  5  6  1  0
  6  7  2  0
  7  8  1  0
  8  9  2  0
  8 10  1  0
  7 11  1  0
 11 12  1  0
 12 13  1  0
 13 14  2  0
 14 15  1  0
 15 16  2  0
 16 17  1  0
 17 18  1  0
 18 19  1  0
 19 20  1  0
 20 21  1  0
 21 22  1  0
 22 23  1  0
 23 24  2  0
 23 25  2  0
 23 26  1  0
 26 27  1  0
 27 28  2  0
 28 29  1  0
 29 30  2  0
 30 31  1  0
 31 32  2  0
 22 33  1  0
 33 34  1  0
 17 35  2  0
 12 36  2  0
 36 37  1  0
 36  6  1  0
 35 13  1  0
 34 19  1  0
 32 27  1  0
  4 38  1  0
  4 39  1  0
 14 40  1  0
 15 41  1  0
 16 42  1  0
 18 43  1  0
 19 44  1  0
 20 45  1  0
 20 46  1  0
 21 47  1  0
 21 48  1  0
 26 49  1  0
 26 50  1  0
 28 51  1  0
 29 52  1  0
 30 53  1  0
 31 54  1  0
 32 55  1  0
 33 56  1  0
 33 57  1  0
 34 58  1  0
 34 59  1  0
 35 60  1  0
M  CHG  2   3  -1  10  -1
M  END
>  <meeko>  (9) 
{"is_sidechain": [false], "free_energy": -6.718, "intermolecular_energy": -10.933, "internal_energy": -0.731}

$$$$
