4de2_ligand
     RDKit          3D

 43 45  0  0  0  0  0  0  0  0999 V2000
  -16.1690   -6.9400    1.5220 C   0  0  0  0  0  0  0  0  0  0  0  0
  -15.0640   -6.7090    2.5120 N   0  0  0  0  0  0  0  0  0  0  0  0
  -14.1540   -7.9000    2.6160 C   0  0  0  0  0  0  0  0  0  0  0  0
  -15.5990   -6.2520    3.8520 C   0  0  0  0  0  0  0  0  0  0  0  0
  -15.6260   -4.7550    4.0000 C   0  0  0  0  0  0  0  0  0  0  0  0
  -16.8350   -4.0540    4.0900 C   0  0  0  0  0  0  0  0  0  0  0  0
  -16.8400   -2.6690    4.2790 C   0  0  0  0  0  0  0  0  0  0  0  0
  -15.6390   -1.9640    4.3800 C   0  0  0  0  0  0  0  0  0  0  0  0
  -14.4240   -2.6450    4.2700 C   0  0  0  0  0  0  0  0  0  0  0  0
  -13.1040   -1.9700    4.4170 C   0  0  0  0  0  0  0  0  0  0  0  0
  -12.7530   -1.2410    3.4960 O   0  0  0  0  0  0  0  0  0  0  0  0
  -12.4380   -2.2130    5.6000 N   0  0  0  0  0  0  0  0  0  0  0  0
  -11.1620   -1.7360    5.9770 C   0  0  0  0  0  0  0  0  0  0  0  0
  -11.1050   -0.4480    6.5260 C   0  0  0  0  0  0  0  0  0  0  0  0
   -9.8870    0.1000    6.9300 C   0  0  0  0  0  0  0  0  0  0  0  0
   -8.7120   -0.6360    6.7910 C   0  0  0  0  0  0  0  0  0  0  0  0
   -8.7440   -1.9280    6.2480 C   0  0  0  0  0  0  0  0  0  0  0  0
   -7.5100   -2.6930    6.1120 C   0  0  0  0  0  0  0  0  0  0  0  0
   -7.1200   -3.6470    7.0280 N   0  0  0  0  0  0  0  0  0  0  0  0
   -5.9680   -4.1430    6.6020 N   0  0  0  0  0  0  0  0  0  0  0  0
   -5.7170   -3.4810    5.4700 N   0  0  0  0  0  0  0  0  0  0  0  0
   -6.6280   -2.5670    5.1040 N   0  0  0  0  0  0  0  0  0  0  0  0
   -9.9790   -2.4690    5.8440 C   0  0  0  0  0  0  0  0  0  0  0  0
  -14.4230   -4.0360    4.0790 C   0  0  0  0  0  0  0  0  0  0  0  0
  -17.1082   -7.1363    2.0600 H   0  0  0  0  0  0  0  0  0  0  0  0
  -16.2880   -6.0473    0.8904 H   0  0  0  0  0  0  0  0  0  0  0  0
  -15.9204   -7.8056    0.8904 H   0  0  0  0  0  0  0  0  0  0  0  0
  -14.4920   -5.9380    2.1440 H   0  0  0  0  0  0  0  0  0  0  0  0
  -13.9755   -8.1336    3.6760 H   0  0  0  0  0  0  0  0  0  0  0  0
  -14.6238   -8.7645    2.1241 H   0  0  0  0  0  0  0  0  0  0  0  0
  -13.1965   -7.6739    2.1241 H   0  0  0  0  0  0  0  0  0  0  0  0
  -16.6243   -6.6333    3.9676 H   0  0  0  0  0  0  0  0  0  0  0  0
  -14.9225   -6.6448    4.6253 H   0  0  0  0  0  0  0  0  0  0  0  0
  -17.7881   -4.5975    4.0114 H   0  0  0  0  0  0  0  0  0  0  0  0
  -17.7968   -2.1307    4.3486 H   0  0  0  0  0  0  0  0  0  0  0  0
  -15.6494   -0.8766    4.5455 H   0  0  0  0  0  0  0  0  0  0  0  0
  -12.9280   -2.7340    6.3150 H   0  0  0  0  0  0  0  0  0  0  0  0
  -12.0297    0.1369    6.6396 H   0  0  0  0  0  0  0  0  0  0  0  0
   -9.8544    1.1128    7.3581 H   0  0  0  0  0  0  0  0  0  0  0  0
   -7.7534   -0.2005    7.1093 H   0  0  0  0  0  0  0  0  0  0  0  0
   -4.8820   -3.6650    4.9200 H   0  0  0  0  0  0  0  0  0  0  0  0
  -10.0138   -3.4825    5.4178 H   0  0  0  0  0  0  0  0  0  0  0  0
  -13.4655   -4.5701    3.9900 H   0  0  0  0  0  0  0  0  0  0  0  0
  1  2  1  0
  2  3  1  0
  2  4  1  0
  4  5  1  0
  5  6  2  0
  6  7  1  0
  7  8  2  0
  8  9  1  0
  9 10  1  0
 10 11  2  0
 10 12  1  0
 12 13  1  0
 13 14  2  0
 14 15  1  0
 15 16  2  0
 16 17  1  0
 17 18  1  0
 18 19  1  0
 19 20  2  0
 20 21  1  0
 21 22  1  0
 17 23  2  0
  9 24  2  0
 24  5  1  0
 23 13  1  0
 22 18  2  0
  1 25  1  0
  1 26  1  0
  1 27  1  0
  2 28  1  0
  3 29  1  0
  3 30  1  0
  3 31  1  0
  4 32  1  0
  4 33  1  0
  6 34  1  0
  7 35  1  0
  8 36  1  0
 12 37  1  0
 14 38  1  0
 15 39  1  0
 16 40  1  0
 21 41  1  0
 23 42  1  0
 24 43  1  0
M  CHG  1   2   1
M  END
>  <meeko>  (1) 
{"is_sidechain": [false], "free_energy": -6.79, "intermolecular_energy": -8.774, "internal_energy": -0.633}

$$$$
4de2_ligand
     RDKit          3D

 43 45  0  0  0  0  0  0  0  0999 V2000
   -5.9060   -4.7600    6.7850 C   0  0  0  0  0  0  0  0  0  0  0  0
   -6.8350   -3.6610    6.3590 N   0  0  0  0  0  0  0  0  0  0  0  0
   -6.2380   -2.8220    5.2640 C   0  0  0  0  0  0  0  0  0  0  0  0
   -7.3130   -2.8430    7.5390 C   0  0  0  0  0  0  0  0  0  0  0  0
   -8.4830   -1.9560    7.2090 C   0  0  0  0  0  0  0  0  0  0  0  0
   -8.3440   -0.5640    7.1410 C   0  0  0  0  0  0  0  0  0  0  0  0
   -9.4290    0.2410    6.7810 C   0  0  0  0  0  0  0  0  0  0  0  0
  -10.6680   -0.3320    6.4850 C   0  0  0  0  0  0  0  0  0  0  0  0
  -10.8290   -1.7170    6.5710 C   0  0  0  0  0  0  0  0  0  0  0  0
  -12.1050   -2.4040    6.2230 C   0  0  0  0  0  0  0  0  0  0  0  0
  -12.9400   -2.5000    7.1160 O   0  0  0  0  0  0  0  0  0  0  0  0
  -12.2190   -2.8240    4.9140 N   0  0  0  0  0  0  0  0  0  0  0  0
  -13.2960   -3.5310    4.3330 C   0  0  0  0  0  0  0  0  0  0  0  0
  -14.3250   -2.7650    3.7700 C   0  0  0  0  0  0  0  0  0  0  0  0
  -15.4240   -3.3800    3.1710 C   0  0  0  0  0  0  0  0  0  0  0  0
  -15.5050   -4.7710    3.1270 C   0  0  0  0  0  0  0  0  0  0  0  0
  -14.4860   -5.5590    3.6800 C   0  0  0  0  0  0  0  0  0  0  0  0
  -14.5770   -7.0140    3.6240 C   0  0  0  0  0  0  0  0  0  0  0  0
  -14.9360   -7.7790    4.7130 N   0  0  0  0  0  0  0  0  0  0  0  0
  -14.9200   -9.0440    4.3170 N   0  0  0  0  0  0  0  0  0  0  0  0
  -14.5610   -8.9870    3.0320 N   0  0  0  0  0  0  0  0  0  0  0  0
  -14.3300   -7.7630    2.5350 N   0  0  0  0  0  0  0  0  0  0  0  0
  -13.3830   -4.9250    4.2820 C   0  0  0  0  0  0  0  0  0  0  0  0
   -9.7370   -2.5220    6.9330 C   0  0  0  0  0  0  0  0  0  0  0  0
   -5.8691   -4.8037    7.8835 H   0  0  0  0  0  0  0  0  0  0  0  0
   -6.2699   -5.7207    6.3919 H   0  0  0  0  0  0  0  0  0  0  0  0
   -4.8981   -4.5611    6.3919 H   0  0  0  0  0  0  0  0  0  0  0  0
   -7.6660   -4.1140    5.9570 H   0  0  0  0  0  0  0  0  0  0  0  0
   -5.6544   -2.0018    5.7074 H   0  0  0  0  0  0  0  0  0  0  0  0
   -5.5796   -3.4458    4.6417 H   0  0  0  0  0  0  0  0  0  0  0  0
   -7.0432   -2.4044    4.6417 H   0  0  0  0  0  0  0  0  0  0  0  0
   -7.6116   -3.5310    8.3436 H   0  0  0  0  0  0  0  0  0  0  0  0
   -6.4819   -2.1893    7.8423 H   0  0  0  0  0  0  0  0  0  0  0  0
   -7.3737   -0.1005    7.3726 H   0  0  0  0  0  0  0  0  0  0  0  0
   -9.3061    1.3329    6.7305 H   0  0  0  0  0  0  0  0  0  0  0  0
  -11.5135    0.3047    6.1854 H   0  0  0  0  0  0  0  0  0  0  0  0
  -11.4910   -2.5470    4.2680 H   0  0  0  0  0  0  0  0  0  0  0  0
  -14.2655   -1.6670    3.8007 H   0  0  0  0  0  0  0  0  0  0  0  0
  -16.2264   -2.7679    2.7335 H   0  0  0  0  0  0  0  0  0  0  0  0
  -16.3739   -5.2533    2.6554 H   0  0  0  0  0  0  0  0  0  0  0  0
  -14.4690   -9.8280    2.4680 H   0  0  0  0  0  0  0  0  0  0  0  0
  -12.5784   -5.5350    4.7184 H   0  0  0  0  0  0  0  0  0  0  0  0
   -9.8664   -3.6122    7.0012 H   0  0  0  0  0  0  0  0  0  0  0  0
  1  2  1  0
  2  3  1  0
  2  4  1  0
  4  5  1  0
  5  6  2  0
  6  7  1  0
  7  8  2  0
  8  9  1  0
  9 10  1  0
 10 11  2  0
 10 12  1  0
 12 13  1  0
 13 14  2  0
 14 15  1  0
 15 16  2  0
 16 17  1  0
 17 18  1  0
 18 19  1  0
 19 20  2  0
 20 21  1  0
 21 22  1  0
 17 23  2  0
  9 24  2  0
 24  5  1  0
 23 13  1  0
 22 18  2  0
  1 25  1  0
  1 26  1  0
  1 27  1  0
  2 28  1  0
  3 29  1  0
  3 30  1  0
  3 31  1  0
  4 32  1  0
  4 33  1  0
  6 34  1  0
  7 35  1  0
  8 36  1  0
 12 37  1  0
 14 38  1  0
 15 39  1  0
 16 40  1  0
 21 41  1  0
 23 42  1  0
 24 43  1  0
M  CHG  1   2   1
M  END
>  <meeko>  (2) 
{"is_sidechain": [false], "free_energy": -6.555, "intermolecular_energy": -8.49, "internal_energy": -0.614}

$$$$
4de2_ligand
     RDKit          3D

 43 45  0  0  0  0  0  0  0  0999 V2000
   -6.3770   -4.3590    6.8370 C   0  0  0  0  0  0  0  0  0  0  0  0
   -7.4060   -3.4330    6.2580 N   0  0  0  0  0  0  0  0  0  0  0  0
   -6.8000   -2.4780    5.2680 C   0  0  0  0  0  0  0  0  0  0  0  0
   -8.2060   -2.7380    7.3390 C   0  0  0  0  0  0  0  0  0  0  0  0
   -9.4320   -2.0410    6.8130 C   0  0  0  0  0  0  0  0  0  0  0  0
   -9.6690   -0.6860    7.0800 C   0  0  0  0  0  0  0  0  0  0  0  0
  -10.7860   -0.0420    6.5390 C   0  0  0  0  0  0  0  0  0  0  0  0
  -11.6820   -0.7400    5.7260 C   0  0  0  0  0  0  0  0  0  0  0  0
  -11.4710   -2.0970    5.4690 C   0  0  0  0  0  0  0  0  0  0  0  0
  -12.3540   -2.8950    4.5730 C   0  0  0  0  0  0  0  0  0  0  0  0
  -12.8810   -2.2950    3.6430 O   0  0  0  0  0  0  0  0  0  0  0  0
  -12.4500   -4.2390    4.8710 N   0  0  0  0  0  0  0  0  0  0  0  0
  -13.2430   -5.2060    4.2140 C   0  0  0  0  0  0  0  0  0  0  0  0
  -12.6820   -6.4790    4.0500 C   0  0  0  0  0  0  0  0  0  0  0  0
  -13.3970   -7.4960    3.4160 C   0  0  0  0  0  0  0  0  0  0  0  0
  -14.6840   -7.2500    2.9410 C   0  0  0  0  0  0  0  0  0  0  0  0
  -15.2690   -5.9860    3.0970 C   0  0  0  0  0  0  0  0  0  0  0  0
  -16.6180   -5.7400    2.6020 C   0  0  0  0  0  0  0  0  0  0  0  0
  -17.5620   -5.0440    3.3270 N   0  0  0  0  0  0  0  0  0  0  0  0
  -18.6620   -5.0040    2.5900 N   0  0  0  0  0  0  0  0  0  0  0  0
  -18.3400   -5.6630    1.4730 N   0  0  0  0  0  0  0  0  0  0  0  0
  -17.0910   -6.1480    1.4110 N   0  0  0  0  0  0  0  0  0  0  0  0
  -14.5370   -4.9690    3.7380 C   0  0  0  0  0  0  0  0  0  0  0  0
  -10.3490   -2.7410    6.0150 C   0  0  0  0  0  0  0  0  0  0  0  0
   -6.4230   -4.3176    7.9353 H   0  0  0  0  0  0  0  0  0  0  0  0
   -6.5776   -5.3867    6.5001 H   0  0  0  0  0  0  0  0  0  0  0  0
   -5.3760   -4.0515    6.5001 H   0  0  0  0  0  0  0  0  0  0  0  0
   -8.0680   -4.0170    5.7300 H   0  0  0  0  0  0  0  0  0  0  0  0
   -6.2862   -1.6683    5.8069 H   0  0  0  0  0  0  0  0  0  0  0  0
   -6.0768   -3.0146    4.6363 H   0  0  0  0  0  0  0  0  0  0  0  0
   -7.5935   -2.0522    4.6363 H   0  0  0  0  0  0  0  0  0  0  0  0
   -8.5209   -3.4890    8.0785 H   0  0  0  0  0  0  0  0  0  0  0  0
   -7.5571   -1.9685    7.7826 H   0  0  0  0  0  0  0  0  0  0  0  0
   -8.9716   -0.1251    7.7195 H   0  0  0  0  0  0  0  0  0  0  0  0
  -10.9604    1.0223    6.7553 H   0  0  0  0  0  0  0  0  0  0  0  0
  -12.5499   -0.2236    5.2900 H   0  0  0  0  0  0  0  0  0  0  0  0
  -11.8440   -4.6020    5.5950 H   0  0  0  0  0  0  0  0  0  0  0  0
  -11.6674   -6.6791    4.4248 H   0  0  0  0  0  0  0  0  0  0  0  0
  -12.9451   -8.4911    3.2912 H   0  0  0  0  0  0  0  0  0  0  0  0
  -15.2444   -8.0533    2.4403 H   0  0  0  0  0  0  0  0  0  0  0  0
  -19.0090   -5.7860    0.7180 H   0  0  0  0  0  0  0  0  0  0  0  0
  -14.9885   -3.9742    3.8665 H   0  0  0  0  0  0  0  0  0  0  0  0
  -10.1867   -3.8102    5.8140 H   0  0  0  0  0  0  0  0  0  0  0  0
  1  2  1  0
  2  3  1  0
  2  4  1  0
  4  5  1  0
  5  6  2  0
  6  7  1  0
  7  8  2  0
  8  9  1  0
  9 10  1  0
 10 11  2  0
 10 12  1  0
 12 13  1  0
 13 14  2  0
 14 15  1  0
 15 16  2  0
 16 17  1  0
 17 18  1  0
 18 19  1  0
 19 20  2  0
 20 21  1  0
 21 22  1  0
 17 23  2  0
  9 24  2  0
 24  5  1  0
 23 13  1  0
 22 18  2  0
  1 25  1  0
  1 26  1  0
  1 27  1  0
  2 28  1  0
  3 29  1  0
  3 30  1  0
  3 31  1  0
  4 32  1  0
  4 33  1  0
  6 34  1  0
  7 35  1  0
  8 36  1  0
 12 37  1  0
 14 38  1  0
 15 39  1  0
 16 40  1  0
 21 41  1  0
 23 42  1  0
 24 43  1  0
M  CHG  1   2   1
M  END
>  <meeko>  (3) 
{"is_sidechain": [false], "free_energy": -6.479, "intermolecular_energy": -8.543, "internal_energy": -0.463}

$$$$
4de2_ligand
     RDKit          3D

 43 45  0  0  0  0  0  0  0  0999 V2000
   -4.2670   -2.0810   13.8070 C   0  0  0  0  0  0  0  0  0  0  0  0
   -5.2470   -3.1620   14.1590 N   0  0  0  0  0  0  0  0  0  0  0  0
   -5.9840   -2.8510   15.4320 C   0  0  0  0  0  0  0  0  0  0  0  0
   -4.5940   -4.5280   14.1720 C   0  0  0  0  0  0  0  0  0  0  0  0
   -4.9440   -5.3620   12.9690 C   0  0  0  0  0  0  0  0  0  0  0  0
   -4.1920   -6.4930   12.6240 C   0  0  0  0  0  0  0  0  0  0  0  0
   -4.5630   -7.2860   11.5340 C   0  0  0  0  0  0  0  0  0  0  0  0
   -5.6880   -6.9610   10.7720 C   0  0  0  0  0  0  0  0  0  0  0  0
   -6.4360   -5.8240   11.0900 C   0  0  0  0  0  0  0  0  0  0  0  0
   -7.6740   -5.4420   10.3560 C   0  0  0  0  0  0  0  0  0  0  0  0
   -8.4420   -6.3520   10.0600 O   0  0  0  0  0  0  0  0  0  0  0  0
   -7.8380   -4.0920   10.1220 N   0  0  0  0  0  0  0  0  0  0  0  0
   -8.8920   -3.4680    9.4190 C   0  0  0  0  0  0  0  0  0  0  0  0
  -10.1950   -3.7690    9.8330 C   0  0  0  0  0  0  0  0  0  0  0  0
  -11.2960   -3.1940    9.1980 C   0  0  0  0  0  0  0  0  0  0  0  0
  -11.1040   -2.3070    8.1400 C   0  0  0  0  0  0  0  0  0  0  0  0
   -9.8090   -1.9860    7.7100 C   0  0  0  0  0  0  0  0  0  0  0  0
   -9.6180   -1.0520    6.6060 C   0  0  0  0  0  0  0  0  0  0  0  0
   -9.9830   -1.3460    5.3100 N   0  0  0  0  0  0  0  0  0  0  0  0
   -9.6750   -0.2900    4.5720 N   0  0  0  0  0  0  0  0  0  0  0  0
   -9.1480    0.5800    5.4390 N   0  0  0  0  0  0  0  0  0  0  0  0
   -9.0790    0.1760    6.7160 N   0  0  0  0  0  0  0  0  0  0  0  0
   -8.7070   -2.5740    8.3590 C   0  0  0  0  0  0  0  0  0  0  0  0
   -6.0590   -5.0300   12.1850 C   0  0  0  0  0  0  0  0  0  0  0  0
   -3.8642   -1.6367   14.7292 H   0  0  0  0  0  0  0  0  0  0  0  0
   -3.4439   -2.5103   13.2169 H   0  0  0  0  0  0  0  0  0  0  0  0
   -4.7747   -1.3038   13.2169 H   0  0  0  0  0  0  0  0  0  0  0  0
   -5.9530   -3.1790   13.4110 H   0  0  0  0  0  0  0  0  0  0  0  0
   -5.3547   -3.1166   16.2942 H   0  0  0  0  0  0  0  0  0  0  0  0
   -6.2191   -1.7770   15.4666 H   0  0  0  0  0  0  0  0  0  0  0  0
   -6.9174   -3.4319   15.4666 H   0  0  0  0  0  0  0  0  0  0  0  0
   -3.5025   -4.3939   14.1993 H   0  0  0  0  0  0  0  0  0  0  0  0
   -4.9662   -5.0607   15.0595 H   0  0  0  0  0  0  0  0  0  0  0  0
   -3.3033   -6.7588   13.2151 H   0  0  0  0  0  0  0  0  0  0  0  0
   -3.9650   -8.1720   11.2745 H   0  0  0  0  0  0  0  0  0  0  0  0
   -5.9839   -7.5975    9.9251 H   0  0  0  0  0  0  0  0  0  0  0  0
   -7.1740   -3.4600   10.5500 H   0  0  0  0  0  0  0  0  0  0  0  0
  -10.3525   -4.4669   10.6686 H   0  0  0  0  0  0  0  0  0  0  0  0
  -12.3147   -3.4403    9.5319 H   0  0  0  0  0  0  0  0  0  0  0  0
  -11.9738   -1.8563    7.6396 H   0  0  0  0  0  0  0  0  0  0  0  0
   -8.8190    1.4950    5.1400 H   0  0  0  0  0  0  0  0  0  0  0  0
   -7.6872   -2.3274    8.0284 H   0  0  0  0  0  0  0  0  0  0  0  0
   -6.6470   -4.1338   12.4319 H   0  0  0  0  0  0  0  0  0  0  0  0
  1  2  1  0
  2  3  1  0
  2  4  1  0
  4  5  1  0
  5  6  2  0
  6  7  1  0
  7  8  2  0
  8  9  1  0
  9 10  1  0
 10 11  2  0
 10 12  1  0
 12 13  1  0
 13 14  2  0
 14 15  1  0
 15 16  2  0
 16 17  1  0
 17 18  1  0
 18 19  1  0
 19 20  2  0
 20 21  1  0
 21 22  1  0
 17 23  2  0
  9 24  2  0
 24  5  1  0
 23 13  1  0
 22 18  2  0
  1 25  1  0
  1 26  1  0
  1 27  1  0
  2 28  1  0
  3 29  1  0
  3 30  1  0
  3 31  1  0
  4 32  1  0
  4 33  1  0
  6 34  1  0
  7 35  1  0
  8 36  1  0
 12 37  1  0
 14 38  1  0
 15 39  1  0
 16 40  1  0
 21 41  1  0
 23 42  1  0
 24 43  1  0
M  CHG  1   2   1
M  END
>  <meeko>  (4) 
{"is_sidechain": [false], "free_energy": -6.456, "intermolecular_energy": -8.517, "internal_energy": -0.459}

$$$$
4de2_ligand
     RDKit          3D

 43 45  0  0  0  0  0  0  0  0999 V2000
   -7.0960   -4.1990    7.2030 C   0  0  0  0  0  0  0  0  0  0  0  0
   -7.4150   -3.4430    8.4600 N   0  0  0  0  0  0  0  0  0  0  0  0
   -6.8660   -4.1320    9.6770 C   0  0  0  0  0  0  0  0  0  0  0  0
   -8.8940   -3.1360    8.5680 C   0  0  0  0  0  0  0  0  0  0  0  0
   -9.3530   -2.0850    7.5950 C   0  0  0  0  0  0  0  0  0  0  0  0
   -8.6080   -0.9180    7.3790 C   0  0  0  0  0  0  0  0  0  0  0  0
   -9.0230    0.0240    6.4330 C   0  0  0  0  0  0  0  0  0  0  0  0
  -10.1860   -0.1850    5.6890 C   0  0  0  0  0  0  0  0  0  0  0  0
  -10.9520   -1.3330    5.9070 C   0  0  0  0  0  0  0  0  0  0  0  0
  -12.1760   -1.6480    5.1190 C   0  0  0  0  0  0  0  0  0  0  0  0
  -12.3660   -0.9830    4.1060 O   0  0  0  0  0  0  0  0  0  0  0  0
  -12.9450   -2.6880    5.6000 N   0  0  0  0  0  0  0  0  0  0  0  0
  -14.1660   -3.1630    5.0720 C   0  0  0  0  0  0  0  0  0  0  0  0
  -15.3300   -2.4940    5.4700 C   0  0  0  0  0  0  0  0  0  0  0  0
  -16.5800   -2.8930    4.9950 C   0  0  0  0  0  0  0  0  0  0  0  0
  -16.6780   -3.9670    4.1120 C   0  0  0  0  0  0  0  0  0  0  0  0
  -15.5270   -4.6500    3.6960 C   0  0  0  0  0  0  0  0  0  0  0  0
  -15.6390   -5.7690    2.7670 C   0  0  0  0  0  0  0  0  0  0  0  0
  -16.6700   -5.8830    1.8590 N   0  0  0  0  0  0  0  0  0  0  0  0
  -16.4640   -7.0020    1.1800 N   0  0  0  0  0  0  0  0  0  0  0  0
  -15.3400   -7.5040    1.6970 N   0  0  0  0  0  0  0  0  0  0  0  0
  -14.7730   -6.7950    2.6840 N   0  0  0  0  0  0  0  0  0  0  0  0
  -14.2730   -4.2370    4.1830 C   0  0  0  0  0  0  0  0  0  0  0  0
  -10.5330   -2.2760    6.8590 C   0  0  0  0  0  0  0  0  0  0  0  0
   -6.6805   -5.1838    7.4629 H   0  0  0  0  0  0  0  0  0  0  0  0
   -8.0144   -4.3328    6.6125 H   0  0  0  0  0  0  0  0  0  0  0  0
   -6.3594   -3.6344    6.6125 H   0  0  0  0  0  0  0  0  0  0  0  0
   -6.9300   -2.5380    8.3940 H   0  0  0  0  0  0  0  0  0  0  0  0
   -7.2555   -3.6431   10.5821 H   0  0  0  0  0  0  0  0  0  0  0  0
   -7.1727   -5.1884    9.6700 H   0  0  0  0  0  0  0  0  0  0  0  0
   -5.7678   -4.0690    9.6700 H   0  0  0  0  0  0  0  0  0  0  0  0
   -9.4580   -4.0606    8.3759 H   0  0  0  0  0  0  0  0  0  0  0  0
   -9.0739   -2.7454    9.5804 H   0  0  0  0  0  0  0  0  0  0  0  0
   -7.6896   -0.7417    7.9582 H   0  0  0  0  0  0  0  0  0  0  0  0
   -8.4292    0.9362    6.2737 H   0  0  0  0  0  0  0  0  0  0  0  0
  -10.4980    0.5516    4.9339 H   0  0  0  0  0  0  0  0  0  0  0  0
  -12.5760   -3.2230    6.3750 H   0  0  0  0  0  0  0  0  0  0  0  0
  -15.2582   -1.6443    6.1649 H   0  0  0  0  0  0  0  0  0  0  0  0
  -17.4870   -2.3605    5.3171 H   0  0  0  0  0  0  0  0  0  0  0  0
  -17.6644   -4.2804    3.7395 H   0  0  0  0  0  0  0  0  0  0  0  0
  -14.9410   -8.3750    1.3560 H   0  0  0  0  0  0  0  0  0  0  0  0
  -13.3645   -4.7663    3.8599 H   0  0  0  0  0  0  0  0  0  0  0  0
  -11.1385   -3.1781    7.0308 H   0  0  0  0  0  0  0  0  0  0  0  0
  1  2  1  0
  2  3  1  0
  2  4  1  0
  4  5  1  0
  5  6  2  0
  6  7  1  0
  7  8  2  0
  8  9  1  0
  9 10  1  0
 10 11  2  0
 10 12  1  0
 12 13  1  0
 13 14  2  0
 14 15  1  0
 15 16  2  0
 16 17  1  0
 17 18  1  0
 18 19  1  0
 19 20  2  0
 20 21  1  0
 21 22  1  0
 17 23  2  0
  9 24  2  0
 24  5  1  0
 23 13  1  0
 22 18  2  0
  1 25  1  0
  1 26  1  0
  1 27  1  0
  2 28  1  0
  3 29  1  0
  3 30  1  0
  3 31  1  0
  4 32  1  0
  4 33  1  0
  6 34  1  0
  7 35  1  0
  8 36  1  0
 12 37  1  0
 14 38  1  0
 15 39  1  0
 16 40  1  0
 21 41  1  0
 23 42  1  0
 24 43  1  0
M  CHG  1   2   1
M  END
>  <meeko>  (5) 
{"is_sidechain": [false], "free_energy": -6.421, "intermolecular_energy": -8.273, "internal_energy": -0.658}

$$$$
4de2_ligand
     RDKit          3D

 43 45  0  0  0  0  0  0  0  0999 V2000
  -10.2250   -0.6170    4.8050 C   0  0  0  0  0  0  0  0  0  0  0  0
   -8.8440   -0.6540    5.3920 N   0  0  0  0  0  0  0  0  0  0  0  0
   -8.1510   -1.9550    5.1010 C   0  0  0  0  0  0  0  0  0  0  0  0
   -8.8510   -0.3020    6.8640 C   0  0  0  0  0  0  0  0  0  0  0  0
   -9.1490   -1.4800    7.7520 C   0  0  0  0  0  0  0  0  0  0  0  0
  -10.4670   -1.8550    8.0450 C   0  0  0  0  0  0  0  0  0  0  0  0
  -10.7260   -2.9840    8.8290 C   0  0  0  0  0  0  0  0  0  0  0  0
   -9.6740   -3.7530    9.3310 C   0  0  0  0  0  0  0  0  0  0  0  0
   -8.3540   -3.3800    9.0670 C   0  0  0  0  0  0  0  0  0  0  0  0
   -7.1830   -4.1780    9.5260 C   0  0  0  0  0  0  0  0  0  0  0  0
   -6.3530   -4.4790    8.6740 O   0  0  0  0  0  0  0  0  0  0  0  0
   -7.1440   -4.4590   10.8760 N   0  0  0  0  0  0  0  0  0  0  0  0
   -6.1760   -5.2250   11.5630 C   0  0  0  0  0  0  0  0  0  0  0  0
   -6.0290   -6.5610   11.1660 C   0  0  0  0  0  0  0  0  0  0  0  0
   -5.0940   -7.3890   11.7870 C   0  0  0  0  0  0  0  0  0  0  0  0
   -4.2910   -6.8890   12.8100 C   0  0  0  0  0  0  0  0  0  0  0  0
   -4.4160   -5.5540   13.2220 C   0  0  0  0  0  0  0  0  0  0  0  0
   -3.5680   -5.0370   14.2900 C   0  0  0  0  0  0  0  0  0  0  0  0
   -2.6590   -5.8240   14.9650 N   0  0  0  0  0  0  0  0  0  0  0  0
   -2.0630   -5.0460   15.8570 N   0  0  0  0  0  0  0  0  0  0  0  0
   -2.6270   -3.8470   15.6840 N   0  0  0  0  0  0  0  0  0  0  0  0
   -3.5680   -3.7670   14.7310 N   0  0  0  0  0  0  0  0  0  0  0  0
   -5.3640   -4.7290   12.5880 C   0  0  0  0  0  0  0  0  0  0  0  0
   -8.0980   -2.2460    8.2800 C   0  0  0  0  0  0  0  0  0  0  0  0
  -10.9678   -0.5971    5.6161 H   0  0  0  0  0  0  0  0  0  0  0  0
  -10.3356    0.2844    4.1844 H   0  0  0  0  0  0  0  0  0  0  0  0
  -10.3837   -1.5112    4.1844 H   0  0  0  0  0  0  0  0  0  0  0  0
   -8.2990    0.0780    4.9160 H   0  0  0  0  0  0  0  0  0  0  0  0
   -7.8875   -2.4498    6.0474 H   0  0  0  0  0  0  0  0  0  0  0  0
   -8.8218   -2.6061    4.5213 H   0  0  0  0  0  0  0  0  0  0  0  0
   -7.2364   -1.7616    4.5213 H   0  0  0  0  0  0  0  0  0  0  0  0
   -7.8621    0.0977    7.1330 H   0  0  0  0  0  0  0  0  0  0  0  0
   -9.6507    0.4369    7.0204 H   0  0  0  0  0  0  0  0  0  0  0  0
  -11.3041   -1.2571    7.6556 H   0  0  0  0  0  0  0  0  0  0  0  0
  -11.7651   -3.2680    9.0516 H   0  0  0  0  0  0  0  0  0  0  0  0
   -9.8841   -4.6497    9.9325 H   0  0  0  0  0  0  0  0  0  0  0  0
   -7.8410   -4.0220   11.4650 H   0  0  0  0  0  0  0  0  0  0  0  0
   -6.6574   -6.9607   10.3564 H   0  0  0  0  0  0  0  0  0  0  0  0
   -4.9905   -8.4370   11.4690 H   0  0  0  0  0  0  0  0  0  0  0  0
   -3.5547   -7.5450   13.2974 H   0  0  0  0  0  0  0  0  0  0  0  0
   -2.3530   -3.0450   16.2450 H   0  0  0  0  0  0  0  0  0  0  0  0
   -5.4676   -3.6801   12.9029 H   0  0  0  0  0  0  0  0  0  0  0  0
   -7.0579   -1.9533    8.0740 H   0  0  0  0  0  0  0  0  0  0  0  0
  1  2  1  0
  2  3  1  0
  2  4  1  0
  4  5  1  0
  5  6  2  0
  6  7  1  0
  7  8  2  0
  8  9  1  0
  9 10  1  0
 10 11  2  0
 10 12  1  0
 12 13  1  0
 13 14  2  0
 14 15  1  0
 15 16  2  0
 16 17  1  0
 17 18  1  0
 18 19  1  0
 19 20  2  0
 20 21  1  0
 21 22  1  0
 17 23  2  0
  9 24  2  0
 24  5  1  0
 23 13  1  0
 22 18  2  0
  1 25  1  0
  1 26  1  0
  1 27  1  0
  2 28  1  0
  3 29  1  0
  3 30  1  0
  3 31  1  0
  4 32  1  0
  4 33  1  0
  6 34  1  0
  7 35  1  0
  8 36  1  0
 12 37  1  0
 14 38  1  0
 15 39  1  0
 16 40  1  0
 21 41  1  0
 23 42  1  0
 24 43  1  0
M  CHG  1   2   1
M  END
>  <meeko>  (6) 
{"is_sidechain": [false], "free_energy": -6.347, "intermolecular_energy": -8.72, "internal_energy": -0.114}

$$$$
4de2_ligand
     RDKit          3D

 43 45  0  0  0  0  0  0  0  0999 V2000
  -17.4030    3.0310    1.6770 C   0  0  0  0  0  0  0  0  0  0  0  0
  -16.6570    1.8220    2.1600 N   0  0  0  0  0  0  0  0  0  0  0  0
  -16.3890    0.8520    1.0440 C   0  0  0  0  0  0  0  0  0  0  0  0
  -17.3380    1.1820    3.3510 C   0  0  0  0  0  0  0  0  0  0  0  0
  -16.6670   -0.0860    3.8060 C   0  0  0  0  0  0  0  0  0  0  0  0
  -17.3910   -1.2740    3.9690 C   0  0  0  0  0  0  0  0  0  0  0  0
  -16.7410   -2.4550    4.3420 C   0  0  0  0  0  0  0  0  0  0  0  0
  -15.3620   -2.4670    4.5560 C   0  0  0  0  0  0  0  0  0  0  0  0
  -14.6280   -1.2860    4.4190 C   0  0  0  0  0  0  0  0  0  0  0  0
  -13.1490   -1.2310    4.5820 C   0  0  0  0  0  0  0  0  0  0  0  0
  -12.4790   -1.2960    3.5580 O   0  0  0  0  0  0  0  0  0  0  0  0
  -12.6970   -1.0730    5.8760 N   0  0  0  0  0  0  0  0  0  0  0  0
  -11.3540   -1.0320    6.3140 C   0  0  0  0  0  0  0  0  0  0  0  0
  -10.5510   -0.0060    5.7980 C   0  0  0  0  0  0  0  0  0  0  0  0
   -9.2150    0.1120    6.1800 C   0  0  0  0  0  0  0  0  0  0  0  0
   -8.6660   -0.7940    7.0840 C   0  0  0  0  0  0  0  0  0  0  0  0
   -9.4500   -1.8270    7.6180 C   0  0  0  0  0  0  0  0  0  0  0  0
   -8.8680   -2.7680    8.5690 C   0  0  0  0  0  0  0  0  0  0  0  0
   -7.5080   -2.9540    8.6950 N   0  0  0  0  0  0  0  0  0  0  0  0
   -7.3300   -3.8660    9.6390 N   0  0  0  0  0  0  0  0  0  0  0  0
   -8.5650   -4.1830   10.0350 N   0  0  0  0  0  0  0  0  0  0  0  0
   -9.5690   -3.5440    9.4160 N   0  0  0  0  0  0  0  0  0  0  0  0
  -10.7970   -1.9360    7.2240 C   0  0  0  0  0  0  0  0  0  0  0  0
  -15.2840   -0.1010    4.0460 C   0  0  0  0  0  0  0  0  0  0  0  0
  -17.7606    3.6105    2.5409 H   0  0  0  0  0  0  0  0  0  0  0  0
  -16.7333    3.6560    1.0680 H   0  0  0  0  0  0  0  0  0  0  0  0
  -18.2620    2.7128    1.0680 H   0  0  0  0  0  0  0  0  0  0  0  0
  -15.7380    2.1500    2.4870 H   0  0  0  0  0  0  0  0  0  0  0  0
  -16.1185   -0.1271    1.4662 H   0  0  0  0  0  0  0  0  0  0  0  0
  -17.2919    0.7473    0.4244 H   0  0  0  0  0  0  0  0  0  0  0  0
  -15.5605    1.2257    0.4244 H   0  0  0  0  0  0  0  0  0  0  0  0
  -17.3318    1.8996    4.1847 H   0  0  0  0  0  0  0  0  0  0  0  0
  -18.3599    0.9183    3.0409 H   0  0  0  0  0  0  0  0  0  0  0  0
  -18.4783   -1.2782    3.8025 H   0  0  0  0  0  0  0  0  0  0  0  0
  -17.3210   -3.3812    4.4676 H   0  0  0  0  0  0  0  0  0  0  0  0
  -14.8545   -3.4032    4.8316 H   0  0  0  0  0  0  0  0  0  0  0  0
  -13.3870   -0.9020    6.5960 H   0  0  0  0  0  0  0  0  0  0  0  0
  -10.9788    0.7136    5.0844 H   0  0  0  0  0  0  0  0  0  0  0  0
   -8.5945    0.9210    5.7671 H   0  0  0  0  0  0  0  0  0  0  0  0
   -7.6111   -0.6988    7.3810 H   0  0  0  0  0  0  0  0  0  0  0  0
   -8.7290   -4.8710   10.7660 H   0  0  0  0  0  0  0  0  0  0  0  0
  -11.4197   -2.7430    7.6374 H   0  0  0  0  0  0  0  0  0  0  0  0
  -14.7055    0.8286    3.9405 H   0  0  0  0  0  0  0  0  0  0  0  0
  1  2  1  0
  2  3  1  0
  2  4  1  0
  4  5  1  0
  5  6  2  0
  6  7  1  0
  7  8  2  0
  8  9  1  0
  9 10  1  0
 10 11  2  0
 10 12  1  0
 12 13  1  0
 13 14  2  0
 14 15  1  0
 15 16  2  0
 16 17  1  0
 17 18  1  0
 18 19  1  0
 19 20  2  0
 20 21  1  0
 21 22  1  0
 17 23  2  0
  9 24  2  0
 24  5  1  0
 23 13  1  0
 22 18  2  0
  1 25  1  0
  1 26  1  0
  1 27  1  0
  2 28  1  0
  3 29  1  0
  3 30  1  0
  3 31  1  0
  4 32  1  0
  4 33  1  0
  6 34  1  0
  7 35  1  0
  8 36  1  0
 12 37  1  0
 14 38  1  0
 15 39  1  0
 16 40  1  0
 21 41  1  0
 23 42  1  0
 24 43  1  0
M  CHG  1   2   1
M  END
>  <meeko>  (7) 
{"is_sidechain": [false], "free_energy": -6.091, "intermolecular_energy": -8.216, "internal_energy": -0.288}

$$$$
4de2_ligand
     RDKit          3D

 43 45  0  0  0  0  0  0  0  0999 V2000
   -2.9360  -10.0790   10.3160 C   0  0  0  0  0  0  0  0  0  0  0  0
   -3.1630   -9.3300   11.5970 N   0  0  0  0  0  0  0  0  0  0  0  0
   -2.4110   -9.9470   12.7420 C   0  0  0  0  0  0  0  0  0  0  0  0
   -4.6380   -9.1480   11.8850 C   0  0  0  0  0  0  0  0  0  0  0  0
   -5.0540   -7.7030   11.9510 C   0  0  0  0  0  0  0  0  0  0  0  0
   -4.3000   -6.7610   12.6630 C   0  0  0  0  0  0  0  0  0  0  0  0
   -4.6740   -5.4130   12.6690 C   0  0  0  0  0  0  0  0  0  0  0  0
   -5.8030   -4.9870   11.9670 C   0  0  0  0  0  0  0  0  0  0  0  0
   -6.5780   -5.9190   11.2700 C   0  0  0  0  0  0  0  0  0  0  0  0
   -7.7660   -5.5330   10.4590 C   0  0  0  0  0  0  0  0  0  0  0  0
   -8.4630   -6.4480   10.0340 O   0  0  0  0  0  0  0  0  0  0  0  0
   -7.9700   -4.1770   10.3060 N   0  0  0  0  0  0  0  0  0  0  0  0
   -8.9880   -3.5440    9.5580 C   0  0  0  0  0  0  0  0  0  0  0  0
  -10.3110   -3.8520    9.9020 C   0  0  0  0  0  0  0  0  0  0  0  0
  -11.3780   -3.2700    9.2190 C   0  0  0  0  0  0  0  0  0  0  0  0
  -11.1350   -2.3690    8.1840 C   0  0  0  0  0  0  0  0  0  0  0  0
   -9.8200   -2.0410    7.8240 C   0  0  0  0  0  0  0  0  0  0  0  0
   -9.5740   -1.0930    6.7430 C   0  0  0  0  0  0  0  0  0  0  0  0
  -10.0440   -1.2870    5.4620 N   0  0  0  0  0  0  0  0  0  0  0  0
   -9.6470   -0.2460    4.7440 N   0  0  0  0  0  0  0  0  0  0  0  0
   -8.9680    0.5150    5.6070 N   0  0  0  0  0  0  0  0  0  0  0  0
   -8.8810    0.0530    6.8630 N   0  0  0  0  0  0  0  0  0  0  0  0
   -8.7520   -2.6370    8.5210 C   0  0  0  0  0  0  0  0  0  0  0  0
   -6.2010   -7.2710   11.2670 C   0  0  0  0  0  0  0  0  0  0  0  0
   -2.6239  -11.1089   10.5438 H   0  0  0  0  0  0  0  0  0  0  0  0
   -3.8684  -10.0990    9.7328 H   0  0  0  0  0  0  0  0  0  0  0  0
   -2.1494   -9.5780    9.7328 H   0  0  0  0  0  0  0  0  0  0  0  0
   -2.7700   -8.3890   11.4640 H   0  0  0  0  0  0  0  0  0  0  0  0
   -2.8385   -9.5962   13.6929 H   0  0  0  0  0  0  0  0  0  0  0  0
   -2.4916  -11.0426   12.6857 H   0  0  0  0  0  0  0  0  0  0  0  0
   -1.3523   -9.6539   12.6857 H   0  0  0  0  0  0  0  0  0  0  0  0
   -5.2136   -9.6417   11.0882 H   0  0  0  0  0  0  0  0  0  0  0  0
   -4.8360   -9.5912   12.8721 H   0  0  0  0  0  0  0  0  0  0  0  0
   -3.4084   -7.0833   13.2208 H   0  0  0  0  0  0  0  0  0  0  0  0
   -4.0736   -4.6828   13.2314 H   0  0  0  0  0  0  0  0  0  0  0  0
   -6.0816   -3.9229   11.9622 H   0  0  0  0  0  0  0  0  0  0  0  0
   -7.3750   -3.5520   10.8340 H   0  0  0  0  0  0  0  0  0  0  0  0
  -10.5098   -4.5605   10.7196 H   0  0  0  0  0  0  0  0  0  0  0  0
  -12.4120   -3.5221    9.4972 H   0  0  0  0  0  0  0  0  0  0  0  0
  -11.9793   -1.9126    7.6465 H   0  0  0  0  0  0  0  0  0  0  0  0
   -8.5440    1.3940    5.3210 H   0  0  0  0  0  0  0  0  0  0  0  0
   -7.7172   -2.3854    8.2457 H   0  0  0  0  0  0  0  0  0  0  0  0
   -6.8137   -8.0030   10.7204 H   0  0  0  0  0  0  0  0  0  0  0  0
  1  2  1  0
  2  3  1  0
  2  4  1  0
  4  5  1  0
  5  6  2  0
  6  7  1  0
  7  8  2  0
  8  9  1  0
  9 10  1  0
 10 11  2  0
 10 12  1  0
 12 13  1  0
 13 14  2  0
 14 15  1  0
 15 16  2  0
 16 17  1  0
 17 18  1  0
 18 19  1  0
 19 20  2  0
 20 21  1  0
 21 22  1  0
 17 23  2  0
  9 24  2  0
 24  5  1  0
 23 13  1  0
 22 18  2  0
  1 25  1  0
  1 26  1  0
  1 27  1  0
  2 28  1  0
  3 29  1  0
  3 30  1  0
  3 31  1  0
  4 32  1  0
  4 33  1  0
  6 34  1  0
  7 35  1  0
  8 36  1  0
 12 37  1  0
 14 38  1  0
 15 39  1  0
 16 40  1  0
 21 41  1  0
 23 42  1  0
 24 43  1  0
M  CHG  1   2   1
M  END
>  <meeko>  (8) 
{"is_sidechain": [false], "free_energy": -6.078, "intermolecular_energy": -8.057, "internal_energy": -0.43}

$$$$
