
     RDKit          3D

 33 37  0  0  0  0  0  0  0  0999 V2000
    2.2870   10.4010   -2.2430 C   0  0  0  0  0  0  0  0  0  0  0  0
    1.0550   10.8790   -2.9410 C   0  0  0  0  0  0  0  0  0  0  0  0
   -0.0490   11.5150   -2.4140 C   0  0  0  0  0  0  0  0  0  0  0  0
   -0.9080   11.7280   -3.4720 C   0  0  0  0  0  0  0  0  0  0  0  0
   -2.1590   12.3340   -3.5190 N   0  0  0  0  0  0  0  0  0  0  0  0
   -2.8630   12.9260   -2.5020 C   0  0  0  0  0  0  0  0  0  0  0  0
   -4.0310   13.6590   -2.7920 C   0  0  0  0  0  0  0  0  0  0  0  0
   -4.7040   14.2440   -1.7360 C   0  0  0  0  0  0  0  0  0  0  0  0
   -5.8710   14.9910   -1.9410 N   0  0  0  0  0  0  0  0  0  0  0  0
   -6.5560   15.5920   -0.8010 C   0  0  0  0  0  0  0  0  0  0  0  0
   -8.0800   15.5080   -0.9780 C   0  0  0  0  0  0  0  0  0  0  0  0
   -8.4750   16.1300   -2.2260 N   0  0  0  0  0  0  0  0  0  0  0  0
   -9.9400   16.1230   -2.3590 C   0  0  0  0  0  0  0  0  0  0  0  0
   -7.8480   15.4580   -3.3480 C   0  0  0  0  0  0  0  0  0  0  0  0
   -6.3120   15.4830   -3.2370 C   0  0  0  0  0  0  0  0  0  0  0  0
   -4.2430   14.0850   -0.4730 N   0  0  0  0  0  0  0  0  0  0  0  0
   -3.1210   13.3600   -0.2550 C   0  0  0  0  0  0  0  0  0  0  0  0
   -2.5520   13.1770    1.4160 S   0  0  0  0  0  0  0  0  0  0  0  0
   -1.3440   11.8890    1.3670 C   0  0  0  0  0  0  0  0  0  0  0  0
   -1.7130   10.5450    1.5610 C   0  0  0  0  0  0  0  0  0  0  0  0
   -0.7510    9.5420    1.5800 C   0  0  0  0  0  0  0  0  0  0  0  0
    0.6070    9.8570    1.4240 C   0  0  0  0  0  0  0  0  0  0  0  0
    1.5380    8.8100    1.4560 N   0  0  0  0  0  0  0  0  0  0  0  0
    2.8770    8.8770    1.1700 C   0  0  0  0  0  0  0  0  0  0  0  0
    3.4330    9.9030    0.8750 O   0  0  0  0  0  0  0  0  0  0  0  0
    3.6480    7.6030    1.2140 C   0  0  1  0  0  0  0  0  0  0  0  0
    4.6870    7.4050    0.1740 C   0  0  0  0  0  0  0  0  0  0  0  0
    5.0740    7.6620    1.5780 C   0  0  0  0  0  0  0  0  0  0  0  0
    0.9660   11.1780    1.2470 C   0  0  0  0  0  0  0  0  0  0  0  0
    0.0150   12.2060    1.2200 C   0  0  0  0  0  0  0  0  0  0  0  0
   -2.4320   12.7900   -1.2340 N   0  0  0  0  0  0  0  0  0  0  0  0
   -0.3310   11.2420   -4.5630 N   0  0  0  0  0  0  0  0  0  0  0  0
    0.8590   10.7290   -4.2420 N   0  0  0  0  0  0  0  0  0  0  0  0
  2  1  1  0
  3  2  1  0
  4  3  2  0
  5  4  1  0
  6  5  1  0
  7  6  2  0
  8  7  1  0
  9  8  1  0
 10  9  1  0
 11 10  1  0
 12 11  1  0
 13 12  1  0
 14 12  1  0
 15 14  1  0
 15  9  1  0
 16  8  2  0
 17 16  1  0
 18 17  1  0
 19 18  1  0
 20 19  2  0
 21 20  1  0
 22 21  2  0
 23 22  1  0
 24 23  1  0
 25 24  2  0
 26 24  1  6
 27 26  1  0
 28 27  1  0
 28 26  1  0
 29 22  1  0
 30 29  2  0
 30 19  1  0
 31 17  2  0
 31  6  1  0
 32  4  1  0
 33  2  2  0
 33 32  1  0
M  CHG  2  12   1  31   1
M  END
$$$$
