2xj7_ligand
     RDKit          3D

 35 36  0  0  0  0  0  0  0  0999 V2000
   -4.0540   -2.2030    4.1850 C   0  0  0  0  0  0  0  0  0  0  0  0
   -2.6710   -1.7950    3.7610 C   0  0  0  0  0  0  0  0  0  0  0  0
   -2.4160   -1.3430    2.6490 O   0  0  0  0  0  0  0  0  0  0  0  0
   -1.6950   -1.9470    4.7220 N   0  0  0  0  0  0  0  0  0  0  0  0
   -0.2780   -1.7920    4.3710 C   0  0  1  0  0  0  0  0  0  0  0  0
    0.5390   -1.0740    5.4710 C   0  0  0  0  0  0  0  0  0  0  0  0
    1.9160   -1.6770    5.7170 N   0  0  2  0  0  0  0  0  0  0  0  0
    2.8690   -0.6420    6.2810 C   0  0  0  0  0  0  0  0  0  0  0  0
    3.6220   -0.0730    5.0750 C   0  0  0  0  0  0  0  0  0  0  0  0
    3.1980   -0.9050    3.8660 C   0  0  2  0  0  0  0  0  0  0  0  0
    2.1710   -0.2230    3.1500 O   0  0  0  0  0  0  0  0  0  0  0  0
    2.6550   -2.1950    4.4920 C   0  0  2  0  0  0  0  0  0  0  0  0
    1.7780   -3.0700    3.5870 C   0  0  1  0  0  0  0  0  0  0  0  0
    2.3050   -4.4090    3.6200 O   0  0  0  0  0  0  0  0  0  0  0  0
    0.3200   -3.1570    4.0420 C   0  0  2  0  0  0  0  0  0  0  0  0
   -0.4490   -3.8190    3.0230 O   0  0  0  0  0  0  0  0  0  0  0  0
   -4.1108   -2.2198    5.2834 H   0  0  0  0  0  0  0  0  0  0  0  0
   -4.7858   -1.4825    3.7910 H   0  0  0  0  0  0  0  0  0  0  0  0
   -4.2776   -3.2054    3.7910 H   0  0  0  0  0  0  0  0  0  0  0  0
   -1.9080   -2.5660    5.5020 H   0  0  0  0  0  0  0  0  0  0  0  0
   -0.2233   -1.1445    3.4834 H   0  0  0  0  0  0  0  0  0  0  0  0
    0.6703   -0.0232    5.1733 H   0  0  0  0  0  0  0  0  0  0  0  0
   -0.0268   -1.1828    6.4081 H   0  0  0  0  0  0  0  0  0  0  0  0
    1.8130   -2.4470    6.3950 H   0  0  0  0  0  0  0  0  0  0  0  0
    2.3105    0.1541    6.7951 H   0  0  0  0  0  0  0  0  0  0  0  0
    3.5563   -1.0816    7.0188 H   0  0  0  0  0  0  0  0  0  0  0  0
    3.3531    0.9827    4.9228 H   0  0  0  0  0  0  0  0  0  0  0  0
    4.7103   -0.1198    5.2277 H   0  0  0  0  0  0  0  0  0  0  0  0
    4.0139   -1.0910    3.1520 H   0  0  0  0  0  0  0  0  0  0  0  0
    2.5630    0.5820    2.7530 H   0  0  0  0  0  0  0  0  0  0  0  0
    3.4678   -2.9018    4.7152 H   0  0  0  0  0  0  0  0  0  0  0  0
    1.7948   -2.6121    2.5870 H   0  0  0  0  0  0  0  0  0  0  0  0
    2.8990   -4.5040    2.8460 H   0  0  0  0  0  0  0  0  0  0  0  0
    0.2887   -3.7371    4.9761 H   0  0  0  0  0  0  0  0  0  0  0  0
   -0.2050   -4.7640    2.9940 H   0  0  0  0  0  0  0  0  0  0  0  0
  1  2  1  0
  2  3  2  0
  2  4  1  0
  4  5  1  0
  5  6  1  0
  6  7  1  0
  7  8  1  0
  8  9  1  0
  9 10  1  0
 10 11  1  0
 10 12  1  0
 12 13  1  0
 13 14  1  0
 13 15  1  0
 15 16  1  0
 15  5  1  0
 12  7  1  0
  1 17  1  0
  1 18  1  0
  1 19  1  0
  4 20  1  0
  5 21  1  6
  6 22  1  0
  6 23  1  0
  7 24  1  1
  8 25  1  0
  8 26  1  0
  9 27  1  0
  9 28  1  0
 10 29  1  6
 11 30  1  0
 12 31  1  1
 13 32  1  6
 14 33  1  0
 15 34  1  1
 16 35  1  0
M  CHG  1   7   1
M  END
>  <meeko>  (1) 
{"is_sidechain": [false], "free_energy": -5.782, "intermolecular_energy": -6.627, "internal_energy": -0.139}

$$$$
2xj7_ligand
     RDKit          3D

 35 36  0  0  0  0  0  0  0  0999 V2000
    5.9140   -1.0940    1.8900 C   0  0  0  0  0  0  0  0  0  0  0  0
    4.4360   -1.3510    1.9820 C   0  0  0  0  0  0  0  0  0  0  0  0
    3.6290   -0.9240    1.1630 O   0  0  0  0  0  0  0  0  0  0  0  0
    4.0420   -2.1230    3.0530 N   0  0  0  0  0  0  0  0  0  0  0  0
    2.6180   -2.2670    3.3800 C   0  0  1  0  0  0  0  0  0  0  0  0
    2.2430   -3.7020    3.8180 C   0  0  0  0  0  0  0  0  0  0  0  0
    1.2740   -3.7610    4.9920 N   0  0  2  0  0  0  0  0  0  0  0  0
    0.4790   -5.0510    4.9740 C   0  0  0  0  0  0  0  0  0  0  0  0
   -0.8290   -4.7200    4.2490 C   0  0  0  0  0  0  0  0  0  0  0  0
   -0.8230   -3.2120    4.0070 C   0  0  2  0  0  0  0  0  0  0  0  0
   -0.3830   -2.9400    2.6790 O   0  0  0  0  0  0  0  0  0  0  0  0
    0.1940   -2.6900    5.0300 C   0  0  2  0  0  0  0  0  0  0  0  0
    0.7390   -1.2780    4.7830 C   0  0  1  0  0  0  0  0  0  0  0  0
    0.5700   -0.5190    5.9940 O   0  0  0  0  0  0  0  0  0  0  0  0
    2.2320   -1.2460    4.4460 C   0  0  2  0  0  0  0  0  0  0  0  0
    2.5890    0.0850    4.0320 O   0  0  0  0  0  0  0  0  0  0  0  0
    6.3371   -1.0204    2.9027 H   0  0  0  0  0  0  0  0  0  0  0  0
    6.3972   -1.9216    1.3500 H   0  0  0  0  0  0  0  0  0  0  0  0
    6.0894   -0.1519    1.3500 H   0  0  0  0  0  0  0  0  0  0  0  0
    4.6990   -2.2100    3.8270 H   0  0  0  0  0  0  0  0  0  0  0  0
    2.0442   -2.0727    2.4618 H   0  0  0  0  0  0  0  0  0  0  0  0
    1.7800   -4.2145    2.9619 H   0  0  0  0  0  0  0  0  0  0  0  0
    3.1735   -4.1855    4.1503 H   0  0  0  0  0  0  0  0  0  0  0  0
    1.8220   -3.7140    5.8630 H   0  0  0  0  0  0  0  0  0  0  0  0
    1.0303   -5.8340    4.4327 H   0  0  0  0  0  0  0  0  0  0  0  0
    0.2959   -5.4299    5.9903 H   0  0  0  0  0  0  0  0  0  0  0  0
   -0.8788   -5.2581    3.2909 H   0  0  0  0  0  0  0  0  0  0  0  0
   -1.7017   -5.0229    4.8462 H   0  0  0  0  0  0  0  0  0  0  0  0
   -1.8131   -2.7452    4.1160 H   0  0  0  0  0  0  0  0  0  0  0  0
   -1.1490   -3.0500    2.0790 H   0  0  0  0  0  0  0  0  0  0  0  0
   -0.2713   -2.5472    6.0165 H   0  0  0  0  0  0  0  0  0  0  0  0
    0.1872   -0.8690    3.9238 H   0  0  0  0  0  0  0  0  0  0  0  0
    0.8600   -1.0920    6.7350 H   0  0  0  0  0  0  0  0  0  0  0  0
    2.7921   -1.5235    5.3512 H   0  0  0  0  0  0  0  0  0  0  0  0
    2.1100    0.7350    4.5800 H   0  0  0  0  0  0  0  0  0  0  0  0
  1  2  1  0
  2  3  2  0
  2  4  1  0
  4  5  1  0
  5  6  1  0
  6  7  1  0
  7  8  1  0
  8  9  1  0
  9 10  1  0
 10 11  1  0
 10 12  1  0
 12 13  1  0
 13 14  1  0
 13 15  1  0
 15 16  1  0
 15  5  1  0
 12  7  1  0
  1 17  1  0
  1 18  1  0
  1 19  1  0
  4 20  1  0
  5 21  1  6
  6 22  1  0
  6 23  1  0
  7 24  1  1
  8 25  1  0
  8 26  1  0
  9 27  1  0
  9 28  1  0
 10 29  1  1
 11 30  1  0
 12 31  1  1
 13 32  1  6
 14 33  1  0
 15 34  1  1
 16 35  1  0
M  CHG  1   7   1
M  END
>  <meeko>  (2) 
{"is_sidechain": [false], "free_energy": -5.763, "intermolecular_energy": -6.605, "internal_energy": -0.14}

$$$$
2xj7_ligand
     RDKit          3D

 35 36  0  0  0  0  0  0  0  0999 V2000
   -0.1870   -5.2430    4.8010 C   0  0  0  0  0  0  0  0  0  0  0  0
    1.0170   -4.5510    4.2260 C   0  0  0  0  0  0  0  0  0  0  0  0
    2.0210   -5.1500    3.8530 O   0  0  0  0  0  0  0  0  0  0  0  0
    0.9130   -3.1810    4.1270 N   0  0  0  0  0  0  0  0  0  0  0  0
    2.0880   -2.3690    3.7890 C   0  0  1  0  0  0  0  0  0  0  0  0
    1.9580   -1.6640    2.4190 C   0  0  0  0  0  0  0  0  0  0  0  0
    2.4710   -0.2290    2.4060 N   0  0  2  0  0  0  0  0  0  0  0  0
    2.9040    0.1800    1.0130 C   0  0  0  0  0  0  0  0  0  0  0  0
    4.4110   -0.0840    0.9530 C   0  0  0  0  0  0  0  0  0  0  0  0
    4.8380   -0.4890    2.3630 C   0  0  2  0  0  0  0  0  0  0  0  0
    4.9090   -1.9100    2.4540 O   0  0  0  0  0  0  0  0  0  0  0  0
    3.7080    0.0520    3.2480 C   0  0  2  0  0  0  0  0  0  0  0  0
    3.6170   -0.5320    4.6630 C   0  0  1  0  0  0  0  0  0  0  0  0
    3.5760    0.5640    5.5940 O   0  0  0  0  0  0  0  0  0  0  0  0
    2.3550   -1.3630    4.9050 C   0  0  2  0  0  0  0  0  0  0  0  0
    2.4690   -2.0290    6.1750 O   0  0  0  0  0  0  0  0  0  0  0  0
   -0.1367   -5.2141    5.8995 H   0  0  0  0  0  0  0  0  0  0  0  0
   -1.1003   -4.7320    4.4622 H   0  0  0  0  0  0  0  0  0  0  0  0
   -0.2052   -6.2894    4.4622 H   0  0  0  0  0  0  0  0  0  0  0  0
    0.1940   -2.7300    4.6920 H   0  0  0  0  0  0  0  0  0  0  0  0
    2.9474   -3.0495    3.6975 H   0  0  0  0  0  0  0  0  0  0  0  0
    2.5295   -2.2418    1.6777 H   0  0  0  0  0  0  0  0  0  0  0  0
    0.8838   -1.6188    2.1864 H   0  0  0  0  0  0  0  0  0  0  0  0
    1.7080    0.3880    2.7190 H   0  0  0  0  0  0  0  0  0  0  0  0
    2.3789   -0.4213    0.2562 H   0  0  0  0  0  0  0  0  0  0  0  0
    2.6682    1.2347    0.8080 H   0  0  0  0  0  0  0  0  0  0  0  0
    4.6264   -0.8960    0.2429 H   0  0  0  0  0  0  0  0  0  0  0  0
    4.9575    0.8081    0.6132 H   0  0  0  0  0  0  0  0  0  0  0  0
    5.8262   -0.1015    2.6514 H   0  0  0  0  0  0  0  0  0  0  0  0
    4.9390   -2.1510    3.4020 H   0  0  0  0  0  0  0  0  0  0  0  0
    3.8643    1.1141    3.4878 H   0  0  0  0  0  0  0  0  0  0  0  0
    4.4887   -1.1904    4.7920 H   0  0  0  0  0  0  0  0  0  0  0  0
    3.3480    0.1900    6.4710 H   0  0  0  0  0  0  0  0  0  0  0  0
    1.4938   -0.6788    4.9128 H   0  0  0  0  0  0  0  0  0  0  0  0
    2.9280   -1.4440    6.8080 H   0  0  0  0  0  0  0  0  0  0  0  0
  1  2  1  0
  2  3  2  0
  2  4  1  0
  4  5  1  0
  5  6  1  0
  6  7  1  0
  7  8  1  0
  8  9  1  0
  9 10  1  0
 10 11  1  0
 10 12  1  0
 12 13  1  0
 13 14  1  0
 13 15  1  0
 15 16  1  0
 15  5  1  0
 12  7  1  0
  1 17  1  0
  1 18  1  0
  1 19  1  0
  4 20  1  0
  5 21  1  6
  6 22  1  0
  6 23  1  0
  7 24  1  1
  8 25  1  0
  8 26  1  0
  9 27  1  0
  9 28  1  0
 10 29  1  1
 11 30  1  0
 12 31  1  1
 13 32  1  1
 14 33  1  0
 15 34  1  1
 16 35  1  0
M  CHG  1   7   1
M  END
>  <meeko>  (3) 
{"is_sidechain": [false], "free_energy": -5.468, "intermolecular_energy": -6.201, "internal_energy": -0.205}

$$$$
2xj7_ligand
     RDKit          3D

 35 36  0  0  0  0  0  0  0  0999 V2000
    4.4000   -0.6890    3.7090 C   0  0  0  0  0  0  0  0  0  0  0  0
    2.9950   -0.9720    4.1640 C   0  0  0  0  0  0  0  0  0  0  0  0
    2.5900   -0.7120    5.2920 O   0  0  0  0  0  0  0  0  0  0  0  0
    2.1750   -1.5380    3.2120 N   0  0  0  0  0  0  0  0  0  0  0  0
    0.8550   -2.0600    3.5850 C   0  0  1  0  0  0  0  0  0  0  0  0
   -0.2400   -1.7270    2.5460 C   0  0  0  0  0  0  0  0  0  0  0  0
   -1.2070   -2.8730    2.2720 N   0  0  2  0  0  0  0  0  0  0  0  0
   -2.5450   -2.3500    1.7890 C   0  0  0  0  0  0  0  0  0  0  0  0
   -3.4250   -2.2520    3.0390 C   0  0  0  0  0  0  0  0  0  0  0  0
   -2.6250   -2.8700    4.1840 C   0  0  2  0  0  0  0  0  0  0  0  0
   -1.9880   -1.8400    4.9350 O   0  0  0  0  0  0  0  0  0  0  0  0
   -1.5840   -3.7370    3.4660 C   0  0  2  0  0  0  0  0  0  0  0  0
   -0.3720   -4.1720    4.3000 C   0  0  1  0  0  0  0  0  0  0  0  0
   -0.2400   -5.6000    4.1800 O   0  0  0  0  0  0  0  0  0  0  0  0
    0.9500   -3.5650    3.8260 C   0  0  2  0  0  0  0  0  0  0  0  0
    1.9740   -3.8640    4.7900 O   0  0  0  0  0  0  0  0  0  0  0  0
    5.0502   -0.5580    4.5865 H   0  0  0  0  0  0  0  0  0  0  0  0
    4.7661   -1.5314    3.1038 H   0  0  0  0  0  0  0  0  0  0  0  0
    4.4114    0.2295    3.1038 H   0  0  0  0  0  0  0  0  0  0  0  0
    2.6290   -1.9740    2.4110 H   0  0  0  0  0  0  0  0  0  0  0  0
    0.5486   -1.5586    4.5149 H   0  0  0  0  0  0  0  0  0  0  0  0
   -0.8185   -0.8681    2.9170 H   0  0  0  0  0  0  0  0  0  0  0  0
    0.2762   -1.5141    1.5983 H   0  0  0  0  0  0  0  0  0  0  0  0
   -0.7950   -3.4730    1.5420 H   0  0  0  0  0  0  0  0  0  0  0  0
   -2.4254   -1.3598    1.3251 H   0  0  0  0  0  0  0  0  0  0  0  0
   -2.9895   -3.0097    1.0292 H   0  0  0  0  0  0  0  0  0  0  0  0
   -3.6539   -1.1992    3.2606 H   0  0  0  0  0  0  0  0  0  0  0  0
   -4.3809   -2.7766    2.8939 H   0  0  0  0  0  0  0  0  0  0  0  0
   -3.2412   -3.4450    4.8909 H   0  0  0  0  0  0  0  0  0  0  0  0
   -2.6550   -1.1500    5.1300 H   0  0  0  0  0  0  0  0  0  0  0  0
   -1.9995   -4.7210    3.2031 H   0  0  0  0  0  0  0  0  0  0  0  0
   -0.5542   -3.8292    5.3292 H   0  0  0  0  0  0  0  0  0  0  0  0
   -0.4230   -5.9820    5.0640 H   0  0  0  0  0  0  0  0  0  0  0  0
    1.2029   -4.0148    2.8545 H   0  0  0  0  0  0  0  0  0  0  0  0
    1.7740   -3.4070    5.6290 H   0  0  0  0  0  0  0  0  0  0  0  0
  1  2  1  0
  2  3  2  0
  2  4  1  0
  4  5  1  0
  5  6  1  0
  6  7  1  0
  7  8  1  0
  8  9  1  0
  9 10  1  0
 10 11  1  0
 10 12  1  0
 12 13  1  0
 13 14  1  0
 13 15  1  0
 15 16  1  0
 15  5  1  0
 12  7  1  0
  1 17  1  0
  1 18  1  0
  1 19  1  0
  4 20  1  0
  5 21  1  1
  6 22  1  0
  6 23  1  0
  7 24  1  6
  8 25  1  0
  8 26  1  0
  9 27  1  0
  9 28  1  0
 10 29  1  1
 11 30  1  0
 12 31  1  6
 13 32  1  1
 14 33  1  0
 15 34  1  6
 16 35  1  0
M  CHG  1   7   1
M  END
>  <meeko>  (4) 
{"is_sidechain": [false], "free_energy": -5.459, "intermolecular_energy": -6.259, "internal_energy": -0.137}

$$$$
2xj7_ligand
     RDKit          3D

 35 36  0  0  0  0  0  0  0  0999 V2000
    3.2710   -1.9980    6.2860 C   0  0  0  0  0  0  0  0  0  0  0  0
    1.8750   -2.4290    5.9340 C   0  0  0  0  0  0  0  0  0  0  0  0
    1.4380   -3.5500    6.1740 O   0  0  0  0  0  0  0  0  0  0  0  0
    1.0980   -1.4640    5.3320 N   0  0  0  0  0  0  0  0  0  0  0  0
   -0.2010   -1.8150    4.7460 C   0  0  1  0  0  0  0  0  0  0  0  0
   -1.2390   -0.6740    4.8550 C   0  0  0  0  0  0  0  0  0  0  0  0
   -2.0910   -0.4860    3.6060 N   0  0  2  0  0  0  0  0  0  0  0  0
   -3.4260    0.1430    3.9500 C   0  0  0  0  0  0  0  0  0  0  0  0
   -4.4010   -1.0250    4.1210 C   0  0  0  0  0  0  0  0  0  0  0  0
   -3.6430   -2.2880    3.7170 C   0  0  2  0  0  0  0  0  0  0  0  0
   -3.1440   -2.9420    4.8810 O   0  0  0  0  0  0  0  0  0  0  0  0
   -2.4870   -1.7530    2.8620 C   0  0  2  0  0  0  0  0  0  0  0  0
   -1.3100   -2.7110    2.6380 C   0  0  1  0  0  0  0  0  0  0  0  0
   -1.0590   -2.7800    1.2220 O   0  0  0  0  0  0  0  0  0  0  0  0
   -0.0080   -2.2490    3.2950 C   0  0  2  0  0  0  0  0  0  0  0  0
    0.9630   -3.3060    3.2040 O   0  0  0  0  0  0  0  0  0  0  0  0
    3.3795   -1.9645    7.3801 H   0  0  0  0  0  0  0  0  0  0  0  0
    3.9926   -2.7152    5.8678 H   0  0  0  0  0  0  0  0  0  0  0  0
    3.4627   -0.9988    5.8678 H   0  0  0  0  0  0  0  0  0  0  0  0
    1.5860   -0.6700    4.9190 H   0  0  0  0  0  0  0  0  0  0  0  0
   -0.6126   -2.6531    5.3275 H   0  0  0  0  0  0  0  0  0  0  0  0
   -1.9082   -0.8955    5.6994 H   0  0  0  0  0  0  0  0  0  0  0  0
   -0.6719    0.2581    4.9951 H   0  0  0  0  0  0  0  0  0  0  0  0
   -1.5810    0.1350    2.9600 H   0  0  0  0  0  0  0  0  0  0  0  0
   -3.3495    0.7190    4.8840 H   0  0  0  0  0  0  0  0  0  0  0  0
   -3.7604    0.8405    3.1679 H   0  0  0  0  0  0  0  0  0  0  0  0
   -4.7272   -1.0969    5.1690 H   0  0  0  0  0  0  0  0  0  0  0  0
   -5.2994   -0.8860    3.5017 H   0  0  0  0  0  0  0  0  0  0  0  0
   -4.2641   -3.0210    3.1813 H   0  0  0  0  0  0  0  0  0  0  0  0
   -2.4810   -3.6040    4.5960 H   0  0  0  0  0  0  0  0  0  0  0  0
   -2.8038   -1.5904    1.8212 H   0  0  0  0  0  0  0  0  0  0  0  0
   -1.5933   -3.6750    3.0857 H   0  0  0  0  0  0  0  0  0  0  0  0
   -0.0900   -2.8770    1.1060 H   0  0  0  0  0  0  0  0  0  0  0  0
    0.3491   -1.3600    2.7545 H   0  0  0  0  0  0  0  0  0  0  0  0
    1.2800   -3.5340    4.0990 H   0  0  0  0  0  0  0  0  0  0  0  0
  1  2  1  0
  2  3  2  0
  2  4  1  0
  4  5  1  0
  5  6  1  0
  6  7  1  0
  7  8  1  0
  8  9  1  0
  9 10  1  0
 10 11  1  0
 10 12  1  0
 12 13  1  0
 13 14  1  0
 13 15  1  0
 15 16  1  0
 15  5  1  0
 12  7  1  0
  1 17  1  0
  1 18  1  0
  1 19  1  0
  4 20  1  0
  5 21  1  1
  6 22  1  0
  6 23  1  0
  7 24  1  6
  8 25  1  0
  8 26  1  0
  9 27  1  0
  9 28  1  0
 10 29  1  6
 11 30  1  0
 12 31  1  6
 13 32  1  1
 14 33  1  0
 15 34  1  6
 16 35  1  0
M  CHG  1   7   1
M  END
>  <meeko>  (5) 
{"is_sidechain": [false], "free_energy": -5.254, "intermolecular_energy": -6.073, "internal_energy": -0.089}

$$$$
2xj7_ligand
     RDKit          3D

 35 36  0  0  0  0  0  0  0  0999 V2000
    6.1060   -0.0930   -0.6140 C   0  0  0  0  0  0  0  0  0  0  0  0
    5.5560   -0.7800    0.6050 C   0  0  0  0  0  0  0  0  0  0  0  0
    6.0110   -1.8300    1.0460 O   0  0  0  0  0  0  0  0  0  0  0  0
    4.5010   -0.1360    1.2130 N   0  0  0  0  0  0  0  0  0  0  0  0
    3.7370   -0.8030    2.2740 C   0  0  1  0  0  0  0  0  0  0  0  0
    4.1100   -0.3020    3.6890 C   0  0  0  0  0  0  0  0  0  0  0  0
    2.9160   -0.1150    4.6180 N   0  0  2  0  0  0  0  0  0  0  0  0
    3.3310   -0.2480    6.0690 C   0  0  0  0  0  0  0  0  0  0  0  0
    3.0610   -1.7090    6.4440 C   0  0  0  0  0  0  0  0  0  0  0  0
    2.3500   -2.3400    5.2480 C   0  0  2  0  0  0  0  0  0  0  0  0
    3.2930   -3.0470    4.4470 O   0  0  0  0  0  0  0  0  0  0  0  0
    1.7920   -1.1320    4.4850 C   0  0  2  0  0  0  0  0  0  0  0  0
    1.3770   -1.3820    3.0300 C   0  0  1  0  0  0  0  0  0  0  0  0
    0.0320   -0.8980    2.8630 O   0  0  0  0  0  0  0  0  0  0  0  0
    2.2430   -0.6420    2.0080 C   0  0  2  0  0  0  0  0  0  0  0  0
    1.9080   -1.1060    0.6880 O   0  0  0  0  0  0  0  0  0  0  0  0
    6.7656    0.7310   -0.3042 H   0  0  0  0  0  0  0  0  0  0  0  0
    6.6785   -0.8150   -1.2148 H   0  0  0  0  0  0  0  0  0  0  0  0
    5.2762    0.3077   -1.2148 H   0  0  0  0  0  0  0  0  0  0  0  0
    4.0030    0.5600    0.6600 H   0  0  0  0  0  0  0  0  0  0  0  0
    3.9996   -1.8710    2.2527 H   0  0  0  0  0  0  0  0  0  0  0  0
    4.7919   -1.0342    4.1460 H   0  0  0  0  0  0  0  0  0  0  0  0
    4.5721    0.6883    3.5632 H   0  0  0  0  0  0  0  0  0  0  0  0
    2.5320    0.8290    4.4610 H   0  0  0  0  0  0  0  0  0  0  0  0
    4.3993   -0.0130    6.1857 H   0  0  0  0  0  0  0  0  0  0  0  0
    2.7756    0.4470    6.7159 H   0  0  0  0  0  0  0  0  0  0  0  0
    4.0084   -2.2318    6.6419 H   0  0  0  0  0  0  0  0  0  0  0  0
    2.4469   -1.7790    7.3539 H   0  0  0  0  0  0  0  0  0  0  0  0
    1.5689   -3.0609    5.5311 H   0  0  0  0  0  0  0  0  0  0  0  0
    3.7960   -3.6490    5.0330 H   0  0  0  0  0  0  0  0  0  0  0  0
    0.8296   -0.8055    4.9060 H   0  0  0  0  0  0  0  0  0  0  0  0
    1.4847   -2.4616    2.8488 H   0  0  0  0  0  0  0  0  0  0  0  0
   -0.2860   -0.6200    3.7470 H   0  0  0  0  0  0  0  0  0  0  0  0
    2.0303    0.4336    2.0969 H   0  0  0  0  0  0  0  0  0  0  0  0
    2.5950   -0.8170    0.0580 H   0  0  0  0  0  0  0  0  0  0  0  0
  1  2  1  0
  2  3  2  0
  2  4  1  0
  4  5  1  0
  5  6  1  0
  6  7  1  0
  7  8  1  0
  8  9  1  0
  9 10  1  0
 10 11  1  0
 10 12  1  0
 12 13  1  0
 13 14  1  0
 13 15  1  0
 15 16  1  0
 15  5  1  0
 12  7  1  0
  1 17  1  0
  1 18  1  0
  1 19  1  0
  4 20  1  0
  5 21  1  1
  6 22  1  0
  6 23  1  0
  7 24  1  1
  8 25  1  0
  8 26  1  0
  9 27  1  0
  9 28  1  0
 10 29  1  1
 11 30  1  0
 12 31  1  1
 13 32  1  6
 14 33  1  0
 15 34  1  6
 16 35  1  0
M  CHG  1   7   1
M  END
>  <meeko>  (6) 
{"is_sidechain": [false], "free_energy": -5.17, "intermolecular_energy": -5.866, "internal_energy": -0.199}

$$$$
2xj7_ligand
     RDKit          3D

 35 36  0  0  0  0  0  0  0  0999 V2000
   -2.9840   -2.5760    0.4710 C   0  0  0  0  0  0  0  0  0  0  0  0
   -1.6630   -2.4940    1.1840 C   0  0  0  0  0  0  0  0  0  0  0  0
   -0.6090   -2.2250    0.6160 O   0  0  0  0  0  0  0  0  0  0  0  0
   -1.7140   -2.7290    2.5410 N   0  0  0  0  0  0  0  0  0  0  0  0
   -0.4770   -2.8930    3.3130 C   0  0  1  0  0  0  0  0  0  0  0  0
   -0.0270   -1.5890    4.0120 C   0  0  0  0  0  0  0  0  0  0  0  0
    0.4940   -1.7910    5.4300 N   0  0  2  0  0  0  0  0  0  0  0  0
    1.4610   -0.6890    5.8140 C   0  0  0  0  0  0  0  0  0  0  0  0
    2.8570   -1.2370    5.5040 C   0  0  0  0  0  0  0  0  0  0  0  0
    2.6700   -2.6970    5.0970 C   0  0  2  0  0  0  0  0  0  0  0  0
    2.6550   -2.8020    3.6760 O   0  0  0  0  0  0  0  0  0  0  0  0
    1.2980   -3.0580    5.6790 C   0  0  2  0  0  0  0  0  0  0  0  0
    0.6290   -4.3160    5.1100 C   0  0  1  0  0  0  0  0  0  0  0  0
    0.2540   -5.1580    6.2150 O   0  0  0  0  0  0  0  0  0  0  0  0
   -0.6490   -4.0280    4.3190 C   0  0  2  0  0  0  0  0  0  0  0  0
   -1.0730   -5.2340    3.6610 O   0  0  0  0  0  0  0  0  0  0  0  0
   -3.7971   -2.6265    1.2101 H   0  0  0  0  0  0  0  0  0  0  0  0
   -3.1164   -1.6843   -0.1594 H   0  0  0  0  0  0  0  0  0  0  0  0
   -3.0051   -3.4772   -0.1594 H   0  0  0  0  0  0  0  0  0  0  0  0
   -2.5420   -3.2060    2.8960 H   0  0  0  0  0  0  0  0  0  0  0  0
    0.3262   -3.1484    2.6062 H   0  0  0  0  0  0  0  0  0  0  0  0
    0.7741   -1.1337    3.4112 H   0  0  0  0  0  0  0  0  0  0  0  0
   -0.9170   -0.9472    4.0895 H   0  0  0  0  0  0  0  0  0  0  0  0
   -0.3120   -1.7740    6.0730 H   0  0  0  0  0  0  0  0  0  0  0  0
    1.2645    0.2172    5.2223 H   0  0  0  0  0  0  0  0  0  0  0  0
    1.3598   -0.4106    6.8734 H   0  0  0  0  0  0  0  0  0  0  0  0
    3.3140   -0.6686    4.6805 H   0  0  0  0  0  0  0  0  0  0  0  0
    3.5211   -1.1495    6.3765 H   0  0  0  0  0  0  0  0  0  0  0  0
    3.4714   -3.3593    5.4565 H   0  0  0  0  0  0  0  0  0  0  0  0
    3.3340   -2.1920    3.3210 H   0  0  0  0  0  0  0  0  0  0  0  0
    1.3789   -3.3457    6.7376 H   0  0  0  0  0  0  0  0  0  0  0  0
    1.3543   -4.7811    4.4262 H   0  0  0  0  0  0  0  0  0  0  0  0
   -0.2190   -4.5920    6.8600 H   0  0  0  0  0  0  0  0  0  0  0  0
   -1.4206   -3.6931    5.0279 H   0  0  0  0  0  0  0  0  0  0  0  0
   -0.7840   -6.0080    4.1820 H   0  0  0  0  0  0  0  0  0  0  0  0
  1  2  1  0
  2  3  2  0
  2  4  1  0
  4  5  1  0
  5  6  1  0
  6  7  1  0
  7  8  1  0
  8  9  1  0
  9 10  1  0
 10 11  1  0
 10 12  1  0
 12 13  1  0
 13 14  1  0
 13 15  1  0
 15 16  1  0
 15  5  1  0
 12  7  1  0
  1 17  1  0
  1 18  1  0
  1 19  1  0
  4 20  1  0
  5 21  1  6
  6 22  1  0
  6 23  1  0
  7 24  1  1
  8 25  1  0
  8 26  1  0
  9 27  1  0
  9 28  1  0
 10 29  1  1
 11 30  1  0
 12 31  1  1
 13 32  1  6
 14 33  1  0
 15 34  1  1
 16 35  1  0
M  CHG  1   7   1
M  END
>  <meeko>  (7) 
{"is_sidechain": [false], "free_energy": -5.169, "intermolecular_energy": -5.881, "internal_energy": -0.182}

$$$$
2xj7_ligand
     RDKit          3D

 35 36  0  0  0  0  0  0  0  0999 V2000
    3.2060    1.7750    0.9840 C   0  0  0  0  0  0  0  0  0  0  0  0
    2.4340    0.7750    1.8000 C   0  0  0  0  0  0  0  0  0  0  0  0
    1.2340    0.5720    1.6520 O   0  0  0  0  0  0  0  0  0  0  0  0
    3.1770    0.0790    2.7290 N   0  0  0  0  0  0  0  0  0  0  0  0
    2.5130   -0.7630    3.7300 C   0  0  1  0  0  0  0  0  0  0  0  0
    2.2060   -2.1870    3.2120 C   0  0  0  0  0  0  0  0  0  0  0  0
    2.4710   -3.2900    4.2290 N   0  0  2  0  0  0  0  0  0  0  0  0
    1.6110   -4.5060    3.9470 C   0  0  0  0  0  0  0  0  0  0  0  0
    0.3700   -4.3480    4.8300 C   0  0  0  0  0  0  0  0  0  0  0  0
    0.6180   -3.1290    5.7160 C   0  0  2  0  0  0  0  0  0  0  0  0
   -0.0230   -1.9870    5.1520 O   0  0  0  0  0  0  0  0  0  0  0  0
    2.1420   -2.9640    5.6790 C   0  0  2  0  0  0  0  0  0  0  0  0
    2.6890   -1.6030    6.1260 C   0  0  1  0  0  0  0  0  0  0  0  0
    3.6980   -1.8360    7.1260 O   0  0  0  0  0  0  0  0  0  0  0  0
    3.3560   -0.8080    5.0020 C   0  0  2  0  0  0  0  0  0  0  0  0
    3.6400    0.5210    5.4730 O   0  0  0  0  0  0  0  0  0  0  0  0
    3.7381    2.4642    1.6562 H   0  0  0  0  0  0  0  0  0  0  0  0
    3.9332    1.2473    0.3495 H   0  0  0  0  0  0  0  0  0  0  0  0
    2.5113    2.3449    0.3495 H   0  0  0  0  0  0  0  0  0  0  0  0
    4.0790    0.4760    2.9900 H   0  0  0  0  0  0  0  0  0  0  0  0
    1.5370   -0.3072    3.9530 H   0  0  0  0  0  0  0  0  0  0  0  0
    1.1448   -2.2290    2.9256 H   0  0  0  0  0  0  0  0  0  0  0  0
    2.8827   -2.3685    2.3640 H   0  0  0  0  0  0  0  0  0  0  0  0
    3.4640   -3.5560    4.1630 H   0  0  0  0  0  0  0  0  0  0  0  0
    1.3252   -4.5360    2.8852 H   0  0  0  0  0  0  0  0  0  0  0  0
    2.1471   -5.4420    4.1629 H   0  0  0  0  0  0  0  0  0  0  0  0
   -0.5220   -4.1888    4.2063 H   0  0  0  0  0  0  0  0  0  0  0  0
    0.1961   -5.2499    5.4353 H   0  0  0  0  0  0  0  0  0  0  0  0
    0.2275   -3.2418    6.7381 H   0  0  0  0  0  0  0  0  0  0  0  0
    0.6580   -1.4540    4.6930 H   0  0  0  0  0  0  0  0  0  0  0  0
    2.6294   -3.6189    6.4163 H   0  0  0  0  0  0  0  0  0  0  0  0
    1.8305   -1.0201    6.4909 H   0  0  0  0  0  0  0  0  0  0  0  0
    3.5510   -1.1820    7.8410 H   0  0  0  0  0  0  0  0  0  0  0  0
    4.2907   -1.3208    4.7313 H   0  0  0  0  0  0  0  0  0  0  0  0
    3.3600    0.6020    6.4050 H   0  0  0  0  0  0  0  0  0  0  0  0
  1  2  1  0
  2  3  2  0
  2  4  1  0
  4  5  1  0
  5  6  1  0
  6  7  1  0
  7  8  1  0
  8  9  1  0
  9 10  1  0
 10 11  1  0
 10 12  1  0
 12 13  1  0
 13 14  1  0
 13 15  1  0
 15 16  1  0
 15  5  1  0
 12  7  1  0
  1 17  1  0
  1 18  1  0
  1 19  1  0
  4 20  1  0
  5 21  1  1
  6 22  1  0
  6 23  1  0
  7 24  1  1
  8 25  1  0
  8 26  1  0
  9 27  1  0
  9 28  1  0
 10 29  1  1
 11 30  1  0
 12 31  1  1
 13 32  1  1
 14 33  1  0
 15 34  1  6
 16 35  1  0
M  CHG  1   7   1
M  END
>  <meeko>  (8) 
{"is_sidechain": [false], "free_energy": -5.151, "intermolecular_energy": -5.941, "internal_energy": -0.101}

$$$$
2xj7_ligand
     RDKit          3D

 35 36  0  0  0  0  0  0  0  0999 V2000
   -5.3370   -1.0660    3.8240 C   0  0  0  0  0  0  0  0  0  0  0  0
   -3.9180   -0.7410    4.1980 C   0  0  0  0  0  0  0  0  0  0  0  0
   -3.5490    0.3850    4.5160 O   0  0  0  0  0  0  0  0  0  0  0  0
   -3.0480   -1.8090    4.1770 N   0  0  0  0  0  0  0  0  0  0  0  0
   -1.6020   -1.5910    4.3080 C   0  0  1  0  0  0  0  0  0  0  0  0
   -0.8990   -2.6970    5.1280 C   0  0  0  0  0  0  0  0  0  0  0  0
    0.4450   -3.1350    4.5590 N   0  0  2  0  0  0  0  0  0  0  0  0
    1.3380   -3.6970    5.6470 C   0  0  0  0  0  0  0  0  0  0  0  0
    2.2110   -2.5260    6.1100 C   0  0  0  0  0  0  0  0  0  0  0  0
    1.9100   -1.3610    5.1700 C   0  0  2  0  0  0  0  0  0  0  0  0
    0.9620   -0.4860    5.7770 O   0  0  0  0  0  0  0  0  0  0  0  0
    1.3030   -2.0420    3.9380 C   0  0  2  0  0  0  0  0  0  0  0  0
    0.5190   -1.1370    2.9780 C   0  0  1  0  0  0  0  0  0  0  0  0
    1.0360   -1.3440    1.6510 O   0  0  0  0  0  0  0  0  0  0  0  0
   -0.9780   -1.4480    2.9230 C   0  0  2  0  0  0  0  0  0  0  0  0
   -1.6420   -0.4210    2.1670 O   0  0  0  0  0  0  0  0  0  0  0  0
   -5.9347   -1.2029    4.7372 H   0  0  0  0  0  0  0  0  0  0  0  0
   -5.7579   -0.2410    3.2305 H   0  0  0  0  0  0  0  0  0  0  0  0
   -5.3569   -1.9920    3.2305 H   0  0  0  0  0  0  0  0  0  0  0  0
   -3.3400   -2.6320    3.6530 H   0  0  0  0  0  0  0  0  0  0  0  0
   -1.4553   -0.6585    4.8728 H   0  0  0  0  0  0  0  0  0  0  0  0
   -0.7356   -2.3194    6.1482 H   0  0  0  0  0  0  0  0  0  0  0  0
   -1.5569   -3.5782    5.1011 H   0  0  0  0  0  0  0  0  0  0  0  0
    0.2710   -3.8660    3.8530 H   0  0  0  0  0  0  0  0  0  0  0  0
    0.7321   -4.0779    6.4823 H   0  0  0  0  0  0  0  0  0  0  0  0
    1.9457   -4.5376    5.2807 H   0  0  0  0  0  0  0  0  0  0  0  0
    1.9614   -2.2525    7.1458 H   0  0  0  0  0  0  0  0  0  0  0  0
    3.2781   -2.7916    6.0844 H   0  0  0  0  0  0  0  0  0  0  0  0
    2.7941   -0.7535    4.9267 H   0  0  0  0  0  0  0  0  0  0  0  0
    0.3900   -1.0210    6.3650 H   0  0  0  0  0  0  0  0  0  0  0  0
    2.0882   -2.4074    3.2598 H   0  0  0  0  0  0  0  0  0  0  0  0
    0.6382   -0.1065    3.3438 H   0  0  0  0  0  0  0  0  0  0  0  0
    0.2790   -1.2690    1.0330 H   0  0  0  0  0  0  0  0  0  0  0  0
   -1.1053   -2.4224    2.4288 H   0  0  0  0  0  0  0  0  0  0  0  0
   -2.5360   -0.2770    2.5310 H   0  0  0  0  0  0  0  0  0  0  0  0
  1  2  1  0
  2  3  2  0
  2  4  1  0
  4  5  1  0
  5  6  1  0
  6  7  1  0
  7  8  1  0
  8  9  1  0
  9 10  1  0
 10 11  1  0
 10 12  1  0
 12 13  1  0
 13 14  1  0
 13 15  1  0
 15 16  1  0
 15  5  1  0
 12  7  1  0
  1 17  1  0
  1 18  1  0
  1 19  1  0
  4 20  1  0
  5 21  1  1
  6 22  1  0
  6 23  1  0
  7 24  1  6
  8 25  1  0
  8 26  1  0
  9 27  1  0
  9 28  1  0
 10 29  1  6
 11 30  1  0
 12 31  1  6
 13 32  1  1
 14 33  1  0
 15 34  1  6
 16 35  1  0
M  CHG  1   7   1
M  END
>  <meeko>  (9) 
{"is_sidechain": [false], "free_energy": -5.129, "intermolecular_energy": -5.883, "internal_energy": -0.134}

$$$$
