
     RDKit          3D

 25 26  0  0  0  0  0  0  0  0999 V2000
  -12.3260  -15.4690   19.9450 C   0  0  0  0  0  0  0  0  0  0  0  0
  -12.0360  -16.8530   19.4000 C   0  0  2  0  0  0  0  0  0  0  0  0
  -13.3120  -17.6440   19.1780 C   0  0  0  0  0  0  0  0  0  0  0  0
  -12.9990  -19.0450   18.6790 C   0  0  2  0  0  0  0  0  0  0  0  0
  -14.2560  -19.8740   18.4080 C   0  0  0  0  0  0  0  0  0  0  0  0
  -12.1390  -19.7340   19.7510 C   0  0  0  0  0  0  0  0  0  0  0  0
  -10.9010  -18.9840   19.9380 N   0  0  0  0  0  0  0  0  0  0  0  0
   -9.6850  -19.5630   19.6660 C   0  0  0  0  0  0  0  0  0  0  0  0
   -9.5910  -20.7660   19.4560 O   0  0  0  0  0  0  0  0  0  0  0  0
   -8.4520  -18.7330   19.6230 C   0  0  0  0  0  0  0  0  0  0  0  0
   -7.9530  -18.3490   18.3900 C   0  0  0  0  0  0  0  0  0  0  0  0
   -6.8200  -17.5750   18.3200 C   0  0  0  0  0  0  0  0  0  0  0  0
   -6.1440  -17.0820   16.6240 Br  0  0  0  0  0  0  0  0  0  0  0  0
   -6.1440  -17.1900   19.4860 C   0  0  0  0  0  0  0  0  0  0  0  0
   -6.6370  -17.5990   20.7110 C   0  0  0  0  0  0  0  0  0  0  0  0
   -7.7960  -18.3660   20.8090 C   0  0  0  0  0  0  0  0  0  0  0  0
   -8.3160  -18.8060   22.0380 N   0  0  0  0  0  0  0  0  0  0  0  0
   -8.6050  -17.9990   23.0770 C   0  0  0  0  0  0  0  0  0  0  0  0
   -8.3890  -16.8200   23.1090 O   0  0  0  0  0  0  0  0  0  0  0  0
   -9.2120  -18.7280   24.2590 C   0  0  0  0  0  0  0  0  0  0  0  0
   -9.1770  -17.9490   25.5430 C   0  0  0  0  0  0  0  0  0  0  0  0
   -7.7870  -17.8460   26.1530 C   0  0  0  0  0  0  0  0  0  0  0  0
   -6.9290  -18.6780   25.8010 O   0  0  0  0  0  0  0  0  0  0  0  0
   -7.5850  -16.9400   27.0100 O   0  0  0  0  0  0  0  0  0  0  0  0
  -11.1230  -17.5930   20.3920 C   0  0  0  0  0  0  0  0  0  0  0  0
  2  1  1  1
  3  2  1  0
  4  3  1  0
  4  5  1  1
  6  4  1  0
  7  6  1  0
  8  7  1  0
  9  8  2  0
 10  8  1  0
 11 10  2  0
 12 11  1  0
 13 12  1  0
 14 12  2  0
 15 14  1  0
 16 15  2  0
 16 10  1  0
 17 16  1  0
 18 17  1  0
 19 18  2  0
 20 18  1  0
 21 20  1  0
 22 21  1  0
 23 22  2  0
 24 22  1  0
 25  7  1  0
 25  2  1  0
M  CHG  1  24  -1
M  END
$$$$
