4kzu_ligand
     RDKit          3D

 27 29  0  0  0  0  0  0  0  0999 V2000
   -5.5570    5.0890   -7.4280 O   0  0  0  0  0  0  0  0  0  0  0  0
   -5.6560    3.8690   -7.4390 C   0  0  0  0  0  0  0  0  0  0  0  0
   -5.7390    3.1040   -6.1830 C   0  0  0  0  0  0  0  0  0  0  0  0
   -5.8470    1.7660   -6.2160 C   0  0  0  0  0  0  0  0  0  0  0  0
   -5.9360    0.9170   -4.9920 C   0  0  0  0  0  0  0  0  0  0  0  0
   -4.8130    0.3190   -4.3920 C   0  0  0  0  0  0  0  0  0  0  0  0
   -4.9320   -0.4740   -3.2420 C   0  0  0  0  0  0  0  0  0  0  0  0
   -6.1810   -0.6810   -2.6690 C   0  0  0  0  0  0  0  0  0  0  0  0
   -6.3420   -1.7490   -1.1190 Br  0  0  0  0  0  0  0  0  0  0  0  0
   -7.3110   -0.1050   -3.2350 C   0  0  0  0  0  0  0  0  0  0  0  0
   -7.1860    0.6850   -4.3850 C   0  0  0  0  0  0  0  0  0  0  0  0
   -5.8870    1.0420   -7.4060 O   0  0  0  0  0  0  0  0  0  0  0  0
   -5.8140    1.7120   -8.5990 C   0  0  0  0  0  0  0  0  0  0  0  0
   -5.8570    0.9460   -9.7640 C   0  0  0  0  0  0  0  0  0  0  0  0
   -5.7860    1.5720  -11.0110 C   0  0  0  0  0  0  0  0  0  0  0  0
   -5.6710    2.9610  -11.0940 C   0  0  0  0  0  0  0  0  0  0  0  0
   -5.6270    3.7270   -9.9280 C   0  0  0  0  0  0  0  0  0  0  0  0
   -5.6990    3.0940   -8.6840 C   0  0  0  0  0  0  0  0  0  0  0  0
   -5.7125    3.6294   -5.2169 H   0  0  0  0  0  0  0  0  0  0  0  0
   -3.8188    0.4772   -4.8352 H   0  0  0  0  0  0  0  0  0  0  0  0
   -4.0378   -0.9318   -2.7938 H   0  0  0  0  0  0  0  0  0  0  0  0
   -8.3000   -0.2685   -2.7821 H   0  0  0  0  0  0  0  0  0  0  0  0
   -8.0874    1.1360   -4.8256 H   0  0  0  0  0  0  0  0  0  0  0  0
   -5.9466   -0.1485   -9.7010 H   0  0  0  0  0  0  0  0  0  0  0  0
   -5.8208    0.9688  -11.9302 H   0  0  0  0  0  0  0  0  0  0  0  0
   -5.6151    3.4511  -12.0772 H   0  0  0  0  0  0  0  0  0  0  0  0
   -5.5363    4.8216   -9.9878 H   0  0  0  0  0  0  0  0  0  0  0  0
  1  2  2  0
  2  3  1  0
  3  4  2  0
  4  5  1  0
  5  6  2  0
  6  7  1  0
  7  8  2  0
  8  9  1  0
  8 10  1  0
 10 11  2  0
  4 12  1  0
 12 13  1  0
 13 14  2  0
 14 15  1  0
 15 16  2  0
 16 17  1  0
 17 18  2  0
 18  2  1  0
 11  5  1  0
 18 13  1  0
  3 19  1  0
  6 20  1  0
  7 21  1  0
 10 22  1  0
 11 23  1  0
 14 24  1  0
 15 25  1  0
 16 26  1  0
 17 27  1  0
M  END
>  <meeko>  (1) 
{"is_sidechain": [false], "free_energy": -9.158, "intermolecular_energy": -9.693, "internal_energy": -0.229}

$$$$
4kzu_ligand
     RDKit          3D

 27 29  0  0  0  0  0  0  0  0999 V2000
   -9.1300    0.5590   -3.6610 O   0  0  0  0  0  0  0  0  0  0  0  0
   -8.0510    0.6590   -4.2310 C   0  0  0  0  0  0  0  0  0  0  0  0
   -7.9460    1.3170   -5.5440 C   0  0  0  0  0  0  0  0  0  0  0  0
   -6.7530    1.4180   -6.1530 C   0  0  0  0  0  0  0  0  0  0  0  0
   -6.5600    2.0680   -7.4820 C   0  0  0  0  0  0  0  0  0  0  0  0
   -6.7290    3.4490   -7.6900 C   0  0  0  0  0  0  0  0  0  0  0  0
   -6.5400    4.0280   -8.9530 C   0  0  0  0  0  0  0  0  0  0  0  0
   -6.1750    3.2320  -10.0320 C   0  0  0  0  0  0  0  0  0  0  0  0
   -5.9200    4.0120  -11.7340 Br  0  0  0  0  0  0  0  0  0  0  0  0
   -5.9990    1.8660   -9.8620 C   0  0  0  0  0  0  0  0  0  0  0  0
   -6.1900    1.2920   -8.5990 C   0  0  0  0  0  0  0  0  0  0  0  0
   -5.5780    0.9220   -5.5930 O   0  0  0  0  0  0  0  0  0  0  0  0
   -5.6280    0.3030   -4.3720 C   0  0  0  0  0  0  0  0  0  0  0  0
   -4.4260   -0.1790   -3.8510 C   0  0  0  0  0  0  0  0  0  0  0  0
   -4.4130   -0.8210   -2.6100 C   0  0  0  0  0  0  0  0  0  0  0  0
   -5.5980   -0.9800   -1.8900 C   0  0  0  0  0  0  0  0  0  0  0  0
   -6.8010   -0.4990   -2.4110 C   0  0  0  0  0  0  0  0  0  0  0  0
   -6.8060    0.1420   -3.6540 C   0  0  0  0  0  0  0  0  0  0  0  0
   -8.8456    1.7264   -6.0268 H   0  0  0  0  0  0  0  0  0  0  0  0
   -7.0159    4.0891   -6.8427 H   0  0  0  0  0  0  0  0  0  0  0  0
   -6.6804    5.1104   -9.0895 H   0  0  0  0  0  0  0  0  0  0  0  0
   -5.7104    1.2362  -10.7165 H   0  0  0  0  0  0  0  0  0  0  0  0
   -6.0477    0.2083   -8.4755 H   0  0  0  0  0  0  0  0  0  0  0  0
   -3.4908   -0.0536   -4.4164 H   0  0  0  0  0  0  0  0  0  0  0  0
   -3.4663   -1.2021   -2.1994 H   0  0  0  0  0  0  0  0  0  0  0  0
   -5.5843   -1.4841   -0.9124 H   0  0  0  0  0  0  0  0  0  0  0  0
   -7.7377   -0.6233   -1.8479 H   0  0  0  0  0  0  0  0  0  0  0  0
  1  2  2  0
  2  3  1  0
  3  4  2  0
  4  5  1  0
  5  6  2  0
  6  7  1  0
  7  8  2  0
  8  9  1  0
  8 10  1  0
 10 11  2  0
  4 12  1  0
 12 13  1  0
 13 14  2  0
 14 15  1  0
 15 16  2  0
 16 17  1  0
 17 18  2  0
 18  2  1  0
 11  5  1  0
 18 13  1  0
  3 19  1  0
  6 20  1  0
  7 21  1  0
 10 22  1  0
 11 23  1  0
 14 24  1  0
 15 25  1  0
 16 26  1  0
 17 27  1  0
M  END
>  <meeko>  (2) 
{"is_sidechain": [false], "free_energy": -9.074, "intermolecular_energy": -9.596, "internal_energy": -0.238}

$$$$
4kzu_ligand
     RDKit          3D

 27 29  0  0  0  0  0  0  0  0999 V2000
   -6.2800    4.8790   -5.2840 O   0  0  0  0  0  0  0  0  0  0  0  0
   -5.5350    4.6180   -6.2190 C   0  0  0  0  0  0  0  0  0  0  0  0
   -4.4300    5.5210   -6.5820 C   0  0  0  0  0  0  0  0  0  0  0  0
   -3.6220    5.2160   -7.6100 C   0  0  0  0  0  0  0  0  0  0  0  0
   -2.4810    6.0760   -8.0430 C   0  0  0  0  0  0  0  0  0  0  0  0
   -1.7360    5.8270   -9.2100 C   0  0  0  0  0  0  0  0  0  0  0  0
   -0.6680    6.6540   -9.5880 C   0  0  0  0  0  0  0  0  0  0  0  0
   -0.3300    7.7500   -8.8030 C   0  0  0  0  0  0  0  0  0  0  0  0
    1.1080    8.8660   -9.3120 Br  0  0  0  0  0  0  0  0  0  0  0  0
   -1.0450    8.0250   -7.6450 C   0  0  0  0  0  0  0  0  0  0  0  0
   -2.1090    7.1940   -7.2720 C   0  0  0  0  0  0  0  0  0  0  0  0
   -3.7760    4.0610   -8.3730 O   0  0  0  0  0  0  0  0  0  0  0  0
   -4.7900    3.1910   -8.0710 C   0  0  0  0  0  0  0  0  0  0  0  0
   -4.9060    2.0470   -8.8610 C   0  0  0  0  0  0  0  0  0  0  0  0
   -5.9210    1.1220   -8.6030 C   0  0  0  0  0  0  0  0  0  0  0  0
   -6.8190    1.3400   -7.5560 C   0  0  0  0  0  0  0  0  0  0  0  0
   -6.7030    2.4840   -6.7650 C   0  0  0  0  0  0  0  0  0  0  0  0
   -5.6850    3.4050   -7.0290 C   0  0  0  0  0  0  0  0  0  0  0  0
   -4.2663    6.4464   -6.0103 H   0  0  0  0  0  0  0  0  0  0  0  0
   -1.9969    4.9642   -9.8404 H   0  0  0  0  0  0  0  0  0  0  0  0
   -0.0991    6.4356  -10.5038 H   0  0  0  0  0  0  0  0  0  0  0  0
   -0.7770    8.8919   -7.0231 H   0  0  0  0  0  0  0  0  0  0  0  0
   -2.6687    7.4207   -6.3526 H   0  0  0  0  0  0  0  0  0  0  0  0
   -4.1993    1.8734   -9.6859 H   0  0  0  0  0  0  0  0  0  0  0  0
   -6.0129    0.2201   -9.2260 H   0  0  0  0  0  0  0  0  0  0  0  0
   -7.6173    0.6105   -7.3548 H   0  0  0  0  0  0  0  0  0  0  0  0
   -7.4081    2.6598   -5.9392 H   0  0  0  0  0  0  0  0  0  0  0  0
  1  2  2  0
  2  3  1  0
  3  4  2  0
  4  5  1  0
  5  6  2  0
  6  7  1  0
  7  8  2  0
  8  9  1  0
  8 10  1  0
 10 11  2  0
  4 12  1  0
 12 13  1  0
 13 14  2  0
 14 15  1  0
 15 16  2  0
 16 17  1  0
 17 18  2  0
 18  2  1  0
 11  5  1  0
 18 13  1  0
  3 19  1  0
  6 20  1  0
  7 21  1  0
 10 22  1  0
 11 23  1  0
 14 24  1  0
 15 25  1  0
 16 26  1  0
 17 27  1  0
M  END
>  <meeko>  (3) 
{"is_sidechain": [false], "free_energy": -8.892, "intermolecular_energy": -9.365, "internal_energy": -0.275}

$$$$
4kzu_ligand
     RDKit          3D

 27 29  0  0  0  0  0  0  0  0999 V2000
   -6.0260    1.9010  -10.0930 O   0  0  0  0  0  0  0  0  0  0  0  0
   -5.6440    2.5790   -9.1470 C   0  0  0  0  0  0  0  0  0  0  0  0
   -4.5590    3.5610   -9.3080 C   0  0  0  0  0  0  0  0  0  0  0  0
   -4.1540    4.2950   -8.2590 C   0  0  0  0  0  0  0  0  0  0  0  0
   -3.0630    5.3100   -8.3360 C   0  0  0  0  0  0  0  0  0  0  0  0
   -2.0760    5.2980   -9.3380 C   0  0  0  0  0  0  0  0  0  0  0  0
   -1.0640    6.2670   -9.3820 C   0  0  0  0  0  0  0  0  0  0  0  0
   -1.0230    7.2690   -8.4200 C   0  0  0  0  0  0  0  0  0  0  0  0
    0.3410    8.5760   -8.4780 Br  0  0  0  0  0  0  0  0  0  0  0  0
   -1.9820    7.3110   -7.4170 C   0  0  0  0  0  0  0  0  0  0  0  0
   -2.9900    6.3410   -7.3770 C   0  0  0  0  0  0  0  0  0  0  0  0
   -4.7220    4.1760   -6.9920 O   0  0  0  0  0  0  0  0  0  0  0  0
   -5.7360    3.2750   -6.7960 C   0  0  0  0  0  0  0  0  0  0  0  0
   -6.2740    3.1900   -5.5120 C   0  0  0  0  0  0  0  0  0  0  0  0
   -7.3090    2.2890   -5.2490 C   0  0  0  0  0  0  0  0  0  0  0  0
   -7.8070    1.4760   -6.2680 C   0  0  0  0  0  0  0  0  0  0  0  0
   -7.2690    1.5600   -7.5530 C   0  0  0  0  0  0  0  0  0  0  0  0
   -6.2330    2.4630   -7.8090 C   0  0  0  0  0  0  0  0  0  0  0  0
   -4.0794    3.6936  -10.2890 H   0  0  0  0  0  0  0  0  0  0  0  0
   -2.0988    4.5098  -10.1050 H   0  0  0  0  0  0  0  0  0  0  0  0
   -0.3039    6.2343  -10.1764 H   0  0  0  0  0  0  0  0  0  0  0  0
   -1.9496    8.1045   -6.6559 H   0  0  0  0  0  0  0  0  0  0  0  0
   -3.7442    6.3840   -6.5774 H   0  0  0  0  0  0  0  0  0  0  0  0
   -5.8841    3.8312   -4.7077 H   0  0  0  0  0  0  0  0  0  0  0  0
   -7.7324    2.2203   -4.2361 H   0  0  0  0  0  0  0  0  0  0  0  0
   -8.6234    0.7691   -6.0585 H   0  0  0  0  0  0  0  0  0  0  0  0
   -7.6575    0.9200   -8.3589 H   0  0  0  0  0  0  0  0  0  0  0  0
  1  2  2  0
  2  3  1  0
  3  4  2  0
  4  5  1  0
  5  6  2  0
  6  7  1  0
  7  8  2  0
  8  9  1  0
  8 10  1  0
 10 11  2  0
  4 12  1  0
 12 13  1  0
 13 14  2  0
 14 15  1  0
 15 16  2  0
 16 17  1  0
 17 18  2  0
 18  2  1  0
 11  5  1  0
 18 13  1  0
  3 19  1  0
  6 20  1  0
  7 21  1  0
 10 22  1  0
 11 23  1  0
 14 24  1  0
 15 25  1  0
 16 26  1  0
 17 27  1  0
M  END
>  <meeko>  (4) 
{"is_sidechain": [false], "free_energy": -8.308, "intermolecular_energy": -8.751, "internal_energy": -0.271}

$$$$
4kzu_ligand
     RDKit          3D

 27 29  0  0  0  0  0  0  0  0999 V2000
   -8.0130    5.4830  -11.2720 O   0  0  0  0  0  0  0  0  0  0  0  0
   -7.4690    4.4070  -11.0620 C   0  0  0  0  0  0  0  0  0  0  0  0
   -7.2720    3.9130   -9.6880 C   0  0  0  0  0  0  0  0  0  0  0  0
   -6.6750    2.7280   -9.4780 C   0  0  0  0  0  0  0  0  0  0  0  0
   -6.4370    2.1560   -8.1210 C   0  0  0  0  0  0  0  0  0  0  0  0
   -7.4240    2.1280   -7.1190 C   0  0  0  0  0  0  0  0  0  0  0  0
   -7.1670    1.5830   -5.8530 C   0  0  0  0  0  0  0  0  0  0  0  0
   -5.9140    1.0540   -5.5670 C   0  0  0  0  0  0  0  0  0  0  0  0
   -5.5680    0.3180   -3.8620 Br  0  0  0  0  0  0  0  0  0  0  0  0
   -4.9170    1.0650   -6.5340 C   0  0  0  0  0  0  0  0  0  0  0  0
   -5.1780    1.6110   -7.7960 C   0  0  0  0  0  0  0  0  0  0  0  0
   -6.2190    1.9200  -10.5170 O   0  0  0  0  0  0  0  0  0  0  0  0
   -6.3810    2.3390  -11.8110 C   0  0  0  0  0  0  0  0  0  0  0  0
   -5.9090    1.4970  -12.8180 C   0  0  0  0  0  0  0  0  0  0  0  0
   -6.0450    1.8690  -14.1580 C   0  0  0  0  0  0  0  0  0  0  0  0
   -6.6520    3.0810  -14.4910 C   0  0  0  0  0  0  0  0  0  0  0  0
   -7.1240    3.9250  -13.4840 C   0  0  0  0  0  0  0  0  0  0  0  0
   -6.9850    3.5450  -12.1460 C   0  0  0  0  0  0  0  0  0  0  0  0
   -7.6141    4.5151   -8.8333 H   0  0  0  0  0  0  0  0  0  0  0  0
   -8.4198    2.5430   -7.3336 H   0  0  0  0  0  0  0  0  0  0  0  0
   -7.9563    1.5741   -5.0869 H   0  0  0  0  0  0  0  0  0  0  0  0
   -3.9253    0.6458   -6.3086 H   0  0  0  0  0  0  0  0  0  0  0  0
   -4.3805    1.6150   -8.5536 H   0  0  0  0  0  0  0  0  0  0  0  0
   -5.4304    0.5414  -12.5576 H   0  0  0  0  0  0  0  0  0  0  0  0
   -5.6729    1.2052  -14.9523 H   0  0  0  0  0  0  0  0  0  0  0  0
   -6.7585    3.3711  -15.5467 H   0  0  0  0  0  0  0  0  0  0  0  0
   -7.6017    4.8818  -13.7416 H   0  0  0  0  0  0  0  0  0  0  0  0
  1  2  2  0
  2  3  1  0
  3  4  2  0
  4  5  1  0
  5  6  2  0
  6  7  1  0
  7  8  2  0
  8  9  1  0
  8 10  1  0
 10 11  2  0
  4 12  1  0
 12 13  1  0
 13 14  2  0
 14 15  1  0
 15 16  2  0
 16 17  1  0
 17 18  2  0
 18  2  1  0
 11  5  1  0
 18 13  1  0
  3 19  1  0
  6 20  1  0
  7 21  1  0
 10 22  1  0
 11 23  1  0
 14 24  1  0
 15 25  1  0
 16 26  1  0
 17 27  1  0
M  END
>  <meeko>  (5) 
{"is_sidechain": [false], "free_energy": -8.106, "intermolecular_energy": -8.554, "internal_energy": -0.255}

$$$$
4kzu_ligand
     RDKit          3D

 27 29  0  0  0  0  0  0  0  0999 V2000
   -5.6760    4.9830   -5.7550 O   0  0  0  0  0  0  0  0  0  0  0  0
   -5.1510    4.8270   -6.8490 C   0  0  0  0  0  0  0  0  0  0  0  0
   -5.8140    4.0370   -7.9010 C   0  0  0  0  0  0  0  0  0  0  0  0
   -5.2220    3.8770   -9.0960 C   0  0  0  0  0  0  0  0  0  0  0  0
   -5.8240    3.0940  -10.2150 C   0  0  0  0  0  0  0  0  0  0  0  0
   -5.4440    1.7730  -10.5140 C   0  0  0  0  0  0  0  0  0  0  0  0
   -6.0290    1.0640  -11.5730 C   0  0  0  0  0  0  0  0  0  0  0  0
   -7.0100    1.6680  -12.3520 C   0  0  0  0  0  0  0  0  0  0  0  0
   -7.8000    0.7140  -13.7790 Br  0  0  0  0  0  0  0  0  0  0  0  0
   -7.4090    2.9710  -12.0830 C   0  0  0  0  0  0  0  0  0  0  0  0
   -6.8200    3.6730  -11.0250 C   0  0  0  0  0  0  0  0  0  0  0  0
   -3.9820    4.4330   -9.4030 O   0  0  0  0  0  0  0  0  0  0  0  0
   -3.3290    5.1760   -8.4560 C   0  0  0  0  0  0  0  0  0  0  0  0
   -2.0910    5.7130   -8.8070 C   0  0  0  0  0  0  0  0  0  0  0  0
   -1.3760    6.4800   -7.8830 C   0  0  0  0  0  0  0  0  0  0  0  0
   -1.8990    6.7100   -6.6090 C   0  0  0  0  0  0  0  0  0  0  0  0
   -3.1370    6.1720   -6.2560 C   0  0  0  0  0  0  0  0  0  0  0  0
   -3.8470    5.4070   -7.1860 C   0  0  0  0  0  0  0  0  0  0  0  0
   -6.7947    3.5778   -7.7077 H   0  0  0  0  0  0  0  0  0  0  0  0
   -4.6702    1.2850   -9.9031 H   0  0  0  0  0  0  0  0  0  0  0  0
   -5.7127    0.0324  -11.7871 H   0  0  0  0  0  0  0  0  0  0  0  0
   -8.1848    3.4493  -12.6990 H   0  0  0  0  0  0  0  0  0  0  0  0
   -7.1436    4.7043  -10.8208 H   0  0  0  0  0  0  0  0  0  0  0  0
   -1.6774    5.5331   -9.8103 H   0  0  0  0  0  0  0  0  0  0  0  0
   -0.3992    6.9033   -8.1600 H   0  0  0  0  0  0  0  0  0  0  0  0
   -1.3352    7.3152   -5.8838 H   0  0  0  0  0  0  0  0  0  0  0  0
   -3.5516    6.3486   -5.2526 H   0  0  0  0  0  0  0  0  0  0  0  0
  1  2  2  0
  2  3  1  0
  3  4  2  0
  4  5  1  0
  5  6  2  0
  6  7  1  0
  7  8  2  0
  8  9  1  0
  8 10  1  0
 10 11  2  0
  4 12  1  0
 12 13  1  0
 13 14  2  0
 14 15  1  0
 15 16  2  0
 16 17  1  0
 17 18  2  0
 18  2  1  0
 11  5  1  0
 18 13  1  0
  3 19  1  0
  6 20  1  0
  7 21  1  0
 10 22  1  0
 11 23  1  0
 14 24  1  0
 15 25  1  0
 16 26  1  0
 17 27  1  0
M  END
>  <meeko>  (6) 
{"is_sidechain": [false], "free_energy": -7.996, "intermolecular_energy": -8.463, "internal_energy": -0.23}

$$$$
4kzu_ligand
     RDKit          3D

 27 29  0  0  0  0  0  0  0  0999 V2000
   -5.2540    0.1230   -9.3220 O   0  0  0  0  0  0  0  0  0  0  0  0
   -5.7060    1.2370   -9.0910 C   0  0  0  0  0  0  0  0  0  0  0  0
   -6.1600    2.1120  -10.1850 C   0  0  0  0  0  0  0  0  0  0  0  0
   -6.6530    3.3310   -9.9110 C   0  0  0  0  0  0  0  0  0  0  0  0
   -7.1340    4.2790  -10.9590 C   0  0  0  0  0  0  0  0  0  0  0  0
   -6.2920    4.8140  -11.9500 C   0  0  0  0  0  0  0  0  0  0  0  0
   -6.7760    5.7040  -12.9200 C   0  0  0  0  0  0  0  0  0  0  0  0
   -8.1160    6.0720  -12.9150 C   0  0  0  0  0  0  0  0  0  0  0  0
   -8.7690    7.2700  -14.2230 Br  0  0  0  0  0  0  0  0  0  0  0  0
   -8.9750    5.5610  -11.9510 C   0  0  0  0  0  0  0  0  0  0  0  0
   -8.4860    4.6750  -10.9840 C   0  0  0  0  0  0  0  0  0  0  0  0
   -6.7620    3.8250   -8.6130 O   0  0  0  0  0  0  0  0  0  0  0  0
   -6.3530    3.0450   -7.5640 C   0  0  0  0  0  0  0  0  0  0  0  0
   -6.4800    3.5820   -6.2820 C   0  0  0  0  0  0  0  0  0  0  0  0
   -6.0790    2.8350   -5.1720 C   0  0  0  0  0  0  0  0  0  0  0  0
   -5.5520    1.5530   -5.3420 C   0  0  0  0  0  0  0  0  0  0  0  0
   -5.4230    1.0170   -6.6240 C   0  0  0  0  0  0  0  0  0  0  0  0
   -5.8270    1.7700   -7.7300 C   0  0  0  0  0  0  0  0  0  0  0  0
   -6.0953    1.7670  -11.2275 H   0  0  0  0  0  0  0  0  0  0  0  0
   -5.2299    4.5281  -11.9648 H   0  0  0  0  0  0  0  0  0  0  0  0
   -6.0960    6.1100  -13.6834 H   0  0  0  0  0  0  0  0  0  0  0  0
  -10.0360    5.8515  -11.9473 H   0  0  0  0  0  0  0  0  0  0  0  0
   -9.1749    4.2777  -10.2240 H   0  0  0  0  0  0  0  0  0  0  0  0
   -6.8951    4.5916   -6.1461 H   0  0  0  0  0  0  0  0  0  0  0  0
   -6.1786    3.2576   -4.1613 H   0  0  0  0  0  0  0  0  0  0  0  0
   -5.2388    0.9661   -4.4660 H   0  0  0  0  0  0  0  0  0  0  0  0
   -5.0061    0.0086   -6.7631 H   0  0  0  0  0  0  0  0  0  0  0  0
  1  2  2  0
  2  3  1  0
  3  4  2  0
  4  5  1  0
  5  6  2  0
  6  7  1  0
  7  8  2  0
  8  9  1  0
  8 10  1  0
 10 11  2  0
  4 12  1  0
 12 13  1  0
 13 14  2  0
 14 15  1  0
 15 16  2  0
 16 17  1  0
 17 18  2  0
 18  2  1  0
 11  5  1  0
 18 13  1  0
  3 19  1  0
  6 20  1  0
  7 21  1  0
 10 22  1  0
 11 23  1  0
 14 24  1  0
 15 25  1  0
 16 26  1  0
 17 27  1  0
M  END
>  <meeko>  (7) 
{"is_sidechain": [false], "free_energy": -7.665, "intermolecular_energy": -8.1, "internal_energy": -0.241}

$$$$
4kzu_ligand
     RDKit          3D

 27 29  0  0  0  0  0  0  0  0999 V2000
   -3.7250    4.5880   -7.7680 O   0  0  0  0  0  0  0  0  0  0  0  0
   -4.6450    3.8880   -8.1720 C   0  0  0  0  0  0  0  0  0  0  0  0
   -4.8950    3.7250   -9.6140 C   0  0  0  0  0  0  0  0  0  0  0  0
   -5.9090    2.9530  -10.0380 C   0  0  0  0  0  0  0  0  0  0  0  0
   -6.2310    2.7350  -11.4780 C   0  0  0  0  0  0  0  0  0  0  0  0
   -6.5660    3.7830  -12.3550 C   0  0  0  0  0  0  0  0  0  0  0  0
   -6.8640    3.5430  -13.7040 C   0  0  0  0  0  0  0  0  0  0  0  0
   -6.8300    2.2460  -14.2010 C   0  0  0  0  0  0  0  0  0  0  0  0
   -7.2300    1.9220  -16.0190 Br  0  0  0  0  0  0  0  0  0  0  0  0
   -6.5020    1.1880  -13.3630 C   0  0  0  0  0  0  0  0  0  0  0  0
   -6.2070    1.4330  -12.0170 C   0  0  0  0  0  0  0  0  0  0  0  0
   -6.7600    2.2800   -9.1640 O   0  0  0  0  0  0  0  0  0  0  0  0
   -6.5640    2.4020   -7.8130 C   0  0  0  0  0  0  0  0  0  0  0  0
   -7.4400    1.7110   -6.9760 C   0  0  0  0  0  0  0  0  0  0  0  0
   -7.2920    1.7970   -5.5900 C   0  0  0  0  0  0  0  0  0  0  0  0
   -6.2700    2.5720   -5.0400 C   0  0  0  0  0  0  0  0  0  0  0  0
   -5.3930    3.2650   -5.8770 C   0  0  0  0  0  0  0  0  0  0  0  0
   -5.5480    3.1740   -7.2630 C   0  0  0  0  0  0  0  0  0  0  0  0
   -4.2507    4.2360  -10.3446 H   0  0  0  0  0  0  0  0  0  0  0  0
   -6.5948    4.8144  -11.9736 H   0  0  0  0  0  0  0  0  0  0  0  0
   -7.1244    4.3805  -14.3679 H   0  0  0  0  0  0  0  0  0  0  0  0
   -6.4742    0.1610  -13.7559 H   0  0  0  0  0  0  0  0  0  0  0  0
   -5.9496    0.5871  -11.3626 H   0  0  0  0  0  0  0  0  0  0  0  0
   -8.2462    1.0992   -7.4070 H   0  0  0  0  0  0  0  0  0  0  0  0
   -7.9830    1.2523   -4.9299 H   0  0  0  0  0  0  0  0  0  0  0  0
   -6.1554    2.6369   -3.9479 H   0  0  0  0  0  0  0  0  0  0  0  0
   -4.5862    3.8779   -5.4487 H   0  0  0  0  0  0  0  0  0  0  0  0
  1  2  2  0
  2  3  1  0
  3  4  2  0
  4  5  1  0
  5  6  2  0
  6  7  1  0
  7  8  2  0
  8  9  1  0
  8 10  1  0
 10 11  2  0
  4 12  1  0
 12 13  1  0
 13 14  2  0
 14 15  1  0
 15 16  2  0
 16 17  1  0
 17 18  2  0
 18  2  1  0
 11  5  1  0
 18 13  1  0
  3 19  1  0
  6 20  1  0
  7 21  1  0
 10 22  1  0
 11 23  1  0
 14 24  1  0
 15 25  1  0
 16 26  1  0
 17 27  1  0
M  END
>  <meeko>  (8) 
{"is_sidechain": [false], "free_energy": -7.654, "intermolecular_energy": -8.087, "internal_energy": -0.244}

$$$$
4kzu_ligand
     RDKit          3D

 27 29  0  0  0  0  0  0  0  0999 V2000
   -6.3710    1.2020  -14.1970 O   0  0  0  0  0  0  0  0  0  0  0  0
   -6.3720    2.0310  -13.2970 C   0  0  0  0  0  0  0  0  0  0  0  0
   -6.2440    1.6210  -11.8880 C   0  0  0  0  0  0  0  0  0  0  0  0
   -6.2460    2.5460  -10.9150 C   0  0  0  0  0  0  0  0  0  0  0  0
   -6.1220    2.2160   -9.4650 C   0  0  0  0  0  0  0  0  0  0  0  0
   -6.7950    2.9290   -8.4570 C   0  0  0  0  0  0  0  0  0  0  0  0
   -6.6550    2.5930   -7.1030 C   0  0  0  0  0  0  0  0  0  0  0  0
   -5.8370    1.5310   -6.7340 C   0  0  0  0  0  0  0  0  0  0  0  0
   -5.6490    1.0760   -4.9100 Br  0  0  0  0  0  0  0  0  0  0  0  0
   -5.1590    0.8050   -7.7040 C   0  0  0  0  0  0  0  0  0  0  0  0
   -5.3010    1.1460   -9.0540 C   0  0  0  0  0  0  0  0  0  0  0  0
   -6.3660    3.9100  -11.1720 O   0  0  0  0  0  0  0  0  0  0  0  0
   -6.4870    4.3380  -12.4680 C   0  0  0  0  0  0  0  0  0  0  0  0
   -6.6050    5.7120  -12.6770 C   0  0  0  0  0  0  0  0  0  0  0  0
   -6.7330    6.2100  -13.9770 C   0  0  0  0  0  0  0  0  0  0  0  0
   -6.7410    5.3360  -15.0650 C   0  0  0  0  0  0  0  0  0  0  0  0
   -6.6240    3.9610  -14.8560 C   0  0  0  0  0  0  0  0  0  0  0  0
   -6.4970    3.4700  -13.5530 C   0  0  0  0  0  0  0  0  0  0  0  0
   -6.1466    0.5555  -11.6327 H   0  0  0  0  0  0  0  0  0  0  0  0
   -7.4464    3.7699   -8.7373 H   0  0  0  0  0  0  0  0  0  0  0  0
   -7.1913    3.1685   -6.3341 H   0  0  0  0  0  0  0  0  0  0  0  0
   -4.5122   -0.0356   -7.4124 H   0  0  0  0  0  0  0  0  0  0  0  0
   -4.7582    0.5644   -9.8137 H   0  0  0  0  0  0  0  0  0  0  0  0
   -6.5974    6.4024  -11.8206 H   0  0  0  0  0  0  0  0  0  0  0  0
   -6.8276    7.2933  -14.1427 H   0  0  0  0  0  0  0  0  0  0  0  0
   -6.8395    5.7307  -16.0870 H   0  0  0  0  0  0  0  0  0  0  0  0
   -6.6316    3.2684  -15.7105 H   0  0  0  0  0  0  0  0  0  0  0  0
  1  2  2  0
  2  3  1  0
  3  4  2  0
  4  5  1  0
  5  6  2  0
  6  7  1  0
  7  8  2  0
  8  9  1  0
  8 10  1  0
 10 11  2  0
  4 12  1  0
 12 13  1  0
 13 14  2  0
 14 15  1  0
 15 16  2  0
 16 17  1  0
 17 18  2  0
 18  2  1  0
 11  5  1  0
 18 13  1  0
  3 19  1  0
  6 20  1  0
  7 21  1  0
 10 22  1  0
 11 23  1  0
 14 24  1  0
 15 25  1  0
 16 26  1  0
 17 27  1  0
M  END
>  <meeko>  (9) 
{"is_sidechain": [false], "free_energy": -7.395, "intermolecular_energy": -7.794, "internal_energy": -0.261}

$$$$
