
     RDKit          3D

 29 32  0  0  0  0  0  0  0  0999 V2000
    5.7230   11.5280   -6.3090 O   0  0  0  0  0  0  0  0  0  0  0  0
    4.4990   11.5130   -6.5080 C   0  0  0  0  0  0  0  0  0  0  0  0
    3.8550   12.5760   -6.6670 O   0  0  0  0  0  0  0  0  0  0  0  0
    3.7700   10.2050   -6.5200 C   0  0  0  0  0  0  0  0  0  0  0  0
    2.5270   10.1240   -5.9210 C   0  0  0  0  0  0  0  0  0  0  0  0
    1.8240    8.9140   -5.8950 C   0  0  0  0  0  0  0  0  0  0  0  0
    2.4110    7.8170   -6.4890 C   0  0  0  0  0  0  0  0  0  0  0  0
    3.6270    7.8840   -7.1000 C   0  0  0  0  0  0  0  0  0  0  0  0
    4.3400    9.0800   -7.1330 C   0  0  0  0  0  0  0  0  0  0  0  0
    3.9490    6.5900   -7.6360 C   0  0  0  0  0  0  0  0  0  0  0  0
    4.9280    6.2670   -8.2520 O   0  0  0  0  0  0  0  0  0  0  0  0
    2.9050    5.7430   -7.3150 N   0  0  0  0  0  0  0  0  0  0  0  0
    2.8210    4.3100   -7.7230 C   0  0  2  0  0  0  0  0  0  0  0  0
    1.5860    4.1640   -8.6730 C   0  0  0  0  0  0  0  0  0  0  0  0
    1.5330    5.2590   -9.6910 C   0  0  0  0  0  0  0  0  0  0  0  0
    0.7320    6.3730   -9.4330 C   0  0  0  0  0  0  0  0  0  0  0  0
    0.6770    7.4360  -10.3080 C   0  0  0  0  0  0  0  0  0  0  0  0
    1.4200    7.4200  -11.4800 C   0  0  0  0  0  0  0  0  0  0  0  0
    2.2260    6.3040  -11.7680 C   0  0  0  0  0  0  0  0  0  0  0  0
    2.9890    6.3010  -12.9590 C   0  0  0  0  0  0  0  0  0  0  0  0
    3.7730    5.1920  -13.2540 C   0  0  0  0  0  0  0  0  0  0  0  0
    3.8370    4.1110  -12.3940 C   0  0  0  0  0  0  0  0  0  0  0  0
    3.1050    4.1190  -11.2160 C   0  0  0  0  0  0  0  0  0  0  0  0
    2.2940    5.2170  -10.8890 C   0  0  0  0  0  0  0  0  0  0  0  0
    2.6300    3.3710   -6.5170 C   0  0  0  0  0  0  0  0  0  0  0  0
    3.0150    3.7280   -5.4120 O   0  0  0  0  0  0  0  0  0  0  0  0
    2.1500    2.2330   -6.7270 O   0  0  0  0  0  0  0  0  0  0  0  0
    1.9370    6.4550   -6.6250 C   0  0  0  0  0  0  0  0  0  0  0  0
    0.8910    5.9830   -6.2240 O   0  0  0  0  0  0  0  0  0  0  0  0
  2  1  1  0
  3  2  2  0
  4  2  1  0
  5  4  2  0
  6  5  1  0
  7  6  2  0
  8  7  1  0
  9  8  2  0
  9  4  1  0
 10  8  1  0
 11 10  2  0
 12 10  1  0
 13 12  1  0
 13 14  1  6
 15 14  1  0
 16 15  2  0
 17 16  1  0
 18 17  2  0
 19 18  1  0
 20 19  2  0
 21 20  1  0
 22 21  2  0
 23 22  1  0
 24 23  2  0
 24 15  1  0
 24 19  1  0
 25 13  1  0
 26 25  2  0
 27 25  1  0
 28 12  1  0
 28  7  1  0
 29 28  2  0
M  CHG  2   1  -1  27  -1
M  END
$$$$
