
     RDKit          3D

 27 29  0  0  0  0  0  0  0  0999 V2000
  -10.7700    4.7320    8.7720 N   0  0  0  0  0  0  0  0  0  0  0  0
  -11.3340    4.3460    7.6060 C   0  0  0  0  0  0  0  0  0  0  0  0
  -12.2650    3.3640    7.5940 N   0  0  0  0  0  0  0  0  0  0  0  0
  -12.8250    2.9780    6.4250 C   0  0  0  0  0  0  0  0  0  0  0  0
  -12.5290    3.5050    5.2200 N   0  0  0  0  0  0  0  0  0  0  0  0
  -11.6090    4.4810    5.2250 C   0  0  0  0  0  0  0  0  0  0  0  0
  -10.9720    4.9440    6.3840 C   0  0  0  0  0  0  0  0  0  0  0  0
  -10.0990    5.9220    6.0470 N   0  0  0  0  0  0  0  0  0  0  0  0
  -10.1870    6.0740    4.7350 C   0  0  0  0  0  0  0  0  0  0  0  0
  -11.0960    5.2020    4.2220 N   0  0  0  0  0  0  0  0  0  0  0  0
  -11.4840    5.0470    2.8360 C   0  0  2  0  0  0  0  0  0  0  0  0
  -10.3730    4.6010    2.0950 O   0  0  0  0  0  0  0  0  0  0  0  0
  -10.4170    5.2080    0.8210 C   0  0  2  0  0  0  0  0  0  0  0  0
   -9.0040    5.4530    0.3310 C   0  0  0  0  0  0  0  0  0  0  0  0
   -8.4030    6.3560    1.2280 O   0  0  0  0  0  0  0  0  0  0  0  0
   -6.9550    6.9460    0.9400 P   0  0  0  0  0  0  0  0  0  0  0  0
   -6.7530    8.0910    1.8640 O   0  0  0  0  0  0  0  0  0  0  0  0
   -6.8130    7.2460   -0.5170 O   0  0  0  0  0  0  0  0  0  0  0  0
   -5.9620    5.7610    1.3630 O   0  0  0  0  0  0  0  0  0  0  0  0
   -5.6880    4.3540    0.5960 P   0  0  0  0  0  0  0  0  0  0  0  0
   -6.0650    4.5340   -0.8510 O   0  0  0  0  0  0  0  0  0  0  0  0
   -6.5230    3.3180    1.2940 O   0  0  0  0  0  0  0  0  0  0  0  0
   -4.2150    4.1300    0.7730 O   0  0  0  0  0  0  0  0  0  0  0  0
  -11.1900    6.5050    0.9490 C   0  0  1  0  0  0  0  0  0  0  0  0
  -12.0680    6.6660   -0.1430 O   0  0  0  0  0  0  0  0  0  0  0  0
  -11.9540    6.3620    2.2430 C   0  0  1  0  0  0  0  0  0  0  0  0
  -13.3470    6.2890    2.0140 O   0  0  0  0  0  0  0  0  0  0  0  0
  2  1  1  0
  3  2  2  0
  4  3  1  0
  5  4  2  0
  6  5  1  0
  7  6  2  0
  7  2  1  0
  8  7  1  0
  9  8  2  0
 10  6  1  0
 10  9  1  0
 11 10  1  1
 12 11  1  0
 13 12  1  0
 13 14  1  1
 15 14  1  0
 16 15  1  0
 17 16  2  0
 18 16  1  0
 19 16  1  0
 20 19  1  0
 21 20  2  0
 22 20  1  0
 23 20  1  0
 24 13  1  0
 24 25  1  6
 26 11  1  0
 26 24  1  0
 26 27  1  6
M  CHG  3  18  -1  22  -1  23  -1
M  END
$$$$
