
     RDKit          3D

 13 12  0  0  0  0  0  0  0  0999 V2000
  -23.7690   -5.9180   10.6190 C   0  0  0  0  0  0  0  0  0  0  0  0
  -22.9170   -5.0140    9.7670 C   0  0  1  0  0  0  0  0  0  0  0  0
  -21.7340   -4.5500   10.5850 C   0  0  0  0  0  0  0  0  0  0  0  0
  -21.1110   -3.3360   10.0360 C   0  0  0  0  0  0  0  0  0  0  0  0
  -22.0140   -2.2840   10.1960 O   0  0  0  0  0  0  0  0  0  0  0  0
  -21.5020   -0.9920   10.1150 C   0  0  0  0  0  0  0  0  0  0  0  0
  -20.3470   -0.8550    9.9370 O   0  0  0  0  0  0  0  0  0  0  0  0
  -22.3430    0.0580   10.2410 N   0  0  0  0  0  0  0  0  0  0  0  0
  -21.8520    1.4140   10.2740 C   0  0  0  0  0  0  0  0  0  0  0  0
  -23.8030   -0.1220   10.3410 C   0  0  0  0  0  0  0  0  0  0  0  0
  -22.4930   -5.6620    8.5370 N   0  0  0  0  0  0  0  0  0  0  0  0
  -21.5040   -6.7180    8.7450 C   0  0  0  0  0  0  0  0  0  0  0  0
  -23.6180   -6.1310    7.7530 C   0  0  0  0  0  0  0  0  0  0  0  0
  2  1  1  1
  3  2  1  0
  4  3  1  0
  5  4  1  0
  6  5  1  0
  7  6  2  0
  8  6  1  0
  9  8  1  0
 10  8  1  0
 11  2  1  0
 12 11  1  0
 13 11  1  0
M  CHG  1  11   1
M  END
$$$$
