
     RDKit          3D

 29 30  0  0  0  0  0  0  0  0999 V2000
  -10.0490    6.5710   18.9400 N   0  0  0  0  0  0  0  0  0  0  0  0
   -9.6360    5.4220   18.4030 C   0  0  0  0  0  0  0  0  0  0  0  0
   -8.4420    5.1210   18.3100 O   0  0  0  0  0  0  0  0  0  0  0  0
  -10.7010    4.4420   17.8990 C   0  0  2  0  0  0  0  0  0  0  0  0
  -10.8320    3.3220   18.9340 C   0  0  0  0  0  0  0  0  0  0  0  0
  -12.1480    2.5920   18.7970 C   0  0  0  0  0  0  0  0  0  0  0  0
  -12.4140    1.6610   19.9780 C   0  0  0  0  0  0  0  0  0  0  0  0
  -12.5230    0.4560   19.7780 O   0  0  0  0  0  0  0  0  0  0  0  0
  -12.5130    2.1800   21.1010 O   0  0  0  0  0  0  0  0  0  0  0  0
  -10.3300    3.8970   16.5860 N   0  0  0  0  0  0  0  0  0  0  0  0
  -10.8540    4.4020   15.4300 C   0  0  0  0  0  0  0  0  0  0  0  0
  -11.6220    5.3540   15.4560 O   0  0  0  0  0  0  0  0  0  0  0  0
  -10.4700    3.7590   14.1490 C   0  0  0  0  0  0  0  0  0  0  0  0
   -9.7950    2.5430   14.1200 C   0  0  0  0  0  0  0  0  0  0  0  0
   -9.4660    1.9180   12.8870 C   0  0  0  0  0  0  0  0  0  0  0  0
   -9.8120    2.5350   11.6490 C   0  0  0  0  0  0  0  0  0  0  0  0
   -9.5170    1.9350   10.3720 C   0  0  0  0  0  0  0  0  0  0  0  0
   -9.8730    2.5770    9.1740 C   0  0  0  0  0  0  0  0  0  0  0  0
   -9.5850    1.9200    7.8180 C   0  0  1  0  0  0  0  0  0  0  0  0
   -9.2290    0.6030    7.9970 F   0  0  0  0  0  0  0  0  0  0  0  0
  -10.7280    1.9530    7.0700 F   0  0  0  0  0  0  0  0  0  0  0  0
   -8.2440    2.6510    6.8040 P   0  0  0  0  0  0  0  0  0  0  0  0
   -8.5080    2.2560    5.3670 O   0  0  0  0  0  0  0  0  0  0  0  0
   -8.2770    4.1300    6.9570 O   0  0  0  0  0  0  0  0  0  0  0  0
   -6.9380    2.0480    7.2970 O   0  0  0  0  0  0  0  0  0  0  0  0
  -10.5410    3.8170    9.1980 C   0  0  0  0  0  0  0  0  0  0  0  0
  -10.8510    4.4430   10.4370 C   0  0  0  0  0  0  0  0  0  0  0  0
  -10.4880    3.8000   11.6620 C   0  0  0  0  0  0  0  0  0  0  0  0
  -10.8140    4.4090   12.9220 C   0  0  0  0  0  0  0  0  0  0  0  0
  2  1  1  0
  3  2  2  0
  4  2  1  0
  4  5  1  1
  6  5  1  0
  7  6  1  0
  8  7  1  0
  9  7  2  0
 10  4  1  0
 11 10  1  0
 12 11  2  0
 13 11  1  0
 14 13  2  0
 15 14  1  0
 16 15  2  0
 17 16  1  0
 18 17  2  0
 19 18  1  0
 19 20  1  1
 21 19  1  0
 22 19  1  0
 23 22  2  0
 24 22  1  0
 25 22  1  0
 26 18  1  0
 27 26  2  0
 28 27  1  0
 28 16  1  0
 29 28  2  0
 29 13  1  0
M  CHG  3   8  -1  24  -1  25  -1
M  END
$$$$
