
     RDKit          3D

  9  8  0  0  0  0  0  0  0  0999 V2000
  -16.8410   -4.5070  -15.7080 C   0  0  0  0  0  0  0  0  0  0  0  0
  -18.0740   -5.1530  -15.1640 C   0  0  2  0  0  0  0  0  0  0  0  0
  -19.2520   -4.1960  -15.1980 C   0  0  0  0  0  0  0  0  0  0  0  0
  -17.9160   -5.6070  -13.7560 C   0  0  0  0  0  0  0  0  0  0  0  0
  -16.6410   -6.3570  -13.3820 C   0  0  2  0  0  0  0  0  0  0  0  0
  -16.5300   -7.6550  -14.0840 N   0  0  0  0  0  0  0  0  0  0  0  0
  -16.6500   -6.5630  -11.8670 C   0  0  0  0  0  0  0  0  0  0  0  0
  -16.7610   -7.6910  -11.4160 O   0  0  0  0  0  0  0  0  0  0  0  0
  -16.5630   -5.5480  -11.1530 O   0  0  0  0  0  0  0  0  0  0  0  0
  2  1  1  1
  3  2  1  0
  4  2  1  0
  5  4  1  0
  5  6  1  6
  7  5  1  0
  8  7  2  0
  9  7  1  0
M  CHG  2   6   1   9  -1
M  END
$$$$
