3nq9_ligand
     RDKit          3D

 25 24  0  0  0  0  0  0  0  0999 V2000
    5.3080  -14.9490   -3.9770 C   0  0  0  0  0  0  0  0  0  0  0  0
    6.4770  -13.9830   -3.8540 C   0  0  0  0  0  0  0  0  0  0  0  0
    7.5470  -14.1800   -4.9330 C   0  0  0  0  0  0  0  0  0  0  0  0
    8.7820  -14.9290   -4.4260 C   0  0  0  0  0  0  0  0  0  0  0  0
    9.9830  -14.8260   -5.3730 C   0  0  0  0  0  0  0  0  0  0  0  0
    9.7910  -13.7870   -6.4830 C   0  0  0  0  0  0  0  0  0  0  0  0
   11.1110  -13.1480   -6.9090 C   0  0  0  0  0  0  0  0  0  0  0  0
   11.6960  -13.6140   -8.2460 C   0  0  0  0  0  0  0  0  0  0  0  0
   12.6780  -14.4030   -8.1840 O   0  0  0  0  0  0  0  0  0  0  0  0
   11.1010  -13.1510   -9.2620 O   0  0  0  0  0  0  0  0  0  0  0  0
    4.9616  -15.2352   -2.9729 H   0  0  0  0  0  0  0  0  0  0  0  0
    4.4865  -14.4628   -4.5235 H   0  0  0  0  0  0  0  0  0  0  0  0
    5.6307  -15.8474   -4.5235 H   0  0  0  0  0  0  0  0  0  0  0  0
    6.0900  -12.9562   -3.9304 H   0  0  0  0  0  0  0  0  0  0  0  0
    6.9564  -14.1762   -2.8830 H   0  0  0  0  0  0  0  0  0  0  0  0
    7.1063  -14.7529   -5.7622 H   0  0  0  0  0  0  0  0  0  0  0  0
    7.8781  -13.1807   -5.2521 H   0  0  0  0  0  0  0  0  0  0  0  0
    9.0692  -14.5094   -3.4506 H   0  0  0  0  0  0  0  0  0  0  0  0
    8.5123  -15.9931   -4.3554 H   0  0  0  0  0  0  0  0  0  0  0  0
   10.8695  -14.5482   -4.7840 H   0  0  0  0  0  0  0  0  0  0  0  0
   10.0997  -15.8056   -5.8597 H   0  0  0  0  0  0  0  0  0  0  0  0
    9.3383  -14.2804   -7.3557 H   0  0  0  0  0  0  0  0  0  0  0  0
    9.1409  -12.9906   -6.0916 H   0  0  0  0  0  0  0  0  0  0  0  0
   10.9505  -12.0618   -6.9749 H   0  0  0  0  0  0  0  0  0  0  0  0
   11.8427  -13.4564   -6.1478 H   0  0  0  0  0  0  0  0  0  0  0  0
  1  2  1  0
  2  3  1  0
  3  4  1  0
  4  5  1  0
  5  6  1  0
  6  7  1  0
  7  8  1  0
  8  9  2  0
  8 10  1  0
  1 11  1  0
  1 12  1  0
  1 13  1  0
  2 14  1  0
  2 15  1  0
  3 16  1  0
  3 17  1  0
  4 18  1  0
  4 19  1  0
  5 20  1  0
  5 21  1  0
  6 22  1  0
  6 23  1  0
  7 24  1  0
  7 25  1  0
M  CHG  1  10  -1
M  END
>  <meeko>  (1) 
{"is_sidechain": [false], "free_energy": -3.37, "intermolecular_energy": -4.552, "internal_energy": -0.207}

$$$$
3nq9_ligand
     RDKit          3D

 25 24  0  0  0  0  0  0  0  0999 V2000
   10.3670  -14.2360   -9.1630 C   0  0  0  0  0  0  0  0  0  0  0  0
   11.3190  -13.4710   -8.2560 C   0  0  0  0  0  0  0  0  0  0  0  0
   10.7450  -13.1930   -6.8640 C   0  0  0  0  0  0  0  0  0  0  0  0
   10.9430  -14.3560   -5.8880 C   0  0  0  0  0  0  0  0  0  0  0  0
    9.6400  -14.8250   -5.2320 C   0  0  0  0  0  0  0  0  0  0  0  0
    8.4270  -13.9710   -5.6180 C   0  0  0  0  0  0  0  0  0  0  0  0
    7.1190  -14.7560   -5.5330 C   0  0  0  0  0  0  0  0  0  0  0  0
    6.3020  -14.5820   -4.2480 C   0  0  0  0  0  0  0  0  0  0  0  0
    6.7630  -13.7750   -3.3950 O   0  0  0  0  0  0  0  0  0  0  0  0
    5.2410  -15.2700   -4.2110 O   0  0  0  0  0  0  0  0  0  0  0  0
    9.6555  -14.8077   -8.5490 H   0  0  0  0  0  0  0  0  0  0  0  0
    9.8159  -13.5266   -9.7979 H   0  0  0  0  0  0  0  0  0  0  0  0
   10.9411  -14.9268   -9.7979 H   0  0  0  0  0  0  0  0  0  0  0  0
   12.2403  -14.0610   -8.1413 H   0  0  0  0  0  0  0  0  0  0  0  0
   11.5045  -12.4960   -8.7302 H   0  0  0  0  0  0  0  0  0  0  0  0
   11.2419  -12.3022   -6.4522 H   0  0  0  0  0  0  0  0  0  0  0  0
    9.6614  -13.0441   -6.9804 H   0  0  0  0  0  0  0  0  0  0  0  0
   11.3816  -15.2021   -6.4374 H   0  0  0  0  0  0  0  0  0  0  0  0
   11.6023  -13.9978   -5.0836 H   0  0  0  0  0  0  0  0  0  0  0  0
    9.4482  -15.8636   -5.5394 H   0  0  0  0  0  0  0  0  0  0  0  0
    9.7709  -14.7331   -4.1437 H   0  0  0  0  0  0  0  0  0  0  0  0
    8.3684  -13.1098   -4.9361 H   0  0  0  0  0  0  0  0  0  0  0  0
    8.5597  -13.6471   -6.6608 H   0  0  0  0  0  0  0  0  0  0  0  0
    6.4860  -14.4440   -6.3768 H   0  0  0  0  0  0  0  0  0  0  0  0
    7.4127  -15.8159   -5.5512 H   0  0  0  0  0  0  0  0  0  0  0  0
  1  2  1  0
  2  3  1  0
  3  4  1  0
  4  5  1  0
  5  6  1  0
  6  7  1  0
  7  8  1  0
  8  9  2  0
  8 10  1  0
  1 11  1  0
  1 12  1  0
  1 13  1  0
  2 14  1  0
  2 15  1  0
  3 16  1  0
  3 17  1  0
  4 18  1  0
  4 19  1  0
  5 20  1  0
  5 21  1  0
  6 22  1  0
  6 23  1  0
  7 24  1  0
  7 25  1  0
M  CHG  1  10  -1
M  END
>  <meeko>  (2) 
{"is_sidechain": [false], "free_energy": -3.294, "intermolecular_energy": -4.292, "internal_energy": -0.365}

$$$$
3nq9_ligand
     RDKit          3D

 25 24  0  0  0  0  0  0  0  0999 V2000
   13.1610  -14.3370   -4.3250 C   0  0  0  0  0  0  0  0  0  0  0  0
   13.2810  -13.9770   -5.7980 C   0  0  0  0  0  0  0  0  0  0  0  0
   11.9680  -13.4850   -6.4140 C   0  0  0  0  0  0  0  0  0  0  0  0
   10.7620  -14.3450   -6.0290 C   0  0  0  0  0  0  0  0  0  0  0  0
    9.4240  -13.6110   -6.1730 C   0  0  0  0  0  0  0  0  0  0  0  0
    8.2150  -14.5540   -6.1870 C   0  0  0  0  0  0  0  0  0  0  0  0
    7.0120  -13.9590   -5.4580 C   0  0  0  0  0  0  0  0  0  0  0  0
    6.6170  -14.6250   -4.1360 C   0  0  0  0  0  0  0  0  0  0  0  0
    7.4930  -15.3510   -3.5910 O   0  0  0  0  0  0  0  0  0  0  0  0
    5.4480  -14.3470   -3.7430 O   0  0  0  0  0  0  0  0  0  0  0  0
   13.4497  -13.4710   -3.7112 H   0  0  0  0  0  0  0  0  0  0  0  0
   12.1212  -14.6161   -4.0993 H   0  0  0  0  0  0  0  0  0  0  0  0
   13.8253  -15.1842   -4.0993 H   0  0  0  0  0  0  0  0  0  0  0  0
   14.0342  -13.1821   -5.9022 H   0  0  0  0  0  0  0  0  0  0  0  0
   13.5668  -14.8943   -6.3337 H   0  0  0  0  0  0  0  0  0  0  0  0
   11.7861  -12.4551   -6.0730 H   0  0  0  0  0  0  0  0  0  0  0  0
   12.0769  -13.5452   -7.5069 H   0  0  0  0  0  0  0  0  0  0  0  0
   10.7448  -15.2330   -6.6780 H   0  0  0  0  0  0  0  0  0  0  0  0
   10.8760  -14.6099   -4.9675 H   0  0  0  0  0  0  0  0  0  0  0  0
    9.3145  -12.9151   -5.3282 H   0  0  0  0  0  0  0  0  0  0  0  0
    9.4411  -13.0878   -7.1405 H   0  0  0  0  0  0  0  0  0  0  0  0
    7.9333  -14.7537   -7.2314 H   0  0  0  0  0  0  0  0  0  0  0  0
    8.5020  -15.4795   -5.6663 H   0  0  0  0  0  0  0  0  0  0  0  0
    7.2379  -12.9035   -5.2463 H   0  0  0  0  0  0  0  0  0  0  0  0
    6.1562  -14.1165   -6.1309 H   0  0  0  0  0  0  0  0  0  0  0  0
  1  2  1  0
  2  3  1  0
  3  4  1  0
  4  5  1  0
  5  6  1  0
  6  7  1  0
  7  8  1  0
  8  9  2  0
  8 10  1  0
  1 11  1  0
  1 12  1  0
  1 13  1  0
  2 14  1  0
  2 15  1  0
  3 16  1  0
  3 17  1  0
  4 18  1  0
  4 19  1  0
  5 20  1  0
  5 21  1  0
  6 22  1  0
  6 23  1  0
  7 24  1  0
  7 25  1  0
M  CHG  1  10  -1
M  END
>  <meeko>  (3) 
{"is_sidechain": [false], "free_energy": -3.187, "intermolecular_energy": -4.333, "internal_energy": -0.179}

$$$$
3nq9_ligand
     RDKit          3D

 25 24  0  0  0  0  0  0  0  0999 V2000
   10.0790    6.3280    4.6060 C   0  0  0  0  0  0  0  0  0  0  0  0
   10.9250    5.9150    5.8010 C   0  0  0  0  0  0  0  0  0  0  0  0
   12.3640    5.5440    5.4310 C   0  0  0  0  0  0  0  0  0  0  0  0
   12.6480    4.0450    5.5480 C   0  0  0  0  0  0  0  0  0  0  0  0
   11.9050    3.3770    6.7110 C   0  0  0  0  0  0  0  0  0  0  0  0
   12.8350    2.9180    7.8390 C   0  0  0  0  0  0  0  0  0  0  0  0
   12.5630    3.6580    9.1470 C   0  0  0  0  0  0  0  0  0  0  0  0
   12.6120    5.1880    9.0890 C   0  0  0  0  0  0  0  0  0  0  0  0
   11.5380    5.7930    9.3560 O   0  0  0  0  0  0  0  0  0  0  0  0
   13.7460    5.6600    8.7890 O   0  0  0  0  0  0  0  0  0  0  0  0
    9.1430    6.7849    4.9598 H   0  0  0  0  0  0  0  0  0  0  0  0
   10.6351    7.0560    3.9971 H   0  0  0  0  0  0  0  0  0  0  0  0
    9.8471    5.4417    3.9971 H   0  0  0  0  0  0  0  0  0  0  0  0
   10.9535    6.7525    6.5136 H   0  0  0  0  0  0  0  0  0  0  0  0
   10.4596    5.0164    6.2321 H   0  0  0  0  0  0  0  0  0  0  0  0
   12.5494    5.8551    4.3923 H   0  0  0  0  0  0  0  0  0  0  0  0
   13.0277    6.0593    6.1409 H   0  0  0  0  0  0  0  0  0  0  0  0
   12.3410    3.5571    4.6111 H   0  0  0  0  0  0  0  0  0  0  0  0
   13.7250    3.9310    5.7405 H   0  0  0  0  0  0  0  0  0  0  0  0
   11.1835    4.0972    7.1243 H   0  0  0  0  0  0  0  0  0  0  0  0
   11.4108    2.4798    6.3101 H   0  0  0  0  0  0  0  0  0  0  0  0
   12.6870    1.8406    8.0040 H   0  0  0  0  0  0  0  0  0  0  0  0
   13.8691    3.1377    7.5350 H   0  0  0  0  0  0  0  0  0  0  0  0
   11.5596    3.3685    9.4925 H   0  0  0  0  0  0  0  0  0  0  0  0
   13.3804    3.3657    9.8226 H   0  0  0  0  0  0  0  0  0  0  0  0
  1  2  1  0
  2  3  1  0
  3  4  1  0
  4  5  1  0
  5  6  1  0
  6  7  1  0
  7  8  1  0
  8  9  2  0
  8 10  1  0
  1 11  1  0
  1 12  1  0
  1 13  1  0
  2 14  1  0
  2 15  1  0
  3 16  1  0
  3 17  1  0
  4 18  1  0
  4 19  1  0
  5 20  1  0
  5 21  1  0
  6 22  1  0
  6 23  1  0
  7 24  1  0
  7 25  1  0
M  CHG  1  10  -1
M  END
>  <meeko>  (4) 
{"is_sidechain": [false], "free_energy": -3.173, "intermolecular_energy": -3.949, "internal_energy": -0.544}

$$$$
3nq9_ligand
     RDKit          3D

 25 24  0  0  0  0  0  0  0  0999 V2000
    6.4170  -13.9730   -3.7770 C   0  0  0  0  0  0  0  0  0  0  0  0
    7.7640  -14.5500   -4.1880 C   0  0  0  0  0  0  0  0  0  0  0  0
    7.7150  -15.3400   -5.4990 C   0  0  0  0  0  0  0  0  0  0  0  0
    8.5210  -14.6880   -6.6250 C   0  0  0  0  0  0  0  0  0  0  0  0
    9.6500  -13.7840   -6.1160 C   0  0  0  0  0  0  0  0  0  0  0  0
   11.0340  -14.4360   -6.2050 C   0  0  0  0  0  0  0  0  0  0  0  0
   11.4060  -15.1750   -4.9210 C   0  0  0  0  0  0  0  0  0  0  0  0
   12.6270  -14.6470   -4.1590 C   0  0  0  0  0  0  0  0  0  0  0  0
   12.7860  -15.0830   -2.9860 O   0  0  0  0  0  0  0  0  0  0  0  0
   13.3400  -13.8380   -4.8190 O   0  0  0  0  0  0  0  0  0  0  0  0
    6.3499  -13.9443   -2.6794 H   0  0  0  0  0  0  0  0  0  0  0  0
    6.3174  -12.9533   -4.1773 H   0  0  0  0  0  0  0  0  0  0  0  0
    5.6101  -14.6044   -4.1773 H   0  0  0  0  0  0  0  0  0  0  0  0
    8.4764  -13.7204   -4.3077 H   0  0  0  0  0  0  0  0  0  0  0  0
    8.0703  -15.2518   -3.3983 H   0  0  0  0  0  0  0  0  0  0  0  0
    8.1199  -16.3463   -5.3164 H   0  0  0  0  0  0  0  0  0  0  0  0
    6.6645  -15.3706   -5.8237 H   0  0  0  0  0  0  0  0  0  0  0  0
    8.9622  -15.4828   -7.2444 H   0  0  0  0  0  0  0  0  0  0  0  0
    7.8281  -14.0538   -7.1974 H   0  0  0  0  0  0  0  0  0  0  0  0
    9.6583  -12.8631   -6.7176 H   0  0  0  0  0  0  0  0  0  0  0  0
    9.4522  -13.5822   -5.0529 H   0  0  0  0  0  0  0  0  0  0  0  0
   11.0352  -15.1527   -7.0395 H   0  0  0  0  0  0  0  0  0  0  0  0
   11.7744  -13.6378   -6.3625 H   0  0  0  0  0  0  0  0  0  0  0  0
   10.5411  -15.1242   -4.2433 H   0  0  0  0  0  0  0  0  0  0  0  0
   11.6776  -16.1926   -5.2382 H   0  0  0  0  0  0  0  0  0  0  0  0
  1  2  1  0
  2  3  1  0
  3  4  1  0
  4  5  1  0
  5  6  1  0
  6  7  1  0
  7  8  1  0
  8  9  2  0
  8 10  1  0
  1 11  1  0
  1 12  1  0
  1 13  1  0
  2 14  1  0
  2 15  1  0
  3 16  1  0
  3 17  1  0
  4 18  1  0
  4 19  1  0
  5 20  1  0
  5 21  1  0
  6 22  1  0
  6 23  1  0
  7 24  1  0
  7 25  1  0
M  CHG  1  10  -1
M  END
>  <meeko>  (5) 
{"is_sidechain": [false], "free_energy": -3.156, "intermolecular_energy": -4.112, "internal_energy": -0.358}

$$$$
3nq9_ligand
     RDKit          3D

 25 24  0  0  0  0  0  0  0  0999 V2000
   12.0440    5.3980    9.7720 C   0  0  0  0  0  0  0  0  0  0  0  0
   13.2360    4.4690    9.6010 C   0  0  0  0  0  0  0  0  0  0  0  0
   12.8510    3.0620    9.1340 C   0  0  0  0  0  0  0  0  0  0  0  0
   13.2150    2.7930    7.6720 C   0  0  0  0  0  0  0  0  0  0  0  0
   12.0600    3.0660    6.7010 C   0  0  0  0  0  0  0  0  0  0  0  0
   12.4150    4.0810    5.6090 C   0  0  0  0  0  0  0  0  0  0  0  0
   12.2330    5.5220    6.0810 C   0  0  0  0  0  0  0  0  0  0  0  0
   10.8490    6.1420    5.8640 C   0  0  0  0  0  0  0  0  0  0  0  0
   10.3800    6.8160    6.8230 O   0  0  0  0  0  0  0  0  0  0  0  0
   10.3470    5.9080    4.7270 O   0  0  0  0  0  0  0  0  0  0  0  0
   11.8486    5.5503   10.8437 H   0  0  0  0  0  0  0  0  0  0  0  0
   12.2627    6.3662    9.2980 H   0  0  0  0  0  0  0  0  0  0  0  0
   11.1585    4.9494    9.2980 H   0  0  0  0  0  0  0  0  0  0  0  0
   13.9165    4.9089    8.8571 H   0  0  0  0  0  0  0  0  0  0  0  0
   13.7093    4.3643   10.5884 H   0  0  0  0  0  0  0  0  0  0  0  0
   13.3738    2.3285    9.7654 H   0  0  0  0  0  0  0  0  0  0  0  0
   11.7578    2.9758    9.2206 H   0  0  0  0  0  0  0  0  0  0  0  0
   14.0619    3.4393    7.3981 H   0  0  0  0  0  0  0  0  0  0  0  0
   13.4658    1.7252    7.5891 H   0  0  0  0  0  0  0  0  0  0  0  0
   11.7775    2.1185    6.2189 H   0  0  0  0  0  0  0  0  0  0  0  0
   11.2341    3.4938    7.2882 H   0  0  0  0  0  0  0  0  0  0  0  0
   13.4651    3.9339    5.3162 H   0  0  0  0  0  0  0  0  0  0  0  0
   11.7361    3.9151    4.7596 H   0  0  0  0  0  0  0  0  0  0  0  0
   12.4465    5.5500    7.1597 H   0  0  0  0  0  0  0  0  0  0  0  0
   12.9201    6.1197    5.4640 H   0  0  0  0  0  0  0  0  0  0  0  0
  1  2  1  0
  2  3  1  0
  3  4  1  0
  4  5  1  0
  5  6  1  0
  6  7  1  0
  7  8  1  0
  8  9  2  0
  8 10  1  0
  1 11  1  0
  1 12  1  0
  1 13  1  0
  2 14  1  0
  2 15  1  0
  3 16  1  0
  3 17  1  0
  4 18  1  0
  4 19  1  0
  5 20  1  0
  5 21  1  0
  6 22  1  0
  6 23  1  0
  7 24  1  0
  7 25  1  0
M  CHG  1  10  -1
M  END
>  <meeko>  (6) 
{"is_sidechain": [false], "free_energy": -3.062, "intermolecular_energy": -3.834, "internal_energy": -0.509}

$$$$
3nq9_ligand
     RDKit          3D

 25 24  0  0  0  0  0  0  0  0999 V2000
   -7.2280  -11.9040   -4.8160 C   0  0  0  0  0  0  0  0  0  0  0  0
   -6.1670  -12.9820   -4.9710 C   0  0  0  0  0  0  0  0  0  0  0  0
   -5.7320  -13.2060   -6.4220 C   0  0  0  0  0  0  0  0  0  0  0  0
   -6.0080  -12.0010   -7.3250 C   0  0  0  0  0  0  0  0  0  0  0  0
   -5.2870  -12.0790   -8.6760 C   0  0  0  0  0  0  0  0  0  0  0  0
   -4.2600  -13.2150   -8.7490 C   0  0  0  0  0  0  0  0  0  0  0  0
   -4.3510  -13.9900  -10.0610 C   0  0  0  0  0  0  0  0  0  0  0  0
   -3.5630  -13.4230  -11.2470 C   0  0  0  0  0  0  0  0  0  0  0  0
   -4.1770  -12.6080  -11.9880 O   0  0  0  0  0  0  0  0  0  0  0  0
   -2.3710  -13.8400  -11.3250 O   0  0  0  0  0  0  0  0  0  0  0  0
   -7.4097  -11.7194   -3.7469 H   0  0  0  0  0  0  0  0  0  0  0  0
   -6.8808  -10.9763   -5.2945 H   0  0  0  0  0  0  0  0  0  0  0  0
   -8.1611  -12.2364   -5.2945 H   0  0  0  0  0  0  0  0  0  0  0  0
   -5.2841  -12.6887   -4.3841 H   0  0  0  0  0  0  0  0  0  0  0  0
   -6.6090  -13.9248   -4.6163 H   0  0  0  0  0  0  0  0  0  0  0  0
   -4.6518  -13.4134   -6.4355 H   0  0  0  0  0  0  0  0  0  0  0  0
   -6.3186  -14.0502   -6.8135 H   0  0  0  0  0  0  0  0  0  0  0  0
   -7.0909  -11.9437   -7.5097 H   0  0  0  0  0  0  0  0  0  0  0  0
   -5.6291  -11.1093   -6.8040 H   0  0  0  0  0  0  0  0  0  0  0  0
   -6.0380  -12.2357   -9.4643 H   0  0  0  0  0  0  0  0  0  0  0  0
   -4.7390  -11.1345   -8.8085 H   0  0  0  0  0  0  0  0  0  0  0  0
   -3.2508  -12.7867   -8.6597 H   0  0  0  0  0  0  0  0  0  0  0  0
   -4.4714  -13.9152   -7.9274 H   0  0  0  0  0  0  0  0  0  0  0  0
   -3.9838  -15.0097   -9.8728 H   0  0  0  0  0  0  0  0  0  0  0  0
   -5.4080  -13.9325  -10.3600 H   0  0  0  0  0  0  0  0  0  0  0  0
  1  2  1  0
  2  3  1  0
  3  4  1  0
  4  5  1  0
  5  6  1  0
  6  7  1  0
  7  8  1  0
  8  9  2  0
  8 10  1  0
  1 11  1  0
  1 12  1  0
  1 13  1  0
  2 14  1  0
  2 15  1  0
  3 16  1  0
  3 17  1  0
  4 18  1  0
  4 19  1  0
  5 20  1  0
  5 21  1  0
  6 22  1  0
  6 23  1  0
  7 24  1  0
  7 25  1  0
M  CHG  1  10  -1
M  END
>  <meeko>  (7) 
{"is_sidechain": [false], "free_energy": -3.048, "intermolecular_energy": -4.058, "internal_energy": -0.266}

$$$$
3nq9_ligand
     RDKit          3D

 25 24  0  0  0  0  0  0  0  0999 V2000
    7.0410   -7.7950   -3.0690 C   0  0  0  0  0  0  0  0  0  0  0  0
    5.7330   -7.0230   -3.1470 C   0  0  0  0  0  0  0  0  0  0  0  0
    5.9230   -5.5250   -3.4080 C   0  0  0  0  0  0  0  0  0  0  0  0
    4.8500   -4.6590   -2.7440 C   0  0  0  0  0  0  0  0  0  0  0  0
    3.7400   -5.4760   -2.0730 C   0  0  0  0  0  0  0  0  0  0  0  0
    2.8520   -4.6430   -1.1430 C   0  0  0  0  0  0  0  0  0  0  0  0
    3.5670   -4.2690    0.1530 C   0  0  0  0  0  0  0  0  0  0  0  0
    3.6070   -2.7780    0.5050 C   0  0  0  0  0  0  0  0  0  0  0  0
    3.1730   -2.4600    1.6460 O   0  0  0  0  0  0  0  0  0  0  0  0
    4.0920   -2.0430   -0.4030 O   0  0  0  0  0  0  0  0  0  0  0  0
    7.3105   -7.9541   -2.0145 H   0  0  0  0  0  0  0  0  0  0  0  0
    6.9227   -8.7681   -3.5681 H   0  0  0  0  0  0  0  0  0  0  0  0
    7.8358   -7.2212   -3.5681 H   0  0  0  0  0  0  0  0  0  0  0  0
    5.1277   -7.4447   -3.9630 H   0  0  0  0  0  0  0  0  0  0  0  0
    5.2400   -7.1214   -2.1686 H   0  0  0  0  0  0  0  0  0  0  0  0
    6.9066   -5.2238   -3.0183 H   0  0  0  0  0  0  0  0  0  0  0  0
    5.8448   -5.3688   -4.4940 H   0  0  0  0  0  0  0  0  0  0  0  0
    5.3317   -4.0312   -1.9800 H   0  0  0  0  0  0  0  0  0  0  0  0
    4.3789   -4.0595   -3.5369 H   0  0  0  0  0  0  0  0  0  0  0  0
    3.1074   -5.9162   -2.8579 H   0  0  0  0  0  0  0  0  0  0  0  0
    4.2287   -6.2438   -1.4553 H   0  0  0  0  0  0  0  0  0  0  0  0
    2.5591   -3.7202   -1.6652 H   0  0  0  0  0  0  0  0  0  0  0  0
    1.9731   -5.2504   -0.8812 H   0  0  0  0  0  0  0  0  0  0  0  0
    3.0616   -4.7937    0.9772 H   0  0  0  0  0  0  0  0  0  0  0  0
    4.6167   -4.5611    0.0017 H   0  0  0  0  0  0  0  0  0  0  0  0
  1  2  1  0
  2  3  1  0
  3  4  1  0
  4  5  1  0
  5  6  1  0
  6  7  1  0
  7  8  1  0
  8  9  2  0
  8 10  1  0
  1 11  1  0
  1 12  1  0
  1 13  1  0
  2 14  1  0
  2 15  1  0
  3 16  1  0
  3 17  1  0
  4 18  1  0
  4 19  1  0
  5 20  1  0
  5 21  1  0
  6 22  1  0
  6 23  1  0
  7 24  1  0
  7 25  1  0
M  CHG  1  10  -1
M  END
>  <meeko>  (8) 
{"is_sidechain": [false], "free_energy": -3.037, "intermolecular_energy": -3.996, "internal_energy": -0.313}

$$$$
3nq9_ligand
     RDKit          3D

 25 24  0  0  0  0  0  0  0  0999 V2000
   10.9990    6.8850    7.5760 C   0  0  0  0  0  0  0  0  0  0  0  0
   10.4640    6.9070    6.1520 C   0  0  0  0  0  0  0  0  0  0  0  0
   11.0050    5.7700    5.2800 C   0  0  0  0  0  0  0  0  0  0  0  0
   12.3640    5.2450    5.7500 C   0  0  0  0  0  0  0  0  0  0  0  0
   12.5170    3.7290    5.5840 C   0  0  0  0  0  0  0  0  0  0  0  0
   12.5420    2.9750    6.9180 C   0  0  0  0  0  0  0  0  0  0  0  0
   13.2240    3.7790    8.0230 C   0  0  0  0  0  0  0  0  0  0  0  0
   12.7230    3.5390    9.4510 C   0  0  0  0  0  0  0  0  0  0  0  0
   13.0450    2.4400    9.9810 O   0  0  0  0  0  0  0  0  0  0  0  0
   12.0490    4.4950    9.9320 O   0  0  0  0  0  0  0  0  0  0  0  0
   10.1580    6.9196    8.2842 H   0  0  0  0  0  0  0  0  0  0  0  0
   11.5760    5.9624    7.7367 H   0  0  0  0  0  0  0  0  0  0  0  0
   11.6498    7.7571    7.7367 H   0  0  0  0  0  0  0  0  0  0  0  0
    9.3677    6.8253    6.1904 H   0  0  0  0  0  0  0  0  0  0  0  0
   10.7955    7.8514    5.6957 H   0  0  0  0  0  0  0  0  0  0  0  0
   10.2834    4.9400    5.3002 H   0  0  0  0  0  0  0  0  0  0  0  0
   11.1427    6.1726    4.2656 H   0  0  0  0  0  0  0  0  0  0  0  0
   13.1519    5.7419    5.1649 H   0  0  0  0  0  0  0  0  0  0  0  0
   12.4453    5.4656    6.8246 H   0  0  0  0  0  0  0  0  0  0  0  0
   11.6718    3.3556    4.9872 H   0  0  0  0  0  0  0  0  0  0  0  0
   13.4831    3.5502    5.0893 H   0  0  0  0  0  0  0  0  0  0  0  0
   11.5071    2.7607    7.2231 H   0  0  0  0  0  0  0  0  0  0  0  0
   13.1164    2.0484    6.7712 H   0  0  0  0  0  0  0  0  0  0  0  0
   14.2966    3.5361    7.9998 H   0  0  0  0  0  0  0  0  0  0  0  0
   12.9893    4.8313    7.8049 H   0  0  0  0  0  0  0  0  0  0  0  0
  1  2  1  0
  2  3  1  0
  3  4  1  0
  4  5  1  0
  5  6  1  0
  6  7  1  0
  7  8  1  0
  8  9  2  0
  8 10  1  0
  1 11  1  0
  1 12  1  0
  1 13  1  0
  2 14  1  0
  2 15  1  0
  3 16  1  0
  3 17  1  0
  4 18  1  0
  4 19  1  0
  5 20  1  0
  5 21  1  0
  6 22  1  0
  6 23  1  0
  7 24  1  0
  7 25  1  0
M  CHG  1  10  -1
M  END
>  <meeko>  (9) 
{"is_sidechain": [false], "free_energy": -2.991, "intermolecular_energy": -3.817, "internal_energy": -0.43}

$$$$
