1z95_ligand
     RDKit          3D

 43 44  0  0  0  0  0  0  0  0999 V2000
    5.3830   -9.9040   -3.5230 C   0  0  0  0  0  0  0  0  0  0  0  0
    4.8660   -8.4960   -3.8470 C   0  0  2  0  0  0  0  0  0  0  0  0
    4.9730   -8.3750   -5.2740 O   0  0  0  0  0  0  0  0  0  0  0  0
    5.7330   -7.4610   -3.1250 C   0  0  0  0  0  0  0  0  0  0  0  0
    6.1890   -6.1230   -4.2090 S   0  0  0  0  0  0  0  0  0  0  0  0
    5.0070   -5.5200   -4.7850 O   0  0  0  0  0  0  0  0  0  0  0  0
    7.2560   -6.6150   -5.0640 O   0  0  0  0  0  0  0  0  0  0  0  0
    6.8960   -4.9240   -3.1010 C   0  0  0  0  0  0  0  0  0  0  0  0
    7.8810   -5.3160   -2.1870 C   0  0  0  0  0  0  0  0  0  0  0  0
    8.4330   -4.3630   -1.3310 C   0  0  0  0  0  0  0  0  0  0  0  0
    8.0070   -3.0400   -1.4040 C   0  0  0  0  0  0  0  0  0  0  0  0
    8.5420   -2.1300   -0.5800 F   0  0  0  0  0  0  0  0  0  0  0  0
    7.0400   -2.6450   -2.3240 C   0  0  0  0  0  0  0  0  0  0  0  0
    6.4800   -3.5900   -3.1840 C   0  0  0  0  0  0  0  0  0  0  0  0
    3.3980   -8.4390   -3.3640 C   0  0  0  0  0  0  0  0  0  0  0  0
    2.7570   -9.4640   -3.1580 O   0  0  0  0  0  0  0  0  0  0  0  0
    2.9310   -7.1390   -3.2980 N   0  0  0  0  0  0  0  0  0  0  0  0
    1.6600   -6.6950   -2.8960 C   0  0  0  0  0  0  0  0  0  0  0  0
    1.3140   -6.8850   -1.5550 C   0  0  0  0  0  0  0  0  0  0  0  0
    0.0670   -6.4730   -1.0770 C   0  0  0  0  0  0  0  0  0  0  0  0
   -0.8570   -5.8650   -1.9350 C   0  0  0  0  0  0  0  0  0  0  0  0
   -2.1270   -5.4580   -1.4010 C   0  0  0  0  0  0  0  0  0  0  0  0
   -3.1460   -5.1320   -0.9550 N   0  0  0  0  0  0  0  0  0  0  0  0
   -0.5260   -5.6700   -3.2880 C   0  0  0  0  0  0  0  0  0  0  0  0
   -1.5050   -5.0190   -4.2360 C   0  0  0  0  0  0  0  0  0  0  0  0
   -1.6130   -3.6800   -4.0280 F   0  0  0  0  0  0  0  0  0  0  0  0
   -1.1440   -5.1770   -5.5390 F   0  0  0  0  0  0  0  0  0  0  0  0
   -2.7700   -5.5110   -4.1420 F   0  0  0  0  0  0  0  0  0  0  0  0
    0.7360   -6.0920   -3.7540 C   0  0  0  0  0  0  0  0  0  0  0  0
    5.4311  -10.0349   -2.4319 H   0  0  0  0  0  0  0  0  0  0  0  0
    4.7012  -10.6528   -3.9524 H   0  0  0  0  0  0  0  0  0  0  0  0
    6.3874  -10.0336   -3.9524 H   0  0  0  0  0  0  0  0  0  0  0  0
    4.1160   -8.6460   -5.6750 H   0  0  0  0  0  0  0  0  0  0  0  0
    5.1692   -7.0543   -2.2725 H   0  0  0  0  0  0  0  0  0  0  0  0
    6.6530   -7.9583   -2.7839 H   0  0  0  0  0  0  0  0  0  0  0  0
    8.2157   -6.3630   -2.1443 H   0  0  0  0  0  0  0  0  0  0  0  0
    9.2020   -4.6559   -0.6011 H   0  0  0  0  0  0  0  0  0  0  0  0
    6.7193   -1.5939   -2.3727 H   0  0  0  0  0  0  0  0  0  0  0  0
    5.7194   -3.2899   -3.9198 H   0  0  0  0  0  0  0  0  0  0  0  0
    3.6090   -6.4320   -3.5750 H   0  0  0  0  0  0  0  0  0  0  0  0
    2.0296   -7.3630   -0.8699 H   0  0  0  0  0  0  0  0  0  0  0  0
   -0.1903   -6.6276   -0.0188 H   0  0  0  0  0  0  0  0  0  0  0  0
    0.9981   -5.9440   -4.8120 H   0  0  0  0  0  0  0  0  0  0  0  0
  1  2  1  0
  2  3  1  6
  2  4  1  0
  4  5  1  0
  5  6  2  0
  5  7  2  0
  5  8  1  0
  8  9  2  0
  9 10  1  0
 10 11  2  0
 11 12  1  0
 11 13  1  0
 13 14  2  0
  2 15  1  0
 15 16  2  0
 15 17  1  0
 17 18  1  0
 18 19  2  0
 19 20  1  0
 20 21  2  0
 21 22  1  0
 22 23  3  0
 21 24  1  0
 24 25  1  0
 25 26  1  0
 25 27  1  0
 25 28  1  0
 24 29  2  0
 14  8  1  0
 29 18  1  0
  1 30  1  0
  1 31  1  0
  1 32  1  0
  3 33  1  0
  4 34  1  0
  4 35  1  0
  9 36  1  0
 10 37  1  0
 13 38  1  0
 14 39  1  0
 17 40  1  0
 19 41  1  0
 20 42  1  0
 29 43  1  0
M  END
>  <meeko>  (1) 
{"is_sidechain": [false], "free_energy": -6.218, "intermolecular_energy": -8.58, "internal_energy": -1.192}

$$$$
1z95_ligand
     RDKit          3D

 43 44  0  0  0  0  0  0  0  0999 V2000
    5.2680   -9.8350   -3.0350 C   0  0  0  0  0  0  0  0  0  0  0  0
    4.9550   -8.4720   -3.6680 C   0  0  2  0  0  0  0  0  0  0  0  0
    5.3450   -8.5990   -5.0450 O   0  0  0  0  0  0  0  0  0  0  0  0
    5.7580   -7.3850   -2.9500 C   0  0  0  0  0  0  0  0  0  0  0  0
    6.3810   -6.1710   -4.0960 S   0  0  0  0  0  0  0  0  0  0  0  0
    5.2920   -5.5920   -4.8520 O   0  0  0  0  0  0  0  0  0  0  0  0
    7.5140   -6.7740   -4.7790 O   0  0  0  0  0  0  0  0  0  0  0  0
    7.0120   -4.8930   -3.0320 C   0  0  0  0  0  0  0  0  0  0  0  0
    6.4820   -3.6000   -3.1070 C   0  0  0  0  0  0  0  0  0  0  0  0
    6.9800   -2.6090   -2.2610 C   0  0  0  0  0  0  0  0  0  0  0  0
    7.9850   -2.9210   -1.3500 C   0  0  0  0  0  0  0  0  0  0  0  0
    8.4580   -1.9660   -0.5400 F   0  0  0  0  0  0  0  0  0  0  0  0
    8.5020   -4.2110   -1.2630 C   0  0  0  0  0  0  0  0  0  0  0  0
    8.0120   -5.2080   -2.1050 C   0  0  0  0  0  0  0  0  0  0  0  0
    3.4330   -8.2480   -3.5110 C   0  0  0  0  0  0  0  0  0  0  0  0
    2.7120   -9.1090   -3.0210 O   0  0  0  0  0  0  0  0  0  0  0  0
    3.0340   -7.0420   -4.0600 N   0  0  0  0  0  0  0  0  0  0  0  0
    1.7410   -6.4940   -4.0970 C   0  0  0  0  0  0  0  0  0  0  0  0
    1.2670   -6.0640   -5.3400 C   0  0  0  0  0  0  0  0  0  0  0  0
   -0.0080   -5.5040   -5.4600 C   0  0  0  0  0  0  0  0  0  0  0  0
   -0.8310   -5.3660   -4.3360 C   0  0  0  0  0  0  0  0  0  0  0  0
   -2.1350   -4.7860   -4.5060 C   0  0  0  0  0  0  0  0  0  0  0  0
   -3.1850   -4.3190   -4.6590 N   0  0  0  0  0  0  0  0  0  0  0  0
   -0.3690   -5.7910   -3.0780 C   0  0  0  0  0  0  0  0  0  0  0  0
   -1.2350   -5.6520   -1.8500 C   0  0  0  0  0  0  0  0  0  0  0  0
   -0.8650   -6.5020   -0.8560 F   0  0  0  0  0  0  0  0  0  0  0  0
   -1.1830   -4.3990   -1.3200 F   0  0  0  0  0  0  0  0  0  0  0  0
   -2.5540   -5.8990   -2.0770 F   0  0  0  0  0  0  0  0  0  0  0  0
    0.9210   -6.3520   -2.9750 C   0  0  0  0  0  0  0  0  0  0  0  0
    5.2470   -9.7438   -1.9390 H   0  0  0  0  0  0  0  0  0  0  0  0
    4.5153  -10.5700   -3.3562 H   0  0  0  0  0  0  0  0  0  0  0  0
    6.2660  -10.1680   -3.3562 H   0  0  0  0  0  0  0  0  0  0  0  0
    4.6250   -8.2330   -5.6080 H   0  0  0  0  0  0  0  0  0  0  0  0
    5.1075   -6.8847   -2.2175 H   0  0  0  0  0  0  0  0  0  0  0  0
    6.6149   -7.8610   -2.4509 H   0  0  0  0  0  0  0  0  0  0  0  0
    5.6817   -3.3677   -3.8250 H   0  0  0  0  0  0  0  0  0  0  0  0
    6.5803   -1.5856   -2.3136 H   0  0  0  0  0  0  0  0  0  0  0  0
    9.2926   -4.4420   -0.5339 H   0  0  0  0  0  0  0  0  0  0  0  0
    8.4075   -6.2325   -2.0414 H   0  0  0  0  0  0  0  0  0  0  0  0
    3.7860   -6.4990   -4.4780 H   0  0  0  0  0  0  0  0  0  0  0  0
    1.9031   -6.1673   -6.2314 H   0  0  0  0  0  0  0  0  0  0  0  0
   -0.3672   -5.1694   -6.4444 H   0  0  0  0  0  0  0  0  0  0  0  0
    1.2883   -6.6839   -1.9927 H   0  0  0  0  0  0  0  0  0  0  0  0
  1  2  1  0
  2  3  1  6
  2  4  1  0
  4  5  1  0
  5  6  2  0
  5  7  2  0
  5  8  1  0
  8  9  2  0
  9 10  1  0
 10 11  2  0
 11 12  1  0
 11 13  1  0
 13 14  2  0
  2 15  1  0
 15 16  2  0
 15 17  1  0
 17 18  1  0
 18 19  2  0
 19 20  1  0
 20 21  2  0
 21 22  1  0
 22 23  3  0
 21 24  1  0
 24 25  1  0
 25 26  1  0
 25 27  1  0
 25 28  1  0
 24 29  2  0
 14  8  1  0
 29 18  1  0
  1 30  1  0
  1 31  1  0
  1 32  1  0
  3 33  1  0
  4 34  1  0
  4 35  1  0
  9 36  1  0
 10 37  1  0
 13 38  1  0
 14 39  1  0
 17 40  1  0
 19 41  1  0
 20 42  1  0
 29 43  1  0
M  END
>  <meeko>  (2) 
{"is_sidechain": [false], "free_energy": -5.788, "intermolecular_energy": -8.261, "internal_energy": -0.918}

$$$$
1z95_ligand
     RDKit          3D

 43 44  0  0  0  0  0  0  0  0999 V2000
    6.3300   -6.9640   -5.5670 C   0  0  0  0  0  0  0  0  0  0  0  0
    5.4290   -6.9230   -4.3260 C   0  0  2  0  0  0  0  0  0  0  0  0
    5.7500   -8.1140   -3.5880 O   0  0  0  0  0  0  0  0  0  0  0  0
    3.9630   -6.9080   -4.7660 C   0  0  0  0  0  0  0  0  0  0  0  0
    2.9020   -7.6160   -3.5220 S   0  0  0  0  0  0  0  0  0  0  0  0
    3.4250   -7.3410   -2.2020 O   0  0  0  0  0  0  0  0  0  0  0  0
    2.6200   -8.9820   -3.9330 O   0  0  0  0  0  0  0  0  0  0  0  0
    1.3980   -6.6820   -3.6900 C   0  0  0  0  0  0  0  0  0  0  0  0
    0.7470   -6.1990   -2.5490 C   0  0  0  0  0  0  0  0  0  0  0  0
   -0.4270   -5.4600   -2.6950 C   0  0  0  0  0  0  0  0  0  0  0  0
   -0.9280   -5.2070   -3.9690 C   0  0  0  0  0  0  0  0  0  0  0  0
   -2.0550   -4.4960   -4.1030 F   0  0  0  0  0  0  0  0  0  0  0  0
   -0.2740   -5.6730   -5.1060 C   0  0  0  0  0  0  0  0  0  0  0  0
    0.9010   -6.4130   -4.9710 C   0  0  0  0  0  0  0  0  0  0  0  0
    5.8000   -5.6380   -3.5490 C   0  0  0  0  0  0  0  0  0  0  0  0
    4.9980   -4.7190   -3.4230 O   0  0  0  0  0  0  0  0  0  0  0  0
    7.1190   -5.6540   -3.1340 N   0  0  0  0  0  0  0  0  0  0  0  0
    7.8070   -4.6740   -2.3990 C   0  0  0  0  0  0  0  0  0  0  0  0
    8.5010   -5.0990   -1.2630 C   0  0  0  0  0  0  0  0  0  0  0  0
    9.2070   -4.1850   -0.4770 C   0  0  0  0  0  0  0  0  0  0  0  0
    9.2310   -2.8270   -0.8160 C   0  0  0  0  0  0  0  0  0  0  0  0
    9.9710   -1.9220    0.0210 C   0  0  0  0  0  0  0  0  0  0  0  0
   10.5740   -1.2050    0.7030 N   0  0  0  0  0  0  0  0  0  0  0  0
    8.5350   -2.3810   -1.9530 C   0  0  0  0  0  0  0  0  0  0  0  0
    8.5420   -0.9220   -2.3400 C   0  0  0  0  0  0  0  0  0  0  0  0
    8.3380   -0.7380   -3.6720 F   0  0  0  0  0  0  0  0  0  0  0  0
    7.5710   -0.2140   -1.7020 F   0  0  0  0  0  0  0  0  0  0  0  0
    9.7100   -0.2830   -2.0540 F   0  0  0  0  0  0  0  0  0  0  0  0
    7.8270   -3.3170   -2.7350 C   0  0  0  0  0  0  0  0  0  0  0  0
    7.3834   -7.0119   -5.2539 H   0  0  0  0  0  0  0  0  0  0  0  0
    6.0855   -7.8519   -6.1685 H   0  0  0  0  0  0  0  0  0  0  0  0
    6.1671   -6.0575   -6.1685 H   0  0  0  0  0  0  0  0  0  0  0  0
    4.9200   -8.4690   -3.1940 H   0  0  0  0  0  0  0  0  0  0  0  0
    3.6551   -5.8679   -4.9489 H   0  0  0  0  0  0  0  0  0  0  0  0
    3.8709   -7.5099   -5.6821 H   0  0  0  0  0  0  0  0  0  0  0  0
    1.1567   -6.4000   -1.5481 H   0  0  0  0  0  0  0  0  0  0  0  0
   -0.9543   -5.0791   -1.8080 H   0  0  0  0  0  0  0  0  0  0  0  0
   -0.6813   -5.4590   -6.1052 H   0  0  0  0  0  0  0  0  0  0  0  0
    1.4314   -6.7812   -5.8616 H   0  0  0  0  0  0  0  0  0  0  0  0
    7.6350   -6.4900   -3.3990 H   0  0  0  0  0  0  0  0  0  0  0  0
    8.4913   -6.1633   -0.9850 H   0  0  0  0  0  0  0  0  0  0  0  0
    9.7479   -4.5349    0.4146 H   0  0  0  0  0  0  0  0  0  0  0  0
    7.2805   -2.9731   -3.6256 H   0  0  0  0  0  0  0  0  0  0  0  0
  1  2  1  0
  2  3  1  1
  2  4  1  0
  4  5  1  0
  5  6  2  0
  5  7  2  0
  5  8  1  0
  8  9  2  0
  9 10  1  0
 10 11  2  0
 11 12  1  0
 11 13  1  0
 13 14  2  0
  2 15  1  0
 15 16  2  0
 15 17  1  0
 17 18  1  0
 18 19  2  0
 19 20  1  0
 20 21  2  0
 21 22  1  0
 22 23  3  0
 21 24  1  0
 24 25  1  0
 25 26  1  0
 25 27  1  0
 25 28  1  0
 24 29  2  0
 14  8  1  0
 29 18  1  0
  1 30  1  0
  1 31  1  0
  1 32  1  0
  3 33  1  0
  4 34  1  0
  4 35  1  0
  9 36  1  0
 10 37  1  0
 13 38  1  0
 14 39  1  0
 17 40  1  0
 19 41  1  0
 20 42  1  0
 29 43  1  0
M  END
>  <meeko>  (3) 
{"is_sidechain": [false], "free_energy": -5.598, "intermolecular_energy": -8.49, "internal_energy": -0.428}

$$$$
1z95_ligand
     RDKit          3D

 43 44  0  0  0  0  0  0  0  0999 V2000
    6.6680   -8.2620   -3.9350 C   0  0  0  0  0  0  0  0  0  0  0  0
    6.1080   -6.8500   -4.1510 C   0  0  2  0  0  0  0  0  0  0  0  0
    6.2970   -6.5790   -5.5490 O   0  0  0  0  0  0  0  0  0  0  0  0
    6.8810   -5.8610   -3.2740 C   0  0  0  0  0  0  0  0  0  0  0  0
    6.1150   -4.2530   -3.2750 S   0  0  0  0  0  0  0  0  0  0  0  0
    4.9050   -4.2740   -2.4820 O   0  0  0  0  0  0  0  0  0  0  0  0
    6.0820   -3.7990   -4.6560 O   0  0  0  0  0  0  0  0  0  0  0  0
    7.2890   -3.2410   -2.4030 C   0  0  0  0  0  0  0  0  0  0  0  0
    6.8510   -2.1110   -1.7030 C   0  0  0  0  0  0  0  0  0  0  0  0
    7.7820   -1.3320   -1.0160 C   0  0  0  0  0  0  0  0  0  0  0  0
    9.1270   -1.6930   -1.0280 C   0  0  0  0  0  0  0  0  0  0  0  0
   10.0150   -0.9410   -0.3650 F   0  0  0  0  0  0  0  0  0  0  0  0
    9.5620   -2.8250   -1.7100 C   0  0  0  0  0  0  0  0  0  0  0  0
    8.6400   -3.6110   -2.4010 C   0  0  0  0  0  0  0  0  0  0  0  0
    4.6120   -6.9010   -3.7620 C   0  0  0  0  0  0  0  0  0  0  0  0
    4.2150   -7.6280   -2.8590 O   0  0  0  0  0  0  0  0  0  0  0  0
    3.8390   -6.1200   -4.6020 N   0  0  0  0  0  0  0  0  0  0  0  0
    2.4500   -5.9110   -4.5540 C   0  0  0  0  0  0  0  0  0  0  0  0
    1.7770   -5.8200   -5.7750 C   0  0  0  0  0  0  0  0  0  0  0  0
    0.3960   -5.6090   -5.8120 C   0  0  0  0  0  0  0  0  0  0  0  0
   -0.3350   -5.4850   -4.6250 C   0  0  0  0  0  0  0  0  0  0  0  0
   -1.7540   -5.2700   -4.7110 C   0  0  0  0  0  0  0  0  0  0  0  0
   -2.8980   -5.1000   -4.7950 N   0  0  0  0  0  0  0  0  0  0  0  0
    0.3270   -5.5710   -3.3880 C   0  0  0  0  0  0  0  0  0  0  0  0
   -0.4370   -5.4390   -2.0920 C   0  0  0  0  0  0  0  0  0  0  0  0
   -0.7950   -6.6450   -1.5770 F   0  0  0  0  0  0  0  0  0  0  0  0
    0.2870   -4.8090   -1.1270 F   0  0  0  0  0  0  0  0  0  0  0  0
   -1.5930   -4.7280   -2.2060 F   0  0  0  0  0  0  0  0  0  0  0  0
    1.7210   -5.7830   -3.3690 C   0  0  0  0  0  0  0  0  0  0  0  0
    6.7480   -8.4637   -2.8566 H   0  0  0  0  0  0  0  0  0  0  0  0
    5.9939   -8.9984   -4.3968 H   0  0  0  0  0  0  0  0  0  0  0  0
    7.6636   -8.3362   -4.3968 H   0  0  0  0  0  0  0  0  0  0  0  0
    6.8450   -7.3010   -5.9350 H   0  0  0  0  0  0  0  0  0  0  0  0
    6.9088   -6.2433   -2.2429 H   0  0  0  0  0  0  0  0  0  0  0  0
    7.8979   -5.7597   -3.6810 H   0  0  0  0  0  0  0  0  0  0  0  0
    5.7849   -1.8403   -1.6947 H   0  0  0  0  0  0  0  0  0  0  0  0
    7.4553   -0.4364   -0.4671 H   0  0  0  0  0  0  0  0  0  0  0  0
   10.6274   -3.0986   -1.7043 H   0  0  0  0  0  0  0  0  0  0  0  0
    8.9703   -4.5120   -2.9387 H   0  0  0  0  0  0  0  0  0  0  0  0
    4.3600   -5.6430   -5.3340 H   0  0  0  0  0  0  0  0  0  0  0  0
    2.3392   -5.9153   -6.7157 H   0  0  0  0  0  0  0  0  0  0  0  0
   -0.1201   -5.5399   -6.7809 H   0  0  0  0  0  0  0  0  0  0  0  0
    2.2440   -5.8488   -2.4035 H   0  0  0  0  0  0  0  0  0  0  0  0
  1  2  1  0
  2  3  1  6
  2  4  1  0
  4  5  1  0
  5  6  2  0
  5  7  2  0
  5  8  1  0
  8  9  2  0
  9 10  1  0
 10 11  2  0
 11 12  1  0
 11 13  1  0
 13 14  2  0
  2 15  1  0
 15 16  2  0
 15 17  1  0
 17 18  1  0
 18 19  2  0
 19 20  1  0
 20 21  2  0
 21 22  1  0
 22 23  3  0
 21 24  1  0
 24 25  1  0
 25 26  1  0
 25 27  1  0
 25 28  1  0
 24 29  2  0
 14  8  1  0
 29 18  1  0
  1 30  1  0
  1 31  1  0
  1 32  1  0
  3 33  1  0
  4 34  1  0
  4 35  1  0
  9 36  1  0
 10 37  1  0
 13 38  1  0
 14 39  1  0
 17 40  1  0
 19 41  1  0
 20 42  1  0
 29 43  1  0
M  END
>  <meeko>  (4) 
{"is_sidechain": [false], "free_energy": -4.864, "intermolecular_energy": -7.775, "internal_energy": -0.13}

$$$$
1z95_ligand
     RDKit          3D

 43 44  0  0  0  0  0  0  0  0999 V2000
    5.2560   -8.6290   -4.6640 C   0  0  0  0  0  0  0  0  0  0  0  0
    4.3780   -7.7590   -3.7540 C   0  0  2  0  0  0  0  0  0  0  0  0
    4.5720   -8.2830   -2.4310 O   0  0  0  0  0  0  0  0  0  0  0  0
    2.9190   -7.8740   -4.2000 C   0  0  0  0  0  0  0  0  0  0  0  0
    1.8080   -7.8610   -2.8070 S   0  0  0  0  0  0  0  0  0  0  0  0
    2.4700   -7.3100   -1.6440 O   0  0  0  0  0  0  0  0  0  0  0  0
    1.1860   -9.1740   -2.7470 O   0  0  0  0  0  0  0  0  0  0  0  0
    0.5570   -6.6940   -3.2930 C   0  0  0  0  0  0  0  0  0  0  0  0
   -0.1670   -6.0010   -2.3160 C   0  0  0  0  0  0  0  0  0  0  0  0
   -1.1380   -5.0820   -2.7110 C   0  0  0  0  0  0  0  0  0  0  0  0
   -1.3670   -4.8600   -4.0660 C   0  0  0  0  0  0  0  0  0  0  0  0
   -2.3010   -3.9750   -4.4400 F   0  0  0  0  0  0  0  0  0  0  0  0
   -0.6360   -5.5360   -5.0390 C   0  0  0  0  0  0  0  0  0  0  0  0
    0.3370   -6.4570   -4.6550 C   0  0  0  0  0  0  0  0  0  0  0  0
    4.8980   -6.3090   -3.8900 C   0  0  0  0  0  0  0  0  0  0  0  0
    4.5370   -5.5880   -4.8140 O   0  0  0  0  0  0  0  0  0  0  0  0
    5.8410   -6.0110   -2.9230 N   0  0  0  0  0  0  0  0  0  0  0  0
    6.5230   -4.7990   -2.7240 C   0  0  0  0  0  0  0  0  0  0  0  0
    5.9790   -3.6560   -3.3170 C   0  0  0  0  0  0  0  0  0  0  0  0
    6.6000   -2.4130   -3.1690 C   0  0  0  0  0  0  0  0  0  0  0  0
    7.7780   -2.2930   -2.4230 C   0  0  0  0  0  0  0  0  0  0  0  0
    8.3820   -0.9950   -2.2960 C   0  0  0  0  0  0  0  0  0  0  0  0
    8.8560    0.0590   -2.1990 N   0  0  0  0  0  0  0  0  0  0  0  0
    8.3410   -3.4330   -1.8220 C   0  0  0  0  0  0  0  0  0  0  0  0
    9.6120   -3.3310   -1.0140 C   0  0  0  0  0  0  0  0  0  0  0  0
    9.9700   -4.5200   -0.4600 F   0  0  0  0  0  0  0  0  0  0  0  0
   10.6710   -2.9250   -1.7660 F   0  0  0  0  0  0  0  0  0  0  0  0
    9.5370   -2.4490    0.0200 F   0  0  0  0  0  0  0  0  0  0  0  0
    7.7020   -4.6800   -1.9830 C   0  0  0  0  0  0  0  0  0  0  0  0
    5.9025   -9.2696   -4.0462 H   0  0  0  0  0  0  0  0  0  0  0  0
    4.6152   -9.2584   -5.2990 H   0  0  0  0  0  0  0  0  0  0  0  0
    5.8795   -7.9825   -5.2990 H   0  0  0  0  0  0  0  0  0  0  0  0
    3.6880   -8.4440   -2.0270 H   0  0  0  0  0  0  0  0  0  0  0  0
    2.6781   -7.0255   -4.8573 H   0  0  0  0  0  0  0  0  0  0  0  0
    2.7947   -8.8288   -4.7320 H   0  0  0  0  0  0  0  0  0  0  0  0
    0.0280   -6.1795   -1.2482 H   0  0  0  0  0  0  0  0  0  0  0  0
   -1.7206   -4.5347   -1.9553 H   0  0  0  0  0  0  0  0  0  0  0  0
   -0.8254   -5.3442   -6.1055 H   0  0  0  0  0  0  0  0  0  0  0  0
    0.9260   -6.9922   -5.4144 H   0  0  0  0  0  0  0  0  0  0  0  0
    6.0480   -6.7760   -2.2850 H   0  0  0  0  0  0  0  0  0  0  0  0
    5.0533   -3.7358   -3.9057 H   0  0  0  0  0  0  0  0  0  0  0  0
    6.1599   -1.5227   -3.6421 H   0  0  0  0  0  0  0  0  0  0  0  0
    8.1395   -5.5752   -1.5169 H   0  0  0  0  0  0  0  0  0  0  0  0
  1  2  1  0
  2  3  1  1
  2  4  1  0
  4  5  1  0
  5  6  2  0
  5  7  2  0
  5  8  1  0
  8  9  2  0
  9 10  1  0
 10 11  2  0
 11 12  1  0
 11 13  1  0
 13 14  2  0
  2 15  1  0
 15 16  2  0
 15 17  1  0
 17 18  1  0
 18 19  2  0
 19 20  1  0
 20 21  2  0
 21 22  1  0
 22 23  3  0
 21 24  1  0
 24 25  1  0
 25 26  1  0
 25 27  1  0
 25 28  1  0
 24 29  2  0
 14  8  1  0
 29 18  1  0
  1 30  1  0
  1 31  1  0
  1 32  1  0
  3 33  1  0
  4 34  1  0
  4 35  1  0
  9 36  1  0
 10 37  1  0
 13 38  1  0
 14 39  1  0
 17 40  1  0
 19 41  1  0
 20 42  1  0
 29 43  1  0
M  END
>  <meeko>  (5) 
{"is_sidechain": [false], "free_energy": -4.4, "intermolecular_energy": -7.261, "internal_energy": -0.002}

$$$$
1z95_ligand
     RDKit          3D

 43 44  0  0  0  0  0  0  0  0999 V2000
    3.8650  -10.3430    0.5030 C   0  0  0  0  0  0  0  0  0  0  0  0
    3.7890  -10.2240   -1.0250 C   0  0  2  0  0  0  0  0  0  0  0  0
    2.9460  -11.3080   -1.4450 O   0  0  0  0  0  0  0  0  0  0  0  0
    5.1970  -10.3420   -1.6120 C   0  0  0  0  0  0  0  0  0  0  0  0
    5.1580  -10.4160   -3.3910 S   0  0  0  0  0  0  0  0  0  0  0  0
    3.9090  -10.9920   -3.8410 O   0  0  0  0  0  0  0  0  0  0  0  0
    6.4270  -10.9800   -3.8210 O   0  0  0  0  0  0  0  0  0  0  0  0
    5.1400   -8.7030   -3.8700 C   0  0  0  0  0  0  0  0  0  0  0  0
    6.1810   -7.8570   -3.4700 C   0  0  0  0  0  0  0  0  0  0  0  0
    6.1600   -6.5180   -3.8610 C   0  0  0  0  0  0  0  0  0  0  0  0
    5.1130   -6.0460   -4.6480 C   0  0  0  0  0  0  0  0  0  0  0  0
    5.0980   -4.7600   -5.0210 F   0  0  0  0  0  0  0  0  0  0  0  0
    4.0850   -6.8890   -5.0600 C   0  0  0  0  0  0  0  0  0  0  0  0
    4.0970   -8.2300   -4.6750 C   0  0  0  0  0  0  0  0  0  0  0  0
    3.1620   -8.8430   -1.3320 C   0  0  0  0  0  0  0  0  0  0  0  0
    3.6510   -7.8110   -0.8880 O   0  0  0  0  0  0  0  0  0  0  0  0
    1.9910   -8.9640   -2.0580 N   0  0  0  0  0  0  0  0  0  0  0  0
    1.1540   -7.9370   -2.5270 C   0  0  0  0  0  0  0  0  0  0  0  0
    0.4630   -7.1900   -1.5690 C   0  0  0  0  0  0  0  0  0  0  0  0
   -0.3910   -6.1540   -1.9550 C   0  0  0  0  0  0  0  0  0  0  0  0
   -0.5680   -5.8470   -3.3090 C   0  0  0  0  0  0  0  0  0  0  0  0
   -1.4550   -4.7730   -3.6600 C   0  0  0  0  0  0  0  0  0  0  0  0
   -2.1720   -3.9020   -3.9290 N   0  0  0  0  0  0  0  0  0  0  0  0
    0.1170   -6.5910   -4.2860 C   0  0  0  0  0  0  0  0  0  0  0  0
   -0.0580   -6.2830   -5.7540 C   0  0  0  0  0  0  0  0  0  0  0  0
    0.5060   -7.2280   -6.5520 F   0  0  0  0  0  0  0  0  0  0  0  0
   -1.3680   -6.2090   -6.1140 F   0  0  0  0  0  0  0  0  0  0  0  0
    0.4950   -5.0990   -6.1360 F   0  0  0  0  0  0  0  0  0  0  0  0
    0.9740   -7.6340   -3.8790 C   0  0  0  0  0  0  0  0  0  0  0  0
    3.3273   -9.5011    0.9635 H   0  0  0  0  0  0  0  0  0  0  0  0
    3.4041  -11.2900    0.8204 H   0  0  0  0  0  0  0  0  0  0  0  0
    4.9180  -10.3232    0.8204 H   0  0  0  0  0  0  0  0  0  0  0  0
    3.4840  -12.1330   -1.4620 H   0  0  0  0  0  0  0  0  0  0  0  0
    5.7875   -9.4667   -1.3035 H   0  0  0  0  0  0  0  0  0  0  0  0
    5.6503  -11.2717   -1.2376 H   0  0  0  0  0  0  0  0  0  0  0  0
    7.0064   -8.2437   -2.8542 H   0  0  0  0  0  0  0  0  0  0  0  0
    6.9668   -5.8384   -3.5490 H   0  0  0  0  0  0  0  0  0  0  0  0
    3.2679   -6.5003   -5.6855 H   0  0  0  0  0  0  0  0  0  0  0  0
    3.2950   -8.9087   -5.0007 H   0  0  0  0  0  0  0  0  0  0  0  0
    1.7240   -9.9220   -2.2730 H   0  0  0  0  0  0  0  0  0  0  0  0
    0.5928   -7.4199   -0.5012 H   0  0  0  0  0  0  0  0  0  0  0  0
   -0.9283   -5.5753   -1.1892 H   0  0  0  0  0  0  0  0  0  0  0  0
    1.5107   -8.2198   -4.6398 H   0  0  0  0  0  0  0  0  0  0  0  0
  1  2  1  0
  2  3  1  6
  2  4  1  0
  4  5  1  0
  5  6  2  0
  5  7  2  0
  5  8  1  0
  8  9  2  0
  9 10  1  0
 10 11  2  0
 11 12  1  0
 11 13  1  0
 13 14  2  0
  2 15  1  0
 15 16  2  0
 15 17  1  0
 17 18  1  0
 18 19  2  0
 19 20  1  0
 20 21  2  0
 21 22  1  0
 22 23  3  0
 21 24  1  0
 24 25  1  0
 25 26  1  0
 25 27  1  0
 25 28  1  0
 24 29  2  0
 14  8  1  0
 29 18  1  0
  1 30  1  0
  1 31  1  0
  1 32  1  0
  3 33  1  0
  4 34  1  0
  4 35  1  0
  9 36  1  0
 10 37  1  0
 13 38  1  0
 14 39  1  0
 17 40  1  0
 19 41  1  0
 20 42  1  0
 29 43  1  0
M  END
>  <meeko>  (6) 
{"is_sidechain": [false], "free_energy": -4.392, "intermolecular_energy": -6.34, "internal_energy": -0.913}

$$$$
1z95_ligand
     RDKit          3D

 43 44  0  0  0  0  0  0  0  0999 V2000
    6.5810   -7.8500   -4.3280 C   0  0  0  0  0  0  0  0  0  0  0  0
    5.9020   -6.4910   -4.1050 C   0  0  2  0  0  0  0  0  0  0  0  0
    5.6340   -5.9850   -5.4230 O   0  0  0  0  0  0  0  0  0  0  0  0
    6.8490   -5.5740   -3.3280 C   0  0  0  0  0  0  0  0  0  0  0  0
    6.2040   -3.9180   -3.2140 S   0  0  0  0  0  0  0  0  0  0  0  0
    5.0150   -3.8990   -2.3900 O   0  0  0  0  0  0  0  0  0  0  0  0
    6.1730   -3.3800   -4.5650 O   0  0  0  0  0  0  0  0  0  0  0  0
    7.4710   -3.0480   -2.3170 C   0  0  0  0  0  0  0  0  0  0  0  0
    7.1360   -1.9260   -1.5510 C   0  0  0  0  0  0  0  0  0  0  0  0
    8.1370   -1.2590   -0.8450 C   0  0  0  0  0  0  0  0  0  0  0  0
    9.4490   -1.7220   -0.9050 C   0  0  0  0  0  0  0  0  0  0  0  0
   10.4050   -1.0780   -0.2250 F   0  0  0  0  0  0  0  0  0  0  0  0
    9.7810   -2.8480   -1.6540 C   0  0  0  0  0  0  0  0  0  0  0  0
    8.7870   -3.5210   -2.3630 C   0  0  0  0  0  0  0  0  0  0  0  0
    4.6050   -6.7680   -3.3100 C   0  0  0  0  0  0  0  0  0  0  0  0
    4.5490   -7.6670   -2.4790 O   0  0  0  0  0  0  0  0  0  0  0  0
    3.5650   -5.9570   -3.7290 N   0  0  0  0  0  0  0  0  0  0  0  0
    2.2500   -5.9130   -3.2370 C   0  0  0  0  0  0  0  0  0  0  0  0
    2.0540   -6.2900   -1.9050 C   0  0  0  0  0  0  0  0  0  0  0  0
    0.7750   -6.2760   -1.3430 C   0  0  0  0  0  0  0  0  0  0  0  0
   -0.3320   -5.8850   -2.1060 C   0  0  0  0  0  0  0  0  0  0  0  0
   -1.6280   -5.8860   -1.4860 C   0  0  0  0  0  0  0  0  0  0  0  0
   -2.6680   -5.8880   -0.9720 N   0  0  0  0  0  0  0  0  0  0  0  0
   -0.1530   -5.5070   -3.4480 C   0  0  0  0  0  0  0  0  0  0  0  0
   -1.3300   -5.0830   -4.2940 C   0  0  0  0  0  0  0  0  0  0  0  0
   -1.0700   -3.9610   -5.0180 F   0  0  0  0  0  0  0  0  0  0  0  0
   -1.6940   -6.0410   -5.1890 F   0  0  0  0  0  0  0  0  0  0  0  0
   -2.4520   -4.8070   -3.5740 F   0  0  0  0  0  0  0  0  0  0  0  0
    1.1450   -5.5270   -4.0000 C   0  0  0  0  0  0  0  0  0  0  0  0
    6.8105   -8.3093   -3.3552 H   0  0  0  0  0  0  0  0  0  0  0  0
    5.9060   -8.5086   -4.8943 H   0  0  0  0  0  0  0  0  0  0  0  0
    7.5129   -7.7057   -4.8943 H   0  0  0  0  0  0  0  0  0  0  0  0
    5.3380   -6.7330   -5.9900 H   0  0  0  0  0  0  0  0  0  0  0  0
    6.9835   -5.9761   -2.3130 H   0  0  0  0  0  0  0  0  0  0  0  0
    7.8091   -5.5349   -3.8635 H   0  0  0  0  0  0  0  0  0  0  0  0
    6.0948   -1.5739   -1.5061 H   0  0  0  0  0  0  0  0  0  0  0  0
    7.8913   -0.3714   -0.2436 H   0  0  0  0  0  0  0  0  0  0  0  0
   10.8212   -3.2043   -1.6861 H   0  0  0  0  0  0  0  0  0  0  0  0
    9.0350   -4.4156   -2.9531 H   0  0  0  0  0  0  0  0  0  0  0  0
    3.8060   -5.3160   -4.4820 H   0  0  0  0  0  0  0  0  0  0  0  0
    2.9145   -6.6004   -1.2941 H   0  0  0  0  0  0  0  0  0  0  0  0
    0.6366   -6.5744   -0.2933 H   0  0  0  0  0  0  0  0  0  0  0  0
    1.2898   -5.2334   -5.0501 H   0  0  0  0  0  0  0  0  0  0  0  0
  1  2  1  0
  2  3  1  6
  2  4  1  0
  4  5  1  0
  5  6  2  0
  5  7  2  0
  5  8  1  0
  8  9  2  0
  9 10  1  0
 10 11  2  0
 11 12  1  0
 11 13  1  0
 13 14  2  0
  2 15  1  0
 15 16  2  0
 15 17  1  0
 17 18  1  0
 18 19  2  0
 19 20  1  0
 20 21  2  0
 21 22  1  0
 22 23  3  0
 21 24  1  0
 24 25  1  0
 25 26  1  0
 25 27  1  0
 25 28  1  0
 24 29  2  0
 14  8  1  0
 29 18  1  0
  1 30  1  0
  1 31  1  0
  1 32  1  0
  3 33  1  0
  4 34  1  0
  4 35  1  0
  9 36  1  0
 10 37  1  0
 13 38  1  0
 14 39  1  0
 17 40  1  0
 19 41  1  0
 20 42  1  0
 29 43  1  0
M  END
>  <meeko>  (7) 
{"is_sidechain": [false], "free_energy": -3.264, "intermolecular_energy": -6.04, "internal_energy": 0.343}

$$$$
