3o9i_ligand
     RDKit          3D

 81 85  0  0  0  0  0  0  0  0999 V2000
  -11.1630    8.8140   -2.6230 C   0  0  0  0  0  0  0  0  0  0  0  0
  -12.2510    7.7830   -2.3460 C   0  0  0  0  0  0  0  0  0  0  0  0
  -12.6410    6.8520   -3.5180 C   0  0  0  0  0  0  0  0  0  0  0  0
  -14.1350    6.9530   -3.9030 C   0  0  0  0  0  0  0  0  0  0  0  0
  -15.1330    6.3690   -2.9150 C   0  0  0  0  0  0  0  0  0  0  0  0
  -11.6890    6.9870   -4.7260 C   0  0  0  0  0  0  0  0  0  0  0  0
  -11.1360    5.6750   -5.1200 N   0  0  0  0  0  0  0  0  0  0  0  0
  -10.6420    4.8100   -4.0090 C   0  0  0  0  0  0  0  0  0  0  0  0
   -9.2400    5.1720   -3.4840 C   0  0  1  0  0  0  0  0  0  0  0  0
   -9.3770    5.8440   -2.2270 O   0  0  0  0  0  0  0  0  0  0  0  0
   -8.2990    3.9330   -3.3780 C   0  0  2  0  0  0  0  0  0  0  0  0
   -8.8690    2.6940   -4.1130 C   0  0  0  0  0  0  0  0  0  0  0  0
   -7.8300    1.8430   -4.8050 C   0  0  0  0  0  0  0  0  0  0  0  0
   -6.4750    2.2000   -4.7610 C   0  0  0  0  0  0  0  0  0  0  0  0
   -5.5160    1.4200   -5.4080 C   0  0  0  0  0  0  0  0  0  0  0  0
   -5.9010    0.2760   -6.1050 C   0  0  0  0  0  0  0  0  0  0  0  0
   -7.2440   -0.0910   -6.1510 C   0  0  0  0  0  0  0  0  0  0  0  0
   -8.2030    0.6860   -5.5010 C   0  0  0  0  0  0  0  0  0  0  0  0
   -8.0500    3.5750   -1.9800 N   0  0  0  0  0  0  0  0  0  0  0  0
   -6.8350    3.7040   -1.3850 C   0  0  0  0  0  0  0  0  0  0  0  0
   -5.8140    4.0660   -1.9490 O   0  0  0  0  0  0  0  0  0  0  0  0
   -6.9460    3.4010   -0.0730 O   0  0  0  0  0  0  0  0  0  0  0  0
   -6.5450    4.4390    0.8240 C   0  0  1  0  0  0  0  0  0  0  0  0
   -7.5460    5.5810    0.9460 C   0  0  0  0  0  0  0  0  0  0  0  0
   -7.4140    6.1120    2.2710 O   0  0  0  0  0  0  0  0  0  0  0  0
   -6.6630    5.1860    3.0640 C   0  0  1  0  0  0  0  0  0  0  0  0
   -7.3730    4.8250    4.2490 O   0  0  0  0  0  0  0  0  0  0  0  0
   -7.7290    3.4420    4.1670 C   0  0  0  0  0  0  0  0  0  0  0  0
   -7.6150    3.0500    2.7120 C   0  0  0  0  0  0  0  0  0  0  0  0
   -6.4720    3.9310    2.2430 C   0  0  1  0  0  0  0  0  0  0  0  0
  -10.5690    5.4370   -6.6950 S   0  0  0  0  0  0  0  0  0  0  0  0
   -9.1700    5.0690   -6.6290 O   0  0  0  0  0  0  0  0  0  0  0  0
  -11.0000    6.5790   -7.4800 O   0  0  0  0  0  0  0  0  0  0  0  0
  -11.4290    4.0040   -7.3270 C   0  0  0  0  0  0  0  0  0  0  0  0
  -12.4600    4.1710   -8.2540 C   0  0  0  0  0  0  0  0  0  0  0  0
  -13.1390    3.0580   -8.7620 C   0  0  0  0  0  0  0  0  0  0  0  0
  -12.7670    1.7620   -8.3540 C   0  0  0  0  0  0  0  0  0  0  0  0
  -13.3570    0.5800   -8.7690 N   0  0  0  0  0  0  0  0  0  0  0  0
  -12.7460   -0.4360   -8.2060 C   0  0  0  0  0  0  0  0  0  0  0  0
  -11.4460   -0.0600   -7.1580 S   0  0  0  0  0  0  0  0  0  0  0  0
  -11.7010    1.6190   -7.4600 C   0  0  0  0  0  0  0  0  0  0  0  0
  -11.0040    2.7240   -6.9450 C   0  0  0  0  0  0  0  0  0  0  0  0
  -10.7645    9.1916   -1.6698 H   0  0  0  0  0  0  0  0  0  0  0  0
  -10.3519    8.3453   -3.1995 H   0  0  0  0  0  0  0  0  0  0  0  0
  -11.5875    9.6491   -3.1995 H   0  0  0  0  0  0  0  0  0  0  0  0
  -11.9051    7.1481   -1.5170 H   0  0  0  0  0  0  0  0  0  0  0  0
  -13.1561    8.3693   -2.1293 H   0  0  0  0  0  0  0  0  0  0  0  0
  -12.5083    5.8255   -3.1457 H   0  0  0  0  0  0  0  0  0  0  0  0
  -14.3757    8.0188   -4.0301 H   0  0  0  0  0  0  0  0  0  0  0  0
  -14.2414    6.3476   -4.8153 H   0  0  0  0  0  0  0  0  0  0  0  0
  -14.7921    6.5685   -1.8883 H   0  0  0  0  0  0  0  0  0  0  0  0
  -16.1179    6.8333   -3.0710 H   0  0  0  0  0  0  0  0  0  0  0  0
  -15.2107    5.2829   -3.0710 H   0  0  0  0  0  0  0  0  0  0  0  0
  -12.2447    7.4117   -5.5750 H   0  0  0  0  0  0  0  0  0  0  0  0
  -10.8549    7.6448   -4.4402 H   0  0  0  0  0  0  0  0  0  0  0  0
  -11.3517    4.8888   -3.1723 H   0  0  0  0  0  0  0  0  0  0  0  0
  -10.5662    3.7921   -4.4189 H   0  0  0  0  0  0  0  0  0  0  0  0
   -8.7574    5.8437   -4.2093 H   0  0  0  0  0  0  0  0  0  0  0  0
  -10.3140    5.8150   -1.9580 H   0  0  0  0  0  0  0  0  0  0  0  0
   -7.3564    4.2267   -3.8630 H   0  0  0  0  0  0  0  0  0  0  0  0
   -9.3909    2.0668   -3.3752 H   0  0  0  0  0  0  0  0  0  0  0  0
   -9.5351    3.0764   -4.9005 H   0  0  0  0  0  0  0  0  0  0  0  0
   -6.1656    3.1018   -4.2123 H   0  0  0  0  0  0  0  0  0  0  0  0
   -4.4552    1.7081   -5.3680 H   0  0  0  0  0  0  0  0  0  0  0  0
   -5.1450   -0.3364   -6.6183 H   0  0  0  0  0  0  0  0  0  0  0  0
   -7.5485   -0.9941   -6.7002 H   0  0  0  0  0  0  0  0  0  0  0  0
   -9.2612    0.3876   -5.5353 H   0  0  0  0  0  0  0  0  0  0  0  0
   -8.8230    3.3700   -1.3580 H   0  0  0  0  0  0  0  0  0  0  0  0
   -5.5873    4.7764    0.4009 H   0  0  0  0  0  0  0  0  0  0  0  0
   -7.3230    6.3603    0.2024 H   0  0  0  0  0  0  0  0  0  0  0  0
   -8.5713    5.2263    0.7648 H   0  0  0  0  0  0  0  0  0  0  0  0
   -5.7078    5.6514    3.3487 H   0  0  0  0  0  0  0  0  0  0  0  0
   -7.0426    2.8370    4.7776 H   0  0  0  0  0  0  0  0  0  0  0  0
   -8.7485    3.2728    4.5437 H   0  0  0  0  0  0  0  0  0  0  0  0
   -7.3697    1.9833    2.6024 H   0  0  0  0  0  0  0  0  0  0  0  0
   -8.5449    3.1839    2.1399 H   0  0  0  0  0  0  0  0  0  0  0  0
   -5.5450    3.3454    2.3312 H   0  0  0  0  0  0  0  0  0  0  0  0
  -12.7395    5.1817   -8.5862 H   0  0  0  0  0  0  0  0  0  0  0  0
  -13.9620    3.1948   -9.4789 H   0  0  0  0  0  0  0  0  0  0  0  0
  -13.0533   -1.4747   -8.3976 H   0  0  0  0  0  0  0  0  0  0  0  0
  -10.1513    2.5893   -6.2632 H   0  0  0  0  0  0  0  0  0  0  0  0
  1  2  1  0
  2  3  1  0
  3  4  1  0
  4  5  1  0
  3  6  1  0
  6  7  1  0
  7  8  1  0
  8  9  1  0
  9 10  1  0
  9 11  1  0
 11 12  1  0
 12 13  1  0
 13 14  2  0
 14 15  1  0
 15 16  2  0
 16 17  1  0
 17 18  2  0
 11 19  1  0
 19 20  1  0
 20 21  2  0
 20 22  1  0
 22 23  1  0
 23 24  1  0
 24 25  1  0
 25 26  1  0
 26 27  1  0
 27 28  1  0
 28 29  1  0
 29 30  1  0
  7 31  1  0
 31 32  2  0
 31 33  2  0
 31 34  1  0
 34 35  2  0
 35 36  1  0
 36 37  2  0
 37 38  1  0
 38 39  2  0
 39 40  1  0
 40 41  1  0
 41 42  2  0
 18 13  1  0
 30 23  1  0
 42 34  1  0
 30 26  1  0
 41 37  1  0
  1 43  1  0
  1 44  1  0
  1 45  1  0
  2 46  1  0
  2 47  1  0
  3 48  1  0
  4 49  1  0
  4 50  1  0
  5 51  1  0
  5 52  1  0
  5 53  1  0
  6 54  1  0
  6 55  1  0
  8 56  1  0
  8 57  1  0
  9 58  1  6
 10 59  1  0
 11 60  1  6
 12 61  1  0
 12 62  1  0
 14 63  1  0
 15 64  1  0
 16 65  1  0
 17 66  1  0
 18 67  1  0
 19 68  1  0
 23 69  1  6
 24 70  1  0
 24 71  1  0
 26 72  1  1
 28 73  1  0
 28 74  1  0
 29 75  1  0
 29 76  1  0
 30 77  1  1
 35 78  1  0
 36 79  1  0
 39 80  1  0
 42 81  1  0
M  END
>  <meeko>  (1) 
{"is_sidechain": [false], "free_energy": -9.566, "intermolecular_energy": -17.675, "internal_energy": -2.356}

$$$$
3o9i_ligand
     RDKit          3D

 81 85  0  0  0  0  0  0  0  0999 V2000
  -12.5890    5.8130   -7.2790 C   0  0  0  0  0  0  0  0  0  0  0  0
  -11.9750    4.5310   -7.8280 C   0  0  0  0  0  0  0  0  0  0  0  0
  -10.9530    3.8050   -6.9210 C   0  0  0  0  0  0  0  0  0  0  0  0
  -11.2810    2.3080   -6.7140 C   0  0  0  0  0  0  0  0  0  0  0  0
  -12.1580    1.6510   -7.7680 C   0  0  0  0  0  0  0  0  0  0  0  0
   -9.4920    4.0560   -7.3530 C   0  0  0  0  0  0  0  0  0  0  0  0
   -8.8770    5.1370   -6.5540 N   0  0  0  0  0  0  0  0  0  0  0  0
   -9.4540    5.3590   -5.1960 C   0  0  0  0  0  0  0  0  0  0  0  0
   -8.4200    5.6900   -4.1030 C   0  0  1  0  0  0  0  0  0  0  0  0
   -9.0340    6.5430   -3.1310 O   0  0  0  0  0  0  0  0  0  0  0  0
   -7.8080    4.4130   -3.4480 C   0  0  2  0  0  0  0  0  0  0  0  0
   -8.5960    3.1290   -3.8080 C   0  0  0  0  0  0  0  0  0  0  0  0
   -7.7890    2.0820   -4.5380 C   0  0  0  0  0  0  0  0  0  0  0  0
   -6.3890    2.0850   -4.4650 C   0  0  0  0  0  0  0  0  0  0  0  0
   -5.6420    1.1240   -5.1470 C   0  0  0  0  0  0  0  0  0  0  0  0
   -6.2860    0.1500   -5.9080 C   0  0  0  0  0  0  0  0  0  0  0  0
   -7.6770    0.1340   -5.9830 C   0  0  0  0  0  0  0  0  0  0  0  0
   -8.4250    1.0920   -5.2990 C   0  0  0  0  0  0  0  0  0  0  0  0
   -7.7560    4.5390   -1.9910 N   0  0  0  0  0  0  0  0  0  0  0  0
   -6.6150    4.3730   -1.2710 C   0  0  0  0  0  0  0  0  0  0  0  0
   -5.5340    4.0450   -1.7360 O   0  0  0  0  0  0  0  0  0  0  0  0
   -6.8600    4.6590    0.0270 O   0  0  0  0  0  0  0  0  0  0  0  0
   -7.2430    3.5410    0.8310 C   0  0  1  0  0  0  0  0  0  0  0  0
   -6.0760    2.7000    1.3280 C   0  0  0  0  0  0  0  0  0  0  0  0
   -6.4730    2.1360    2.5850 O   0  0  0  0  0  0  0  0  0  0  0  0
   -7.6410    2.8230    3.0490 C   0  0  1  0  0  0  0  0  0  0  0  0
   -7.4480    3.3430    4.3640 O   0  0  0  0  0  0  0  0  0  0  0  0
   -7.4450    4.7710    4.2970 C   0  0  0  0  0  0  0  0  0  0  0  0
   -7.1980    5.1390    2.8520 C   0  0  0  0  0  0  0  0  0  0  0  0
   -7.8780    3.9960    2.1220 C   0  0  1  0  0  0  0  0  0  0  0  0
   -8.0240    6.3750   -7.3270 S   0  0  0  0  0  0  0  0  0  0  0  0
   -7.8960    7.4860   -6.4070 O   0  0  0  0  0  0  0  0  0  0  0  0
   -8.6290    6.5580   -8.6320 O   0  0  0  0  0  0  0  0  0  0  0  0
   -6.3690    5.7560   -7.5900 C   0  0  0  0  0  0  0  0  0  0  0  0
   -6.0550    4.4470   -7.2180 C   0  0  0  0  0  0  0  0  0  0  0  0
   -4.7640    3.9460   -7.4220 C   0  0  0  0  0  0  0  0  0  0  0  0
   -3.7840    4.7580   -8.0260 C   0  0  0  0  0  0  0  0  0  0  0  0
   -2.4720    4.3930   -8.2780 N   0  0  0  0  0  0  0  0  0  0  0  0
   -1.8470    5.3840   -8.8690 C   0  0  0  0  0  0  0  0  0  0  0  0
   -2.7650    6.8000   -9.1590 S   0  0  0  0  0  0  0  0  0  0  0  0
   -4.1360    6.0480   -8.4310 C   0  0  0  0  0  0  0  0  0  0  0  0
   -5.4280    6.5660   -8.2400 C   0  0  0  0  0  0  0  0  0  0  0  0
  -12.5753    5.7845   -6.1795 H   0  0  0  0  0  0  0  0  0  0  0  0
  -12.0074    6.6779   -7.6306 H   0  0  0  0  0  0  0  0  0  0  0  0
  -13.6275    5.9020   -7.6306 H   0  0  0  0  0  0  0  0  0  0  0  0
  -12.7968    3.8289   -8.0323 H   0  0  0  0  0  0  0  0  0  0  0  0
  -11.4039    4.8414   -8.7154 H   0  0  0  0  0  0  0  0  0  0  0  0
  -11.0531    4.2622   -5.9256 H   0  0  0  0  0  0  0  0  0  0  0  0
  -10.3284    1.7589   -6.6830 H   0  0  0  0  0  0  0  0  0  0  0  0
  -11.8652    2.2652   -5.7830 H   0  0  0  0  0  0  0  0  0  0  0  0
  -12.9449    1.0615   -7.2747 H   0  0  0  0  0  0  0  0  0  0  0  0
  -12.6203    2.4269   -8.3959 H   0  0  0  0  0  0  0  0  0  0  0  0
  -11.5433    0.9893   -8.3959 H   0  0  0  0  0  0  0  0  0  0  0  0
   -8.9124    3.1317   -7.2126 H   0  0  0  0  0  0  0  0  0  0  0  0
   -9.4884    4.3589   -8.4105 H   0  0  0  0  0  0  0  0  0  0  0  0
  -10.1658    6.1953   -5.2588 H   0  0  0  0  0  0  0  0  0  0  0  0
   -9.9256    4.4103   -4.9002 H   0  0  0  0  0  0  0  0  0  0  0  0
   -7.5725    6.2138   -4.5692 H   0  0  0  0  0  0  0  0  0  0  0  0
   -9.4120    7.3160   -3.5880 H   0  0  0  0  0  0  0  0  0  0  0  0
   -6.7889    4.3240   -3.8524 H   0  0  0  0  0  0  0  0  0  0  0  0
   -8.9720    2.6839   -2.8750 H   0  0  0  0  0  0  0  0  0  0  0  0
   -9.3999    3.4374   -4.4926 H   0  0  0  0  0  0  0  0  0  0  0  0
   -5.8754    2.8510   -3.8654 H   0  0  0  0  0  0  0  0  0  0  0  0
   -4.5439    1.1351   -5.0840 H   0  0  0  0  0  0  0  0  0  0  0  0
   -5.6967   -0.6052   -6.4487 H   0  0  0  0  0  0  0  0  0  0  0  0
   -8.1860   -0.6352   -6.5824 H   0  0  0  0  0  0  0  0  0  0  0  0
   -9.5232    1.0703   -5.3574 H   0  0  0  0  0  0  0  0  0  0  0  0
   -8.5450    4.9170   -1.4800 H   0  0  0  0  0  0  0  0  0  0  0  0
   -7.9043    2.9689    0.1636 H   0  0  0  0  0  0  0  0  0  0  0  0
   -5.8535    1.8990    0.6077 H   0  0  0  0  0  0  0  0  0  0  0  0
   -5.1696    3.3129    1.4408 H   0  0  0  0  0  0  0  0  0  0  0  0
   -8.4871    2.1202    3.0649 H   0  0  0  0  0  0  0  0  0  0  0  0
   -8.4159    5.1678    4.6283 H   0  0  0  0  0  0  0  0  0  0  0  0
   -6.6690    5.1955    4.9510 H   0  0  0  0  0  0  0  0  0  0  0  0
   -7.6584    6.1058    2.6002 H   0  0  0  0  0  0  0  0  0  0  0  0
   -6.1347    5.2608    2.5981 H   0  0  0  0  0  0  0  0  0  0  0  0
   -8.9024    4.3187    1.8843 H   0  0  0  0  0  0  0  0  0  0  0  0
   -6.8253    3.8071   -6.7629 H   0  0  0  0  0  0  0  0  0  0  0  0
   -4.5152    2.9205   -7.1114 H   0  0  0  0  0  0  0  0  0  0  0  0
   -0.7895    5.3090   -9.1625 H   0  0  0  0  0  0  0  0  0  0  0  0
   -5.6924    7.5749   -8.5894 H   0  0  0  0  0  0  0  0  0  0  0  0
  1  2  1  0
  2  3  1  0
  3  4  1  0
  4  5  1  0
  3  6  1  0
  6  7  1  0
  7  8  1  0
  8  9  1  0
  9 10  1  0
  9 11  1  0
 11 12  1  0
 12 13  1  0
 13 14  2  0
 14 15  1  0
 15 16  2  0
 16 17  1  0
 17 18  2  0
 11 19  1  0
 19 20  1  0
 20 21  2  0
 20 22  1  0
 22 23  1  0
 23 24  1  0
 24 25  1  0
 25 26  1  0
 26 27  1  0
 27 28  1  0
 28 29  1  0
 29 30  1  0
  7 31  1  0
 31 32  2  0
 31 33  2  0
 31 34  1  0
 34 35  2  0
 35 36  1  0
 36 37  2  0
 37 38  1  0
 38 39  2  0
 39 40  1  0
 40 41  1  0
 41 42  2  0
 18 13  1  0
 30 23  1  0
 42 34  1  0
 30 26  1  0
 41 37  1  0
  1 43  1  0
  1 44  1  0
  1 45  1  0
  2 46  1  0
  2 47  1  0
  3 48  1  0
  4 49  1  0
  4 50  1  0
  5 51  1  0
  5 52  1  0
  5 53  1  0
  6 54  1  0
  6 55  1  0
  8 56  1  0
  8 57  1  0
  9 58  1  6
 10 59  1  0
 11 60  1  6
 12 61  1  0
 12 62  1  0
 14 63  1  0
 15 64  1  0
 16 65  1  0
 17 66  1  0
 18 67  1  0
 19 68  1  0
 23 69  1  6
 24 70  1  0
 24 71  1  0
 26 72  1  1
 28 73  1  0
 28 74  1  0
 29 75  1  0
 29 76  1  0
 30 77  1  6
 35 78  1  0
 36 79  1  0
 39 80  1  0
 42 81  1  0
M  END
>  <meeko>  (2) 
{"is_sidechain": [false], "free_energy": -9.402, "intermolecular_energy": -16.878, "internal_energy": -2.85}

$$$$
3o9i_ligand
     RDKit          3D

 81 85  0  0  0  0  0  0  0  0999 V2000
  -11.5390    2.2780   -7.1500 C   0  0  0  0  0  0  0  0  0  0  0  0
  -11.5280    3.7970   -7.2790 C   0  0  0  0  0  0  0  0  0  0  0  0
  -10.4220    4.5530   -6.5060 C   0  0  0  0  0  0  0  0  0  0  0  0
   -9.2880    5.0710   -7.4210 C   0  0  0  0  0  0  0  0  0  0  0  0
   -7.9130    4.4540   -7.2160 C   0  0  0  0  0  0  0  0  0  0  0  0
  -10.9900    5.6360   -5.5640 C   0  0  0  0  0  0  0  0  0  0  0  0
   -9.9200    6.2550   -4.7540 N   0  0  0  0  0  0  0  0  0  0  0  0
   -9.4890    5.4940   -3.5450 C   0  0  0  0  0  0  0  0  0  0  0  0
   -7.9760    5.2140   -3.4660 C   0  0  1  0  0  0  0  0  0  0  0  0
   -7.3960    6.0850   -2.4890 O   0  0  0  0  0  0  0  0  0  0  0  0
   -7.6570    3.7170   -3.1680 C   0  0  2  0  0  0  0  0  0  0  0  0
   -8.6170    2.7500   -3.9050 C   0  0  0  0  0  0  0  0  0  0  0  0
   -7.9320    1.7600   -4.8170 C   0  0  0  0  0  0  0  0  0  0  0  0
   -8.6860    0.8590   -5.5820 C   0  0  0  0  0  0  0  0  0  0  0  0
   -8.0530   -0.0630   -6.4170 C   0  0  0  0  0  0  0  0  0  0  0  0
   -6.6620   -0.0930   -6.4970 C   0  0  0  0  0  0  0  0  0  0  0  0
   -5.9030    0.8030   -5.7450 C   0  0  0  0  0  0  0  0  0  0  0  0
   -6.5340    1.7270   -4.9130 C   0  0  0  0  0  0  0  0  0  0  0  0
   -7.7210    3.4370   -1.7330 N   0  0  0  0  0  0  0  0  0  0  0  0
   -6.6580    2.9860   -1.0150 C   0  0  0  0  0  0  0  0  0  0  0  0
   -5.5650    2.7070   -1.4830 O   0  0  0  0  0  0  0  0  0  0  0  0
   -6.9930    2.9280    0.2920 O   0  0  0  0  0  0  0  0  0  0  0  0
   -6.6230    4.0730    1.0630 C   0  0  1  0  0  0  0  0  0  0  0  0
   -7.6700    5.1790    1.0830 C   0  0  0  0  0  0  0  0  0  0  0  0
   -7.5390    5.8560    2.3400 O   0  0  0  0  0  0  0  0  0  0  0  0
   -6.7360    5.0540    3.2130 C   0  0  1  0  0  0  0  0  0  0  0  0
   -7.4090    4.7940    4.4440 O   0  0  0  0  0  0  0  0  0  0  0  0
   -7.7060    3.3970    4.5190 C   0  0  0  0  0  0  0  0  0  0  0  0
   -7.5990    2.8540    3.1130 C   0  0  0  0  0  0  0  0  0  0  0  0
   -6.5040    3.7250    2.5270 C   0  0  1  0  0  0  0  0  0  0  0  0
   -9.6460    7.9200   -4.8510 S   0  0  0  0  0  0  0  0  0  0  0  0
  -10.5270    8.4720   -5.8590 O   0  0  0  0  0  0  0  0  0  0  0  0
   -8.2110    8.1120   -4.9340 O   0  0  0  0  0  0  0  0  0  0  0  0
  -10.1840    8.6090   -3.2920 C   0  0  0  0  0  0  0  0  0  0  0  0
   -9.2390    9.1290   -2.4050 C   0  0  0  0  0  0  0  0  0  0  0  0
   -9.6450    9.6760   -1.1830 C   0  0  0  0  0  0  0  0  0  0  0  0
  -11.0150    9.7230   -0.8560 C   0  0  0  0  0  0  0  0  0  0  0  0
  -11.5510   10.2270    0.3180 N   0  0  0  0  0  0  0  0  0  0  0  0
  -12.8590   10.1320    0.2770 C   0  0  0  0  0  0  0  0  0  0  0  0
  -13.5320    9.4450   -1.1390 S   0  0  0  0  0  0  0  0  0  0  0  0
  -11.9440    9.2380   -1.7810 C   0  0  0  0  0  0  0  0  0  0  0  0
  -11.5550    8.6920   -3.0150 C   0  0  0  0  0  0  0  0  0  0  0  0
  -11.5410    2.0004   -6.0856 H   0  0  0  0  0  0  0  0  0  0  0  0
  -12.4401    1.8753   -7.6357 H   0  0  0  0  0  0  0  0  0  0  0  0
  -10.6438    1.8623   -7.6357 H   0  0  0  0  0  0  0  0  0  0  0  0
  -11.4142    4.0399   -8.3458 H   0  0  0  0  0  0  0  0  0  0  0  0
  -12.4745    4.1316   -6.8293 H   0  0  0  0  0  0  0  0  0  0  0  0
   -9.9463    3.8079   -5.8514 H   0  0  0  0  0  0  0  0  0  0  0  0
   -9.5868    4.8820   -8.4626 H   0  0  0  0  0  0  0  0  0  0  0  0
   -9.1704    6.1341   -7.1641 H   0  0  0  0  0  0  0  0  0  0  0  0
   -7.7091    4.3625   -6.1390 H   0  0  0  0  0  0  0  0  0  0  0  0
   -7.8855    3.4572   -7.6804 H   0  0  0  0  0  0  0  0  0  0  0  0
   -7.1501    5.0961   -7.6804 H   0  0  0  0  0  0  0  0  0  0  0  0
  -11.4797    6.4149   -6.1669 H   0  0  0  0  0  0  0  0  0  0  0  0
  -11.7118    5.1613   -4.8830 H   0  0  0  0  0  0  0  0  0  0  0  0
   -9.7773    6.0727   -2.6551 H   0  0  0  0  0  0  0  0  0  0  0  0
   -9.9839    4.5133   -3.6025 H   0  0  0  0  0  0  0  0  0  0  0  0
   -7.5301    5.4175   -4.4508 H   0  0  0  0  0  0  0  0  0  0  0  0
   -8.1060    6.4320   -1.9180 H   0  0  0  0  0  0  0  0  0  0  0  0
   -6.6349    3.5469   -3.5374 H   0  0  0  0  0  0  0  0  0  0  0  0
   -9.1831    2.1859   -3.1492 H   0  0  0  0  0  0  0  0  0  0  0  0
   -9.2574    3.3738   -4.5459 H   0  0  0  0  0  0  0  0  0  0  0  0
   -9.7843    0.8789   -5.5237 H   0  0  0  0  0  0  0  0  0  0  0  0
   -8.6528   -0.7669   -7.0127 H   0  0  0  0  0  0  0  0  0  0  0  0
   -6.1636   -0.8224   -7.1524 H   0  0  0  0  0  0  0  0  0  0  0  0
   -4.8050    0.7808   -5.8082 H   0  0  0  0  0  0  0  0  0  0  0  0
   -5.9299    2.4356   -4.3274 H   0  0  0  0  0  0  0  0  0  0  0  0
   -8.5250    3.7270   -1.1890 H   0  0  0  0  0  0  0  0  0  0  0  0
   -5.6885    4.4022    0.5852 H   0  0  0  0  0  0  0  0  0  0  0  0
   -7.4936    5.8815    0.2551 H   0  0  0  0  0  0  0  0  0  0  0  0
   -8.6819    4.7645    0.9634 H   0  0  0  0  0  0  0  0  0  0  0  0
   -5.7981    5.5876    3.4266 H   0  0  0  0  0  0  0  0  0  0  0  0
   -6.9842    2.8908    5.1768 H   0  0  0  0  0  0  0  0  0  0  0  0
   -8.7110    3.2279    4.9329 H   0  0  0  0  0  0  0  0  0  0  0  0
   -7.3092    1.7929    3.1144 H   0  0  0  0  0  0  0  0  0  0  0  0
   -8.5433    2.8861    2.5498 H   0  0  0  0  0  0  0  0  0  0  0  0
   -5.5511    3.1911    2.6572 H   0  0  0  0  0  0  0  0  0  0  0  0
   -8.1711    9.1084   -2.6682 H   0  0  0  0  0  0  0  0  0  0  0  0
   -8.8965   10.0685   -0.4790 H   0  0  0  0  0  0  0  0  0  0  0  0
  -13.4904   10.4760    1.1095 H   0  0  0  0  0  0  0  0  0  0  0  0
  -12.3029    8.3406   -3.7411 H   0  0  0  0  0  0  0  0  0  0  0  0
  1  2  1  0
  2  3  1  0
  3  4  1  0
  4  5  1  0
  3  6  1  0
  6  7  1  0
  7  8  1  0
  8  9  1  0
  9 10  1  0
  9 11  1  0
 11 12  1  0
 12 13  1  0
 13 14  2  0
 14 15  1  0
 15 16  2  0
 16 17  1  0
 17 18  2  0
 11 19  1  0
 19 20  1  0
 20 21  2  0
 20 22  1  0
 22 23  1  0
 23 24  1  0
 24 25  1  0
 25 26  1  0
 26 27  1  0
 27 28  1  0
 28 29  1  0
 29 30  1  0
  7 31  1  0
 31 32  2  0
 31 33  2  0
 31 34  1  0
 34 35  2  0
 35 36  1  0
 36 37  2  0
 37 38  1  0
 38 39  2  0
 39 40  1  0
 40 41  1  0
 41 42  2  0
 18 13  1  0
 30 23  1  0
 42 34  1  0
 30 26  1  0
 41 37  1  0
  1 43  1  0
  1 44  1  0
  1 45  1  0
  2 46  1  0
  2 47  1  0
  3 48  1  0
  4 49  1  0
  4 50  1  0
  5 51  1  0
  5 52  1  0
  5 53  1  0
  6 54  1  0
  6 55  1  0
  8 56  1  0
  8 57  1  0
  9 58  1  6
 10 59  1  0
 11 60  1  6
 12 61  1  0
 12 62  1  0
 14 63  1  0
 15 64  1  0
 16 65  1  0
 17 66  1  0
 18 67  1  0
 19 68  1  0
 23 69  1  6
 24 70  1  0
 24 71  1  0
 26 72  1  1
 28 73  1  0
 28 74  1  0
 29 75  1  0
 29 76  1  0
 30 77  1  6
 35 78  1  0
 36 79  1  0
 39 80  1  0
 42 81  1  0
M  END
>  <meeko>  (3) 
{"is_sidechain": [false], "free_energy": -9.359, "intermolecular_energy": -16.377, "internal_energy": -3.27}

$$$$
3o9i_ligand
     RDKit          3D

 81 85  0  0  0  0  0  0  0  0999 V2000
  -15.0610    6.9520   -2.2670 C   0  0  0  0  0  0  0  0  0  0  0  0
  -13.5760    6.9490   -2.6110 C   0  0  0  0  0  0  0  0  0  0  0  0
  -13.2080    6.7720   -4.1020 C   0  0  0  0  0  0  0  0  0  0  0  0
  -14.2280    7.4270   -5.0620 C   0  0  0  0  0  0  0  0  0  0  0  0
  -13.9880    7.2260   -6.5500 C   0  0  0  0  0  0  0  0  0  0  0  0
  -11.7450    7.1670   -4.4030 C   0  0  0  0  0  0  0  0  0  0  0  0
  -10.8930    5.9720   -4.5740 N   0  0  0  0  0  0  0  0  0  0  0  0
  -10.3190    5.3910   -3.3250 C   0  0  0  0  0  0  0  0  0  0  0  0
   -9.1640    6.2030   -2.7090 C   0  0  1  0  0  0  0  0  0  0  0  0
   -9.7110    7.1860   -1.8240 O   0  0  0  0  0  0  0  0  0  0  0  0
   -8.1110    5.3020   -1.9940 C   0  0  2  0  0  0  0  0  0  0  0  0
   -7.3960    6.0370   -0.8320 C   0  0  0  0  0  0  0  0  0  0  0  0
   -7.3750    5.2750    0.4720 C   0  0  0  0  0  0  0  0  0  0  0  0
   -7.9390    5.8310    1.6290 C   0  0  0  0  0  0  0  0  0  0  0  0
   -7.9100    5.1320    2.8370 C   0  0  0  0  0  0  0  0  0  0  0  0
   -7.3200    3.8720    2.9010 C   0  0  0  0  0  0  0  0  0  0  0  0
   -6.7610    3.3080    1.7550 C   0  0  0  0  0  0  0  0  0  0  0  0
   -6.7920    4.0030    0.5470 C   0  0  0  0  0  0  0  0  0  0  0  0
   -7.0990    4.8200   -2.9360 N   0  0  0  0  0  0  0  0  0  0  0  0
   -6.7740    3.5070   -3.0690 C   0  0  0  0  0  0  0  0  0  0  0  0
   -7.2290    2.6000   -2.3900 O   0  0  0  0  0  0  0  0  0  0  0  0
   -5.8960    3.3650   -4.0860 O   0  0  0  0  0  0  0  0  0  0  0  0
   -6.4780    3.3610   -5.3910 C   0  0  1  0  0  0  0  0  0  0  0  0
   -5.4710    3.5020   -6.5250 C   0  0  0  0  0  0  0  0  0  0  0  0
   -6.0130    2.8050   -7.6550 O   0  0  0  0  0  0  0  0  0  0  0  0
   -7.0950    1.9800   -7.2090 C   0  0  1  0  0  0  0  0  0  0  0  0
   -6.9030    0.6200   -7.5990 O   0  0  0  0  0  0  0  0  0  0  0  0
   -6.6940   -0.1690   -6.4240 C   0  0  0  0  0  0  0  0  0  0  0  0
   -6.3180    0.7900   -5.3180 C   0  0  0  0  0  0  0  0  0  0  0  0
   -7.1120    2.0260   -5.6970 C   0  0  1  0  0  0  0  0  0  0  0  0
  -10.1610    5.6650   -6.0670 S   0  0  0  0  0  0  0  0  0  0  0  0
   -8.7820    5.2930   -5.8330 O   0  0  0  0  0  0  0  0  0  0  0  0
  -10.4930    6.7740   -6.9410 O   0  0  0  0  0  0  0  0  0  0  0  0
  -10.9610    4.2100   -6.7280 C   0  0  0  0  0  0  0  0  0  0  0  0
  -12.0080    4.3530   -7.6410 C   0  0  0  0  0  0  0  0  0  0  0  0
  -12.6410    3.2230   -8.1710 C   0  0  0  0  0  0  0  0  0  0  0  0
  -12.2050    1.9360   -7.8000 C   0  0  0  0  0  0  0  0  0  0  0  0
  -12.7460    0.7390   -8.2400 N   0  0  0  0  0  0  0  0  0  0  0  0
  -12.0830   -0.2620   -7.7100 C   0  0  0  0  0  0  0  0  0  0  0  0
  -10.7900    0.1470   -6.6640 S   0  0  0  0  0  0  0  0  0  0  0  0
  -11.1250    1.8200   -6.9200 C   0  0  0  0  0  0  0  0  0  0  0  0
  -10.4740    2.9420   -6.3830 C   0  0  0  0  0  0  0  0  0  0  0  0
  -15.1842    6.9522   -1.1739 H   0  0  0  0  0  0  0  0  0  0  0  0
  -15.5334    7.8511   -2.6894 H   0  0  0  0  0  0  0  0  0  0  0  0
  -15.5370    6.0548   -2.6894 H   0  0  0  0  0  0  0  0  0  0  0  0
  -13.1544    7.9080   -2.2754 H   0  0  0  0  0  0  0  0  0  0  0  0
  -13.1643    6.0633   -2.1050 H   0  0  0  0  0  0  0  0  0  0  0  0
  -13.2749    5.6928   -4.3043 H   0  0  0  0  0  0  0  0  0  0  0  0
  -15.2206    7.0161   -4.8255 H   0  0  0  0  0  0  0  0  0  0  0  0
  -14.1291    8.5099   -4.8957 H   0  0  0  0  0  0  0  0  0  0  0  0
  -13.1521    6.5259   -6.6953 H   0  0  0  0  0  0  0  0  0  0  0  0
  -14.8958    6.8148   -7.0156 H   0  0  0  0  0  0  0  0  0  0  0  0
  -13.7425    8.1919   -7.0156 H   0  0  0  0  0  0  0  0  0  0  0  0
  -11.7171    7.7627   -5.3273 H   0  0  0  0  0  0  0  0  0  0  0  0
  -11.3601    7.7504   -3.5536 H   0  0  0  0  0  0  0  0  0  0  0  0
  -11.1240    5.3199   -2.5787 H   0  0  0  0  0  0  0  0  0  0  0  0
   -9.8981    4.4132   -3.6021 H   0  0  0  0  0  0  0  0  0  0  0  0
   -8.6164    6.7044   -3.5206 H   0  0  0  0  0  0  0  0  0  0  0  0
  -10.2040    6.7300   -1.1170 H   0  0  0  0  0  0  0  0  0  0  0  0
   -8.6725    4.4516   -1.5798 H   0  0  0  0  0  0  0  0  0  0  0  0
   -6.3560    6.2286   -1.1348 H   0  0  0  0  0  0  0  0  0  0  0  0
   -7.9666    6.9590   -0.6466 H   0  0  0  0  0  0  0  0  0  0  0  0
   -8.4077    6.8252    1.5845 H   0  0  0  0  0  0  0  0  0  0  0  0
   -8.3538    5.5770    3.7398 H   0  0  0  0  0  0  0  0  0  0  0  0
   -7.2951    3.3229    3.8538 H   0  0  0  0  0  0  0  0  0  0  0  0
   -6.2947    2.3129    1.8042 H   0  0  0  0  0  0  0  0  0  0  0  0
   -6.3552    3.5491   -0.3548 H   0  0  0  0  0  0  0  0  0  0  0  0
   -6.7200    5.4390   -3.6420 H   0  0  0  0  0  0  0  0  0  0  0  0
   -7.1759    4.2105   -5.3544 H   0  0  0  0  0  0  0  0  0  0  0  0
   -5.3248    4.5642   -6.7707 H   0  0  0  0  0  0  0  0  0  0  0  0
   -4.4946    3.0850   -6.2375 H   0  0  0  0  0  0  0  0  0  0  0  0
   -8.0322    2.3489   -7.6513 H   0  0  0  0  0  0  0  0  0  0  0  0
   -7.6157   -0.7086   -6.1608 H   0  0  0  0  0  0  0  0  0  0  0  0
   -5.9035   -0.9168   -6.5850 H   0  0  0  0  0  0  0  0  0  0  0  0
   -6.6217    0.4050   -4.3334 H   0  0  0  0  0  0  0  0  0  0  0  0
   -5.2357    0.9654   -5.2287 H   0  0  0  0  0  0  0  0  0  0  0  0
   -8.0659    1.9866   -5.1505 H   0  0  0  0  0  0  0  0  0  0  0  0
  -12.3365    5.3579   -7.9448 H   0  0  0  0  0  0  0  0  0  0  0  0
  -13.4774    3.3396   -8.8759 H   0  0  0  0  0  0  0  0  0  0  0  0
  -12.3440   -1.3085   -7.9262 H   0  0  0  0  0  0  0  0  0  0  0  0
   -9.6091    2.8294   -5.7127 H   0  0  0  0  0  0  0  0  0  0  0  0
  1  2  1  0
  2  3  1  0
  3  4  1  0
  4  5  1  0
  3  6  1  0
  6  7  1  0
  7  8  1  0
  8  9  1  0
  9 10  1  0
  9 11  1  0
 11 12  1  0
 12 13  1  0
 13 14  2  0
 14 15  1  0
 15 16  2  0
 16 17  1  0
 17 18  2  0
 11 19  1  0
 19 20  1  0
 20 21  2  0
 20 22  1  0
 22 23  1  0
 23 24  1  0
 24 25  1  0
 25 26  1  0
 26 27  1  0
 27 28  1  0
 28 29  1  0
 29 30  1  0
  7 31  1  0
 31 32  2  0
 31 33  2  0
 31 34  1  0
 34 35  2  0
 35 36  1  0
 36 37  2  0
 37 38  1  0
 38 39  2  0
 39 40  1  0
 40 41  1  0
 41 42  2  0
 18 13  1  0
 30 23  1  0
 42 34  1  0
 30 26  1  0
 41 37  1  0
  1 43  1  0
  1 44  1  0
  1 45  1  0
  2 46  1  0
  2 47  1  0
  3 48  1  0
  4 49  1  0
  4 50  1  0
  5 51  1  0
  5 52  1  0
  5 53  1  0
  6 54  1  0
  6 55  1  0
  8 56  1  0
  8 57  1  0
  9 58  1  6
 10 59  1  0
 11 60  1  1
 12 61  1  0
 12 62  1  0
 14 63  1  0
 15 64  1  0
 16 65  1  0
 17 66  1  0
 18 67  1  0
 19 68  1  0
 23 69  1  1
 24 70  1  0
 24 71  1  0
 26 72  1  6
 28 73  1  0
 28 74  1  0
 29 75  1  0
 29 76  1  0
 30 77  1  1
 35 78  1  0
 36 79  1  0
 39 80  1  0
 42 81  1  0
M  END
>  <meeko>  (4) 
{"is_sidechain": [false], "free_energy": -9.021, "intermolecular_energy": -16.569, "internal_energy": -2.455}

$$$$
3o9i_ligand
     RDKit          3D

 81 85  0  0  0  0  0  0  0  0999 V2000
   -5.8090   -0.0620   -5.8740 C   0  0  0  0  0  0  0  0  0  0  0  0
   -7.3090   -0.1250   -5.6160 C   0  0  0  0  0  0  0  0  0  0  0  0
   -8.1620    1.0360   -6.1790 C   0  0  0  0  0  0  0  0  0  0  0  0
   -9.5430    0.5780   -6.7020 C   0  0  0  0  0  0  0  0  0  0  0  0
  -10.7200    1.4920   -6.4030 C   0  0  0  0  0  0  0  0  0  0  0  0
   -8.2420    2.2370   -5.2120 C   0  0  0  0  0  0  0  0  0  0  0  0
   -7.1740    3.2200   -5.4890 N   0  0  0  0  0  0  0  0  0  0  0  0
   -6.1600    3.4090   -4.4110 C   0  0  0  0  0  0  0  0  0  0  0  0
   -6.3920    2.5540   -3.1510 C   0  0  1  0  0  0  0  0  0  0  0  0
   -5.1560    1.9380   -2.7770 O   0  0  0  0  0  0  0  0  0  0  0  0
   -7.0100    3.3710   -1.9750 C   0  0  2  0  0  0  0  0  0  0  0  0
   -6.9530    2.6060   -0.6300 C   0  0  0  0  0  0  0  0  0  0  0  0
   -6.9440    3.4910    0.5940 C   0  0  0  0  0  0  0  0  0  0  0  0
   -6.9370    2.9290    1.8780 C   0  0  0  0  0  0  0  0  0  0  0  0
   -6.9400    3.7460    3.0100 C   0  0  0  0  0  0  0  0  0  0  0  0
   -6.9470    5.1320    2.8700 C   0  0  0  0  0  0  0  0  0  0  0  0
   -6.9480    5.7020    1.5980 C   0  0  0  0  0  0  0  0  0  0  0  0
   -6.9420    4.8870    0.4660 C   0  0  0  0  0  0  0  0  0  0  0  0
   -8.4030    3.7270   -2.2530 N   0  0  0  0  0  0  0  0  0  0  0  0
   -8.7910    4.9750   -2.6260 C   0  0  0  0  0  0  0  0  0  0  0  0
   -8.0510    5.9420   -2.7120 O   0  0  0  0  0  0  0  0  0  0  0  0
  -10.1110    4.9650   -2.9160 O   0  0  0  0  0  0  0  0  0  0  0  0
  -10.4910    5.7670   -4.0360 C   0  0  1  0  0  0  0  0  0  0  0  0
  -11.0530    4.9760   -5.2100 C   0  0  0  0  0  0  0  0  0  0  0  0
  -11.9880    5.8310   -5.8800 O   0  0  0  0  0  0  0  0  0  0  0  0
  -12.2860    6.9440   -5.0280 C   0  0  1  0  0  0  0  0  0  0  0  0
  -13.6920    7.0730   -4.8190 O   0  0  0  0  0  0  0  0  0  0  0  0
  -13.9780    6.7960   -3.4450 C   0  0  0  0  0  0  0  0  0  0  0  0
  -12.7810    6.0590   -2.8910 C   0  0  0  0  0  0  0  0  0  0  0  0
  -11.6440    6.6750   -3.6850 C   0  0  1  0  0  0  0  0  0  0  0  0
   -7.4210    4.4310   -6.6430 S   0  0  0  0  0  0  0  0  0  0  0  0
   -7.7610    5.6580   -5.9530 O   0  0  0  0  0  0  0  0  0  0  0  0
   -8.3000    3.8810   -7.6570 O   0  0  0  0  0  0  0  0  0  0  0  0
   -5.8360    4.7200   -7.4150 C   0  0  0  0  0  0  0  0  0  0  0  0
   -5.5180    5.9970   -7.8820 C   0  0  0  0  0  0  0  0  0  0  0  0
   -4.2790    6.2400   -8.4840 C   0  0  0  0  0  0  0  0  0  0  0  0
   -3.3380    5.1980   -8.5990 C   0  0  0  0  0  0  0  0  0  0  0  0
   -2.0830    5.2970   -9.1780 N   0  0  0  0  0  0  0  0  0  0  0  0
   -1.4690    4.1410   -9.0930 C   0  0  0  0  0  0  0  0  0  0  0  0
   -2.3300    2.8730   -8.3310 S   0  0  0  0  0  0  0  0  0  0  0  0
   -3.6620    3.9400   -8.0820 C   0  0  0  0  0  0  0  0  0  0  0  0
   -4.8990    3.6790   -7.4690 C   0  0  0  0  0  0  0  0  0  0  0  0
   -5.2725   -0.0395   -4.9140 H   0  0  0  0  0  0  0  0  0  0  0  0
   -5.4980   -0.9479   -6.4472 H   0  0  0  0  0  0  0  0  0  0  0  0
   -5.5734    0.8468   -6.4472 H   0  0  0  0  0  0  0  0  0  0  0  0
   -7.6841   -1.0592   -6.0594 H   0  0  0  0  0  0  0  0  0  0  0  0
   -7.4166   -0.0581   -4.5233 H   0  0  0  0  0  0  0  0  0  0  0  0
   -7.6260    1.4023   -7.0670 H   0  0  0  0  0  0  0  0  0  0  0  0
   -9.4690    0.4754   -7.7947 H   0  0  0  0  0  0  0  0  0  0  0  0
   -9.7598   -0.3590   -6.1680 H   0  0  0  0  0  0  0  0  0  0  0  0
  -10.8428    1.5874   -5.3140 H   0  0  0  0  0  0  0  0  0  0  0  0
  -10.5336    2.4844   -6.8393 H   0  0  0  0  0  0  0  0  0  0  0  0
  -11.6354    1.0657   -6.8393 H   0  0  0  0  0  0  0  0  0  0  0  0
   -9.2197    2.7272   -5.3293 H   0  0  0  0  0  0  0  0  0  0  0  0
   -8.1144    1.8653   -4.1846 H   0  0  0  0  0  0  0  0  0  0  0  0
   -5.1720    3.1531   -4.8214 H   0  0  0  0  0  0  0  0  0  0  0  0
   -6.2379    4.4589   -4.0923 H   0  0  0  0  0  0  0  0  0  0  0  0
   -7.1333    1.7765   -3.3877 H   0  0  0  0  0  0  0  0  0  0  0  0
   -5.0490    2.0110   -1.8110 H   0  0  0  0  0  0  0  0  0  0  0  0
   -6.4005    4.2824   -1.8865 H   0  0  0  0  0  0  0  0  0  0  0  0
   -7.8324    1.9478   -0.5716 H   0  0  0  0  0  0  0  0  0  0  0  0
   -6.0015    2.0541   -0.6240 H   0  0  0  0  0  0  0  0  0  0  0  0
   -6.9291    1.8352    1.9947 H   0  0  0  0  0  0  0  0  0  0  0  0
   -6.9368    3.2950    4.0133 H   0  0  0  0  0  0  0  0  0  0  0  0
   -6.9517    5.7757    3.7620 H   0  0  0  0  0  0  0  0  0  0  0  0
   -6.9535    6.7963    1.4867 H   0  0  0  0  0  0  0  0  0  0  0  0
   -6.9356    5.3432   -0.5349 H   0  0  0  0  0  0  0  0  0  0  0  0
   -9.1100    3.0060   -2.3340 H   0  0  0  0  0  0  0  0  0  0  0  0
   -9.5564    6.2831   -4.3007 H   0  0  0  0  0  0  0  0  0  0  0  0
  -10.2422    4.6909   -5.8965 H   0  0  0  0  0  0  0  0  0  0  0  0
  -11.5417    4.0531   -4.8644 H   0  0  0  0  0  0  0  0  0  0  0  0
  -11.9100    7.8653   -5.4968 H   0  0  0  0  0  0  0  0  0  0  0  0
  -14.1333    7.7350   -2.8936 H   0  0  0  0  0  0  0  0  0  0  0  0
  -14.8934    6.1942   -3.3455 H   0  0  0  0  0  0  0  0  0  0  0  0
  -12.6618    6.2415   -1.8128 H   0  0  0  0  0  0  0  0  0  0  0  0
  -12.8485    4.9650   -2.9842 H   0  0  0  0  0  0  0  0  0  0  0  0
  -11.2349    7.5038   -3.0886 H   0  0  0  0  0  0  0  0  0  0  0  0
   -6.2451    6.8156   -7.7760 H   0  0  0  0  0  0  0  0  0  0  0  0
   -4.0398    7.2431   -8.8670 H   0  0  0  0  0  0  0  0  0  0  0  0
   -0.4539    3.9941   -9.4906 H   0  0  0  0  0  0  0  0  0  0  0  0
   -5.1249    2.6894   -7.0451 H   0  0  0  0  0  0  0  0  0  0  0  0
  1  2  1  0
  2  3  1  0
  3  4  1  0
  4  5  1  0
  3  6  1  0
  6  7  1  0
  7  8  1  0
  8  9  1  0
  9 10  1  0
  9 11  1  0
 11 12  1  0
 12 13  1  0
 13 14  2  0
 14 15  1  0
 15 16  2  0
 16 17  1  0
 17 18  2  0
 11 19  1  0
 19 20  1  0
 20 21  2  0
 20 22  1  0
 22 23  1  0
 23 24  1  0
 24 25  1  0
 25 26  1  0
 26 27  1  0
 27 28  1  0
 28 29  1  0
 29 30  1  0
  7 31  1  0
 31 32  2  0
 31 33  2  0
 31 34  1  0
 34 35  2  0
 35 36  1  0
 36 37  2  0
 37 38  1  0
 38 39  2  0
 39 40  1  0
 40 41  1  0
 41 42  2  0
 18 13  1  0
 30 23  1  0
 42 34  1  0
 30 26  1  0
 41 37  1  0
  1 43  1  0
  1 44  1  0
  1 45  1  0
  2 46  1  0
  2 47  1  0
  3 48  1  0
  4 49  1  0
  4 50  1  0
  5 51  1  0
  5 52  1  0
  5 53  1  0
  6 54  1  0
  6 55  1  0
  8 56  1  0
  8 57  1  0
  9 58  1  6
 10 59  1  0
 11 60  1  1
 12 61  1  0
 12 62  1  0
 14 63  1  0
 15 64  1  0
 16 65  1  0
 17 66  1  0
 18 67  1  0
 19 68  1  0
 23 69  1  6
 24 70  1  0
 24 71  1  0
 26 72  1  6
 28 73  1  0
 28 74  1  0
 29 75  1  0
 29 76  1  0
 30 77  1  1
 35 78  1  0
 36 79  1  0
 39 80  1  0
 42 81  1  0
M  END
>  <meeko>  (5) 
{"is_sidechain": [false], "free_energy": -8.995, "intermolecular_energy": -16.692, "internal_energy": -2.284}

$$$$
3o9i_ligand
     RDKit          3D

 81 85  0  0  0  0  0  0  0  0999 V2000
  -11.4440    1.9230   -7.0730 C   0  0  0  0  0  0  0  0  0  0  0  0
  -11.3790    3.3840   -7.5020 C   0  0  0  0  0  0  0  0  0  0  0  0
  -10.5870    4.3440   -6.5840 C   0  0  0  0  0  0  0  0  0  0  0  0
   -9.5190    5.1670   -7.3420 C   0  0  0  0  0  0  0  0  0  0  0  0
   -8.0730    4.7390   -7.1570 C   0  0  0  0  0  0  0  0  0  0  0  0
  -11.5070    5.2080   -5.6950 C   0  0  0  0  0  0  0  0  0  0  0  0
  -10.7210    6.0200   -4.7420 N   0  0  0  0  0  0  0  0  0  0  0  0
  -10.1190    5.2820   -3.5920 C   0  0  0  0  0  0  0  0  0  0  0  0
   -8.5820    5.3530   -3.5150 C   0  0  1  0  0  0  0  0  0  0  0  0
   -8.2140    6.2470   -2.4600 O   0  0  0  0  0  0  0  0  0  0  0  0
   -7.9230    3.9500   -3.3420 C   0  0  2  0  0  0  0  0  0  0  0  0
   -8.7160    2.8320   -4.0640 C   0  0  0  0  0  0  0  0  0  0  0  0
   -7.8590    1.8340   -4.8050 C   0  0  0  0  0  0  0  0  0  0  0  0
   -8.4490    0.7970   -5.5410 C   0  0  0  0  0  0  0  0  0  0  0  0
   -7.6580   -0.1310   -6.2170 C   0  0  0  0  0  0  0  0  0  0  0  0
   -6.2680   -0.0320   -6.1680 C   0  0  0  0  0  0  0  0  0  0  0  0
   -5.6710    0.9980   -5.4440 C   0  0  0  0  0  0  0  0  0  0  0  0
   -6.4610    1.9280   -4.7700 C   0  0  0  0  0  0  0  0  0  0  0  0
   -7.7960    3.5960   -1.9270 N   0  0  0  0  0  0  0  0  0  0  0  0
   -6.6060    3.5760   -1.2700 C   0  0  0  0  0  0  0  0  0  0  0  0
   -5.5180    3.7840   -1.7840 O   0  0  0  0  0  0  0  0  0  0  0  0
   -6.8230    3.3220    0.0390 O   0  0  0  0  0  0  0  0  0  0  0  0
   -6.4950    4.3940    0.9260 C   0  0  1  0  0  0  0  0  0  0  0  0
   -7.5390    5.5010    0.9830 C   0  0  0  0  0  0  0  0  0  0  0  0
   -7.4770    6.0660    2.2990 O   0  0  0  0  0  0  0  0  0  0  0  0
   -6.7250    5.1850    3.1420 C   0  0  1  0  0  0  0  0  0  0  0  0
   -7.4680    4.8250    4.3070 O   0  0  0  0  0  0  0  0  0  0  0  0
   -7.7710    3.4290    4.2440 C   0  0  0  0  0  0  0  0  0  0  0  0
   -7.5860    3.0080    2.8040 C   0  0  0  0  0  0  0  0  0  0  0  0
   -6.4580    3.9190    2.3580 C   0  0  1  0  0  0  0  0  0  0  0  0
  -10.9840    7.6860   -4.6360 S   0  0  0  0  0  0  0  0  0  0  0  0
  -11.4700    8.1560   -5.9160 O   0  0  0  0  0  0  0  0  0  0  0  0
   -9.8000    8.2670   -4.0320 O   0  0  0  0  0  0  0  0  0  0  0  0
  -12.3310    7.9090   -3.4830 C   0  0  0  0  0  0  0  0  0  0  0  0
  -13.4670    7.1010   -3.5840 C   0  0  0  0  0  0  0  0  0  0  0  0
  -14.5280    7.2590   -2.6860 C   0  0  0  0  0  0  0  0  0  0  0  0
  -14.4410    8.2220   -1.6610 C   0  0  0  0  0  0  0  0  0  0  0  0
  -15.4170    8.4880   -0.7140 N   0  0  0  0  0  0  0  0  0  0  0  0
  -14.9940    9.4280    0.0980 C   0  0  0  0  0  0  0  0  0  0  0  0
  -13.4290   10.0520   -0.2060 S   0  0  0  0  0  0  0  0  0  0  0  0
  -13.2750    8.9860   -1.5530 C   0  0  0  0  0  0  0  0  0  0  0  0
  -12.1980    8.8360   -2.4410 C   0  0  0  0  0  0  0  0  0  0  0  0
  -11.4467    1.8631   -5.9746 H   0  0  0  0  0  0  0  0  0  0  0  0
  -12.3634    1.4656   -7.4674 H   0  0  0  0  0  0  0  0  0  0  0  0
  -10.5689    1.3858   -7.4674 H   0  0  0  0  0  0  0  0  0  0  0  0
  -10.9153    3.4181   -8.4989 H   0  0  0  0  0  0  0  0  0  0  0  0
  -12.4185    3.7420   -7.4656 H   0  0  0  0  0  0  0  0  0  0  0  0
  -10.0190    3.7034   -5.8933 H   0  0  0  0  0  0  0  0  0  0  0  0
   -9.7504    5.1058   -8.4156 H   0  0  0  0  0  0  0  0  0  0  0  0
   -9.5783    6.1801   -6.9176 H   0  0  0  0  0  0  0  0  0  0  0  0
   -7.8451    4.6715   -6.0830 H   0  0  0  0  0  0  0  0  0  0  0  0
   -7.9184    3.7566   -7.6270 H   0  0  0  0  0  0  0  0  0  0  0  0
   -7.4086    5.4790   -7.6270 H   0  0  0  0  0  0  0  0  0  0  0  0
  -12.0980    5.8789   -6.3357 H   0  0  0  0  0  0  0  0  0  0  0  0
  -12.1657    4.5390   -5.1218 H   0  0  0  0  0  0  0  0  0  0  0  0
  -10.5285    5.7037   -2.6622 H   0  0  0  0  0  0  0  0  0  0  0  0
  -10.3742    4.2217   -3.7356 H   0  0  0  0  0  0  0  0  0  0  0  0
   -8.2006    5.7378   -4.4723 H   0  0  0  0  0  0  0  0  0  0  0  0
   -8.9270    6.2560   -1.7950 H   0  0  0  0  0  0  0  0  0  0  0  0
   -6.9258    4.0252   -3.8002 H   0  0  0  0  0  0  0  0  0  0  0  0
   -9.3044    2.2872   -3.3110 H   0  0  0  0  0  0  0  0  0  0  0  0
   -9.3403    3.3302   -4.8203 H   0  0  0  0  0  0  0  0  0  0  0  0
   -9.5450    0.7148   -5.5855 H   0  0  0  0  0  0  0  0  0  0  0  0
   -8.1311   -0.9423   -6.7897 H   0  0  0  0  0  0  0  0  0  0  0  0
   -5.6441   -0.7655   -6.6998 H   0  0  0  0  0  0  0  0  0  0  0  0
   -4.5746    1.0774   -5.4042 H   0  0  0  0  0  0  0  0  0  0  0  0
   -5.9832    2.7425   -4.2059 H   0  0  0  0  0  0  0  0  0  0  0  0
   -8.6200    3.5110   -1.3440 H   0  0  0  0  0  0  0  0  0  0  0  0
   -5.5348    4.7580    0.5316 H   0  0  0  0  0  0  0  0  0  0  0  0
   -7.3151    6.2710    0.2300 H   0  0  0  0  0  0  0  0  0  0  0  0
   -8.5435    5.1055    0.7718 H   0  0  0  0  0  0  0  0  0  0  0  0
   -5.7985    5.6905    3.4521 H   0  0  0  0  0  0  0  0  0  0  0  0
   -7.0882    2.8633    4.8949 H   0  0  0  0  0  0  0  0  0  0  0  0
   -8.7981    3.2317    4.5847 H   0  0  0  0  0  0  0  0  0  0  0  0
   -7.2987    1.9488    2.7299 H   0  0  0  0  0  0  0  0  0  0  0  0
   -8.4970    3.0946    2.1936 H   0  0  0  0  0  0  0  0  0  0  0  0
   -5.5152    3.3690    2.4944 H   0  0  0  0  0  0  0  0  0  0  0  0
  -13.5271    6.3372   -4.3733 H   0  0  0  0  0  0  0  0  0  0  0  0
  -15.4277    6.6332   -2.7798 H   0  0  0  0  0  0  0  0  0  0  0  0
  -15.6123    9.7957    0.9301 H   0  0  0  0  0  0  0  0  0  0  0  0
  -11.2784    9.4278   -2.3223 H   0  0  0  0  0  0  0  0  0  0  0  0
  1  2  1  0
  2  3  1  0
  3  4  1  0
  4  5  1  0
  3  6  1  0
  6  7  1  0
  7  8  1  0
  8  9  1  0
  9 10  1  0
  9 11  1  0
 11 12  1  0
 12 13  1  0
 13 14  2  0
 14 15  1  0
 15 16  2  0
 16 17  1  0
 17 18  2  0
 11 19  1  0
 19 20  1  0
 20 21  2  0
 20 22  1  0
 22 23  1  0
 23 24  1  0
 24 25  1  0
 25 26  1  0
 26 27  1  0
 27 28  1  0
 28 29  1  0
 29 30  1  0
  7 31  1  0
 31 32  2  0
 31 33  2  0
 31 34  1  0
 34 35  2  0
 35 36  1  0
 36 37  2  0
 37 38  1  0
 38 39  2  0
 39 40  1  0
 40 41  1  0
 41 42  2  0
 18 13  1  0
 30 23  1  0
 42 34  1  0
 30 26  1  0
 41 37  1  0
  1 43  1  0
  1 44  1  0
  1 45  1  0
  2 46  1  0
  2 47  1  0
  3 48  1  0
  4 49  1  0
  4 50  1  0
  5 51  1  0
  5 52  1  0
  5 53  1  0
  6 54  1  0
  6 55  1  0
  8 56  1  0
  8 57  1  0
  9 58  1  6
 10 59  1  0
 11 60  1  6
 12 61  1  0
 12 62  1  0
 14 63  1  0
 15 64  1  0
 16 65  1  0
 17 66  1  0
 18 67  1  0
 19 68  1  0
 23 69  1  6
 24 70  1  0
 24 71  1  0
 26 72  1  1
 28 73  1  0
 28 74  1  0
 29 75  1  0
 29 76  1  0
 30 77  1  1
 35 78  1  0
 36 79  1  0
 39 80  1  0
 42 81  1  0
M  END
>  <meeko>  (6) 
{"is_sidechain": [false], "free_energy": -8.986, "intermolecular_energy": -16.047, "internal_energy": -2.912}

$$$$
3o9i_ligand
     RDKit          3D

 81 85  0  0  0  0  0  0  0  0999 V2000
  -13.0220    6.5670   -6.4730 C   0  0  0  0  0  0  0  0  0  0  0  0
  -12.1890    5.5620   -7.2600 C   0  0  0  0  0  0  0  0  0  0  0  0
  -10.9620    4.9580   -6.5380 C   0  0  0  0  0  0  0  0  0  0  0  0
  -11.0630    3.4270   -6.3460 C   0  0  0  0  0  0  0  0  0  0  0  0
  -11.7970    2.6530   -7.4290 C   0  0  0  0  0  0  0  0  0  0  0  0
   -9.6240    5.4090   -7.1620 C   0  0  0  0  0  0  0  0  0  0  0  0
   -8.7620    6.0710   -6.1600 N   0  0  0  0  0  0  0  0  0  0  0  0
   -8.2320    5.1980   -5.0730 C   0  0  0  0  0  0  0  0  0  0  0  0
   -7.1850    4.1640   -5.5290 C   0  0  1  0  0  0  0  0  0  0  0  0
   -6.2770    4.7970   -6.4370 O   0  0  0  0  0  0  0  0  0  0  0  0
   -6.4370    3.4990   -4.3330 C   0  0  2  0  0  0  0  0  0  0  0  0
   -6.2850    1.9670   -4.5100 C   0  0  0  0  0  0  0  0  0  0  0  0
   -7.1680    1.3700   -5.5810 C   0  0  0  0  0  0  0  0  0  0  0  0
   -6.7250    1.2990   -6.9090 C   0  0  0  0  0  0  0  0  0  0  0  0
   -7.5440    0.7570   -7.9010 C   0  0  0  0  0  0  0  0  0  0  0  0
   -8.8120    0.2790   -7.5750 C   0  0  0  0  0  0  0  0  0  0  0  0
   -9.2600    0.3390   -6.2560 C   0  0  0  0  0  0  0  0  0  0  0  0
   -8.4410    0.8780   -5.2640 C   0  0  0  0  0  0  0  0  0  0  0  0
   -7.1250    3.7580   -3.0680 N   0  0  0  0  0  0  0  0  0  0  0  0
   -6.6150    3.4040   -1.8580 C   0  0  0  0  0  0  0  0  0  0  0  0
   -5.5760    2.7850   -1.6900 O   0  0  0  0  0  0  0  0  0  0  0  0
   -7.4200    3.8720   -0.8800 O   0  0  0  0  0  0  0  0  0  0  0  0
   -6.8300    4.8570   -0.0290 C   0  0  1  0  0  0  0  0  0  0  0  0
   -7.8020    5.9200    0.4650 C   0  0  0  0  0  0  0  0  0  0  0  0
   -7.3340    6.3500    1.7500 O   0  0  0  0  0  0  0  0  0  0  0  0
   -6.3600    5.4110    2.2220 C   0  0  1  0  0  0  0  0  0  0  0  0
   -6.7050    4.9110    3.5130 O   0  0  0  0  0  0  0  0  0  0  0  0
   -7.0170    3.5200    3.3990 C   0  0  0  0  0  0  0  0  0  0  0  0
   -7.2890    3.2550    1.9360 C   0  0  0  0  0  0  0  0  0  0  0  0
   -6.3530    4.2410    1.2630 C   0  0  1  0  0  0  0  0  0  0  0  0
   -8.8650    7.7430   -5.9330 S   0  0  0  0  0  0  0  0  0  0  0  0
   -9.8450    8.2720   -6.8580 O   0  0  0  0  0  0  0  0  0  0  0  0
   -7.5080    8.2550   -5.9150 O   0  0  0  0  0  0  0  0  0  0  0  0
   -9.5460    7.9860   -4.2980 C   0  0  0  0  0  0  0  0  0  0  0  0
  -10.8540    7.5780   -4.0280 C   0  0  0  0  0  0  0  0  0  0  0  0
  -11.3990    7.7560   -2.7520 C   0  0  0  0  0  0  0  0  0  0  0  0
  -10.6180    8.3280   -1.7290 C   0  0  0  0  0  0  0  0  0  0  0  0
  -11.0340    8.5690   -0.4300 N   0  0  0  0  0  0  0  0  0  0  0  0
  -10.0440    9.0910    0.2570 C   0  0  0  0  0  0  0  0  0  0  0  0
   -8.5730    9.3290   -0.5850 S   0  0  0  0  0  0  0  0  0  0  0  0
   -9.2970    8.6860   -2.0130 C   0  0  0  0  0  0  0  0  0  0  0  0
   -8.7310    8.5080   -3.2850 C   0  0  0  0  0  0  0  0  0  0  0  0
  -12.8807    6.3965   -5.3955 H   0  0  0  0  0  0  0  0  0  0  0  0
  -12.7017    7.5880   -6.7278 H   0  0  0  0  0  0  0  0  0  0  0  0
  -14.0847    6.4417   -6.7278 H   0  0  0  0  0  0  0  0  0  0  0  0
  -12.8509    4.7306   -7.5439 H   0  0  0  0  0  0  0  0  0  0  0  0
  -11.7750    6.1302   -8.1060 H   0  0  0  0  0  0  0  0  0  0  0  0
  -10.9729    5.3766   -5.5208 H   0  0  0  0  0  0  0  0  0  0  0  0
  -10.0390    3.0296   -6.2874 H   0  0  0  0  0  0  0  0  0  0  0  0
  -11.6611    3.2876   -5.4334 H   0  0  0  0  0  0  0  0  0  0  0  0
  -12.4825    1.9302   -6.9625 H   0  0  0  0  0  0  0  0  0  0  0  0
  -12.3715    3.3524   -8.0541 H   0  0  0  0  0  0  0  0  0  0  0  0
  -11.0681    2.1163   -8.0541 H   0  0  0  0  0  0  0  0  0  0  0  0
   -9.0993    4.5282   -7.5606 H   0  0  0  0  0  0  0  0  0  0  0  0
   -9.8399    6.1289   -7.9652 H   0  0  0  0  0  0  0  0  0  0  0  0
   -7.7679    5.8424   -4.3119 H   0  0  0  0  0  0  0  0  0  0  0  0
   -9.0889    4.6239   -4.6908 H   0  0  0  0  0  0  0  0  0  0  0  0
   -7.7049    3.3416   -6.0422 H   0  0  0  0  0  0  0  0  0  0  0  0
   -6.7900    5.3310   -7.0710 H   0  0  0  0  0  0  0  0  0  0  0  0
   -5.4349    3.9522   -4.3136 H   0  0  0  0  0  0  0  0  0  0  0  0
   -5.2376    1.7532   -4.7695 H   0  0  0  0  0  0  0  0  0  0  0  0
   -6.5940    1.5097   -3.5585 H   0  0  0  0  0  0  0  0  0  0  0  0
   -5.7244    1.6732   -7.1714 H   0  0  0  0  0  0  0  0  0  0  0  0
   -7.1884    0.7071   -8.9407 H   0  0  0  0  0  0  0  0  0  0  0  0
   -9.4585   -0.1451   -8.3574 H   0  0  0  0  0  0  0  0  0  0  0  0
  -10.2601   -0.0391   -5.9976 H   0  0  0  0  0  0  0  0  0  0  0  0
   -8.7975    0.9172   -4.2241 H   0  0  0  0  0  0  0  0  0  0  0  0
   -7.9380    4.3620   -3.0400 H   0  0  0  0  0  0  0  0  0  0  0  0
   -6.0381    5.2874   -0.6596 H   0  0  0  0  0  0  0  0  0  0  0  0
   -7.8206    6.7692   -0.2340 H   0  0  0  0  0  0  0  0  0  0  0  0
   -8.8233    5.5172    0.5334 H   0  0  0  0  0  0  0  0  0  0  0  0
   -5.3820    5.9107    2.2844 H   0  0  0  0  0  0  0  0  0  0  0  0
   -6.1677    2.9114    3.7431 H   0  0  0  0  0  0  0  0  0  0  0  0
   -7.8880    3.2576    4.0175 H   0  0  0  0  0  0  0  0  0  0  0  0
   -7.0417    2.2183    1.6640 H   0  0  0  0  0  0  0  0  0  0  0  0
   -8.3442    3.3760    1.6500 H   0  0  0  0  0  0  0  0  0  0  0  0
   -5.4156    3.7095    1.0419 H   0  0  0  0  0  0  0  0  0  0  0  0
  -11.4582    7.1148   -4.8219 H   0  0  0  0  0  0  0  0  0  0  0  0
  -12.4356    7.4498   -2.5480 H   0  0  0  0  0  0  0  0  0  0  0  0
  -10.1543    9.3610    1.3176 H   0  0  0  0  0  0  0  0  0  0  0  0
   -7.6807    8.7701   -3.4804 H   0  0  0  0  0  0  0  0  0  0  0  0
  1  2  1  0
  2  3  1  0
  3  4  1  0
  4  5  1  0
  3  6  1  0
  6  7  1  0
  7  8  1  0
  8  9  1  0
  9 10  1  0
  9 11  1  0
 11 12  1  0
 12 13  1  0
 13 14  2  0
 14 15  1  0
 15 16  2  0
 16 17  1  0
 17 18  2  0
 11 19  1  0
 19 20  1  0
 20 21  2  0
 20 22  1  0
 22 23  1  0
 23 24  1  0
 24 25  1  0
 25 26  1  0
 26 27  1  0
 27 28  1  0
 28 29  1  0
 29 30  1  0
  7 31  1  0
 31 32  2  0
 31 33  2  0
 31 34  1  0
 34 35  2  0
 35 36  1  0
 36 37  2  0
 37 38  1  0
 38 39  2  0
 39 40  1  0
 40 41  1  0
 41 42  2  0
 18 13  1  0
 30 23  1  0
 42 34  1  0
 30 26  1  0
 41 37  1  0
  1 43  1  0
  1 44  1  0
  1 45  1  0
  2 46  1  0
  2 47  1  0
  3 48  1  0
  4 49  1  0
  4 50  1  0
  5 51  1  0
  5 52  1  0
  5 53  1  0
  6 54  1  0
  6 55  1  0
  8 56  1  0
  8 57  1  0
  9 58  1  6
 10 59  1  0
 11 60  1  1
 12 61  1  0
 12 62  1  0
 14 63  1  0
 15 64  1  0
 16 65  1  0
 17 66  1  0
 18 67  1  0
 19 68  1  0
 23 69  1  6
 24 70  1  0
 24 71  1  0
 26 72  1  1
 28 73  1  0
 28 74  1  0
 29 75  1  0
 29 76  1  0
 30 77  1  6
 35 78  1  0
 36 79  1  0
 39 80  1  0
 42 81  1  0
M  END
>  <meeko>  (7) 
{"is_sidechain": [false], "free_energy": -8.934, "intermolecular_energy": -16.275, "internal_energy": -2.587}

$$$$
3o9i_ligand
     RDKit          3D

 81 85  0  0  0  0  0  0  0  0999 V2000
   -6.5950    0.5270   -7.2210 C   0  0  0  0  0  0  0  0  0  0  0  0
   -7.9830    0.9310   -7.7050 C   0  0  0  0  0  0  0  0  0  0  0  0
   -9.1020    0.9860   -6.6390 C   0  0  0  0  0  0  0  0  0  0  0  0
  -10.1290   -0.1620   -6.7750 C   0  0  0  0  0  0  0  0  0  0  0  0
  -10.3310   -0.7310   -8.1700 C   0  0  0  0  0  0  0  0  0  0  0  0
   -8.5500    1.1450   -5.2060 C   0  0  0  0  0  0  0  0  0  0  0  0
   -8.2440    2.5590   -4.9040 N   0  0  0  0  0  0  0  0  0  0  0  0
   -9.1130    3.5750   -5.5680 C   0  0  0  0  0  0  0  0  0  0  0  0
  -10.4700    3.8100   -4.8790 C   0  0  1  0  0  0  0  0  0  0  0  0
  -10.2410    4.1200   -3.5010 O   0  0  0  0  0  0  0  0  0  0  0  0
  -11.3210    4.9090   -5.5860 C   0  0  2  0  0  0  0  0  0  0  0  0
  -11.0930    4.9390   -7.1180 C   0  0  0  0  0  0  0  0  0  0  0  0
  -12.0810    4.1190   -7.9150 C   0  0  0  0  0  0  0  0  0  0  0  0
  -13.0290    4.7480   -8.7330 C   0  0  0  0  0  0  0  0  0  0  0  0
  -13.9490    3.9920   -9.4610 C   0  0  0  0  0  0  0  0  0  0  0  0
  -13.9290    2.6010   -9.3800 C   0  0  0  0  0  0  0  0  0  0  0  0
  -12.9870    1.9650   -8.5740 C   0  0  0  0  0  0  0  0  0  0  0  0
  -12.0650    2.7200   -7.8480 C   0  0  0  0  0  0  0  0  0  0  0  0
  -11.0270    6.2360   -5.0430 N   0  0  0  0  0  0  0  0  0  0  0  0
  -11.9530    7.0000   -4.4040 C   0  0  0  0  0  0  0  0  0  0  0  0
  -13.1300    6.7040   -4.2660 O   0  0  0  0  0  0  0  0  0  0  0  0
  -11.3590    8.1140   -3.9240 O   0  0  0  0  0  0  0  0  0  0  0  0
  -10.4500    7.8970   -2.8430 C   0  0  1  0  0  0  0  0  0  0  0  0
   -9.2410    8.8230   -2.8470 C   0  0  0  0  0  0  0  0  0  0  0  0
   -8.8510    9.0070   -1.4800 O   0  0  0  0  0  0  0  0  0  0  0  0
   -9.9100    8.5450   -0.6330 C   0  0  1  0  0  0  0  0  0  0  0  0
  -10.3170    9.5580    0.2860 O   0  0  0  0  0  0  0  0  0  0  0  0
  -11.6490    9.9640   -0.0400 C   0  0  0  0  0  0  0  0  0  0  0  0
  -11.9110    9.5010   -1.4540 C   0  0  0  0  0  0  0  0  0  0  0  0
  -11.0940    8.2250   -1.5180 C   0  0  1  0  0  0  0  0  0  0  0  0
   -6.7040    2.9900   -4.3540 S   0  0  0  0  0  0  0  0  0  0  0  0
   -6.1850    4.0330   -5.2140 O   0  0  0  0  0  0  0  0  0  0  0  0
   -5.9650    1.7580   -4.1500 O   0  0  0  0  0  0  0  0  0  0  0  0
   -6.9370    3.7410   -2.7490 C   0  0  0  0  0  0  0  0  0  0  0  0
   -7.3810    5.0630   -2.6640 C   0  0  0  0  0  0  0  0  0  0  0  0
   -7.5730    5.6630   -1.4150 C   0  0  0  0  0  0  0  0  0  0  0  0
   -7.3400    4.9250   -0.2380 C   0  0  0  0  0  0  0  0  0  0  0  0
   -7.4820    5.3960    1.0560 N   0  0  0  0  0  0  0  0  0  0  0  0
   -7.2030    4.4350    1.9050 C   0  0  0  0  0  0  0  0  0  0  0  0
   -6.7580    2.9260    1.2310 S   0  0  0  0  0  0  0  0  0  0  0  0
   -6.9410    3.5900   -0.3510 C   0  0  0  0  0  0  0  0  0  0  0  0
   -6.7490    2.9690   -1.5960 C   0  0  0  0  0  0  0  0  0  0  0  0
   -6.5773    0.5218   -6.1212 H   0  0  0  0  0  0  0  0  0  0  0  0
   -6.3541   -0.4785   -7.5963 H   0  0  0  0  0  0  0  0  0  0  0  0
   -5.8521    1.2462   -7.5963 H   0  0  0  0  0  0  0  0  0  0  0  0
   -7.9011    1.9318   -8.1541 H   0  0  0  0  0  0  0  0  0  0  0  0
   -8.2878    0.1374   -8.4031 H   0  0  0  0  0  0  0  0  0  0  0  0
   -9.6699    1.9053   -6.8446 H   0  0  0  0  0  0  0  0  0  0  0  0
   -9.7988   -0.9844   -6.1234 H   0  0  0  0  0  0  0  0  0  0  0  0
  -11.0975    0.2802   -6.4984 H   0  0  0  0  0  0  0  0  0  0  0  0
  -10.6981   -1.7652   -8.0945 H   0  0  0  0  0  0  0  0  0  0  0  0
  -11.0669   -0.1193   -8.7125 H   0  0  0  0  0  0  0  0  0  0  0  0
   -9.3741   -0.7203   -8.7125 H   0  0  0  0  0  0  0  0  0  0  0  0
   -9.3008    0.7797   -4.4899 H   0  0  0  0  0  0  0  0  0  0  0  0
   -7.6203    0.5628   -5.1247 H   0  0  0  0  0  0  0  0  0  0  0  0
   -8.5688    4.5308   -5.5880 H   0  0  0  0  0  0  0  0  0  0  0  0
   -9.3376    3.1837   -6.5712 H   0  0  0  0  0  0  0  0  0  0  0  0
  -11.0646    2.8876   -4.9537 H   0  0  0  0  0  0  0  0  0  0  0  0
   -9.4180    3.6820   -3.2140 H   0  0  0  0  0  0  0  0  0  0  0  0
  -12.3721    4.6488   -5.3925 H   0  0  0  0  0  0  0  0  0  0  0  0
  -11.1625    5.9837   -7.4553 H   0  0  0  0  0  0  0  0  0  0  0  0
  -10.1026    4.4946   -7.2956 H   0  0  0  0  0  0  0  0  0  0  0  0
  -13.0482    5.8457   -8.8019 H   0  0  0  0  0  0  0  0  0  0  0  0
  -14.6906    4.4947  -10.0993 H   0  0  0  0  0  0  0  0  0  0  0  0
  -14.6561    2.0057   -9.9518 H   0  0  0  0  0  0  0  0  0  0  0  0
  -12.9701    0.8670   -8.5100 H   0  0  0  0  0  0  0  0  0  0  0  0
  -11.3197    2.2124   -7.2180 H   0  0  0  0  0  0  0  0  0  0  0  0
  -10.0710    6.5660   -4.9820 H   0  0  0  0  0  0  0  0  0  0  0  0
  -10.1601    6.8436   -2.9710 H   0  0  0  0  0  0  0  0  0  0  0  0
   -8.4178    8.3674   -3.4169 H   0  0  0  0  0  0  0  0  0  0  0  0
   -9.4851    9.7861   -3.3191 H   0  0  0  0  0  0  0  0  0  0  0  0
   -9.5595    7.6702   -0.0656 H   0  0  0  0  0  0  0  0  0  0  0  0
  -12.3670    9.4977    0.6506 H   0  0  0  0  0  0  0  0  0  0  0  0
  -11.7621   11.0548    0.0462 H   0  0  0  0  0  0  0  0  0  0  0  0
  -12.9801    9.3009   -1.6185 H   0  0  0  0  0  0  0  0  0  0  0  0
  -11.6429   10.2411   -2.2224 H   0  0  0  0  0  0  0  0  0  0  0  0
  -11.7645    7.3897   -1.2676 H   0  0  0  0  0  0  0  0  0  0  0  0
   -7.5803    5.6342   -3.5827 H   0  0  0  0  0  0  0  0  0  0  0  0
   -7.9055    6.7097   -1.3521 H   0  0  0  0  0  0  0  0  0  0  0  0
   -7.2525    4.5911    2.9927 H   0  0  0  0  0  0  0  0  0  0  0  0
   -6.4601    1.9097   -1.6632 H   0  0  0  0  0  0  0  0  0  0  0  0
  1  2  1  0
  2  3  1  0
  3  4  1  0
  4  5  1  0
  3  6  1  0
  6  7  1  0
  7  8  1  0
  8  9  1  0
  9 10  1  0
  9 11  1  0
 11 12  1  0
 12 13  1  0
 13 14  2  0
 14 15  1  0
 15 16  2  0
 16 17  1  0
 17 18  2  0
 11 19  1  0
 19 20  1  0
 20 21  2  0
 20 22  1  0
 22 23  1  0
 23 24  1  0
 24 25  1  0
 25 26  1  0
 26 27  1  0
 27 28  1  0
 28 29  1  0
 29 30  1  0
  7 31  1  0
 31 32  2  0
 31 33  2  0
 31 34  1  0
 34 35  2  0
 35 36  1  0
 36 37  2  0
 37 38  1  0
 38 39  2  0
 39 40  1  0
 40 41  1  0
 41 42  2  0
 18 13  1  0
 30 23  1  0
 42 34  1  0
 30 26  1  0
 41 37  1  0
  1 43  1  0
  1 44  1  0
  1 45  1  0
  2 46  1  0
  2 47  1  0
  3 48  1  0
  4 49  1  0
  4 50  1  0
  5 51  1  0
  5 52  1  0
  5 53  1  0
  6 54  1  0
  6 55  1  0
  8 56  1  0
  8 57  1  0
  9 58  1  1
 10 59  1  0
 11 60  1  6
 12 61  1  0
 12 62  1  0
 14 63  1  0
 15 64  1  0
 16 65  1  0
 17 66  1  0
 18 67  1  0
 19 68  1  0
 23 69  1  1
 24 70  1  0
 24 71  1  0
 26 72  1  1
 28 73  1  0
 28 74  1  0
 29 75  1  0
 29 76  1  0
 30 77  1  1
 35 78  1  0
 36 79  1  0
 39 80  1  0
 42 81  1  0
M  END
>  <meeko>  (8) 
{"is_sidechain": [false], "free_energy": -8.889, "intermolecular_energy": -15.879, "internal_energy": -2.901}

$$$$
3o9i_ligand
     RDKit          3D

 81 85  0  0  0  0  0  0  0  0999 V2000
   -9.6430    9.3580   -2.1780 C   0  0  0  0  0  0  0  0  0  0  0  0
  -10.7720    9.2850   -3.1990 C   0  0  0  0  0  0  0  0  0  0  0  0
  -11.1520    7.8780   -3.7160 C   0  0  0  0  0  0  0  0  0  0  0  0
  -12.6730    7.7000   -3.9300 C   0  0  0  0  0  0  0  0  0  0  0  0
  -13.3800    6.7210   -3.0060 C   0  0  0  0  0  0  0  0  0  0  0  0
  -10.3090    7.4450   -4.9350 C   0  0  0  0  0  0  0  0  0  0  0  0
  -10.4180    5.9900   -5.1720 N   0  0  0  0  0  0  0  0  0  0  0  0
  -10.1700    5.1130   -3.9900 C   0  0  0  0  0  0  0  0  0  0  0  0
   -8.7720    5.2600   -3.3600 C   0  0  1  0  0  0  0  0  0  0  0  0
   -8.9050    5.8970   -2.0860 O   0  0  0  0  0  0  0  0  0  0  0  0
   -8.0150    3.9010   -3.2520 C   0  0  2  0  0  0  0  0  0  0  0  0
   -8.7820    2.7420   -3.9360 C   0  0  0  0  0  0  0  0  0  0  0  0
   -7.9100    1.7900   -4.7210 C   0  0  0  0  0  0  0  0  0  0  0  0
   -8.4860    0.8100   -5.5410 C   0  0  0  0  0  0  0  0  0  0  0  0
   -7.6810   -0.0760   -6.2580 C   0  0  0  0  0  0  0  0  0  0  0  0
   -6.2930    0.0090   -6.1640 C   0  0  0  0  0  0  0  0  0  0  0  0
   -5.7100    0.9830   -5.3560 C   0  0  0  0  0  0  0  0  0  0  0  0
   -6.5130    1.8720   -4.6420 C   0  0  0  0  0  0  0  0  0  0  0  0
   -7.7710    3.5410   -1.8540 N   0  0  0  0  0  0  0  0  0  0  0  0
   -6.5580    3.6710   -1.2540 C   0  0  0  0  0  0  0  0  0  0  0  0
   -5.5350    4.0350   -1.8130 O   0  0  0  0  0  0  0  0  0  0  0  0
   -6.6730    3.3650    0.0570 O   0  0  0  0  0  0  0  0  0  0  0  0
   -6.3830    4.4370    0.9560 C   0  0  1  0  0  0  0  0  0  0  0  0
   -7.4340    5.5390    0.9750 C   0  0  0  0  0  0  0  0  0  0  0  0
   -7.4240    6.1030    2.2930 O   0  0  0  0  0  0  0  0  0  0  0  0
   -6.7000    5.2250    3.1630 C   0  0  1  0  0  0  0  0  0  0  0  0
   -7.4830    4.8600    4.2990 O   0  0  0  0  0  0  0  0  0  0  0  0
   -7.7770    3.4630    4.2240 C   0  0  0  0  0  0  0  0  0  0  0  0
   -7.5370    3.0450    2.7910 C   0  0  0  0  0  0  0  0  0  0  0  0
   -6.3980    3.9620    2.3880 C   0  0  1  0  0  0  0  0  0  0  0  0
  -10.2430    5.3750   -6.7370 S   0  0  0  0  0  0  0  0  0  0  0  0
  -10.9690    6.2320   -7.6500 O   0  0  0  0  0  0  0  0  0  0  0  0
  -10.5250    3.9530   -6.6700 O   0  0  0  0  0  0  0  0  0  0  0  0
   -8.5150    5.5550   -7.1560 C   0  0  0  0  0  0  0  0  0  0  0  0
   -7.6230    4.5210   -6.8630 C   0  0  0  0  0  0  0  0  0  0  0  0
   -6.2680    4.6440   -7.1900 C   0  0  0  0  0  0  0  0  0  0  0  0
   -5.8060    5.8070   -7.8380 C   0  0  0  0  0  0  0  0  0  0  0  0
   -4.4960    6.0620   -8.2090 N   0  0  0  0  0  0  0  0  0  0  0  0
   -4.4300    7.2280   -8.8080 C   0  0  0  0  0  0  0  0  0  0  0  0
   -5.9000    8.0890   -8.9670 S   0  0  0  0  0  0  0  0  0  0  0  0
   -6.7270    6.8070   -8.1620 C   0  0  0  0  0  0  0  0  0  0  0  0
   -8.0920    6.6970   -7.8470 C   0  0  0  0  0  0  0  0  0  0  0  0
  -10.0647    9.3307   -1.1624 H   0  0  0  0  0  0  0  0  0  0  0  0
   -8.9667    8.5017   -2.3173 H   0  0  0  0  0  0  0  0  0  0  0  0
   -9.0826   10.2943   -2.3173 H   0  0  0  0  0  0  0  0  0  0  0  0
  -11.6685    9.7233   -2.7362 H   0  0  0  0  0  0  0  0  0  0  0  0
  -10.3988    9.8257   -4.0813 H   0  0  0  0  0  0  0  0  0  0  0  0
  -10.8908    7.1783   -2.9084 H   0  0  0  0  0  0  0  0  0  0  0  0
  -13.1461    8.6843   -3.7984 H   0  0  0  0  0  0  0  0  0  0  0  0
  -12.7763    7.2734   -4.9387 H   0  0  0  0  0  0  0  0  0  0  0  0
  -13.1815    6.9958   -1.9595 H   0  0  0  0  0  0  0  0  0  0  0  0
  -14.4631    6.7553   -3.1950 H   0  0  0  0  0  0  0  0  0  0  0  0
  -13.0068    5.7036   -3.1950 H   0  0  0  0  0  0  0  0  0  0  0  0
  -10.6660    7.9813   -5.8266 H   0  0  0  0  0  0  0  0  0  0  0  0
   -9.2551    7.6865   -4.7325 H   0  0  0  0  0  0  0  0  0  0  0  0
  -10.9190    5.3543   -3.2214 H   0  0  0  0  0  0  0  0  0  0  0  0
  -10.2394    4.0768   -4.3526 H   0  0  0  0  0  0  0  0  0  0  0  0
   -8.1541    5.8858   -4.0208 H   0  0  0  0  0  0  0  0  0  0  0  0
   -8.2020    6.5660   -1.9950 H   0  0  0  0  0  0  0  0  0  0  0  0
   -7.0577    4.0452   -3.7742 H   0  0  0  0  0  0  0  0  0  0  0  0
   -9.3025    2.1671   -3.1559 H   0  0  0  0  0  0  0  0  0  0  0  0
   -9.4687    3.2057   -4.6595 H   0  0  0  0  0  0  0  0  0  0  0  0
   -9.5809    0.7388   -5.6199 H   0  0  0  0  0  0  0  0  0  0  0  0
   -8.1424   -0.8424   -6.8981 H   0  0  0  0  0  0  0  0  0  0  0  0
   -5.6588   -0.6917   -6.7268 H   0  0  0  0  0  0  0  0  0  0  0  0
   -4.6146    1.0508   -5.2812 H   0  0  0  0  0  0  0  0  0  0  0  0
   -6.0464    2.6435   -4.0119 H   0  0  0  0  0  0  0  0  0  0  0  0
   -8.5460    3.3330   -1.2350 H   0  0  0  0  0  0  0  0  0  0  0  0
   -5.4102    4.8049    0.5979 H   0  0  0  0  0  0  0  0  0  0  0  0
   -7.1859    6.3109    0.2316 H   0  0  0  0  0  0  0  0  0  0  0  0
   -8.4279    5.1388    0.7261 H   0  0  0  0  0  0  0  0  0  0  0  0
   -5.7886    5.7349    3.5085 H   0  0  0  0  0  0  0  0  0  0  0  0
   -7.1159    2.8997    4.8990 H   0  0  0  0  0  0  0  0  0  0  0  0
   -8.8149    3.2602    4.5268 H   0  0  0  0  0  0  0  0  0  0  0  0
   -7.2420    1.9873    2.7262 H   0  0  0  0  0  0  0  0  0  0  0  0
   -8.4253    3.1281    2.1476 H   0  0  0  0  0  0  0  0  0  0  0  0
   -5.4579    3.4169    2.5588 H   0  0  0  0  0  0  0  0  0  0  0  0
   -7.9872    3.6060   -6.3731 H   0  0  0  0  0  0  0  0  0  0  0  0
   -5.5652    3.8349   -6.9419 H   0  0  0  0  0  0  0  0  0  0  0  0
   -3.4794    7.6306   -9.1879 H   0  0  0  0  0  0  0  0  0  0  0  0
   -8.8057    7.4832   -8.1342 H   0  0  0  0  0  0  0  0  0  0  0  0
  1  2  1  0
  2  3  1  0
  3  4  1  0
  4  5  1  0
  3  6  1  0
  6  7  1  0
  7  8  1  0
  8  9  1  0
  9 10  1  0
  9 11  1  0
 11 12  1  0
 12 13  1  0
 13 14  2  0
 14 15  1  0
 15 16  2  0
 16 17  1  0
 17 18  2  0
 11 19  1  0
 19 20  1  0
 20 21  2  0
 20 22  1  0
 22 23  1  0
 23 24  1  0
 24 25  1  0
 25 26  1  0
 26 27  1  0
 27 28  1  0
 28 29  1  0
 29 30  1  0
  7 31  1  0
 31 32  2  0
 31 33  2  0
 31 34  1  0
 34 35  2  0
 35 36  1  0
 36 37  2  0
 37 38  1  0
 38 39  2  0
 39 40  1  0
 40 41  1  0
 41 42  2  0
 18 13  1  0
 30 23  1  0
 42 34  1  0
 30 26  1  0
 41 37  1  0
  1 43  1  0
  1 44  1  0
  1 45  1  0
  2 46  1  0
  2 47  1  0
  3 48  1  0
  4 49  1  0
  4 50  1  0
  5 51  1  0
  5 52  1  0
  5 53  1  0
  6 54  1  0
  6 55  1  0
  8 56  1  0
  8 57  1  0
  9 58  1  6
 10 59  1  0
 11 60  1  6
 12 61  1  0
 12 62  1  0
 14 63  1  0
 15 64  1  0
 16 65  1  0
 17 66  1  0
 18 67  1  0
 19 68  1  0
 23 69  1  6
 24 70  1  0
 24 71  1  0
 26 72  1  1
 28 73  1  0
 28 74  1  0
 29 75  1  0
 29 76  1  0
 30 77  1  1
 35 78  1  0
 36 79  1  0
 39 80  1  0
 42 81  1  0
M  END
>  <meeko>  (9) 
{"is_sidechain": [false], "free_energy": -8.808, "intermolecular_energy": -15.722, "internal_energy": -2.907}

$$$$
