4ddk_ligand
     RDKit          3D

 17 18  0  0  0  0  0  0  0  0999 V2000
   -7.3530   18.3050   11.2360 O   0  0  0  0  0  0  0  0  0  0  0  0
   -6.9220   19.4720   11.4960 C   0  0  0  0  0  0  0  0  0  0  0  0
   -7.0070   20.0630   12.6180 O   0  0  0  0  0  0  0  0  0  0  0  0
   -6.2470   20.2260   10.3670 C   0  0  0  0  0  0  0  0  0  0  0  0
   -6.1600   19.6560    9.0720 C   0  0  0  0  0  0  0  0  0  0  0  0
   -5.5410   20.3340    8.0150 C   0  0  0  0  0  0  0  0  0  0  0  0
   -5.0180   21.5790    8.2780 C   0  0  0  0  0  0  0  0  0  0  0  0
   -5.0920   22.1500    9.5290 C   0  0  0  0  0  0  0  0  0  0  0  0
   -5.6960   21.5030   10.5860 C   0  0  0  0  0  0  0  0  0  0  0  0
   -4.5140   23.3810    9.5720 O   0  0  0  0  0  0  0  0  0  0  0  0
   -4.0700   23.5160    8.2090 C   0  0  0  0  0  0  0  0  0  0  0  0
   -4.3830   22.3800    7.3780 O   0  0  0  0  0  0  0  0  0  0  0  0
   -6.5884   18.6587    8.8936 H   0  0  0  0  0  0  0  0  0  0  0  0
   -5.4753   19.8879    7.0117 H   0  0  0  0  0  0  0  0  0  0  0  0
   -5.7463   21.9741   11.5787 H   0  0  0  0  0  0  0  0  0  0  0  0
   -4.5498   24.4056    7.7748 H   0  0  0  0  0  0  0  0  0  0  0  0
   -2.9735   23.5992    8.2368 H   0  0  0  0  0  0  0  0  0  0  0  0
  1  2  2  0
  2  3  1  0
  2  4  1  0
  4  5  2  0
  5  6  1  0
  6  7  2  0
  7  8  1  0
  8  9  2  0
  8 10  1  0
 10 11  1  0
 11 12  1  0
  9  4  1  0
 12  7  1  0
  5 13  1  0
  6 14  1  0
  9 15  1  0
 11 16  1  0
 11 17  1  0
M  CHG  1   3  -1
M  END
>  <meeko>  (1) 
{"is_sidechain": [false], "free_energy": -5.763, "intermolecular_energy": -6.099, "internal_energy": -0.058}

$$$$
4ddk_ligand
     RDKit          3D

 17 18  0  0  0  0  0  0  0  0999 V2000
   -6.3870   17.6330    7.6450 O   0  0  0  0  0  0  0  0  0  0  0  0
   -6.3380   18.0490    8.8460 C   0  0  0  0  0  0  0  0  0  0  0  0
   -6.6340   17.3720    9.8800 O   0  0  0  0  0  0  0  0  0  0  0  0
   -5.8870   19.4810    9.0620 C   0  0  0  0  0  0  0  0  0  0  0  0
   -6.0530   20.1050   10.3240 C   0  0  0  0  0  0  0  0  0  0  0  0
   -5.6440   21.4250   10.5470 C   0  0  0  0  0  0  0  0  0  0  0  0
   -5.0730   22.0990    9.4910 C   0  0  0  0  0  0  0  0  0  0  0  0
   -4.9040   21.5110    8.2580 C   0  0  0  0  0  0  0  0  0  0  0  0
   -5.2980   20.2120    8.0140 C   0  0  0  0  0  0  0  0  0  0  0  0
   -4.3210   22.3500    7.3590 O   0  0  0  0  0  0  0  0  0  0  0  0
   -4.1460   23.5290    8.1680 C   0  0  0  0  0  0  0  0  0  0  0  0
   -4.6180   23.3820    9.5220 O   0  0  0  0  0  0  0  0  0  0  0  0
   -6.5138   19.5389   11.1469 H   0  0  0  0  0  0  0  0  0  0  0  0
   -5.7738   21.9052   11.5281 H   0  0  0  0  0  0  0  0  0  0  0  0
   -5.1550   19.7577    7.0224 H   0  0  0  0  0  0  0  0  0  0  0  0
   -3.0736   23.7719    8.1992 H   0  0  0  0  0  0  0  0  0  0  0  0
   -4.7456   24.3266    7.7050 H   0  0  0  0  0  0  0  0  0  0  0  0
  1  2  2  0
  2  3  1  0
  2  4  1  0
  4  5  2  0
  5  6  1  0
  6  7  2  0
  7  8  1  0
  8  9  2  0
  8 10  1  0
 10 11  1  0
 11 12  1  0
  9  4  1  0
 12  7  1  0
  5 13  1  0
  6 14  1  0
  9 15  1  0
 11 16  1  0
 11 17  1  0
M  CHG  1   3  -1
M  END
>  <meeko>  (2) 
{"is_sidechain": [false], "free_energy": -5.673, "intermolecular_energy": -6.005, "internal_energy": -0.058}

$$$$
4ddk_ligand
     RDKit          3D

 17 18  0  0  0  0  0  0  0  0999 V2000
   -4.8010   23.7330   10.7190 O   0  0  0  0  0  0  0  0  0  0  0  0
   -4.7500   23.2350    9.5500 C   0  0  0  0  0  0  0  0  0  0  0  0
   -4.3380   23.8290    8.5050 O   0  0  0  0  0  0  0  0  0  0  0  0
   -5.2250   21.8030    9.3890 C   0  0  0  0  0  0  0  0  0  0  0  0
   -5.1130   21.1440    8.1390 C   0  0  0  0  0  0  0  0  0  0  0  0
   -5.5440   19.8240    7.9680 C   0  0  0  0  0  0  0  0  0  0  0  0
   -6.0820   19.1840    9.0620 C   0  0  0  0  0  0  0  0  0  0  0  0
   -6.1990   19.8070   10.2830 C   0  0  0  0  0  0  0  0  0  0  0  0
   -5.7820   21.1070   10.4780 C   0  0  0  0  0  0  0  0  0  0  0  0
   -6.7560   18.9980   11.2260 O   0  0  0  0  0  0  0  0  0  0  0  0
   -6.9750   17.8010   10.4560 C   0  0  0  0  0  0  0  0  0  0  0  0
   -6.5510   17.9060    9.0820 O   0  0  0  0  0  0  0  0  0  0  0  0
   -4.6775   21.6825    7.2844 H   0  0  0  0  0  0  0  0  0  0  0  0
   -5.4564   19.3165    6.9960 H   0  0  0  0  0  0  0  0  0  0  0  0
   -5.8824   21.5887   11.4618 H   0  0  0  0  0  0  0  0  0  0  0  0
   -6.4185   16.9782   10.9286 H   0  0  0  0  0  0  0  0  0  0  0  0
   -8.0604   17.6231   10.4431 H   0  0  0  0  0  0  0  0  0  0  0  0
  1  2  2  0
  2  3  1  0
  2  4  1  0
  4  5  2  0
  5  6  1  0
  6  7  2  0
  7  8  1  0
  8  9  2  0
  8 10  1  0
 10 11  1  0
 11 12  1  0
  9  4  1  0
 12  7  1  0
  5 13  1  0
  6 14  1  0
  9 15  1  0
 11 16  1  0
 11 17  1  0
M  CHG  1   3  -1
M  END
>  <meeko>  (3) 
{"is_sidechain": [false], "free_energy": -5.584, "intermolecular_energy": -5.91, "internal_energy": -0.058}

$$$$
4ddk_ligand
     RDKit          3D

 17 18  0  0  0  0  0  0  0  0999 V2000
   -4.8660   23.8340   10.7780 O   0  0  0  0  0  0  0  0  0  0  0  0
   -4.7710   23.2250    9.6660 C   0  0  0  0  0  0  0  0  0  0  0  0
   -4.3000   23.7100    8.5900 O   0  0  0  0  0  0  0  0  0  0  0  0
   -5.2640   21.7910    9.6200 C   0  0  0  0  0  0  0  0  0  0  0  0
   -5.9400   21.2280   10.7310 C   0  0  0  0  0  0  0  0  0  0  0  0
   -6.4040   19.9070   10.7120 C   0  0  0  0  0  0  0  0  0  0  0  0
   -6.1810   19.1720    9.5690 C   0  0  0  0  0  0  0  0  0  0  0  0
   -5.5260   19.7020    8.4800 C   0  0  0  0  0  0  0  0  0  0  0  0
   -5.0600   21.0000    8.4750 C   0  0  0  0  0  0  0  0  0  0  0  0
   -5.4120   18.8090    7.4600 O   0  0  0  0  0  0  0  0  0  0  0  0
   -6.0660   17.6620    8.0330 C   0  0  0  0  0  0  0  0  0  0  0  0
   -6.5590   17.8790    9.3710 O   0  0  0  0  0  0  0  0  0  0  0  0
   -6.1039   21.8426   11.6285 H   0  0  0  0  0  0  0  0  0  0  0  0
   -6.9267   19.4729   11.5771 H   0  0  0  0  0  0  0  0  0  0  0  0
   -4.5404   21.4075    7.5953 H   0  0  0  0  0  0  0  0  0  0  0  0
   -6.9164   17.3909    7.3901 H   0  0  0  0  0  0  0  0  0  0  0  0
   -5.3128   16.8628    8.0956 H   0  0  0  0  0  0  0  0  0  0  0  0
  1  2  2  0
  2  3  1  0
  2  4  1  0
  4  5  2  0
  5  6  1  0
  6  7  2  0
  7  8  1  0
  8  9  2  0
  8 10  1  0
 10 11  1  0
 11 12  1  0
  9  4  1  0
 12  7  1  0
  5 13  1  0
  6 14  1  0
  9 15  1  0
 11 16  1  0
 11 17  1  0
M  CHG  1   3  -1
M  END
>  <meeko>  (4) 
{"is_sidechain": [false], "free_energy": -5.522, "intermolecular_energy": -5.845, "internal_energy": -0.058}

$$$$
4ddk_ligand
     RDKit          3D

 17 18  0  0  0  0  0  0  0  0999 V2000
   -7.5350   14.5800    8.9150 O   0  0  0  0  0  0  0  0  0  0  0  0
   -6.7430   14.4200    7.9330 C   0  0  0  0  0  0  0  0  0  0  0  0
   -5.7920   15.1980    7.6110 O   0  0  0  0  0  0  0  0  0  0  0  0
   -6.9540   13.1900    7.0710 C   0  0  0  0  0  0  0  0  0  0  0  0
   -5.8780   12.6350    6.3340 C   0  0  0  0  0  0  0  0  0  0  0  0
   -6.0490   11.5010    5.5320 C   0  0  0  0  0  0  0  0  0  0  0  0
   -7.3060   10.9400    5.4840 C   0  0  0  0  0  0  0  0  0  0  0  0
   -8.3640   11.4650    6.1920 C   0  0  0  0  0  0  0  0  0  0  0  0
   -8.2200   12.5810    6.9890 C   0  0  0  0  0  0  0  0  0  0  0  0
   -9.5130   10.7610    6.0040 O   0  0  0  0  0  0  0  0  0  0  0  0
   -9.0560    9.7390    5.0990 C   0  0  0  0  0  0  0  0  0  0  0  0
   -7.6580    9.8410    4.7610 O   0  0  0  0  0  0  0  0  0  0  0  0
   -4.8859   13.1064    6.3938 H   0  0  0  0  0  0  0  0  0  0  0  0
   -5.2111   11.0738    4.9615 H   0  0  0  0  0  0  0  0  0  0  0  0
   -9.0760   12.9864    7.5484 H   0  0  0  0  0  0  0  0  0  0  0  0
   -9.2285    8.7589    5.5677 H   0  0  0  0  0  0  0  0  0  0  0  0
   -9.6208    9.8648    4.1635 H   0  0  0  0  0  0  0  0  0  0  0  0
  1  2  2  0
  2  3  1  0
  2  4  1  0
  4  5  2  0
  5  6  1  0
  6  7  2  0
  7  8  1  0
  8  9  2  0
  8 10  1  0
 10 11  1  0
 11 12  1  0
  9  4  1  0
 12  7  1  0
  5 13  1  0
  6 14  1  0
  9 15  1  0
 11 16  1  0
 11 17  1  0
M  CHG  1   3  -1
M  END
>  <meeko>  (5) 
{"is_sidechain": [false], "free_energy": -5.067, "intermolecular_energy": -5.365, "internal_energy": -0.056}

$$$$
4ddk_ligand
     RDKit          3D

 17 18  0  0  0  0  0  0  0  0999 V2000
   -8.3240   11.8250    5.7870 O   0  0  0  0  0  0  0  0  0  0  0  0
   -7.7540   12.0430    6.9020 C   0  0  0  0  0  0  0  0  0  0  0  0
   -7.4320   11.1620    7.7580 O   0  0  0  0  0  0  0  0  0  0  0  0
   -7.4290   13.4860    7.2390 C   0  0  0  0  0  0  0  0  0  0  0  0
   -8.3180   14.2580    8.0290 C   0  0  0  0  0  0  0  0  0  0  0  0
   -8.0390   15.5900    8.3530 C   0  0  0  0  0  0  0  0  0  0  0  0
   -6.8650   16.1280    7.8760 C   0  0  0  0  0  0  0  0  0  0  0  0
   -5.9890   15.3950    7.1080 C   0  0  0  0  0  0  0  0  0  0  0  0
   -6.2410   14.0810    6.7750 C   0  0  0  0  0  0  0  0  0  0  0  0
   -4.8930   16.1140    6.7420 O   0  0  0  0  0  0  0  0  0  0  0  0
   -5.1830   17.3790    7.3660 C   0  0  0  0  0  0  0  0  0  0  0  0
   -6.4300   17.4010    8.0890 O   0  0  0  0  0  0  0  0  0  0  0  0
   -9.2482   13.7992    8.3954 H   0  0  0  0  0  0  0  0  0  0  0  0
   -8.7318   16.1852    8.9660 H   0  0  0  0  0  0  0  0  0  0  0  0
   -5.5293   13.5104    6.1603 H   0  0  0  0  0  0  0  0  0  0  0  0
   -4.3704   17.6125    8.0697 H   0  0  0  0  0  0  0  0  0  0  0  0
   -5.2686   18.1213    6.5587 H   0  0  0  0  0  0  0  0  0  0  0  0
  1  2  2  0
  2  3  1  0
  2  4  1  0
  4  5  2  0
  5  6  1  0
  6  7  2  0
  7  8  1  0
  8  9  2  0
  8 10  1  0
 10 11  1  0
 11 12  1  0
  9  4  1  0
 12  7  1  0
  5 13  1  0
  6 14  1  0
  9 15  1  0
 11 16  1  0
 11 17  1  0
M  CHG  1   3  -1
M  END
>  <meeko>  (6) 
{"is_sidechain": [false], "free_energy": -4.864, "intermolecular_energy": -5.16, "internal_energy": -0.047}

$$$$
4ddk_ligand
     RDKit          3D

 17 18  0  0  0  0  0  0  0  0999 V2000
   -9.1870   10.1120    6.1080 O   0  0  0  0  0  0  0  0  0  0  0  0
   -8.1000   10.5910    5.6550 C   0  0  0  0  0  0  0  0  0  0  0  0
   -7.3800   10.0720    4.7460 O   0  0  0  0  0  0  0  0  0  0  0  0
   -7.6200   11.8990    6.2550 C   0  0  0  0  0  0  0  0  0  0  0  0
   -6.3810   12.4610    5.8570 C   0  0  0  0  0  0  0  0  0  0  0  0
   -5.9190   13.6670    6.3970 C   0  0  0  0  0  0  0  0  0  0  0  0
   -6.7140   14.2920    7.3310 C   0  0  0  0  0  0  0  0  0  0  0  0
   -7.9200   13.7620    7.7300 C   0  0  0  0  0  0  0  0  0  0  0  0
   -8.3980   12.5750    7.2140 C   0  0  0  0  0  0  0  0  0  0  0  0
   -8.5450   14.5360    8.6590 O   0  0  0  0  0  0  0  0  0  0  0  0
   -7.5930   15.6070    8.7980 C   0  0  0  0  0  0  0  0  0  0  0  0
   -6.4280   15.4650    7.9600 O   0  0  0  0  0  0  0  0  0  0  0  0
   -5.7691   11.9379    5.1073 H   0  0  0  0  0  0  0  0  0  0  0  0
   -4.9563   14.0993    6.0865 H   0  0  0  0  0  0  0  0  0  0  0  0
   -9.3644   12.1664    7.5442 H   0  0  0  0  0  0  0  0  0  0  0  0
   -8.0936   16.5514    8.5382 H   0  0  0  0  0  0  0  0  0  0  0  0
   -7.2412   15.5886    9.8401 H   0  0  0  0  0  0  0  0  0  0  0  0
  1  2  2  0
  2  3  1  0
  2  4  1  0
  4  5  2  0
  5  6  1  0
  6  7  2  0
  7  8  1  0
  8  9  2  0
  8 10  1  0
 10 11  1  0
 11 12  1  0
  9  4  1  0
 12  7  1  0
  5 13  1  0
  6 14  1  0
  9 15  1  0
 11 16  1  0
 11 17  1  0
M  CHG  1   3  -1
M  END
>  <meeko>  (7) 
{"is_sidechain": [false], "free_energy": -4.858, "intermolecular_energy": -5.142, "internal_energy": -0.058}

$$$$
4ddk_ligand
     RDKit          3D

 17 18  0  0  0  0  0  0  0  0999 V2000
   -7.8610   17.0790   10.5460 O   0  0  0  0  0  0  0  0  0  0  0  0
   -6.7600   17.1240    9.9130 C   0  0  0  0  0  0  0  0  0  0  0  0
   -6.0640   16.1210    9.5600 O   0  0  0  0  0  0  0  0  0  0  0  0
   -6.2310   18.4970    9.5450 C   0  0  0  0  0  0  0  0  0  0  0  0
   -5.7440   18.7550    8.2390 C   0  0  0  0  0  0  0  0  0  0  0  0
   -5.2520   20.0140    7.8780 C   0  0  0  0  0  0  0  0  0  0  0  0
   -5.2580   20.9990    8.8400 C   0  0  0  0  0  0  0  0  0  0  0  0
   -5.7270   20.7680   10.1130 C   0  0  0  0  0  0  0  0  0  0  0  0
   -6.2170   19.5360   10.4940 C   0  0  0  0  0  0  0  0  0  0  0  0
   -5.6430   21.8720   10.9040 O   0  0  0  0  0  0  0  0  0  0  0  0
   -5.0690   22.8180    9.9830 C   0  0  0  0  0  0  0  0  0  0  0  0
   -4.8200   22.2770    8.6700 O   0  0  0  0  0  0  0  0  0  0  0  0
   -5.7531   17.9471    7.4925 H   0  0  0  0  0  0  0  0  0  0  0  0
   -4.8745   20.2096    6.8635 H   0  0  0  0  0  0  0  0  0  0  0  0
   -6.5882   19.3696   11.5160 H   0  0  0  0  0  0  0  0  0  0  0  0
   -5.7610   23.6671    9.8823 H   0  0  0  0  0  0  0  0  0  0  0  0
   -4.0939   23.1150   10.3964 H   0  0  0  0  0  0  0  0  0  0  0  0
  1  2  2  0
  2  3  1  0
  2  4  1  0
  4  5  2  0
  5  6  1  0
  6  7  2  0
  7  8  1  0
  8  9  2  0
  8 10  1  0
 10 11  1  0
 11 12  1  0
  9  4  1  0
 12  7  1  0
  5 13  1  0
  6 14  1  0
  9 15  1  0
 11 16  1  0
 11 17  1  0
M  CHG  1   3  -1
M  END
>  <meeko>  (8) 
{"is_sidechain": [false], "free_energy": -4.849, "intermolecular_energy": -5.138, "internal_energy": -0.052}

$$$$
4ddk_ligand
     RDKit          3D

 17 18  0  0  0  0  0  0  0  0999 V2000
   -4.7110   21.8290    7.4160 O   0  0  0  0  0  0  0  0  0  0  0  0
   -5.1120   21.5330    8.5850 C   0  0  0  0  0  0  0  0  0  0  0  0
   -5.1610   22.3240    9.5780 O   0  0  0  0  0  0  0  0  0  0  0  0
   -5.5740   20.1060    8.8150 C   0  0  0  0  0  0  0  0  0  0  0  0
   -5.3800   19.1180    7.8170 C   0  0  0  0  0  0  0  0  0  0  0  0
   -5.7980   17.7950    8.0070 C   0  0  0  0  0  0  0  0  0  0  0  0
   -6.4060   17.4870    9.2030 C   0  0  0  0  0  0  0  0  0  0  0  0
   -6.6030   18.4320   10.1840 C   0  0  0  0  0  0  0  0  0  0  0  0
   -6.2010   19.7420   10.0210 C   0  0  0  0  0  0  0  0  0  0  0  0
   -7.2200   17.9190   11.2830 O   0  0  0  0  0  0  0  0  0  0  0  0
   -7.3870   16.5470   10.8790 C   0  0  0  0  0  0  0  0  0  0  0  0
   -6.8750   16.2600    9.5620 O   0  0  0  0  0  0  0  0  0  0  0  0
   -4.8902   19.3968    6.8723 H   0  0  0  0  0  0  0  0  0  0  0  0
   -5.6463   17.0311    7.2302 H   0  0  0  0  0  0  0  0  0  0  0  0
   -6.3669   20.4845   10.8155 H   0  0  0  0  0  0  0  0  0  0  0  0
   -6.8613   15.9064   11.6023 H   0  0  0  0  0  0  0  0  0  0  0  0
   -8.4691   16.3516   10.8508 H   0  0  0  0  0  0  0  0  0  0  0  0
  1  2  2  0
  2  3  1  0
  2  4  1  0
  4  5  2  0
  5  6  1  0
  6  7  2  0
  7  8  1  0
  8  9  2  0
  8 10  1  0
 10 11  1  0
 11 12  1  0
  9  4  1  0
 12  7  1  0
  5 13  1  0
  6 14  1  0
  9 15  1  0
 11 16  1  0
 11 17  1  0
M  CHG  1   3  -1
M  END
>  <meeko>  (9) 
{"is_sidechain": [false], "free_energy": -4.816, "intermolecular_energy": -5.097, "internal_energy": -0.058}

$$$$
