3u5j_ligand
     RDKit          3D

 35 38  0  0  0  0  0  0  0  0999 V2000
   -0.3870   11.7860    5.9290 C   0  0  0  0  0  0  0  0  0  0  0  0
    0.1960   12.8130    6.8240 C   0  0  0  0  0  0  0  0  0  0  0  0
   -0.3750   13.9710    7.0890 N   0  0  0  0  0  0  0  0  0  0  0  0
    0.4980   14.7230    7.8240 N   0  0  0  0  0  0  0  0  0  0  0  0
    1.5920   14.0140    8.0010 C   0  0  0  0  0  0  0  0  0  0  0  0
    1.4450   12.7710    7.4240 N   0  0  0  0  0  0  0  0  0  0  0  0
    2.3680   11.7000    7.5350 C   0  0  0  0  0  0  0  0  0  0  0  0
    1.8840   10.3840    7.6430 C   0  0  0  0  0  0  0  0  0  0  0  0
    2.7650    9.3200    7.8510 C   0  0  0  0  0  0  0  0  0  0  0  0
    4.1300    9.5610    7.9660 C   0  0  0  0  0  0  0  0  0  0  0  0
    5.2080    8.2500    8.2400 Cl  0  0  0  0  0  0  0  0  0  0  0  0
    4.6270   10.8560    7.8590 C   0  0  0  0  0  0  0  0  0  0  0  0
    3.7560   11.9350    7.6220 C   0  0  0  0  0  0  0  0  0  0  0  0
    4.3820   13.2790    7.4000 C   0  0  0  0  0  0  0  0  0  0  0  0
    5.5750   13.3680    6.4950 C   0  0  0  0  0  0  0  0  0  0  0  0
    5.5430   12.8460    5.1950 C   0  0  0  0  0  0  0  0  0  0  0  0
    6.6700   12.9450    4.3760 C   0  0  0  0  0  0  0  0  0  0  0  0
    7.8240   13.5730    4.8470 C   0  0  0  0  0  0  0  0  0  0  0  0
    7.8520   14.1110    6.1320 C   0  0  0  0  0  0  0  0  0  0  0  0
    6.7290   14.0150    6.9550 C   0  0  0  0  0  0  0  0  0  0  0  0
    3.9720   14.3820    7.9280 N   0  0  0  0  0  0  0  0  0  0  0  0
    2.7910   14.3950    8.7800 C   0  0  0  0  0  0  0  0  0  0  0  0
   -0.8405   10.9871    6.5341 H   0  0  0  0  0  0  0  0  0  0  0  0
   -1.1577   12.2476    5.2943 H   0  0  0  0  0  0  0  0  0  0  0  0
    0.4044   11.3609    5.2943 H   0  0  0  0  0  0  0  0  0  0  0  0
    0.8040   10.1911    7.5631 H   0  0  0  0  0  0  0  0  0  0  0  0
    2.3795    8.2923    7.9238 H   0  0  0  0  0  0  0  0  0  0  0  0
    5.7072   11.0373    7.9603 H   0  0  0  0  0  0  0  0  0  0  0  0
    4.6310   12.3586    4.8198 H   0  0  0  0  0  0  0  0  0  0  0  0
    6.6481   12.5275    3.3585 H   0  0  0  0  0  0  0  0  0  0  0  0
    8.7128   13.6433    4.2027 H   0  0  0  0  0  0  0  0  0  0  0  0
    8.7603   14.6120    6.4982 H   0  0  0  0  0  0  0  0  0  0  0  0
    6.7501   14.4479    7.9660 H   0  0  0  0  0  0  0  0  0  0  0  0
    2.9304   13.6803    9.6045 H   0  0  0  0  0  0  0  0  0  0  0  0
    2.6499   15.4096    9.1809 H   0  0  0  0  0  0  0  0  0  0  0  0
  1  2  1  0
  2  3  2  0
  3  4  1  0
  4  5  2  0
  5  6  1  0
  6  7  1  0
  7  8  2  0
  8  9  1  0
  9 10  2  0
 10 11  1  0
 10 12  1  0
 12 13  2  0
 13 14  1  0
 14 15  1  0
 15 16  2  0
 16 17  1  0
 17 18  2  0
 18 19  1  0
 19 20  2  0
 14 21  2  0
 21 22  1  0
  6  2  1  0
 13  7  1  0
 20 15  1  0
 22  5  1  0
  1 23  1  0
  1 24  1  0
  1 25  1  0
  8 26  1  0
  9 27  1  0
 12 28  1  0
 16 29  1  0
 17 30  1  0
 18 31  1  0
 19 32  1  0
 20 33  1  0
 22 34  1  0
 22 35  1  0
M  END
>  <meeko>  (1) 
{"is_sidechain": [false], "free_energy": -7.062, "intermolecular_energy": -7.475, "internal_energy": -0.436}

$$$$
3u5j_ligand
     RDKit          3D

 35 38  0  0  0  0  0  0  0  0999 V2000
   -0.1340    9.9730    5.5750 C   0  0  0  0  0  0  0  0  0  0  0  0
    0.0610   11.2090    6.3680 C   0  0  0  0  0  0  0  0  0  0  0  0
   -0.7910   12.2140    6.3900 N   0  0  0  0  0  0  0  0  0  0  0  0
   -0.2300   13.2380    7.1000 N   0  0  0  0  0  0  0  0  0  0  0  0
    0.9580   12.8450    7.5060 C   0  0  0  0  0  0  0  0  0  0  0  0
    1.1840   11.5460    7.1070 N   0  0  0  0  0  0  0  0  0  0  0  0
    2.3000   10.7540    7.4830 C   0  0  0  0  0  0  0  0  0  0  0  0
    2.1180    9.3820    7.7290 C   0  0  0  0  0  0  0  0  0  0  0  0
    3.1770    8.5990    8.1930 C   0  0  0  0  0  0  0  0  0  0  0  0
    4.4190    9.1790    8.4280 C   0  0  0  0  0  0  0  0  0  0  0  0
    5.7150    8.2140    9.0160 Cl  0  0  0  0  0  0  0  0  0  0  0  0
    4.6190   10.5350    8.1870 C   0  0  0  0  0  0  0  0  0  0  0  0
    3.5690   11.3310    7.6930 C   0  0  0  0  0  0  0  0  0  0  0  0
    3.8990   12.7530    7.3470 C   0  0  0  0  0  0  0  0  0  0  0  0
    5.1610   13.0250    6.5820 C   0  0  0  0  0  0  0  0  0  0  0  0
    5.3300   12.5650    5.2690 C   0  0  0  0  0  0  0  0  0  0  0  0
    6.5170   12.8360    4.5840 C   0  0  0  0  0  0  0  0  0  0  0  0
    7.5280   13.5730    5.2000 C   0  0  0  0  0  0  0  0  0  0  0  0
    7.3550   14.0500    6.4980 C   0  0  0  0  0  0  0  0  0  0  0  0
    6.1710   13.7820    7.1890 C   0  0  0  0  0  0  0  0  0  0  0  0
    3.1750   13.7750    7.6540 N   0  0  0  0  0  0  0  0  0  0  0  0
    1.9100   13.5980    8.3520 C   0  0  0  0  0  0  0  0  0  0  0  0
   -0.2688    9.1187    6.2547 H   0  0  0  0  0  0  0  0  0  0  0  0
   -1.0262   10.0812    4.9407 H   0  0  0  0  0  0  0  0  0  0  0  0
    0.7482    9.8013    4.9407 H   0  0  0  0  0  0  0  0  0  0  0  0
    1.1342    8.9218    7.5547 H   0  0  0  0  0  0  0  0  0  0  0  0
    3.0289    7.5239    8.3726 H   0  0  0  0  0  0  0  0  0  0  0  0
    5.6025   10.9867    8.3836 H   0  0  0  0  0  0  0  0  0  0  0  0
    4.5295   11.9916    4.7787 H   0  0  0  0  0  0  0  0  0  0  0  0
    6.6544   12.4673    3.5568 H   0  0  0  0  0  0  0  0  0  0  0  0
    8.4642   13.7783    4.6601 H   0  0  0  0  0  0  0  0  0  0  0  0
    8.1511   14.6377    6.9785 H   0  0  0  0  0  0  0  0  0  0  0  0
    6.0318   14.1657    8.2105 H   0  0  0  0  0  0  0  0  0  0  0  0
    2.0849   13.0419    9.2848 H   0  0  0  0  0  0  0  0  0  0  0  0
    1.4840   14.5869    8.5772 H   0  0  0  0  0  0  0  0  0  0  0  0
  1  2  1  0
  2  3  2  0
  3  4  1  0
  4  5  2  0
  5  6  1  0
  6  7  1  0
  7  8  2  0
  8  9  1  0
  9 10  2  0
 10 11  1  0
 10 12  1  0
 12 13  2  0
 13 14  1  0
 14 15  1  0
 15 16  2  0
 16 17  1  0
 17 18  2  0
 18 19  1  0
 19 20  2  0
 14 21  2  0
 21 22  1  0
  6  2  1  0
 13  7  1  0
 20 15  1  0
 22  5  1  0
  1 23  1  0
  1 24  1  0
  1 25  1  0
  8 26  1  0
  9 27  1  0
 12 28  1  0
 16 29  1  0
 17 30  1  0
 18 31  1  0
 19 32  1  0
 20 33  1  0
 22 34  1  0
 22 35  1  0
M  END
>  <meeko>  (2) 
{"is_sidechain": [false], "free_energy": -7.033, "intermolecular_energy": -7.378, "internal_energy": -0.501}

$$$$
3u5j_ligand
     RDKit          3D

 35 38  0  0  0  0  0  0  0  0999 V2000
   10.2190    5.7980    8.9460 C   0  0  0  0  0  0  0  0  0  0  0  0
    9.0390    5.1900    9.6020 C   0  0  0  0  0  0  0  0  0  0  0  0
    8.7920    3.8960    9.6250 N   0  0  0  0  0  0  0  0  0  0  0  0
    7.5570    3.7030   10.1790 N   0  0  0  0  0  0  0  0  0  0  0  0
    7.0660    4.8820   10.4910 C   0  0  0  0  0  0  0  0  0  0  0  0
    7.9800    5.8680   10.1870 N   0  0  0  0  0  0  0  0  0  0  0  0
    7.8440    7.2420   10.5120 C   0  0  0  0  0  0  0  0  0  0  0  0
    8.9820    7.9730   10.8950 C   0  0  0  0  0  0  0  0  0  0  0  0
    8.8640    9.3000   11.3130 C   0  0  0  0  0  0  0  0  0  0  0  0
    7.6110    9.9030   11.3640 C   0  0  0  0  0  0  0  0  0  0  0  0
    7.4680   11.5320   11.8960 Cl  0  0  0  0  0  0  0  0  0  0  0  0
    6.4740    9.1960   10.9850 C   0  0  0  0  0  0  0  0  0  0  0  0
    6.5800    7.8670   10.5360 C   0  0  0  0  0  0  0  0  0  0  0  0
    5.3260    7.2170   10.0340 C   0  0  0  0  0  0  0  0  0  0  0  0
    4.4330    8.0030    9.1200 C   0  0  0  0  0  0  0  0  0  0  0  0
    4.9500    8.9920    8.2710 C   0  0  0  0  0  0  0  0  0  0  0  0
    4.0910    9.7060    7.4310 C   0  0  0  0  0  0  0  0  0  0  0  0
    2.7240    9.4290    7.4280 C   0  0  0  0  0  0  0  0  0  0  0  0
    2.2110    8.4320    8.2560 C   0  0  0  0  0  0  0  0  0  0  0  0
    3.0630    7.7150    9.0980 C   0  0  0  0  0  0  0  0  0  0  0  0
    4.9480    6.0180   10.3240 N   0  0  0  0  0  0  0  0  0  0  0  0
    5.7790    5.1670   11.1630 C   0  0  0  0  0  0  0  0  0  0  0  0
   10.9196    6.1590    9.7133 H   0  0  0  0  0  0  0  0  0  0  0  0
   10.7184    5.0449    8.3187 H   0  0  0  0  0  0  0  0  0  0  0  0
    9.8956    6.6417    8.3187 H   0  0  0  0  0  0  0  0  0  0  0  0
    9.9728    7.4961   10.8652 H   0  0  0  0  0  0  0  0  0  0  0  0
    9.7606    9.8681   11.6017 H   0  0  0  0  0  0  0  0  0  0  0  0
    5.4870    9.6789   11.0368 H   0  0  0  0  0  0  0  0  0  0  0  0
    6.0291    9.2054    8.2661 H   0  0  0  0  0  0  0  0  0  0  0  0
    4.4939   10.4882    6.7708 H   0  0  0  0  0  0  0  0  0  0  0  0
    2.0498    9.9982    6.7712 H   0  0  0  0  0  0  0  0  0  0  0  0
    1.1337    8.2099    8.2460 H   0  0  0  0  0  0  0  0  0  0  0  0
    2.6576    6.9230    9.7448 H   0  0  0  0  0  0  0  0  0  0  0  0
    5.9735    5.6776   12.1177 H   0  0  0  0  0  0  0  0  0  0  0  0
    5.2520    4.2184   11.3432 H   0  0  0  0  0  0  0  0  0  0  0  0
  1  2  1  0
  2  3  2  0
  3  4  1  0
  4  5  2  0
  5  6  1  0
  6  7  1  0
  7  8  2  0
  8  9  1  0
  9 10  2  0
 10 11  1  0
 10 12  1  0
 12 13  2  0
 13 14  1  0
 14 15  1  0
 15 16  2  0
 16 17  1  0
 17 18  2  0
 18 19  1  0
 19 20  2  0
 14 21  2  0
 21 22  1  0
  6  2  1  0
 13  7  1  0
 20 15  1  0
 22  5  1  0
  1 23  1  0
  1 24  1  0
  1 25  1  0
  8 26  1  0
  9 27  1  0
 12 28  1  0
 16 29  1  0
 17 30  1  0
 18 31  1  0
 19 32  1  0
 20 33  1  0
 22 34  1  0
 22 35  1  0
M  END
>  <meeko>  (3) 
{"is_sidechain": [false], "free_energy": -6.531, "intermolecular_energy": -7.172, "internal_energy": -0.176}

$$$$
3u5j_ligand
     RDKit          3D

 35 38  0  0  0  0  0  0  0  0999 V2000
    6.8090   13.8390    3.9350 C   0  0  0  0  0  0  0  0  0  0  0  0
    7.2860   13.9930    5.3290 C   0  0  0  0  0  0  0  0  0  0  0  0
    8.5250   14.2990    5.6560 N   0  0  0  0  0  0  0  0  0  0  0  0
    8.6440   14.2140    7.0150 N   0  0  0  0  0  0  0  0  0  0  0  0
    7.4750   13.8590    7.5020 C   0  0  0  0  0  0  0  0  0  0  0  0
    6.5570   13.7440    6.4810 N   0  0  0  0  0  0  0  0  0  0  0  0
    5.1680   13.5110    6.6500 C   0  0  0  0  0  0  0  0  0  0  0  0
    4.2550   14.1450    5.7890 C   0  0  0  0  0  0  0  0  0  0  0  0
    2.8790   14.0110    5.9910 C   0  0  0  0  0  0  0  0  0  0  0  0
    2.4050   13.2560    7.0580 C   0  0  0  0  0  0  0  0  0  0  0  0
    0.7110   13.1080    7.3140 Cl  0  0  0  0  0  0  0  0  0  0  0  0
    3.2940   12.6180    7.9190 C   0  0  0  0  0  0  0  0  0  0  0  0
    4.6810   12.7210    7.7120 C   0  0  0  0  0  0  0  0  0  0  0  0
    5.5650   11.9080    8.6100 C   0  0  0  0  0  0  0  0  0  0  0  0
    5.1850   10.4820    8.8800 C   0  0  0  0  0  0  0  0  0  0  0  0
    4.4940    9.7200    7.9290 C   0  0  0  0  0  0  0  0  0  0  0  0
    4.1560    8.3940    8.2120 C   0  0  0  0  0  0  0  0  0  0  0  0
    4.5160    7.8240    9.4330 C   0  0  0  0  0  0  0  0  0  0  0  0
    5.2220    8.5730   10.3720 C   0  0  0  0  0  0  0  0  0  0  0  0
    5.5620    9.8990   10.0970 C   0  0  0  0  0  0  0  0  0  0  0  0
    6.6420   12.3380    9.1740 N   0  0  0  0  0  0  0  0  0  0  0  0
    7.1110   13.6940    8.9270 C   0  0  0  0  0  0  0  0  0  0  0  0
    5.7622   13.5010    3.9409 H   0  0  0  0  0  0  0  0  0  0  0  0
    6.8793   14.8055    3.4145 H   0  0  0  0  0  0  0  0  0  0  0  0
    7.4312   13.0961    3.4145 H   0  0  0  0  0  0  0  0  0  0  0  0
    4.6269   14.7512    4.9498 H   0  0  0  0  0  0  0  0  0  0  0  0
    2.1716   14.5022    5.3067 H   0  0  0  0  0  0  0  0  0  0  0  0
    2.9093   12.0303    8.7656 H   0  0  0  0  0  0  0  0  0  0  0  0
    4.2180   10.1646    6.9614 H   0  0  0  0  0  0  0  0  0  0  0  0
    3.6045    7.7981    7.4698 H   0  0  0  0  0  0  0  0  0  0  0  0
    4.2422    6.7820    9.6548 H   0  0  0  0  0  0  0  0  0  0  0  0
    5.5119    8.1191   11.3312 H   0  0  0  0  0  0  0  0  0  0  0  0
    6.1262   10.4864   10.8363 H   0  0  0  0  0  0  0  0  0  0  0  0
    6.3128   14.4064    9.1827 H   0  0  0  0  0  0  0  0  0  0  0  0
    7.9988   13.8847    9.5479 H   0  0  0  0  0  0  0  0  0  0  0  0
  1  2  1  0
  2  3  2  0
  3  4  1  0
  4  5  2  0
  5  6  1  0
  6  7  1  0
  7  8  2  0
  8  9  1  0
  9 10  2  0
 10 11  1  0
 10 12  1  0
 12 13  2  0
 13 14  1  0
 14 15  1  0
 15 16  2  0
 16 17  1  0
 17 18  2  0
 18 19  1  0
 19 20  2  0
 14 21  2  0
 21 22  1  0
  6  2  1  0
 13  7  1  0
 20 15  1  0
 22  5  1  0
  1 23  1  0
  1 24  1  0
  1 25  1  0
  8 26  1  0
  9 27  1  0
 12 28  1  0
 16 29  1  0
 17 30  1  0
 18 31  1  0
 19 32  1  0
 20 33  1  0
 22 34  1  0
 22 35  1  0
M  END
>  <meeko>  (4) 
{"is_sidechain": [false], "free_energy": -6.498, "intermolecular_energy": -7.123, "internal_energy": -0.19}

$$$$
3u5j_ligand
     RDKit          3D

 35 38  0  0  0  0  0  0  0  0999 V2000
    2.3720   17.6660    6.9850 C   0  0  0  0  0  0  0  0  0  0  0  0
    1.6510   16.3730    6.9730 C   0  0  0  0  0  0  0  0  0  0  0  0
    0.4060   16.2170    7.3750 N   0  0  0  0  0  0  0  0  0  0  0  0
    0.1140   14.8820    7.3660 N   0  0  0  0  0  0  0  0  0  0  0  0
    1.1840   14.2380    6.9550 C   0  0  0  0  0  0  0  0  0  0  0  0
    2.1840   15.1350    6.6490 N   0  0  0  0  0  0  0  0  0  0  0  0
    3.4270   14.8050    6.0500 C   0  0  0  0  0  0  0  0  0  0  0  0
    3.9930   15.6860    5.1120 C   0  0  0  0  0  0  0  0  0  0  0  0
    5.1660   15.3440    4.4350 C   0  0  0  0  0  0  0  0  0  0  0  0
    5.7750   14.1170    4.6780 C   0  0  0  0  0  0  0  0  0  0  0  0
    7.2090   13.6920    3.8300 Cl  0  0  0  0  0  0  0  0  0  0  0  0
    5.2310   13.2330    5.6060 C   0  0  0  0  0  0  0  0  0  0  0  0
    4.0650   13.5760    6.3150 C   0  0  0  0  0  0  0  0  0  0  0  0
    3.6130   12.6230    7.3810 C   0  0  0  0  0  0  0  0  0  0  0  0
    4.6420   12.0590    8.3160 C   0  0  0  0  0  0  0  0  0  0  0  0
    5.6120   12.8770    8.9090 C   0  0  0  0  0  0  0  0  0  0  0  0
    6.5560   12.3220    9.7760 C   0  0  0  0  0  0  0  0  0  0  0  0
    6.5270   10.9560   10.0600 C   0  0  0  0  0  0  0  0  0  0  0  0
    5.5510   10.1430    9.4880 C   0  0  0  0  0  0  0  0  0  0  0  0
    4.6050   10.6920    8.6210 C   0  0  0  0  0  0  0  0  0  0  0  0
    2.3930   12.2450    7.5650 N   0  0  0  0  0  0  0  0  0  0  0  0
    1.3240   12.7810    6.7350 C   0  0  0  0  0  0  0  0  0  0  0  0
    2.5465   17.9789    8.0250 H   0  0  0  0  0  0  0  0  0  0  0  0
    3.3370   17.5525    6.4694 H   0  0  0  0  0  0  0  0  0  0  0  0
    1.7682   18.4273    6.4694 H   0  0  0  0  0  0  0  0  0  0  0  0
    3.5082   16.6525    4.9095 H   0  0  0  0  0  0  0  0  0  0  0  0
    5.6077   16.0441    3.7106 H   0  0  0  0  0  0  0  0  0  0  0  0
    5.7151   12.2617    5.7858 H   0  0  0  0  0  0  0  0  0  0  0  0
    5.6303   13.9553    8.6922 H   0  0  0  0  0  0  0  0  0  0  0  0
    7.3233   12.9624   10.2355 H   0  0  0  0  0  0  0  0  0  0  0  0
    7.2765   10.5202   10.7370 H   0  0  0  0  0  0  0  0  0  0  0  0
    5.5259    9.0680    9.7197 H   0  0  0  0  0  0  0  0  0  0  0  0
    3.8295   10.0508    8.1767 H   0  0  0  0  0  0  0  0  0  0  0  0
    1.5584   12.5947    5.6765 H   0  0  0  0  0  0  0  0  0  0  0  0
    0.3794   12.2861    7.0046 H   0  0  0  0  0  0  0  0  0  0  0  0
  1  2  1  0
  2  3  2  0
  3  4  1  0
  4  5  2  0
  5  6  1  0
  6  7  1  0
  7  8  2  0
  8  9  1  0
  9 10  2  0
 10 11  1  0
 10 12  1  0
 12 13  2  0
 13 14  1  0
 14 15  1  0
 15 16  2  0
 16 17  1  0
 17 18  2  0
 18 19  1  0
 19 20  2  0
 14 21  2  0
 21 22  1  0
  6  2  1  0
 13  7  1  0
 20 15  1  0
 22  5  1  0
  1 23  1  0
  1 24  1  0
  1 25  1  0
  8 26  1  0
  9 27  1  0
 12 28  1  0
 16 29  1  0
 17 30  1  0
 18 31  1  0
 19 32  1  0
 20 33  1  0
 22 34  1  0
 22 35  1  0
M  END
>  <meeko>  (5) 
{"is_sidechain": [false], "free_energy": -6.386, "intermolecular_energy": -6.826, "internal_energy": -0.369}

$$$$
3u5j_ligand
     RDKit          3D

 35 38  0  0  0  0  0  0  0  0999 V2000
    3.7090   17.4150    8.4880 C   0  0  0  0  0  0  0  0  0  0  0  0
    2.6180   16.5180    8.0420 C   0  0  0  0  0  0  0  0  0  0  0  0
    1.3540   16.6690    8.3790 N   0  0  0  0  0  0  0  0  0  0  0  0
    0.6530   15.5900    7.9170 N   0  0  0  0  0  0  0  0  0  0  0  0
    1.4990   14.7940    7.3000 C   0  0  0  0  0  0  0  0  0  0  0  0
    2.7590   15.3500    7.3080 N   0  0  0  0  0  0  0  0  0  0  0  0
    3.8880   14.8360    6.6190 C   0  0  0  0  0  0  0  0  0  0  0  0
    4.8010   15.7290    6.0330 C   0  0  0  0  0  0  0  0  0  0  0  0
    5.8670   15.2530    5.2680 C   0  0  0  0  0  0  0  0  0  0  0  0
    6.0230   13.8850    5.0700 C   0  0  0  0  0  0  0  0  0  0  0  0
    7.3270   13.3030    4.1120 Cl  0  0  0  0  0  0  0  0  0  0  0  0
    5.1310   12.9850    5.6460 C   0  0  0  0  0  0  0  0  0  0  0  0
    4.0680   13.4490    6.4420 C   0  0  0  0  0  0  0  0  0  0  0  0
    3.2250   12.4120    7.1220 C   0  0  0  0  0  0  0  0  0  0  0  0
    3.9150   11.2630    7.7960 C   0  0  0  0  0  0  0  0  0  0  0  0
    3.6550    9.9370    7.4250 C   0  0  0  0  0  0  0  0  0  0  0  0
    4.3160    8.8900    8.0720 C   0  0  0  0  0  0  0  0  0  0  0  0
    5.2420    9.1630    9.0790 C   0  0  0  0  0  0  0  0  0  0  0  0
    5.5180   10.4810    9.4370 C   0  0  0  0  0  0  0  0  0  0  0  0
    4.8610   11.5320    8.7940 C   0  0  0  0  0  0  0  0  0  0  0  0
    1.9360   12.4280    7.1780 N   0  0  0  0  0  0  0  0  0  0  0  0
    1.1880   13.5310    6.5940 C   0  0  0  0  0  0  0  0  0  0  0  0
    3.7379   17.4387    9.5874 H   0  0  0  0  0  0  0  0  0  0  0  0
    4.6701   17.0425    8.1039 H   0  0  0  0  0  0  0  0  0  0  0  0
    3.5293   18.4300    8.1039 H   0  0  0  0  0  0  0  0  0  0  0  0
    4.6746   16.8120    6.1783 H   0  0  0  0  0  0  0  0  0  0  0  0
    6.5831   15.9590    4.8221 H   0  0  0  0  0  0  0  0  0  0  0  0
    5.2579   11.9054    5.4779 H   0  0  0  0  0  0  0  0  0  0  0  0
    2.9313    9.7207    6.6253 H   0  0  0  0  0  0  0  0  0  0  0  0
    4.1059    7.8486    7.7869 H   0  0  0  0  0  0  0  0  0  0  0  0
    5.7553    8.3361    9.5915 H   0  0  0  0  0  0  0  0  0  0  0  0
    6.2538   10.6936   10.2265 H   0  0  0  0  0  0  0  0  0  0  0  0
    5.0864   12.5724    9.0713 H   0  0  0  0  0  0  0  0  0  0  0  0
    1.4598   13.6321    5.5329 H   0  0  0  0  0  0  0  0  0  0  0  0
    0.1120   13.3236    6.6895 H   0  0  0  0  0  0  0  0  0  0  0  0
  1  2  1  0
  2  3  2  0
  3  4  1  0
  4  5  2  0
  5  6  1  0
  6  7  1  0
  7  8  2  0
  8  9  1  0
  9 10  2  0
 10 11  1  0
 10 12  1  0
 12 13  2  0
 13 14  1  0
 14 15  1  0
 15 16  2  0
 16 17  1  0
 17 18  2  0
 18 19  1  0
 19 20  2  0
 14 21  2  0
 21 22  1  0
  6  2  1  0
 13  7  1  0
 20 15  1  0
 22  5  1  0
  1 23  1  0
  1 24  1  0
  1 25  1  0
  8 26  1  0
  9 27  1  0
 12 28  1  0
 16 29  1  0
 17 30  1  0
 18 31  1  0
 19 32  1  0
 20 33  1  0
 22 34  1  0
 22 35  1  0
M  END
>  <meeko>  (6) 
{"is_sidechain": [false], "free_energy": -6.182, "intermolecular_energy": -6.521, "internal_energy": -0.458}

$$$$
3u5j_ligand
     RDKit          3D

 35 38  0  0  0  0  0  0  0  0999 V2000
    4.3120   15.9840   11.1860 C   0  0  0  0  0  0  0  0  0  0  0  0
    3.1390   16.5010   10.4450 C   0  0  0  0  0  0  0  0  0  0  0  0
    2.2400   17.3150   10.9600 N   0  0  0  0  0  0  0  0  0  0  0  0
    1.2290   17.4690   10.0540 N   0  0  0  0  0  0  0  0  0  0  0  0
    1.5230   16.7480    8.9940 C   0  0  0  0  0  0  0  0  0  0  0  0
    2.7490   16.1410    9.1640 N   0  0  0  0  0  0  0  0  0  0  0  0
    3.4430   15.4000    8.1730 C   0  0  0  0  0  0  0  0  0  0  0  0
    4.8430   15.4980    8.0970 C   0  0  0  0  0  0  0  0  0  0  0  0
    5.5440   14.8570    7.0730 C   0  0  0  0  0  0  0  0  0  0  0  0
    4.8540   14.1270    6.1110 C   0  0  0  0  0  0  0  0  0  0  0  0
    5.7190   13.3550    4.8410 Cl  0  0  0  0  0  0  0  0  0  0  0  0
    3.4670   14.0170    6.1720 C   0  0  0  0  0  0  0  0  0  0  0  0
    2.7510   14.6340    7.2130 C   0  0  0  0  0  0  0  0  0  0  0  0
    1.2760   14.3670    7.2750 C   0  0  0  0  0  0  0  0  0  0  0  0
    0.7990   12.9580    7.0790 C   0  0  0  0  0  0  0  0  0  0  0  0
    1.5020   11.8710    7.6150 C   0  0  0  0  0  0  0  0  0  0  0  0
    1.0300   10.5710    7.4160 C   0  0  0  0  0  0  0  0  0  0  0  0
   -0.1450   10.3550    6.6960 C   0  0  0  0  0  0  0  0  0  0  0  0
   -0.8570   11.4360    6.1800 C   0  0  0  0  0  0  0  0  0  0  0  0
   -0.3910   12.7370    6.3750 C   0  0  0  0  0  0  0  0  0  0  0  0
    0.3720   15.2620    7.4870 N   0  0  0  0  0  0  0  0  0  0  0  0
    0.7500   16.6450    7.7370 C   0  0  0  0  0  0  0  0  0  0  0  0
    4.1275   16.0653   12.2674 H   0  0  0  0  0  0  0  0  0  0  0  0
    4.4777   14.9294   10.9206 H   0  0  0  0  0  0  0  0  0  0  0  0
    5.2022   16.5732   10.9206 H   0  0  0  0  0  0  0  0  0  0  0  0
    5.3908   16.0840    8.8497 H   0  0  0  0  0  0  0  0  0  0  0  0
    6.6407   14.9295    7.0274 H   0  0  0  0  0  0  0  0  0  0  0  0
    2.9290   13.4446    5.4020 H   0  0  0  0  0  0  0  0  0  0  0  0
    2.4235   12.0406    8.1912 H   0  0  0  0  0  0  0  0  0  0  0  0
    1.5862    9.7161    7.8280 H   0  0  0  0  0  0  0  0  0  0  0  0
   -0.5101    9.3299    6.5353 H   0  0  0  0  0  0  0  0  0  0  0  0
   -1.7871   11.2638    5.6185 H   0  0  0  0  0  0  0  0  0  0  0  0
   -0.9592   13.5898    5.9752 H   0  0  0  0  0  0  0  0  0  0  0  0
    1.3660   17.0093    6.9016 H   0  0  0  0  0  0  0  0  0  0  0  0
   -0.1617   17.2538    7.8273 H   0  0  0  0  0  0  0  0  0  0  0  0
  1  2  1  0
  2  3  2  0
  3  4  1  0
  4  5  2  0
  5  6  1  0
  6  7  1  0
  7  8  2  0
  8  9  1  0
  9 10  2  0
 10 11  1  0
 10 12  1  0
 12 13  2  0
 13 14  1  0
 14 15  1  0
 15 16  2  0
 16 17  1  0
 17 18  2  0
 18 19  1  0
 19 20  2  0
 14 21  2  0
 21 22  1  0
  6  2  1  0
 13  7  1  0
 20 15  1  0
 22  5  1  0
  1 23  1  0
  1 24  1  0
  1 25  1  0
  8 26  1  0
  9 27  1  0
 12 28  1  0
 16 29  1  0
 17 30  1  0
 18 31  1  0
 19 32  1  0
 20 33  1  0
 22 34  1  0
 22 35  1  0
M  END
>  <meeko>  (7) 
{"is_sidechain": [false], "free_energy": -6.009, "intermolecular_energy": -6.502, "internal_energy": -0.294}

$$$$
3u5j_ligand
     RDKit          3D

 35 38  0  0  0  0  0  0  0  0999 V2000
    3.9480    4.5610   12.7700 C   0  0  0  0  0  0  0  0  0  0  0  0
    5.3220    4.6300   12.2230 C   0  0  0  0  0  0  0  0  0  0  0  0
    6.2990    3.8180   12.5740 N   0  0  0  0  0  0  0  0  0  0  0  0
    7.4540    4.2570   11.9920 N   0  0  0  0  0  0  0  0  0  0  0  0
    7.1690    5.3310   11.2890 C   0  0  0  0  0  0  0  0  0  0  0  0
    5.8190    5.5960   11.3620 N   0  0  0  0  0  0  0  0  0  0  0  0
    5.1370    6.5950   10.6200 C   0  0  0  0  0  0  0  0  0  0  0  0
    3.8420    6.3310   10.1410 C   0  0  0  0  0  0  0  0  0  0  0  0
    3.1850    7.2570    9.3280 C   0  0  0  0  0  0  0  0  0  0  0  0
    3.8180    8.4450    8.9760 C   0  0  0  0  0  0  0  0  0  0  0  0
    3.0130    9.5740    7.9600 Cl  0  0  0  0  0  0  0  0  0  0  0  0
    5.0990    8.7240    9.4440 C   0  0  0  0  0  0  0  0  0  0  0  0
    5.7630    7.8140   10.2860 C   0  0  0  0  0  0  0  0  0  0  0  0
    7.0870    8.2430   10.8430 C   0  0  0  0  0  0  0  0  0  0  0  0
    7.2140    9.6370   11.3830 C   0  0  0  0  0  0  0  0  0  0  0  0
    7.5650   10.7100   10.5530 C   0  0  0  0  0  0  0  0  0  0  0  0
    7.6740   11.9970   11.0870 C   0  0  0  0  0  0  0  0  0  0  0  0
    7.4240   12.2160   12.4420 C   0  0  0  0  0  0  0  0  0  0  0  0
    7.0550   11.1540   13.2650 C   0  0  0  0  0  0  0  0  0  0  0  0
    6.9440    9.8660   12.7380 C   0  0  0  0  0  0  0  0  0  0  0  0
    8.1410    7.5010   10.8990 N   0  0  0  0  0  0  0  0  0  0  0  0
    8.0930    6.1200   10.4420 C   0  0  0  0  0  0  0  0  0  0  0  0
    3.9904    4.5631   13.8692 H   0  0  0  0  0  0  0  0  0  0  0  0
    3.3713    5.4313   12.4236 H   0  0  0  0  0  0  0  0  0  0  0  0
    3.4614    3.6373   12.4236 H   0  0  0  0  0  0  0  0  0  0  0  0
    3.3426    5.3881   10.4085 H   0  0  0  0  0  0  0  0  0  0  0  0
    2.1676    7.0473    8.9661 H   0  0  0  0  0  0  0  0  0  0  0  0
    5.5949    9.6619    9.1535 H   0  0  0  0  0  0  0  0  0  0  0  0
    7.7544   10.5397    9.4829 H   0  0  0  0  0  0  0  0  0  0  0  0
    7.9574   12.8386   10.4379 H   0  0  0  0  0  0  0  0  0  0  0  0
    7.5183   13.2286   12.8612 H   0  0  0  0  0  0  0  0  0  0  0  0
    6.8509   11.3307   14.3314 H   0  0  0  0  0  0  0  0  0  0  0  0
    6.6442    9.0304   13.3875 H   0  0  0  0  0  0  0  0  0  0  0  0
    7.7416    6.0944    9.4000 H   0  0  0  0  0  0  0  0  0  0  0  0
    9.1010    5.6849   10.5100 H   0  0  0  0  0  0  0  0  0  0  0  0
  1  2  1  0
  2  3  2  0
  3  4  1  0
  4  5  2  0
  5  6  1  0
  6  7  1  0
  7  8  2  0
  8  9  1  0
  9 10  2  0
 10 11  1  0
 10 12  1  0
 12 13  2  0
 13 14  1  0
 14 15  1  0
 15 16  2  0
 16 17  1  0
 17 18  2  0
 18 19  1  0
 19 20  2  0
 14 21  2  0
 21 22  1  0
  6  2  1  0
 13  7  1  0
 20 15  1  0
 22  5  1  0
  1 23  1  0
  1 24  1  0
  1 25  1  0
  8 26  1  0
  9 27  1  0
 12 28  1  0
 16 29  1  0
 17 30  1  0
 18 31  1  0
 19 32  1  0
 20 33  1  0
 22 34  1  0
 22 35  1  0
M  END
>  <meeko>  (8) 
{"is_sidechain": [false], "free_energy": -5.979, "intermolecular_energy": -6.428, "internal_energy": -0.336}

$$$$
3u5j_ligand
     RDKit          3D

 35 38  0  0  0  0  0  0  0  0999 V2000
    7.3280    3.9940   11.1460 C   0  0  0  0  0  0  0  0  0  0  0  0
    6.3670    4.8280   11.9030 C   0  0  0  0  0  0  0  0  0  0  0  0
    5.3240    4.3500   12.5510 N   0  0  0  0  0  0  0  0  0  0  0  0
    4.5800    5.4020   13.0050 N   0  0  0  0  0  0  0  0  0  0  0  0
    5.1790    6.5120   12.6320 C   0  0  0  0  0  0  0  0  0  0  0  0
    6.3450    6.2130   11.9620 N   0  0  0  0  0  0  0  0  0  0  0  0
    7.3120    7.1600   11.5360 C   0  0  0  0  0  0  0  0  0  0  0  0
    8.6770    6.8280   11.6060 C   0  0  0  0  0  0  0  0  0  0  0  0
    9.6540    7.7720   11.2840 C   0  0  0  0  0  0  0  0  0  0  0  0
    9.2790    9.0570   10.9050 C   0  0  0  0  0  0  0  0  0  0  0  0
   10.4850   10.2220   10.5270 Cl  0  0  0  0  0  0  0  0  0  0  0  0
    7.9330    9.4030   10.8270 C   0  0  0  0  0  0  0  0  0  0  0  0
    6.9370    8.4540   11.1210 C   0  0  0  0  0  0  0  0  0  0  0  0
    5.5140    8.8700   10.8970 C   0  0  0  0  0  0  0  0  0  0  0  0
    5.1770    9.6010    9.6300 C   0  0  0  0  0  0  0  0  0  0  0  0
    5.5720   10.9300    9.4300 C   0  0  0  0  0  0  0  0  0  0  0  0
    5.2430   11.5820    8.2390 C   0  0  0  0  0  0  0  0  0  0  0  0
    4.5320   10.9090    7.2450 C   0  0  0  0  0  0  0  0  0  0  0  0
    4.1560    9.5800    7.4330 C   0  0  0  0  0  0  0  0  0  0  0  0
    4.4810    8.9230    8.6210 C   0  0  0  0  0  0  0  0  0  0  0  0
    4.5410    8.6460   11.7130 N   0  0  0  0  0  0  0  0  0  0  0  0
    4.7690    7.9000   12.9420 C   0  0  0  0  0  0  0  0  0  0  0  0
    7.9665    3.4399   11.8498 H   0  0  0  0  0  0  0  0  0  0  0  0
    6.7771    3.2829   10.5129 H   0  0  0  0  0  0  0  0  0  0  0  0
    7.9544    4.6396   10.5129 H   0  0  0  0  0  0  0  0  0  0  0  0
    8.9772    5.8165   11.9169 H   0  0  0  0  0  0  0  0  0  0  0  0
   10.7189    7.5001   11.3299 H   0  0  0  0  0  0  0  0  0  0  0  0
    7.6466   10.4238   10.5339 H   0  0  0  0  0  0  0  0  0  0  0  0
    6.1401   11.4592   10.2092 H   0  0  0  0  0  0  0  0  0  0  0  0
    5.5452   12.6283    8.0846 H   0  0  0  0  0  0  0  0  0  0  0  0
    4.2678   11.4278    6.3117 H   0  0  0  0  0  0  0  0  0  0  0  0
    3.6028    9.0486    6.6446 H   0  0  0  0  0  0  0  0  0  0  0  0
    4.1903    7.8719    8.7649 H   0  0  0  0  0  0  0  0  0  0  0  0
    5.5632    8.3918   13.5229 H   0  0  0  0  0  0  0  0  0  0  0  0
    3.8360    7.8759   13.5242 H   0  0  0  0  0  0  0  0  0  0  0  0
  1  2  1  0
  2  3  2  0
  3  4  1  0
  4  5  2  0
  5  6  1  0
  6  7  1  0
  7  8  2  0
  8  9  1  0
  9 10  2  0
 10 11  1  0
 10 12  1  0
 12 13  2  0
 13 14  1  0
 14 15  1  0
 15 16  2  0
 16 17  1  0
 17 18  2  0
 18 19  1  0
 19 20  2  0
 14 21  2  0
 21 22  1  0
  6  2  1  0
 13  7  1  0
 20 15  1  0
 22  5  1  0
  1 23  1  0
  1 24  1  0
  1 25  1  0
  8 26  1  0
  9 27  1  0
 12 28  1  0
 16 29  1  0
 17 30  1  0
 18 31  1  0
 19 32  1  0
 20 33  1  0
 22 34  1  0
 22 35  1  0
M  END
>  <meeko>  (9) 
{"is_sidechain": [false], "free_energy": -5.977, "intermolecular_energy": -6.632, "internal_energy": -0.13}

$$$$
