
     RDKit          3D

 21 23  0  0  0  0  0  0  0  0999 V2000
  -12.0130   -4.7730   -1.5190 O   0  0  0  0  0  0  0  0  0  0  0  0
  -10.9460   -3.9780   -0.8600 S   0  0  2  0  0  0  0  0  0  0  0  0
  -10.5660   -2.8230   -1.6970 O   0  0  0  0  0  0  0  0  0  0  0  0
   -9.7590   -4.8350   -0.6140 O   0  0  0  0  0  0  0  0  0  0  0  0
  -11.5520   -3.3620    0.6620 C   0  0  0  0  0  0  0  0  0  0  0  0
  -10.8380   -3.7380    1.7760 C   0  0  0  0  0  0  0  0  0  0  0  0
  -11.2050   -3.2950    3.0550 C   0  0  0  0  0  0  0  0  0  0  0  0
  -12.2970   -2.4490    3.2210 C   0  0  0  0  0  0  0  0  0  0  0  0
  -13.0590   -2.0470    2.1170 C   0  0  0  0  0  0  0  0  0  0  0  0
  -14.1590   -1.1850    2.3290 C   0  0  0  0  0  0  0  0  0  0  0  0
  -14.9360   -0.7730    1.2570 C   0  0  0  0  0  0  0  0  0  0  0  0
  -14.6360   -1.2060   -0.0230 C   0  0  0  0  0  0  0  0  0  0  0  0
  -13.5750   -2.0380   -0.2970 C   0  0  0  0  0  0  0  0  0  0  0  0
  -13.3120   -2.4470   -1.5950 N   0  0  0  0  0  0  0  0  0  0  0  0
  -13.8690   -2.1270   -2.8440 C   0  0  0  0  0  0  0  0  0  0  0  0
  -13.4660   -2.8820   -3.9620 C   0  0  0  0  0  0  0  0  0  0  0  0
  -13.9870   -2.6130   -5.2360 C   0  0  0  0  0  0  0  0  0  0  0  0
  -14.9120   -1.5860   -5.4240 C   0  0  0  0  0  0  0  0  0  0  0  0
  -15.3120   -0.8250   -4.3310 C   0  0  0  0  0  0  0  0  0  0  0  0
  -14.7950   -1.0890   -3.0530 C   0  0  0  0  0  0  0  0  0  0  0  0
  -12.7250   -2.4930    0.7910 C   0  0  0  0  0  0  0  0  0  0  0  0
  2  1  1  6
  3  2  2  0
  4  2  2  0
  5  2  1  0
  6  5  2  0
  7  6  1  0
  8  7  2  0
  9  8  1  0
 10  9  2  0
 11 10  1  0
 12 11  2  0
 13 12  1  0
 14 13  1  0
 15 14  1  0
 16 15  2  0
 17 16  1  0
 18 17  2  0
 19 18  1  0
 20 19  2  0
 20 15  1  0
 21 13  2  0
 21  9  1  0
 21  5  1  0
M  CHG  1   1  -1
M  END
$$$$
