
     RDKit          3D

 30 32  0  0  0  0  0  0  0  0999 V2000
    2.9660   11.2900    7.8310 C   0  0  0  0  0  0  0  0  0  0  0  0
    3.3770    9.9540    8.4030 C   0  0  2  0  0  0  0  0  0  0  0  0
    2.3580    8.9170    8.0090 C   0  0  0  0  0  0  0  0  0  0  0  0
    3.5720    9.9730    9.9250 C   0  0  1  0  0  0  0  0  0  0  0  0
    4.2870    8.7640   10.3420 N   0  0  0  0  0  0  0  0  0  0  0  0
    4.3220   11.2000   10.3640 C   0  0  0  0  0  0  0  0  0  0  0  0
    5.5570   11.2260   10.4260 O   0  0  0  0  0  0  0  0  0  0  0  0
    3.5410   12.2440   10.6900 N   0  0  0  0  0  0  0  0  0  0  0  0
    4.0960   13.6540   11.3590 S   0  0  2  0  0  0  0  0  0  0  0  0
    4.8010   13.3560   12.5710 O   0  0  0  0  0  0  0  0  0  0  0  0
    2.9850   14.5910   11.4320 O   0  0  0  0  0  0  0  0  0  0  0  0
    5.1470   14.2250   10.3500 O   0  0  0  0  0  0  0  0  0  0  0  0
    4.7100   14.6300    9.1180 C   0  0  0  0  0  0  0  0  0  0  0  0
    5.8770   14.9140    8.2420 C   0  0  1  0  0  0  0  0  0  0  0  0
    6.5970   16.0140    8.7910 O   0  0  0  0  0  0  0  0  0  0  0  0
    7.9570   15.6730    8.8180 C   0  0  1  0  0  0  0  0  0  0  0  0
    8.6730   16.4080    9.8730 N   0  0  0  0  0  0  0  0  0  0  0  0
    8.4850   16.3330   11.2020 C   0  0  0  0  0  0  0  0  0  0  0  0
    9.3500   17.1210   11.8260 N   0  0  0  0  0  0  0  0  0  0  0  0
   10.1060   17.6950   10.8910 C   0  0  0  0  0  0  0  0  0  0  0  0
   11.1750   18.6060   10.9320 C   0  0  0  0  0  0  0  0  0  0  0  0
   11.6410   19.0610   12.0990 N   0  0  0  0  0  0  0  0  0  0  0  0
   11.7230   19.0120    9.7950 N   0  0  0  0  0  0  0  0  0  0  0  0
   11.2560   18.5510    8.6270 C   0  0  0  0  0  0  0  0  0  0  0  0
   10.2540   17.6890    8.5030 N   0  0  0  0  0  0  0  0  0  0  0  0
    9.6790   17.2570    9.6410 C   0  0  0  0  0  0  0  0  0  0  0  0
    7.9430   14.1850    9.0610 C   0  0  2  0  0  0  0  0  0  0  0  0
    9.1610   13.5860    8.7180 O   0  0  0  0  0  0  0  0  0  0  0  0
    6.8180   13.7410    8.1520 C   0  0  2  0  0  0  0  0  0  0  0  0
    7.2580   13.6010    6.8370 O   0  0  0  0  0  0  0  0  0  0  0  0
  2  1  1  1
  3  2  1  0
  4  2  1  0
  4  5  1  6
  6  4  1  0
  7  6  2  0
  8  6  1  0
  9  8  1  6
 10  9  2  0
 11  9  2  0
 12  9  1  0
 13 12  1  0
 14 13  1  1
 15 14  1  0
 16 15  1  0
 16 17  1  1
 18 17  1  0
 19 18  2  0
 20 19  1  0
 21 20  2  0
 22 21  1  0
 23 21  1  0
 24 23  2  0
 25 24  1  0
 26 25  2  0
 26 20  1  0
 26 17  1  0
 27 16  1  0
 27 28  1  6
 29 27  1  0
 29 14  1  0
 29 30  1  6
M  CHG  1   5   1
M  END
$$$$
