3uex_ligand
     RDKit          3D

 55 54  0  0  0  0  0  0  0  0999 V2000
    0.8790    4.3550   -4.7820 C   0  0  0  0  0  0  0  0  0  0  0  0
    0.2240    5.5520   -4.1110 C   0  0  0  0  0  0  0  0  0  0  0  0
   -0.5510    6.4010   -5.1200 C   0  0  0  0  0  0  0  0  0  0  0  0
   -1.9180    5.8090   -5.4780 C   0  0  0  0  0  0  0  0  0  0  0  0
   -2.1590    5.5670   -6.9740 C   0  0  0  0  0  0  0  0  0  0  0  0
   -3.5280    4.9840   -7.3340 C   0  0  0  0  0  0  0  0  0  0  0  0
   -4.0910    5.4420   -8.6850 C   0  0  0  0  0  0  0  0  0  0  0  0
   -5.3270    4.6460   -9.1180 C   0  0  0  0  0  0  0  0  0  0  0  0
   -6.0390    3.9530   -7.9510 C   0  0  0  0  0  0  0  0  0  0  0  0
   -6.5910    2.5540   -8.2400 C   0  0  0  0  0  0  0  0  0  0  0  0
   -5.5580    1.5110   -8.6800 C   0  0  0  0  0  0  0  0  0  0  0  0
   -4.4680    1.2650   -7.6340 C   0  0  0  0  0  0  0  0  0  0  0  0
   -3.0510    1.5280   -8.1570 C   0  0  0  0  0  0  0  0  0  0  0  0
   -2.0060    1.6390   -7.0430 C   0  0  0  0  0  0  0  0  0  0  0  0
   -2.5970    1.4920   -5.6370 C   0  0  0  0  0  0  0  0  0  0  0  0
   -1.9150    2.3040   -4.5330 C   0  0  0  0  0  0  0  0  0  0  0  0
   -2.6520    2.2580   -3.1980 C   0  0  0  0  0  0  0  0  0  0  0  0
   -3.0910    3.6210   -2.6500 C   0  0  0  0  0  0  0  0  0  0  0  0
   -4.2670    3.9540   -2.9780 O   0  0  0  0  0  0  0  0  0  0  0  0
   -2.2520    4.2440   -1.9430 O   0  0  0  0  0  0  0  0  0  0  0  0
    1.2566    3.6649   -4.0132 H   0  0  0  0  0  0  0  0  0  0  0  0
    0.1392    3.8360   -5.4091 H   0  0  0  0  0  0  0  0  0  0  0  0
    1.7150    4.6982   -5.4091 H   0  0  0  0  0  0  0  0  0  0  0  0
   -0.4702    5.1931   -3.3369 H   0  0  0  0  0  0  0  0  0  0  0  0
    1.0139    6.1758   -3.6672 H   0  0  0  0  0  0  0  0  0  0  0  0
   -0.7044    7.4021   -4.6907 H   0  0  0  0  0  0  0  0  0  0  0  0
    0.0438    6.4365   -6.0447 H   0  0  0  0  0  0  0  0  0  0  0  0
   -2.0170    4.8448   -4.9580 H   0  0  0  0  0  0  0  0  0  0  0  0
   -2.6628    6.5569   -5.1681 H   0  0  0  0  0  0  0  0  0  0  0  0
   -2.0530    6.5301   -7.4947 H   0  0  0  0  0  0  0  0  0  0  0  0
   -1.4190    4.8135   -7.2816 H   0  0  0  0  0  0  0  0  0  0  0  0
   -3.4374    3.8879   -7.3557 H   0  0  0  0  0  0  0  0  0  0  0  0
   -4.2290    5.3485   -6.5686 H   0  0  0  0  0  0  0  0  0  0  0  0
   -4.3669    6.5041   -8.6082 H   0  0  0  0  0  0  0  0  0  0  0  0
   -3.3099    5.2751   -9.4413 H   0  0  0  0  0  0  0  0  0  0  0  0
   -6.0357    5.3356   -9.5998 H   0  0  0  0  0  0  0  0  0  0  0  0
   -4.9841    3.8586   -9.8053 H   0  0  0  0  0  0  0  0  0  0  0  0
   -5.3217    3.8675   -7.1215 H   0  0  0  0  0  0  0  0  0  0  0  0
   -6.9154    4.5777   -7.7238 H   0  0  0  0  0  0  0  0  0  0  0  0
   -7.0746    2.1853   -7.3234 H   0  0  0  0  0  0  0  0  0  0  0  0
   -7.2791    2.6723   -9.0900 H   0  0  0  0  0  0  0  0  0  0  0  0
   -6.0794    0.5616   -8.8719 H   0  0  0  0  0  0  0  0  0  0  0  0
   -5.0639    1.9001   -9.5825 H   0  0  0  0  0  0  0  0  0  0  0  0
   -4.6518    1.9288   -6.7763 H   0  0  0  0  0  0  0  0  0  0  0  0
   -4.5191    0.2020   -7.3559 H   0  0  0  0  0  0  0  0  0  0  0  0
   -2.7652    0.7004   -8.8228 H   0  0  0  0  0  0  0  0  0  0  0  0
   -3.0714    2.4941   -8.6826 H   0  0  0  0  0  0  0  0  0  0  0  0
   -1.2548    0.8490   -7.1897 H   0  0  0  0  0  0  0  0  0  0  0  0
   -1.5685    2.6462   -7.1075 H   0  0  0  0  0  0  0  0  0  0  0  0
   -3.6511    1.8032   -5.6810 H   0  0  0  0  0  0  0  0  0  0  0  0
   -2.4496    0.4370   -5.3627 H   0  0  0  0  0  0  0  0  0  0  0  0
   -0.9005    1.9056   -4.3843 H   0  0  0  0  0  0  0  0  0  0  0  0
   -1.9077    3.3537   -4.8618 H   0  0  0  0  0  0  0  0  0  0  0  0
   -3.5507    1.6368   -3.3261 H   0  0  0  0  0  0  0  0  0  0  0  0
   -1.9377    1.8499   -2.4677 H   0  0  0  0  0  0  0  0  0  0  0  0
  1  2  1  0
  2  3  1  0
  3  4  1  0
  4  5  1  0
  5  6  1  0
  6  7  1  0
  7  8  1  0
  8  9  1  0
  9 10  1  0
 10 11  1  0
 11 12  1  0
 12 13  1  0
 13 14  1  0
 14 15  1  0
 15 16  1  0
 16 17  1  0
 17 18  1  0
 18 19  2  0
 18 20  1  0
  1 21  1  0
  1 22  1  0
  1 23  1  0
  2 24  1  0
  2 25  1  0
  3 26  1  0
  3 27  1  0
  4 28  1  0
  4 29  1  0
  5 30  1  0
  5 31  1  0
  6 32  1  0
  6 33  1  0
  7 34  1  0
  7 35  1  0
  8 36  1  0
  8 37  1  0
  9 38  1  0
  9 39  1  0
 10 40  1  0
 10 41  1  0
 11 42  1  0
 11 43  1  0
 12 44  1  0
 12 45  1  0
 13 46  1  0
 13 47  1  0
 14 48  1  0
 14 49  1  0
 15 50  1  0
 15 51  1  0
 16 52  1  0
 16 53  1  0
 17 54  1  0
 17 55  1  0
M  CHG  1  20  -1
M  END
>  <meeko>  (1) 
{"is_sidechain": [false], "free_energy": -5.912, "intermolecular_energy": -11.442, "internal_energy": -2.364}

$$$$
3uex_ligand
     RDKit          3D

 55 54  0  0  0  0  0  0  0  0999 V2000
   -1.0070    1.1890   -5.5710 C   0  0  0  0  0  0  0  0  0  0  0  0
   -2.3220    1.4320   -6.2960 C   0  0  0  0  0  0  0  0  0  0  0  0
   -2.0920    1.7510   -7.7740 C   0  0  0  0  0  0  0  0  0  0  0  0
   -3.3620    1.6250   -8.6200 C   0  0  0  0  0  0  0  0  0  0  0  0
   -4.5350    0.9040   -7.9420 C   0  0  0  0  0  0  0  0  0  0  0  0
   -5.9270    1.2860   -8.4530 C   0  0  0  0  0  0  0  0  0  0  0  0
   -6.7130    2.2360   -7.5400 C   0  0  0  0  0  0  0  0  0  0  0  0
   -6.0360    3.6010   -7.3750 C   0  0  0  0  0  0  0  0  0  0  0  0
   -5.2350    3.7250   -6.0740 C   0  0  0  0  0  0  0  0  0  0  0  0
   -4.0130    4.6480   -6.1270 C   0  0  0  0  0  0  0  0  0  0  0  0
   -3.5290    5.0260   -7.5310 C   0  0  0  0  0  0  0  0  0  0  0  0
   -2.2620    5.8850   -7.5200 C   0  0  0  0  0  0  0  0  0  0  0  0
   -1.0300    5.1470   -6.9840 C   0  0  0  0  0  0  0  0  0  0  0  0
   -0.4540    5.7760   -5.7120 C   0  0  0  0  0  0  0  0  0  0  0  0
   -1.5270    6.3250   -4.7650 C   0  0  0  0  0  0  0  0  0  0  0  0
   -1.6570    5.6170   -3.4140 C   0  0  0  0  0  0  0  0  0  0  0  0
   -1.7440    4.0980   -3.5260 C   0  0  0  0  0  0  0  0  0  0  0  0
   -2.9230    3.4570   -2.7860 C   0  0  0  0  0  0  0  0  0  0  0  0
   -3.8240    4.2780   -2.4440 O   0  0  0  0  0  0  0  0  0  0  0  0
   -2.8690    2.2100   -2.6080 O   0  0  0  0  0  0  0  0  0  0  0  0
   -1.1761    1.2202   -4.4845 H   0  0  0  0  0  0  0  0  0  0  0  0
   -0.6102    0.2023   -5.8521 H   0  0  0  0  0  0  0  0  0  0  0  0
   -0.2838    1.9687   -5.8521 H   0  0  0  0  0  0  0  0  0  0  0  0
   -2.9464    0.5298   -6.2173 H   0  0  0  0  0  0  0  0  0  0  0  0
   -2.8215    2.2936   -5.8289 H   0  0  0  0  0  0  0  0  0  0  0  0
   -1.7178    2.7822   -7.8555 H   0  0  0  0  0  0  0  0  0  0  0  0
   -1.3673    1.0184   -8.1589 H   0  0  0  0  0  0  0  0  0  0  0  0
   -3.6948    2.6392   -8.8858 H   0  0  0  0  0  0  0  0  0  0  0  0
   -3.0880    1.0082   -9.4886 H   0  0  0  0  0  0  0  0  0  0  0  0
   -4.4025   -0.1772   -8.0952 H   0  0  0  0  0  0  0  0  0  0  0  0
   -4.5069    1.2085   -6.8854 H   0  0  0  0  0  0  0  0  0  0  0  0
   -5.8096    1.7728   -9.4324 H   0  0  0  0  0  0  0  0  0  0  0  0
   -6.5061    0.3518   -8.4972 H   0  0  0  0  0  0  0  0  0  0  0  0
   -7.7130    2.3901   -7.9715 H   0  0  0  0  0  0  0  0  0  0  0  0
   -6.7638    1.7704   -6.5447 H   0  0  0  0  0  0  0  0  0  0  0  0
   -5.3523    3.7568   -8.2226 H   0  0  0  0  0  0  0  0  0  0  0  0
   -6.8326    4.3588   -7.3416 H   0  0  0  0  0  0  0  0  0  0  0  0
   -5.9125    4.1067   -5.2960 H   0  0  0  0  0  0  0  0  0  0  0  0
   -4.8400    2.7188   -5.8700 H   0  0  0  0  0  0  0  0  0  0  0  0
   -4.2671    5.5768   -5.5952 H   0  0  0  0  0  0  0  0  0  0  0  0
   -3.1890    4.0830   -5.6667 H   0  0  0  0  0  0  0  0  0  0  0  0
   -3.3201    4.1017   -8.0896 H   0  0  0  0  0  0  0  0  0  0  0  0
   -4.3245    5.6220   -8.0021 H   0  0  0  0  0  0  0  0  0  0  0  0
   -2.0527    6.2106   -8.5496 H   0  0  0  0  0  0  0  0  0  0  0  0
   -2.4510    6.7332   -6.8456 H   0  0  0  0  0  0  0  0  0  0  0  0
   -1.3145    4.1079   -6.7619 H   0  0  0  0  0  0  0  0  0  0  0  0
   -0.2514    5.2066   -7.7588 H   0  0  0  0  0  0  0  0  0  0  0  0
    0.1255    5.0101   -5.1758 H   0  0  0  0  0  0  0  0  0  0  0  0
    0.1699    6.6265   -6.0240 H   0  0  0  0  0  0  0  0  0  0  0  0
   -1.2942    7.3822   -4.5697 H   0  0  0  0  0  0  0  0  0  0  0  0
   -2.4862    6.1621   -5.2782 H   0  0  0  0  0  0  0  0  0  0  0  0
   -0.7786    5.8708   -2.8025 H   0  0  0  0  0  0  0  0  0  0  0  0
   -2.5974    5.9611   -2.9588 H   0  0  0  0  0  0  0  0  0  0  0  0
   -1.8297    3.8394   -4.5917 H   0  0  0  0  0  0  0  0  0  0  0  0
   -0.8337    3.7036   -3.0507 H   0  0  0  0  0  0  0  0  0  0  0  0
  1  2  1  0
  2  3  1  0
  3  4  1  0
  4  5  1  0
  5  6  1  0
  6  7  1  0
  7  8  1  0
  8  9  1  0
  9 10  1  0
 10 11  1  0
 11 12  1  0
 12 13  1  0
 13 14  1  0
 14 15  1  0
 15 16  1  0
 16 17  1  0
 17 18  1  0
 18 19  2  0
 18 20  1  0
  1 21  1  0
  1 22  1  0
  1 23  1  0
  2 24  1  0
  2 25  1  0
  3 26  1  0
  3 27  1  0
  4 28  1  0
  4 29  1  0
  5 30  1  0
  5 31  1  0
  6 32  1  0
  6 33  1  0
  7 34  1  0
  7 35  1  0
  8 36  1  0
  8 37  1  0
  9 38  1  0
  9 39  1  0
 10 40  1  0
 10 41  1  0
 11 42  1  0
 11 43  1  0
 12 44  1  0
 12 45  1  0
 13 46  1  0
 13 47  1  0
 14 48  1  0
 14 49  1  0
 15 50  1  0
 15 51  1  0
 16 52  1  0
 16 53  1  0
 17 54  1  0
 17 55  1  0
M  CHG  1  20  -1
M  END
>  <meeko>  (2) 
{"is_sidechain": [false], "free_energy": -5.869, "intermolecular_energy": -11.242, "internal_energy": -2.481}

$$$$
3uex_ligand
     RDKit          3D

 55 54  0  0  0  0  0  0  0  0999 V2000
   -4.4360    6.0440   -9.4460 C   0  0  0  0  0  0  0  0  0  0  0  0
   -3.8070    5.2170   -8.3360 C   0  0  0  0  0  0  0  0  0  0  0  0
   -2.3950    5.7070   -8.0100 C   0  0  0  0  0  0  0  0  0  0  0  0
   -2.1780    5.9630   -6.5160 C   0  0  0  0  0  0  0  0  0  0  0  0
   -0.8170    5.5180   -5.9620 C   0  0  0  0  0  0  0  0  0  0  0  0
   -0.2740    4.2040   -6.5310 C   0  0  0  0  0  0  0  0  0  0  0  0
   -0.1110    3.0750   -5.5050 C   0  0  0  0  0  0  0  0  0  0  0  0
   -1.2050    2.0080   -5.6120 C   0  0  0  0  0  0  0  0  0  0  0  0
   -1.7360    1.8260   -7.0390 C   0  0  0  0  0  0  0  0  0  0  0  0
   -3.1100    1.1600   -7.1610 C   0  0  0  0  0  0  0  0  0  0  0  0
   -3.9670    1.6220   -8.3450 C   0  0  0  0  0  0  0  0  0  0  0  0
   -5.4600    1.3460   -8.1520 C   0  0  0  0  0  0  0  0  0  0  0  0
   -6.2620    2.5890   -7.7520 C   0  0  0  0  0  0  0  0  0  0  0  0
   -6.4340    2.7360   -6.2370 C   0  0  0  0  0  0  0  0  0  0  0  0
   -5.7130    3.9590   -5.6590 C   0  0  0  0  0  0  0  0  0  0  0  0
   -4.3460    3.6940   -5.0220 C   0  0  0  0  0  0  0  0  0  0  0  0
   -4.2020    4.2770   -3.6190 C   0  0  0  0  0  0  0  0  0  0  0  0
   -2.9480    3.8380   -2.8570 C   0  0  0  0  0  0  0  0  0  0  0  0
   -3.0110    2.6600   -2.3960 O   0  0  0  0  0  0  0  0  0  0  0  0
   -2.0090    4.6760   -2.7800 O   0  0  0  0  0  0  0  0  0  0  0  0
   -5.0460    6.8461   -9.0050 H   0  0  0  0  0  0  0  0  0  0  0  0
   -3.6436    6.4858  -10.0681 H   0  0  0  0  0  0  0  0  0  0  0  0
   -5.0734    5.3984  -10.0681 H   0  0  0  0  0  0  0  0  0  0  0  0
   -4.4308    5.2952   -7.4334 H   0  0  0  0  0  0  0  0  0  0  0  0
   -3.7425    4.1725   -8.6750 H   0  0  0  0  0  0  0  0  0  0  0  0
   -1.6745    4.9454   -8.3429 H   0  0  0  0  0  0  0  0  0  0  0  0
   -2.2518    6.6651   -8.5311 H   0  0  0  0  0  0  0  0  0  0  0  0
   -2.2795    7.0439   -6.3387 H   0  0  0  0  0  0  0  0  0  0  0  0
   -2.9313    5.3562   -5.9922 H   0  0  0  0  0  0  0  0  0  0  0  0
   -0.0860    6.3103   -6.1808 H   0  0  0  0  0  0  0  0  0  0  0  0
   -0.9701    5.3424   -4.8870 H   0  0  0  0  0  0  0  0  0  0  0  0
   -0.9662    3.8581   -7.3128 H   0  0  0  0  0  0  0  0  0  0  0  0
    0.7348    4.4250   -6.9098 H   0  0  0  0  0  0  0  0  0  0  0  0
    0.8651    2.5938   -5.6651 H   0  0  0  0  0  0  0  0  0  0  0  0
   -0.1868    3.5256   -4.5044 H   0  0  0  0  0  0  0  0  0  0  0  0
   -0.7918    1.0483   -5.2680 H   0  0  0  0  0  0  0  0  0  0  0  0
   -2.0486    2.3423   -4.9902 H   0  0  0  0  0  0  0  0  0  0  0  0
   -1.8010    2.8208   -7.5040 H   0  0  0  0  0  0  0  0  0  0  0  0
   -1.0294    1.1444   -7.5352 H   0  0  0  0  0  0  0  0  0  0  0  0
   -2.9530    0.0757   -7.2595 H   0  0  0  0  0  0  0  0  0  0  0  0
   -3.6657    1.4485   -6.2566 H   0  0  0  0  0  0  0  0  0  0  0  0
   -3.8258    2.7048   -8.4774 H   0  0  0  0  0  0  0  0  0  0  0  0
   -3.6404    1.0520   -9.2273 H   0  0  0  0  0  0  0  0  0  0  0  0
   -5.8677    0.9571   -9.0968 H   0  0  0  0  0  0  0  0  0  0  0  0
   -5.5526    0.6213   -7.3296 H   0  0  0  0  0  0  0  0  0  0  0  0
   -5.7395    3.4792   -8.1323 H   0  0  0  0  0  0  0  0  0  0  0  0
   -7.2672    2.4823   -8.1857 H   0  0  0  0  0  0  0  0  0  0  0  0
   -7.5075    2.8268   -6.0150 H   0  0  0  0  0  0  0  0  0  0  0  0
   -5.9874    1.8452   -5.7712 H   0  0  0  0  0  0  0  0  0  0  0  0
   -5.5692    4.6819   -6.4756 H   0  0  0  0  0  0  0  0  0  0  0  0
   -6.3546    4.3230   -4.8430 H   0  0  0  0  0  0  0  0  0  0  0  0
   -4.1946    2.6060   -4.9636 H   0  0  0  0  0  0  0  0  0  0  0  0
   -3.5941    4.1878   -5.6551 H   0  0  0  0  0  0  0  0  0  0  0  0
   -4.1810    5.3733   -3.7064 H   0  0  0  0  0  0  0  0  0  0  0  0
   -5.0586    3.8991   -3.0415 H   0  0  0  0  0  0  0  0  0  0  0  0
  1  2  1  0
  2  3  1  0
  3  4  1  0
  4  5  1  0
  5  6  1  0
  6  7  1  0
  7  8  1  0
  8  9  1  0
  9 10  1  0
 10 11  1  0
 11 12  1  0
 12 13  1  0
 13 14  1  0
 14 15  1  0
 15 16  1  0
 16 17  1  0
 17 18  1  0
 18 19  2  0
 18 20  1  0
  1 21  1  0
  1 22  1  0
  1 23  1  0
  2 24  1  0
  2 25  1  0
  3 26  1  0
  3 27  1  0
  4 28  1  0
  4 29  1  0
  5 30  1  0
  5 31  1  0
  6 32  1  0
  6 33  1  0
  7 34  1  0
  7 35  1  0
  8 36  1  0
  8 37  1  0
  9 38  1  0
  9 39  1  0
 10 40  1  0
 10 41  1  0
 11 42  1  0
 11 43  1  0
 12 44  1  0
 12 45  1  0
 13 46  1  0
 13 47  1  0
 14 48  1  0
 14 49  1  0
 15 50  1  0
 15 51  1  0
 16 52  1  0
 16 53  1  0
 17 54  1  0
 17 55  1  0
M  CHG  1  20  -1
M  END
>  <meeko>  (3) 
{"is_sidechain": [false], "free_energy": -5.85, "intermolecular_energy": -10.933, "internal_energy": -2.752}

$$$$
3uex_ligand
     RDKit          3D

 55 54  0  0  0  0  0  0  0  0999 V2000
   -5.5840    5.0390   -9.2810 C   0  0  0  0  0  0  0  0  0  0  0  0
   -6.8900    4.2750   -9.1290 C   0  0  0  0  0  0  0  0  0  0  0  0
   -6.6460    2.7670   -9.0430 C   0  0  0  0  0  0  0  0  0  0  0  0
   -6.0860    2.3260   -7.6880 C   0  0  0  0  0  0  0  0  0  0  0  0
   -4.9350    1.3120   -7.7510 C   0  0  0  0  0  0  0  0  0  0  0  0
   -3.7340    1.7310   -8.6040 C   0  0  0  0  0  0  0  0  0  0  0  0
   -2.3890    1.7410   -7.8670 C   0  0  0  0  0  0  0  0  0  0  0  0
   -2.4180    0.9390   -6.5620 C   0  0  0  0  0  0  0  0  0  0  0  0
   -1.5240    1.5330   -5.4670 C   0  0  0  0  0  0  0  0  0  0  0  0
   -0.5120    2.5860   -5.9290 C   0  0  0  0  0  0  0  0  0  0  0  0
   -0.0060    3.5400   -4.8410 C   0  0  0  0  0  0  0  0  0  0  0  0
   -0.2000    5.0160   -5.1950 C   0  0  0  0  0  0  0  0  0  0  0  0
   -1.1440    5.2380   -6.3820 C   0  0  0  0  0  0  0  0  0  0  0  0
   -2.5420    5.7010   -5.9630 C   0  0  0  0  0  0  0  0  0  0  0  0
   -3.6230    4.6340   -6.1680 C   0  0  0  0  0  0  0  0  0  0  0  0
   -4.0610    3.8710   -4.9140 C   0  0  0  0  0  0  0  0  0  0  0  0
   -3.7730    4.6160   -3.6150 C   0  0  0  0  0  0  0  0  0  0  0  0
   -2.9390    3.8390   -2.5910 C   0  0  0  0  0  0  0  0  0  0  0  0
   -2.0680    4.5400   -1.9960 O   0  0  0  0  0  0  0  0  0  0  0  0
   -3.2090    2.6150   -2.4520 O   0  0  0  0  0  0  0  0  0  0  0  0
   -5.1796    5.2756   -8.2858 H   0  0  0  0  0  0  0  0  0  0  0  0
   -4.8603    4.4218   -9.8336 H   0  0  0  0  0  0  0  0  0  0  0  0
   -5.7673    5.9723   -9.8336 H   0  0  0  0  0  0  0  0  0  0  0  0
   -7.3956    4.6090   -8.2109 H   0  0  0  0  0  0  0  0  0  0  0  0
   -7.5140    4.4756  -10.0124 H   0  0  0  0  0  0  0  0  0  0  0  0
   -7.6006    2.2476   -9.2132 H   0  0  0  0  0  0  0  0  0  0  0  0
   -5.8966    2.5117   -9.8067 H   0  0  0  0  0  0  0  0  0  0  0  0
   -5.7213    3.2215   -7.1635 H   0  0  0  0  0  0  0  0  0  0  0  0
   -6.9116    1.8164   -7.1696 H   0  0  0  0  0  0  0  0  0  0  0  0
   -4.5784    1.1398   -6.7248 H   0  0  0  0  0  0  0  0  0  0  0  0
   -5.3493    0.4140   -8.2326 H   0  0  0  0  0  0  0  0  0  0  0  0
   -3.6550    1.0316   -9.4493 H   0  0  0  0  0  0  0  0  0  0  0  0
   -3.9233    2.7695   -8.9134 H   0  0  0  0  0  0  0  0  0  0  0  0
   -1.6235    1.3083   -8.5279 H   0  0  0  0  0  0  0  0  0  0  0  0
   -2.1628    2.7857   -7.6073 H   0  0  0  0  0  0  0  0  0  0  0  0
   -3.4533    0.9120   -6.1914 H   0  0  0  0  0  0  0  0  0  0  0  0
   -2.0332   -0.0664   -6.7880 H   0  0  0  0  0  0  0  0  0  0  0  0
   -2.1770    2.0000   -4.7150 H   0  0  0  0  0  0  0  0  0  0  0  0
   -0.9262    0.6936   -5.0823 H   0  0  0  0  0  0  0  0  0  0  0  0
    0.3577    2.0587   -6.3481 H   0  0  0  0  0  0  0  0  0  0  0  0
   -1.0438    3.2154   -6.6577 H   0  0  0  0  0  0  0  0  0  0  0  0
   -0.5522    3.3292   -3.9097 H   0  0  0  0  0  0  0  0  0  0  0  0
    1.0754    3.3692   -4.7338 H   0  0  0  0  0  0  0  0  0  0  0  0
   -0.6153    5.5334   -4.3176 H   0  0  0  0  0  0  0  0  0  0  0  0
    0.7843    5.4128   -5.4841 H   0  0  0  0  0  0  0  0  0  0  0  0
   -0.7049    6.0028   -7.0395 H   0  0  0  0  0  0  0  0  0  0  0  0
   -1.2596    4.2707   -6.8928 H   0  0  0  0  0  0  0  0  0  0  0  0
   -2.5153    5.9701   -4.8967 H   0  0  0  0  0  0  0  0  0  0  0  0
   -2.8055    6.5573   -6.6012 H   0  0  0  0  0  0  0  0  0  0  0  0
   -4.5107    5.1306   -6.5868 H   0  0  0  0  0  0  0  0  0  0  0  0
   -3.1733    3.8804   -6.8312 H   0  0  0  0  0  0  0  0  0  0  0  0
   -5.1440    3.6892   -4.9780 H   0  0  0  0  0  0  0  0  0  0  0  0
   -3.4812    2.9367   -4.8856 H   0  0  0  0  0  0  0  0  0  0  0  0
   -3.2311    5.5400   -3.8651 H   0  0  0  0  0  0  0  0  0  0  0  0
   -4.7497    4.7952   -3.1418 H   0  0  0  0  0  0  0  0  0  0  0  0
  1  2  1  0
  2  3  1  0
  3  4  1  0
  4  5  1  0
  5  6  1  0
  6  7  1  0
  7  8  1  0
  8  9  1  0
  9 10  1  0
 10 11  1  0
 11 12  1  0
 12 13  1  0
 13 14  1  0
 14 15  1  0
 15 16  1  0
 16 17  1  0
 17 18  1  0
 18 19  2  0
 18 20  1  0
  1 21  1  0
  1 22  1  0
  1 23  1  0
  2 24  1  0
  2 25  1  0
  3 26  1  0
  3 27  1  0
  4 28  1  0
  4 29  1  0
  5 30  1  0
  5 31  1  0
  6 32  1  0
  6 33  1  0
  7 34  1  0
  7 35  1  0
  8 36  1  0
  8 37  1  0
  9 38  1  0
  9 39  1  0
 10 40  1  0
 10 41  1  0
 11 42  1  0
 11 43  1  0
 12 44  1  0
 12 45  1  0
 13 46  1  0
 13 47  1  0
 14 48  1  0
 14 49  1  0
 15 50  1  0
 15 51  1  0
 16 52  1  0
 16 53  1  0
 17 54  1  0
 17 55  1  0
M  CHG  1  20  -1
M  END
>  <meeko>  (4) 
{"is_sidechain": [false], "free_energy": -5.787, "intermolecular_energy": -10.567, "internal_energy": -2.997}

$$$$
3uex_ligand
     RDKit          3D

 55 54  0  0  0  0  0  0  0  0999 V2000
   -0.5260    6.3000   -5.1370 C   0  0  0  0  0  0  0  0  0  0  0  0
   -0.4750    5.1510   -4.1430 C   0  0  0  0  0  0  0  0  0  0  0  0
   -1.6030    5.2540   -3.1140 C   0  0  0  0  0  0  0  0  0  0  0  0
   -2.5640    4.0630   -3.1570 C   0  0  0  0  0  0  0  0  0  0  0  0
   -3.9650    4.3680   -3.7060 C   0  0  0  0  0  0  0  0  0  0  0  0
   -4.2560    3.8190   -5.1060 C   0  0  0  0  0  0  0  0  0  0  0  0
   -3.5890    4.5860   -6.2540 C   0  0  0  0  0  0  0  0  0  0  0  0
   -2.5430    3.7520   -7.0010 C   0  0  0  0  0  0  0  0  0  0  0  0
   -2.4050    2.3260   -6.4580 C   0  0  0  0  0  0  0  0  0  0  0  0
   -2.9040    1.2080   -7.3780 C   0  0  0  0  0  0  0  0  0  0  0  0
   -4.0010    1.6070   -8.3710 C   0  0  0  0  0  0  0  0  0  0  0  0
   -5.4140    1.3430   -7.8470 C   0  0  0  0  0  0  0  0  0  0  0  0
   -6.3780    2.5120   -8.0790 C   0  0  0  0  0  0  0  0  0  0  0  0
   -6.7760    2.6850   -9.5480 C   0  0  0  0  0  0  0  0  0  0  0  0
   -6.5690    4.1100  -10.0710 C   0  0  0  0  0  0  0  0  0  0  0  0
   -5.3970    4.8860   -9.4620 C   0  0  0  0  0  0  0  0  0  0  0  0
   -5.4900    6.3950   -9.6700 C   0  0  0  0  0  0  0  0  0  0  0  0
   -4.6220    6.9490  -10.8040 C   0  0  0  0  0  0  0  0  0  0  0  0
   -5.0550    6.6800  -11.9630 O   0  0  0  0  0  0  0  0  0  0  0  0
   -3.5980    7.6030  -10.4660 O   0  0  0  0  0  0  0  0  0  0  0  0
   -0.5684    7.2546   -4.5921 H   0  0  0  0  0  0  0  0  0  0  0  0
    0.3740    6.2782   -5.7691 H   0  0  0  0  0  0  0  0  0  0  0  0
   -1.4205    6.1986   -5.7691 H   0  0  0  0  0  0  0  0  0  0  0  0
   -0.5736    4.2009   -4.6885 H   0  0  0  0  0  0  0  0  0  0  0  0
    0.4860    5.1963   -3.6097 H   0  0  0  0  0  0  0  0  0  0  0  0
   -1.1573    5.3084   -2.1098 H   0  0  0  0  0  0  0  0  0  0  0  0
   -2.1859    6.1553   -3.3545 H   0  0  0  0  0  0  0  0  0  0  0  0
   -2.1128    3.2854   -3.7908 H   0  0  0  0  0  0  0  0  0  0  0  0
   -2.7087    3.7518   -2.1119 H   0  0  0  0  0  0  0  0  0  0  0  0
   -4.7024    3.9373   -3.0126 H   0  0  0  0  0  0  0  0  0  0  0  0
   -4.0253    5.4630   -3.7913 H   0  0  0  0  0  0  0  0  0  0  0  0
   -3.9063    2.7767   -5.1434 H   0  0  0  0  0  0  0  0  0  0  0  0
   -5.3408    3.9213   -5.2571 H   0  0  0  0  0  0  0  0  0  0  0  0
   -4.3666    4.8948   -6.9681 H   0  0  0  0  0  0  0  0  0  0  0  0
   -3.0693    5.4503   -5.8149 H   0  0  0  0  0  0  0  0  0  0  0  0
   -2.8331    3.6957   -8.0606 H   0  0  0  0  0  0  0  0  0  0  0  0
   -1.5712    4.2487   -6.8633 H   0  0  0  0  0  0  0  0  0  0  0  0
   -1.3393    2.1446   -6.2548 H   0  0  0  0  0  0  0  0  0  0  0  0
   -3.0459    2.2845   -5.5650 H   0  0  0  0  0  0  0  0  0  0  0  0
   -2.0446    0.8357   -7.9549 H   0  0  0  0  0  0  0  0  0  0  0  0
   -3.3565    0.4541   -6.7170 H   0  0  0  0  0  0  0  0  0  0  0  0
   -3.9033    2.6812   -8.5868 H   0  0  0  0  0  0  0  0  0  0  0  0
   -3.8662    0.9904   -9.2719 H   0  0  0  0  0  0  0  0  0  0  0  0
   -5.8145    0.4544   -8.3569 H   0  0  0  0  0  0  0  0  0  0  0  0
   -5.3351    1.1983   -6.7594 H   0  0  0  0  0  0  0  0  0  0  0  0
   -7.2892    2.3359   -7.4885 H   0  0  0  0  0  0  0  0  0  0  0  0
   -5.8569    3.4307   -7.7717 H   0  0  0  0  0  0  0  0  0  0  0  0
   -6.1691    1.9986  -10.1568 H   0  0  0  0  0  0  0  0  0  0  0  0
   -7.8514    2.4655   -9.6210 H   0  0  0  0  0  0  0  0  0  0  0  0
   -6.4042    4.0492  -11.1569 H   0  0  0  0  0  0  0  0  0  0  0  0
   -7.4737    4.6656   -9.7830 H   0  0  0  0  0  0  0  0  0  0  0  0
   -5.3710    4.6849   -8.3809 H   0  0  0  0  0  0  0  0  0  0  0  0
   -4.4842    4.5454   -9.9728 H   0  0  0  0  0  0  0  0  0  0  0  0
   -6.5384    6.6447   -9.8901 H   0  0  0  0  0  0  0  0  0  0  0  0
   -5.1152    6.8557   -8.7441 H   0  0  0  0  0  0  0  0  0  0  0  0
  1  2  1  0
  2  3  1  0
  3  4  1  0
  4  5  1  0
  5  6  1  0
  6  7  1  0
  7  8  1  0
  8  9  1  0
  9 10  1  0
 10 11  1  0
 11 12  1  0
 12 13  1  0
 13 14  1  0
 14 15  1  0
 15 16  1  0
 16 17  1  0
 17 18  1  0
 18 19  2  0
 18 20  1  0
  1 21  1  0
  1 22  1  0
  1 23  1  0
  2 24  1  0
  2 25  1  0
  3 26  1  0
  3 27  1  0
  4 28  1  0
  4 29  1  0
  5 30  1  0
  5 31  1  0
  6 32  1  0
  6 33  1  0
  7 34  1  0
  7 35  1  0
  8 36  1  0
  8 37  1  0
  9 38  1  0
  9 39  1  0
 10 40  1  0
 10 41  1  0
 11 42  1  0
 11 43  1  0
 12 44  1  0
 12 45  1  0
 13 46  1  0
 13 47  1  0
 14 48  1  0
 14 49  1  0
 15 50  1  0
 15 51  1  0
 16 52  1  0
 16 53  1  0
 17 54  1  0
 17 55  1  0
M  CHG  1  20  -1
M  END
>  <meeko>  (5) 
{"is_sidechain": [false], "free_energy": -5.727, "intermolecular_energy": -10.965, "internal_energy": -2.484}

$$$$
3uex_ligand
     RDKit          3D

 55 54  0  0  0  0  0  0  0  0999 V2000
   -5.5050    5.8860   -9.6990 C   0  0  0  0  0  0  0  0  0  0  0  0
   -6.2430    4.6850  -10.2690 C   0  0  0  0  0  0  0  0  0  0  0  0
   -6.9060    3.8630   -9.1630 C   0  0  0  0  0  0  0  0  0  0  0  0
   -6.9240    2.3610   -9.4600 C   0  0  0  0  0  0  0  0  0  0  0  0
   -6.0920    1.4910   -8.5070 C   0  0  0  0  0  0  0  0  0  0  0  0
   -5.7970    2.1120   -7.1390 C   0  0  0  0  0  0  0  0  0  0  0  0
   -4.3910    2.7080   -6.9890 C   0  0  0  0  0  0  0  0  0  0  0  0
   -3.3790    2.1050   -7.9690 C   0  0  0  0  0  0  0  0  0  0  0  0
   -2.0470    1.7320   -7.3090 C   0  0  0  0  0  0  0  0  0  0  0  0
   -2.1430    1.1100   -5.9130 C   0  0  0  0  0  0  0  0  0  0  0  0
   -1.6680    1.9990   -4.7580 C   0  0  0  0  0  0  0  0  0  0  0  0
   -2.4340    1.7550   -3.4550 C   0  0  0  0  0  0  0  0  0  0  0  0
   -2.8460    3.0470   -2.7400 C   0  0  0  0  0  0  0  0  0  0  0  0
   -3.1330    4.2040   -3.7010 C   0  0  0  0  0  0  0  0  0  0  0  0
   -2.1070    5.3400   -3.6090 C   0  0  0  0  0  0  0  0  0  0  0  0
   -1.4200    5.7320   -4.9200 C   0  0  0  0  0  0  0  0  0  0  0  0
   -2.3330    5.6440   -6.1390 C   0  0  0  0  0  0  0  0  0  0  0  0
   -1.6140    5.6580   -7.4930 C   0  0  0  0  0  0  0  0  0  0  0  0
   -0.5800    4.9290   -7.5350 O   0  0  0  0  0  0  0  0  0  0  0  0
   -2.1240    6.3750   -8.3970 O   0  0  0  0  0  0  0  0  0  0  0  0
   -5.5306    5.8444   -8.6001 H   0  0  0  0  0  0  0  0  0  0  0  0
   -4.4600    5.8710  -10.0423 H   0  0  0  0  0  0  0  0  0  0  0  0
   -5.9905    6.8115  -10.0423 H   0  0  0  0  0  0  0  0  0  0  0  0
   -7.0173    5.0381  -10.9659 H   0  0  0  0  0  0  0  0  0  0  0  0
   -5.5146    4.0446  -10.7879 H   0  0  0  0  0  0  0  0  0  0  0  0
   -6.3545    4.0280   -8.2257 H   0  0  0  0  0  0  0  0  0  0  0  0
   -7.9520    4.1954   -9.0893 H   0  0  0  0  0  0  0  0  0  0  0  0
   -7.9678    2.0175   -9.4090 H   0  0  0  0  0  0  0  0  0  0  0  0
   -6.4678    2.2432  -10.4540 H   0  0  0  0  0  0  0  0  0  0  0  0
   -6.6382    0.5506   -8.3420 H   0  0  0  0  0  0  0  0  0  0  0  0
   -5.1156    1.3556   -8.9951 H   0  0  0  0  0  0  0  0  0  0  0  0
   -6.5287    2.9143   -6.9632 H   0  0  0  0  0  0  0  0  0  0  0  0
   -5.8642    1.2930   -6.4078 H   0  0  0  0  0  0  0  0  0  0  0  0
   -4.4487    3.7920   -7.1670 H   0  0  0  0  0  0  0  0  0  0  0  0
   -4.0421    2.4777   -5.9715 H   0  0  0  0  0  0  0  0  0  0  0  0
   -3.8171    1.1972   -8.4094 H   0  0  0  0  0  0  0  0  0  0  0  0
   -3.1639    2.8708   -8.7288 H   0  0  0  0  0  0  0  0  0  0  0  0
   -1.5362    1.0114   -7.9646 H   0  0  0  0  0  0  0  0  0  0  0  0
   -1.5052    2.6800   -7.1757 H   0  0  0  0  0  0  0  0  0  0  0  0
   -3.1962    0.8508   -5.7296 H   0  0  0  0  0  0  0  0  0  0  0  0
   -1.4668    0.2424   -5.9228 H   0  0  0  0  0  0  0  0  0  0  0  0
   -0.6012    1.7994   -4.5791 H   0  0  0  0  0  0  0  0  0  0  0  0
   -1.8491    3.0431   -5.0532 H   0  0  0  0  0  0  0  0  0  0  0  0
   -3.3425    1.1799   -3.6871 H   0  0  0  0  0  0  0  0  0  0  0  0
   -1.7589    1.2105   -2.7784 H   0  0  0  0  0  0  0  0  0  0  0  0
   -3.7544    2.8470   -2.1527 H   0  0  0  0  0  0  0  0  0  0  0  0
   -2.0015    3.3521   -2.1046 H   0  0  0  0  0  0  0  0  0  0  0  0
   -3.1289    3.8127   -4.7291 H   0  0  0  0  0  0  0  0  0  0  0  0
   -4.1099    4.6248   -3.4205 H   0  0  0  0  0  0  0  0  0  0  0  0
   -2.6242    6.2299   -3.2209 H   0  0  0  0  0  0  0  0  0  0  0  0
   -1.3061    4.9639   -2.9555 H   0  0  0  0  0  0  0  0  0  0  0  0
   -1.0614    6.7679   -4.8283 H   0  0  0  0  0  0  0  0  0  0  0  0
   -0.5992    5.0173   -5.0799 H   0  0  0  0  0  0  0  0  0  0  0  0
   -2.9071    4.7084   -6.0678 H   0  0  0  0  0  0  0  0  0  0  0  0
   -2.9613    6.5466   -6.1167 H   0  0  0  0  0  0  0  0  0  0  0  0
  1  2  1  0
  2  3  1  0
  3  4  1  0
  4  5  1  0
  5  6  1  0
  6  7  1  0
  7  8  1  0
  8  9  1  0
  9 10  1  0
 10 11  1  0
 11 12  1  0
 12 13  1  0
 13 14  1  0
 14 15  1  0
 15 16  1  0
 16 17  1  0
 17 18  1  0
 18 19  2  0
 18 20  1  0
  1 21  1  0
  1 22  1  0
  1 23  1  0
  2 24  1  0
  2 25  1  0
  3 26  1  0
  3 27  1  0
  4 28  1  0
  4 29  1  0
  5 30  1  0
  5 31  1  0
  6 32  1  0
  6 33  1  0
  7 34  1  0
  7 35  1  0
  8 36  1  0
  8 37  1  0
  9 38  1  0
  9 39  1  0
 10 40  1  0
 10 41  1  0
 11 42  1  0
 11 43  1  0
 12 44  1  0
 12 45  1  0
 13 46  1  0
 13 47  1  0
 14 48  1  0
 14 49  1  0
 15 50  1  0
 15 51  1  0
 16 52  1  0
 16 53  1  0
 17 54  1  0
 17 55  1  0
M  CHG  1  20  -1
M  END
>  <meeko>  (6) 
{"is_sidechain": [false], "free_energy": -5.662, "intermolecular_energy": -11.183, "internal_energy": -2.139}

$$$$
3uex_ligand
     RDKit          3D

 55 54  0  0  0  0  0  0  0  0999 V2000
   -4.8680    5.3210   -9.0860 C   0  0  0  0  0  0  0  0  0  0  0  0
   -5.4350    5.4640  -10.4890 C   0  0  0  0  0  0  0  0  0  0  0  0
   -6.5970    4.4960  -10.7220 C   0  0  0  0  0  0  0  0  0  0  0  0
   -7.1410    3.8890   -9.4250 C   0  0  0  0  0  0  0  0  0  0  0  0
   -7.3130    2.3640   -9.4340 C   0  0  0  0  0  0  0  0  0  0  0  0
   -6.5480    1.6090   -8.3430 C   0  0  0  0  0  0  0  0  0  0  0  0
   -5.0210    1.6400   -8.4840 C   0  0  0  0  0  0  0  0  0  0  0  0
   -4.3140    2.1290   -7.2150 C   0  0  0  0  0  0  0  0  0  0  0  0
   -3.0590    1.3190   -6.8720 C   0  0  0  0  0  0  0  0  0  0  0  0
   -1.7270    1.9240   -7.3260 C   0  0  0  0  0  0  0  0  0  0  0  0
   -1.8330    3.1970   -8.1740 C   0  0  0  0  0  0  0  0  0  0  0  0
   -0.9240    4.3260   -7.6810 C   0  0  0  0  0  0  0  0  0  0  0  0
   -1.6660    5.6480   -7.4540 C   0  0  0  0  0  0  0  0  0  0  0  0
   -2.4030    5.7060   -6.1120 C   0  0  0  0  0  0  0  0  0  0  0  0
   -1.4880    6.0480   -4.9310 C   0  0  0  0  0  0  0  0  0  0  0  0
   -1.2800    4.9360   -3.8980 C   0  0  0  0  0  0  0  0  0  0  0  0
   -2.1360    3.6990   -4.1520 C   0  0  0  0  0  0  0  0  0  0  0  0
   -2.9220    3.1910   -2.9380 C   0  0  0  0  0  0  0  0  0  0  0  0
   -2.7620    1.9580   -2.7000 O   0  0  0  0  0  0  0  0  0  0  0  0
   -3.6210    4.0390   -2.3200 O   0  0  0  0  0  0  0  0  0  0  0  0
   -5.6594    5.5206   -8.3486 H   0  0  0  0  0  0  0  0  0  0  0  0
   -4.4868    4.2986   -8.9470 H   0  0  0  0  0  0  0  0  0  0  0  0
   -4.0475    6.0403   -8.9470 H   0  0  0  0  0  0  0  0  0  0  0  0
   -5.7943    6.4945  -10.6266 H   0  0  0  0  0  0  0  0  0  0  0  0
   -4.6384    5.2292  -11.2103 H   0  0  0  0  0  0  0  0  0  0  0  0
   -7.4114    5.0403  -11.2226 H   0  0  0  0  0  0  0  0  0  0  0  0
   -6.2164    3.6679  -11.3380 H   0  0  0  0  0  0  0  0  0  0  0  0
   -6.4467    4.1475   -8.6119 H   0  0  0  0  0  0  0  0  0  0  0  0
   -8.1499    4.3073   -9.2942 H   0  0  0  0  0  0  0  0  0  0  0  0
   -8.3836    2.1427   -9.3124 H   0  0  0  0  0  0  0  0  0  0  0  0
   -6.8953    2.0181  -10.3910 H   0  0  0  0  0  0  0  0  0  0  0  0
   -6.8103    2.0539   -7.3718 H   0  0  0  0  0  0  0  0  0  0  0  0
   -6.8442    0.5535   -8.4334 H   0  0  0  0  0  0  0  0  0  0  0  0
   -4.6690    0.6231   -8.7121 H   0  0  0  0  0  0  0  0  0  0  0  0
   -4.7785    2.3479   -9.2903 H   0  0  0  0  0  0  0  0  0  0  0  0
   -4.0229    3.1798   -7.3600 H   0  0  0  0  0  0  0  0  0  0  0  0
   -5.0198    2.0068   -6.3802 H   0  0  0  0  0  0  0  0  0  0  0  0
   -3.0212    1.2030   -5.7788 H   0  0  0  0  0  0  0  0  0  0  0  0
   -3.1576    0.3709   -7.4210 H   0  0  0  0  0  0  0  0  0  0  0  0
   -1.1403    2.1640   -6.4270 H   0  0  0  0  0  0  0  0  0  0  0  0
   -1.2585    1.1686   -7.9740 H   0  0  0  0  0  0  0  0  0  0  0  0
   -1.5556    2.9515   -9.2097 H   0  0  0  0  0  0  0  0  0  0  0  0
   -2.8703    3.5552   -8.0986 H   0  0  0  0  0  0  0  0  0  0  0  0
   -0.4659    4.0153   -6.7304 H   0  0  0  0  0  0  0  0  0  0  0  0
   -0.1731    4.5048   -8.4647 H   0  0  0  0  0  0  0  0  0  0  0  0
   -0.9347    6.4690   -7.4866 H   0  0  0  0  0  0  0  0  0  0  0  0
   -2.4239    5.7367   -8.2463 H   0  0  0  0  0  0  0  0  0  0  0  0
   -3.1887    6.4730   -6.1782 H   0  0  0  0  0  0  0  0  0  0  0  0
   -2.8160    4.7040   -5.9241 H   0  0  0  0  0  0  0  0  0  0  0  0
   -0.5021    6.3191   -5.3367 H   0  0  0  0  0  0  0  0  0  0  0  0
   -1.9926    6.8630   -4.3915 H   0  0  0  0  0  0  0  0  0  0  0  0
   -0.2217    4.6366   -3.9175 H   0  0  0  0  0  0  0  0  0  0  0  0
   -1.5817    5.3423   -2.9213 H   0  0  0  0  0  0  0  0  0  0  0  0
   -2.8564    3.9407   -4.9474 H   0  0  0  0  0  0  0  0  0  0  0  0
   -1.4374    2.8937   -4.4231 H   0  0  0  0  0  0  0  0  0  0  0  0
  1  2  1  0
  2  3  1  0
  3  4  1  0
  4  5  1  0
  5  6  1  0
  6  7  1  0
  7  8  1  0
  8  9  1  0
  9 10  1  0
 10 11  1  0
 11 12  1  0
 12 13  1  0
 13 14  1  0
 14 15  1  0
 15 16  1  0
 16 17  1  0
 17 18  1  0
 18 19  2  0
 18 20  1  0
  1 21  1  0
  1 22  1  0
  1 23  1  0
  2 24  1  0
  2 25  1  0
  3 26  1  0
  3 27  1  0
  4 28  1  0
  4 29  1  0
  5 30  1  0
  5 31  1  0
  6 32  1  0
  6 33  1  0
  7 34  1  0
  7 35  1  0
  8 36  1  0
  8 37  1  0
  9 38  1  0
  9 39  1  0
 10 40  1  0
 10 41  1  0
 11 42  1  0
 11 43  1  0
 12 44  1  0
 12 45  1  0
 13 46  1  0
 13 47  1  0
 14 48  1  0
 14 49  1  0
 15 50  1  0
 15 51  1  0
 16 52  1  0
 16 53  1  0
 17 54  1  0
 17 55  1  0
M  CHG  1  20  -1
M  END
>  <meeko>  (7) 
{"is_sidechain": [false], "free_energy": -5.647, "intermolecular_energy": -11.147, "internal_energy": -2.147}

$$$$
3uex_ligand
     RDKit          3D

 55 54  0  0  0  0  0  0  0  0999 V2000
   -4.5370    4.0750   -4.8910 C   0  0  0  0  0  0  0  0  0  0  0  0
   -3.8770    4.3000   -3.5400 C   0  0  0  0  0  0  0  0  0  0  0  0
   -2.4070    3.8770   -3.5620 C   0  0  0  0  0  0  0  0  0  0  0  0
   -1.4420    5.0450   -3.3410 C   0  0  0  0  0  0  0  0  0  0  0  0
   -0.6790    5.5140   -4.5880 C   0  0  0  0  0  0  0  0  0  0  0  0
   -1.4340    6.4930   -5.4910 C   0  0  0  0  0  0  0  0  0  0  0  0
   -1.9220    5.9020   -6.8200 C   0  0  0  0  0  0  0  0  0  0  0  0
   -1.2850    4.5460   -7.1400 C   0  0  0  0  0  0  0  0  0  0  0  0
   -2.2610    3.5560   -7.7840 C   0  0  0  0  0  0  0  0  0  0  0  0
   -2.0330    2.0780   -7.4510 C   0  0  0  0  0  0  0  0  0  0  0  0
   -3.3000    1.2410   -7.2460 C   0  0  0  0  0  0  0  0  0  0  0  0
   -4.4120    1.5760   -8.2440 C   0  0  0  0  0  0  0  0  0  0  0  0
   -5.7580    1.8780   -7.5770 C   0  0  0  0  0  0  0  0  0  0  0  0
   -6.3500    3.2280   -7.9930 C   0  0  0  0  0  0  0  0  0  0  0  0
   -5.6740    3.8340   -9.2280 C   0  0  0  0  0  0  0  0  0  0  0  0
   -5.0860    5.2370   -9.0530 C   0  0  0  0  0  0  0  0  0  0  0  0
   -5.4370    6.1920  -10.1890 C   0  0  0  0  0  0  0  0  0  0  0  0
   -4.3420    7.2010  -10.5520 C   0  0  0  0  0  0  0  0  0  0  0  0
   -3.3780    7.2330   -9.7320 O   0  0  0  0  0  0  0  0  0  0  0  0
   -4.5150    7.8710  -11.6060 O   0  0  0  0  0  0  0  0  0  0  0  0
   -5.5685    3.7234   -4.7412 H   0  0  0  0  0  0  0  0  0  0  0  0
   -4.5498    5.0195   -5.4547 H   0  0  0  0  0  0  0  0  0  0  0  0
   -3.9702    3.3193   -5.4547 H   0  0  0  0  0  0  0  0  0  0  0  0
   -3.9387    5.3682   -3.2846 H   0  0  0  0  0  0  0  0  0  0  0  0
   -4.4027    3.6896   -2.7909 H   0  0  0  0  0  0  0  0  0  0  0  0
   -2.2447    3.1338   -2.7674 H   0  0  0  0  0  0  0  0  0  0  0  0
   -2.1995    3.4648   -4.5605 H   0  0  0  0  0  0  0  0  0  0  0  0
   -2.0227    5.8971   -2.9580 H   0  0  0  0  0  0  0  0  0  0  0  0
   -0.6787    4.6787   -2.6387 H   0  0  0  0  0  0  0  0  0  0  0  0
    0.2469    6.0053   -4.2544 H   0  0  0  0  0  0  0  0  0  0  0  0
   -0.5077    4.6127   -5.1950 H   0  0  0  0  0  0  0  0  0  0  0  0
   -2.3110    6.8607   -4.9382 H   0  0  0  0  0  0  0  0  0  0  0  0
   -0.7184    7.2870   -5.7510 H   0  0  0  0  0  0  0  0  0  0  0  0
   -3.0132    5.7733   -6.7671 H   0  0  0  0  0  0  0  0  0  0  0  0
   -1.6300    6.6001   -7.6183 H   0  0  0  0  0  0  0  0  0  0  0  0
   -0.4454    4.7090   -7.8318 H   0  0  0  0  0  0  0  0  0  0  0  0
   -0.9564    4.1068   -6.1865 H   0  0  0  0  0  0  0  0  0  0  0  0
   -3.2766    3.8225   -7.4560 H   0  0  0  0  0  0  0  0  0  0  0  0
   -2.1017    3.6444   -8.8688 H   0  0  0  0  0  0  0  0  0  0  0  0
   -1.4614    1.6295   -8.2769 H   0  0  0  0  0  0  0  0  0  0  0  0
   -1.5055    2.0656   -6.4858 H   0  0  0  0  0  0  0  0  0  0  0  0
   -3.0388    0.1783   -7.3573 H   0  0  0  0  0  0  0  0  0  0  0  0
   -3.6834    1.4690   -6.2405 H   0  0  0  0  0  0  0  0  0  0  0  0
   -4.1050    2.4583   -8.8248 H   0  0  0  0  0  0  0  0  0  0  0  0
   -4.5561    0.6895   -8.8791 H   0  0  0  0  0  0  0  0  0  0  0  0
   -6.4695    1.0852   -7.8513 H   0  0  0  0  0  0  0  0  0  0  0  0
   -5.5823    1.9194   -6.4919 H   0  0  0  0  0  0  0  0  0  0  0  0
   -7.4183    3.0871   -8.2140 H   0  0  0  0  0  0  0  0  0  0  0  0
   -6.1868    3.9255   -7.1582 H   0  0  0  0  0  0  0  0  0  0  0  0
   -4.8565    3.1618   -9.5276 H   0  0  0  0  0  0  0  0  0  0  0  0
   -6.4703    3.9387   -9.9796 H   0  0  0  0  0  0  0  0  0  0  0  0
   -5.4689    5.6597   -8.1124 H   0  0  0  0  0  0  0  0  0  0  0  0
   -3.9913    5.1297   -9.0483 H   0  0  0  0  0  0  0  0  0  0  0  0
   -5.6568    5.5910  -11.0837 H   0  0  0  0  0  0  0  0  0  0  0  0
   -6.2947    6.7841   -9.8374 H   0  0  0  0  0  0  0  0  0  0  0  0
  1  2  1  0
  2  3  1  0
  3  4  1  0
  4  5  1  0
  5  6  1  0
  6  7  1  0
  7  8  1  0
  8  9  1  0
  9 10  1  0
 10 11  1  0
 11 12  1  0
 12 13  1  0
 13 14  1  0
 14 15  1  0
 15 16  1  0
 16 17  1  0
 17 18  1  0
 18 19  2  0
 18 20  1  0
  1 21  1  0
  1 22  1  0
  1 23  1  0
  2 24  1  0
  2 25  1  0
  3 26  1  0
  3 27  1  0
  4 28  1  0
  4 29  1  0
  5 30  1  0
  5 31  1  0
  6 32  1  0
  6 33  1  0
  7 34  1  0
  7 35  1  0
  8 36  1  0
  8 37  1  0
  9 38  1  0
  9 39  1  0
 10 40  1  0
 10 41  1  0
 11 42  1  0
 11 43  1  0
 12 44  1  0
 12 45  1  0
 13 46  1  0
 13 47  1  0
 14 48  1  0
 14 49  1  0
 15 50  1  0
 15 51  1  0
 16 52  1  0
 16 53  1  0
 17 54  1  0
 17 55  1  0
M  CHG  1  20  -1
M  END
>  <meeko>  (8) 
{"is_sidechain": [false], "free_energy": -5.643, "intermolecular_energy": -10.762, "internal_energy": -2.524}

$$$$
3uex_ligand
     RDKit          3D

 55 54  0  0  0  0  0  0  0  0999 V2000
   -0.9700    1.3670   -5.7380 C   0  0  0  0  0  0  0  0  0  0  0  0
   -2.3780    1.3030   -6.3080 C   0  0  0  0  0  0  0  0  0  0  0  0
   -2.4050    1.7370   -7.7750 C   0  0  0  0  0  0  0  0  0  0  0  0
   -3.8230    1.8550   -8.3400 C   0  0  0  0  0  0  0  0  0  0  0  0
   -4.9550    1.5660   -7.3440 C   0  0  0  0  0  0  0  0  0  0  0  0
   -6.0110    2.6670   -7.2100 C   0  0  0  0  0  0  0  0  0  0  0  0
   -5.9890    3.4260   -5.8770 C   0  0  0  0  0  0  0  0  0  0  0  0
   -4.6110    4.0060   -5.5430 C   0  0  0  0  0  0  0  0  0  0  0  0
   -4.3780    4.1830   -4.0390 C   0  0  0  0  0  0  0  0  0  0  0  0
   -2.9810    3.8130   -3.5300 C   0  0  0  0  0  0  0  0  0  0  0  0
   -1.9790    4.9700   -3.4450 C   0  0  0  0  0  0  0  0  0  0  0  0
   -0.6680    4.6870   -4.1840 C   0  0  0  0  0  0  0  0  0  0  0  0
   -0.3780    5.6840   -5.3110 C   0  0  0  0  0  0  0  0  0  0  0  0
   -0.9850    5.2700   -6.6550 C   0  0  0  0  0  0  0  0  0  0  0  0
   -2.3240    5.9530   -6.9540 C   0  0  0  0  0  0  0  0  0  0  0  0
   -2.7050    6.0660   -8.4330 C   0  0  0  0  0  0  0  0  0  0  0  0
   -4.0830    5.4960   -8.7540 C   0  0  0  0  0  0  0  0  0  0  0  0
   -4.8550    6.2380   -9.8500 C   0  0  0  0  0  0  0  0  0  0  0  0
   -4.3040    7.3120  -10.2320 O   0  0  0  0  0  0  0  0  0  0  0  0
   -5.9280    5.7060  -10.2470 O   0  0  0  0  0  0  0  0  0  0  0  0
   -1.0189    1.3648   -4.6391 H   0  0  0  0  0  0  0  0  0  0  0  0
   -0.3954    0.4940   -6.0813 H   0  0  0  0  0  0  0  0  0  0  0  0
   -0.4770    2.2885   -6.0813 H   0  0  0  0  0  0  0  0  0  0  0  0
   -2.7480    0.2698   -6.2333 H   0  0  0  0  0  0  0  0  0  0  0  0
   -3.0170    1.9883   -5.7317 H   0  0  0  0  0  0  0  0  0  0  0  0
   -1.9118    2.7166   -7.8595 H   0  0  0  0  0  0  0  0  0  0  0  0
   -1.8836    0.9621   -8.3561 H   0  0  0  0  0  0  0  0  0  0  0  0
   -3.9546    2.8807   -8.7150 H   0  0  0  0  0  0  0  0  0  0  0  0
   -3.9029    1.0849   -9.1214 H   0  0  0  0  0  0  0  0  0  0  0  0
   -5.4638    0.6456   -7.6666 H   0  0  0  0  0  0  0  0  0  0  0  0
   -4.4760    1.4846   -6.3571 H   0  0  0  0  0  0  0  0  0  0  0  0
   -5.8508    3.3942   -8.0197 H   0  0  0  0  0  0  0  0  0  0  0  0
   -6.9881    2.1645   -7.2622 H   0  0  0  0  0  0  0  0  0  0  0  0
   -6.7134    4.2520   -5.9316 H   0  0  0  0  0  0  0  0  0  0  0  0
   -6.2454    2.7077   -5.0843 H   0  0  0  0  0  0  0  0  0  0  0  0
   -3.8410    3.3272   -5.9384 H   0  0  0  0  0  0  0  0  0  0  0  0
   -4.5572    5.0045   -6.0014 H   0  0  0  0  0  0  0  0  0  0  0  0
   -4.5576    5.2398   -3.7922 H   0  0  0  0  0  0  0  0  0  0  0  0
   -5.0692    3.4833   -3.5464 H   0  0  0  0  0  0  0  0  0  0  0  0
   -3.0902    3.3852   -2.5225 H   0  0  0  0  0  0  0  0  0  0  0  0
   -2.5678    3.1108   -4.2690 H   0  0  0  0  0  0  0  0  0  0  0  0
   -2.4416    5.8663   -3.8840 H   0  0  0  0  0  0  0  0  0  0  0  0
   -1.7318    5.1115   -2.3825 H   0  0  0  0  0  0  0  0  0  0  0  0
    0.1578    4.7307   -3.4586 H   0  0  0  0  0  0  0  0  0  0  0  0
   -0.7632    3.6932   -4.6458 H   0  0  0  0  0  0  0  0  0  0  0  0
   -0.7924    6.6626   -5.0270 H   0  0  0  0  0  0  0  0  0  0  0  0
    0.7135    5.7195   -5.4428 H   0  0  0  0  0  0  0  0  0  0  0  0
   -0.2747    5.5305   -7.4535 H   0  0  0  0  0  0  0  0  0  0  0  0
   -1.1762    4.1879   -6.6055 H   0  0  0  0  0  0  0  0  0  0  0  0
   -3.1143    5.3811   -6.4457 H   0  0  0  0  0  0  0  0  0  0  0  0
   -2.2155    6.9875   -6.5961 H   0  0  0  0  0  0  0  0  0  0  0  0
   -2.6943    7.1293   -8.7146 H   0  0  0  0  0  0  0  0  0  0  0  0
   -1.9713    5.4753   -9.0011 H   0  0  0  0  0  0  0  0  0  0  0  0
   -3.9533    4.4522   -9.0759 H   0  0  0  0  0  0  0  0  0  0  0  0
   -4.6790    5.6008   -7.8354 H   0  0  0  0  0  0  0  0  0  0  0  0
  1  2  1  0
  2  3  1  0
  3  4  1  0
  4  5  1  0
  5  6  1  0
  6  7  1  0
  7  8  1  0
  8  9  1  0
  9 10  1  0
 10 11  1  0
 11 12  1  0
 12 13  1  0
 13 14  1  0
 14 15  1  0
 15 16  1  0
 16 17  1  0
 17 18  1  0
 18 19  2  0
 18 20  1  0
  1 21  1  0
  1 22  1  0
  1 23  1  0
  2 24  1  0
  2 25  1  0
  3 26  1  0
  3 27  1  0
  4 28  1  0
  4 29  1  0
  5 30  1  0
  5 31  1  0
  6 32  1  0
  6 33  1  0
  7 34  1  0
  7 35  1  0
  8 36  1  0
  8 37  1  0
  9 38  1  0
  9 39  1  0
 10 40  1  0
 10 41  1  0
 11 42  1  0
 11 43  1  0
 12 44  1  0
 12 45  1  0
 13 46  1  0
 13 47  1  0
 14 48  1  0
 14 49  1  0
 15 50  1  0
 15 51  1  0
 16 52  1  0
 16 53  1  0
 17 54  1  0
 17 55  1  0
M  CHG  1  20  -1
M  END
>  <meeko>  (9) 
{"is_sidechain": [false], "free_energy": -5.641, "intermolecular_energy": -10.695, "internal_energy": -2.586}

$$$$
