
     RDKit          3D

 24 25  0  0  0  0  0  0  0  0999 V2000
   -2.0410    0.6640   -3.3580 O   0  0  0  0  0  0  0  0  0  0  0  0
   -1.3910    1.7000   -3.3460 C   0  0  0  0  0  0  0  0  0  0  0  0
   -1.3730    2.6140   -4.5140 C   0  0  0  0  0  0  0  0  0  0  0  0
   -2.9270    3.4480   -4.8110 P   0  0  0  0  0  0  0  0  0  0  0  0
   -3.3720    3.0610   -6.1790 O   0  0  0  0  0  0  0  0  0  0  0  0
   -3.9180    2.9910   -3.7730 O   0  0  0  0  0  0  0  0  0  0  0  0
   -2.6870    4.9140   -4.7160 O   0  0  0  0  0  0  0  0  0  0  0  0
   -0.6120    2.0680   -2.3000 N   0  0  0  0  0  0  0  0  0  0  0  0
   -0.5110    1.2900   -1.0980 C   0  0  0  0  0  0  0  0  0  0  0  0
    0.2840    2.0040   -0.0570 C   0  0  0  0  0  0  0  0  0  0  0  0
    0.3460    1.2240    1.2480 C   0  0  0  0  0  0  0  0  0  0  0  0
    1.1450   -0.0530    1.1220 C   0  0  0  0  0  0  0  0  0  0  0  0
    0.4890   -1.2890    1.1190 C   0  0  0  0  0  0  0  0  0  0  0  0
    1.2320   -2.4740    0.9870 C   0  0  0  0  0  0  0  0  0  0  0  0
    2.6130   -2.4240    0.8730 C   0  0  0  0  0  0  0  0  0  0  0  0
    3.2480   -1.1970    0.8850 C   0  0  0  0  0  0  0  0  0  0  0  0
    4.6110   -1.0840    0.7540 O   0  0  0  0  0  0  0  0  0  0  0  0
    5.5250   -1.8830    1.4120 C   0  0  0  0  0  0  0  0  0  0  0  0
    6.6330   -2.3290    0.7060 C   0  0  0  0  0  0  0  0  0  0  0  0
    7.5980   -3.1130    1.3160 C   0  0  0  0  0  0  0  0  0  0  0  0
    7.4570   -3.4470    2.6650 C   0  0  0  0  0  0  0  0  0  0  0  0
    6.3630   -2.9960    3.3880 C   0  0  0  0  0  0  0  0  0  0  0  0
    5.4010   -2.2260    2.7570 C   0  0  0  0  0  0  0  0  0  0  0  0
    2.5260   -0.0350    0.9910 C   0  0  0  0  0  0  0  0  0  0  0  0
  2  1  2  0
  3  2  1  0
  4  3  1  0
  5  4  2  0
  6  4  1  0
  7  4  1  0
  8  2  1  0
  9  8  1  0
 10  9  1  0
 11 10  1  0
 12 11  1  0
 13 12  2  0
 14 13  1  0
 15 14  2  0
 16 15  1  0
 17 16  1  0
 18 17  1  0
 19 18  2  0
 20 19  1  0
 21 20  2  0
 22 21  1  0
 23 22  2  0
 23 18  1  0
 24 16  2  0
 24 12  1  0
M  CHG  1   7  -1
M  END
$$$$
