
     RDKit          3D

 16 17  0  0  0  0  0  0  0  0999 V2000
   -5.1630   -4.1180    7.1700 C   0  0  0  0  0  0  0  0  0  0  0  0
   -3.6010   -4.8190    6.6770 S   0  0  0  0  0  0  0  0  0  0  0  0
   -2.9170   -3.6470    5.5820 C   0  0  0  0  0  0  0  0  0  0  0  0
   -1.5860   -3.5400    5.5260 N   0  0  0  0  0  0  0  0  0  0  0  0
   -1.0460   -2.6620    4.6490 C   0  0  0  0  0  0  0  0  0  0  0  0
    0.2980   -2.5380    4.5820 N   0  0  0  0  0  0  0  0  0  0  0  0
   -1.8360   -1.8860    3.8450 N   0  0  0  0  0  0  0  0  0  0  0  0
   -3.1650   -2.0250    3.9250 C   0  0  0  0  0  0  0  0  0  0  0  0
   -4.0350   -1.2220    3.0710 C   0  0  0  0  0  0  0  0  0  0  0  0
   -5.0320   -0.4210    3.6530 C   0  0  0  0  0  0  0  0  0  0  0  0
   -5.8590    0.3640    2.8490 C   0  0  0  0  0  0  0  0  0  0  0  0
   -5.7110    0.3590    1.4740 C   0  0  0  0  0  0  0  0  0  0  0  0
   -4.7400   -0.4290    0.8770 C   0  0  0  0  0  0  0  0  0  0  0  0
   -3.9080   -1.2120    1.6690 C   0  0  0  0  0  0  0  0  0  0  0  0
   -2.7090   -2.2240    0.8780 Cl  0  0  0  0  0  0  0  0  0  0  0  0
   -3.7420   -2.8810    4.8090 N   0  0  0  0  0  0  0  0  0  0  0  0
  2  1  1  0
  3  2  1  0
  4  3  2  0
  5  4  1  0
  6  5  1  0
  7  5  2  0
  8  7  1  0
  9  8  1  0
 10  9  2  0
 11 10  1  0
 12 11  2  0
 13 12  1  0
 14 13  2  0
 14  9  1  0
 15 14  1  0
 16  8  2  0
 16  3  1  0
M  END
$$$$
