
     RDKit          3D

 31 33  0  0  0  0  0  0  0  0999 V2000
    3.0410   -5.3690    9.5260 O   0  0  0  0  0  0  0  0  0  0  0  0
    2.5190   -4.4380    8.9400 C   0  0  0  0  0  0  0  0  0  0  0  0
    2.1440   -4.5390    7.6870 N   0  0  0  0  0  0  0  0  0  0  0  0
    2.2670   -5.7280    6.8960 C   0  0  0  0  0  0  0  0  0  0  0  0
    1.2990   -5.6360    5.7270 C   0  0  0  0  0  0  0  0  0  0  0  0
    0.6720   -6.6730    5.3820 C   0  0  0  0  0  0  0  0  0  0  0  0
   -0.3220   -6.6750    4.2460 C   0  0  1  0  0  0  0  0  0  0  0  0
    0.3170   -7.1210    3.0560 O   0  0  0  0  0  0  0  0  0  0  0  0
    0.1420   -8.5070    2.9450 C   0  0  1  0  0  0  0  0  0  0  0  0
    1.7040   -9.2450    2.9290 S   0  0  0  0  0  0  0  0  0  0  0  0
    2.2640   -9.4570    1.3010 C   0  0  0  0  0  0  0  0  0  0  0  0
    3.4780  -10.1180    1.1220 C   0  0  0  0  0  0  0  0  0  0  0  0
    3.9710  -10.3080   -0.1420 C   0  0  0  0  0  0  0  0  0  0  0  0
    3.3060   -9.8900   -1.2390 N   0  0  0  0  0  0  0  0  0  0  0  0
    2.1110   -9.2540   -1.0740 C   0  0  0  0  0  0  0  0  0  0  0  0
    1.5780   -9.0290    0.1730 C   0  0  0  0  0  0  0  0  0  0  0  0
   -0.6870   -8.9660    4.1430 C   0  0  2  0  0  0  0  0  0  0  0  0
   -1.5770  -10.0040    3.8170 O   0  0  0  0  0  0  0  0  0  0  0  0
   -1.3950   -7.6930    4.5460 C   0  0  2  0  0  0  0  0  0  0  0  0
   -2.5390   -7.4280    3.7620 O   0  0  0  0  0  0  0  0  0  0  0  0
    2.2600   -3.1480    9.6330 C   0  0  0  0  0  0  0  0  0  0  0  0
    2.4500   -3.1010   11.0060 C   0  0  0  0  0  0  0  0  0  0  0  0
    2.1950   -1.9170   11.6970 C   0  0  0  0  0  0  0  0  0  0  0  0
    2.4030   -1.8960   13.0840 N   0  0  0  0  0  0  0  0  0  0  0  0
    2.7950   -2.9490   13.6780 O   0  0  0  0  0  0  0  0  0  0  0  0
    2.2030   -0.8130   13.7310 O   0  0  0  0  0  0  0  0  0  0  0  0
    1.7500   -0.7860   11.0470 C   0  0  0  0  0  0  0  0  0  0  0  0
    1.5450   -0.8120    9.6810 C   0  0  0  0  0  0  0  0  0  0  0  0
    1.1020    0.2890    9.0050 O   0  0  0  0  0  0  0  0  0  0  0  0
    1.8070   -1.9990    8.9720 C   0  0  0  0  0  0  0  0  0  0  0  0
    1.6030   -1.9970    7.6380 O   0  0  0  0  0  0  0  0  0  0  0  0
  2  1  2  0
  3  2  1  0
  4  3  1  0
  5  4  1  0
  6  5  2  3
  7  6  1  1
  8  7  1  0
  9  8  1  0
  9 10  1  1
 11 10  1  0
 12 11  2  0
 13 12  1  0
 14 13  2  0
 15 14  1  0
 16 15  2  0
 16 11  1  0
 17  9  1  0
 17 18  1  6
 19 17  1  0
 19  7  1  0
 19 20  1  6
 21  2  1  0
 22 21  2  0
 23 22  1  0
 24 23  1  0
 25 24  2  0
 26 24  1  0
 27 23  2  0
 28 27  1  0
 29 28  1  0
 30 28  2  0
 30 21  1  0
 31 30  1  0
M  CHG  2  24   1  26  -1
M  END
$$$$
