4jia_ligand
     RDKit          3D

 58 62  0  0  0  0  0  0  0  0999 V2000
   15.1430    1.6930    2.0490 C   0  0  0  0  0  0  0  0  0  0  0  0
   15.5810    2.0700    3.3480 O   0  0  0  0  0  0  0  0  0  0  0  0
   14.6730    2.7090    4.1460 C   0  0  0  0  0  0  0  0  0  0  0  0
   13.7050    3.4420    3.4560 C   0  0  0  0  0  0  0  0  0  0  0  0
   12.7150    4.1460    4.1480 C   0  0  0  0  0  0  0  0  0  0  0  0
   12.6790    4.1270    5.5480 C   0  0  0  0  0  0  0  0  0  0  0  0
   11.6440    4.8760    6.2850 C   0  0  0  0  0  0  0  0  0  0  0  0
   11.9630    6.0460    6.8830 C   0  0  0  0  0  0  0  0  0  0  0  0
   10.9500    6.7830    7.6190 C   0  0  0  0  0  0  0  0  0  0  0  0
    9.6900    6.3270    7.7270 C   0  0  0  0  0  0  0  0  0  0  0  0
    9.3330    5.0980    7.1100 C   0  0  0  0  0  0  0  0  0  0  0  0
    8.1970    4.4430    7.0620 N   0  0  0  0  0  0  0  0  0  0  0  0
    8.4970    3.3380    6.3220 C   0  0  0  0  0  0  0  0  0  0  0  0
    7.5880    2.3930    6.0210 N   0  0  0  0  0  0  0  0  0  0  0  0
    7.5280    1.0080    6.2500 C   0  0  0  0  0  0  0  0  0  0  0  0
    8.3860    0.1660    5.5300 C   0  0  0  0  0  0  0  0  0  0  0  0
    8.3700   -1.2260    5.7050 C   0  0  0  0  0  0  0  0  0  0  0  0
    7.4880   -1.8410    6.6000 C   0  0  0  0  0  0  0  0  0  0  0  0
    7.4350   -3.2300    6.8050 N   0  0  0  0  0  0  0  0  0  0  0  0
    6.2070   -3.6760    7.5080 C   0  0  0  0  0  0  0  0  0  0  0  0
    6.0270   -5.2110    7.4500 C   0  0  0  0  0  0  0  0  0  0  0  0
    7.3640   -5.9340    7.4720 N   0  0  0  0  0  0  0  0  0  0  0  0
    8.0960   -5.7480    8.7750 C   0  0  0  0  0  0  0  0  0  0  0  0
    8.2250   -5.5380    6.2730 C   0  0  0  0  0  0  0  0  0  0  0  0
    7.9090   -4.1200    5.7330 C   0  0  0  0  0  0  0  0  0  0  0  0
    6.6410   -0.9910    7.3260 C   0  0  0  0  0  0  0  0  0  0  0  0
    6.6570    0.4010    7.1520 C   0  0  0  0  0  0  0  0  0  0  0  0
    9.7610    3.2650    5.9100 N   0  0  0  0  0  0  0  0  0  0  0  0
   10.3200    4.4000    6.4060 N   0  0  0  0  0  0  0  0  0  0  0  0
   13.6500    3.3870    6.2350 C   0  0  0  0  0  0  0  0  0  0  0  0
   14.6400    2.6830    5.5390 C   0  0  0  0  0  0  0  0  0  0  0  0
   14.3119    0.9776    2.1355 H   0  0  0  0  0  0  0  0  0  0  0  0
   14.8032    2.5856    1.5032 H   0  0  0  0  0  0  0  0  0  0  0  0
   15.9750    1.2241    1.5032 H   0  0  0  0  0  0  0  0  0  0  0  0
   13.7217    3.4657    2.3564 H   0  0  0  0  0  0  0  0  0  0  0  0
   11.9597    4.7184    3.5895 H   0  0  0  0  0  0  0  0  0  0  0  0
   12.9879    6.4393    6.8124 H   0  0  0  0  0  0  0  0  0  0  0  0
   11.2201    7.7354    8.0986 H   0  0  0  0  0  0  0  0  0  0  0  0
    8.9399    6.9020    8.2897 H   0  0  0  0  0  0  0  0  0  0  0  0
    6.7810    2.7620    5.5350 H   0  0  0  0  0  0  0  0  0  0  0  0
    9.0900    0.6076    4.8093 H   0  0  0  0  0  0  0  0  0  0  0  0
    9.0673   -1.8483    5.1249 H   0  0  0  0  0  0  0  0  0  0  0  0
    6.2693   -3.3660    8.5616 H   0  0  0  0  0  0  0  0  0  0  0  0
    5.3436   -3.2150    7.0060 H   0  0  0  0  0  0  0  0  0  0  0  0
    5.4328   -5.5335    8.3177 H   0  0  0  0  0  0  0  0  0  0  0  0
    5.5166   -5.4615    6.5083 H   0  0  0  0  0  0  0  0  0  0  0  0
    7.1700   -6.9390    7.3900 H   0  0  0  0  0  0  0  0  0  0  0  0
    7.4046   -5.9237    9.6123 H   0  0  0  0  0  0  0  0  0  0  0  0
    8.9302   -6.4627    8.8322 H   0  0  0  0  0  0  0  0  0  0  0  0
    8.4878   -4.7217    8.8322 H   0  0  0  0  0  0  0  0  0  0  0  0
    9.2818   -5.5684    6.5768 H   0  0  0  0  0  0  0  0  0  0  0  0
    8.0054   -6.2509    5.4646 H   0  0  0  0  0  0  0  0  0  0  0  0
    8.8218   -3.6936    5.2914 H   0  0  0  0  0  0  0  0  0  0  0  0
    7.1136   -4.2065    4.9781 H   0  0  0  0  0  0  0  0  0  0  0  0
    5.9427   -1.4292    8.0542 H   0  0  0  0  0  0  0  0  0  0  0  0
    5.9680    1.0256    7.7395 H   0  0  0  0  0  0  0  0  0  0  0  0
   13.6344    3.3587    7.3345 H   0  0  0  0  0  0  0  0  0  0  0  0
   15.3950    2.1069    6.0940 H   0  0  0  0  0  0  0  0  0  0  0  0
  1  2  1  0
  2  3  1  0
  3  4  2  0
  4  5  1  0
  5  6  2  0
  6  7  1  0
  7  8  2  0
  8  9  1  0
  9 10  2  0
 10 11  1  0
 11 12  2  0
 12 13  1  0
 13 14  1  0
 14 15  1  0
 15 16  2  0
 16 17  1  0
 17 18  2  0
 18 19  1  0
 19 20  1  0
 20 21  1  0
 21 22  1  0
 22 23  1  0
 22 24  1  0
 24 25  1  0
 18 26  1  0
 26 27  2  0
 13 28  2  0
 28 29  1  0
  6 30  1  0
 30 31  2  0
 31  3  1  0
 29  7  1  0
 29 11  1  0
 27 15  1  0
 25 19  1  0
  1 32  1  0
  1 33  1  0
  1 34  1  0
  4 35  1  0
  5 36  1  0
  8 37  1  0
  9 38  1  0
 10 39  1  0
 14 40  1  0
 16 41  1  0
 17 42  1  0
 20 43  1  0
 20 44  1  0
 21 45  1  0
 21 46  1  0
 22 47  1  0
 23 48  1  0
 23 49  1  0
 23 50  1  0
 24 51  1  0
 24 52  1  0
 25 53  1  0
 25 54  1  0
 26 55  1  0
 27 56  1  0
 30 57  1  0
 31 58  1  0
M  CHG  1  22   1
M  END
>  <meeko>  (1) 
{"is_sidechain": [false], "free_energy": -9.893, "intermolecular_energy": -12.785, "internal_energy": -0.837}

$$$$
4jia_ligand
     RDKit          3D

 58 62  0  0  0  0  0  0  0  0999 V2000
    6.4900   -1.7510    6.9100 C   0  0  0  0  0  0  0  0  0  0  0  0
    5.8160   -0.5260    6.6570 O   0  0  0  0  0  0  0  0  0  0  0  0
    6.5560    0.6200    6.7550 C   0  0  0  0  0  0  0  0  0  0  0  0
    7.4180    0.8510    5.6800 C   0  0  0  0  0  0  0  0  0  0  0  0
    8.2340    1.9850    5.6510 C   0  0  0  0  0  0  0  0  0  0  0  0
    8.2010    2.9100    6.7020 C   0  0  0  0  0  0  0  0  0  0  0  0
    9.0670    4.1030    6.6820 C   0  0  0  0  0  0  0  0  0  0  0  0
    8.5660    5.2990    7.0650 C   0  0  0  0  0  0  0  0  0  0  0  0
    9.4110    6.4810    7.0390 C   0  0  0  0  0  0  0  0  0  0  0  0
   10.6920    6.4180    6.6350 C   0  0  0  0  0  0  0  0  0  0  0  0
   11.2390    5.1730    6.2240 C   0  0  0  0  0  0  0  0  0  0  0  0
   12.4340    4.8440    5.7970 N   0  0  0  0  0  0  0  0  0  0  0  0
   12.3330    3.5040    5.5660 C   0  0  0  0  0  0  0  0  0  0  0  0
   13.3610    2.7600    5.1200 N   0  0  0  0  0  0  0  0  0  0  0  0
   14.4130    3.0100    4.2230 C   0  0  0  0  0  0  0  0  0  0  0  0
   15.7240    2.7120    4.6180 C   0  0  0  0  0  0  0  0  0  0  0  0
   16.8190    2.9470    3.7730 C   0  0  0  0  0  0  0  0  0  0  0  0
   16.6550    3.5010    2.4980 C   0  0  0  0  0  0  0  0  0  0  0  0
   17.7220    3.7550    1.6200 N   0  0  0  0  0  0  0  0  0  0  0  0
   17.9450    5.2000    1.3660 C   0  0  0  0  0  0  0  0  0  0  0  0
   19.2920    5.4660    0.6560 C   0  0  0  0  0  0  0  0  0  0  0  0
   19.6550    4.3390   -0.2990 N   0  0  0  0  0  0  0  0  0  0  0  0
   18.6980    4.2370   -1.4580 C   0  0  0  0  0  0  0  0  0  0  0  0
   19.7940    3.0100    0.4440 C   0  0  0  0  0  0  0  0  0  0  0  0
   18.9400    2.9380    1.7350 C   0  0  0  0  0  0  0  0  0  0  0  0
   15.3390    3.7850    2.1050 C   0  0  0  0  0  0  0  0  0  0  0  0
   14.2430    3.5490    2.9500 C   0  0  0  0  0  0  0  0  0  0  0  0
   11.1350    2.9800    5.8210 N   0  0  0  0  0  0  0  0  0  0  0  0
   10.4120    4.0460    6.2550 N   0  0  0  0  0  0  0  0  0  0  0  0
    7.3330    2.6760    7.7760 C   0  0  0  0  0  0  0  0  0  0  0  0
    6.5160    1.5380    7.8030 C   0  0  0  0  0  0  0  0  0  0  0  0
    6.5749   -1.9053    7.9958 H   0  0  0  0  0  0  0  0  0  0  0  0
    5.9215   -2.5810    6.4650 H   0  0  0  0  0  0  0  0  0  0  0  0
    7.4953   -1.7151    6.4650 H   0  0  0  0  0  0  0  0  0  0  0  0
    7.4547    0.1327    4.8477 H   0  0  0  0  0  0  0  0  0  0  0  0
    8.9068    2.1523    4.7969 H   0  0  0  0  0  0  0  0  0  0  0  0
    7.5199    5.3772    7.3959 H   0  0  0  0  0  0  0  0  0  0  0  0
    8.9938    7.4480    7.3566 H   0  0  0  0  0  0  0  0  0  0  0  0
   11.3131    7.3258    6.6228 H   0  0  0  0  0  0  0  0  0  0  0  0
   13.3790    1.8310    5.5210 H   0  0  0  0  0  0  0  0  0  0  0  0
   15.8990    2.2830    5.6157 H   0  0  0  0  0  0  0  0  0  0  0  0
   17.8304    2.6898    4.1207 H   0  0  0  0  0  0  0  0  0  0  0  0
   17.1295    5.5784    0.7322 H   0  0  0  0  0  0  0  0  0  0  0  0
   17.9677    5.7146    2.3380 H   0  0  0  0  0  0  0  0  0  0  0  0
   19.2165    6.4048    0.0877 H   0  0  0  0  0  0  0  0  0  0  0  0
   20.0775    5.5327    1.4232 H   0  0  0  0  0  0  0  0  0  0  0  0
   20.5730    4.5620   -0.7010 H   0  0  0  0  0  0  0  0  0  0  0  0
   17.6717    4.1276   -1.0775 H   0  0  0  0  0  0  0  0  0  0  0  0
   18.7666    5.1475   -2.0714 H   0  0  0  0  0  0  0  0  0  0  0  0
   18.9570    3.3614   -2.0714 H   0  0  0  0  0  0  0  0  0  0  0  0
   19.4788    2.1990   -0.2290 H   0  0  0  0  0  0  0  0  0  0  0  0
   20.8478    2.9130    0.7443 H   0  0  0  0  0  0  0  0  0  0  0  0
   18.6531    1.8917    1.9163 H   0  0  0  0  0  0  0  0  0  0  0  0
   19.5409    3.3286    2.5695 H   0  0  0  0  0  0  0  0  0  0  0  0
   15.1602    4.2054    1.1044 H   0  0  0  0  0  0  0  0  0  0  0  0
   13.2296    3.7947    2.5997 H   0  0  0  0  0  0  0  0  0  0  0  0
    7.2922    3.3942    8.6082 H   0  0  0  0  0  0  0  0  0  0  0  0
    5.8405    1.3685    8.6545 H   0  0  0  0  0  0  0  0  0  0  0  0
  1  2  1  0
  2  3  1  0
  3  4  2  0
  4  5  1  0
  5  6  2  0
  6  7  1  0
  7  8  2  0
  8  9  1  0
  9 10  2  0
 10 11  1  0
 11 12  2  0
 12 13  1  0
 13 14  1  0
 14 15  1  0
 15 16  2  0
 16 17  1  0
 17 18  2  0
 18 19  1  0
 19 20  1  0
 20 21  1  0
 21 22  1  0
 22 23  1  0
 22 24  1  0
 24 25  1  0
 18 26  1  0
 26 27  2  0
 13 28  2  0
 28 29  1  0
  6 30  1  0
 30 31  2  0
 31  3  1  0
 29  7  1  0
 29 11  1  0
 27 15  1  0
 25 19  1  0
  1 32  1  0
  1 33  1  0
  1 34  1  0
  4 35  1  0
  5 36  1  0
  8 37  1  0
  9 38  1  0
 10 39  1  0
 14 40  1  0
 16 41  1  0
 17 42  1  0
 20 43  1  0
 20 44  1  0
 21 45  1  0
 21 46  1  0
 22 47  1  0
 23 48  1  0
 23 49  1  0
 23 50  1  0
 24 51  1  0
 24 52  1  0
 25 53  1  0
 25 54  1  0
 26 55  1  0
 27 56  1  0
 30 57  1  0
 31 58  1  0
M  CHG  1  22   1
M  END
>  <meeko>  (2) 
{"is_sidechain": [false], "free_energy": -8.627, "intermolecular_energy": -11.498, "internal_energy": -0.488}

$$$$
4jia_ligand
     RDKit          3D

 58 62  0  0  0  0  0  0  0  0999 V2000
   -0.8630    6.3180    5.3230 C   0  0  0  0  0  0  0  0  0  0  0  0
   -1.3190    4.9810    5.1720 O   0  0  0  0  0  0  0  0  0  0  0  0
   -0.8390    4.0580    6.0600 C   0  0  0  0  0  0  0  0  0  0  0  0
   -0.6190    4.5510    7.3490 C   0  0  0  0  0  0  0  0  0  0  0  0
   -0.1280    3.7150    8.3570 C   0  0  0  0  0  0  0  0  0  0  0  0
    0.1510    2.3690    8.0900 C   0  0  0  0  0  0  0  0  0  0  0  0
    0.6780    1.4860    9.1460 C   0  0  0  0  0  0  0  0  0  0  0  0
   -0.1540    1.0210   10.1050 C   0  0  0  0  0  0  0  0  0  0  0  0
    0.3610    0.1570   11.1550 C   0  0  0  0  0  0  0  0  0  0  0  0
    1.6590   -0.1920   11.2010 C   0  0  0  0  0  0  0  0  0  0  0  0
    2.5520    0.2880   10.2060 C   0  0  0  0  0  0  0  0  0  0  0  0
    3.8370    0.0990   10.0230 N   0  0  0  0  0  0  0  0  0  0  0  0
    4.1080    0.8220    8.8990 C   0  0  0  0  0  0  0  0  0  0  0  0
    5.3360    0.8890    8.3530 N   0  0  0  0  0  0  0  0  0  0  0  0
    6.2480    1.9400    8.1600 C   0  0  0  0  0  0  0  0  0  0  0  0
    6.9750    1.9920    6.9640 C   0  0  0  0  0  0  0  0  0  0  0  0
    7.9080    3.0100    6.7130 C   0  0  0  0  0  0  0  0  0  0  0  0
    8.1640    4.0170    7.6510 C   0  0  0  0  0  0  0  0  0  0  0  0
    9.0890    5.0530    7.4440 N   0  0  0  0  0  0  0  0  0  0  0  0
   10.0310    4.7890    6.3270 C   0  0  0  0  0  0  0  0  0  0  0  0
   10.8260    6.0520    5.9250 C   0  0  0  0  0  0  0  0  0  0  0  0
   11.1130    6.9410    7.1240 N   0  0  0  0  0  0  0  0  0  0  0  0
   12.0360    6.2860    8.1170 C   0  0  0  0  0  0  0  0  0  0  0  0
    9.8160    7.4180    7.7800 C   0  0  0  0  0  0  0  0  0  0  0  0
    8.6290    6.4450    7.5670 C   0  0  0  0  0  0  0  0  0  0  0  0
    7.4230    3.9640    8.8410 C   0  0  0  0  0  0  0  0  0  0  0  0
    6.4890    2.9470    9.0910 C   0  0  0  0  0  0  0  0  0  0  0  0
    3.0610    1.4560    8.3740 N   0  0  0  0  0  0  0  0  0  0  0  0
    2.0400    1.1180    9.2040 N   0  0  0  0  0  0  0  0  0  0  0  0
   -0.0760    1.8800    6.7970 C   0  0  0  0  0  0  0  0  0  0  0  0
   -0.5670    2.7190    5.7890 C   0  0  0  0  0  0  0  0  0  0  0  0
   -0.7809    6.5587    6.3932 H   0  0  0  0  0  0  0  0  0  0  0  0
    0.1225    6.4253    4.8464 H   0  0  0  0  0  0  0  0  0  0  0  0
   -1.5776    7.0052    4.8464 H   0  0  0  0  0  0  0  0  0  0  0  0
   -0.8340    5.6063    7.5729 H   0  0  0  0  0  0  0  0  0  0  0  0
    0.0402    4.1177    9.3667 H   0  0  0  0  0  0  0  0  0  0  0  0
   -1.2190    1.2959   10.0909 H   0  0  0  0  0  0  0  0  0  0  0  0
   -0.3254   -0.2191   11.9279 H   0  0  0  0  0  0  0  0  0  0  0  0
    2.0273   -0.8459   12.0052 H   0  0  0  0  0  0  0  0  0  0  0  0
    5.6690   -0.0070    8.0200 H   0  0  0  0  0  0  0  0  0  0  0  0
    6.8106    1.2156    6.2024 H   0  0  0  0  0  0  0  0  0  0  0  0
    8.4510    3.0167    5.7564 H   0  0  0  0  0  0  0  0  0  0  0  0
   10.7401    4.0079    6.6384 H   0  0  0  0  0  0  0  0  0  0  0  0
    9.4412    4.4688    5.4555 H   0  0  0  0  0  0  0  0  0  0  0  0
   11.7804    5.7437    5.4733 H   0  0  0  0  0  0  0  0  0  0  0  0
   10.2187    6.6263    5.2099 H   0  0  0  0  0  0  0  0  0  0  0  0
   11.6030    7.7740    6.7780 H   0  0  0  0  0  0  0  0  0  0  0  0
   11.7030    6.5223    9.1384 H   0  0  0  0  0  0  0  0  0  0  0  0
   12.0199    5.1961    7.9690 H   0  0  0  0  0  0  0  0  0  0  0  0
   13.0595    6.6610    7.9690 H   0  0  0  0  0  0  0  0  0  0  0  0
    9.9901    7.5254    8.8608 H   0  0  0  0  0  0  0  0  0  0  0  0
    9.5436    8.3734    7.3077 H   0  0  0  0  0  0  0  0  0  0  0  0
    7.9457    6.5212    8.4257 H   0  0  0  0  0  0  0  0  0  0  0  0
    8.1174    6.7234    6.6339 H   0  0  0  0  0  0  0  0  0  0  0  0
    7.5789    4.7435    9.6014 H   0  0  0  0  0  0  0  0  0  0  0  0
    5.9359    2.9453   10.0419 H   0  0  0  0  0  0  0  0  0  0  0  0
    0.1340    0.8242    6.5708 H   0  0  0  0  0  0  0  0  0  0  0  0
   -0.7386    2.3189    4.7788 H   0  0  0  0  0  0  0  0  0  0  0  0
  1  2  1  0
  2  3  1  0
  3  4  2  0
  4  5  1  0
  5  6  2  0
  6  7  1  0
  7  8  2  0
  8  9  1  0
  9 10  2  0
 10 11  1  0
 11 12  2  0
 12 13  1  0
 13 14  1  0
 14 15  1  0
 15 16  2  0
 16 17  1  0
 17 18  2  0
 18 19  1  0
 19 20  1  0
 20 21  1  0
 21 22  1  0
 22 23  1  0
 22 24  1  0
 24 25  1  0
 18 26  1  0
 26 27  2  0
 13 28  2  0
 28 29  1  0
  6 30  1  0
 30 31  2  0
 31  3  1  0
 29  7  1  0
 29 11  1  0
 27 15  1  0
 25 19  1  0
  1 32  1  0
  1 33  1  0
  1 34  1  0
  4 35  1  0
  5 36  1  0
  8 37  1  0
  9 38  1  0
 10 39  1  0
 14 40  1  0
 16 41  1  0
 17 42  1  0
 20 43  1  0
 20 44  1  0
 21 45  1  0
 21 46  1  0
 22 47  1  0
 23 48  1  0
 23 49  1  0
 23 50  1  0
 24 51  1  0
 24 52  1  0
 25 53  1  0
 25 54  1  0
 26 55  1  0
 27 56  1  0
 30 57  1  0
 31 58  1  0
M  CHG  1  22   1
M  END
>  <meeko>  (3) 
{"is_sidechain": [false], "free_energy": -8.475, "intermolecular_energy": -10.901, "internal_energy": -0.888}

$$$$
4jia_ligand
     RDKit          3D

 58 62  0  0  0  0  0  0  0  0999 V2000
   11.2760   -7.5080    8.5640 C   0  0  0  0  0  0  0  0  0  0  0  0
   10.6140   -7.1220    7.3660 O   0  0  0  0  0  0  0  0  0  0  0  0
    9.4770   -6.3740    7.5010 C   0  0  0  0  0  0  0  0  0  0  0  0
    9.3370   -5.7450    8.7400 C   0  0  0  0  0  0  0  0  0  0  0  0
    8.2200   -4.9490    9.0130 C   0  0  0  0  0  0  0  0  0  0  0  0
    7.2230   -4.7710    8.0470 C   0  0  0  0  0  0  0  0  0  0  0  0
    6.0370   -3.9410    8.3320 C   0  0  0  0  0  0  0  0  0  0  0  0
    5.0660   -4.4200    9.1410 C   0  0  0  0  0  0  0  0  0  0  0  0
    3.8910   -3.6110    9.4180 C   0  0  0  0  0  0  0  0  0  0  0  0
    3.7390   -2.3860    8.8830 C   0  0  0  0  0  0  0  0  0  0  0  0
    4.7460   -1.8650    8.0260 C   0  0  0  0  0  0  0  0  0  0  0  0
    4.8430   -0.7230    7.3890 N   0  0  0  0  0  0  0  0  0  0  0  0
    6.0380   -0.8210    6.7390 C   0  0  0  0  0  0  0  0  0  0  0  0
    6.5300    0.1630    5.9650 N   0  0  0  0  0  0  0  0  0  0  0  0
    7.2390    1.3430    6.2430 C   0  0  0  0  0  0  0  0  0  0  0  0
    8.4190    1.6060    5.5330 C   0  0  0  0  0  0  0  0  0  0  0  0
    9.1780    2.7620    5.7700 C   0  0  0  0  0  0  0  0  0  0  0  0
    8.7980    3.7040    6.7330 C   0  0  0  0  0  0  0  0  0  0  0  0
    9.5280    4.8730    7.0040 N   0  0  0  0  0  0  0  0  0  0  0  0
   10.6360    5.1130    6.0460 C   0  0  0  0  0  0  0  0  0  0  0  0
   11.2200    6.5390    6.1770 C   0  0  0  0  0  0  0  0  0  0  0  0
   11.1780    7.0330    7.6140 N   0  0  0  0  0  0  0  0  0  0  0  0
   12.0780    6.2350    8.5220 C   0  0  0  0  0  0  0  0  0  0  0  0
    9.7430    7.0870    8.1380 C   0  0  0  0  0  0  0  0  0  0  0  0
    8.7990    6.0740    7.4430 C   0  0  0  0  0  0  0  0  0  0  0  0
    7.6100    3.4400    7.4290 C   0  0  0  0  0  0  0  0  0  0  0  0
    6.8500    2.2840    7.1930 C   0  0  0  0  0  0  0  0  0  0  0  0
    6.6880   -1.9670    6.9320 N   0  0  0  0  0  0  0  0  0  0  0  0
    5.8690   -2.6570    7.7690 N   0  0  0  0  0  0  0  0  0  0  0  0
    7.3710   -5.4000    6.8040 C   0  0  0  0  0  0  0  0  0  0  0  0
    8.4900   -6.1980    6.5330 C   0  0  0  0  0  0  0  0  0  0  0  0
   10.6920   -7.1675    9.4317 H   0  0  0  0  0  0  0  0  0  0  0  0
   11.3716   -8.6034    8.5935 H   0  0  0  0  0  0  0  0  0  0  0  0
   12.2764   -7.0517    8.5935 H   0  0  0  0  0  0  0  0  0  0  0  0
   10.1128   -5.8769    9.5086 H   0  0  0  0  0  0  0  0  0  0  0  0
    8.1244   -4.4596    9.9935 H   0  0  0  0  0  0  0  0  0  0  0  0
    5.1649   -5.4199    9.5887 H   0  0  0  0  0  0  0  0  0  0  0  0
    3.1081   -4.0093   10.0801 H   0  0  0  0  0  0  0  0  0  0  0  0
    2.8411   -1.7915    9.1074 H   0  0  0  0  0  0  0  0  0  0  0  0
    6.3560    0.0130    4.9790 H   0  0  0  0  0  0  0  0  0  0  0  0
    8.7581    0.8884    4.7714 H   0  0  0  0  0  0  0  0  0  0  0  0
   10.0938    2.9321    5.1849 H   0  0  0  0  0  0  0  0  0  0  0  0
   11.4360    4.3830    6.2389 H   0  0  0  0  0  0  0  0  0  0  0  0
   10.2332    5.0042    5.0282 H   0  0  0  0  0  0  0  0  0  0  0  0
   12.2650    6.5294    5.8336 H   0  0  0  0  0  0  0  0  0  0  0  0
   10.6099    7.2176    5.5628 H   0  0  0  0  0  0  0  0  0  0  0  0
   11.5410    7.9930    7.6190 H   0  0  0  0  0  0  0  0  0  0  0  0
   11.8294    6.4554    9.5706 H   0  0  0  0  0  0  0  0  0  0  0  0
   11.9349    5.1616    8.3291 H   0  0  0  0  0  0  0  0  0  0  0  0
   13.1266    6.5056    8.3291 H   0  0  0  0  0  0  0  0  0  0  0  0
    9.7564    6.8690    9.2161 H   0  0  0  0  0  0  0  0  0  0  0  0
    9.3553    8.0939    7.9239 H   0  0  0  0  0  0  0  0  0  0  0  0
    8.0113    5.7757    8.1504 H   0  0  0  0  0  0  0  0  0  0  0  0
    8.3648    6.5584    6.5560 H   0  0  0  0  0  0  0  0  0  0  0  0
    7.2628    4.1613    8.1835 H   0  0  0  0  0  0  0  0  0  0  0  0
    5.9284    2.1179    7.7701 H   0  0  0  0  0  0  0  0  0  0  0  0
    6.5994   -5.2657    6.0316 H   0  0  0  0  0  0  0  0  0  0  0  0
    8.5900   -6.6873    5.5529 H   0  0  0  0  0  0  0  0  0  0  0  0
  1  2  1  0
  2  3  1  0
  3  4  2  0
  4  5  1  0
  5  6  2  0
  6  7  1  0
  7  8  2  0
  8  9  1  0
  9 10  2  0
 10 11  1  0
 11 12  2  0
 12 13  1  0
 13 14  1  0
 14 15  1  0
 15 16  2  0
 16 17  1  0
 17 18  2  0
 18 19  1  0
 19 20  1  0
 20 21  1  0
 21 22  1  0
 22 23  1  0
 22 24  1  0
 24 25  1  0
 18 26  1  0
 26 27  2  0
 13 28  2  0
 28 29  1  0
  6 30  1  0
 30 31  2  0
 31  3  1  0
 29  7  1  0
 29 11  1  0
 27 15  1  0
 25 19  1  0
  1 32  1  0
  1 33  1  0
  1 34  1  0
  4 35  1  0
  5 36  1  0
  8 37  1  0
  9 38  1  0
 10 39  1  0
 14 40  1  0
 16 41  1  0
 17 42  1  0
 20 43  1  0
 20 44  1  0
 21 45  1  0
 21 46  1  0
 22 47  1  0
 23 48  1  0
 23 49  1  0
 23 50  1  0
 24 51  1  0
 24 52  1  0
 25 53  1  0
 25 54  1  0
 26 55  1  0
 27 56  1  0
 30 57  1  0
 31 58  1  0
M  CHG  1  22   1
M  END
>  <meeko>  (4) 
{"is_sidechain": [false], "free_energy": -8.457, "intermolecular_energy": -10.928, "internal_energy": -0.837}

$$$$
4jia_ligand
     RDKit          3D

 58 62  0  0  0  0  0  0  0  0999 V2000
   -2.0250   -0.0420    9.2660 C   0  0  0  0  0  0  0  0  0  0  0  0
   -0.8560    0.5390    9.8280 O   0  0  0  0  0  0  0  0  0  0  0  0
    0.3200   -0.1350    9.6440 C   0  0  0  0  0  0  0  0  0  0  0  0
    0.2840   -1.1070    8.6420 C   0  0  0  0  0  0  0  0  0  0  0  0
    1.4170   -1.8720    8.3490 C   0  0  0  0  0  0  0  0  0  0  0  0
    2.6080   -1.6760    9.0600 C   0  0  0  0  0  0  0  0  0  0  0  0
    3.8040   -2.4860    8.7630 C   0  0  0  0  0  0  0  0  0  0  0  0
    3.9180   -3.7260    9.2910 C   0  0  0  0  0  0  0  0  0  0  0  0
    5.0990   -4.5260    9.0110 C   0  0  0  0  0  0  0  0  0  0  0  0
    6.0940   -4.0600    8.2350 C   0  0  0  0  0  0  0  0  0  0  0  0
    5.9960   -2.7590    7.6740 C   0  0  0  0  0  0  0  0  0  0  0  0
    6.8070   -2.0810    6.8970 N   0  0  0  0  0  0  0  0  0  0  0  0
    6.1520   -0.9020    6.7040 C   0  0  0  0  0  0  0  0  0  0  0  0
    6.6460    0.0910    5.9420 N   0  0  0  0  0  0  0  0  0  0  0  0
    7.3240    1.2850    6.2370 C   0  0  0  0  0  0  0  0  0  0  0  0
    8.4840    1.6000    5.5160 C   0  0  0  0  0  0  0  0  0  0  0  0
    9.2130    2.7730    5.7690 C   0  0  0  0  0  0  0  0  0  0  0  0
    8.8220    3.6780    6.7610 C   0  0  0  0  0  0  0  0  0  0  0  0
    9.5210    4.8620    7.0500 N   0  0  0  0  0  0  0  0  0  0  0  0
   10.5710    5.1850    6.0520 C   0  0  0  0  0  0  0  0  0  0  0  0
   11.1080    6.6260    6.2190 C   0  0  0  0  0  0  0  0  0  0  0  0
   11.1210    7.0550    7.6770 N   0  0  0  0  0  0  0  0  0  0  0  0
   12.0920    6.2540    8.5050 C   0  0  0  0  0  0  0  0  0  0  0  0
    9.7120    7.0310    8.2710 C   0  0  0  0  0  0  0  0  0  0  0  0
    8.7720    6.0130    7.5770 C   0  0  0  0  0  0  0  0  0  0  0  0
    7.6530    3.3620    7.4700 C   0  0  0  0  0  0  0  0  0  0  0  0
    6.9240    2.1910    7.2170 C   0  0  0  0  0  0  0  0  0  0  0  0
    4.9770   -0.8050    7.3230 N   0  0  0  0  0  0  0  0  0  0  0  0
    4.8540   -2.0030    7.9540 N   0  0  0  0  0  0  0  0  0  0  0  0
    2.6390   -0.6970   10.0610 C   0  0  0  0  0  0  0  0  0  0  0  0
    1.5030    0.0680   10.3520 C   0  0  0  0  0  0  0  0  0  0  0  0
   -2.6938   -0.3744   10.0736 H   0  0  0  0  0  0  0  0  0  0  0  0
   -2.5427    0.7037    8.6447 H   0  0  0  0  0  0  0  0  0  0  0  0
   -1.7432   -0.9049    8.6447 H   0  0  0  0  0  0  0  0  0  0  0  0
   -0.6454   -1.2725    8.0774 H   0  0  0  0  0  0  0  0  0  0  0  0
    1.3729   -2.6324    7.5554 H   0  0  0  0  0  0  0  0  0  0  0  0
    3.1188   -4.1282    9.9309 H   0  0  0  0  0  0  0  0  0  0  0  0
    5.1808   -5.5343    9.4431 H   0  0  0  0  0  0  0  0  0  0  0  0
    6.9785   -4.6830    8.0361 H   0  0  0  0  0  0  0  0  0  0  0  0
    6.5010   -0.0620    4.9520 H   0  0  0  0  0  0  0  0  0  0  0  0
    8.8319    0.9110    4.7323 H   0  0  0  0  0  0  0  0  0  0  0  0
   10.1128    2.9852    5.1730 H   0  0  0  0  0  0  0  0  0  0  0  0
   11.4056    4.4790    6.1740 H   0  0  0  0  0  0  0  0  0  0  0  0
   10.1232    5.1040    5.0505 H   0  0  0  0  0  0  0  0  0  0  0  0
   12.1338    6.6722    5.8245 H   0  0  0  0  0  0  0  0  0  0  0  0
   10.4427    7.3063    5.6671 H   0  0  0  0  0  0  0  0  0  0  0  0
   11.4480    8.0270    7.7080 H   0  0  0  0  0  0  0  0  0  0  0  0
   11.8886    6.4218    9.5729 H   0  0  0  0  0  0  0  0  0  0  0  0
   11.9766    5.1849    8.2733 H   0  0  0  0  0  0  0  0  0  0  0  0
   13.1197    6.5706    8.2733 H   0  0  0  0  0  0  0  0  0  0  0  0
    9.7866    6.7675    9.3364 H   0  0  0  0  0  0  0  0  0  0  0  0
    9.2779    8.0305    8.1209 H   0  0  0  0  0  0  0  0  0  0  0  0
    8.0319    5.6541    8.3073 H   0  0  0  0  0  0  0  0  0  0  0  0
    8.2768    6.5182    6.7347 H   0  0  0  0  0  0  0  0  0  0  0  0
    7.2976    4.0538    8.2479 H   0  0  0  0  0  0  0  0  0  0  0  0
    6.0175    1.9835    7.8045 H   0  0  0  0  0  0  0  0  0  0  0  0
    3.5675   -0.5269   10.6257 H   0  0  0  0  0  0  0  0  0  0  0  0
    1.5445    0.8320   11.1423 H   0  0  0  0  0  0  0  0  0  0  0  0
  1  2  1  0
  2  3  1  0
  3  4  2  0
  4  5  1  0
  5  6  2  0
  6  7  1  0
  7  8  2  0
  8  9  1  0
  9 10  2  0
 10 11  1  0
 11 12  2  0
 12 13  1  0
 13 14  1  0
 14 15  1  0
 15 16  2  0
 16 17  1  0
 17 18  2  0
 18 19  1  0
 19 20  1  0
 20 21  1  0
 21 22  1  0
 22 23  1  0
 22 24  1  0
 24 25  1  0
 18 26  1  0
 26 27  2  0
 13 28  2  0
 28 29  1  0
  6 30  1  0
 30 31  2  0
 31  3  1  0
 29  7  1  0
 29 11  1  0
 27 15  1  0
 25 19  1  0
  1 32  1  0
  1 33  1  0
  1 34  1  0
  4 35  1  0
  5 36  1  0
  8 37  1  0
  9 38  1  0
 10 39  1  0
 14 40  1  0
 16 41  1  0
 17 42  1  0
 20 43  1  0
 20 44  1  0
 21 45  1  0
 21 46  1  0
 22 47  1  0
 23 48  1  0
 23 49  1  0
 23 50  1  0
 24 51  1  0
 24 52  1  0
 25 53  1  0
 25 54  1  0
 26 55  1  0
 27 56  1  0
 30 57  1  0
 31 58  1  0
M  CHG  1  22   1
M  END
>  <meeko>  (5) 
{"is_sidechain": [false], "free_energy": -8.454, "intermolecular_energy": -10.884, "internal_energy": -0.877}

$$$$
4jia_ligand
     RDKit          3D

 58 62  0  0  0  0  0  0  0  0999 V2000
    1.8210    2.1620   11.0350 C   0  0  0  0  0  0  0  0  0  0  0  0
    2.8840    2.9880   11.4920 O   0  0  0  0  0  0  0  0  0  0  0  0
    3.9890    3.0770   10.6900 C   0  0  0  0  0  0  0  0  0  0  0  0
    3.7360    2.9000    9.3280 C   0  0  0  0  0  0  0  0  0  0  0  0
    4.7760    2.9640    8.3950 C   0  0  0  0  0  0  0  0  0  0  0  0
    6.0900    3.2060    8.8140 C   0  0  0  0  0  0  0  0  0  0  0  0
    7.1930    3.2640    7.8370 C   0  0  0  0  0  0  0  0  0  0  0  0
    7.9120    4.4020    7.7080 C   0  0  0  0  0  0  0  0  0  0  0  0
    8.9940    4.4690    6.7400 C   0  0  0  0  0  0  0  0  0  0  0  0
    9.2990    3.4210    5.9560 C   0  0  0  0  0  0  0  0  0  0  0  0
    8.5540    2.2170    6.0700 C   0  0  0  0  0  0  0  0  0  0  0  0
    8.6460    1.0710    5.4400 N   0  0  0  0  0  0  0  0  0  0  0  0
    7.6550    0.3190    5.9980 C   0  0  0  0  0  0  0  0  0  0  0  0
    7.4100   -0.9530    5.6340 N   0  0  0  0  0  0  0  0  0  0  0  0
    7.8270   -2.1960    6.1390 C   0  0  0  0  0  0  0  0  0  0  0  0
    8.3000   -2.2660    7.4560 C   0  0  0  0  0  0  0  0  0  0  0  0
    8.7400   -3.4740    8.0180 C   0  0  0  0  0  0  0  0  0  0  0  0
    8.7360   -4.6660    7.2850 C   0  0  0  0  0  0  0  0  0  0  0  0
    9.1690   -5.8980    7.8050 N   0  0  0  0  0  0  0  0  0  0  0  0
    8.8980   -6.0530    9.2560 C   0  0  0  0  0  0  0  0  0  0  0  0
    9.0980   -7.5110    9.7320 C   0  0  0  0  0  0  0  0  0  0  0  0
   10.2150   -8.2030    8.9670 N   0  0  0  0  0  0  0  0  0  0  0  0
   11.5640   -7.5900    9.2390 C   0  0  0  0  0  0  0  0  0  0  0  0
    9.9060   -8.2600    7.4710 C   0  0  0  0  0  0  0  0  0  0  0  0
    8.9830   -7.1110    6.9930 C   0  0  0  0  0  0  0  0  0  0  0  0
    8.2480   -4.5910    5.9720 C   0  0  0  0  0  0  0  0  0  0  0  0
    7.8080   -3.3830    5.4110 C   0  0  0  0  0  0  0  0  0  0  0  0
    6.9450    0.9380    6.9400 N   0  0  0  0  0  0  0  0  0  0  0  0
    7.5160    2.1690    7.0060 N   0  0  0  0  0  0  0  0  0  0  0  0
    6.3370    3.3870   10.1810 C   0  0  0  0  0  0  0  0  0  0  0  0
    5.2940    3.3220   11.1130 C   0  0  0  0  0  0  0  0  0  0  0  0
    1.2836    1.7444   11.8992 H   0  0  0  0  0  0  0  0  0  0  0  0
    1.1274    2.7604   10.4261 H   0  0  0  0  0  0  0  0  0  0  0  0
    2.2295    1.3420   10.4261 H   0  0  0  0  0  0  0  0  0  0  0  0
    2.7084    2.7083    8.9855 H   0  0  0  0  0  0  0  0  0  0  0  0
    4.5604    2.8234    7.3255 H   0  0  0  0  0  0  0  0  0  0  0  0
    7.6784    5.2754    8.3346 H   0  0  0  0  0  0  0  0  0  0  0  0
    9.5760    5.3978    6.6471 H   0  0  0  0  0  0  0  0  0  0  0  0
   10.1216    3.4952    5.2295 H   0  0  0  0  0  0  0  0  0  0  0  0
    6.7940   -1.0230    4.8350 H   0  0  0  0  0  0  0  0  0  0  0  0
    8.3271   -1.3504    8.0650 H   0  0  0  0  0  0  0  0  0  0  0  0
    9.0963   -3.4843    9.0587 H   0  0  0  0  0  0  0  0  0  0  0  0
    9.5827   -5.3996    9.8166 H   0  0  0  0  0  0  0  0  0  0  0  0
    7.8481   -5.7786    9.4360 H   0  0  0  0  0  0  0  0  0  0  0  0
    9.3494   -7.5053   10.8029 H   0  0  0  0  0  0  0  0  0  0  0  0
    8.1640   -8.0628    9.5499 H   0  0  0  0  0  0  0  0  0  0  0  0
   10.2640   -9.1710    9.3060 H   0  0  0  0  0  0  0  0  0  0  0  0
   11.7219   -7.5183   10.3252 H   0  0  0  0  0  0  0  0  0  0  0  0
   12.3491   -8.2198    8.7952 H   0  0  0  0  0  0  0  0  0  0  0  0
   11.6060   -6.5844    8.7952 H   0  0  0  0  0  0  0  0  0  0  0  0
   10.8538   -8.2006    6.9160 H   0  0  0  0  0  0  0  0  0  0  0  0
    9.3750   -9.2048    7.2832 H   0  0  0  0  0  0  0  0  0  0  0  0
    9.2161   -6.8781    5.9435 H   0  0  0  0  0  0  0  0  0  0  0  0
    7.9387   -7.4403    7.0978 H   0  0  0  0  0  0  0  0  0  0  0  0
    8.2092   -5.5069    5.3641 H   0  0  0  0  0  0  0  0  0  0  0  0
    7.4403   -3.3731    4.3743 H   0  0  0  0  0  0  0  0  0  0  0  0
    7.3629    3.5826   10.5265 H   0  0  0  0  0  0  0  0  0  0  0  0
    5.5055    3.4649   12.1830 H   0  0  0  0  0  0  0  0  0  0  0  0
  1  2  1  0
  2  3  1  0
  3  4  2  0
  4  5  1  0
  5  6  2  0
  6  7  1  0
  7  8  2  0
  8  9  1  0
  9 10  2  0
 10 11  1  0
 11 12  2  0
 12 13  1  0
 13 14  1  0
 14 15  1  0
 15 16  2  0
 16 17  1  0
 17 18  2  0
 18 19  1  0
 19 20  1  0
 20 21  1  0
 21 22  1  0
 22 23  1  0
 22 24  1  0
 24 25  1  0
 18 26  1  0
 26 27  2  0
 13 28  2  0
 28 29  1  0
  6 30  1  0
 30 31  2  0
 31  3  1  0
 29  7  1  0
 29 11  1  0
 27 15  1  0
 25 19  1  0
  1 32  1  0
  1 33  1  0
  1 34  1  0
  4 35  1  0
  5 36  1  0
  8 37  1  0
  9 38  1  0
 10 39  1  0
 14 40  1  0
 16 41  1  0
 17 42  1  0
 20 43  1  0
 20 44  1  0
 21 45  1  0
 21 46  1  0
 22 47  1  0
 23 48  1  0
 23 49  1  0
 23 50  1  0
 24 51  1  0
 24 52  1  0
 25 53  1  0
 25 54  1  0
 26 55  1  0
 27 56  1  0
 30 57  1  0
 31 58  1  0
M  CHG  1  22   1
M  END
>  <meeko>  (6) 
{"is_sidechain": [false], "free_energy": -8.407, "intermolecular_energy": -10.974, "internal_energy": -0.727}

$$$$
4jia_ligand
     RDKit          3D

 58 62  0  0  0  0  0  0  0  0999 V2000
   -0.9580    6.5700    4.7470 C   0  0  0  0  0  0  0  0  0  0  0  0
   -1.5570    6.6260    6.0340 O   0  0  0  0  0  0  0  0  0  0  0  0
   -1.5050    5.4890    6.7920 C   0  0  0  0  0  0  0  0  0  0  0  0
   -2.0470    5.6160    8.0730 C   0  0  0  0  0  0  0  0  0  0  0  0
   -2.0590    4.5310    8.9540 C   0  0  0  0  0  0  0  0  0  0  0  0
   -1.5240    3.2960    8.5650 C   0  0  0  0  0  0  0  0  0  0  0  0
   -1.5240    2.1500    9.4930 C   0  0  0  0  0  0  0  0  0  0  0  0
   -2.6950    1.5710    9.8410 C   0  0  0  0  0  0  0  0  0  0  0  0
   -2.7020    0.4470   10.7620 C   0  0  0  0  0  0  0  0  0  0  0  0
   -1.5630   -0.0350   11.2890 C   0  0  0  0  0  0  0  0  0  0  0  0
   -0.3210    0.5610   10.9420 C   0  0  0  0  0  0  0  0  0  0  0  0
    0.9100    0.2870   11.3040 N   0  0  0  0  0  0  0  0  0  0  0  0
    1.6530    1.2100   10.6300 C   0  0  0  0  0  0  0  0  0  0  0  0
    2.9950    1.2710   10.7170 N   0  0  0  0  0  0  0  0  0  0  0  0
    4.0350    0.7250    9.9460 C   0  0  0  0  0  0  0  0  0  0  0  0
    3.9920   -0.6370    9.6200 C   0  0  0  0  0  0  0  0  0  0  0  0
    5.0040   -1.2450    8.8620 C   0  0  0  0  0  0  0  0  0  0  0  0
    6.1100   -0.5220    8.4030 C   0  0  0  0  0  0  0  0  0  0  0  0
    7.1470   -1.0900    7.6440 N   0  0  0  0  0  0  0  0  0  0  0  0
    7.4450   -0.3400    6.3990 C   0  0  0  0  0  0  0  0  0  0  0  0
    8.7700   -0.7970    5.7470 C   0  0  0  0  0  0  0  0  0  0  0  0
    9.0180   -2.2820    5.9590 N   0  0  0  0  0  0  0  0  0  0  0  0
    8.0020   -3.1410    5.2520 C   0  0  0  0  0  0  0  0  0  0  0  0
    9.1120   -2.6180    7.4480 C   0  0  0  0  0  0  0  0  0  0  0  0
    8.3180   -1.6380    8.3480 C   0  0  0  0  0  0  0  0  0  0  0  0
    6.1400    0.8430    8.7230 C   0  0  0  0  0  0  0  0  0  0  0  0
    5.1280    1.4520    9.4800 C   0  0  0  0  0  0  0  0  0  0  0  0
    0.9510    2.0490    9.8710 N   0  0  0  0  0  0  0  0  0  0  0  0
   -0.3320    1.6410   10.0540 N   0  0  0  0  0  0  0  0  0  0  0  0
   -0.9850    3.1730    7.2780 C   0  0  0  0  0  0  0  0  0  0  0  0
   -0.9750    4.2610    6.3970 C   0  0  0  0  0  0  0  0  0  0  0  0
    0.1320    6.4681    4.8540 H   0  0  0  0  0  0  0  0  0  0  0  0
   -1.3547    5.7050    4.1952 H   0  0  0  0  0  0  0  0  0  0  0  0
   -1.1875    7.4935    4.1952 H   0  0  0  0  0  0  0  0  0  0  0  0
   -2.4690    6.5804    8.3920 H   0  0  0  0  0  0  0  0  0  0  0  0
   -2.4911    4.6475    9.9588 H   0  0  0  0  0  0  0  0  0  0  0  0
   -3.6412    1.9502    9.4276 H   0  0  0  0  0  0  0  0  0  0  0  0
   -3.6603   -0.0197   11.0339 H   0  0  0  0  0  0  0  0  0  0  0  0
   -1.5926   -0.8862   11.9851 H   0  0  0  0  0  0  0  0  0  0  0  0
    3.3140    1.8310   11.4960 H   0  0  0  0  0  0  0  0  0  0  0  0
    3.1435   -1.2449    9.9671 H   0  0  0  0  0  0  0  0  0  0  0  0
    4.9258   -2.3159    8.6229 H   0  0  0  0  0  0  0  0  0  0  0  0
    6.6245   -0.4995    5.6840 H   0  0  0  0  0  0  0  0  0  0  0  0
    7.5458    0.7237    6.6606 H   0  0  0  0  0  0  0  0  0  0  0  0
    8.7245   -0.5938    4.6669 H   0  0  0  0  0  0  0  0  0  0  0  0
    9.5938   -0.2410    6.2183 H   0  0  0  0  0  0  0  0  0  0  0  0
    9.9270   -2.5040    5.5380 H   0  0  0  0  0  0  0  0  0  0  0  0
    7.3831   -3.6643    5.9958 H   0  0  0  0  0  0  0  0  0  0  0  0
    7.3607   -2.5071    4.6220 H   0  0  0  0  0  0  0  0  0  0  0  0
    8.5204   -3.8788    4.6220 H   0  0  0  0  0  0  0  0  0  0  0  0
    8.7165   -3.6327    7.6027 H   0  0  0  0  0  0  0  0  0  0  0  0
   10.1711   -2.5382    7.7341 H   0  0  0  0  0  0  0  0  0  0  0  0
    7.9771   -2.1735    9.2463 H   0  0  0  0  0  0  0  0  0  0  0  0
    8.9808   -0.8029    8.6190 H   0  0  0  0  0  0  0  0  0  0  0  0
    6.9829    1.4550    8.3696 H   0  0  0  0  0  0  0  0  0  0  0  0
    5.1991    2.5253    9.7102 H   0  0  0  0  0  0  0  0  0  0  0  0
   -0.5642    2.2092    6.9554 H   0  0  0  0  0  0  0  0  0  0  0  0
   -0.5477    4.1469    5.3898 H   0  0  0  0  0  0  0  0  0  0  0  0
  1  2  1  0
  2  3  1  0
  3  4  2  0
  4  5  1  0
  5  6  2  0
  6  7  1  0
  7  8  2  0
  8  9  1  0
  9 10  2  0
 10 11  1  0
 11 12  2  0
 12 13  1  0
 13 14  1  0
 14 15  1  0
 15 16  2  0
 16 17  1  0
 17 18  2  0
 18 19  1  0
 19 20  1  0
 20 21  1  0
 21 22  1  0
 22 23  1  0
 22 24  1  0
 24 25  1  0
 18 26  1  0
 26 27  2  0
 13 28  2  0
 28 29  1  0
  6 30  1  0
 30 31  2  0
 31  3  1  0
 29  7  1  0
 29 11  1  0
 27 15  1  0
 25 19  1  0
  1 32  1  0
  1 33  1  0
  1 34  1  0
  4 35  1  0
  5 36  1  0
  8 37  1  0
  9 38  1  0
 10 39  1  0
 14 40  1  0
 16 41  1  0
 17 42  1  0
 20 43  1  0
 20 44  1  0
 21 45  1  0
 21 46  1  0
 22 47  1  0
 23 48  1  0
 23 49  1  0
 23 50  1  0
 24 51  1  0
 24 52  1  0
 25 53  1  0
 25 54  1  0
 26 55  1  0
 27 56  1  0
 30 57  1  0
 31 58  1  0
M  CHG  1  22   1
M  END
>  <meeko>  (7) 
{"is_sidechain": [false], "free_energy": -8.379, "intermolecular_energy": -10.868, "internal_energy": -0.796}

$$$$
4jia_ligand
     RDKit          3D

 58 62  0  0  0  0  0  0  0  0999 V2000
   -1.2000    6.6190    4.8030 C   0  0  0  0  0  0  0  0  0  0  0  0
   -1.2390    6.3910    6.2060 O   0  0  0  0  0  0  0  0  0  0  0  0
   -1.1910    5.0900    6.6230 C   0  0  0  0  0  0  0  0  0  0  0  0
   -1.5400    4.8940    7.9620 C   0  0  0  0  0  0  0  0  0  0  0  0
   -1.5330    3.6130    8.5210 C   0  0  0  0  0  0  0  0  0  0  0  0
   -1.1750    2.5030    7.7460 C   0  0  0  0  0  0  0  0  0  0  0  0
   -1.1550    1.1500    8.3320 C   0  0  0  0  0  0  0  0  0  0  0  0
   -2.2950    0.6230    8.8340 C   0  0  0  0  0  0  0  0  0  0  0  0
   -2.2810   -0.7060    9.4220 C   0  0  0  0  0  0  0  0  0  0  0  0
   -1.1510   -1.4330    9.4850 C   0  0  0  0  0  0  0  0  0  0  0  0
    0.0590   -0.8970    8.9680 C   0  0  0  0  0  0  0  0  0  0  0  0
    1.2730   -1.3890    8.9040 N   0  0  0  0  0  0  0  0  0  0  0  0
    1.9870   -0.3980    8.2980 C   0  0  0  0  0  0  0  0  0  0  0  0
    3.3010   -0.5040    8.0280 N   0  0  0  0  0  0  0  0  0  0  0  0
    4.1600   -1.6000    7.8470 C   0  0  0  0  0  0  0  0  0  0  0  0
    5.1710   -1.5150    6.8810 C   0  0  0  0  0  0  0  0  0  0  0  0
    6.0570   -2.5770    6.6450 C   0  0  0  0  0  0  0  0  0  0  0  0
    5.9660   -3.7780    7.3570 C   0  0  0  0  0  0  0  0  0  0  0  0
    6.8290   -4.8680    7.1530 N   0  0  0  0  0  0  0  0  0  0  0  0
    6.1160   -6.1430    6.8910 C   0  0  0  0  0  0  0  0  0  0  0  0
    7.0680   -7.2460    6.3720 C   0  0  0  0  0  0  0  0  0  0  0  0
    8.4550   -7.1240    6.9830 N   0  0  0  0  0  0  0  0  0  0  0  0
    8.4530   -7.3760    8.4680 C   0  0  0  0  0  0  0  0  0  0  0  0
    9.0950   -5.7790    6.6350 C   0  0  0  0  0  0  0  0  0  0  0  0
    8.0590   -4.6580    6.3730 C   0  0  0  0  0  0  0  0  0  0  0  0
    4.9600   -3.8510    8.3320 C   0  0  0  0  0  0  0  0  0  0  0  0
    4.0750   -2.7890    8.5690 C   0  0  0  0  0  0  0  0  0  0  0  0
    1.2830    0.6890    7.9850 N   0  0  0  0  0  0  0  0  0  0  0  0
    0.0280    0.3830    8.4060 N   0  0  0  0  0  0  0  0  0  0  0  0
   -0.8300    2.7040    6.4030 C   0  0  0  0  0  0  0  0  0  0  0  0
   -0.8370    3.9890    5.8450 C   0  0  0  0  0  0  0  0  0  0  0  0
   -1.0174    7.6864    4.6099 H   0  0  0  0  0  0  0  0  0  0  0  0
   -0.3909    6.0220    4.3569 H   0  0  0  0  0  0  0  0  0  0  0  0
   -2.1615    6.3249    4.3569 H   0  0  0  0  0  0  0  0  0  0  0  0
   -1.8232    5.7570    8.5825 H   0  0  0  0  0  0  0  0  0  0  0  0
   -1.8105    3.4759    9.5766 H   0  0  0  0  0  0  0  0  0  0  0  0
   -3.2312    1.1993    8.7973 H   0  0  0  0  0  0  0  0  0  0  0  0
   -3.2145   -1.1264    9.8242 H   0  0  0  0  0  0  0  0  0  0  0  0
   -1.1637   -2.4370    9.9343 H   0  0  0  0  0  0  0  0  0  0  0  0
    3.7570    0.3930    7.9300 H   0  0  0  0  0  0  0  0  0  0  0  0
    5.2729   -0.5915    6.2921 H   0  0  0  0  0  0  0  0  0  0  0  0
    6.8415   -2.4627    5.8824 H   0  0  0  0  0  0  0  0  0  0  0  0
    5.6503   -6.4876    7.8261 H   0  0  0  0  0  0  0  0  0  0  0  0
    5.3601   -5.9550    6.1143 H   0  0  0  0  0  0  0  0  0  0  0  0
    6.6493   -8.2295    6.6315 H   0  0  0  0  0  0  0  0  0  0  0  0
    7.1621   -7.1331    5.2819 H   0  0  0  0  0  0  0  0  0  0  0  0
    9.0390   -7.8570    6.5660 H   0  0  0  0  0  0  0  0  0  0  0  0
    8.4606   -6.4149    9.0030 H   0  0  0  0  0  0  0  0  0  0  0  0
    7.5503   -7.9414    8.7427 H   0  0  0  0  0  0  0  0  0  0  0  0
    9.3466   -7.9557    8.7427 H   0  0  0  0  0  0  0  0  0  0  0  0
    9.7384   -5.4712    7.4725 H   0  0  0  0  0  0  0  0  0  0  0  0
    9.6651   -5.9200    5.7049 H   0  0  0  0  0  0  0  0  0  0  0  0
    8.5002   -3.6905    6.6547 H   0  0  0  0  0  0  0  0  0  0  0  0
    7.7972   -4.6725    5.3047 H   0  0  0  0  0  0  0  0  0  0  0  0
    4.8622   -4.7696    8.9292 H   0  0  0  0  0  0  0  0  0  0  0  0
    3.2982   -2.8968    9.3403 H   0  0  0  0  0  0  0  0  0  0  0  0
   -0.5502    1.8423    5.7791 H   0  0  0  0  0  0  0  0  0  0  0  0
   -0.5622    4.1296    4.7892 H   0  0  0  0  0  0  0  0  0  0  0  0
  1  2  1  0
  2  3  1  0
  3  4  2  0
  4  5  1  0
  5  6  2  0
  6  7  1  0
  7  8  2  0
  8  9  1  0
  9 10  2  0
 10 11  1  0
 11 12  2  0
 12 13  1  0
 13 14  1  0
 14 15  1  0
 15 16  2  0
 16 17  1  0
 17 18  2  0
 18 19  1  0
 19 20  1  0
 20 21  1  0
 21 22  1  0
 22 23  1  0
 22 24  1  0
 24 25  1  0
 18 26  1  0
 26 27  2  0
 13 28  2  0
 28 29  1  0
  6 30  1  0
 30 31  2  0
 31  3  1  0
 29  7  1  0
 29 11  1  0
 27 15  1  0
 25 19  1  0
  1 32  1  0
  1 33  1  0
  1 34  1  0
  4 35  1  0
  5 36  1  0
  8 37  1  0
  9 38  1  0
 10 39  1  0
 14 40  1  0
 16 41  1  0
 17 42  1  0
 20 43  1  0
 20 44  1  0
 21 45  1  0
 21 46  1  0
 22 47  1  0
 23 48  1  0
 23 49  1  0
 23 50  1  0
 24 51  1  0
 24 52  1  0
 25 53  1  0
 25 54  1  0
 26 55  1  0
 27 56  1  0
 30 57  1  0
 31 58  1  0
M  CHG  1  22   1
M  END
>  <meeko>  (8) 
{"is_sidechain": [false], "free_energy": -8.166, "intermolecular_energy": -10.971, "internal_energy": -0.418}

$$$$
4jia_ligand
     RDKit          3D

 58 62  0  0  0  0  0  0  0  0999 V2000
    7.2110   -6.1100    6.3120 C   0  0  0  0  0  0  0  0  0  0  0  0
    8.2880   -5.4450    6.9580 O   0  0  0  0  0  0  0  0  0  0  0  0
    8.2580   -4.0780    6.9640 C   0  0  0  0  0  0  0  0  0  0  0  0
    7.9740   -3.4960    5.7260 C   0  0  0  0  0  0  0  0  0  0  0  0
    7.9130   -2.1060    5.5890 C   0  0  0  0  0  0  0  0  0  0  0  0
    8.1380   -1.2740    6.6920 C   0  0  0  0  0  0  0  0  0  0  0  0
    8.0850    0.1930    6.5510 C   0  0  0  0  0  0  0  0  0  0  0  0
    8.8680    0.8050    5.6340 C   0  0  0  0  0  0  0  0  0  0  0  0
    8.8280    2.2510    5.4970 C   0  0  0  0  0  0  0  0  0  0  0  0
    8.0280    3.0070    6.2700 C   0  0  0  0  0  0  0  0  0  0  0  0
    7.2010    2.3860    7.2430 C   0  0  0  0  0  0  0  0  0  0  0  0
    6.3450    2.8820    8.1050 N   0  0  0  0  0  0  0  0  0  0  0  0
    5.8710    1.7800    8.7530 C   0  0  0  0  0  0  0  0  0  0  0  0
    4.9460    1.8480    9.7280 N   0  0  0  0  0  0  0  0  0  0  0  0
    3.6680    1.2870    9.8830 C   0  0  0  0  0  0  0  0  0  0  0  0
    3.2300    0.3350    8.9520 C   0  0  0  0  0  0  0  0  0  0  0  0
    1.9610   -0.2570    9.0440 C   0  0  0  0  0  0  0  0  0  0  0  0
    1.0670    0.0840   10.0660 C   0  0  0  0  0  0  0  0  0  0  0  0
   -0.2130   -0.4810   10.1960 N   0  0  0  0  0  0  0  0  0  0  0  0
   -1.1770    0.4010   10.9000 C   0  0  0  0  0  0  0  0  0  0  0  0
   -2.6330   -0.1010   10.7610 C   0  0  0  0  0  0  0  0  0  0  0  0
   -2.7020   -1.6200   10.7150 N   0  0  0  0  0  0  0  0  0  0  0  0
   -2.2670   -2.2540   12.0110 C   0  0  0  0  0  0  0  0  0  0  0  0
   -1.9220   -2.1710    9.5210 C   0  0  0  0  0  0  0  0  0  0  0  0
   -0.7640   -1.2480    9.0670 C   0  0  0  0  0  0  0  0  0  0  0  0
    1.5170    1.0280   11.0010 C   0  0  0  0  0  0  0  0  0  0  0  0
    2.7870    1.6190   10.9090 C   0  0  0  0  0  0  0  0  0  0  0  0
    6.3910    0.6230    8.3460 N   0  0  0  0  0  0  0  0  0  0  0  0
    7.2510    0.9940    7.3620 N   0  0  0  0  0  0  0  0  0  0  0  0
    8.4180   -1.8620    7.9320 C   0  0  0  0  0  0  0  0  0  0  0  0
    8.4790   -3.2550    8.0670 C   0  0  0  0  0  0  0  0  0  0  0  0
    6.5320   -6.5293    7.0691 H   0  0  0  0  0  0  0  0  0  0  0  0
    6.6618   -5.3935    5.6834 H   0  0  0  0  0  0  0  0  0  0  0  0
    7.6055   -6.9219    5.6834 H   0  0  0  0  0  0  0  0  0  0  0  0
    7.7966   -4.1378    4.8504 H   0  0  0  0  0  0  0  0  0  0  0  0
    7.6867   -1.6632    4.6078 H   0  0  0  0  0  0  0  0  0  0  0  0
    9.5342    0.2091    4.9928 H   0  0  0  0  0  0  0  0  0  0  0  0
    9.4659    2.7380    4.7447 H   0  0  0  0  0  0  0  0  0  0  0  0
    8.0145    4.1003    6.1491 H   0  0  0  0  0  0  0  0  0  0  0  0
    5.2390    2.4180   10.5110 H   0  0  0  0  0  0  0  0  0  0  0  0
    3.8983    0.0445    8.1280 H   0  0  0  0  0  0  0  0  0  0  0  0
    1.6619   -1.0061    8.2960 H   0  0  0  0  0  0  0  0  0  0  0  0
   -0.9135    0.4339   11.9675 H   0  0  0  0  0  0  0  0  0  0  0  0
   -1.1180    1.4001   10.4435 H   0  0  0  0  0  0  0  0  0  0  0  0
   -3.2171    0.2566   11.6218 H   0  0  0  0  0  0  0  0  0  0  0  0
   -3.0420    0.2898    9.8176 H   0  0  0  0  0  0  0  0  0  0  0  0
   -3.6860   -1.8780   10.5830 H   0  0  0  0  0  0  0  0  0  0  0  0
   -2.6658   -1.6728   12.8555 H   0  0  0  0  0  0  0  0  0  0  0  0
   -2.6494   -3.2841   12.0618 H   0  0  0  0  0  0  0  0  0  0  0  0
   -1.1683   -2.2679   12.0618 H   0  0  0  0  0  0  0  0  0  0  0  0
   -1.5008   -3.1481    9.8000 H   0  0  0  0  0  0  0  0  0  0  0  0
   -2.6262   -2.2482    8.6794 H   0  0  0  0  0  0  0  0  0  0  0  0
    0.0349   -1.8650    8.6300 H   0  0  0  0  0  0  0  0  0  0  0  0
   -1.1586   -0.5372    8.3260 H   0  0  0  0  0  0  0  0  0  0  0  0
    0.8546    1.3138   11.8314 H   0  0  0  0  0  0  0  0  0  0  0  0
    3.0925    2.3595   11.6628 H   0  0  0  0  0  0  0  0  0  0  0  0
    8.5920   -1.2226    8.8100 H   0  0  0  0  0  0  0  0  0  0  0  0
    8.7022   -3.7011    9.0474 H   0  0  0  0  0  0  0  0  0  0  0  0
  1  2  1  0
  2  3  1  0
  3  4  2  0
  4  5  1  0
  5  6  2  0
  6  7  1  0
  7  8  2  0
  8  9  1  0
  9 10  2  0
 10 11  1  0
 11 12  2  0
 12 13  1  0
 13 14  1  0
 14 15  1  0
 15 16  2  0
 16 17  1  0
 17 18  2  0
 18 19  1  0
 19 20  1  0
 20 21  1  0
 21 22  1  0
 22 23  1  0
 22 24  1  0
 24 25  1  0
 18 26  1  0
 26 27  2  0
 13 28  2  0
 28 29  1  0
  6 30  1  0
 30 31  2  0
 31  3  1  0
 29  7  1  0
 29 11  1  0
 27 15  1  0
 25 19  1  0
  1 32  1  0
  1 33  1  0
  1 34  1  0
  4 35  1  0
  5 36  1  0
  8 37  1  0
  9 38  1  0
 10 39  1  0
 14 40  1  0
 16 41  1  0
 17 42  1  0
 20 43  1  0
 20 44  1  0
 21 45  1  0
 21 46  1  0
 22 47  1  0
 23 48  1  0
 23 49  1  0
 23 50  1  0
 24 51  1  0
 24 52  1  0
 25 53  1  0
 25 54  1  0
 26 55  1  0
 27 56  1  0
 30 57  1  0
 31 58  1  0
M  CHG  1  22   1
M  END
>  <meeko>  (9) 
{"is_sidechain": [false], "free_energy": -8.144, "intermolecular_energy": -10.835, "internal_energy": -0.525}

$$$$
