3fur_ligand
     RDKit          3D

 43 46  0  0  0  0  0  0  0  0999 V2000
   -0.4050    9.0070   13.2440 O   0  0  0  0  0  0  0  0  0  0  0  0
    0.8690    9.6340   12.9760 S   0  0  0  0  0  0  0  0  0  0  0  0
    2.0910    9.2230   13.6320 O   0  0  0  0  0  0  0  0  0  0  0  0
    1.1850    9.4640   11.3260 N   0  0  0  0  0  0  0  0  0  0  0  0
    0.5690    8.4660   10.5090 C   0  0  0  0  0  0  0  0  0  0  0  0
    0.0940    8.8740    9.2600 C   0  0  0  0  0  0  0  0  0  0  0  0
   -0.5920    7.9800    8.4310 C   0  0  0  0  0  0  0  0  0  0  0  0
   -1.1720    8.5630    6.9140 Cl  0  0  0  0  0  0  0  0  0  0  0  0
   -0.8160    6.6650    8.8480 C   0  0  0  0  0  0  0  0  0  0  0  0
   -1.5260    5.7850    8.0660 O   0  0  0  0  0  0  0  0  0  0  0  0
   -0.8170    4.9760    7.2110 C   0  0  0  0  0  0  0  0  0  0  0  0
   -0.0140    5.3930    6.1600 C   0  0  0  0  0  0  0  0  0  0  0  0
    0.6710    4.5530    5.3460 N   0  0  0  0  0  0  0  0  0  0  0  0
    0.5790    3.2320    5.5810 C   0  0  0  0  0  0  0  0  0  0  0  0
    1.2680    2.3420    4.7690 C   0  0  0  0  0  0  0  0  0  0  0  0
    1.2070    0.9610    4.9740 C   0  0  0  0  0  0  0  0  0  0  0  0
    0.4410    0.4480    6.0140 C   0  0  0  0  0  0  0  0  0  0  0  0
   -0.2620    1.3190    6.8450 C   0  0  0  0  0  0  0  0  0  0  0  0
   -0.2000    2.7070    6.6360 C   0  0  0  0  0  0  0  0  0  0  0  0
   -0.8950    3.6080    7.4530 C   0  0  0  0  0  0  0  0  0  0  0  0
   -0.3980    6.2750   10.1230 C   0  0  0  0  0  0  0  0  0  0  0  0
   -0.7170    4.6880   10.7250 Cl  0  0  0  0  0  0  0  0  0  0  0  0
    0.2890    7.1710   10.9510 C   0  0  0  0  0  0  0  0  0  0  0  0
    0.7240   11.3810   13.2410 C   0  0  0  0  0  0  0  0  0  0  0  0
    1.5410   12.0190   14.1900 C   0  0  0  0  0  0  0  0  0  0  0  0
    1.4420   13.3970   14.3840 C   0  0  0  0  0  0  0  0  0  0  0  0
    0.5250   14.1370   13.6420 C   0  0  0  0  0  0  0  0  0  0  0  0
    0.4040   15.8350   13.8830 Cl  0  0  0  0  0  0  0  0  0  0  0  0
   -0.3000   13.5090   12.7120 C   0  0  0  0  0  0  0  0  0  0  0  0
   -0.2080   12.1260   12.5100 C   0  0  0  0  0  0  0  0  0  0  0  0
   -1.3090   11.4360   11.3740 Cl  0  0  0  0  0  0  0  0  0  0  0  0
    2.1500    9.7310   11.1220 H   0  0  0  0  0  0  0  0  0  0  0  0
    0.2611    9.9084    8.9252 H   0  0  0  0  0  0  0  0  0  0  0  0
    0.0725    6.4739    5.9752 H   0  0  0  0  0  0  0  0  0  0  0  0
    1.8783    2.7341    3.9421 H   0  0  0  0  0  0  0  0  0  0  0  0
    1.7645    0.2809    4.3131 H   0  0  0  0  0  0  0  0  0  0  0  0
    0.3898   -0.6381    6.1803 H   0  0  0  0  0  0  0  0  0  0  0  0
   -0.8691    0.9171    7.6695 H   0  0  0  0  0  0  0  0  0  0  0  0
   -1.5043    3.2329    8.2885 H   0  0  0  0  0  0  0  0  0  0  0  0
    0.6097    6.8536   11.9542 H   0  0  0  0  0  0  0  0  0  0  0  0
    2.2593   11.4312   14.7804 H   0  0  0  0  0  0  0  0  0  0  0  0
    2.0867   13.8977   15.1213 H   0  0  0  0  0  0  0  0  0  0  0  0
   -1.0257   14.1007   12.1347 H   0  0  0  0  0  0  0  0  0  0  0  0
  1  2  2  0
  2  3  2  0
  2  4  1  0
  4  5  1  0
  5  6  2  0
  6  7  1  0
  7  8  1  0
  7  9  2  0
  9 10  1  0
 10 11  1  0
 11 12  2  0
 12 13  1  0
 13 14  2  0
 14 15  1  0
 15 16  2  0
 16 17  1  0
 17 18  2  0
 18 19  1  0
 19 20  2  0
  9 21  1  0
 21 22  1  0
 21 23  2  0
  2 24  1  0
 24 25  2  0
 25 26  1  0
 26 27  2  0
 27 28  1  0
 27 29  1  0
 29 30  2  0
 30 31  1  0
 23  5  1  0
 30 24  1  0
 20 11  1  0
 19 14  1  0
  4 32  1  0
  6 33  1  0
 12 34  1  0
 15 35  1  0
 16 36  1  0
 17 37  1  0
 18 38  1  0
 20 39  1  0
 23 40  1  0
 25 41  1  0
 26 42  1  0
 29 43  1  0
M  END
>  <meeko>  (1) 
{"is_sidechain": [false], "free_energy": -9.412, "intermolecular_energy": -12.163, "internal_energy": -0.376}

$$$$
3fur_ligand
     RDKit          3D

 43 46  0  0  0  0  0  0  0  0999 V2000
    2.8830    8.4990    4.0990 O   0  0  0  0  0  0  0  0  0  0  0  0
    2.1260    8.9570    2.9570 S   0  0  0  0  0  0  0  0  0  0  0  0
    2.4960    8.6330    1.5970 O   0  0  0  0  0  0  0  0  0  0  0  0
    0.5480    8.3790    3.1250 N   0  0  0  0  0  0  0  0  0  0  0  0
   -0.0290    8.0310    4.3860 C   0  0  0  0  0  0  0  0  0  0  0  0
    0.2200    6.7410    4.8620 C   0  0  0  0  0  0  0  0  0  0  0  0
   -0.3710    6.2930    6.0490 C   0  0  0  0  0  0  0  0  0  0  0  0
   -0.0370    4.6790    6.5610 Cl  0  0  0  0  0  0  0  0  0  0  0  0
   -1.2250    7.1320    6.7700 C   0  0  0  0  0  0  0  0  0  0  0  0
   -1.8490    6.6940    7.9140 O   0  0  0  0  0  0  0  0  0  0  0  0
   -1.1190    6.6940    9.0790 C   0  0  0  0  0  0  0  0  0  0  0  0
   -0.8490    5.5940    9.8790 C   0  0  0  0  0  0  0  0  0  0  0  0
   -0.1170    5.6440   11.0190 N   0  0  0  0  0  0  0  0  0  0  0  0
    0.3920    6.8320   11.3890 C   0  0  0  0  0  0  0  0  0  0  0  0
    1.1490    6.9210   12.5500 C   0  0  0  0  0  0  0  0  0  0  0  0
    1.7020    8.1320   12.9770 C   0  0  0  0  0  0  0  0  0  0  0  0
    1.5000    9.2870   12.2300 C   0  0  0  0  0  0  0  0  0  0  0  0
    0.7440    9.2270   11.0600 C   0  0  0  0  0  0  0  0  0  0  0  0
    0.1880    8.0080   10.6350 C   0  0  0  0  0  0  0  0  0  0  0  0
   -0.5760    7.9160    9.4640 C   0  0  0  0  0  0  0  0  0  0  0  0
   -1.5240    8.3990    6.2600 C   0  0  0  0  0  0  0  0  0  0  0  0
   -2.6340    9.4490    7.0640 Cl  0  0  0  0  0  0  0  0  0  0  0  0
   -0.9310    8.8450    5.0730 C   0  0  0  0  0  0  0  0  0  0  0  0
    1.9800   10.7230    3.0270 C   0  0  0  0  0  0  0  0  0  0  0  0
    0.7170   11.3180    3.1820 C   0  0  0  0  0  0  0  0  0  0  0  0
    0.6030   12.7080    3.2580 C   0  0  0  0  0  0  0  0  0  0  0  0
    1.7440   13.5010    3.1710 C   0  0  0  0  0  0  0  0  0  0  0  0
    1.6020   15.2120    3.2640 Cl  0  0  0  0  0  0  0  0  0  0  0  0
    2.9980   12.9180    3.0010 C   0  0  0  0  0  0  0  0  0  0  0  0
    3.1210   11.5250    2.9230 C   0  0  0  0  0  0  0  0  0  0  0  0
    4.7100   10.9050    2.6600 Cl  0  0  0  0  0  0  0  0  0  0  0  0
    0.2820    7.8340    2.3030 H   0  0  0  0  0  0  0  0  0  0  0  0
    0.8866    6.0715    4.2986 H   0  0  0  0  0  0  0  0  0  0  0  0
   -1.2543    4.6195    9.5691 H   0  0  0  0  0  0  0  0  0  0  0  0
    1.3180    6.0144   13.1496 H   0  0  0  0  0  0  0  0  0  0  0  0
    2.2958    8.1709   13.9022 H   0  0  0  0  0  0  0  0  0  0  0  0
    1.9340   10.2424   12.5600 H   0  0  0  0  0  0  0  0  0  0  0  0
    0.5818   10.1387   10.4663 H   0  0  0  0  0  0  0  0  0  0  0  0
   -0.7468    8.8112    8.8481 H   0  0  0  0  0  0  0  0  0  0  0  0
   -1.1772    9.8423    4.6796 H   0  0  0  0  0  0  0  0  0  0  0  0
   -0.1831   10.6887    3.2436 H   0  0  0  0  0  0  0  0  0  0  0  0
   -0.3849   13.1745    3.3862 H   0  0  0  0  0  0  0  0  0  0  0  0
    3.8932   13.5530    2.9279 H   0  0  0  0  0  0  0  0  0  0  0  0
  1  2  2  0
  2  3  2  0
  2  4  1  0
  4  5  1  0
  5  6  2  0
  6  7  1  0
  7  8  1  0
  7  9  2  0
  9 10  1  0
 10 11  1  0
 11 12  2  0
 12 13  1  0
 13 14  2  0
 14 15  1  0
 15 16  2  0
 16 17  1  0
 17 18  2  0
 18 19  1  0
 19 20  2  0
  9 21  1  0
 21 22  1  0
 21 23  2  0
  2 24  1  0
 24 25  2  0
 25 26  1  0
 26 27  2  0
 27 28  1  0
 27 29  1  0
 29 30  2  0
 30 31  1  0
 23  5  1  0
 30 24  1  0
 20 11  1  0
 19 14  1  0
  4 32  1  0
  6 33  1  0
 12 34  1  0
 15 35  1  0
 16 36  1  0
 17 37  1  0
 18 38  1  0
 20 39  1  0
 23 40  1  0
 25 41  1  0
 26 42  1  0
 29 43  1  0
M  END
>  <meeko>  (2) 
{"is_sidechain": [false], "free_energy": -9.305, "intermolecular_energy": -11.602, "internal_energy": -0.799}

$$$$
3fur_ligand
     RDKit          3D

 43 46  0  0  0  0  0  0  0  0999 V2000
    0.6760   10.0990    1.1890 O   0  0  0  0  0  0  0  0  0  0  0  0
    1.2030    9.9770    2.5280 S   0  0  0  0  0  0  0  0  0  0  0  0
    0.6970   10.7550    3.6370 O   0  0  0  0  0  0  0  0  0  0  0  0
    1.0140    8.3680    3.0070 N   0  0  0  0  0  0  0  0  0  0  0  0
    0.3410    7.9830    4.2070 C   0  0  0  0  0  0  0  0  0  0  0  0
    0.6030    6.7000    4.6970 C   0  0  0  0  0  0  0  0  0  0  0  0
   -0.0730    6.2140    5.8210 C   0  0  0  0  0  0  0  0  0  0  0  0
    0.2850    4.6110    6.3520 Cl  0  0  0  0  0  0  0  0  0  0  0  0
   -1.0270    7.0070    6.4650 C   0  0  0  0  0  0  0  0  0  0  0  0
   -1.7320    6.5300    7.5440 O   0  0  0  0  0  0  0  0  0  0  0  0
   -1.1030    6.5260    8.7670 C   0  0  0  0  0  0  0  0  0  0  0  0
   -0.9640    5.4380    9.6160 C   0  0  0  0  0  0  0  0  0  0  0  0
   -0.3280    5.4850   10.8120 N   0  0  0  0  0  0  0  0  0  0  0  0
    0.2140    6.6540   11.1930 C   0  0  0  0  0  0  0  0  0  0  0  0
    0.8750    6.7380   12.4120 C   0  0  0  0  0  0  0  0  0  0  0  0
    1.4580    7.9300   12.8520 C   0  0  0  0  0  0  0  0  0  0  0  0
    1.3850    9.0700   12.0600 C   0  0  0  0  0  0  0  0  0  0  0  0
    0.7280    9.0150   10.8320 C   0  0  0  0  0  0  0  0  0  0  0  0
    0.1410    7.8150   10.3930 C   0  0  0  0  0  0  0  0  0  0  0  0
   -0.5260    7.7280    9.1650 C   0  0  0  0  0  0  0  0  0  0  0  0
   -1.3350    8.2640    5.9380 C   0  0  0  0  0  0  0  0  0  0  0  0
   -2.5610    9.2550    6.6430 Cl  0  0  0  0  0  0  0  0  0  0  0  0
   -0.6570    8.7480    4.8130 C   0  0  0  0  0  0  0  0  0  0  0  0
    2.9560   10.2450    2.4890 C   0  0  0  0  0  0  0  0  0  0  0  0
    3.8300    9.1530    2.3500 C   0  0  0  0  0  0  0  0  0  0  0  0
    5.2090    9.3640    2.2990 C   0  0  0  0  0  0  0  0  0  0  0  0
    5.7160   10.6580    2.3960 C   0  0  0  0  0  0  0  0  0  0  0  0
    7.4140   10.9160    2.3320 Cl  0  0  0  0  0  0  0  0  0  0  0  0
    4.8550   11.7430    2.5510 C   0  0  0  0  0  0  0  0  0  0  0  0
    3.4700   11.5400    2.6030 C   0  0  0  0  0  0  0  0  0  0  0  0
    2.4940   12.9420    2.8500 Cl  0  0  0  0  0  0  0  0  0  0  0  0
    1.8130    7.8120    2.6980 H   0  0  0  0  0  0  0  0  0  0  0  0
    1.3481    6.0665    4.1936 H   0  0  0  0  0  0  0  0  0  0  0  0
   -1.3967    4.4776    9.2991 H   0  0  0  0  0  0  0  0  0  0  0  0
    0.9414    5.8429   13.0479 H   0  0  0  0  0  0  0  0  0  0  0  0
    1.9735    7.9657   13.8231 H   0  0  0  0  0  0  0  0  0  0  0  0
    1.8432   10.0103   12.4005 H   0  0  0  0  0  0  0  0  0  0  0  0
    0.6684    9.9153   10.2028 H   0  0  0  0  0  0  0  0  0  0  0  0
   -0.5940    8.6117    8.5135 H   0  0  0  0  0  0  0  0  0  0  0  0
   -0.9121    9.7368    4.4042 H   0  0  0  0  0  0  0  0  0  0  0  0
    3.4272    8.1317    2.2814 H   0  0  0  0  0  0  0  0  0  0  0  0
    5.8935    8.5108    2.1825 H   0  0  0  0  0  0  0  0  0  0  0  0
    5.2640   12.7609    2.6327 H   0  0  0  0  0  0  0  0  0  0  0  0
  1  2  2  0
  2  3  2  0
  2  4  1  0
  4  5  1  0
  5  6  2  0
  6  7  1  0
  7  8  1  0
  7  9  2  0
  9 10  1  0
 10 11  1  0
 11 12  2  0
 12 13  1  0
 13 14  2  0
 14 15  1  0
 15 16  2  0
 16 17  1  0
 17 18  2  0
 18 19  1  0
 19 20  2  0
  9 21  1  0
 21 22  1  0
 21 23  2  0
  2 24  1  0
 24 25  2  0
 25 26  1  0
 26 27  2  0
 27 28  1  0
 27 29  1  0
 29 30  2  0
 30 31  1  0
 23  5  1  0
 30 24  1  0
 20 11  1  0
 19 14  1  0
  4 32  1  0
  6 33  1  0
 12 34  1  0
 15 35  1  0
 16 36  1  0
 17 37  1  0
 18 38  1  0
 20 39  1  0
 23 40  1  0
 25 41  1  0
 26 42  1  0
 29 43  1  0
M  END
>  <meeko>  (3) 
{"is_sidechain": [false], "free_energy": -9.106, "intermolecular_energy": -12.24, "internal_energy": 0.096}

$$$$
3fur_ligand
     RDKit          3D

 43 46  0  0  0  0  0  0  0  0999 V2000
   -0.6810    9.4940   13.3340 O   0  0  0  0  0  0  0  0  0  0  0  0
    0.7490    9.3420   13.1940 S   0  0  0  0  0  0  0  0  0  0  0  0
    1.4800    8.2580   13.8130 O   0  0  0  0  0  0  0  0  0  0  0  0
    1.0890    9.2060   11.5450 N   0  0  0  0  0  0  0  0  0  0  0  0
    0.3080    8.4160   10.6470 C   0  0  0  0  0  0  0  0  0  0  0  0
    0.1010    7.0780   10.9950 C   0  0  0  0  0  0  0  0  0  0  0  0
   -0.5860    6.2160   10.1330 C   0  0  0  0  0  0  0  0  0  0  0  0
   -0.7800    4.5710   10.6190 Cl  0  0  0  0  0  0  0  0  0  0  0  0
   -1.0680    6.6820    8.9070 C   0  0  0  0  0  0  0  0  0  0  0  0
   -1.7060    5.8390    8.0300 O   0  0  0  0  0  0  0  0  0  0  0  0
   -0.9240    5.0730    7.1980 C   0  0  0  0  0  0  0  0  0  0  0  0
   -0.0300    5.5420    6.2480 C   0  0  0  0  0  0  0  0  0  0  0  0
    0.7250    4.7440    5.4540 N   0  0  0  0  0  0  0  0  0  0  0  0
    0.6100    3.4130    5.6070 C   0  0  0  0  0  0  0  0  0  0  0  0
    1.3690    2.5640    4.8130 C   0  0  0  0  0  0  0  0  0  0  0  0
    1.2890    1.1740    4.9350 C   0  0  0  0  0  0  0  0  0  0  0  0
    0.4320    0.6100    5.8730 C   0  0  0  0  0  0  0  0  0  0  0  0
   -0.3420    1.4380    6.6840 C   0  0  0  0  0  0  0  0  0  0  0  0
   -0.2600    2.8350    6.5580 C   0  0  0  0  0  0  0  0  0  0  0  0
   -1.0250    3.6940    7.3580 C   0  0  0  0  0  0  0  0  0  0  0  0
   -0.8060    8.0030    8.5310 C   0  0  0  0  0  0  0  0  0  0  0  0
   -1.3060    8.6130    6.9960 Cl  0  0  0  0  0  0  0  0  0  0  0  0
   -0.1190    8.8640    9.3950 C   0  0  0  0  0  0  0  0  0  0  0  0
    1.5460   10.8400   13.7080 C   0  0  0  0  0  0  0  0  0  0  0  0
    2.5970   10.7930   14.6390 C   0  0  0  0  0  0  0  0  0  0  0  0
    3.2400   11.9700   15.0290 C   0  0  0  0  0  0  0  0  0  0  0  0
    2.8280   13.1900   14.4990 C   0  0  0  0  0  0  0  0  0  0  0  0
    3.6200   14.6390   14.9800 Cl  0  0  0  0  0  0  0  0  0  0  0  0
    1.7760   13.2460   13.5890 C   0  0  0  0  0  0  0  0  0  0  0  0
    1.1260   12.0700   13.1920 C   0  0  0  0  0  0  0  0  0  0  0  0
   -0.1990   12.2510   12.1010 Cl  0  0  0  0  0  0  0  0  0  0  0  0
    2.0960    9.2690   11.3860 H   0  0  0  0  0  0  0  0  0  0  0  0
    0.4816    6.6994   11.9551 H   0  0  0  0  0  0  0  0  0  0  0  0
    0.0732    6.6309    6.1311 H   0  0  0  0  0  0  0  0  0  0  0  0
    2.0520    2.9971    4.0675 H   0  0  0  0  0  0  0  0  0  0  0  0
    1.9028    0.5278    4.2903 H   0  0  0  0  0  0  0  0  0  0  0  0
    0.3651   -0.4833    5.9745 H   0  0  0  0  0  0  0  0  0  0  0  0
   -1.0212    0.9951    7.4273 H   0  0  0  0  0  0  0  0  0  0  0  0
   -1.7069    3.2777    8.1141 H   0  0  0  0  0  0  0  0  0  0  0  0
    0.0857    9.8996    9.0859 H   0  0  0  0  0  0  0  0  0  0  0  0
    2.9139    9.8280   15.0614 H   0  0  0  0  0  0  0  0  0  0  0  0
    4.0684   11.9334   15.7518 H   0  0  0  0  0  0  0  0  0  0  0  0
    1.4544   14.2155   13.1808 H   0  0  0  0  0  0  0  0  0  0  0  0
  1  2  2  0
  2  3  2  0
  2  4  1  0
  4  5  1  0
  5  6  2  0
  6  7  1  0
  7  8  1  0
  7  9  2  0
  9 10  1  0
 10 11  1  0
 11 12  2  0
 12 13  1  0
 13 14  2  0
 14 15  1  0
 15 16  2  0
 16 17  1  0
 17 18  2  0
 18 19  1  0
 19 20  2  0
  9 21  1  0
 21 22  1  0
 21 23  2  0
  2 24  1  0
 24 25  2  0
 25 26  1  0
 26 27  2  0
 27 28  1  0
 27 29  1  0
 29 30  2  0
 30 31  1  0
 23  5  1  0
 30 24  1  0
 20 11  1  0
 19 14  1  0
  4 32  1  0
  6 33  1  0
 12 34  1  0
 15 35  1  0
 16 36  1  0
 17 37  1  0
 18 38  1  0
 20 39  1  0
 23 40  1  0
 25 41  1  0
 26 42  1  0
 29 43  1  0
M  END
>  <meeko>  (4) 
{"is_sidechain": [false], "free_energy": -8.935, "intermolecular_energy": -11.495, "internal_energy": -0.427}

$$$$
3fur_ligand
     RDKit          3D

 43 46  0  0  0  0  0  0  0  0999 V2000
    2.9530    8.3050    3.8690 O   0  0  0  0  0  0  0  0  0  0  0  0
    2.1990    8.8070    2.7440 S   0  0  0  0  0  0  0  0  0  0  0  0
    2.5650    8.5270    1.3730 O   0  0  0  0  0  0  0  0  0  0  0  0
    0.6160    8.2360    2.8940 N   0  0  0  0  0  0  0  0  0  0  0  0
    0.0290    7.8750    4.1450 C   0  0  0  0  0  0  0  0  0  0  0  0
   -0.7780    8.8320    4.7660 C   0  0  0  0  0  0  0  0  0  0  0  0
   -1.3280    8.5900    6.0300 C   0  0  0  0  0  0  0  0  0  0  0  0
   -2.2940    9.8290    6.7440 Cl  0  0  0  0  0  0  0  0  0  0  0  0
   -1.0680    7.3860    6.6910 C   0  0  0  0  0  0  0  0  0  0  0  0
   -1.5630    7.1500    7.9520 O   0  0  0  0  0  0  0  0  0  0  0  0
   -0.7980    7.5470    9.0220 C   0  0  0  0  0  0  0  0  0  0  0  0
   -0.3900    8.8420    9.3060 C   0  0  0  0  0  0  0  0  0  0  0  0
    0.3620    9.1830   10.3810 N   0  0  0  0  0  0  0  0  0  0  0  0
    0.7220    8.2090   11.2340 C   0  0  0  0  0  0  0  0  0  0  0  0
    1.4900    8.5220   12.3480 C   0  0  0  0  0  0  0  0  0  0  0  0
    1.8890    7.5470   13.2650 C   0  0  0  0  0  0  0  0  0  0  0  0
    1.5130    6.2220   13.0740 C   0  0  0  0  0  0  0  0  0  0  0  0
    0.7420    5.8780   11.9650 C   0  0  0  0  0  0  0  0  0  0  0  0
    0.3440    6.8620   11.0430 C   0  0  0  0  0  0  0  0  0  0  0  0
   -0.4300    6.5480    9.9190 C   0  0  0  0  0  0  0  0  0  0  0  0
   -0.2090    6.4570    6.0990 C   0  0  0  0  0  0  0  0  0  0  0  0
    0.2130    4.9880    6.9030 Cl  0  0  0  0  0  0  0  0  0  0  0  0
    0.3400    6.7010    4.8340 C   0  0  0  0  0  0  0  0  0  0  0  0
    2.0670   10.5710    2.8740 C   0  0  0  0  0  0  0  0  0  0  0  0
    0.8020   11.1760    2.9630 C   0  0  0  0  0  0  0  0  0  0  0  0
    0.6970   12.5630    3.0860 C   0  0  0  0  0  0  0  0  0  0  0  0
    1.8500   13.3440    3.1110 C   0  0  0  0  0  0  0  0  0  0  0  0
    1.7190   15.0520    3.2620 Cl  0  0  0  0  0  0  0  0  0  0  0  0
    3.1060   12.7520    3.0060 C   0  0  0  0  0  0  0  0  0  0  0  0
    3.2200   11.3620    2.8820 C   0  0  0  0  0  0  0  0  0  0  0  0
    4.8170   10.7310    2.7060 Cl  0  0  0  0  0  0  0  0  0  0  0  0
    0.3530    7.7040    2.0620 H   0  0  0  0  0  0  0  0  0  0  0  0
   -0.9830    9.7850    4.2563 H   0  0  0  0  0  0  0  0  0  0  0  0
   -0.6958    9.6421    8.6158 H   0  0  0  0  0  0  0  0  0  0  0  0
    1.7924    9.5667   12.5127 H   0  0  0  0  0  0  0  0  0  0  0  0
    2.4993    7.8267   14.1364 H   0  0  0  0  0  0  0  0  0  0  0  0
    1.8222    5.4499   13.7939 H   0  0  0  0  0  0  0  0  0  0  0  0
    0.4432    4.8307   11.8102 H   0  0  0  0  0  0  0  0  0  0  0  0
   -0.7480    5.5095    9.7444 H   0  0  0  0  0  0  0  0  0  0  0  0
    1.0196    5.9642    4.3809 H   0  0  0  0  0  0  0  0  0  0  0  0
   -0.1065   10.5564    2.9358 H   0  0  0  0  0  0  0  0  0  0  0  0
   -0.2926   13.0370    3.1629 H   0  0  0  0  0  0  0  0  0  0  0  0
    4.0106   13.3777    3.0205 H   0  0  0  0  0  0  0  0  0  0  0  0
  1  2  2  0
  2  3  2  0
  2  4  1  0
  4  5  1  0
  5  6  2  0
  6  7  1  0
  7  8  1  0
  7  9  2  0
  9 10  1  0
 10 11  1  0
 11 12  2  0
 12 13  1  0
 13 14  2  0
 14 15  1  0
 15 16  2  0
 16 17  1  0
 17 18  2  0
 18 19  1  0
 19 20  2  0
  9 21  1  0
 21 22  1  0
 21 23  2  0
  2 24  1  0
 24 25  2  0
 25 26  1  0
 26 27  2  0
 27 28  1  0
 27 29  1  0
 29 30  2  0
 30 31  1  0
 23  5  1  0
 30 24  1  0
 20 11  1  0
 19 14  1  0
  4 32  1  0
  6 33  1  0
 12 34  1  0
 15 35  1  0
 16 36  1  0
 17 37  1  0
 18 38  1  0
 20 39  1  0
 23 40  1  0
 25 41  1  0
 26 42  1  0
 29 43  1  0
M  END
>  <meeko>  (5) 
{"is_sidechain": [false], "free_energy": -8.876, "intermolecular_energy": -11.292, "internal_energy": -0.556}

$$$$
3fur_ligand
     RDKit          3D

 43 46  0  0  0  0  0  0  0  0999 V2000
    1.6440    7.4130   14.3210 O   0  0  0  0  0  0  0  0  0  0  0  0
    2.5310    7.9230   13.3010 S   0  0  0  0  0  0  0  0  0  0  0  0
    3.4810    7.0830   12.6060 O   0  0  0  0  0  0  0  0  0  0  0  0
    1.5740    8.5940   12.0810 N   0  0  0  0  0  0  0  0  0  0  0  0
    0.8770    7.8090   11.1120 C   0  0  0  0  0  0  0  0  0  0  0  0
    0.6010    8.4170    9.8840 C   0  0  0  0  0  0  0  0  0  0  0  0
   -0.1460    7.7470    8.9090 C   0  0  0  0  0  0  0  0  0  0  0  0
   -0.4690    8.5710    7.4270 Cl  0  0  0  0  0  0  0  0  0  0  0  0
   -0.6330    6.4600    9.1560 C   0  0  0  0  0  0  0  0  0  0  0  0
   -1.4050    5.8050    8.2270 O   0  0  0  0  0  0  0  0  0  0  0  0
   -0.7630    5.0020    7.3140 C   0  0  0  0  0  0  0  0  0  0  0  0
   -0.0440    5.4290    6.2080 C   0  0  0  0  0  0  0  0  0  0  0  0
    0.5780    4.5950    5.3390 N   0  0  0  0  0  0  0  0  0  0  0  0
    0.5060    3.2730    5.5710 C   0  0  0  0  0  0  0  0  0  0  0  0
    1.1320    2.3900    4.7020 C   0  0  0  0  0  0  0  0  0  0  0  0
    1.0880    1.0070    4.9000 C   0  0  0  0  0  0  0  0  0  0  0  0
    0.4050    0.4860    5.9930 C   0  0  0  0  0  0  0  0  0  0  0  0
   -0.2330    1.3490    6.8810 C   0  0  0  0  0  0  0  0  0  0  0  0
   -0.1890    2.7390    6.6780 C   0  0  0  0  0  0  0  0  0  0  0  0
   -0.8210    3.6330    7.5520 C   0  0  0  0  0  0  0  0  0  0  0  0
   -0.4120    5.8780   10.4070 C   0  0  0  0  0  0  0  0  0  0  0  0
   -1.0560    4.3250   10.8000 Cl  0  0  0  0  0  0  0  0  0  0  0  0
    0.3360    6.5500   11.3820 C   0  0  0  0  0  0  0  0  0  0  0  0
    3.4570    9.2830   13.9630 C   0  0  0  0  0  0  0  0  0  0  0  0
    4.8600    9.2270   13.9950 C   0  0  0  0  0  0  0  0  0  0  0  0
    5.5920   10.3060   14.4960 C   0  0  0  0  0  0  0  0  0  0  0  0
    4.9250   11.4320   14.9720 C   0  0  0  0  0  0  0  0  0  0  0  0
    5.8260   12.7600   15.5900 Cl  0  0  0  0  0  0  0  0  0  0  0  0
    3.5330   11.4860   14.9580 C   0  0  0  0  0  0  0  0  0  0  0  0
    2.7920   10.4090   14.4570 C   0  0  0  0  0  0  0  0  0  0  0  0
    1.0730   10.5530   14.5320 Cl  0  0  0  0  0  0  0  0  0  0  0  0
    1.9530    9.4980   11.7930 H   0  0  0  0  0  0  0  0  0  0  0  0
    0.9746    9.4318    9.6823 H   0  0  0  0  0  0  0  0  0  0  0  0
    0.0260    6.5113    6.0244 H   0  0  0  0  0  0  0  0  0  0  0  0
    1.6774    2.7893    3.8342 H   0  0  0  0  0  0  0  0  0  0  0  0
    1.5926    0.3325    4.1926 H   0  0  0  0  0  0  0  0  0  0  0  0
    0.3686   -0.6013    6.1557 H   0  0  0  0  0  0  0  0  0  0  0  0
   -0.7747    0.9400    7.7466 H   0  0  0  0  0  0  0  0  0  0  0  0
   -1.3645    3.2512    8.4288 H   0  0  0  0  0  0  0  0  0  0  0  0
    0.4981    6.0840   12.3651 H   0  0  0  0  0  0  0  0  0  0  0  0
    5.3828    8.3326   13.6252 H   0  0  0  0  0  0  0  0  0  0  0  0
    6.6911   10.2665   14.5145 H   0  0  0  0  0  0  0  0  0  0  0  0
    3.0147   12.3772   15.3416 H   0  0  0  0  0  0  0  0  0  0  0  0
  1  2  2  0
  2  3  2  0
  2  4  1  0
  4  5  1  0
  5  6  2  0
  6  7  1  0
  7  8  1  0
  7  9  2  0
  9 10  1  0
 10 11  1  0
 11 12  2  0
 12 13  1  0
 13 14  2  0
 14 15  1  0
 15 16  2  0
 16 17  1  0
 17 18  2  0
 18 19  1  0
 19 20  2  0
  9 21  1  0
 21 22  1  0
 21 23  2  0
  2 24  1  0
 24 25  2  0
 25 26  1  0
 26 27  2  0
 27 28  1  0
 27 29  1  0
 29 30  2  0
 30 31  1  0
 23  5  1  0
 30 24  1  0
 20 11  1  0
 19 14  1  0
  4 32  1  0
  6 33  1  0
 12 34  1  0
 15 35  1  0
 16 36  1  0
 17 37  1  0
 18 38  1  0
 20 39  1  0
 23 40  1  0
 25 41  1  0
 26 42  1  0
 29 43  1  0
M  END
>  <meeko>  (6) 
{"is_sidechain": [false], "free_energy": -8.796, "intermolecular_energy": -11.358, "internal_energy": -0.385}

$$$$
3fur_ligand
     RDKit          3D

 43 46  0  0  0  0  0  0  0  0999 V2000
   -1.9350    6.9530    8.5390 O   0  0  0  0  0  0  0  0  0  0  0  0
   -0.9110    7.2930    7.5780 S   0  0  0  0  0  0  0  0  0  0  0  0
   -1.1320    8.2380    6.5060 O   0  0  0  0  0  0  0  0  0  0  0  0
    0.4080    7.9110    8.4340 N   0  0  0  0  0  0  0  0  0  0  0  0
    0.3180    8.3780    9.7810 C   0  0  0  0  0  0  0  0  0  0  0  0
   -0.0730    9.7070    9.9660 C   0  0  0  0  0  0  0  0  0  0  0  0
   -0.1100   10.2670   11.2480 C   0  0  0  0  0  0  0  0  0  0  0  0
   -0.5780   11.9220   11.3950 Cl  0  0  0  0  0  0  0  0  0  0  0  0
    0.2510    9.5030   12.3610 C   0  0  0  0  0  0  0  0  0  0  0  0
    0.2630   10.0490   13.6220 O   0  0  0  0  0  0  0  0  0  0  0  0
    1.3830   10.7480   14.0040 C   0  0  0  0  0  0  0  0  0  0  0  0
    2.6640   10.2350   14.1440 C   0  0  0  0  0  0  0  0  0  0  0  0
    3.7400   10.9690   14.5190 N   0  0  0  0  0  0  0  0  0  0  0  0
    3.5580   12.2790   14.7580 C   0  0  0  0  0  0  0  0  0  0  0  0
    4.6380   13.0620   15.1420 C   0  0  0  0  0  0  0  0  0  0  0  0
    4.5010   14.4290   15.3990 C   0  0  0  0  0  0  0  0  0  0  0  0
    3.2580   15.0370   15.2690 C   0  0  0  0  0  0  0  0  0  0  0  0
    2.1560   14.2760   14.8840 C   0  0  0  0  0  0  0  0  0  0  0  0
    2.2970   12.9010   14.6280 C   0  0  0  0  0  0  0  0  0  0  0  0
    1.2080   12.1080   14.2400 C   0  0  0  0  0  0  0  0  0  0  0  0
    0.7040    8.1940   12.1690 C   0  0  0  0  0  0  0  0  0  0  0  0
    1.2390    7.2280   13.4960 Cl  0  0  0  0  0  0  0  0  0  0  0  0
    0.7400    7.6350   10.8860 C   0  0  0  0  0  0  0  0  0  0  0  0
   -0.3130    5.8060    6.8180 C   0  0  0  0  0  0  0  0  0  0  0  0
   -0.8340    4.5600    7.2030 C   0  0  0  0  0  0  0  0  0  0  0  0
   -0.3790    3.3910    6.5910 C   0  0  0  0  0  0  0  0  0  0  0  0
    0.6000    3.4640    5.6040 C   0  0  0  0  0  0  0  0  0  0  0  0
    1.1610    2.0240    4.8500 Cl  0  0  0  0  0  0  0  0  0  0  0  0
    1.1340    4.6950    5.2280 C   0  0  0  0  0  0  0  0  0  0  0  0
    0.6830    5.8730    5.8380 C   0  0  0  0  0  0  0  0  0  0  0  0
    1.4450    7.3390    5.3400 Cl  0  0  0  0  0  0  0  0  0  0  0  0
    1.0510    8.3850    7.7970 H   0  0  0  0  0  0  0  0  0  0  0  0
   -0.3542   10.3184    9.0959 H   0  0  0  0  0  0  0  0  0  0  0  0
    2.8163    9.1653   13.9377 H   0  0  0  0  0  0  0  0  0  0  0  0
    5.6280   12.5942   15.2468 H   0  0  0  0  0  0  0  0  0  0  0  0
    5.3755   15.0227   15.7036 H   0  0  0  0  0  0  0  0  0  0  0  0
    3.1448   16.1127   15.4689 H   0  0  0  0  0  0  0  0  0  0  0  0
    1.1706   14.7537   14.7799 H   0  0  0  0  0  0  0  0  0  0  0  0
    0.2130   12.5619   14.1219 H   0  0  0  0  0  0  0  0  0  0  0  0
    1.1024    6.6057   10.7474 H   0  0  0  0  0  0  0  0  0  0  0  0
   -1.6022    4.5052    7.9884 H   0  0  0  0  0  0  0  0  0  0  0  0
   -0.7924    2.4157    6.8875 H   0  0  0  0  0  0  0  0  0  0  0  0
    1.9111    4.7420    4.4508 H   0  0  0  0  0  0  0  0  0  0  0  0
  1  2  2  0
  2  3  2  0
  2  4  1  0
  4  5  1  0
  5  6  2  0
  6  7  1  0
  7  8  1  0
  7  9  2  0
  9 10  1  0
 10 11  1  0
 11 12  2  0
 12 13  1  0
 13 14  2  0
 14 15  1  0
 15 16  2  0
 16 17  1  0
 17 18  2  0
 18 19  1  0
 19 20  2  0
  9 21  1  0
 21 22  1  0
 21 23  2  0
  2 24  1  0
 24 25  2  0
 25 26  1  0
 26 27  2  0
 27 28  1  0
 27 29  1  0
 29 30  2  0
 30 31  1  0
 23  5  1  0
 30 24  1  0
 20 11  1  0
 19 14  1  0
  4 32  1  0
  6 33  1  0
 12 34  1  0
 15 35  1  0
 16 36  1  0
 17 37  1  0
 18 38  1  0
 20 39  1  0
 23 40  1  0
 25 41  1  0
 26 42  1  0
 29 43  1  0
M  END
>  <meeko>  (7) 
{"is_sidechain": [false], "free_energy": -8.706, "intermolecular_energy": -11.276, "internal_energy": -0.351}

$$$$
3fur_ligand
     RDKit          3D

 43 46  0  0  0  0  0  0  0  0999 V2000
   -1.8660    6.7870    8.8840 O   0  0  0  0  0  0  0  0  0  0  0  0
   -1.0400    7.1780    7.7650 S   0  0  0  0  0  0  0  0  0  0  0  0
   -1.4980    8.0900    6.7400 O   0  0  0  0  0  0  0  0  0  0  0  0
    0.3580    7.8940    8.3870 N   0  0  0  0  0  0  0  0  0  0  0  0
    0.4160    8.5090    9.6750 C   0  0  0  0  0  0  0  0  0  0  0  0
    0.8750    7.7210   10.7340 C   0  0  0  0  0  0  0  0  0  0  0  0
    0.8890    8.2200   12.0410 C   0  0  0  0  0  0  0  0  0  0  0  0
    1.4450    7.1790   13.3010 Cl  0  0  0  0  0  0  0  0  0  0  0  0
    0.4350    9.5150   12.3040 C   0  0  0  0  0  0  0  0  0  0  0  0
    0.4000   10.0060   13.5880 O   0  0  0  0  0  0  0  0  0  0  0  0
    1.4930   10.7110   14.0310 C   0  0  0  0  0  0  0  0  0  0  0  0
    2.7520   10.1930   14.2990 C   0  0  0  0  0  0  0  0  0  0  0  0
    3.8020   10.9330   14.7310 N   0  0  0  0  0  0  0  0  0  0  0  0
    3.6170   12.2540   14.8970 C   0  0  0  0  0  0  0  0  0  0  0  0
    4.6720   13.0430   15.3360 C   0  0  0  0  0  0  0  0  0  0  0  0
    4.5310   14.4210   15.5220 C   0  0  0  0  0  0  0  0  0  0  0  0
    3.3110   15.0340   15.2640 C   0  0  0  0  0  0  0  0  0  0  0  0
    2.2350   14.2660   14.8210 C   0  0  0  0  0  0  0  0  0  0  0  0
    2.3790   12.8800   14.6370 C   0  0  0  0  0  0  0  0  0  0  0  0
    1.3170   12.0810   14.1940 C   0  0  0  0  0  0  0  0  0  0  0  0
   -0.0840   10.2800   11.2560 C   0  0  0  0  0  0  0  0  0  0  0  0
   -0.7330   11.8560   11.5320 Cl  0  0  0  0  0  0  0  0  0  0  0  0
   -0.0960    9.7790    9.9490 C   0  0  0  0  0  0  0  0  0  0  0  0
   -0.4770    5.7220    6.9220 C   0  0  0  0  0  0  0  0  0  0  0  0
   -0.8750    4.4520    7.3720 C   0  0  0  0  0  0  0  0  0  0  0  0
   -0.4500    3.3060    6.6970 C   0  0  0  0  0  0  0  0  0  0  0  0
    0.3780    3.4260    5.5840 C   0  0  0  0  0  0  0  0  0  0  0  0
    0.9020    2.0140    4.7530 Cl  0  0  0  0  0  0  0  0  0  0  0  0
    0.7910    4.6820    5.1430 C   0  0  0  0  0  0  0  0  0  0  0  0
    0.3690    5.8360    5.8140 C   0  0  0  0  0  0  0  0  0  0  0  0
    0.9770    7.3390    5.2220 Cl  0  0  0  0  0  0  0  0  0  0  0  0
    0.9150    8.2960    7.6310 H   0  0  0  0  0  0  0  0  0  0  0  0
    1.2289    6.6981   10.5380 H   0  0  0  0  0  0  0  0  0  0  0  0
    2.9076    9.1141   14.1516 H   0  0  0  0  0  0  0  0  0  0  0  0
    5.6439   12.5712   15.5427 H   0  0  0  0  0  0  0  0  0  0  0  0
    5.3848   15.0196   15.8722 H   0  0  0  0  0  0  0  0  0  0  0  0
    3.1949   16.1183   15.4083 H   0  0  0  0  0  0  0  0  0  0  0  0
    1.2678   14.7475   14.6143 H   0  0  0  0  0  0  0  0  0  0  0  0
    0.3410   12.5385   13.9744 H   0  0  0  0  0  0  0  0  0  0  0  0
   -0.5110   10.3891    9.1332 H   0  0  0  0  0  0  0  0  0  0  0  0
   -1.5220    4.3604    8.2569 H   0  0  0  0  0  0  0  0  0  0  0  0
   -0.7683    2.3116    7.0434 H   0  0  0  0  0  0  0  0  0  0  0  0
    1.4497    4.7667    4.2661 H   0  0  0  0  0  0  0  0  0  0  0  0
  1  2  2  0
  2  3  2  0
  2  4  1  0
  4  5  1  0
  5  6  2  0
  6  7  1  0
  7  8  1  0
  7  9  2  0
  9 10  1  0
 10 11  1  0
 11 12  2  0
 12 13  1  0
 13 14  2  0
 14 15  1  0
 15 16  2  0
 16 17  1  0
 17 18  2  0
 18 19  1  0
 19 20  2  0
  9 21  1  0
 21 22  1  0
 21 23  2  0
  2 24  1  0
 24 25  2  0
 25 26  1  0
 26 27  2  0
 27 28  1  0
 27 29  1  0
 29 30  2  0
 30 31  1  0
 23  5  1  0
 30 24  1  0
 20 11  1  0
 19 14  1  0
  4 32  1  0
  6 33  1  0
 12 34  1  0
 15 35  1  0
 16 36  1  0
 17 37  1  0
 18 38  1  0
 20 39  1  0
 23 40  1  0
 25 41  1  0
 26 42  1  0
 29 43  1  0
M  END
>  <meeko>  (8) 
{"is_sidechain": [false], "free_energy": -8.661, "intermolecular_energy": -11.139, "internal_energy": -0.43}

$$$$
3fur_ligand
     RDKit          3D

 43 46  0  0  0  0  0  0  0  0999 V2000
   -1.9240    6.8300    8.7870 O   0  0  0  0  0  0  0  0  0  0  0  0
   -1.0060    7.2360    7.7480 S   0  0  0  0  0  0  0  0  0  0  0  0
   -1.3680    8.1850    6.7170 O   0  0  0  0  0  0  0  0  0  0  0  0
    0.3490    7.9100    8.4970 N   0  0  0  0  0  0  0  0  0  0  0  0
    0.3340    8.4190    9.8320 C   0  0  0  0  0  0  0  0  0  0  0  0
   -0.0310    9.7580    9.9960 C   0  0  0  0  0  0  0  0  0  0  0  0
    0.0040   10.3570   11.2600 C   0  0  0  0  0  0  0  0  0  0  0  0
   -0.4360   12.0220   11.3800 Cl  0  0  0  0  0  0  0  0  0  0  0  0
    0.4120    9.6220   12.3760 C   0  0  0  0  0  0  0  0  0  0  0  0
    0.4950   10.2060   13.6170 O   0  0  0  0  0  0  0  0  0  0  0  0
    1.6070   10.9650   13.8930 C   0  0  0  0  0  0  0  0  0  0  0  0
    1.6780   12.3500   13.8950 C   0  0  0  0  0  0  0  0  0  0  0  0
    2.8010   13.0530   14.1790 N   0  0  0  0  0  0  0  0  0  0  0  0
    3.9130   12.3660   14.4940 C   0  0  0  0  0  0  0  0  0  0  0  0
    5.0820   13.0540   14.7930 C   0  0  0  0  0  0  0  0  0  0  0  0
    6.2630   12.3860   15.1290 C   0  0  0  0  0  0  0  0  0  0  0  0
    6.2850   10.9970   15.1700 C   0  0  0  0  0  0  0  0  0  0  0  0
    5.1260   10.2810   14.8740 C   0  0  0  0  0  0  0  0  0  0  0  0
    3.9410   10.9550   14.5360 C   0  0  0  0  0  0  0  0  0  0  0  0
    2.7600   10.2640   14.2330 C   0  0  0  0  0  0  0  0  0  0  0  0
    0.8380    8.3020   12.2030 C   0  0  0  0  0  0  0  0  0  0  0  0
    1.4290    7.3690   13.5300 Cl  0  0  0  0  0  0  0  0  0  0  0  0
    0.8020    7.7040   10.9370 C   0  0  0  0  0  0  0  0  0  0  0  0
   -0.4020    5.7950    6.9100 C   0  0  0  0  0  0  0  0  0  0  0  0
   -0.8580    4.5200    7.2870 C   0  0  0  0  0  0  0  0  0  0  0  0
   -0.3990    3.3860    6.6140 C   0  0  0  0  0  0  0  0  0  0  0  0
    0.5190    3.5220    5.5760 C   0  0  0  0  0  0  0  0  0  0  0  0
    1.0840    2.1250    4.7480 Cl  0  0  0  0  0  0  0  0  0  0  0  0
    0.9880    4.7820    5.2080 C   0  0  0  0  0  0  0  0  0  0  0  0
    0.5330    5.9240    5.8780 C   0  0  0  0  0  0  0  0  0  0  0  0
    1.2130    7.4310    5.3820 Cl  0  0  0  0  0  0  0  0  0  0  0  0
    0.9400    8.3760    7.8060 H   0  0  0  0  0  0  0  0  0  0  0  0
   -0.3489   10.3467    9.1229 H   0  0  0  0  0  0  0  0  0  0  0  0
    0.7653   12.9133   13.6507 H   0  0  0  0  0  0  0  0  0  0  0  0
    5.0783   14.1536   14.7646 H   0  0  0  0  0  0  0  0  0  0  0  0
    7.1732   12.9586   15.3605 H   0  0  0  0  0  0  0  0  0  0  0  0
    7.2112   10.4658   15.4344 H   0  0  0  0  0  0  0  0  0  0  0  0
    5.1397    9.1815   14.9053 H   0  0  0  0  0  0  0  0  0  0  0  0
    2.7444    9.1645   14.2640 H   0  0  0  0  0  0  0  0  0  0  0  0
    1.1440    6.6660   10.8122 H   0  0  0  0  0  0  0  0  0  0  0  0
   -1.5770    4.4155    8.1129 H   0  0  0  0  0  0  0  0  0  0  0  0
   -0.7615    2.3884    6.9029 H   0  0  0  0  0  0  0  0  0  0  0  0
    1.7168    4.8792    4.3898 H   0  0  0  0  0  0  0  0  0  0  0  0
  1  2  2  0
  2  3  2  0
  2  4  1  0
  4  5  1  0
  5  6  2  0
  6  7  1  0
  7  8  1  0
  7  9  2  0
  9 10  1  0
 10 11  1  0
 11 12  2  0
 12 13  1  0
 13 14  2  0
 14 15  1  0
 15 16  2  0
 16 17  1  0
 17 18  2  0
 18 19  1  0
 19 20  2  0
  9 21  1  0
 21 22  1  0
 21 23  2  0
  2 24  1  0
 24 25  2  0
 25 26  1  0
 26 27  2  0
 27 28  1  0
 27 29  1  0
 29 30  2  0
 30 31  1  0
 23  5  1  0
 30 24  1  0
 20 11  1  0
 19 14  1  0
  4 32  1  0
  6 33  1  0
 12 34  1  0
 15 35  1  0
 16 36  1  0
 17 37  1  0
 18 38  1  0
 20 39  1  0
 23 40  1  0
 25 41  1  0
 26 42  1  0
 29 43  1  0
M  END
>  <meeko>  (9) 
{"is_sidechain": [false], "free_energy": -8.527, "intermolecular_energy": -11.165, "internal_energy": -0.23}

$$$$
