
     RDKit          3D

 21 21  0  0  0  0  0  0  0  0999 V2000
   -1.0670   -0.8050   11.2640 N   0  0  0  0  0  0  0  0  0  0  0  0
   -1.8380   -0.9530   12.5280 C   0  0  1  0  0  0  0  0  0  0  0  0
   -0.9320   -0.8720   13.7790 C   0  0  0  0  0  0  0  0  0  0  0  0
    0.1220   -1.9320   13.8090 C   0  0  0  0  0  0  0  0  0  0  0  0
    1.3230   -1.6910   13.1590 C   0  0  0  0  0  0  0  0  0  0  0  0
    2.3470   -2.6270   13.1460 C   0  0  0  0  0  0  0  0  0  0  0  0
    3.8420   -2.2210   12.3030 Cl  0  0  0  0  0  0  0  0  0  0  0  0
    2.1660   -3.8670   13.8090 C   0  0  0  0  0  0  0  0  0  0  0  0
    3.1940   -4.8460   13.8300 N   0  0  0  0  0  0  0  0  0  0  0  0
    4.3840   -4.5870   13.6150 O   0  0  0  0  0  0  0  0  0  0  0  0
    2.8590   -6.0310   14.1340 O   0  0  0  0  0  0  0  0  0  0  0  0
    0.9800   -4.0930   14.4600 C   0  0  0  0  0  0  0  0  0  0  0  0
   -0.0560   -3.1740   14.4840 C   0  0  0  0  0  0  0  0  0  0  0  0
   -1.3150   -3.5090   15.2350 C   0  0  0  0  0  0  0  0  0  0  0  0
   -1.8270   -4.9250   14.8890 C   0  0  0  0  0  0  0  0  0  0  0  0
   -2.8800   -4.9400   13.7990 C   0  0  0  0  0  0  0  0  0  0  0  0
   -3.7190   -5.8400   13.8330 O   0  0  0  0  0  0  0  0  0  0  0  0
   -2.8420   -4.0980   12.9090 O   0  0  0  0  0  0  0  0  0  0  0  0
   -2.8650    0.1810   12.6180 C   0  0  0  0  0  0  0  0  0  0  0  0
   -3.8170    0.0690   13.3940 O   0  0  0  0  0  0  0  0  0  0  0  0
   -2.6910    1.1860   11.8950 O   0  0  0  0  0  0  0  0  0  0  0  0
  2  1  1  6
  3  2  1  0
  4  3  1  0
  5  4  2  0
  6  5  1  0
  7  6  1  0
  8  6  2  0
  9  8  1  0
 10  9  2  0
 11  9  1  0
 12  8  1  0
 13 12  2  0
 13  4  1  0
 14 13  1  0
 15 14  1  0
 16 15  1  0
 17 16  1  0
 18 16  2  0
 19  2  1  0
 20 19  2  0
 21 19  1  0
M  CHG  5   1   1   9   1  11  -1  17  -1  21  -1
M  END
$$$$
