1nc1_ligand
     RDKit          3D

 36 38  0  0  0  0  0  0  0  0999 V2000
   -9.8340   12.2490   -3.1820 C   0  0  0  0  0  0  0  0  0  0  0  0
   -9.3520   13.5300   -2.0010 S   0  0  0  0  0  0  0  0  0  0  0  0
   -8.6820   12.4940   -0.6480 C   0  0  0  0  0  0  0  0  0  0  0  0
   -7.6330   13.1730    0.2440 C   0  0  1  0  0  0  0  0  0  0  0  0
   -8.2590   13.9820    1.2610 O   0  0  0  0  0  0  0  0  0  0  0  0
   -8.0060   13.3780    2.5480 C   0  0  1  0  0  0  0  0  0  0  0  0
   -9.1980   13.4860    3.3740 N   0  0  0  0  0  0  0  0  0  0  0  0
   -9.6460   14.6630    3.9390 C   0  0  0  0  0  0  0  0  0  0  0  0
  -10.8080   14.3930    4.6280 C   0  0  0  0  0  0  0  0  0  0  0  0
  -11.0810   13.0060    4.4830 C   0  0  0  0  0  0  0  0  0  0  0  0
  -12.0780   12.1220    4.9190 C   0  0  0  0  0  0  0  0  0  0  0  0
  -13.1450   12.5010    5.7210 N   0  0  0  0  0  0  0  0  0  0  0  0
  -12.0020   10.8260    4.5640 N   0  0  0  0  0  0  0  0  0  0  0  0
  -10.9670   10.4380    3.7950 C   0  0  0  0  0  0  0  0  0  0  0  0
   -9.9460   11.1810    3.3370 N   0  0  0  0  0  0  0  0  0  0  0  0
  -10.0640   12.4700    3.7030 C   0  0  0  0  0  0  0  0  0  0  0  0
   -7.4960   11.9560    2.3010 C   0  0  2  0  0  0  0  0  0  0  0  0
   -6.5990   11.4900    3.3120 O   0  0  0  0  0  0  0  0  0  0  0  0
   -6.7690   12.1420    0.9780 C   0  0  2  0  0  0  0  0  0  0  0  0
   -5.4660   12.6830    1.2740 O   0  0  0  0  0  0  0  0  0  0  0  0
  -10.1704   11.3551   -2.6363 H   0  0  0  0  0  0  0  0  0  0  0  0
  -10.6531   12.6225   -3.8141 H   0  0  0  0  0  0  0  0  0  0  0  0
   -8.9719   11.9899   -3.8141 H   0  0  0  0  0  0  0  0  0  0  0  0
   -9.5224   12.1855   -0.0088 H   0  0  0  0  0  0  0  0  0  0  0  0
   -8.1664   11.6541   -1.1365 H   0  0  0  0  0  0  0  0  0  0  0  0
   -7.0171   13.7897   -0.4271 H   0  0  0  0  0  0  0  0  0  0  0  0
   -7.2226   13.8947    3.1218 H   0  0  0  0  0  0  0  0  0  0  0  0
   -9.1596   15.6459    3.8539 H   0  0  0  0  0  0  0  0  0  0  0  0
  -11.4146   15.1194    5.1887 H   0  0  0  0  0  0  0  0  0  0  0  0
  -14.0240   12.2330    5.2920 H   0  0  0  0  0  0  0  0  0  0  0  0
  -13.0360   12.2800    6.7010 H   0  0  0  0  0  0  0  0  0  0  0  0
  -10.9562    9.3770    3.5048 H   0  0  0  0  0  0  0  0  0  0  0  0
   -8.2978   11.2029    2.3023 H   0  0  0  0  0  0  0  0  0  0  0  0
   -6.7120   12.1090    4.0640 H   0  0  0  0  0  0  0  0  0  0  0  0
   -6.6323   11.2243    0.3871 H   0  0  0  0  0  0  0  0  0  0  0  0
   -4.8410   12.3250    0.6170 H   0  0  0  0  0  0  0  0  0  0  0  0
  1  2  1  0
  2  3  1  0
  3  4  1  0
  4  5  1  0
  5  6  1  0
  6  7  1  0
  7  8  1  0
  8  9  2  0
  9 10  1  0
 10 11  2  0
 11 12  1  0
 11 13  1  0
 13 14  2  0
 14 15  1  0
 15 16  2  0
  6 17  1  0
 17 18  1  0
 17 19  1  0
 19 20  1  0
 19  4  1  0
 16  7  1  0
 16 10  1  0
  1 21  1  0
  1 22  1  0
  1 23  1  0
  3 24  1  0
  3 25  1  0
  4 26  1  6
  6 27  1  1
  8 28  1  0
  9 29  1  0
 12 30  1  0
 12 31  1  0
 14 32  1  0
 17 33  1  6
 18 34  1  0
 19 35  1  6
 20 36  1  0
M  END
>  <meeko>  (1) 
{"is_sidechain": [false], "free_energy": -8.441, "intermolecular_energy": -10.662, "internal_energy": 0.127}

$$$$
1nc1_ligand
     RDKit          3D

 36 38  0  0  0  0  0  0  0  0999 V2000
   -6.5470   14.3800   -7.0210 C   0  0  0  0  0  0  0  0  0  0  0  0
   -5.9270   13.9400   -8.6610 S   0  0  0  0  0  0  0  0  0  0  0  0
   -4.1280   13.8800   -8.3270 C   0  0  0  0  0  0  0  0  0  0  0  0
   -3.7210   13.1450   -7.0420 C   0  0  1  0  0  0  0  0  0  0  0  0
   -3.2780   11.8020   -7.3280 O   0  0  0  0  0  0  0  0  0  0  0  0
   -1.8640   11.7150   -7.0450 C   0  0  1  0  0  0  0  0  0  0  0  0
   -1.2190   10.8970   -8.0590 N   0  0  0  0  0  0  0  0  0  0  0  0
   -0.7220   11.3860   -9.2490 C   0  0  0  0  0  0  0  0  0  0  0  0
   -0.1630   10.3370   -9.9450 C   0  0  0  0  0  0  0  0  0  0  0  0
   -0.3250    9.1640   -9.1560 C   0  0  0  0  0  0  0  0  0  0  0  0
    0.0110    7.8090   -9.2820 C   0  0  0  0  0  0  0  0  0  0  0  0
    0.6520    7.2750  -10.3900 N   0  0  0  0  0  0  0  0  0  0  0  0
   -0.3150    6.9620   -8.2880 N   0  0  0  0  0  0  0  0  0  0  0  0
   -0.9470    7.4620   -7.2100 C   0  0  0  0  0  0  0  0  0  0  0  0
   -1.3390    8.7270   -6.9860 N   0  0  0  0  0  0  0  0  0  0  0  0
   -0.9860    9.5430   -7.9950 C   0  0  0  0  0  0  0  0  0  0  0  0
   -1.3310   13.1420   -6.9030 C   0  0  2  0  0  0  0  0  0  0  0  0
   -0.2240   13.2500   -6.0050 O   0  0  0  0  0  0  0  0  0  0  0  0
   -2.5540   13.8480   -6.3400 C   0  0  2  0  0  0  0  0  0  0  0  0
   -2.5830   13.5940   -4.9210 O   0  0  0  0  0  0  0  0  0  0  0  0
   -5.9054   13.9247   -6.2522 H   0  0  0  0  0  0  0  0  0  0  0  0
   -6.5366   15.4740   -6.9064 H   0  0  0  0  0  0  0  0  0  0  0  0
   -7.5762   14.0091   -6.9064 H   0  0  0  0  0  0  0  0  0  0  0  0
   -3.6420   13.3754   -9.1750 H   0  0  0  0  0  0  0  0  0  0  0  0
   -3.8097   14.9243   -8.1926 H   0  0  0  0  0  0  0  0  0  0  0  0
   -4.6143   13.1377   -6.4002 H   0  0  0  0  0  0  0  0  0  0  0  0
   -1.6427   11.2049   -6.0959 H   0  0  0  0  0  0  0  0  0  0  0  0
   -0.7647   12.4328   -9.5843 H   0  0  0  0  0  0  0  0  0  0  0  0
    0.3206   10.3954  -10.9313 H   0  0  0  0  0  0  0  0  0  0  0  0
    0.9770    6.3350  -10.1930 H   0  0  0  0  0  0  0  0  0  0  0  0
    0.1630    7.4080  -11.2640 H   0  0  0  0  0  0  0  0  0  0  0  0
   -1.1714    6.7419   -6.4093 H   0  0  0  0  0  0  0  0  0  0  0  0
   -0.9372   13.5507   -7.8453 H   0  0  0  0  0  0  0  0  0  0  0  0
   -0.5440   13.8100   -5.2670 H   0  0  0  0  0  0  0  0  0  0  0  0
   -2.5767   14.9369   -6.4943 H   0  0  0  0  0  0  0  0  0  0  0  0
   -1.9750   14.2260   -4.4950 H   0  0  0  0  0  0  0  0  0  0  0  0
  1  2  1  0
  2  3  1  0
  3  4  1  0
  4  5  1  0
  5  6  1  0
  6  7  1  0
  7  8  1  0
  8  9  2  0
  9 10  1  0
 10 11  2  0
 11 12  1  0
 11 13  1  0
 13 14  2  0
 14 15  1  0
 15 16  2  0
  6 17  1  0
 17 18  1  0
 17 19  1  0
 19 20  1  0
 19  4  1  0
 16  7  1  0
 16 10  1  0
  1 21  1  0
  1 22  1  0
  1 23  1  0
  3 24  1  0
  3 25  1  0
  4 26  1  1
  6 27  1  1
  8 28  1  0
  9 29  1  0
 12 30  1  0
 12 31  1  0
 14 32  1  0
 17 33  1  6
 18 34  1  0
 19 35  1  1
 20 36  1  0
M  END
>  <meeko>  (2) 
{"is_sidechain": [false], "free_energy": -6.043, "intermolecular_energy": -7.054, "internal_energy": -0.452}

$$$$
1nc1_ligand
     RDKit          3D

 36 38  0  0  0  0  0  0  0  0999 V2000
   -0.2800    7.0410   -9.1490 C   0  0  0  0  0  0  0  0  0  0  0  0
   -0.5670    7.3870   -7.3980 S   0  0  0  0  0  0  0  0  0  0  0  0
   -1.3760    9.0250   -7.5150 C   0  0  0  0  0  0  0  0  0  0  0  0
   -0.7090   10.0230   -8.4730 C   0  0  1  0  0  0  0  0  0  0  0  0
   -1.4540   11.2570   -8.5410 O   0  0  0  0  0  0  0  0  0  0  0  0
   -0.6600   12.3050   -7.9450 C   0  0  1  0  0  0  0  0  0  0  0  0
   -1.5240   13.1840   -7.1730 N   0  0  0  0  0  0  0  0  0  0  0  0
   -2.1910   12.8030   -6.0270 C   0  0  0  0  0  0  0  0  0  0  0  0
   -2.8880   13.8940   -5.5540 C   0  0  0  0  0  0  0  0  0  0  0  0
   -2.6420   14.9780   -6.4410 C   0  0  0  0  0  0  0  0  0  0  0  0
   -3.0350   16.3210   -6.5270 C   0  0  0  0  0  0  0  0  0  0  0  0
   -3.8930   16.9310   -5.6230 N   0  0  0  0  0  0  0  0  0  0  0  0
   -2.5770   17.0700   -7.5470 N   0  0  0  0  0  0  0  0  0  0  0  0
   -1.7520   16.4910   -8.4400 C   0  0  0  0  0  0  0  0  0  0  0  0
   -1.3260   15.2180   -8.4760 N   0  0  0  0  0  0  0  0  0  0  0  0
   -1.7950   14.5060   -7.4360 C   0  0  0  0  0  0  0  0  0  0  0  0
    0.4790   11.6400   -7.1680 C   0  0  2  0  0  0  0  0  0  0  0  0
    1.6670   12.4330   -7.1100 O   0  0  0  0  0  0  0  0  0  0  0  0
    0.7030   10.3920   -8.0060 C   0  0  2  0  0  0  0  0  0  0  0  0
    1.5310   10.7670   -9.1260 O   0  0  0  0  0  0  0  0  0  0  0  0
    0.4195    6.1977   -9.2463 H   0  0  0  0  0  0  0  0  0  0  0  0
   -1.2337    6.7840   -9.6331 H   0  0  0  0  0  0  0  0  0  0  0  0
    0.1488    7.9308   -9.6331 H   0  0  0  0  0  0  0  0  0  0  0  0
   -2.4107    8.8689   -7.8542 H   0  0  0  0  0  0  0  0  0  0  0  0
   -1.3017    9.4717   -6.5125 H   0  0  0  0  0  0  0  0  0  0  0  0
   -0.6766    9.5265   -9.4540 H   0  0  0  0  0  0  0  0  0  0  0  0
   -0.1856   12.9643   -8.6868 H   0  0  0  0  0  0  0  0  0  0  0  0
   -2.1702   11.8025   -5.5702 H   0  0  0  0  0  0  0  0  0  0  0  0
   -3.5198   13.9213   -4.6539 H   0  0  0  0  0  0  0  0  0  0  0  0
   -3.8650   16.4510   -4.7300 H   0  0  0  0  0  0  0  0  0  0  0  0
   -3.8290   17.9380   -5.5950 H   0  0  0  0  0  0  0  0  0  0  0  0
   -1.3794   17.1444   -9.2427 H   0  0  0  0  0  0  0  0  0  0  0  0
    0.2354   11.4654   -6.1096 H   0  0  0  0  0  0  0  0  0  0  0  0
    1.4940   13.1090   -6.4220 H   0  0  0  0  0  0  0  0  0  0  0  0
    1.1935    9.5591   -7.4808 H   0  0  0  0  0  0  0  0  0  0  0  0
    2.4570   10.7570   -8.8240 H   0  0  0  0  0  0  0  0  0  0  0  0
  1  2  1  0
  2  3  1  0
  3  4  1  0
  4  5  1  0
  5  6  1  0
  6  7  1  0
  7  8  1  0
  8  9  2  0
  9 10  1  0
 10 11  2  0
 11 12  1  0
 11 13  1  0
 13 14  2  0
 14 15  1  0
 15 16  2  0
  6 17  1  0
 17 18  1  0
 17 19  1  0
 19 20  1  0
 19  4  1  0
 16  7  1  0
 16 10  1  0
  1 21  1  0
  1 22  1  0
  1 23  1  0
  3 24  1  0
  3 25  1  0
  4 26  1  6
  6 27  1  6
  8 28  1  0
  9 29  1  0
 12 30  1  0
 12 31  1  0
 14 32  1  0
 17 33  1  1
 18 34  1  0
 19 35  1  1
 20 36  1  0
M  END
>  <meeko>  (3) 
{"is_sidechain": [false], "free_energy": -5.857, "intermolecular_energy": -6.814, "internal_energy": -0.456}

$$$$
1nc1_ligand
     RDKit          3D

 36 38  0  0  0  0  0  0  0  0999 V2000
    1.1840   13.9340  -10.2050 C   0  0  0  0  0  0  0  0  0  0  0  0
    1.7080   12.7540   -8.9390 S   0  0  0  0  0  0  0  0  0  0  0  0
    0.2910   11.5970   -8.9630 C   0  0  0  0  0  0  0  0  0  0  0  0
   -0.4010   11.3740   -7.6100 C   0  0  1  0  0  0  0  0  0  0  0  0
   -0.5240   12.6110   -6.8780 O   0  0  0  0  0  0  0  0  0  0  0  0
   -1.9230   12.9580   -6.7940 C   0  0  1  0  0  0  0  0  0  0  0  0
   -2.0740   14.3940   -6.9600 N   0  0  0  0  0  0  0  0  0  0  0  0
   -1.1170   15.2150   -7.5210 C   0  0  0  0  0  0  0  0  0  0  0  0
   -1.6110   16.5010   -7.5380 C   0  0  0  0  0  0  0  0  0  0  0  0
   -2.9130   16.4680   -6.9660 C   0  0  0  0  0  0  0  0  0  0  0  0
   -3.9220   17.4040   -6.6990 C   0  0  0  0  0  0  0  0  0  0  0  0
   -3.8050   18.7600   -6.9720 N   0  0  0  0  0  0  0  0  0  0  0  0
   -5.0670   16.9840   -6.1300 N   0  0  0  0  0  0  0  0  0  0  0  0
   -5.1920   15.6740   -5.8490 C   0  0  0  0  0  0  0  0  0  0  0  0
   -4.2940   14.6920   -6.0360 N   0  0  0  0  0  0  0  0  0  0  0  0
   -3.1700   15.1490   -6.6150 C   0  0  0  0  0  0  0  0  0  0  0  0
   -2.6770   12.0890   -7.8030 C   0  0  2  0  0  0  0  0  0  0  0  0
   -4.0200   11.7940   -7.4090 O   0  0  0  0  0  0  0  0  0  0  0  0
   -1.8230   10.8310   -7.7890 C   0  0  2  0  0  0  0  0  0  0  0  0
   -2.2210   10.0510   -6.6440 O   0  0  0  0  0  0  0  0  0  0  0  0
    0.7831   14.8369   -9.7212 H   0  0  0  0  0  0  0  0  0  0  0  0
    2.0459   14.2060  -10.8320 H   0  0  0  0  0  0  0  0  0  0  0  0
    0.4042   13.4770  -10.8320 H   0  0  0  0  0  0  0  0  0  0  0  0
   -0.4574   11.9917   -9.6659 H   0  0  0  0  0  0  0  0  0  0  0  0
    0.7025   10.6203   -9.2574 H   0  0  0  0  0  0  0  0  0  0  0  0
    0.2250   10.6525   -7.0645 H   0  0  0  0  0  0  0  0  0  0  0  0
   -2.3639   12.7451   -5.8090 H   0  0  0  0  0  0  0  0  0  0  0  0
   -0.1307   14.8976   -7.8905 H   0  0  0  0  0  0  0  0  0  0  0  0
   -1.0928   17.3913   -7.9237 H   0  0  0  0  0  0  0  0  0  0  0  0
   -4.6840   19.2330   -6.7950 H   0  0  0  0  0  0  0  0  0  0  0  0
   -2.9750   19.1960   -6.5950 H   0  0  0  0  0  0  0  0  0  0  0  0
   -6.1528   15.3676   -5.4097 H   0  0  0  0  0  0  0  0  0  0  0  0
   -2.7969   12.5728   -8.7836 H   0  0  0  0  0  0  0  0  0  0  0  0
   -3.9460   11.4060   -6.5120 H   0  0  0  0  0  0  0  0  0  0  0  0
   -1.9123   10.1962   -8.6829 H   0  0  0  0  0  0  0  0  0  0  0  0
   -1.4100    9.7290   -6.2090 H   0  0  0  0  0  0  0  0  0  0  0  0
  1  2  1  0
  2  3  1  0
  3  4  1  0
  4  5  1  0
  5  6  1  0
  6  7  1  0
  7  8  1  0
  8  9  2  0
  9 10  1  0
 10 11  2  0
 11 12  1  0
 11 13  1  0
 13 14  2  0
 14 15  1  0
 15 16  2  0
  6 17  1  0
 17 18  1  0
 17 19  1  0
 19 20  1  0
 19  4  1  0
 16  7  1  0
 16 10  1  0
  1 21  1  0
  1 22  1  0
  1 23  1  0
  3 24  1  0
  3 25  1  0
  4 26  1  1
  6 27  1  1
  8 28  1  0
  9 29  1  0
 12 30  1  0
 12 31  1  0
 14 32  1  0
 17 33  1  6
 18 34  1  0
 19 35  1  6
 20 36  1  0
M  END
>  <meeko>  (4) 
{"is_sidechain": [false], "free_energy": -5.681, "intermolecular_energy": -6.328, "internal_energy": -0.72}

$$$$
1nc1_ligand
     RDKit          3D

 36 38  0  0  0  0  0  0  0  0999 V2000
   -2.7670   17.1020   -8.0440 C   0  0  0  0  0  0  0  0  0  0  0  0
   -1.1650   16.7810   -8.8180 S   0  0  0  0  0  0  0  0  0  0  0  0
   -1.2940   14.9780   -9.1040 C   0  0  0  0  0  0  0  0  0  0  0  0
   -1.5510   14.1280   -7.8510 C   0  0  1  0  0  0  0  0  0  0  0  0
   -1.8040   12.7500   -8.1990 O   0  0  0  0  0  0  0  0  0  0  0  0
   -0.7050   11.9460   -7.7180 C   0  0  1  0  0  0  0  0  0  0  0  0
   -0.3920   10.9210   -8.7000 N   0  0  0  0  0  0  0  0  0  0  0  0
    0.0090   11.1840   -9.9940 C   0  0  0  0  0  0  0  0  0  0  0  0
    0.2410    9.9800  -10.6240 C   0  0  0  0  0  0  0  0  0  0  0  0
   -0.0300    8.9460   -9.6870 C   0  0  0  0  0  0  0  0  0  0  0  0
    0.0110    7.5450   -9.6900 C   0  0  0  0  0  0  0  0  0  0  0  0
    0.3620    6.7880  -10.7990 N   0  0  0  0  0  0  0  0  0  0  0  0
   -0.3230    6.8800   -8.5680 N   0  0  0  0  0  0  0  0  0  0  0  0
   -0.6770    7.5990   -7.4860 C   0  0  0  0  0  0  0  0  0  0  0  0
   -0.7750    8.9330   -7.3690 N   0  0  0  0  0  0  0  0  0  0  0  0
   -0.4230    9.5600   -8.5040 C   0  0  0  0  0  0  0  0  0  0  0  0
    0.4410   12.8950   -7.3580 C   0  0  2  0  0  0  0  0  0  0  0  0
    1.2690   12.4100   -6.2980 O   0  0  0  0  0  0  0  0  0  0  0  0
   -0.3370   14.1250   -6.9160 C   0  0  2  0  0  0  0  0  0  0  0  0
   -0.7430   13.9100   -5.5500 O   0  0  0  0  0  0  0  0  0  0  0  0
   -2.6566   17.0799   -6.9498 H   0  0  0  0  0  0  0  0  0  0  0  0
   -3.1331   18.0914   -8.3556 H   0  0  0  0  0  0  0  0  0  0  0  0
   -3.4860   16.3301   -8.3556 H   0  0  0  0  0  0  0  0  0  0  0  0
   -2.1219   14.8045   -9.8072 H   0  0  0  0  0  0  0  0  0  0  0  0
   -0.3131   14.6616   -9.4884 H   0  0  0  0  0  0  0  0  0  0  0  0
   -2.4238   14.5765   -7.3539 H   0  0  0  0  0  0  0  0  0  0  0  0
   -0.9455   11.3873   -6.8015 H   0  0  0  0  0  0  0  0  0  0  0  0
    0.1236   12.1810  -10.4444 H   0  0  0  0  0  0  0  0  0  0  0  0
    0.5752    9.8441  -11.6632 H   0  0  0  0  0  0  0  0  0  0  0  0
    0.3050    5.7990  -10.5850 H   0  0  0  0  0  0  0  0  0  0  0  0
   -0.0640    7.0870  -11.6650 H   0  0  0  0  0  0  0  0  0  0  0  0
   -0.9166    7.0194   -6.5823 H   0  0  0  0  0  0  0  0  0  0  0  0
    1.1484   13.0513   -8.1857 H   0  0  0  0  0  0  0  0  0  0  0  0
    1.7530   11.6460   -6.6770 H   0  0  0  0  0  0  0  0  0  0  0  0
    0.2204   15.0722   -6.9626 H   0  0  0  0  0  0  0  0  0  0  0  0
   -0.1390   13.2510   -5.1620 H   0  0  0  0  0  0  0  0  0  0  0  0
  1  2  1  0
  2  3  1  0
  3  4  1  0
  4  5  1  0
  5  6  1  0
  6  7  1  0
  7  8  1  0
  8  9  2  0
  9 10  1  0
 10 11  2  0
 11 12  1  0
 11 13  1  0
 13 14  2  0
 14 15  1  0
 15 16  2  0
  6 17  1  0
 17 18  1  0
 17 19  1  0
 19 20  1  0
 19  4  1  0
 16  7  1  0
 16 10  1  0
  1 21  1  0
  1 22  1  0
  1 23  1  0
  3 24  1  0
  3 25  1  0
  4 26  1  1
  6 27  1  1
  8 28  1  0
  9 29  1  0
 12 30  1  0
 12 31  1  0
 14 32  1  0
 17 33  1  6
 18 34  1  0
 19 35  1  1
 20 36  1  0
M  END
>  <meeko>  (5) 
{"is_sidechain": [false], "free_energy": -5.662, "intermolecular_energy": -6.566, "internal_energy": -0.458}

$$$$
1nc1_ligand
     RDKit          3D

 36 38  0  0  0  0  0  0  0  0999 V2000
   -0.0570   18.2200   -9.6760 C   0  0  0  0  0  0  0  0  0  0  0  0
   -1.4330   17.4610   -8.7830 S   0  0  0  0  0  0  0  0  0  0  0  0
   -1.2300   15.7140   -9.2900 C   0  0  0  0  0  0  0  0  0  0  0  0
   -2.3290   14.7550   -8.8080 C   0  0  1  0  0  0  0  0  0  0  0  0
   -1.8810   13.3850   -8.8530 O   0  0  0  0  0  0  0  0  0  0  0  0
   -1.7720   12.8930   -7.4990 C   0  0  1  0  0  0  0  0  0  0  0  0
   -0.5900   12.0550   -7.3850 N   0  0  0  0  0  0  0  0  0  0  0  0
    0.6880   12.5380   -7.1890 C   0  0  0  0  0  0  0  0  0  0  0  0
    1.5450   11.4620   -7.1040 C   0  0  0  0  0  0  0  0  0  0  0  0
    0.7670   10.2810   -7.2550 C   0  0  0  0  0  0  0  0  0  0  0  0
    1.0180    8.9020   -7.2640 C   0  0  0  0  0  0  0  0  0  0  0  0
    2.2840    8.3490   -7.1230 N   0  0  0  0  0  0  0  0  0  0  0  0
   -0.0110    8.0520   -7.4350 N   0  0  0  0  0  0  0  0  0  0  0  0
   -1.2440    8.5720   -7.5840 C   0  0  0  0  0  0  0  0  0  0  0  0
   -1.6040    9.8660   -7.6150 N   0  0  0  0  0  0  0  0  0  0  0  0
   -0.5510   10.6810   -7.4300 C   0  0  0  0  0  0  0  0  0  0  0  0
   -1.8240   14.1020   -6.5620 C   0  0  2  0  0  0  0  0  0  0  0  0
   -2.3970   13.8080   -5.2860 O   0  0  0  0  0  0  0  0  0  0  0  0
   -2.7220   15.0380   -7.3540 C   0  0  2  0  0  0  0  0  0  0  0  0
   -4.0860   14.6410   -7.1060 O   0  0  0  0  0  0  0  0  0  0  0  0
    0.6708   18.6215   -8.9555 H   0  0  0  0  0  0  0  0  0  0  0  0
    0.4316   17.4638  -10.3080 H   0  0  0  0  0  0  0  0  0  0  0  0
   -0.4360   19.0367  -10.3080 H   0  0  0  0  0  0  0  0  0  0  0  0
   -1.2085   15.6802  -10.3893 H   0  0  0  0  0  0  0  0  0  0  0  0
   -0.2984   15.3683   -8.8182 H   0  0  0  0  0  0  0  0  0  0  0  0
   -3.1856   14.9120   -9.4800 H   0  0  0  0  0  0  0  0  0  0  0  0
   -2.6054   12.2371   -7.2071 H   0  0  0  0  0  0  0  0  0  0  0  0
    0.9730   13.5978   -7.1137 H   0  0  0  0  0  0  0  0  0  0  0  0
    2.6329   11.5082   -6.9478 H   0  0  0  0  0  0  0  0  0  0  0  0
    2.8350    8.5090   -7.9590 H   0  0  0  0  0  0  0  0  0  0  0  0
    2.7350    8.5480   -6.2410 H   0  0  0  0  0  0  0  0  0  0  0  0
   -2.0613    7.8441   -7.6945 H   0  0  0  0  0  0  0  0  0  0  0  0
   -0.8282   14.4968   -6.3118 H   0  0  0  0  0  0  0  0  0  0  0  0
   -2.9250   12.9930   -5.4210 H   0  0  0  0  0  0  0  0  0  0  0  0
   -2.6244   16.1040   -7.1007 H   0  0  0  0  0  0  0  0  0  0  0  0
   -4.0700   13.9370   -6.4310 H   0  0  0  0  0  0  0  0  0  0  0  0
  1  2  1  0
  2  3  1  0
  3  4  1  0
  4  5  1  0
  5  6  1  0
  6  7  1  0
  7  8  1  0
  8  9  2  0
  9 10  1  0
 10 11  2  0
 11 12  1  0
 11 13  1  0
 13 14  2  0
 14 15  1  0
 15 16  2  0
  6 17  1  0
 17 18  1  0
 17 19  1  0
 19 20  1  0
 19  4  1  0
 16  7  1  0
 16 10  1  0
  1 21  1  0
  1 22  1  0
  1 23  1  0
  3 24  1  0
  3 25  1  0
  4 26  1  6
  6 27  1  1
  8 28  1  0
  9 29  1  0
 12 30  1  0
 12 31  1  0
 14 32  1  0
 17 33  1  1
 18 34  1  0
 19 35  1  1
 20 36  1  0
M  END
>  <meeko>  (6) 
{"is_sidechain": [false], "free_energy": -5.629, "intermolecular_energy": -6.519, "internal_energy": -0.463}

$$$$
1nc1_ligand
     RDKit          3D

 36 38  0  0  0  0  0  0  0  0999 V2000
   -1.3140    8.9710   -7.3440 C   0  0  0  0  0  0  0  0  0  0  0  0
   -0.0010   10.0480   -7.9670 S   0  0  0  0  0  0  0  0  0  0  0  0
   -1.0010   11.3850   -8.7160 C   0  0  0  0  0  0  0  0  0  0  0  0
   -0.8300   12.7720   -8.0800 C   0  0  1  0  0  0  0  0  0  0  0  0
   -1.8990   13.6590   -8.4700 O   0  0  0  0  0  0  0  0  0  0  0  0
   -2.7030   13.9480   -7.3050 C   0  0  1  0  0  0  0  0  0  0  0  0
   -4.1070   13.9780   -7.6850 N   0  0  0  0  0  0  0  0  0  0  0  0
   -4.6270   13.3250   -8.7830 C   0  0  0  0  0  0  0  0  0  0  0  0
   -5.9850   13.5550   -8.8150 C   0  0  0  0  0  0  0  0  0  0  0  0
   -6.3080   14.3770   -7.7010 C   0  0  0  0  0  0  0  0  0  0  0  0
   -7.4730   14.9510   -7.1730 C   0  0  0  0  0  0  0  0  0  0  0  0
   -8.7280   14.8120   -7.7500 N   0  0  0  0  0  0  0  0  0  0  0  0
   -7.3860   15.6940   -6.0550 N   0  0  0  0  0  0  0  0  0  0  0  0
   -6.1740   15.8480   -5.4890 C   0  0  0  0  0  0  0  0  0  0  0  0
   -4.9910   15.3710   -5.9100 N   0  0  0  0  0  0  0  0  0  0  0  0
   -5.1220   14.6260   -7.0210 C   0  0  0  0  0  0  0  0  0  0  0  0
   -2.3290   12.9360   -6.2200 C   0  0  2  0  0  0  0  0  0  0  0  0
   -2.4740   13.4450   -4.8930 O   0  0  0  0  0  0  0  0  0  0  0  0
   -0.8640   12.6960   -6.5500 C   0  0  2  0  0  0  0  0  0  0  0  0
   -0.1080   13.7760   -5.9660 O   0  0  0  0  0  0  0  0  0  0  0  0
   -1.3040    8.9792   -6.2441 H   0  0  0  0  0  0  0  0  0  0  0  0
   -2.2878    9.3338   -7.7045 H   0  0  0  0  0  0  0  0  0  0  0  0
   -1.1486    7.9450   -7.7045 H   0  0  0  0  0  0  0  0  0  0  0  0
   -0.7234   11.4621   -9.7776 H   0  0  0  0  0  0  0  0  0  0  0  0
   -2.0520   11.1046   -8.5525 H   0  0  0  0  0  0  0  0  0  0  0  0
    0.1429   13.1482   -8.4293 H   0  0  0  0  0  0  0  0  0  0  0  0
   -2.5086   14.9439   -6.8804 H   0  0  0  0  0  0  0  0  0  0  0  0
   -4.0566   12.7249   -9.5072 H   0  0  0  0  0  0  0  0  0  0  0  0
   -6.6913   13.1720   -9.5663 H   0  0  0  0  0  0  0  0  0  0  0  0
   -9.1680   13.9540   -7.4380 H   0  0  0  0  0  0  0  0  0  0  0  0
   -9.2980   15.6460   -7.7250 H   0  0  0  0  0  0  0  0  0  0  0  0
   -6.1495   16.4407   -4.5627 H   0  0  0  0  0  0  0  0  0  0  0  0
   -2.9706   12.0425   -6.2229 H   0  0  0  0  0  0  0  0  0  0  0  0
   -3.4100   13.7290   -4.8250 H   0  0  0  0  0  0  0  0  0  0  0  0
   -0.4506   11.7475   -6.1766 H   0  0  0  0  0  0  0  0  0  0  0  0
   -0.0100   14.4680   -6.6450 H   0  0  0  0  0  0  0  0  0  0  0  0
  1  2  1  0
  2  3  1  0
  3  4  1  0
  4  5  1  0
  5  6  1  0
  6  7  1  0
  7  8  1  0
  8  9  2  0
  9 10  1  0
 10 11  2  0
 11 12  1  0
 11 13  1  0
 13 14  2  0
 14 15  1  0
 15 16  2  0
  6 17  1  0
 17 18  1  0
 17 19  1  0
 19 20  1  0
 19  4  1  0
 16  7  1  0
 16 10  1  0
  1 21  1  0
  1 22  1  0
  1 23  1  0
  3 24  1  0
  3 25  1  0
  4 26  1  1
  6 27  1  1
  8 28  1  0
  9 29  1  0
 12 30  1  0
 12 31  1  0
 14 32  1  0
 17 33  1  1
 18 34  1  0
 19 35  1  6
 20 36  1  0
M  END
>  <meeko>  (7) 
{"is_sidechain": [false], "free_energy": -5.497, "intermolecular_energy": -6.155, "internal_energy": -0.661}

$$$$
