
     RDKit          3D

 16 16  0  0  0  0  0  0  0  0999 V2000
    5.2710   -5.0180   -9.5250 C   0  0  0  0  0  0  0  0  0  0  0  0
    4.2050   -4.1070  -10.1530 C   0  0  0  0  0  0  0  0  0  0  0  0
    2.8460   -4.6090   -9.9540 N   0  0  0  0  0  0  0  0  0  0  0  0
    2.3640   -4.6650   -8.5590 C   0  0  0  0  0  0  0  0  0  0  0  0
    2.0600   -3.2410   -8.0030 C   0  0  0  0  0  0  0  0  0  0  0  0
    2.0590   -4.9260  -11.0190 C   0  0  0  0  0  0  0  0  0  0  0  0
    2.4310   -4.7720  -12.1550 O   0  0  0  0  0  0  0  0  0  0  0  0
    0.6650   -5.4770  -10.8010 C   0  0  0  0  0  0  0  0  0  0  0  0
   -0.3960   -4.8610  -11.4390 C   0  0  0  0  0  0  0  0  0  0  0  0
   -1.6710   -5.3130  -11.2860 C   0  0  0  0  0  0  0  0  0  0  0  0
   -1.9160   -6.4210  -10.4750 C   0  0  0  0  0  0  0  0  0  0  0  0
   -3.1930   -6.8680  -10.3260 O   0  0  0  0  0  0  0  0  0  0  0  0
   -0.8640   -7.0630   -9.8190 C   0  0  0  0  0  0  0  0  0  0  0  0
   -1.1700   -8.1530   -9.0400 O   0  0  0  0  0  0  0  0  0  0  0  0
   -0.0990   -8.8320   -8.3850 C   0  0  0  0  0  0  0  0  0  0  0  0
    0.4290   -6.5910   -9.9830 C   0  0  0  0  0  0  0  0  0  0  0  0
  2  1  1  0
  3  2  1  0
  4  3  1  0
  5  4  1  0
  6  3  1  0
  7  6  2  0
  8  6  1  0
  9  8  2  0
 10  9  1  0
 11 10  2  0
 12 11  1  0
 13 11  1  0
 14 13  1  0
 15 14  1  0
 16 13  2  0
 16  8  1  0
M  END
$$$$
