4gr0_ligand
     RDKit          3D

 74 77  0  0  0  0  0  0  0  0999 V2000
   13.1700   -1.8670    8.3950 C   0  0  0  0  0  0  0  0  0  0  0  0
   13.2670   -1.1050    9.7130 C   0  0  2  0  0  0  0  0  0  0  0  0
   11.9950   -1.1390   10.4100 N   0  0  0  0  0  0  0  0  0  0  0  0
   11.5120   -2.2790   11.0120 C   0  0  0  0  0  0  0  0  0  0  0  0
   12.1940   -3.2990   11.1190 O   0  0  0  0  0  0  0  0  0  0  0  0
   10.0590   -2.1510   11.5380 C   0  0  2  0  0  0  0  0  0  0  0  0
    9.9200   -2.8930   12.8640 C   0  0  0  0  0  0  0  0  0  0  0  0
    9.1070   -2.6720   10.5600 N   0  0  0  0  0  0  0  0  0  0  0  0
    8.8170   -2.0070    9.3930 C   0  0  0  0  0  0  0  0  0  0  0  0
    9.4410   -1.0120    9.0280 O   0  0  0  0  0  0  0  0  0  0  0  0
    7.6660   -2.6040    8.5880 C   0  0  2  0  0  0  0  0  0  0  0  0
    6.9960   -1.5360    7.7140 C   0  0  0  0  0  0  0  0  0  0  0  0
    7.2650   -1.7130    6.2600 C   0  0  0  0  0  0  0  0  0  0  0  0
    8.2500   -2.3230    5.5230 C   0  0  0  0  0  0  0  0  0  0  0  0
    7.8870   -2.1120    4.1660 C   0  0  0  0  0  0  0  0  0  0  0  0
    8.6070   -2.5240    2.9580 C   0  0  0  0  0  0  0  0  0  0  0  0
    9.3340   -3.7230    2.9340 C   0  0  0  0  0  0  0  0  0  0  0  0
   10.0210   -4.1260    1.7810 C   0  0  0  0  0  0  0  0  0  0  0  0
   10.0000   -3.3460    0.6160 C   0  0  0  0  0  0  0  0  0  0  0  0
   10.7220   -3.7710   -0.5950 C   0  0  0  0  0  0  0  0  0  0  0  0
   10.5240   -3.1120   -1.8210 C   0  0  0  0  0  0  0  0  0  0  0  0
   11.2070   -3.5090   -2.9740 C   0  0  0  0  0  0  0  0  0  0  0  0
   12.1020   -4.5760   -2.9190 C   0  0  0  0  0  0  0  0  0  0  0  0
   12.3090   -5.2370   -1.7120 C   0  0  0  0  0  0  0  0  0  0  0  0
   13.4190   -6.5530   -1.6420 Cl  0  0  0  0  0  0  0  0  0  0  0  0
   11.6280   -4.8440   -0.5590 C   0  0  0  0  0  0  0  0  0  0  0  0
    9.2690   -2.1500    0.6430 C   0  0  0  0  0  0  0  0  0  0  0  0
    8.5830   -1.7430    1.7950 C   0  0  0  0  0  0  0  0  0  0  0  0
    6.7280   -1.4350    4.1030 N   0  0  0  0  0  0  0  0  0  0  0  0
    6.3470   -1.1860    5.4070 O   0  0  0  0  0  0  0  0  0  0  0  0
    6.6550   -3.2340    9.5550 C   0  0  0  0  0  0  0  0  0  0  0  0
    6.3250   -4.9940    9.0780 P   0  0  2  0  0  5  0  0  0  0  0  0
    7.2240   -5.8140    9.9870 O   0  0  0  0  0  0  0  0  0  0  0  0
    6.5570   -5.0310    7.5820 O   0  0  0  0  0  0  0  0  0  0  0  0
    4.5900   -5.2120    9.4880 C   0  0  0  0  0  0  0  0  0  0  0  0
    4.2090   -5.5540   10.7920 C   0  0  0  0  0  0  0  0  0  0  0  0
    2.8630   -5.7380   11.1100 C   0  0  0  0  0  0  0  0  0  0  0  0
    1.8930   -5.5780   10.1210 C   0  0  0  0  0  0  0  0  0  0  0  0
    0.0680   -5.8280   10.5490 Br  0  0  0  0  0  0  0  0  0  0  0  0
    2.2560   -5.2310    8.8200 C   0  0  0  0  0  0  0  0  0  0  0  0
    3.6040   -5.0470    8.5070 C   0  0  0  0  0  0  0  0  0  0  0  0
   13.7110    0.3510    9.4760 C   0  0  0  0  0  0  0  0  0  0  0  0
   12.7740    1.3080    9.7610 N   0  0  0  0  0  0  0  0  0  0  0  0
   14.8100    0.6920    9.0470 O   0  0  0  0  0  0  0  0  0  0  0  0
   13.0335   -2.9390    8.6004 H   0  0  0  0  0  0  0  0  0  0  0  0
   12.3123   -1.4923    7.8171 H   0  0  0  0  0  0  0  0  0  0  0  0
   14.0942   -1.7191    7.8171 H   0  0  0  0  0  0  0  0  0  0  0  0
   14.0264   -1.5966   10.3388 H   0  0  0  0  0  0  0  0  0  0  0  0
   11.3150   -0.4030   10.1920 H   0  0  0  0  0  0  0  0  0  0  0  0
    9.8354   -1.0860   11.6987 H   0  0  0  0  0  0  0  0  0  0  0  0
   10.0525   -2.1854   13.6957 H   0  0  0  0  0  0  0  0  0  0  0  0
    8.9208   -3.3489   12.9261 H   0  0  0  0  0  0  0  0  0  0  0  0
   10.6864   -3.6796   12.9261 H   0  0  0  0  0  0  0  0  0  0  0  0
    8.2910   -3.1730   10.9680 H   0  0  0  0  0  0  0  0  0  0  0  0
    8.0576   -3.3800    7.9138 H   0  0  0  0  0  0  0  0  0  0  0  0
    5.9091   -1.5830    7.8765 H   0  0  0  0  0  0  0  0  0  0  0  0
    7.4166   -0.5629    8.0077 H   0  0  0  0  0  0  0  0  0  0  0  0
    9.1317   -2.8602    5.9024 H   0  0  0  0  0  0  0  0  0  0  0  0
    9.3654   -4.3561    3.8330 H   0  0  0  0  0  0  0  0  0  0  0  0
   10.5860   -5.0698    1.7900 H   0  0  0  0  0  0  0  0  0  0  0  0
    9.8192   -2.2691   -1.8737 H   0  0  0  0  0  0  0  0  0  0  0  0
   11.0384   -2.9800   -3.9236 H   0  0  0  0  0  0  0  0  0  0  0  0
   12.6412   -4.8935   -3.8237 H   0  0  0  0  0  0  0  0  0  0  0  0
   11.8022   -5.3791    0.3862 H   0  0  0  0  0  0  0  0  0  0  0  0
    9.2333   -1.5191   -0.2574 H   0  0  0  0  0  0  0  0  0  0  0  0
    8.0187   -0.7988    1.7862 H   0  0  0  0  0  0  0  0  0  0  0  0
    7.0621   -3.2045   10.5765 H   0  0  0  0  0  0  0  0  0  0  0  0
    5.7134   -2.6671    9.5097 H   0  0  0  0  0  0  0  0  0  0  0  0
    4.9762   -5.6783   11.5704 H   0  0  0  0  0  0  0  0  0  0  0  0
    2.5687   -6.0077   12.1350 H   0  0  0  0  0  0  0  0  0  0  0  0
    1.4853   -5.1031    8.0456 H   0  0  0  0  0  0  0  0  0  0  0  0
    3.8939   -4.7704    7.4826 H   0  0  0  0  0  0  0  0  0  0  0  0
   13.0220    2.2620    9.5370 H   0  0  0  0  0  0  0  0  0  0  0  0
   11.8010    1.0790    9.9070 H   0  0  0  0  0  0  0  0  0  0  0  0
  1  2  1  0
  2  3  1  0
  3  4  1  0
  4  5  2  0
  4  6  1  0
  6  7  1  0
  6  8  1  0
  8  9  1  0
  9 10  2  0
  9 11  1  0
 11 12  1  0
 12 13  1  0
 13 14  2  0
 14 15  1  0
 15 16  1  0
 16 17  2  0
 17 18  1  0
 18 19  2  0
 19 20  1  0
 20 21  2  0
 21 22  1  0
 22 23  2  0
 23 24  1  0
 24 25  1  0
 24 26  2  0
 19 27  1  0
 27 28  2  0
 15 29  2  0
 29 30  1  0
 11 31  1  0
 31 32  1  0
 32 33  2  0
 32 34  1  6
 32 35  1  0
 35 36  2  0
 36 37  1  0
 37 38  2  0
 38 39  1  0
 38 40  1  0
 40 41  2  0
  2 42  1  0
 42 43  1  0
 42 44  2  0
 30 13  1  0
 41 35  1  0
 28 16  1  0
 26 20  1  0
  1 45  1  0
  1 46  1  0
  1 47  1  0
  2 48  1  1
  3 49  1  0
  6 50  1  1
  7 51  1  0
  7 52  1  0
  7 53  1  0
  8 54  1  0
 11 55  1  6
 12 56  1  0
 12 57  1  0
 14 58  1  0
 17 59  1  0
 18 60  1  0
 21 61  1  0
 22 62  1  0
 23 63  1  0
 26 64  1  0
 27 65  1  0
 28 66  1  0
 31 67  1  0
 31 68  1  0
 36 69  1  0
 37 70  1  0
 40 71  1  0
 41 72  1  0
 43 73  1  0
 43 74  1  0
M  CHG  1  34  -1
M  END
>  <meeko>  (1) 
{"is_sidechain": [false], "free_energy": -11.083, "intermolecular_energy": -18.858, "internal_energy": -1.875}

$$$$
4gr0_ligand
     RDKit          3D

 74 77  0  0  0  0  0  0  0  0999 V2000
    1.9180   -5.3270   11.1390 C   0  0  0  0  0  0  0  0  0  0  0  0
    2.7450   -5.8400    9.9640 C   0  0  2  0  0  0  0  0  0  0  0  0
    4.1570   -5.5960   10.1970 N   0  0  0  0  0  0  0  0  0  0  0  0
    4.9360   -6.4370   10.9600 C   0  0  0  0  0  0  0  0  0  0  0  0
    4.5180   -7.5200   11.3700 O   0  0  0  0  0  0  0  0  0  0  0  0
    6.3640   -5.9000   11.2350 C   0  0  2  0  0  0  0  0  0  0  0  0
    6.6070   -5.8170   12.7390 C   0  0  0  0  0  0  0  0  0  0  0  0
    6.5530   -4.5900   10.6160 N   0  0  0  0  0  0  0  0  0  0  0  0
    6.8980   -4.4470    9.2940 C   0  0  0  0  0  0  0  0  0  0  0  0
    6.9310   -5.3970    8.5140 O   0  0  0  0  0  0  0  0  0  0  0  0
    7.2340   -3.0180    8.8740 C   0  0  2  0  0  0  0  0  0  0  0  0
    6.2510   -2.5140    7.8100 C   0  0  0  0  0  0  0  0  0  0  0  0
    6.8820   -2.3060    6.4770 C   0  0  0  0  0  0  0  0  0  0  0  0
    7.4410   -3.1280    5.5300 C   0  0  0  0  0  0  0  0  0  0  0  0
    7.8580   -2.2640    4.4830 C   0  0  0  0  0  0  0  0  0  0  0  0
    8.5480   -2.6120    3.2370 C   0  0  0  0  0  0  0  0  0  0  0  0
    9.2770   -3.8050    3.1340 C   0  0  0  0  0  0  0  0  0  0  0  0
    9.9340   -4.1460    1.9440 C   0  0  0  0  0  0  0  0  0  0  0  0
    9.8810   -3.3080    0.8210 C   0  0  0  0  0  0  0  0  0  0  0  0
   10.5730   -3.6680   -0.4280 C   0  0  0  0  0  0  0  0  0  0  0  0
   10.3480   -2.9420   -1.6110 C   0  0  0  0  0  0  0  0  0  0  0  0
   11.0020   -3.2780   -2.8000 C   0  0  0  0  0  0  0  0  0  0  0  0
   11.8930   -4.3490   -2.8250 C   0  0  0  0  0  0  0  0  0  0  0  0
   12.1260   -5.0760   -1.6610 C   0  0  0  0  0  0  0  0  0  0  0  0
   13.2320   -6.3960   -1.6900 Cl  0  0  0  0  0  0  0  0  0  0  0  0
   11.4740   -4.7440   -0.4720 C   0  0  0  0  0  0  0  0  0  0  0  0
    9.1480   -2.1180    0.9280 C   0  0  0  0  0  0  0  0  0  0  0  0
    8.4910   -1.7730    2.1160 C   0  0  0  0  0  0  0  0  0  0  0  0
    7.5360   -0.9940    4.7840 N   0  0  0  0  0  0  0  0  0  0  0  0
    6.9330   -1.0260    6.0260 O   0  0  0  0  0  0  0  0  0  0  0  0
    8.6760   -2.9780    8.3510 C   0  0  0  0  0  0  0  0  0  0  0  0
    9.8650   -2.8260    9.7640 P   0  0  2  0  0  5  0  0  0  0  0  0
   10.1710   -4.2580   10.1660 O   0  0  0  0  0  0  0  0  0  0  0  0
    9.1650   -1.9160   10.7520 O   0  0  0  0  0  0  0  0  0  0  0  0
   11.2900   -2.0270    9.0170 C   0  0  0  0  0  0  0  0  0  0  0  0
   12.4620   -2.7540    8.7720 C   0  0  0  0  0  0  0  0  0  0  0  0
   13.5750   -2.1330    8.2060 C   0  0  0  0  0  0  0  0  0  0  0  0
   13.5160   -0.7780    7.8810 C   0  0  0  0  0  0  0  0  0  0  0  0
   15.0240    0.0670    7.1120 Br  0  0  0  0  0  0  0  0  0  0  0  0
   12.3550   -0.0420    8.1110 C   0  0  0  0  0  0  0  0  0  0  0  0
   11.2430   -0.6680    8.6770 C   0  0  0  0  0  0  0  0  0  0  0  0
    2.2960   -5.1820    8.6450 C   0  0  0  0  0  0  0  0  0  0  0  0
    0.9890   -5.3910    8.2970 N   0  0  0  0  0  0  0  0  0  0  0  0
    3.0180   -4.5180    7.9070 O   0  0  0  0  0  0  0  0  0  0  0  0
    2.3980   -5.6247   12.0829 H   0  0  0  0  0  0  0  0  0  0  0  0
    1.8533   -4.2300   11.0906 H   0  0  0  0  0  0  0  0  0  0  0  0
    0.9064   -5.7564   11.0906 H   0  0  0  0  0  0  0  0  0  0  0  0
    2.5829   -6.9245    9.8771 H   0  0  0  0  0  0  0  0  0  0  0  0
    4.5030   -4.6420   10.0540 H   0  0  0  0  0  0  0  0  0  0  0  0
    7.0920   -6.5957   10.7923 H   0  0  0  0  0  0  0  0  0  0  0  0
    5.6980   -6.1275   13.2750 H   0  0  0  0  0  0  0  0  0  0  0  0
    7.4394   -6.4818   13.0132 H   0  0  0  0  0  0  0  0  0  0  0  0
    6.8588   -4.7819   13.0132 H   0  0  0  0  0  0  0  0  0  0  0  0
    6.9740   -3.8690   11.2370 H   0  0  0  0  0  0  0  0  0  0  0  0
    7.1437   -2.3517    9.7446 H   0  0  0  0  0  0  0  0  0  0  0  0
    5.4434   -3.2531    7.7026 H   0  0  0  0  0  0  0  0  0  0  0  0
    5.8761   -1.5371    8.1492 H   0  0  0  0  0  0  0  0  0  0  0  0
    7.5439   -4.2223    5.5731 H   0  0  0  0  0  0  0  0  0  0  0  0
    9.3341   -4.4825    3.9987 H   0  0  0  0  0  0  0  0  0  0  0  0
   10.5009   -5.0871    1.8900 H   0  0  0  0  0  0  0  0  0  0  0  0
    9.6456   -2.0955   -1.6007 H   0  0  0  0  0  0  0  0  0  0  0  0
   10.8134   -2.6974   -3.7150 H   0  0  0  0  0  0  0  0  0  0  0  0
   12.4089   -4.6182   -3.7585 H   0  0  0  0  0  0  0  0  0  0  0  0
   11.6678   -5.3304    0.4382 H   0  0  0  0  0  0  0  0  0  0  0  0
    9.0876   -1.4420    0.0623 H   0  0  0  0  0  0  0  0  0  0  0  0
    7.9235   -0.8322    2.1697 H   0  0  0  0  0  0  0  0  0  0  0  0
    8.8872   -3.9042    7.7964 H   0  0  0  0  0  0  0  0  0  0  0  0
    8.7934   -2.1082    7.6879 H   0  0  0  0  0  0  0  0  0  0  0  0
   12.5048   -3.8229    9.0280 H   0  0  0  0  0  0  0  0  0  0  0  0
   14.4935   -2.7081    8.0171 H   0  0  0  0  0  0  0  0  0  0  0  0
   12.3152    1.0254    7.8482 H   0  0  0  0  0  0  0  0  0  0  0  0
   10.3240   -0.0910    8.8573 H   0  0  0  0  0  0  0  0  0  0  0  0
    0.6990   -5.0330    7.3980 H   0  0  0  0  0  0  0  0  0  0  0  0
    0.4200   -6.0940    8.7470 H   0  0  0  0  0  0  0  0  0  0  0  0
  1  2  1  0
  2  3  1  0
  3  4  1  0
  4  5  2  0
  4  6  1  0
  6  7  1  0
  6  8  1  0
  8  9  1  0
  9 10  2  0
  9 11  1  0
 11 12  1  0
 12 13  1  0
 13 14  2  0
 14 15  1  0
 15 16  1  0
 16 17  2  0
 17 18  1  0
 18 19  2  0
 19 20  1  0
 20 21  2  0
 21 22  1  0
 22 23  2  0
 23 24  1  0
 24 25  1  0
 24 26  2  0
 19 27  1  0
 27 28  2  0
 15 29  2  0
 29 30  1  0
 11 31  1  0
 31 32  1  0
 32 33  2  0
 32 34  1  1
 32 35  1  0
 35 36  2  0
 36 37  1  0
 37 38  2  0
 38 39  1  0
 38 40  1  0
 40 41  2  0
  2 42  1  0
 42 43  1  0
 42 44  2  0
 30 13  1  0
 41 35  1  0
 28 16  1  0
 26 20  1  0
  1 45  1  0
  1 46  1  0
  1 47  1  0
  2 48  1  6
  3 49  1  0
  6 50  1  6
  7 51  1  0
  7 52  1  0
  7 53  1  0
  8 54  1  0
 11 55  1  1
 12 56  1  0
 12 57  1  0
 14 58  1  0
 17 59  1  0
 18 60  1  0
 21 61  1  0
 22 62  1  0
 23 63  1  0
 26 64  1  0
 27 65  1  0
 28 66  1  0
 31 67  1  0
 31 68  1  0
 36 69  1  0
 37 70  1  0
 40 71  1  0
 41 72  1  0
 43 73  1  0
 43 74  1  0
M  CHG  1  34  -1
M  END
>  <meeko>  (2) 
{"is_sidechain": [false], "free_energy": -10.979, "intermolecular_energy": -18.988, "internal_energy": -1.567}

$$$$
4gr0_ligand
     RDKit          3D

 74 77  0  0  0  0  0  0  0  0999 V2000
    2.5350   -8.3150    9.0440 C   0  0  0  0  0  0  0  0  0  0  0  0
    2.6430   -6.8090    8.8250 C   0  0  2  0  0  0  0  0  0  0  0  0
    3.5140   -6.2160    9.8230 N   0  0  0  0  0  0  0  0  0  0  0  0
    4.1750   -5.0260    9.6130 C   0  0  0  0  0  0  0  0  0  0  0  0
    3.9560   -4.3230    8.6270 O   0  0  0  0  0  0  0  0  0  0  0  0
    5.1940   -4.6640   10.7250 C   0  0  2  0  0  0  0  0  0  0  0  0
    4.4550   -4.1950   11.9740 C   0  0  0  0  0  0  0  0  0  0  0  0
    6.1190   -3.6320   10.2620 N   0  0  0  0  0  0  0  0  0  0  0  0
    7.4070   -3.9190    9.8810 C   0  0  0  0  0  0  0  0  0  0  0  0
    7.8200   -5.0720    9.7670 O   0  0  0  0  0  0  0  0  0  0  0  0
    8.2790   -2.6960    9.6090 C   0  0  2  0  0  0  0  0  0  0  0  0
    7.5310   -1.6690    8.7500 C   0  0  0  0  0  0  0  0  0  0  0  0
    7.5740   -1.9780    7.2940 C   0  0  0  0  0  0  0  0  0  0  0  0
    8.5730   -2.1470    6.3670 C   0  0  0  0  0  0  0  0  0  0  0  0
    7.9060   -2.4250    5.1440 C   0  0  0  0  0  0  0  0  0  0  0  0
    8.4930   -2.6560    3.8210 C   0  0  0  0  0  0  0  0  0  0  0  0
    8.3360   -1.7120    2.7960 C   0  0  0  0  0  0  0  0  0  0  0  0
    8.8980   -1.9240    1.5300 C   0  0  0  0  0  0  0  0  0  0  0  0
    9.6370   -3.0820    1.2500 C   0  0  0  0  0  0  0  0  0  0  0  0
   10.2280   -3.3030   -0.0810 C   0  0  0  0  0  0  0  0  0  0  0  0
    9.9650   -2.4190   -1.1420 C   0  0  0  0  0  0  0  0  0  0  0  0
   10.5230   -2.6230   -2.4080 C   0  0  0  0  0  0  0  0  0  0  0  0
   11.3560   -3.7170   -2.6320 C   0  0  0  0  0  0  0  0  0  0  0  0
   11.6260   -4.6010   -1.5900 C   0  0  0  0  0  0  0  0  0  0  0  0
   12.6590   -5.9510   -1.8650 Cl  0  0  0  0  0  0  0  0  0  0  0  0
   11.0690   -4.4010   -0.3260 C   0  0  0  0  0  0  0  0  0  0  0  0
    9.7960   -4.0210    2.2790 C   0  0  0  0  0  0  0  0  0  0  0  0
    9.2330   -3.8130    3.5460 C   0  0  0  0  0  0  0  0  0  0  0  0
    6.5770   -2.4490    5.3440 N   0  0  0  0  0  0  0  0  0  0  0  0
    6.3760   -2.1670    6.6810 O   0  0  0  0  0  0  0  0  0  0  0  0
    9.5730   -3.1490    8.9210 C   0  0  0  0  0  0  0  0  0  0  0  0
   11.0100   -2.9660   10.0750 P   0  0  2  0  0  5  0  0  0  0  0  0
   11.5960   -4.3630   10.1860 O   0  0  0  0  0  0  0  0  0  0  0  0
   10.4250   -2.3110   11.3080 O   0  0  0  0  0  0  0  0  0  0  0  0
   12.1090   -1.8550    9.1890 C   0  0  0  0  0  0  0  0  0  0  0  0
   11.6250   -0.6480    8.6660 C   0  0  0  0  0  0  0  0  0  0  0  0
   12.4730    0.2090    7.9650 C   0  0  0  0  0  0  0  0  0  0  0  0
   13.8120   -0.1390    7.7870 C   0  0  0  0  0  0  0  0  0  0  0  0
   14.9640    1.0220    6.8370 Br  0  0  0  0  0  0  0  0  0  0  0  0
   14.3110   -1.3320    8.3070 C   0  0  0  0  0  0  0  0  0  0  0  0
   13.4590   -2.1870    9.0090 C   0  0  0  0  0  0  0  0  0  0  0  0
    1.2530   -6.1470    8.8630 C   0  0  0  0  0  0  0  0  0  0  0  0
    1.0360   -5.1740    7.9230 N   0  0  0  0  0  0  0  0  0  0  0  0
    0.3640   -6.4160    9.6660 O   0  0  0  0  0  0  0  0  0  0  0  0
    2.5197   -8.5284   10.1230 H   0  0  0  0  0  0  0  0  0  0  0  0
    1.6079   -8.6869    8.5835 H   0  0  0  0  0  0  0  0  0  0  0  0
    3.3996   -8.8154    8.5835 H   0  0  0  0  0  0  0  0  0  0  0  0
    3.0772   -6.6360    7.8292 H   0  0  0  0  0  0  0  0  0  0  0  0
    3.8800   -6.8300   10.5580 H   0  0  0  0  0  0  0  0  0  0  0  0
    5.7791   -5.5621   10.9722 H   0  0  0  0  0  0  0  0  0  0  0  0
    4.9944   -4.5373   12.8694 H   0  0  0  0  0  0  0  0  0  0  0  0
    4.4001   -3.0964   11.9767 H   0  0  0  0  0  0  0  0  0  0  0  0
    3.4375   -4.6130   11.9767 H   0  0  0  0  0  0  0  0  0  0  0  0
    6.0200   -2.7110   10.7370 H   0  0  0  0  0  0  0  0  0  0  0  0
    8.5263   -2.2060   10.5623 H   0  0  0  0  0  0  0  0  0  0  0  0
    6.4792   -1.6447    9.0711 H   0  0  0  0  0  0  0  0  0  0  0  0
    8.0297   -0.6990    8.8927 H   0  0  0  0  0  0  0  0  0  0  0  0
    9.6580   -2.0812    6.5355 H   0  0  0  0  0  0  0  0  0  0  0  0
    7.7638   -0.7924    2.9884 H   0  0  0  0  0  0  0  0  0  0  0  0
    8.7569   -1.1690    0.7425 H   0  0  0  0  0  0  0  0  0  0  0  0
    9.3092   -1.5521   -0.9735 H   0  0  0  0  0  0  0  0  0  0  0  0
   10.3045   -1.9206   -3.2259 H   0  0  0  0  0  0  0  0  0  0  0  0
   11.7978   -3.8817   -3.6258 H   0  0  0  0  0  0  0  0  0  0  0  0
   11.2906   -5.1096    0.4856 H   0  0  0  0  0  0  0  0  0  0  0  0
   10.3732   -4.9379    2.0887 H   0  0  0  0  0  0  0  0  0  0  0  0
    9.3741   -4.5677    4.3338 H   0  0  0  0  0  0  0  0  0  0  0  0
    9.4769   -4.2041    8.6251 H   0  0  0  0  0  0  0  0  0  0  0  0
    9.7447   -2.5235    8.0326 H   0  0  0  0  0  0  0  0  0  0  0  0
   10.5691   -0.3749    8.8094 H   0  0  0  0  0  0  0  0  0  0  0  0
   12.0880    1.1542    7.5547 H   0  0  0  0  0  0  0  0  0  0  0  0
   15.3689   -1.5982    8.1653 H   0  0  0  0  0  0  0  0  0  0  0  0
   13.8499   -3.1278    9.4238 H   0  0  0  0  0  0  0  0  0  0  0  0
    0.1590   -4.6770    7.9830 H   0  0  0  0  0  0  0  0  0  0  0  0
    1.7910   -4.7690    7.3880 H   0  0  0  0  0  0  0  0  0  0  0  0
  1  2  1  0
  2  3  1  0
  3  4  1  0
  4  5  2  0
  4  6  1  0
  6  7  1  0
  6  8  1  0
  8  9  1  0
  9 10  2  0
  9 11  1  0
 11 12  1  0
 12 13  1  0
 13 14  2  0
 14 15  1  0
 15 16  1  0
 16 17  2  0
 17 18  1  0
 18 19  2  0
 19 20  1  0
 20 21  2  0
 21 22  1  0
 22 23  2  0
 23 24  1  0
 24 25  1  0
 24 26  2  0
 19 27  1  0
 27 28  2  0
 15 29  2  0
 29 30  1  0
 11 31  1  0
 31 32  1  0
 32 33  2  0
 32 34  1  1
 32 35  1  0
 35 36  2  0
 36 37  1  0
 37 38  2  0
 38 39  1  0
 38 40  1  0
 40 41  2  0
  2 42  1  0
 42 43  1  0
 42 44  2  0
 30 13  1  0
 41 35  1  0
 28 16  1  0
 26 20  1  0
  1 45  1  0
  1 46  1  0
  1 47  1  0
  2 48  1  6
  3 49  1  0
  6 50  1  1
  7 51  1  0
  7 52  1  0
  7 53  1  0
  8 54  1  0
 11 55  1  1
 12 56  1  0
 12 57  1  0
 14 58  1  0
 17 59  1  0
 18 60  1  0
 21 61  1  0
 22 62  1  0
 23 63  1  0
 26 64  1  0
 27 65  1  0
 28 66  1  0
 31 67  1  0
 31 68  1  0
 36 69  1  0
 37 70  1  0
 40 71  1  0
 41 72  1  0
 43 73  1  0
 43 74  1  0
M  CHG  1  34  -1
M  END
>  <meeko>  (3) 
{"is_sidechain": [false], "free_energy": -10.784, "intermolecular_energy": -18.483, "internal_energy": -1.741}

$$$$
4gr0_ligand
     RDKit          3D

 74 77  0  0  0  0  0  0  0  0999 V2000
   12.3500   -0.5970    7.9510 C   0  0  0  0  0  0  0  0  0  0  0  0
   12.8800   -1.1560    9.2680 C   0  0  2  0  0  0  0  0  0  0  0  0
   11.8690   -1.9720    9.9130 N   0  0  0  0  0  0  0  0  0  0  0  0
   11.7580   -3.3260    9.6870 C   0  0  0  0  0  0  0  0  0  0  0  0
   12.5970   -3.9500    9.0370 O   0  0  0  0  0  0  0  0  0  0  0  0
   10.5030   -3.9740   10.3260 C   0  0  2  0  0  0  0  0  0  0  0  0
   10.7700   -5.4470   10.6180 C   0  0  0  0  0  0  0  0  0  0  0  0
    9.3420   -3.8300    9.4500 N   0  0  0  0  0  0  0  0  0  0  0  0
    8.5140   -2.7350    9.5040 C   0  0  0  0  0  0  0  0  0  0  0  0
    8.7720   -1.7450   10.1870 O   0  0  0  0  0  0  0  0  0  0  0  0
    7.2540   -2.8460    8.6490 C   0  0  2  0  0  0  0  0  0  0  0  0
    7.0330   -1.5680    7.8310 C   0  0  0  0  0  0  0  0  0  0  0  0
    7.2870   -1.7500    6.3750 C   0  0  0  0  0  0  0  0  0  0  0  0
    8.2620   -2.3670    5.6310 C   0  0  0  0  0  0  0  0  0  0  0  0
    7.8890   -2.1570    4.2770 C   0  0  0  0  0  0  0  0  0  0  0  0
    8.5960   -2.5760    3.0630 C   0  0  0  0  0  0  0  0  0  0  0  0
    8.5720   -1.7780    1.9110 C   0  0  0  0  0  0  0  0  0  0  0  0
    9.2500   -2.1700    0.7490 C   0  0  0  0  0  0  0  0  0  0  0  0
    9.9750   -3.3690    0.7030 C   0  0  0  0  0  0  0  0  0  0  0  0
   10.6870   -3.7790   -0.5190 C   0  0  0  0  0  0  0  0  0  0  0  0
   10.4680   -3.1160   -1.7390 C   0  0  0  0  0  0  0  0  0  0  0  0
   11.1410   -3.5010   -2.9020 C   0  0  0  0  0  0  0  0  0  0  0  0
   12.0480   -4.5580   -2.8630 C   0  0  0  0  0  0  0  0  0  0  0  0
   12.2760   -5.2240   -1.6610 C   0  0  0  0  0  0  0  0  0  0  0  0
   13.4000   -6.5270   -1.6110 Cl  0  0  0  0  0  0  0  0  0  0  0  0
   11.6040   -4.8430   -0.4990 C   0  0  0  0  0  0  0  0  0  0  0  0
   10.0000   -4.1620    1.8590 C   0  0  0  0  0  0  0  0  0  0  0  0
    9.3220   -3.7740    3.0220 C   0  0  0  0  0  0  0  0  0  0  0  0
    6.7320   -1.4750    4.2230 N   0  0  0  0  0  0  0  0  0  0  0  0
    6.3640   -1.2210    5.5290 O   0  0  0  0  0  0  0  0  0  0  0  0
    6.0550   -3.1280    9.5630 C   0  0  0  0  0  0  0  0  0  0  0  0
    5.1370   -4.6240    8.9710 P   0  0  2  0  0  5  0  0  0  0  0  0
    5.7360   -4.9300    7.6100 O   0  0  0  0  0  0  0  0  0  0  0  0
    3.6760   -4.2350    9.0640 O   0  0  0  0  0  0  0  0  0  0  0  0
    5.5700   -5.8770   10.1830 C   0  0  0  0  0  0  0  0  0  0  0  0
    6.9100   -6.0970   10.5270 C   0  0  0  0  0  0  0  0  0  0  0  0
    7.2500   -7.0790   11.4580 C   0  0  0  0  0  0  0  0  0  0  0  0
    6.2460   -7.8450   12.0480 C   0  0  0  0  0  0  0  0  0  0  0  0
    6.7040   -9.1780   13.3100 Br  0  0  0  0  0  0  0  0  0  0  0  0
    4.9070   -7.6350   11.7230 C   0  0  0  0  0  0  0  0  0  0  0  0
    4.5710   -6.6500   10.7920 C   0  0  0  0  0  0  0  0  0  0  0  0
   13.3330   -0.0200   10.2060 C   0  0  0  0  0  0  0  0  0  0  0  0
   12.9350    1.2390    9.8420 N   0  0  0  0  0  0  0  0  0  0  0  0
   14.0170   -0.1680   11.2140 O   0  0  0  0  0  0  0  0  0  0  0  0
   11.6067    0.1870    8.1581 H   0  0  0  0  0  0  0  0  0  0  0  0
   13.1824   -0.1695    7.3727 H   0  0  0  0  0  0  0  0  0  0  0  0
   11.8788   -1.4054    7.3727 H   0  0  0  0  0  0  0  0  0  0  0  0
   13.7541   -1.7860    9.0466 H   0  0  0  0  0  0  0  0  0  0  0  0
   11.0470   -1.4950   10.2960 H   0  0  0  0  0  0  0  0  0  0  0  0
   10.2837   -3.4561   11.2714 H   0  0  0  0  0  0  0  0  0  0  0  0
   10.7988   -5.6057   11.7061 H   0  0  0  0  0  0  0  0  0  0  0  0
    9.9682   -6.0590   10.1792 H   0  0  0  0  0  0  0  0  0  0  0  0
   11.7356   -5.7386   10.1792 H   0  0  0  0  0  0  0  0  0  0  0  0
    8.8460   -4.7180    9.2320 H   0  0  0  0  0  0  0  0  0  0  0  0
    7.3694   -3.6747    7.9349 H   0  0  0  0  0  0  0  0  0  0  0  0
    5.9908   -1.2429    7.9658 H   0  0  0  0  0  0  0  0  0  0  0  0
    7.7510   -0.8189    8.1961 H   0  0  0  0  0  0  0  0  0  0  0  0
    9.1439   -2.9084    6.0041 H   0  0  0  0  0  0  0  0  0  0  0  0
    8.0131   -0.8306    1.9192 H   0  0  0  0  0  0  0  0  0  0  0  0
    9.2127   -1.5261   -0.1421 H   0  0  0  0  0  0  0  0  0  0  0  0
    9.7546   -2.2797   -1.7791 H   0  0  0  0  0  0  0  0  0  0  0  0
   10.9548   -2.9700   -3.8472 H   0  0  0  0  0  0  0  0  0  0  0  0
   12.5805   -4.8645   -3.7754 H   0  0  0  0  0  0  0  0  0  0  0  0
   11.7941   -5.3808    0.4415 H   0  0  0  0  0  0  0  0  0  0  0  0
   10.5628   -5.1071    1.8527 H   0  0  0  0  0  0  0  0  0  0  0  0
    9.3600   -4.4173    3.9135 H   0  0  0  0  0  0  0  0  0  0  0  0
    6.4130   -3.3035   10.5882 H   0  0  0  0  0  0  0  0  0  0  0  0
    5.3781   -2.2611    9.5448 H   0  0  0  0  0  0  0  0  0  0  0  0
    7.7001   -5.4910   10.0596 H   0  0  0  0  0  0  0  0  0  0  0  0
    8.3038   -7.2476   11.7247 H   0  0  0  0  0  0  0  0  0  0  0  0
    4.1205   -8.2409   12.1966 H   0  0  0  0  0  0  0  0  0  0  0  0
    3.5153   -6.4792   10.5345 H   0  0  0  0  0  0  0  0  0  0  0  0
   13.2880    2.0020   10.4020 H   0  0  0  0  0  0  0  0  0  0  0  0
   12.5630    1.4390    8.9250 H   0  0  0  0  0  0  0  0  0  0  0  0
  1  2  1  0
  2  3  1  0
  3  4  1  0
  4  5  2  0
  4  6  1  0
  6  7  1  0
  6  8  1  0
  8  9  1  0
  9 10  2  0
  9 11  1  0
 11 12  1  0
 12 13  1  0
 13 14  2  0
 14 15  1  0
 15 16  1  0
 16 17  2  0
 17 18  1  0
 18 19  2  0
 19 20  1  0
 20 21  2  0
 21 22  1  0
 22 23  2  0
 23 24  1  0
 24 25  1  0
 24 26  2  0
 19 27  1  0
 27 28  2  0
 15 29  2  0
 29 30  1  0
 11 31  1  0
 31 32  1  0
 32 33  2  0
 32 34  1  6
 32 35  1  0
 35 36  2  0
 36 37  1  0
 37 38  2  0
 38 39  1  0
 38 40  1  0
 40 41  2  0
  2 42  1  0
 42 43  1  0
 42 44  2  0
 30 13  1  0
 41 35  1  0
 28 16  1  0
 26 20  1  0
  1 45  1  0
  1 46  1  0
  1 47  1  0
  2 48  1  6
  3 49  1  0
  6 50  1  1
  7 51  1  0
  7 52  1  0
  7 53  1  0
  8 54  1  0
 11 55  1  6
 12 56  1  0
 12 57  1  0
 14 58  1  0
 17 59  1  0
 18 60  1  0
 21 61  1  0
 22 62  1  0
 23 63  1  0
 26 64  1  0
 27 65  1  0
 28 66  1  0
 31 67  1  0
 31 68  1  0
 36 69  1  0
 37 70  1  0
 40 71  1  0
 41 72  1  0
 43 73  1  0
 43 74  1  0
M  CHG  1  34  -1
M  END
>  <meeko>  (4) 
{"is_sidechain": [false], "free_energy": -10.761, "intermolecular_energy": -17.812, "internal_energy": -2.373}

$$$$
4gr0_ligand
     RDKit          3D

 74 77  0  0  0  0  0  0  0  0999 V2000
   12.8390   -0.5530   12.5880 C   0  0  0  0  0  0  0  0  0  0  0  0
   12.0570   -1.7750   12.1170 C   0  0  2  0  0  0  0  0  0  0  0  0
   11.7830   -1.6810   10.6960 N   0  0  0  0  0  0  0  0  0  0  0  0
   11.8510   -2.7710    9.8560 C   0  0  0  0  0  0  0  0  0  0  0  0
   12.0060   -3.9150   10.2840 O   0  0  0  0  0  0  0  0  0  0  0  0
   11.7050   -2.4220    8.3530 C   0  0  2  0  0  0  0  0  0  0  0  0
   12.0800   -0.9620    8.1200 C   0  0  0  0  0  0  0  0  0  0  0  0
   10.3420   -2.6780    7.8920 N   0  0  0  0  0  0  0  0  0  0  0  0
    9.2540   -2.0350    8.4290 C   0  0  0  0  0  0  0  0  0  0  0  0
    9.3640   -1.1040    9.2260 O   0  0  0  0  0  0  0  0  0  0  0  0
    7.9020   -2.5640    7.9570 C   0  0  2  0  0  0  0  0  0  0  0  0
    7.2180   -1.5620    7.0180 C   0  0  0  0  0  0  0  0  0  0  0  0
    7.5220   -1.8020    5.5800 C   0  0  0  0  0  0  0  0  0  0  0  0
    8.5000   -2.4820    4.8950 C   0  0  0  0  0  0  0  0  0  0  0  0
    8.1900   -2.3020    3.5210 C   0  0  0  0  0  0  0  0  0  0  0  0
    8.9260   -2.7880    2.3520 C   0  0  0  0  0  0  0  0  0  0  0  0
    8.9160   -2.0670    1.1500 C   0  0  0  0  0  0  0  0  0  0  0  0
    9.6220   -2.5230    0.0290 C   0  0  0  0  0  0  0  0  0  0  0  0
   10.3630   -3.7130    0.0750 C   0  0  0  0  0  0  0  0  0  0  0  0
   11.1040   -4.1920   -1.1040 C   0  0  0  0  0  0  0  0  0  0  0  0
   10.7570   -3.7640   -2.3970 C   0  0  0  0  0  0  0  0  0  0  0  0
   11.4580   -4.2150   -3.5200 C   0  0  0  0  0  0  0  0  0  0  0  0
   12.5200   -5.1030   -3.3660 C   0  0  0  0  0  0  0  0  0  0  0  0
   12.8760   -5.5350   -2.0910 C   0  0  0  0  0  0  0  0  0  0  0  0
   14.1920   -6.6290   -1.9000 Cl  0  0  0  0  0  0  0  0  0  0  0  0
   12.1770   -5.0880   -0.9680 C   0  0  0  0  0  0  0  0  0  0  0  0
   10.3740   -4.4300    1.2800 C   0  0  0  0  0  0  0  0  0  0  0  0
    9.6670   -3.9770    2.4020 C   0  0  0  0  0  0  0  0  0  0  0  0
    7.0660   -1.5740    3.3990 N   0  0  0  0  0  0  0  0  0  0  0  0
    6.6580   -1.2630    4.6810 O   0  0  0  0  0  0  0  0  0  0  0  0
    7.0250   -2.8560    9.1810 C   0  0  0  0  0  0  0  0  0  0  0  0
    6.6770   -4.6720    9.3000 P   0  0  2  0  0  5  0  0  0  0  0  0
    7.8150   -5.2280   10.1370 O   0  0  0  0  0  0  0  0  0  0  0  0
    6.5270   -5.1250    7.8630 O   0  0  0  0  0  0  0  0  0  0  0  0
    5.1140   -4.7320   10.1840 C   0  0  0  0  0  0  0  0  0  0  0  0
    4.9650   -4.0660   11.4070 C   0  0  0  0  0  0  0  0  0  0  0  0
    3.7570   -4.1230   12.1020 C   0  0  0  0  0  0  0  0  0  0  0  0
    2.6910   -4.8490   11.5710 C   0  0  0  0  0  0  0  0  0  0  0  0
    1.0520   -4.9290   12.5120 Br  0  0  0  0  0  0  0  0  0  0  0  0
    2.8200   -5.5130   10.3520 C   0  0  0  0  0  0  0  0  0  0  0  0
    4.0300   -5.4510    9.6590 C   0  0  0  0  0  0  0  0  0  0  0  0
   10.7440   -1.9270   12.9090 C   0  0  0  0  0  0  0  0  0  0  0  0
    9.6390   -2.2450   12.1640 N   0  0  0  0  0  0  0  0  0  0  0  0
   10.6290   -1.7700   14.1210 O   0  0  0  0  0  0  0  0  0  0  0  0
   12.8544   -0.5290   13.6876 H   0  0  0  0  0  0  0  0  0  0  0  0
   13.8698   -0.6085   12.2080 H   0  0  0  0  0  0  0  0  0  0  0  0
   12.3568    0.3597   12.2080 H   0  0  0  0  0  0  0  0  0  0  0  0
   12.6722   -2.6684   12.2999 H   0  0  0  0  0  0  0  0  0  0  0  0
   11.8410   -0.7550   10.2620 H   0  0  0  0  0  0  0  0  0  0  0  0
   12.3873   -3.0631    7.7755 H   0  0  0  0  0  0  0  0  0  0  0  0
   12.2096   -0.4576    9.0889 H   0  0  0  0  0  0  0  0  0  0  0  0
   13.0203   -0.9112    7.5515 H   0  0  0  0  0  0  0  0  0  0  0  0
   11.2805   -0.4643    7.5515 H   0  0  0  0  0  0  0  0  0  0  0  0
   10.1500   -3.6640    7.6190 H   0  0  0  0  0  0  0  0  0  0  0  0
    8.0536   -3.4934    7.3884 H   0  0  0  0  0  0  0  0  0  0  0  0
    6.1299   -1.6349    7.1620 H   0  0  0  0  0  0  0  0  0  0  0  0
    7.6028   -0.5629    7.2706 H   0  0  0  0  0  0  0  0  0  0  0  0
    9.3434   -3.0457    5.3204 H   0  0  0  0  0  0  0  0  0  0  0  0
    8.3452   -1.1289    1.0858 H   0  0  0  0  0  0  0  0  0  0  0  0
    9.5947   -1.9383   -0.9023 H   0  0  0  0  0  0  0  0  0  0  0  0
    9.9199   -3.0625   -2.5279 H   0  0  0  0  0  0  0  0  0  0  0  0
   11.1710   -3.8688   -4.5239 H   0  0  0  0  0  0  0  0  0  0  0  0
   13.0741   -5.4609   -4.2463 H   0  0  0  0  0  0  0  0  0  0  0  0
   12.4693   -5.4407    0.0321 H   0  0  0  0  0  0  0  0  0  0  0  0
   10.9485   -5.3658    1.3458 H   0  0  0  0  0  0  0  0  0  0  0  0
    9.6938   -4.5616    3.3334 H   0  0  0  0  0  0  0  0  0  0  0  0
    7.5487   -2.5260   10.0903 H   0  0  0  0  0  0  0  0  0  0  0  0
    6.0733   -2.3141    9.0782 H   0  0  0  0  0  0  0  0  0  0  0  0
    5.8072   -3.4935   11.8227 H   0  0  0  0  0  0  0  0  0  0  0  0
    3.6458   -3.5988   13.0626 H   0  0  0  0  0  0  0  0  0  0  0  0
    1.9739   -6.0819    9.9391 H   0  0  0  0  0  0  0  0  0  0  0  0
    4.1343   -5.9695    8.6945 H   0  0  0  0  0  0  0  0  0  0  0  0
    8.7570   -2.2710   12.6560 H   0  0  0  0  0  0  0  0  0  0  0  0
    9.6330   -2.1730   11.1570 H   0  0  0  0  0  0  0  0  0  0  0  0
  1  2  1  0
  2  3  1  0
  3  4  1  0
  4  5  2  0
  4  6  1  0
  6  7  1  0
  6  8  1  0
  8  9  1  0
  9 10  2  0
  9 11  1  0
 11 12  1  0
 12 13  1  0
 13 14  2  0
 14 15  1  0
 15 16  1  0
 16 17  2  0
 17 18  1  0
 18 19  2  0
 19 20  1  0
 20 21  2  0
 21 22  1  0
 22 23  2  0
 23 24  1  0
 24 25  1  0
 24 26  2  0
 19 27  1  0
 27 28  2  0
 15 29  2  0
 29 30  1  0
 11 31  1  0
 31 32  1  0
 32 33  2  0
 32 34  1  6
 32 35  1  0
 35 36  2  0
 36 37  1  0
 37 38  2  0
 38 39  1  0
 38 40  1  0
 40 41  2  0
  2 42  1  0
 42 43  1  0
 42 44  2  0
 30 13  1  0
 41 35  1  0
 28 16  1  0
 26 20  1  0
  1 45  1  0
  1 46  1  0
  1 47  1  0
  2 48  1  6
  3 49  1  0
  6 50  1  6
  7 51  1  0
  7 52  1  0
  7 53  1  0
  8 54  1  0
 11 55  1  6
 12 56  1  0
 12 57  1  0
 14 58  1  0
 17 59  1  0
 18 60  1  0
 21 61  1  0
 22 62  1  0
 23 63  1  0
 26 64  1  0
 27 65  1  0
 28 66  1  0
 31 67  1  0
 31 68  1  0
 36 69  1  0
 37 70  1  0
 40 71  1  0
 41 72  1  0
 43 73  1  0
 43 74  1  0
M  CHG  1  34  -1
M  END
>  <meeko>  (5) 
{"is_sidechain": [false], "free_energy": -10.744, "intermolecular_energy": -18.502, "internal_energy": -1.654}

$$$$
4gr0_ligand
     RDKit          3D

 74 77  0  0  0  0  0  0  0  0999 V2000
   13.3290   -5.7150   13.0360 C   0  0  0  0  0  0  0  0  0  0  0  0
   13.0090   -5.1610   11.6520 C   0  0  2  0  0  0  0  0  0  0  0  0
   11.7940   -4.3690   11.6940 N   0  0  0  0  0  0  0  0  0  0  0  0
   11.6550   -3.1900   10.9950 C   0  0  0  0  0  0  0  0  0  0  0  0
   12.4970   -2.8120   10.1810 O   0  0  0  0  0  0  0  0  0  0  0  0
   10.3560   -2.4100   11.3230 C   0  0  2  0  0  0  0  0  0  0  0  0
    9.9630   -2.6420   12.7780 C   0  0  0  0  0  0  0  0  0  0  0  0
    9.2720   -2.8130   10.4310 N   0  0  0  0  0  0  0  0  0  0  0  0
    8.8380   -2.0190    9.3980 C   0  0  0  0  0  0  0  0  0  0  0  0
    9.4230   -0.9890    9.0660 O   0  0  0  0  0  0  0  0  0  0  0  0
    7.5780   -2.5180    8.6950 C   0  0  2  0  0  0  0  0  0  0  0  0
    6.9760   -1.4230    7.8050 C   0  0  0  0  0  0  0  0  0  0  0  0
    7.2340   -1.6370    6.3530 C   0  0  0  0  0  0  0  0  0  0  0  0
    8.2350   -2.2300    5.6230 C   0  0  0  0  0  0  0  0  0  0  0  0
    7.8480   -2.0780    4.2650 C   0  0  0  0  0  0  0  0  0  0  0  0
    8.5700   -2.5000    3.0620 C   0  0  0  0  0  0  0  0  0  0  0  0
    9.2900   -3.7030    3.0460 C   0  0  0  0  0  0  0  0  0  0  0  0
    9.9780   -4.1160    1.8980 C   0  0  0  0  0  0  0  0  0  0  0  0
    9.9660   -3.3410    0.7290 C   0  0  0  0  0  0  0  0  0  0  0  0
   10.6900   -3.7760   -0.4780 C   0  0  0  0  0  0  0  0  0  0  0  0
   10.4880   -3.1320   -1.7110 C   0  0  0  0  0  0  0  0  0  0  0  0
   11.1730   -3.5390   -2.8600 C   0  0  0  0  0  0  0  0  0  0  0  0
   12.0730   -4.6000   -2.7930 C   0  0  0  0  0  0  0  0  0  0  0  0
   12.2840   -5.2470   -1.5780 C   0  0  0  0  0  0  0  0  0  0  0  0
   13.4010   -6.5550   -1.4940 Cl  0  0  0  0  0  0  0  0  0  0  0  0
   11.6010   -4.8440   -0.4300 C   0  0  0  0  0  0  0  0  0  0  0  0
    9.2410   -2.1410    0.7470 C   0  0  0  0  0  0  0  0  0  0  0  0
    8.5540   -1.7250    1.8950 C   0  0  0  0  0  0  0  0  0  0  0  0
    6.6620   -1.4500    4.1970 N   0  0  0  0  0  0  0  0  0  0  0  0
    6.2870   -1.1750    5.4970 O   0  0  0  0  0  0  0  0  0  0  0  0
    6.5680   -2.9830    9.7510 C   0  0  0  0  0  0  0  0  0  0  0  0
    6.2060   -4.7880    9.5400 P   0  0  2  0  0  5  0  0  0  0  0  0
    7.2680   -5.4940   10.3640 O   0  0  0  0  0  0  0  0  0  0  0  0
    6.1770   -4.9960    8.0400 O   0  0  0  0  0  0  0  0  0  0  0  0
    4.5740   -4.9670   10.2680 C   0  0  0  0  0  0  0  0  0  0  0  0
    4.2120   -4.2100   11.3900 C   0  0  0  0  0  0  0  0  0  0  0  0
    2.9500   -4.3580   11.9660 C   0  0  0  0  0  0  0  0  0  0  0  0
    2.0440   -5.2650   11.4170 C   0  0  0  0  0  0  0  0  0  0  0  0
    0.3330   -5.4680   12.1960 Br  0  0  0  0  0  0  0  0  0  0  0  0
    2.3860   -6.0210   10.2960 C   0  0  0  0  0  0  0  0  0  0  0  0
    3.6490   -5.8690    9.7220 C   0  0  0  0  0  0  0  0  0  0  0  0
   12.8730   -6.2980   10.6210 C   0  0  0  0  0  0  0  0  0  0  0  0
   12.2280   -5.9680    9.4590 N   0  0  0  0  0  0  0  0  0  0  0  0
   13.2800   -7.4460   10.7800 O   0  0  0  0  0  0  0  0  0  0  0  0
   12.9351   -5.0331   13.8040 H   0  0  0  0  0  0  0  0  0  0  0  0
   12.8637   -6.7050   13.1512 H   0  0  0  0  0  0  0  0  0  0  0  0
   14.4191   -5.8066   13.1512 H   0  0  0  0  0  0  0  0  0  0  0  0
   13.8425   -4.5143   11.3405 H   0  0  0  0  0  0  0  0  0  0  0  0
   11.1560   -4.5220   12.4810 H   0  0  0  0  0  0  0  0  0  0  0  0
   10.5427   -1.3367   11.1710 H   0  0  0  0  0  0  0  0  0  0  0  0
   10.7207   -2.1947   13.4382 H   0  0  0  0  0  0  0  0  0  0  0  0
    8.9858   -2.1759   12.9727 H   0  0  0  0  0  0  0  0  0  0  0  0
    9.8990   -3.7227   12.9727 H   0  0  0  0  0  0  0  0  0  0  0  0
    8.5100   -3.3570   10.8860 H   0  0  0  0  0  0  0  0  0  0  0  0
    7.8371   -3.3644    8.0419 H   0  0  0  0  0  0  0  0  0  0  0  0
    5.8882   -1.4000    7.9669 H   0  0  0  0  0  0  0  0  0  0  0  0
    7.4563   -0.4739    8.0853 H   0  0  0  0  0  0  0  0  0  0  0  0
    9.1424   -2.7183    6.0079 H   0  0  0  0  0  0  0  0  0  0  0  0
    9.3149   -4.3317    3.9483 H   0  0  0  0  0  0  0  0  0  0  0  0
   10.5367   -5.0634    1.9135 H   0  0  0  0  0  0  0  0  0  0  0  0
    9.7788   -2.2934   -1.7730 H   0  0  0  0  0  0  0  0  0  0  0  0
   11.0014   -3.0220   -3.8156 H   0  0  0  0  0  0  0  0  0  0  0  0
   12.6137   -4.9248   -3.6942 H   0  0  0  0  0  0  0  0  0  0  0  0
   11.7776   -5.3674    0.5212 H   0  0  0  0  0  0  0  0  0  0  0  0
    9.2111   -1.5147   -0.1568 H   0  0  0  0  0  0  0  0  0  0  0  0
    7.9949   -0.7778    1.8799 H   0  0  0  0  0  0  0  0  0  0  0  0
    6.9859   -2.8111   10.7539 H   0  0  0  0  0  0  0  0  0  0  0  0
    5.6347   -2.4134    9.6301 H   0  0  0  0  0  0  0  0  0  0  0  0
    4.9279   -3.4939   11.8198 H   0  0  0  0  0  0  0  0  0  0  0  0
    2.6712   -3.7628   12.8480 H   0  0  0  0  0  0  0  0  0  0  0  0
    1.6650   -6.7324    9.8671 H   0  0  0  0  0  0  0  0  0  0  0  0
    3.9209   -6.4606    8.8354 H   0  0  0  0  0  0  0  0  0  0  0  0
   12.0620   -6.7210    8.8060 H   0  0  0  0  0  0  0  0  0  0  0  0
   11.6930   -5.1170    9.3670 H   0  0  0  0  0  0  0  0  0  0  0  0
  1  2  1  0
  2  3  1  0
  3  4  1  0
  4  5  2  0
  4  6  1  0
  6  7  1  0
  6  8  1  0
  8  9  1  0
  9 10  2  0
  9 11  1  0
 11 12  1  0
 12 13  1  0
 13 14  2  0
 14 15  1  0
 15 16  1  0
 16 17  2  0
 17 18  1  0
 18 19  2  0
 19 20  1  0
 20 21  2  0
 21 22  1  0
 22 23  2  0
 23 24  1  0
 24 25  1  0
 24 26  2  0
 19 27  1  0
 27 28  2  0
 15 29  2  0
 29 30  1  0
 11 31  1  0
 31 32  1  0
 32 33  2  0
 32 34  1  6
 32 35  1  0
 35 36  2  0
 36 37  1  0
 37 38  2  0
 38 39  1  0
 38 40  1  0
 40 41  2  0
  2 42  1  0
 42 43  1  0
 42 44  2  0
 30 13  1  0
 41 35  1  0
 28 16  1  0
 26 20  1  0
  1 45  1  0
  1 46  1  0
  1 47  1  0
  2 48  1  6
  3 49  1  0
  6 50  1  1
  7 51  1  0
  7 52  1  0
  7 53  1  0
  8 54  1  0
 11 55  1  6
 12 56  1  0
 12 57  1  0
 14 58  1  0
 17 59  1  0
 18 60  1  0
 21 61  1  0
 22 62  1  0
 23 63  1  0
 26 64  1  0
 27 65  1  0
 28 66  1  0
 31 67  1  0
 31 68  1  0
 36 69  1  0
 37 70  1  0
 40 71  1  0
 41 72  1  0
 43 73  1  0
 43 74  1  0
M  CHG  1  34  -1
M  END
>  <meeko>  (6) 
{"is_sidechain": [false], "free_energy": -10.573, "intermolecular_energy": -17.796, "internal_energy": -2.07}

$$$$
4gr0_ligand
     RDKit          3D

 74 77  0  0  0  0  0  0  0  0999 V2000
    3.1890   -4.3840   15.3300 C   0  0  0  0  0  0  0  0  0  0  0  0
    2.8370   -4.8150   13.9090 C   0  0  2  0  0  0  0  0  0  0  0  0
    4.0380   -4.9210   13.1020 N   0  0  0  0  0  0  0  0  0  0  0  0
    4.1590   -5.8250   12.0710 C   0  0  0  0  0  0  0  0  0  0  0  0
    3.2060   -6.4990   11.6800 O   0  0  0  0  0  0  0  0  0  0  0  0
    5.5820   -5.9030   11.4600 C   0  0  2  0  0  0  0  0  0  0  0  0
    6.6050   -6.1780   12.5580 C   0  0  0  0  0  0  0  0  0  0  0  0
    5.9110   -4.6650   10.7570 N   0  0  0  0  0  0  0  0  0  0  0  0
    6.8280   -4.6240    9.7350 C   0  0  0  0  0  0  0  0  0  0  0  0
    7.3230   -5.6400    9.2510 O   0  0  0  0  0  0  0  0  0  0  0  0
    7.1790   -3.2200    9.2490 C   0  0  2  0  0  0  0  0  0  0  0  0
    6.1620   -2.7290    8.2110 C   0  0  0  0  0  0  0  0  0  0  0  0
    6.7670   -2.4620    6.8760 C   0  0  0  0  0  0  0  0  0  0  0  0
    7.3230   -3.2400    5.8900 C   0  0  0  0  0  0  0  0  0  0  0  0
    7.7080   -2.3310    4.8690 C   0  0  0  0  0  0  0  0  0  0  0  0
    8.3820   -2.6220    3.6000 C   0  0  0  0  0  0  0  0  0  0  0  0
    8.2880   -1.7310    2.5210 C   0  0  0  0  0  0  0  0  0  0  0  0
    8.9330   -2.0000    1.3070 C   0  0  0  0  0  0  0  0  0  0  0  0
    9.6950   -3.1650    1.1340 C   0  0  0  0  0  0  0  0  0  0  0  0
   10.3730   -3.4460   -0.1430 C   0  0  0  0  0  0  0  0  0  0  0  0
   10.1750   -2.6190   -1.2620 C   0  0  0  0  0  0  0  0  0  0  0  0
   10.8160   -2.8810   -2.4770 C   0  0  0  0  0  0  0  0  0  0  0  0
   11.6680   -3.9770   -2.5910 C   0  0  0  0  0  0  0  0  0  0  0  0
   11.8740   -4.8050   -1.4900 C   0  0  0  0  0  0  0  0  0  0  0  0
   12.9310   -6.1570   -1.6290 Cl  0  0  0  0  0  0  0  0  0  0  0  0
   11.2340   -4.5470   -0.2770 C   0  0  0  0  0  0  0  0  0  0  0  0
    9.7890   -4.0510    2.2170 C   0  0  0  0  0  0  0  0  0  0  0  0
    9.1430   -3.7860    3.4320 C   0  0  0  0  0  0  0  0  0  0  0  0
    7.3690   -1.0790    5.2210 N   0  0  0  0  0  0  0  0  0  0  0  0
    6.7880   -1.1660    6.4710 O   0  0  0  0  0  0  0  0  0  0  0  0
    8.5970   -3.2350    8.6640 C   0  0  0  0  0  0  0  0  0  0  0  0
    9.8460   -2.9810   10.0080 P   0  0  2  0  0  5  0  0  0  0  0  0
   10.2590   -4.3830   10.4200 O   0  0  0  0  0  0  0  0  0  0  0  0
    9.1450   -2.0920   11.0150 O   0  0  0  0  0  0  0  0  0  0  0  0
   11.1800   -2.1160    9.1720 C   0  0  0  0  0  0  0  0  0  0  0  0
   11.0780   -0.7430    8.9090 C   0  0  0  0  0  0  0  0  0  0  0  0
   12.1060   -0.0720    8.2460 C   0  0  0  0  0  0  0  0  0  0  0  0
   13.2420   -0.7750    7.8460 C   0  0  0  0  0  0  0  0  0  0  0  0
   14.6370    0.1320    6.9470 Br  0  0  0  0  0  0  0  0  0  0  0  0
   13.3620   -2.1400    8.1070 C   0  0  0  0  0  0  0  0  0  0  0  0
   12.3310   -2.8070    8.7710 C   0  0  0  0  0  0  0  0  0  0  0  0
    1.8420   -3.8300   13.2660 C   0  0  0  0  0  0  0  0  0  0  0  0
    2.1580   -2.5030   13.3940 N   0  0  0  0  0  0  0  0  0  0  0  0
    0.8120   -4.1500   12.6800 O   0  0  0  0  0  0  0  0  0  0  0  0
    2.6627   -5.0284   16.0496 H   0  0  0  0  0  0  0  0  0  0  0  0
    4.2746   -4.4746   15.4823 H   0  0  0  0  0  0  0  0  0  0  0  0
    2.8834   -3.3384   15.4823 H   0  0  0  0  0  0  0  0  0  0  0  0
    2.3565   -5.8033   13.9584 H   0  0  0  0  0  0  0  0  0  0  0  0
    4.9060   -4.5400   13.4920 H   0  0  0  0  0  0  0  0  0  0  0  0
    5.6073   -6.7278   10.7326 H   0  0  0  0  0  0  0  0  0  0  0  0
    6.1301   -6.0503   13.5419 H   0  0  0  0  0  0  0  0  0  0  0  0
    6.9781   -7.2083   12.4618 H   0  0  0  0  0  0  0  0  0  0  0  0
    7.4444   -5.4736   12.4618 H   0  0  0  0  0  0  0  0  0  0  0  0
    5.9100   -3.8100   11.3510 H   0  0  0  0  0  0  0  0  0  0  0  0
    7.1429   -2.5210   10.0976 H   0  0  0  0  0  0  0  0  0  0  0  0
    5.3832   -3.4970    8.0944 H   0  0  0  0  0  0  0  0  0  0  0  0
    5.7524   -1.7772    8.5801 H   0  0  0  0  0  0  0  0  0  0  0  0
    7.4442   -4.3333    5.8910 H   0  0  0  0  0  0  0  0  0  0  0  0
    7.6995   -0.8080    2.6296 H   0  0  0  0  0  0  0  0  0  0  0  0
    8.8404   -1.2858    0.4755 H   0  0  0  0  0  0  0  0  0  0  0  0
    9.5044   -1.7508   -1.1807 H   0  0  0  0  0  0  0  0  0  0  0  0
   10.6475   -2.2223   -3.3417 H   0  0  0  0  0  0  0  0  0  0  0  0
   12.1749   -4.1873   -3.5443 H   0  0  0  0  0  0  0  0  0  0  0  0
   11.4056   -5.2123    0.5820 H   0  0  0  0  0  0  0  0  0  0  0  0
   10.3813   -4.9718    2.1107 H   0  0  0  0  0  0  0  0  0  0  0  0
    9.2346   -4.5003    4.2635 H   0  0  0  0  0  0  0  0  0  0  0  0
    8.7790   -4.2045    8.1773 H   0  0  0  0  0  0  0  0  0  0  0  0
    8.6906   -2.4222    7.9287 H   0  0  0  0  0  0  0  0  0  0  0  0
   10.1815   -0.1909    9.2274 H   0  0  0  0  0  0  0  0  0  0  0  0
   12.0209    1.0052    8.0400 H   0  0  0  0  0  0  0  0  0  0  0  0
   14.2628   -2.6870    7.7918 H   0  0  0  0  0  0  0  0  0  0  0  0
   12.4229   -3.8829    8.9809 H   0  0  0  0  0  0  0  0  0  0  0  0
    1.4770   -1.8430   13.0460 H   0  0  0  0  0  0  0  0  0  0  0  0
    2.8640   -2.1810   14.0400 H   0  0  0  0  0  0  0  0  0  0  0  0
  1  2  1  0
  2  3  1  0
  3  4  1  0
  4  5  2  0
  4  6  1  0
  6  7  1  0
  6  8  1  0
  8  9  1  0
  9 10  2  0
  9 11  1  0
 11 12  1  0
 12 13  1  0
 13 14  2  0
 14 15  1  0
 15 16  1  0
 16 17  2  0
 17 18  1  0
 18 19  2  0
 19 20  1  0
 20 21  2  0
 21 22  1  0
 22 23  2  0
 23 24  1  0
 24 25  1  0
 24 26  2  0
 19 27  1  0
 27 28  2  0
 15 29  2  0
 29 30  1  0
 11 31  1  0
 31 32  1  0
 32 33  2  0
 32 34  1  1
 32 35  1  0
 35 36  2  0
 36 37  1  0
 37 38  2  0
 38 39  1  0
 38 40  1  0
 40 41  2  0
  2 42  1  0
 42 43  1  0
 42 44  2  0
 30 13  1  0
 41 35  1  0
 28 16  1  0
 26 20  1  0
  1 45  1  0
  1 46  1  0
  1 47  1  0
  2 48  1  1
  3 49  1  0
  6 50  1  6
  7 51  1  0
  7 52  1  0
  7 53  1  0
  8 54  1  0
 11 55  1  1
 12 56  1  0
 12 57  1  0
 14 58  1  0
 17 59  1  0
 18 60  1  0
 21 61  1  0
 22 62  1  0
 23 63  1  0
 26 64  1  0
 27 65  1  0
 28 66  1  0
 31 67  1  0
 31 68  1  0
 36 69  1  0
 37 70  1  0
 40 71  1  0
 41 72  1  0
 43 73  1  0
 43 74  1  0
M  CHG  1  34  -1
M  END
>  <meeko>  (7) 
{"is_sidechain": [false], "free_energy": -10.538, "intermolecular_energy": -18.213, "internal_energy": -1.592}

$$$$
4gr0_ligand
     RDKit          3D

 74 77  0  0  0  0  0  0  0  0999 V2000
   -0.4440   -5.9150   11.1070 C   0  0  0  0  0  0  0  0  0  0  0  0
    0.9400   -6.3070   10.5990 C   0  0  2  0  0  0  0  0  0  0  0  0
    1.9340   -5.3560   11.0590 N   0  0  0  0  0  0  0  0  0  0  0  0
    2.6650   -5.5490   12.2100 C   0  0  0  0  0  0  0  0  0  0  0  0
    2.6230   -6.6050   12.8400 O   0  0  0  0  0  0  0  0  0  0  0  0
    3.5350   -4.3320   12.6190 C   0  0  2  0  0  0  0  0  0  0  0  0
    2.6400   -3.1720   13.0420 C   0  0  0  0  0  0  0  0  0  0  0  0
    4.4080   -3.9270   11.5180 N   0  0  0  0  0  0  0  0  0  0  0  0
    5.7230   -4.3160   11.4450 C   0  0  0  0  0  0  0  0  0  0  0  0
    6.2120   -5.1410   12.2150 O   0  0  0  0  0  0  0  0  0  0  0  0
    6.5250   -3.6460   10.3310 C   0  0  2  0  0  0  0  0  0  0  0  0
    5.6120   -3.2360    9.1690 C   0  0  0  0  0  0  0  0  0  0  0  0
    6.3610   -2.8460    7.9420 C   0  0  0  0  0  0  0  0  0  0  0  0
    6.6930   -3.4760    6.7670 C   0  0  0  0  0  0  0  0  0  0  0  0
    7.4280   -2.5150    6.0230 C   0  0  0  0  0  0  0  0  0  0  0  0
    8.0510   -2.6700    4.7050 C   0  0  0  0  0  0  0  0  0  0  0  0
    8.8030   -3.8140    4.4010 C   0  0  0  0  0  0  0  0  0  0  0  0
    9.3970   -3.9710    3.1420 C   0  0  0  0  0  0  0  0  0  0  0  0
    9.2580   -2.9920    2.1480 C   0  0  0  0  0  0  0  0  0  0  0  0
    9.8830   -3.1580    0.8250 C   0  0  0  0  0  0  0  0  0  0  0  0
    9.5870   -2.2750   -0.2280 C   0  0  0  0  0  0  0  0  0  0  0  0
   10.1780   -2.4270   -1.4860 C   0  0  0  0  0  0  0  0  0  0  0  0
   11.0780   -3.4670   -1.7110 C   0  0  0  0  0  0  0  0  0  0  0  0
   11.3810   -4.3480   -0.6760 C   0  0  0  0  0  0  0  0  0  0  0  0
   12.4960   -5.6310   -0.9520 Cl  0  0  0  0  0  0  0  0  0  0  0  0
   10.7910   -4.2010    0.5800 C   0  0  0  0  0  0  0  0  0  0  0  0
    8.5020   -1.8510    2.4550 C   0  0  0  0  0  0  0  0  0  0  0  0
    7.9080   -1.6900    3.7140 C   0  0  0  0  0  0  0  0  0  0  0  0
    7.5020   -1.3640    6.7120 N   0  0  0  0  0  0  0  0  0  0  0  0
    6.8410   -1.5760    7.9050 O   0  0  0  0  0  0  0  0  0  0  0  0
    7.6190   -4.6100    9.8560 C   0  0  0  0  0  0  0  0  0  0  0  0
    9.1240   -4.4470   10.9240 P   0  0  2  0  0  5  0  0  0  0  0  0
    9.7930   -5.8090   10.8590 O   0  0  0  0  0  0  0  0  0  0  0  0
    8.5950   -3.9470   12.2520 O   0  0  0  0  0  0  0  0  0  0  0  0
   10.0930   -3.1920   10.0790 C   0  0  0  0  0  0  0  0  0  0  0  0
   10.9760   -2.3760   10.7980 C   0  0  0  0  0  0  0  0  0  0  0  0
   11.7190   -1.3910   10.1460 C   0  0  0  0  0  0  0  0  0  0  0  0
   11.5800   -1.2220    8.7690 C   0  0  0  0  0  0  0  0  0  0  0  0
   12.5860    0.1130    7.8830 Br  0  0  0  0  0  0  0  0  0  0  0  0
   10.7110   -2.0310    8.0370 C   0  0  0  0  0  0  0  0  0  0  0  0
    9.9710   -3.0160    8.6940 C   0  0  0  0  0  0  0  0  0  0  0  0
    0.9570   -6.4020    9.0620 C   0  0  0  0  0  0  0  0  0  0  0  0
    1.0870   -5.2100    8.3990 N   0  0  0  0  0  0  0  0  0  0  0  0
    0.8470   -7.4410    8.4180 O   0  0  0  0  0  0  0  0  0  0  0  0
   -0.4444   -5.9149   12.2070 H   0  0  0  0  0  0  0  0  0  0  0  0
   -0.6980   -4.9096   10.7402 H   0  0  0  0  0  0  0  0  0  0  0  0
   -1.1876   -6.6379   10.7402 H   0  0  0  0  0  0  0  0  0  0  0  0
    1.1860   -7.2994   11.0048 H   0  0  0  0  0  0  0  0  0  0  0  0
    1.8760   -4.3980   10.6990 H   0  0  0  0  0  0  0  0  0  0  0  0
    4.1688   -4.6230   13.4696 H   0  0  0  0  0  0  0  0  0  0  0  0
    2.6005   -3.1208   14.1401 H   0  0  0  0  0  0  0  0  0  0  0  0
    3.0480   -2.2306   12.6455 H   0  0  0  0  0  0  0  0  0  0  0  0
    1.6258   -3.3279   12.6455 H   0  0  0  0  0  0  0  0  0  0  0  0
    4.2360   -2.9680   11.1540 H   0  0  0  0  0  0  0  0  0  0  0  0
    6.9918   -2.7286   10.7188 H   0  0  0  0  0  0  0  0  0  0  0  0
    4.9567   -4.0847    8.9233 H   0  0  0  0  0  0  0  0  0  0  0  0
    5.0419   -2.3544    9.4973 H   0  0  0  0  0  0  0  0  0  0  0  0
    6.4431   -4.5043    6.4668 H   0  0  0  0  0  0  0  0  0  0  0  0
    8.9282   -4.5988    5.1615 H   0  0  0  0  0  0  0  0  0  0  0  0
    9.9824   -4.8778    2.9297 H   0  0  0  0  0  0  0  0  0  0  0  0
    8.8785   -1.4506   -0.0594 H   0  0  0  0  0  0  0  0  0  0  0  0
    9.9327   -1.7262   -2.2976 H   0  0  0  0  0  0  0  0  0  0  0  0
   11.5456   -3.5910   -2.6989 H   0  0  0  0  0  0  0  0  0  0  0  0
   11.0393   -4.9082    1.3852 H   0  0  0  0  0  0  0  0  0  0  0  0
    8.3730   -1.0680    1.6933 H   0  0  0  0  0  0  0  0  0  0  0  0
    7.3225   -0.7834    3.9267 H   0  0  0  0  0  0  0  0  0  0  0  0
    7.2433   -5.6423    9.9129 H   0  0  0  0  0  0  0  0  0  0  0  0
    7.8875   -4.3645    8.8179 H   0  0  0  0  0  0  0  0  0  0  0  0
   11.0844   -2.5127   11.8841 H   0  0  0  0  0  0  0  0  0  0  0  0
   12.4101   -0.7518   10.7150 H   0  0  0  0  0  0  0  0  0  0  0  0
   10.6094   -1.8940    6.9503 H   0  0  0  0  0  0  0  0  0  0  0  0
    9.2871   -3.6587    8.1202 H   0  0  0  0  0  0  0  0  0  0  0  0
    1.0220   -5.2460    7.3910 H   0  0  0  0  0  0  0  0  0  0  0  0
    0.9650   -4.3220    8.8640 H   0  0  0  0  0  0  0  0  0  0  0  0
  1  2  1  0
  2  3  1  0
  3  4  1  0
  4  5  2  0
  4  6  1  0
  6  7  1  0
  6  8  1  0
  8  9  1  0
  9 10  2  0
  9 11  1  0
 11 12  1  0
 12 13  1  0
 13 14  2  0
 14 15  1  0
 15 16  1  0
 16 17  2  0
 17 18  1  0
 18 19  2  0
 19 20  1  0
 20 21  2  0
 21 22  1  0
 22 23  2  0
 23 24  1  0
 24 25  1  0
 24 26  2  0
 19 27  1  0
 27 28  2  0
 15 29  2  0
 29 30  1  0
 11 31  1  0
 31 32  1  0
 32 33  2  0
 32 34  1  1
 32 35  1  0
 35 36  2  0
 36 37  1  0
 37 38  2  0
 38 39  1  0
 38 40  1  0
 40 41  2  0
  2 42  1  0
 42 43  1  0
 42 44  2  0
 30 13  1  0
 41 35  1  0
 28 16  1  0
 26 20  1  0
  1 45  1  0
  1 46  1  0
  1 47  1  0
  2 48  1  1
  3 49  1  0
  6 50  1  1
  7 51  1  0
  7 52  1  0
  7 53  1  0
  8 54  1  0
 11 55  1  1
 12 56  1  0
 12 57  1  0
 14 58  1  0
 17 59  1  0
 18 60  1  0
 21 61  1  0
 22 62  1  0
 23 63  1  0
 26 64  1  0
 27 65  1  0
 28 66  1  0
 31 67  1  0
 31 68  1  0
 36 69  1  0
 37 70  1  0
 40 71  1  0
 41 72  1  0
 43 73  1  0
 43 74  1  0
M  CHG  1  34  -1
M  END
>  <meeko>  (8) 
{"is_sidechain": [false], "free_energy": -10.369, "intermolecular_energy": -18.047, "internal_energy": -1.472}

$$$$
4gr0_ligand
     RDKit          3D

 74 77  0  0  0  0  0  0  0  0999 V2000
   10.0320   -5.4720   10.9820 C   0  0  0  0  0  0  0  0  0  0  0  0
   11.4610   -5.0420   10.6680 C   0  0  2  0  0  0  0  0  0  0  0  0
   11.4830   -4.1660    9.5120 N   0  0  0  0  0  0  0  0  0  0  0  0
   11.7030   -2.8110    9.6150 C   0  0  0  0  0  0  0  0  0  0  0  0
   12.0360   -2.2830   10.6760 O   0  0  0  0  0  0  0  0  0  0  0  0
   11.5020   -2.0340    8.2880 C   0  0  2  0  0  0  0  0  0  0  0  0
   11.7870   -0.5510    8.5060 C   0  0  0  0  0  0  0  0  0  0  0  0
   10.1450   -2.2220    7.7790 N   0  0  0  0  0  0  0  0  0  0  0  0
    9.0360   -2.0820    8.5770 C   0  0  0  0  0  0  0  0  0  0  0  0
    9.1010   -1.6510    9.7270 O   0  0  0  0  0  0  0  0  0  0  0  0
    7.7220   -2.4990    7.9220 C   0  0  2  0  0  0  0  0  0  0  0  0
    7.2170   -1.4120    6.9650 C   0  0  0  0  0  0  0  0  0  0  0  0
    7.5170   -1.7030    5.5350 C   0  0  0  0  0  0  0  0  0  0  0  0
    8.5170   -2.3670    4.8700 C   0  0  0  0  0  0  0  0  0  0  0  0
    8.1850   -2.2630    3.4930 C   0  0  0  0  0  0  0  0  0  0  0  0
    8.9310   -2.7680    2.3370 C   0  0  0  0  0  0  0  0  0  0  0  0
    8.9370   -2.0610    1.1260 C   0  0  0  0  0  0  0  0  0  0  0  0
    9.6520   -2.5350    0.0190 C   0  0  0  0  0  0  0  0  0  0  0  0
   10.3850   -3.7280    0.0860 C   0  0  0  0  0  0  0  0  0  0  0  0
   11.1360   -4.2260   -1.0780 C   0  0  0  0  0  0  0  0  0  0  0  0
   10.7950   -3.8240   -2.3820 C   0  0  0  0  0  0  0  0  0  0  0  0
   11.5040   -4.2930   -3.4910 C   0  0  0  0  0  0  0  0  0  0  0  0
   12.5700   -5.1720   -3.3150 C   0  0  0  0  0  0  0  0  0  0  0  0
   12.9200   -5.5780   -2.0290 C   0  0  0  0  0  0  0  0  0  0  0  0
   14.2400   -6.6620   -1.8100 Cl  0  0  0  0  0  0  0  0  0  0  0  0
   12.2130   -5.1140   -0.9190 C   0  0  0  0  0  0  0  0  0  0  0  0
   10.3800   -4.4310    1.3010 C   0  0  0  0  0  0  0  0  0  0  0  0
    9.6640   -3.9600    2.4090 C   0  0  0  0  0  0  0  0  0  0  0  0
    7.0280   -1.5940    3.3520 N   0  0  0  0  0  0  0  0  0  0  0  0
    6.6190   -1.2440    4.6240 O   0  0  0  0  0  0  0  0  0  0  0  0
    6.6880   -2.7880    9.0180 C   0  0  0  0  0  0  0  0  0  0  0  0
    6.0900   -4.5370    8.8880 P   0  0  2  0  0  5  0  0  0  0  0  0
    7.0690   -5.2100    7.9410 O   0  0  0  0  0  0  0  0  0  0  0  0
    4.6370   -4.4110    8.4800 O   0  0  0  0  0  0  0  0  0  0  0  0
    6.2590   -5.1550   10.5660 C   0  0  0  0  0  0  0  0  0  0  0  0
    6.4330   -6.5250   10.8020 C   0  0  0  0  0  0  0  0  0  0  0  0
    6.5500   -7.0090   12.1050 C   0  0  0  0  0  0  0  0  0  0  0  0
    6.4940   -6.1200   13.1780 C   0  0  0  0  0  0  0  0  0  0  0  0
    6.6520   -6.7740   14.9460 Br  0  0  0  0  0  0  0  0  0  0  0  0
    6.3280   -4.7530   12.9600 C   0  0  0  0  0  0  0  0  0  0  0  0
    6.2130   -4.2730   11.6540 C   0  0  0  0  0  0  0  0  0  0  0  0
   12.3650   -6.2670   10.4320 C   0  0  0  0  0  0  0  0  0  0  0  0
   12.1090   -6.9780    9.2890 N   0  0  0  0  0  0  0  0  0  0  0  0
   13.2590   -6.6410   11.1860 O   0  0  0  0  0  0  0  0  0  0  0  0
    9.8929   -5.5139   12.0724 H   0  0  0  0  0  0  0  0  0  0  0  0
    9.3274   -4.7461   10.5501 H   0  0  0  0  0  0  0  0  0  0  0  0
    9.8450   -6.4662   10.5501 H   0  0  0  0  0  0  0  0  0  0  0  0
   11.8517   -4.4903   11.5357 H   0  0  0  0  0  0  0  0  0  0  0  0
   11.0310   -4.5010    8.6550 H   0  0  0  0  0  0  0  0  0  0  0  0
   12.2060   -2.4277    7.5401 H   0  0  0  0  0  0  0  0  0  0  0  0
   11.8275   -0.3401    9.5848 H   0  0  0  0  0  0  0  0  0  0  0  0
   12.7515   -0.2914    8.0452 H   0  0  0  0  0  0  0  0  0  0  0  0
   10.9875    0.0476    8.0452 H   0  0  0  0  0  0  0  0  0  0  0  0
   10.0480   -2.9660    7.0570 H   0  0  0  0  0  0  0  0  0  0  0  0
    7.8852   -3.4091    7.3261 H   0  0  0  0  0  0  0  0  0  0  0  0
    6.1270   -1.3220    7.0822 H   0  0  0  0  0  0  0  0  0  0  0  0
    7.7391   -0.4794    7.2251 H   0  0  0  0  0  0  0  0  0  0  0  0
    9.3897   -2.8721    5.3097 H   0  0  0  0  0  0  0  0  0  0  0  0
    8.3721   -1.1207    1.0444 H   0  0  0  0  0  0  0  0  0  0  0  0
    9.6382   -1.9612   -0.9194 H   0  0  0  0  0  0  0  0  0  0  0  0
    9.9559   -3.1286   -2.5313 H   0  0  0  0  0  0  0  0  0  0  0  0
   11.2203   -3.9681   -4.5029 H   0  0  0  0  0  0  0  0  0  0  0  0
   13.1315   -5.5430   -4.1851 H   0  0  0  0  0  0  0  0  0  0  0  0
   12.5014   -5.4464    0.0891 H   0  0  0  0  0  0  0  0  0  0  0  0
   10.9487   -5.3689    1.3845 H   0  0  0  0  0  0  0  0  0  0  0  0
    9.6773   -4.5333    3.3477 H   0  0  0  0  0  0  0  0  0  0  0  0
    7.1510   -2.6346   10.0040 H   0  0  0  0  0  0  0  0  0  0  0  0
    5.8336   -2.1063    8.8943 H   0  0  0  0  0  0  0  0  0  0  0  0
    6.4777   -7.2239    9.9538 H   0  0  0  0  0  0  0  0  0  0  0  0
    6.6856   -8.0856   12.2851 H   0  0  0  0  0  0  0  0  0  0  0  0
    6.2879   -4.0574   13.8112 H   0  0  0  0  0  0  0  0  0  0  0  0
    6.0854   -3.1947   11.4778 H   0  0  0  0  0  0  0  0  0  0  0  0
   12.6400   -7.8280    9.1590 H   0  0  0  0  0  0  0  0  0  0  0  0
   11.2630   -6.8460    8.7550 H   0  0  0  0  0  0  0  0  0  0  0  0
  1  2  1  0
  2  3  1  0
  3  4  1  0
  4  5  2  0
  4  6  1  0
  6  7  1  0
  6  8  1  0
  8  9  1  0
  9 10  2  0
  9 11  1  0
 11 12  1  0
 12 13  1  0
 13 14  2  0
 14 15  1  0
 15 16  1  0
 16 17  2  0
 17 18  1  0
 18 19  2  0
 19 20  1  0
 20 21  2  0
 21 22  1  0
 22 23  2  0
 23 24  1  0
 24 25  1  0
 24 26  2  0
 19 27  1  0
 27 28  2  0
 15 29  2  0
 29 30  1  0
 11 31  1  0
 31 32  1  0
 32 33  2  0
 32 34  1  6
 32 35  1  0
 35 36  2  0
 36 37  1  0
 37 38  2  0
 38 39  1  0
 38 40  1  0
 40 41  2  0
  2 42  1  0
 42 43  1  0
 42 44  2  0
 30 13  1  0
 41 35  1  0
 28 16  1  0
 26 20  1  0
  1 45  1  0
  1 46  1  0
  1 47  1  0
  2 48  1  1
  3 49  1  0
  6 50  1  6
  7 51  1  0
  7 52  1  0
  7 53  1  0
  8 54  1  0
 11 55  1  6
 12 56  1  0
 12 57  1  0
 14 58  1  0
 17 59  1  0
 18 60  1  0
 21 61  1  0
 22 62  1  0
 23 63  1  0
 26 64  1  0
 27 65  1  0
 28 66  1  0
 31 67  1  0
 31 68  1  0
 36 69  1  0
 37 70  1  0
 40 71  1  0
 41 72  1  0
 43 73  1  0
 43 74  1  0
M  CHG  1  34  -1
M  END
>  <meeko>  (9) 
{"is_sidechain": [false], "free_energy": -10.142, "intermolecular_energy": -17.501, "internal_energy": -1.63}

$$$$
