
     RDKit          3D

 22 23  0  0  0  0  0  0  0  0999 V2000
    2.5180   12.3720    9.7390 O   0  0  0  0  0  0  0  0  0  0  0  0
    3.1590   11.4450   10.2480 C   0  0  0  0  0  0  0  0  0  0  0  0
    4.1480   11.6580   10.9550 O   0  0  0  0  0  0  0  0  0  0  0  0
    2.7460   10.0330    9.9640 C   0  0  0  0  0  0  0  0  0  0  0  0
    3.6630    9.0090   10.1220 C   0  0  0  0  0  0  0  0  0  0  0  0
    3.2880    7.7210    9.8400 C   0  0  0  0  0  0  0  0  0  0  0  0
    1.9980    7.4600    9.4020 C   0  0  0  0  0  0  0  0  0  0  0  0
    1.6470    6.0350    9.0870 C   0  0  0  0  0  0  0  0  0  0  0  0
    0.2760    5.7730    9.0850 N   0  0  0  0  0  0  0  0  0  0  0  0
   -0.2290    4.6440   10.0970 S   0  0  2  0  0  0  0  0  0  0  0  0
   -0.3190    5.3050   11.3910 O   0  0  0  0  0  0  0  0  0  0  0  0
    0.6810    3.5140   10.0730 O   0  0  0  0  0  0  0  0  0  0  0  0
   -1.7790    4.1150    9.5930 C   0  0  0  0  0  0  0  0  0  0  0  0
   -2.7780    3.9370   10.5230 C   0  0  0  0  0  0  0  0  0  0  0  0
   -3.9380    3.5240    9.9830 C   0  0  0  0  0  0  0  0  0  0  0  0
   -3.7710    3.3650    8.3110 S   0  0  0  0  0  0  0  0  0  0  0  0
   -2.1730    3.8300    8.2930 C   0  0  0  0  0  0  0  0  0  0  0  0
   -1.4250    3.8780    7.0000 C   0  0  0  0  0  0  0  0  0  0  0  0
   -2.0880    3.5640    5.9990 O   0  0  0  0  0  0  0  0  0  0  0  0
   -0.2680    4.2050    6.9530 O   0  0  0  0  0  0  0  0  0  0  0  0
    1.0820    8.4840    9.2700 C   0  0  0  0  0  0  0  0  0  0  0  0
    1.4630    9.7810    9.5530 C   0  0  0  0  0  0  0  0  0  0  0  0
  2  1  1  0
  3  2  2  0
  4  2  1  0
  5  4  2  0
  6  5  1  0
  7  6  2  0
  8  7  1  0
  9  8  1  0
 10  9  1  6
 11 10  2  0
 12 10  2  0
 13 10  1  0
 14 13  1  0
 15 14  2  0
 16 15  1  0
 17 16  1  0
 17 13  2  0
 18 17  1  0
 19 18  2  0
 20 18  1  0
 21  7  1  0
 22 21  2  0
 22  4  1  0
M  CHG  2   1  -1  20  -1
M  END
$$$$
