
     RDKit          3D

 17 18  0  0  0  0  0  0  0  0999 V2000
    5.5470    6.2070  -10.8980 N   0  0  0  0  0  0  0  0  0  0  0  0
    6.8350    6.9400  -11.0180 C   0  0  1  0  0  0  0  0  0  0  0  0
    7.5400    6.6040  -12.3460 C   0  0  0  0  0  0  0  0  0  0  0  0
    8.0720    5.2480  -12.2920 N   0  0  0  0  0  0  0  0  0  0  0  0
    7.4010    4.2320  -12.9170 C   0  0  0  0  0  0  0  0  0  0  0  0
    7.8630    2.9280  -12.8410 C   0  0  0  0  0  0  0  0  0  0  0  0
    9.0510    2.6430  -12.1120 C   0  0  0  0  0  0  0  0  0  0  0  0
    9.4990    1.5180  -12.0190 O   0  0  0  0  0  0  0  0  0  0  0  0
    9.7000    3.6900  -11.5030 N   0  0  0  0  0  0  0  0  0  0  0  0
    9.2360    4.9860  -11.5760 C   0  0  0  0  0  0  0  0  0  0  0  0
    9.8550    5.8790  -11.0130 O   0  0  0  0  0  0  0  0  0  0  0  0
    6.9560    2.0110  -13.5870 C   0  0  0  0  0  0  0  0  0  0  0  0
    5.8450    2.8840  -14.0770 C   0  0  0  0  0  0  0  0  0  0  0  0
    6.1510    4.2940  -13.7040 C   0  0  0  0  0  0  0  0  0  0  0  0
    6.6170    8.4560  -10.9390 C   0  0  0  0  0  0  0  0  0  0  0  0
    7.6030    9.1980  -10.9920 O   0  0  0  0  0  0  0  0  0  0  0  0
    5.4670    8.8600  -10.7770 O   0  0  0  0  0  0  0  0  0  0  0  0
  2  1  1  6
  3  2  1  0
  4  3  1  0
  5  4  1  0
  6  5  2  0
  7  6  1  0
  8  7  2  0
  9  7  1  0
 10  9  1  0
 10  4  1  0
 11 10  2  0
 12  6  1  0
 13 12  1  0
 14 13  1  0
 14  5  1  0
 15  2  1  0
 16 15  1  0
 17 15  2  0
M  CHG  2   1   1  16  -1
M  END
$$$$
