4w9h_ligand
     RDKit          3D

 65 67  0  0  0  0  0  0  0  0999 V2000
    1.7270   16.1620   -0.8450 C   0  0  0  0  0  0  0  0  0  0  0  0
    1.9490   15.8750   -2.3050 C   0  0  0  0  0  0  0  0  0  0  0  0
    1.0820   15.3780   -3.0150 O   0  0  0  0  0  0  0  0  0  0  0  0
    3.2080   16.2060   -2.7570 N   0  0  0  0  0  0  0  0  0  0  0  0
    3.6360   15.8070   -4.1030 C   0  0  2  0  0  0  0  0  0  0  0  0
    5.0580   15.2140   -3.9170 C   0  0  0  0  0  0  0  0  0  0  0  0
    5.4230   14.2330   -4.5780 O   0  0  0  0  0  0  0  0  0  0  0  0
    5.9030   15.7820   -2.9900 N   0  0  0  0  0  0  0  0  0  0  0  0
    6.5360   17.0930   -3.0810 C   0  0  0  0  0  0  0  0  0  0  0  0
    7.3840   17.2080   -1.8150 C   0  0  2  0  0  0  0  0  0  0  0  0
    8.5170   18.0350   -2.0080 O   0  0  0  0  0  0  0  0  0  0  0  0
    7.7920   15.7600   -1.5660 C   0  0  0  0  0  0  0  0  0  0  0  0
    6.5280   14.9800   -1.9320 C   0  0  1  0  0  0  0  0  0  0  0  0
    5.5740   14.8230   -0.7280 C   0  0  0  0  0  0  0  0  0  0  0  0
    5.0530   15.7790   -0.1570 O   0  0  0  0  0  0  0  0  0  0  0  0
    5.3830   13.5160   -0.3380 N   0  0  0  0  0  0  0  0  0  0  0  0
    4.4470   13.1470    0.6950 C   0  0  0  0  0  0  0  0  0  0  0  0
    3.0850   12.8550    0.1190 C   0  0  0  0  0  0  0  0  0  0  0  0
    1.9300   13.0190    0.8920 C   0  0  0  0  0  0  0  0  0  0  0  0
    0.6710   12.7240    0.3580 C   0  0  0  0  0  0  0  0  0  0  0  0
    0.5410   12.2600   -0.9580 C   0  0  0  0  0  0  0  0  0  0  0  0
   -0.7750   11.9430   -1.5240 C   0  0  0  0  0  0  0  0  0  0  0  0
   -1.1870   10.3110   -1.8930 S   0  0  0  0  0  0  0  0  0  0  0  0
   -2.7330   10.8270   -2.4100 C   0  0  0  0  0  0  0  0  0  0  0  0
   -2.9700   12.1150   -2.3320 N   0  0  0  0  0  0  0  0  0  0  0  0
   -1.8550   12.7670   -1.8230 C   0  0  0  0  0  0  0  0  0  0  0  0
   -1.9360   14.2430   -1.6610 C   0  0  0  0  0  0  0  0  0  0  0  0
    1.6990   12.0910   -1.7260 C   0  0  0  0  0  0  0  0  0  0  0  0
    2.9580   12.3790   -1.1920 C   0  0  0  0  0  0  0  0  0  0  0  0
    3.5870   17.0020   -5.1080 C   0  0  0  0  0  0  0  0  0  0  0  0
    3.6510   18.3760   -4.4140 C   0  0  0  0  0  0  0  0  0  0  0  0
    4.7480   16.9120   -6.1140 C   0  0  0  0  0  0  0  0  0  0  0  0
    2.2680   16.9330   -5.9100 C   0  0  0  0  0  0  0  0  0  0  0  0
    2.2887   15.4358   -0.2390 H   0  0  0  0  0  0  0  0  0  0  0  0
    2.0754   17.1795   -0.6142 H   0  0  0  0  0  0  0  0  0  0  0  0
    0.6546   16.0805   -0.6142 H   0  0  0  0  0  0  0  0  0  0  0  0
    3.9390   16.2200   -2.0550 H   0  0  0  0  0  0  0  0  0  0  0  0
    2.9612   15.0625   -4.5506 H   0  0  0  0  0  0  0  0  0  0  0  0
    7.1693   17.1557   -3.9782 H   0  0  0  0  0  0  0  0  0  0  0  0
    5.7981   17.9049   -3.1607 H   0  0  0  0  0  0  0  0  0  0  0  0
    6.8461   17.6704   -0.9743 H   0  0  0  0  0  0  0  0  0  0  0  0
    9.1120   17.5740   -2.6250 H   0  0  0  0  0  0  0  0  0  0  0  0
    8.6358   15.4705   -2.2096 H   0  0  0  0  0  0  0  0  0  0  0  0
    8.1327   15.5760   -0.5364 H   0  0  0  0  0  0  0  0  0  0  0  0
    6.7617   13.9539   -2.2522 H   0  0  0  0  0  0  0  0  0  0  0  0
    5.7370   12.7860   -0.9560 H   0  0  0  0  0  0  0  0  0  0  0  0
    4.8181   12.2493    1.2111 H   0  0  0  0  0  0  0  0  0  0  0  0
    4.3545   13.9885    1.3974 H   0  0  0  0  0  0  0  0  0  0  0  0
    2.0126   13.3825    1.9269 H   0  0  0  0  0  0  0  0  0  0  0  0
   -0.2275   12.8578    0.9784 H   0  0  0  0  0  0  0  0  0  0  0  0
   -3.4861   10.1192   -2.7866 H   0  0  0  0  0  0  0  0  0  0  0  0
   -1.9498   14.4941   -0.5901 H   0  0  0  0  0  0  0  0  0  0  0  0
   -1.0623   14.7126   -2.1365 H   0  0  0  0  0  0  0  0  0  0  0  0
   -2.8559   14.6141   -2.1365 H   0  0  0  0  0  0  0  0  0  0  0  0
    1.6172   11.7276   -2.7610 H   0  0  0  0  0  0  0  0  0  0  0  0
    3.8577   12.2304   -1.8072 H   0  0  0  0  0  0  0  0  0  0  0  0
    3.6445   18.2363   -3.3229 H   0  0  0  0  0  0  0  0  0  0  0  0
    4.5743   18.8945   -4.7118 H   0  0  0  0  0  0  0  0  0  0  0  0
    2.7799   18.9781   -4.7118 H   0  0  0  0  0  0  0  0  0  0  0  0
    5.7006   16.8382   -5.5689 H   0  0  0  0  0  0  0  0  0  0  0  0
    4.6172   16.0213   -6.7461 H   0  0  0  0  0  0  0  0  0  0  0  0
    4.7561   17.8122   -6.7461 H   0  0  0  0  0  0  0  0  0  0  0  0
    1.4175   16.8885   -5.2138 H   0  0  0  0  0  0  0  0  0  0  0  0
    2.1769   17.8276   -6.5435 H   0  0  0  0  0  0  0  0  0  0  0  0
    2.2707   16.0338   -6.5435 H   0  0  0  0  0  0  0  0  0  0  0  0
  1  2  1  0
  2  3  2  0
  2  4  1  0
  4  5  1  0
  5  6  1  0
  6  7  2  0
  6  8  1  0
  8  9  1  0
  9 10  1  0
 10 11  1  0
 10 12  1  0
 12 13  1  0
 13 14  1  0
 14 15  2  0
 14 16  1  0
 16 17  1  0
 17 18  1  0
 18 19  2  0
 19 20  1  0
 20 21  2  0
 21 22  1  0
 22 23  1  0
 23 24  1  0
 24 25  2  0
 25 26  1  0
 26 27  1  0
 21 28  1  0
 28 29  2  0
  5 30  1  0
 30 31  1  0
 30 32  1  0
 30 33  1  0
 13  8  1  0
 29 18  1  0
 26 22  2  0
  1 34  1  0
  1 35  1  0
  1 36  1  0
  4 37  1  0
  5 38  1  6
  9 39  1  0
  9 40  1  0
 10 41  1  1
 11 42  1  0
 12 43  1  0
 12 44  1  0
 13 45  1  6
 16 46  1  0
 17 47  1  0
 17 48  1  0
 19 49  1  0
 20 50  1  0
 24 51  1  0
 27 52  1  0
 27 53  1  0
 27 54  1  0
 28 55  1  0
 29 56  1  0
 31 57  1  0
 31 58  1  0
 31 59  1  0
 32 60  1  0
 32 61  1  0
 32 62  1  0
 33 63  1  0
 33 64  1  0
 33 65  1  0
M  END
>  <meeko>  (1) 
{"is_sidechain": [false], "free_energy": -7.008, "intermolecular_energy": -10.49, "internal_energy": -2.21}

$$$$
4w9h_ligand
     RDKit          3D

 65 67  0  0  0  0  0  0  0  0999 V2000
    6.6970   18.8420   -1.3350 C   0  0  0  0  0  0  0  0  0  0  0  0
    6.7790   17.3400   -1.3680 C   0  0  0  0  0  0  0  0  0  0  0  0
    7.8420   16.7450   -1.5090 O   0  0  0  0  0  0  0  0  0  0  0  0
    5.5610   16.7090   -1.2430 N   0  0  0  0  0  0  0  0  0  0  0  0
    5.4580   15.2600   -1.4510 C   0  0  2  0  0  0  0  0  0  0  0  0
    5.2890   15.0810   -2.9840 C   0  0  0  0  0  0  0  0  0  0  0  0
    4.2910   15.5290   -3.5640 O   0  0  0  0  0  0  0  0  0  0  0  0
    6.2540   14.3980   -3.6870 N   0  0  0  0  0  0  0  0  0  0  0  0
    7.5600   13.9820   -3.1880 C   0  0  0  0  0  0  0  0  0  0  0  0
    8.2350   13.2970   -4.3770 C   0  0  2  0  0  0  0  0  0  0  0  0
    9.6450   13.4130   -4.3260 O   0  0  0  0  0  0  0  0  0  0  0  0
    7.6580   14.0650   -5.5620 C   0  0  0  0  0  0  0  0  0  0  0  0
    6.2030   14.2890   -5.1500 C   0  0  1  0  0  0  0  0  0  0  0  0
    5.2910   13.1190   -5.5800 C   0  0  0  0  0  0  0  0  0  0  0  0
    5.2820   12.6600   -6.7200 O   0  0  0  0  0  0  0  0  0  0  0  0
    4.4710   12.6580   -4.5740 N   0  0  0  0  0  0  0  0  0  0  0  0
    3.6220   11.5030   -4.7380 C   0  0  0  0  0  0  0  0  0  0  0  0
    2.3370   11.6560   -3.9650 C   0  0  0  0  0  0  0  0  0  0  0  0
    1.7530   10.5580   -3.3230 C   0  0  0  0  0  0  0  0  0  0  0  0
    0.5480   10.7010   -2.6260 C   0  0  0  0  0  0  0  0  0  0  0  0
   -0.0960   11.9440   -2.5570 C   0  0  0  0  0  0  0  0  0  0  0  0
   -1.3620   12.1030   -1.8340 C   0  0  0  0  0  0  0  0  0  0  0  0
   -2.8390   11.5790   -2.5500 S   0  0  0  0  0  0  0  0  0  0  0  0
   -3.6840   12.0670   -1.1460 C   0  0  0  0  0  0  0  0  0  0  0  0
   -2.9580   12.5890   -0.1850 N   0  0  0  0  0  0  0  0  0  0  0  0
   -1.6230   12.6150   -0.5670 C   0  0  0  0  0  0  0  0  0  0  0  0
   -0.6430   13.1770    0.4000 C   0  0  0  0  0  0  0  0  0  0  0  0
    0.4880   13.0390   -3.2060 C   0  0  0  0  0  0  0  0  0  0  0  0
    1.6880   12.8950   -3.9080 C   0  0  0  0  0  0  0  0  0  0  0  0
    4.2930   14.6340   -0.6200 C   0  0  0  0  0  0  0  0  0  0  0  0
    2.9860   15.4460   -0.7060 C   0  0  0  0  0  0  0  0  0  0  0  0
    4.0030   13.1970   -1.0900 C   0  0  0  0  0  0  0  0  0  0  0  0
    4.7140   14.5630    0.8650 C   0  0  0  0  0  0  0  0  0  0  0  0
    6.6783   19.1853   -0.2901 H   0  0  0  0  0  0  0  0  0  0  0  0
    7.5732   19.2684   -1.8454 H   0  0  0  0  0  0  0  0  0  0  0  0
    5.7796   19.1704   -1.8454 H   0  0  0  0  0  0  0  0  0  0  0  0
    4.7530   17.2480   -1.5320 H   0  0  0  0  0  0  0  0  0  0  0  0
    6.3500   14.7241   -1.0945 H   0  0  0  0  0  0  0  0  0  0  0  0
    8.1450   14.8541   -2.8604 H   0  0  0  0  0  0  0  0  0  0  0  0
    7.4775   13.3146   -2.3175 H   0  0  0  0  0  0  0  0  0  0  0  0
    8.0501   12.2133   -4.4155 H   0  0  0  0  0  0  0  0  0  0  0  0
    9.9940   12.5620   -4.0080 H   0  0  0  0  0  0  0  0  0  0  0  0
    8.1804   15.0224   -5.7050 H   0  0  0  0  0  0  0  0  0  0  0  0
    7.7608   13.5297   -6.5174 H   0  0  0  0  0  0  0  0  0  0  0  0
    5.7772   15.1811   -5.6324 H   0  0  0  0  0  0  0  0  0  0  0  0
    4.6500   12.9990   -3.6300 H   0  0  0  0  0  0  0  0  0  0  0  0
    3.3860   11.3799   -5.8053 H   0  0  0  0  0  0  0  0  0  0  0  0
    4.1561   10.6212   -4.3543 H   0  0  0  0  0  0  0  0  0  0  0  0
    2.2450    9.5751   -3.3666 H   0  0  0  0  0  0  0  0  0  0  0  0
    0.1014    9.8284   -2.1269 H   0  0  0  0  0  0  0  0  0  0  0  0
   -4.7738   11.9502   -1.0533 H   0  0  0  0  0  0  0  0  0  0  0  0
   -0.9864   12.9801    1.4263 H   0  0  0  0  0  0  0  0  0  0  0  0
    0.3380   12.7042    0.2445 H   0  0  0  0  0  0  0  0  0  0  0  0
   -0.5556   14.2624    0.2445 H   0  0  0  0  0  0  0  0  0  0  0  0
   -0.0028   14.0225   -3.1628 H   0  0  0  0  0  0  0  0  0  0  0  0
    2.1267   13.7637   -4.4207 H   0  0  0  0  0  0  0  0  0  0  0  0
    2.6259   15.6697    0.3090 H   0  0  0  0  0  0  0  0  0  0  0  0
    3.1736   16.3868   -1.2442 H   0  0  0  0  0  0  0  0  0  0  0  0
    2.2256   14.8610   -1.2442 H   0  0  0  0  0  0  0  0  0  0  0  0
    3.8713   12.5444   -0.2144 H   0  0  0  0  0  0  0  0  0  0  0  0
    3.0848   13.1876   -1.6957 H   0  0  0  0  0  0  0  0  0  0  0  0
    4.8456   12.8322   -1.6957 H   0  0  0  0  0  0  0  0  0  0  0  0
    3.8311   14.7119    1.5039 H   0  0  0  0  0  0  0  0  0  0  0  0
    5.1560   13.5776    1.0741 H   0  0  0  0  0  0  0  0  0  0  0  0
    5.4547   15.3489    1.0741 H   0  0  0  0  0  0  0  0  0  0  0  0
  1  2  1  0
  2  3  2  0
  2  4  1  0
  4  5  1  0
  5  6  1  0
  6  7  2  0
  6  8  1  0
  8  9  1  0
  9 10  1  0
 10 11  1  0
 10 12  1  0
 12 13  1  0
 13 14  1  0
 14 15  2  0
 14 16  1  0
 16 17  1  0
 17 18  1  0
 18 19  2  0
 19 20  1  0
 20 21  2  0
 21 22  1  0
 22 23  1  0
 23 24  1  0
 24 25  2  0
 25 26  1  0
 26 27  1  0
 21 28  1  0
 28 29  2  0
  5 30  1  0
 30 31  1  0
 30 32  1  0
 30 33  1  0
 13  8  1  0
 29 18  1  0
 26 22  2  0
  1 34  1  0
  1 35  1  0
  1 36  1  0
  4 37  1  0
  5 38  1  1
  9 39  1  0
  9 40  1  0
 10 41  1  6
 11 42  1  0
 12 43  1  0
 12 44  1  0
 13 45  1  6
 16 46  1  0
 17 47  1  0
 17 48  1  0
 19 49  1  0
 20 50  1  0
 24 51  1  0
 27 52  1  0
 27 53  1  0
 27 54  1  0
 28 55  1  0
 29 56  1  0
 31 57  1  0
 31 58  1  0
 31 59  1  0
 32 60  1  0
 32 61  1  0
 32 62  1  0
 33 63  1  0
 33 64  1  0
 33 65  1  0
M  END
>  <meeko>  (2) 
{"is_sidechain": [false], "free_energy": -6.848, "intermolecular_energy": -10.696, "internal_energy": -1.766}

$$$$
4w9h_ligand
     RDKit          3D

 65 67  0  0  0  0  0  0  0  0999 V2000
   -1.9350   14.6410   -2.1200 C   0  0  0  0  0  0  0  0  0  0  0  0
   -3.1330   13.9430   -1.5350 C   0  0  0  0  0  0  0  0  0  0  0  0
   -3.0640   13.2730   -0.5100 O   0  0  0  0  0  0  0  0  0  0  0  0
   -4.2920   14.1150   -2.2580 N   0  0  0  0  0  0  0  0  0  0  0  0
   -5.4920   13.3410   -1.9220 C   0  0  2  0  0  0  0  0  0  0  0  0
   -5.6370   12.3000   -3.0640 C   0  0  0  0  0  0  0  0  0  0  0  0
   -5.8660   12.6660   -4.2240 O   0  0  0  0  0  0  0  0  0  0  0  0
   -5.5300   10.9610   -2.7650 N   0  0  0  0  0  0  0  0  0  0  0  0
   -6.5730    9.9520   -2.9120 C   0  0  0  0  0  0  0  0  0  0  0  0
   -5.9370    8.6550   -2.4130 C   0  0  2  0  0  0  0  0  0  0  0  0
   -6.8980    7.7660   -1.8720 O   0  0  0  0  0  0  0  0  0  0  0  0
   -4.9790    9.1560   -1.3380 C   0  0  0  0  0  0  0  0  0  0  0  0
   -4.4260   10.4460   -1.9460 C   0  0  1  0  0  0  0  0  0  0  0  0
   -3.1750   10.1880   -2.8140 C   0  0  0  0  0  0  0  0  0  0  0  0
   -3.2120   10.1180   -4.0400 O   0  0  0  0  0  0  0  0  0  0  0  0
   -2.0190   10.0190   -2.0830 N   0  0  0  0  0  0  0  0  0  0  0  0
   -0.7260    9.8740   -2.7060 C   0  0  0  0  0  0  0  0  0  0  0  0
    0.2610   10.8690   -2.1510 C   0  0  0  0  0  0  0  0  0  0  0  0
    1.5170   11.0390   -2.7450 C   0  0  0  0  0  0  0  0  0  0  0  0
    2.4380   11.9470   -2.2100 C   0  0  0  0  0  0  0  0  0  0  0  0
    2.1210   12.7030   -1.0730 C   0  0  0  0  0  0  0  0  0  0  0  0
    3.0820   13.6540   -0.5030 C   0  0  0  0  0  0  0  0  0  0  0  0
    3.0760   15.3000   -1.0120 S   0  0  0  0  0  0  0  0  0  0  0  0
    4.3510   15.6330    0.0760 C   0  0  0  0  0  0  0  0  0  0  0  0
    4.7840   14.6200    0.7900 N   0  0  0  0  0  0  0  0  0  0  0  0
    4.0620   13.4780    0.4680 C   0  0  0  0  0  0  0  0  0  0  0  0
    4.4130   12.2200    1.1800 C   0  0  0  0  0  0  0  0  0  0  0  0
    0.8660   12.5250   -0.4780 C   0  0  0  0  0  0  0  0  0  0  0  0
   -0.0510   11.6140   -1.0070 C   0  0  0  0  0  0  0  0  0  0  0  0
   -6.7470   14.2560   -1.7510 C   0  0  0  0  0  0  0  0  0  0  0  0
   -6.7270   15.4850   -2.6790 C   0  0  0  0  0  0  0  0  0  0  0  0
   -8.0370   13.4620   -2.0240 C   0  0  0  0  0  0  0  0  0  0  0  0
   -6.8090   14.7600   -0.2920 C   0  0  0  0  0  0  0  0  0  0  0  0
   -1.2948   15.0140   -1.3070 H   0  0  0  0  0  0  0  0  0  0  0  0
   -1.3651   13.9336   -2.7403 H   0  0  0  0  0  0  0  0  0  0  0  0
   -2.2694   15.4856   -2.7403 H   0  0  0  0  0  0  0  0  0  0  0  0
   -4.1710   14.3220   -3.2430 H   0  0  0  0  0  0  0  0  0  0  0  0
   -5.4025   12.8373   -0.9482 H   0  0  0  0  0  0  0  0  0  0  0  0
   -7.4515   10.2117   -2.3031 H   0  0  0  0  0  0  0  0  0  0  0  0
   -6.9252    9.8681   -3.9507 H   0  0  0  0  0  0  0  0  0  0  0  0
   -5.4476    8.0779   -3.2114 H   0  0  0  0  0  0  0  0  0  0  0  0
   -7.6470    7.7360   -2.4930 H   0  0  0  0  0  0  0  0  0  0  0  0
   -5.5114    9.3587   -0.3970 H   0  0  0  0  0  0  0  0  0  0  0  0
   -4.1963    8.4273   -1.0804 H   0  0  0  0  0  0  0  0  0  0  0  0
   -4.1000   11.1543   -1.1701 H   0  0  0  0  0  0  0  0  0  0  0  0
   -2.0570   10.2370   -1.0880 H   0  0  0  0  0  0  0  0  0  0  0  0
   -0.3513    8.8562   -2.5223 H   0  0  0  0  0  0  0  0  0  0  0  0
   -0.8366   10.0577   -3.7849 H   0  0  0  0  0  0  0  0  0  0  0  0
    1.7821   10.4548   -3.6386 H   0  0  0  0  0  0  0  0  0  0  0  0
    3.4216   12.0687   -2.6871 H   0  0  0  0  0  0  0  0  0  0  0  0
    4.7845   16.6394    0.1726 H   0  0  0  0  0  0  0  0  0  0  0  0
    4.3661   12.3881    2.2661 H   0  0  0  0  0  0  0  0  0  0  0  0
    3.7011   11.4295    0.9002 H   0  0  0  0  0  0  0  0  0  0  0  0
    5.4313   11.9122    0.9002 H   0  0  0  0  0  0  0  0  0  0  0  0
    0.5995   13.1088    0.4154 H   0  0  0  0  0  0  0  0  0  0  0  0
   -1.0283   11.4803   -0.5201 H   0  0  0  0  0  0  0  0  0  0  0  0
   -6.7121   16.4024   -2.0722 H   0  0  0  0  0  0  0  0  0  0  0  0
   -5.8293   15.4506   -3.3138 H   0  0  0  0  0  0  0  0  0  0  0  0
   -7.6253   15.4798   -3.3138 H   0  0  0  0  0  0  0  0  0  0  0  0
   -8.5010   13.1764   -1.0684 H   0  0  0  0  0  0  0  0  0  0  0  0
   -8.7368   14.0859   -2.5994 H   0  0  0  0  0  0  0  0  0  0  0  0
   -7.7952   12.5562   -2.5994 H   0  0  0  0  0  0  0  0  0  0  0  0
   -6.7041   13.9075    0.3952 H   0  0  0  0  0  0  0  0  0  0  0  0
   -5.9921   15.4754   -0.1162 H   0  0  0  0  0  0  0  0  0  0  0  0
   -7.7749   15.2560   -0.1162 H   0  0  0  0  0  0  0  0  0  0  0  0
  1  2  1  0
  2  3  2  0
  2  4  1  0
  4  5  1  0
  5  6  1  0
  6  7  2  0
  6  8  1  0
  8  9  1  0
  9 10  1  0
 10 11  1  0
 10 12  1  0
 12 13  1  0
 13 14  1  0
 14 15  2  0
 14 16  1  0
 16 17  1  0
 17 18  1  0
 18 19  2  0
 19 20  1  0
 20 21  2  0
 21 22  1  0
 22 23  1  0
 23 24  1  0
 24 25  2  0
 25 26  1  0
 26 27  1  0
 21 28  1  0
 28 29  2  0
  5 30  1  0
 30 31  1  0
 30 32  1  0
 30 33  1  0
 13  8  1  0
 29 18  1  0
 26 22  2  0
  1 34  1  0
  1 35  1  0
  1 36  1  0
  4 37  1  0
  5 38  1  1
  9 39  1  0
  9 40  1  0
 10 41  1  6
 11 42  1  0
 12 43  1  0
 12 44  1  0
 13 45  1  1
 16 46  1  0
 17 47  1  0
 17 48  1  0
 19 49  1  0
 20 50  1  0
 24 51  1  0
 27 52  1  0
 27 53  1  0
 27 54  1  0
 28 55  1  0
 29 56  1  0
 31 57  1  0
 31 58  1  0
 31 59  1  0
 32 60  1  0
 32 61  1  0
 32 62  1  0
 33 63  1  0
 33 64  1  0
 33 65  1  0
M  END
>  <meeko>  (3) 
{"is_sidechain": [false], "free_energy": -6.796, "intermolecular_energy": -10.519, "internal_energy": -1.865}

$$$$
4w9h_ligand
     RDKit          3D

 65 67  0  0  0  0  0  0  0  0999 V2000
    1.2440   12.2930   -3.7830 C   0  0  0  0  0  0  0  0  0  0  0  0
    2.6920   12.5340   -3.4530 C   0  0  0  0  0  0  0  0  0  0  0  0
    3.1450   12.3650   -2.3260 O   0  0  0  0  0  0  0  0  0  0  0  0
    3.4460   12.9710   -4.5200 N   0  0  0  0  0  0  0  0  0  0  0  0
    4.8230   13.4330   -4.3100 C   0  0  2  0  0  0  0  0  0  0  0  0
    4.6870   14.8690   -3.7370 C   0  0  0  0  0  0  0  0  0  0  0  0
    3.7550   15.6020   -4.0900 O   0  0  0  0  0  0  0  0  0  0  0  0
    5.6310   15.3250   -2.8460 N   0  0  0  0  0  0  0  0  0  0  0  0
    6.4320   16.5380   -2.9740 C   0  0  0  0  0  0  0  0  0  0  0  0
    7.3310   16.5470   -1.7370 C   0  0  2  0  0  0  0  0  0  0  0  0
    8.5570   17.2120   -1.9770 O   0  0  0  0  0  0  0  0  0  0  0  0
    7.5470   15.0590   -1.4830 C   0  0  0  0  0  0  0  0  0  0  0  0
    6.1790   14.4540   -1.7980 C   0  0  1  0  0  0  0  0  0  0  0  0
    5.2530   14.4380   -0.5620 C   0  0  0  0  0  0  0  0  0  0  0  0
    5.5560   13.8910    0.4960 O   0  0  0  0  0  0  0  0  0  0  0  0
    4.0470   15.0720   -0.7640 N   0  0  0  0  0  0  0  0  0  0  0  0
    3.0860   15.2620    0.2950 C   0  0  0  0  0  0  0  0  0  0  0  0
    1.7750   14.5930   -0.0310 C   0  0  0  0  0  0  0  0  0  0  0  0
    1.4260   13.3740    0.5610 C   0  0  0  0  0  0  0  0  0  0  0  0
    0.2180   12.7470    0.2360 C   0  0  0  0  0  0  0  0  0  0  0  0
   -0.6650   13.3260   -0.6860 C   0  0  0  0  0  0  0  0  0  0  0  0
   -1.9300   12.6740   -1.0360 C   0  0  0  0  0  0  0  0  0  0  0  0
   -3.4190   13.5240   -0.8610 S   0  0  0  0  0  0  0  0  0  0  0  0
   -4.2580   12.1630   -1.4670 C   0  0  0  0  0  0  0  0  0  0  0  0
   -3.5230   11.1250   -1.7900 N   0  0  0  0  0  0  0  0  0  0  0  0
   -2.1840   11.4060   -1.5490 C   0  0  0  0  0  0  0  0  0  0  0  0
   -1.1930   10.3410   -1.8570 C   0  0  0  0  0  0  0  0  0  0  0  0
   -0.3090   14.5430   -1.2810 C   0  0  0  0  0  0  0  0  0  0  0  0
    0.9000   15.1660   -0.9620 C   0  0  0  0  0  0  0  0  0  0  0  0
    5.6670   13.3640   -5.6220 C   0  0  0  0  0  0  0  0  0  0  0  0
    5.4060   12.0850   -6.4410 C   0  0  0  0  0  0  0  0  0  0  0  0
    5.3760   14.5810   -6.5180 C   0  0  0  0  0  0  0  0  0  0  0  0
    7.1690   13.4010   -5.2590 C   0  0  0  0  0  0  0  0  0  0  0  0
    0.6667   12.1969   -2.8516 H   0  0  0  0  0  0  0  0  0  0  0  0
    0.8558   13.1389   -4.3693 H   0  0  0  0  0  0  0  0  0  0  0  0
    1.1508   11.3670   -4.3693 H   0  0  0  0  0  0  0  0  0  0  0  0
    2.9360   13.4490   -5.2550 H   0  0  0  0  0  0  0  0  0  0  0  0
    5.3757   12.7883   -3.6108 H   0  0  0  0  0  0  0  0  0  0  0  0
    7.0370   16.5074   -3.8921 H   0  0  0  0  0  0  0  0  0  0  0  0
    5.8082   17.4416   -3.0396 H   0  0  0  0  0  0  0  0  0  0  0  0
    6.8900   17.0844   -0.8845 H   0  0  0  0  0  0  0  0  0  0  0  0
    8.3700   17.9610   -2.5710 H   0  0  0  0  0  0  0  0  0  0  0  0
    8.3219   14.6526   -2.1496 H   0  0  0  0  0  0  0  0  0  0  0  0
    7.8934   14.8394   -0.4623 H   0  0  0  0  0  0  0  0  0  0  0  0
    6.2625   13.4032   -2.1125 H   0  0  0  0  0  0  0  0  0  0  0  0
    3.9430   15.6200   -1.6180 H   0  0  0  0  0  0  0  0  0  0  0  0
    3.4869   14.8317    1.2246 H   0  0  0  0  0  0  0  0  0  0  0  0
    2.9064   16.3409    0.4125 H   0  0  0  0  0  0  0  0  0  0  0  0
    2.1063   12.9052    1.2872 H   0  0  0  0  0  0  0  0  0  0  0  0
   -0.0417   11.7887    0.7095 H   0  0  0  0  0  0  0  0  0  0  0  0
   -5.3522   12.1578   -1.5798 H   0  0  0  0  0  0  0  0  0  0  0  0
   -0.8023    9.9211   -0.9183 H   0  0  0  0  0  0  0  0  0  0  0  0
   -1.6793    9.5452   -2.4402 H   0  0  0  0  0  0  0  0  0  0  0  0
   -0.3643   10.7688   -2.4402 H   0  0  0  0  0  0  0  0  0  0  0  0
   -0.9885   15.0131   -2.0071 H   0  0  0  0  0  0  0  0  0  0  0  0
    1.1673   16.1164   -1.4471 H   0  0  0  0  0  0  0  0  0  0  0  0
    5.2337   11.2406   -5.7574 H   0  0  0  0  0  0  0  0  0  0  0  0
    4.5190   12.2303   -7.0751 H   0  0  0  0  0  0  0  0  0  0  0  0
    6.2790   11.8711   -7.0751 H   0  0  0  0  0  0  0  0  0  0  0  0
    5.1663   15.4582   -5.8883 H   0  0  0  0  0  0  0  0  0  0  0  0
    6.2504   14.7862   -7.1531 H   0  0  0  0  0  0  0  0  0  0  0  0
    4.5034   14.3685   -7.1531 H   0  0  0  0  0  0  0  0  0  0  0  0
    7.2818   13.4038   -4.1648 H   0  0  0  0  0  0  0  0  0  0  0  0
    7.6692   12.5149   -5.6769 H   0  0  0  0  0  0  0  0  0  0  0  0
    7.6249   14.3106   -5.6769 H   0  0  0  0  0  0  0  0  0  0  0  0
  1  2  1  0
  2  3  2  0
  2  4  1  0
  4  5  1  0
  5  6  1  0
  6  7  2  0
  6  8  1  0
  8  9  1  0
  9 10  1  0
 10 11  1  0
 10 12  1  0
 12 13  1  0
 13 14  1  0
 14 15  2  0
 14 16  1  0
 16 17  1  0
 17 18  1  0
 18 19  2  0
 19 20  1  0
 20 21  2  0
 21 22  1  0
 22 23  1  0
 23 24  1  0
 24 25  2  0
 25 26  1  0
 26 27  1  0
 21 28  1  0
 28 29  2  0
  5 30  1  0
 30 31  1  0
 30 32  1  0
 30 33  1  0
 13  8  1  0
 29 18  1  0
 26 22  2  0
  1 34  1  0
  1 35  1  0
  1 36  1  0
  4 37  1  0
  5 38  1  1
  9 39  1  0
  9 40  1  0
 10 41  1  1
 11 42  1  0
 12 43  1  0
 12 44  1  0
 13 45  1  6
 16 46  1  0
 17 47  1  0
 17 48  1  0
 19 49  1  0
 20 50  1  0
 24 51  1  0
 27 52  1  0
 27 53  1  0
 27 54  1  0
 28 55  1  0
 29 56  1  0
 31 57  1  0
 31 58  1  0
 31 59  1  0
 32 60  1  0
 32 61  1  0
 32 62  1  0
 33 63  1  0
 33 64  1  0
 33 65  1  0
M  END
>  <meeko>  (4) 
{"is_sidechain": [false], "free_energy": -6.789, "intermolecular_energy": -10.363, "internal_energy": -2.01}

$$$$
4w9h_ligand
     RDKit          3D

 65 67  0  0  0  0  0  0  0  0999 V2000
    5.4120   19.5660   -3.3010 C   0  0  0  0  0  0  0  0  0  0  0  0
    5.9510   18.2190   -2.9030 C   0  0  0  0  0  0  0  0  0  0  0  0
    7.1530   17.9760   -2.8740 O   0  0  0  0  0  0  0  0  0  0  0  0
    4.9790   17.2930   -2.5940 N   0  0  0  0  0  0  0  0  0  0  0  0
    5.3400   15.8880   -2.3780 C   0  0  2  0  0  0  0  0  0  0  0  0
    5.2280   15.2200   -3.7740 C   0  0  0  0  0  0  0  0  0  0  0  0
    4.2200   15.3880   -4.4730 O   0  0  0  0  0  0  0  0  0  0  0  0
    6.2570   14.4210   -4.2180 N   0  0  0  0  0  0  0  0  0  0  0  0
    7.5230   14.1780   -3.5360 C   0  0  0  0  0  0  0  0  0  0  0  0
    8.3020   13.2530   -4.4700 C   0  0  2  0  0  0  0  0  0  0  0  0
    9.7010   13.4230   -4.3420 O   0  0  0  0  0  0  0  0  0  0  0  0
    7.8140   13.6960   -5.8450 C   0  0  0  0  0  0  0  0  0  0  0  0
    6.3270   13.9640   -5.6110 C   0  0  1  0  0  0  0  0  0  0  0  0
    5.4690   12.6970   -5.8150 C   0  0  0  0  0  0  0  0  0  0  0  0
    5.6490   11.9060   -6.7390 O   0  0  0  0  0  0  0  0  0  0  0  0
    4.4670   12.5500   -4.8810 N   0  0  0  0  0  0  0  0  0  0  0  0
    3.6230   11.3810   -4.8300 C   0  0  0  0  0  0  0  0  0  0  0  0
    2.4060   11.6230   -3.9760 C   0  0  0  0  0  0  0  0  0  0  0  0
    1.7860   10.5670   -3.2970 C   0  0  0  0  0  0  0  0  0  0  0  0
    0.6410   10.7950   -2.5240 C   0  0  0  0  0  0  0  0  0  0  0  0
    0.0950   12.0810   -2.4150 C   0  0  0  0  0  0  0  0  0  0  0  0
   -1.1070   12.3280   -1.6120 C   0  0  0  0  0  0  0  0  0  0  0  0
   -2.6650   11.9650   -2.2520 S   0  0  0  0  0  0  0  0  0  0  0  0
   -3.3790   12.4770   -0.7860 C   0  0  0  0  0  0  0  0  0  0  0  0
   -2.5540   12.8980    0.1440 N   0  0  0  0  0  0  0  0  0  0  0  0
   -1.2470   12.8160   -0.3170 C   0  0  0  0  0  0  0  0  0  0  0  0
   -0.1650   13.2530    0.6060 C   0  0  0  0  0  0  0  0  0  0  0  0
    0.7140   13.1330   -3.1010 C   0  0  0  0  0  0  0  0  0  0  0  0
    1.8530   12.9060   -3.8780 C   0  0  0  0  0  0  0  0  0  0  0  0
    4.4410   15.2150   -1.2930 C   0  0  0  0  0  0  0  0  0  0  0  0
    4.4260   13.6770   -1.3910 C   0  0  0  0  0  0  0  0  0  0  0  0
    4.9100   15.6070    0.1190 C   0  0  0  0  0  0  0  0  0  0  0  0
    2.9890   15.7180   -1.4580 C   0  0  0  0  0  0  0  0  0  0  0  0
    5.1787   20.1490   -2.3979 H   0  0  0  0  0  0  0  0  0  0  0  0
    6.1655   20.1006   -3.8981 H   0  0  0  0  0  0  0  0  0  0  0  0
    4.4977   19.4333   -3.8981 H   0  0  0  0  0  0  0  0  0  0  0  0
    4.0720   17.4480   -3.0200 H   0  0  0  0  0  0  0  0  0  0  0  0
    6.3584   15.7781   -1.9769 H   0  0  0  0  0  0  0  0  0  0  0  0
    8.0675   15.1215   -3.3832 H   0  0  0  0  0  0  0  0  0  0  0  0
    7.3781   13.7341   -2.5400 H   0  0  0  0  0  0  0  0  0  0  0  0
    8.1353   12.1862   -4.2599 H   0  0  0  0  0  0  0  0  0  0  0  0
   10.0600   13.5590   -5.2360 H   0  0  0  0  0  0  0  0  0  0  0  0
    8.3333   14.6081   -6.1741 H   0  0  0  0  0  0  0  0  0  0  0  0
    8.0021   12.9517   -6.6328 H   0  0  0  0  0  0  0  0  0  0  0  0
    5.9300   14.7005   -6.3251 H   0  0  0  0  0  0  0  0  0  0  0  0
    4.4840   13.1710   -4.0730 H   0  0  0  0  0  0  0  0  0  0  0  0
    3.3002   11.1270   -5.8504 H   0  0  0  0  0  0  0  0  0  0  0  0
    4.1994   10.5550   -4.3879 H   0  0  0  0  0  0  0  0  0  0  0  0
    2.2014    9.5512   -3.3714 H   0  0  0  0  0  0  0  0  0  0  0  0
    0.1648    9.9554   -1.9965 H   0  0  0  0  0  0  0  0  0  0  0  0
   -4.4678   12.4550   -0.6307 H   0  0  0  0  0  0  0  0  0  0  0  0
   -0.4949   13.1198    1.6469 H   0  0  0  0  0  0  0  0  0  0  0  0
    0.7363   12.6484    0.4268 H   0  0  0  0  0  0  0  0  0  0  0  0
    0.0636   14.3140    0.4268 H   0  0  0  0  0  0  0  0  0  0  0  0
    0.2992   14.1491   -3.0275 H   0  0  0  0  0  0  0  0  0  0  0  0
    2.3198   13.7430   -4.4179 H   0  0  0  0  0  0  0  0  0  0  0  0
    4.4218   13.2452   -0.3793 H   0  0  0  0  0  0  0  0  0  0  0  0
    3.5247   13.3528   -1.9318 H   0  0  0  0  0  0  0  0  0  0  0  0
    5.3209   13.3353   -1.9318 H   0  0  0  0  0  0  0  0  0  0  0  0
    4.2915   15.0901    0.8675 H   0  0  0  0  0  0  0  0  0  0  0  0
    5.9629   15.3165    0.2495 H   0  0  0  0  0  0  0  0  0  0  0  0
    4.8109   16.6947    0.2495 H   0  0  0  0  0  0  0  0  0  0  0  0
    2.5399   15.8736   -0.4660 H   0  0  0  0  0  0  0  0  0  0  0  0
    2.9908   16.6679   -2.0127 H   0  0  0  0  0  0  0  0  0  0  0  0
    2.4028   14.9706   -2.0127 H   0  0  0  0  0  0  0  0  0  0  0  0
  1  2  1  0
  2  3  2  0
  2  4  1  0
  4  5  1  0
  5  6  1  0
  6  7  2  0
  6  8  1  0
  8  9  1  0
  9 10  1  0
 10 11  1  0
 10 12  1  0
 12 13  1  0
 13 14  1  0
 14 15  2  0
 14 16  1  0
 16 17  1  0
 17 18  1  0
 18 19  2  0
 19 20  1  0
 20 21  2  0
 21 22  1  0
 22 23  1  0
 23 24  1  0
 24 25  2  0
 25 26  1  0
 26 27  1  0
 21 28  1  0
 28 29  2  0
  5 30  1  0
 30 31  1  0
 30 32  1  0
 30 33  1  0
 13  8  1  0
 29 18  1  0
 26 22  2  0
  1 34  1  0
  1 35  1  0
  1 36  1  0
  4 37  1  0
  5 38  1  1
  9 39  1  0
  9 40  1  0
 10 41  1  1
 11 42  1  0
 12 43  1  0
 12 44  1  0
 13 45  1  6
 16 46  1  0
 17 47  1  0
 17 48  1  0
 19 49  1  0
 20 50  1  0
 24 51  1  0
 27 52  1  0
 27 53  1  0
 27 54  1  0
 28 55  1  0
 29 56  1  0
 31 57  1  0
 31 58  1  0
 31 59  1  0
 32 60  1  0
 32 61  1  0
 32 62  1  0
 33 63  1  0
 33 64  1  0
 33 65  1  0
M  END
>  <meeko>  (5) 
{"is_sidechain": [false], "free_energy": -6.777, "intermolecular_energy": -10.403, "internal_energy": -1.952}

$$$$
4w9h_ligand
     RDKit          3D

 65 67  0  0  0  0  0  0  0  0999 V2000
    9.1000   13.2120   -4.4700 C   0  0  0  0  0  0  0  0  0  0  0  0
    7.8970   13.6730   -5.2470 C   0  0  0  0  0  0  0  0  0  0  0  0
    7.9950   14.3200   -6.2840 O   0  0  0  0  0  0  0  0  0  0  0  0
    6.6920   13.3150   -4.6830 N   0  0  0  0  0  0  0  0  0  0  0  0
    5.4370   13.8570   -5.2180 C   0  0  2  0  0  0  0  0  0  0  0  0
    4.8640   14.7480   -4.0840 C   0  0  0  0  0  0  0  0  0  0  0  0
    3.6610   15.0400   -4.0600 O   0  0  0  0  0  0  0  0  0  0  0  0
    5.7160   15.2290   -3.1170 N   0  0  0  0  0  0  0  0  0  0  0  0
    6.5720   16.4060   -3.2210 C   0  0  0  0  0  0  0  0  0  0  0  0
    7.3230   16.4650   -1.8910 C   0  0  2  0  0  0  0  0  0  0  0  0
    8.5930   17.0740   -2.0240 O   0  0  0  0  0  0  0  0  0  0  0  0
    7.4510   14.9890   -1.5260 C   0  0  0  0  0  0  0  0  0  0  0  0
    6.1060   14.4090   -1.9630 C   0  0  1  0  0  0  0  0  0  0  0  0
    5.0440   14.5000   -0.8450 C   0  0  0  0  0  0  0  0  0  0  0  0
    4.4590   15.5420   -0.5590 O   0  0  0  0  0  0  0  0  0  0  0  0
    4.8350   13.3110   -0.1820 N   0  0  0  0  0  0  0  0  0  0  0  0
    3.8110   13.1560    0.8220 C   0  0  0  0  0  0  0  0  0  0  0  0
    2.4870   12.7900    0.2000 C   0  0  0  0  0  0  0  0  0  0  0  0
    1.2840   13.0760    0.8550 C   0  0  0  0  0  0  0  0  0  0  0  0
    0.0600   12.7130    0.2830 C   0  0  0  0  0  0  0  0  0  0  0  0
    0.0140   12.0580   -0.9560 C   0  0  0  0  0  0  0  0  0  0  0  0
   -1.2630   11.6690   -1.5610 C   0  0  0  0  0  0  0  0  0  0  0  0
   -1.3590   10.2610   -2.5500 S   0  0  0  0  0  0  0  0  0  0  0  0
   -3.0330   10.5350   -2.7650 C   0  0  0  0  0  0  0  0  0  0  0  0
   -3.5300   11.5890   -2.1610 N   0  0  0  0  0  0  0  0  0  0  0  0
   -2.5250   12.2480   -1.4650 C   0  0  0  0  0  0  0  0  0  0  0  0
   -2.9010   13.4750   -0.7140 C   0  0  0  0  0  0  0  0  0  0  0  0
    1.2210   11.7680   -1.6060 C   0  0  0  0  0  0  0  0  0  0  0  0
    2.4440   12.1240   -1.0320 C   0  0  0  0  0  0  0  0  0  0  0  0
    4.4620   12.7250   -5.6720 C   0  0  0  0  0  0  0  0  0  0  0  0
    3.6910   12.0870   -4.5010 C   0  0  0  0  0  0  0  0  0  0  0  0
    3.4400   13.2660   -6.6880 C   0  0  0  0  0  0  0  0  0  0  0  0
    5.2720   11.6110   -6.3740 C   0  0  0  0  0  0  0  0  0  0  0  0
    8.8930   13.2913   -3.3926 H   0  0  0  0  0  0  0  0  0  0  0  0
    9.3219   12.1651   -4.7247 H   0  0  0  0  0  0  0  0  0  0  0  0
    9.9647   13.8425   -4.7247 H   0  0  0  0  0  0  0  0  0  0  0  0
    6.7040   13.1560   -3.6810 H   0  0  0  0  0  0  0  0  0  0  0  0
    5.5947   14.4480   -6.1323 H   0  0  0  0  0  0  0  0  0  0  0  0
    7.2766   16.2992   -4.0589 H   0  0  0  0  0  0  0  0  0  0  0  0
    5.9944   17.3226   -3.4113 H   0  0  0  0  0  0  0  0  0  0  0  0
    6.8081   17.0694   -1.1297 H   0  0  0  0  0  0  0  0  0  0  0  0
    8.5780   17.8950   -1.5000 H   0  0  0  0  0  0  0  0  0  0  0  0
    8.2812   14.5172   -2.0721 H   0  0  0  0  0  0  0  0  0  0  0  0
    7.6691   14.8232   -0.4607 H   0  0  0  0  0  0  0  0  0  0  0  0
    6.1846   13.3385   -2.2033 H   0  0  0  0  0  0  0  0  0  0  0  0
    5.2550   12.4720   -0.5800 H   0  0  0  0  0  0  0  0  0  0  0  0
    4.1111   12.3610    1.5205 H   0  0  0  0  0  0  0  0  0  0  0  0
    3.6942   14.1136    1.3505 H   0  0  0  0  0  0  0  0  0  0  0  0
    1.3009   13.5903    1.8272 H   0  0  0  0  0  0  0  0  0  0  0  0
   -0.8769   12.9440    0.8111 H   0  0  0  0  0  0  0  0  0  0  0  0
   -3.6579    9.8660   -3.3748 H   0  0  0  0  0  0  0  0  0  0  0  0
   -2.8402   13.2768    0.3663 H   0  0  0  0  0  0  0  0  0  0  0  0
   -2.2117   14.2911   -0.9763 H   0  0  0  0  0  0  0  0  0  0  0  0
   -3.9292   13.7648   -0.9763 H   0  0  0  0  0  0  0  0  0  0  0  0
    1.2054   11.2545   -2.5787 H   0  0  0  0  0  0  0  0  0  0  0  0
    3.3818   11.8792   -1.5521 H   0  0  0  0  0  0  0  0  0  0  0  0
    4.1149   12.4378   -3.5485 H   0  0  0  0  0  0  0  0  0  0  0  0
    2.6312   12.3758   -4.5591 H   0  0  0  0  0  0  0  0  0  0  0  0
    3.7764   10.9919   -4.5591 H   0  0  0  0  0  0  0  0  0  0  0  0
    2.5916   13.7151   -6.1509 H   0  0  0  0  0  0  0  0  0  0  0  0
    3.9192   14.0285   -7.3196 H   0  0  0  0  0  0  0  0  0  0  0  0
    3.0789   12.4410   -7.3196 H   0  0  0  0  0  0  0  0  0  0  0  0
    5.7411   10.9659   -5.6165 H   0  0  0  0  0  0  0  0  0  0  0  0
    4.5992   11.0090   -7.0025 H   0  0  0  0  0  0  0  0  0  0  0  0
    6.0521   12.0654   -7.0025 H   0  0  0  0  0  0  0  0  0  0  0  0
  1  2  1  0
  2  3  2  0
  2  4  1  0
  4  5  1  0
  5  6  1  0
  6  7  2  0
  6  8  1  0
  8  9  1  0
  9 10  1  0
 10 11  1  0
 10 12  1  0
 12 13  1  0
 13 14  1  0
 14 15  2  0
 14 16  1  0
 16 17  1  0
 17 18  1  0
 18 19  2  0
 19 20  1  0
 20 21  2  0
 21 22  1  0
 22 23  1  0
 23 24  1  0
 24 25  2  0
 25 26  1  0
 26 27  1  0
 21 28  1  0
 28 29  2  0
  5 30  1  0
 30 31  1  0
 30 32  1  0
 30 33  1  0
 13  8  1  0
 29 18  1  0
 26 22  2  0
  1 34  1  0
  1 35  1  0
  1 36  1  0
  4 37  1  0
  5 38  1  6
  9 39  1  0
  9 40  1  0
 10 41  1  1
 11 42  1  0
 12 43  1  0
 12 44  1  0
 13 45  1  6
 16 46  1  0
 17 47  1  0
 17 48  1  0
 19 49  1  0
 20 50  1  0
 24 51  1  0
 27 52  1  0
 27 53  1  0
 27 54  1  0
 28 55  1  0
 29 56  1  0
 31 57  1  0
 31 58  1  0
 31 59  1  0
 32 60  1  0
 32 61  1  0
 32 62  1  0
 33 63  1  0
 33 64  1  0
 33 65  1  0
M  END
>  <meeko>  (6) 
{"is_sidechain": [false], "free_energy": -6.752, "intermolecular_energy": -11.744, "internal_energy": -0.573}

$$$$
4w9h_ligand
     RDKit          3D

 65 67  0  0  0  0  0  0  0  0999 V2000
    4.8890   10.6410   -5.9600 C   0  0  0  0  0  0  0  0  0  0  0  0
    4.3540   11.9820   -5.5350 C   0  0  0  0  0  0  0  0  0  0  0  0
    4.6580   13.0210   -6.1110 O   0  0  0  0  0  0  0  0  0  0  0  0
    3.5150   11.9320   -4.4440 N   0  0  0  0  0  0  0  0  0  0  0  0
    3.0720   13.1730   -3.7970 C   0  0  2  0  0  0  0  0  0  0  0  0
    3.2200   12.9110   -2.2750 C   0  0  0  0  0  0  0  0  0  0  0  0
    2.9090   11.8160   -1.7910 O   0  0  0  0  0  0  0  0  0  0  0  0
    3.6820   13.9240   -1.4650 N   0  0  0  0  0  0  0  0  0  0  0  0
    4.5260   15.0430   -1.8710 C   0  0  0  0  0  0  0  0  0  0  0  0
    4.7640   15.8400   -0.5880 C   0  0  2  0  0  0  0  0  0  0  0  0
    6.0040   16.5230   -0.6100 O   0  0  0  0  0  0  0  0  0  0  0  0
    4.7500   14.7490    0.4780 C   0  0  0  0  0  0  0  0  0  0  0  0
    3.6390   13.8140   -0.0020 C   0  0  1  0  0  0  0  0  0  0  0  0
    2.2540   14.2340    0.5380 C   0  0  0  0  0  0  0  0  0  0  0  0
    1.9970   15.3770    0.9070 O   0  0  0  0  0  0  0  0  0  0  0  0
    1.3440   13.2010    0.5910 N   0  0  0  0  0  0  0  0  0  0  0  0
   -0.0340   13.4040    0.9620 C   0  0  0  0  0  0  0  0  0  0  0  0
   -0.9680   12.7590   -0.0290 C   0  0  0  0  0  0  0  0  0  0  0  0
   -2.3040   13.1660   -0.1260 C   0  0  0  0  0  0  0  0  0  0  0  0
   -3.1710   12.5470   -1.0320 C   0  0  0  0  0  0  0  0  0  0  0  0
   -2.7210   11.5090   -1.8600 C   0  0  0  0  0  0  0  0  0  0  0  0
   -3.6240   10.8500   -2.8100 C   0  0  0  0  0  0  0  0  0  0  0  0
   -3.4990   11.1830   -4.4950 S   0  0  0  0  0  0  0  0  0  0  0  0
   -4.7670   10.0770   -4.8000 C   0  0  0  0  0  0  0  0  0  0  0  0
   -5.2780    9.4780   -3.7500 N   0  0  0  0  0  0  0  0  0  0  0  0
   -4.6300    9.9120   -2.6010 C   0  0  0  0  0  0  0  0  0  0  0  0
   -5.0770    9.3400   -1.3030 C   0  0  0  0  0  0  0  0  0  0  0  0
   -1.3860   11.1000   -1.7560 C   0  0  0  0  0  0  0  0  0  0  0  0
   -0.5210   11.7130   -0.8470 C   0  0  0  0  0  0  0  0  0  0  0  0
    1.6210   13.5660   -4.2230 C   0  0  0  0  0  0  0  0  0  0  0  0
    1.5840   14.4870   -5.4580 C   0  0  0  0  0  0  0  0  0  0  0  0
    0.7870   12.3090   -4.5300 C   0  0  0  0  0  0  0  0  0  0  0  0
    0.9350   14.3070   -3.0530 C   0  0  0  0  0  0  0  0  0  0  0  0
    5.1279   10.0423   -5.0687 H   0  0  0  0  0  0  0  0  0  0  0  0
    4.1309   10.1175   -6.5610 H   0  0  0  0  0  0  0  0  0  0  0  0
    5.7993   10.7831   -6.5610 H   0  0  0  0  0  0  0  0  0  0  0  0
    3.6450   11.1410   -3.8230 H   0  0  0  0  0  0  0  0  0  0  0  0
    3.6763   14.0403   -4.1013 H   0  0  0  0  0  0  0  0  0  0  0  0
    5.4788   14.6797   -2.2836 H   0  0  0  0  0  0  0  0  0  0  0  0
    4.0565   15.6528   -2.6569 H   0  0  0  0  0  0  0  0  0  0  0  0
    4.0178   16.6315   -0.4245 H   0  0  0  0  0  0  0  0  0  0  0  0
    6.5560   16.1450    0.0980 H   0  0  0  0  0  0  0  0  0  0  0  0
    5.7165   14.2255    0.5207 H   0  0  0  0  0  0  0  0  0  0  0  0
    4.5818   15.1370    1.4935 H   0  0  0  0  0  0  0  0  0  0  0  0
    3.7903   12.7849    0.3560 H   0  0  0  0  0  0  0  0  0  0  0  0
    1.5990   12.3270    0.1310 H   0  0  0  0  0  0  0  0  0  0  0  0
   -0.2062   12.9643    1.9555 H   0  0  0  0  0  0  0  0  0  0  0  0
   -0.2345   14.4855    0.9753 H   0  0  0  0  0  0  0  0  0  0  0  0
   -2.6747   13.9791    0.5155 H   0  0  0  0  0  0  0  0  0  0  0  0
   -4.2180   12.8783   -1.0957 H   0  0  0  0  0  0  0  0  0  0  0  0
   -5.1334    9.8789   -5.8181 H   0  0  0  0  0  0  0  0  0  0  0  0
   -4.6299    9.9122   -0.4768 H   0  0  0  0  0  0  0  0  0  0  0  0
   -6.1736    9.3954   -1.2361 H   0  0  0  0  0  0  0  0  0  0  0  0
   -4.7582    8.2893   -1.2361 H   0  0  0  0  0  0  0  0  0  0  0  0
   -1.0145   10.2871   -2.3972 H   0  0  0  0  0  0  0  0  0  0  0  0
    0.5219   11.3712   -0.7725 H   0  0  0  0  0  0  0  0  0  0  0  0
    1.5418   15.5366   -5.1315 H   0  0  0  0  0  0  0  0  0  0  0  0
    2.4893   14.3270   -6.0620 H   0  0  0  0  0  0  0  0  0  0  0  0
    0.6945   14.2549   -6.0620 H   0  0  0  0  0  0  0  0  0  0  0  0
    0.4740   11.8373   -3.5869 H   0  0  0  0  0  0  0  0  0  0  0  0
   -0.1029   12.5923   -5.1113 H   0  0  0  0  0  0  0  0  0  0  0  0
    1.3939   11.5992   -5.1113 H   0  0  0  0  0  0  0  0  0  0  0  0
    1.3056   13.9067   -2.0978 H   0  0  0  0  0  0  0  0  0  0  0  0
    1.1646   15.3810   -3.1142 H   0  0  0  0  0  0  0  0  0  0  0  0
   -0.1535   14.1607   -3.1142 H   0  0  0  0  0  0  0  0  0  0  0  0
  1  2  1  0
  2  3  2  0
  2  4  1  0
  4  5  1  0
  5  6  1  0
  6  7  2  0
  6  8  1  0
  8  9  1  0
  9 10  1  0
 10 11  1  0
 10 12  1  0
 12 13  1  0
 13 14  1  0
 14 15  2  0
 14 16  1  0
 16 17  1  0
 17 18  1  0
 18 19  2  0
 19 20  1  0
 20 21  2  0
 21 22  1  0
 22 23  1  0
 23 24  1  0
 24 25  2  0
 25 26  1  0
 26 27  1  0
 21 28  1  0
 28 29  2  0
  5 30  1  0
 30 31  1  0
 30 32  1  0
 30 33  1  0
 13  8  1  0
 29 18  1  0
 26 22  2  0
  1 34  1  0
  1 35  1  0
  1 36  1  0
  4 37  1  0
  5 38  1  6
  9 39  1  0
  9 40  1  0
 10 41  1  1
 11 42  1  0
 12 43  1  0
 12 44  1  0
 13 45  1  6
 16 46  1  0
 17 47  1  0
 17 48  1  0
 19 49  1  0
 20 50  1  0
 24 51  1  0
 27 52  1  0
 27 53  1  0
 27 54  1  0
 28 55  1  0
 29 56  1  0
 31 57  1  0
 31 58  1  0
 31 59  1  0
 32 60  1  0
 32 61  1  0
 32 62  1  0
 33 63  1  0
 33 64  1  0
 33 65  1  0
M  END
>  <meeko>  (7) 
{"is_sidechain": [false], "free_energy": -6.6, "intermolecular_energy": -10.003, "internal_energy": -2.088}

$$$$
4w9h_ligand
     RDKit          3D

 65 67  0  0  0  0  0  0  0  0999 V2000
    5.0130   10.5470   -6.0690 C   0  0  0  0  0  0  0  0  0  0  0  0
    4.4210   11.8700   -5.6640 C   0  0  0  0  0  0  0  0  0  0  0  0
    4.7050   12.9180   -6.2350 O   0  0  0  0  0  0  0  0  0  0  0  0
    3.5530   11.7940   -4.5970 N   0  0  0  0  0  0  0  0  0  0  0  0
    3.0500   13.0210   -3.9680 C   0  0  2  0  0  0  0  0  0  0  0  0
    3.2720   12.8160   -2.4450 C   0  0  0  0  0  0  0  0  0  0  0  0
    2.9710   11.7450   -1.9030 O   0  0  0  0  0  0  0  0  0  0  0  0
    3.7900   13.8510   -1.7010 N   0  0  0  0  0  0  0  0  0  0  0  0
    4.6130   14.9490   -2.1950 C   0  0  0  0  0  0  0  0  0  0  0  0
    4.9350   15.7870   -0.9580 C   0  0  2  0  0  0  0  0  0  0  0  0
    6.1750   16.4590   -1.0790 O   0  0  0  0  0  0  0  0  0  0  0  0
    4.9810   14.7330    0.1430 C   0  0  0  0  0  0  0  0  0  0  0  0
    3.8370   13.7920   -0.2350 C   0  0  1  0  0  0  0  0  0  0  0  0
    2.4900   14.2400    0.3740 C   0  0  0  0  0  0  0  0  0  0  0  0
    2.2680   15.3940    0.7350 O   0  0  0  0  0  0  0  0  0  0  0  0
    1.5720   13.2210    0.5000 N   0  0  0  0  0  0  0  0  0  0  0  0
    0.2200   13.4500    0.9450 C   0  0  0  0  0  0  0  0  0  0  0  0
   -0.7760   12.7660    0.0430 C   0  0  0  0  0  0  0  0  0  0  0  0
   -2.1210   13.1510    0.0390 C   0  0  0  0  0  0  0  0  0  0  0  0
   -3.0440   12.4970   -0.7840 C   0  0  0  0  0  0  0  0  0  0  0  0
   -2.6410   11.4460   -1.6200 C   0  0  0  0  0  0  0  0  0  0  0  0
   -3.6030   10.7500   -2.4820 C   0  0  0  0  0  0  0  0  0  0  0  0
   -4.6910    9.5970   -1.8080 S   0  0  0  0  0  0  0  0  0  0  0  0
   -5.3780    9.3540   -3.3550 C   0  0  0  0  0  0  0  0  0  0  0  0
   -4.8640   10.0600   -4.3350 N   0  0  0  0  0  0  0  0  0  0  0  0
   -3.8450   10.8680   -3.8460 C   0  0  0  0  0  0  0  0  0  0  0  0
   -3.1400   11.7460   -4.8170 C   0  0  0  0  0  0  0  0  0  0  0  0
   -1.2950   11.0590   -1.6080 C   0  0  0  0  0  0  0  0  0  0  0  0
   -0.3740   11.7080   -0.7820 C   0  0  0  0  0  0  0  0  0  0  0  0
    1.5610   13.3010   -4.3470 C   0  0  0  0  0  0  0  0  0  0  0  0
    0.7540   12.0160   -4.6140 C   0  0  0  0  0  0  0  0  0  0  0  0
    0.8570   14.0910   -3.2290 C   0  0  0  0  0  0  0  0  0  0  0  0
    1.5200   14.1660   -5.6270 C   0  0  0  0  0  0  0  0  0  0  0  0
    5.2712    9.9699   -5.1688 H   0  0  0  0  0  0  0  0  0  0  0  0
    4.2804    9.9852   -6.6671 H   0  0  0  0  0  0  0  0  0  0  0  0
    5.9201   10.7189   -6.6671 H   0  0  0  0  0  0  0  0  0  0  0  0
    3.6930   11.0100   -3.9700 H   0  0  0  0  0  0  0  0  0  0  0  0
    3.5816   13.9174   -4.3199 H   0  0  0  0  0  0  0  0  0  0  0  0
    5.5363   14.5648   -2.6532 H   0  0  0  0  0  0  0  0  0  0  0  0
    4.0984   15.5359   -2.9701 H   0  0  0  0  0  0  0  0  0  0  0  0
    4.2051   16.5897   -0.7767 H   0  0  0  0  0  0  0  0  0  0  0  0
    6.8300   15.8060   -1.3820 H   0  0  0  0  0  0  0  0  0  0  0  0
    5.9451   14.2033    0.1434 H   0  0  0  0  0  0  0  0  0  0  0  0
    4.8789   15.1562    1.1532 H   0  0  0  0  0  0  0  0  0  0  0  0
    4.0045   12.7749    0.1491 H   0  0  0  0  0  0  0  0  0  0  0  0
    1.7900   12.3350    0.0430 H   0  0  0  0  0  0  0  0  0  0  0  0
    0.1074   13.0573    1.9663 H   0  0  0  0  0  0  0  0  0  0  0  0
    0.0248   14.5323    0.9209 H   0  0  0  0  0  0  0  0  0  0  0  0
   -2.4552   13.9740    0.6878 H   0  0  0  0  0  0  0  0  0  0  0  0
   -4.0982   12.8109   -0.7752 H   0  0  0  0  0  0  0  0  0  0  0  0
   -6.2038    8.6462   -3.5195 H   0  0  0  0  0  0  0  0  0  0  0  0
   -2.5421   12.4906   -4.2710 H   0  0  0  0  0  0  0  0  0  0  0  0
   -2.4778   11.1361   -5.4492 H   0  0  0  0  0  0  0  0  0  0  0  0
   -3.8785   12.2608   -5.4492 H   0  0  0  0  0  0  0  0  0  0  0  0
   -0.9596   10.2356   -2.2556 H   0  0  0  0  0  0  0  0  0  0  0  0
    0.6775   11.3848   -0.7796 H   0  0  0  0  0  0  0  0  0  0  0  0
    0.4664   11.5580   -3.6561 H   0  0  0  0  0  0  0  0  0  0  0  0
   -0.1509   12.2639   -5.1882 H   0  0  0  0  0  0  0  0  0  0  0  0
    1.3703   11.3086   -5.1882 H   0  0  0  0  0  0  0  0  0  0  0  0
    1.1904   13.7168   -2.2498 H   0  0  0  0  0  0  0  0  0  0  0  0
    1.1093   15.1579   -3.3191 H   0  0  0  0  0  0  0  0  0  0  0  0
   -0.2318   13.9628   -3.3191 H   0  0  0  0  0  0  0  0  0  0  0  0
    1.4696   15.2292   -5.3496 H   0  0  0  0  0  0  0  0  0  0  0  0
    2.4277   13.9847   -6.2213 H   0  0  0  0  0  0  0  0  0  0  0  0
    0.6335   13.8997   -6.2213 H   0  0  0  0  0  0  0  0  0  0  0  0
  1  2  1  0
  2  3  2  0
  2  4  1  0
  4  5  1  0
  5  6  1  0
  6  7  2  0
  6  8  1  0
  8  9  1  0
  9 10  1  0
 10 11  1  0
 10 12  1  0
 12 13  1  0
 13 14  1  0
 14 15  2  0
 14 16  1  0
 16 17  1  0
 17 18  1  0
 18 19  2  0
 19 20  1  0
 20 21  2  0
 21 22  1  0
 22 23  1  0
 23 24  1  0
 24 25  2  0
 25 26  1  0
 26 27  1  0
 21 28  1  0
 28 29  2  0
  5 30  1  0
 30 31  1  0
 30 32  1  0
 30 33  1  0
 13  8  1  0
 29 18  1  0
 26 22  2  0
  1 34  1  0
  1 35  1  0
  1 36  1  0
  4 37  1  0
  5 38  1  6
  9 39  1  0
  9 40  1  0
 10 41  1  1
 11 42  1  0
 12 43  1  0
 12 44  1  0
 13 45  1  6
 16 46  1  0
 17 47  1  0
 17 48  1  0
 19 49  1  0
 20 50  1  0
 24 51  1  0
 27 52  1  0
 27 53  1  0
 27 54  1  0
 28 55  1  0
 29 56  1  0
 31 57  1  0
 31 58  1  0
 31 59  1  0
 32 60  1  0
 32 61  1  0
 32 62  1  0
 33 63  1  0
 33 64  1  0
 33 65  1  0
M  END
>  <meeko>  (8) 
{"is_sidechain": [false], "free_energy": -6.537, "intermolecular_energy": -9.731, "internal_energy": -2.264}

$$$$
4w9h_ligand
     RDKit          3D

 65 67  0  0  0  0  0  0  0  0999 V2000
    3.6370   12.0730   -4.8620 C   0  0  0  0  0  0  0  0  0  0  0  0
    4.5650   13.2270   -5.1250 C   0  0  0  0  0  0  0  0  0  0  0  0
    5.7290   13.0650   -5.4780 O   0  0  0  0  0  0  0  0  0  0  0  0
    3.9960   14.4640   -4.9200 N   0  0  0  0  0  0  0  0  0  0  0  0
    4.8280   15.6730   -4.9470 C   0  0  2  0  0  0  0  0  0  0  0  0
    4.5430   16.3920   -3.6020 C   0  0  0  0  0  0  0  0  0  0  0  0
    3.3950   16.7510   -3.3100 O   0  0  0  0  0  0  0  0  0  0  0  0
    5.5900   16.6450   -2.7450 N   0  0  0  0  0  0  0  0  0  0  0  0
    6.3130   17.9050   -2.6060 C   0  0  0  0  0  0  0  0  0  0  0  0
    7.3850   17.6280   -1.5520 C   0  0  2  0  0  0  0  0  0  0  0  0
    8.5340   18.4330   -1.7380 O   0  0  0  0  0  0  0  0  0  0  0  0
    7.6960   16.1540   -1.7860 C   0  0  0  0  0  0  0  0  0  0  0  0
    6.3220   15.5560   -2.0860 C   0  0  1  0  0  0  0  0  0  0  0  0
    5.5910   15.1050   -0.8030 C   0  0  0  0  0  0  0  0  0  0  0  0
    5.1510   15.8930    0.0300 O   0  0  0  0  0  0  0  0  0  0  0  0
    5.5030   13.7370   -0.6670 N   0  0  0  0  0  0  0  0  0  0  0  0
    4.7670   13.1130    0.4050 C   0  0  0  0  0  0  0  0  0  0  0  0
    3.3250   12.8950    0.0230 C   0  0  0  0  0  0  0  0  0  0  0  0
    2.9830   12.4550   -1.2610 C   0  0  0  0  0  0  0  0  0  0  0  0
    1.6410   12.2780   -1.6170 C   0  0  0  0  0  0  0  0  0  0  0  0
    0.6160   12.5360   -0.6970 C   0  0  0  0  0  0  0  0  0  0  0  0
   -0.7930   12.3580   -1.0620 C   0  0  0  0  0  0  0  0  0  0  0  0
   -1.9220   13.6330   -0.8000 S   0  0  0  0  0  0  0  0  0  0  0  0
   -3.1600   12.6650   -1.4760 C   0  0  0  0  0  0  0  0  0  0  0  0
   -2.8040   11.4690   -1.8810 N   0  0  0  0  0  0  0  0  0  0  0  0
   -1.4470   11.2800   -1.6510 C   0  0  0  0  0  0  0  0  0  0  0  0
   -0.8590    9.9730   -2.0470 C   0  0  0  0  0  0  0  0  0  0  0  0
    0.9620   12.9820    0.5850 C   0  0  0  0  0  0  0  0  0  0  0  0
    2.3010   13.1660    0.9390 C   0  0  0  0  0  0  0  0  0  0  0  0
    4.5300   16.5570   -6.2000 C   0  0  0  0  0  0  0  0  0  0  0  0
    4.7480   18.0600   -5.9430 C   0  0  0  0  0  0  0  0  0  0  0  0
    5.4170   16.1330   -7.3850 C   0  0  0  0  0  0  0  0  0  0  0  0
    3.0580   16.3530   -6.6230 C   0  0  0  0  0  0  0  0  0  0  0  0
    3.5244   11.9330   -3.7768 H   0  0  0  0  0  0  0  0  0  0  0  0
    2.6540   12.2838   -5.3084 H   0  0  0  0  0  0  0  0  0  0  0  0
    4.0538   11.1582   -5.3084 H   0  0  0  0  0  0  0  0  0  0  0  0
    3.2160   14.4890   -4.2730 H   0  0  0  0  0  0  0  0  0  0  0  0
    5.8987   15.4391   -5.0416 H   0  0  0  0  0  0  0  0  0  0  0  0
    6.7750   18.1937   -3.5616 H   0  0  0  0  0  0  0  0  0  0  0  0
    5.6502   18.7333   -2.3153 H   0  0  0  0  0  0  0  0  0  0  0  0
    7.0543   17.8559   -0.5279 H   0  0  0  0  0  0  0  0  0  0  0  0
    8.3200   19.0900   -2.4240 H   0  0  0  0  0  0  0  0  0  0  0  0
    8.3783   16.0245   -2.6390 H   0  0  0  0  0  0  0  0  0  0  0  0
    8.1995   15.6765   -0.9325 H   0  0  0  0  0  0  0  0  0  0  0  0
    6.4004   14.6521   -2.7079 H   0  0  0  0  0  0  0  0  0  0  0  0
    5.7650   13.1680   -1.4720 H   0  0  0  0  0  0  0  0  0  0  0  0
    5.2271   12.1414    0.6378 H   0  0  0  0  0  0  0  0  0  0  0  0
    4.7981   13.7774    1.2811 H   0  0  0  0  0  0  0  0  0  0  0  0
    3.7748   12.2468   -1.9957 H   0  0  0  0  0  0  0  0  0  0  0  0
    1.3881   11.9325   -2.6303 H   0  0  0  0  0  0  0  0  0  0  0  0
   -4.1956   13.0249   -1.5660 H   0  0  0  0  0  0  0  0  0  0  0  0
   -0.6007    9.3988   -1.1450 H   0  0  0  0  0  0  0  0  0  0  0  0
   -1.5897    9.4081   -2.6445 H   0  0  0  0  0  0  0  0  0  0  0  0
    0.0484   10.1451   -2.6445 H   0  0  0  0  0  0  0  0  0  0  0  0
    0.1711   13.1896    1.3208 H   0  0  0  0  0  0  0  0  0  0  0  0
    2.5533   13.5272    1.9469 H   0  0  0  0  0  0  0  0  0  0  0  0
    4.7751   18.2465   -4.8593 H   0  0  0  0  0  0  0  0  0  0  0  0
    5.7012   18.3745   -6.3931 H   0  0  0  0  0  0  0  0  0  0  0  0
    3.9235   18.6323   -6.3931 H   0  0  0  0  0  0  0  0  0  0  0  0
    6.3483   15.6878   -7.0050 H   0  0  0  0  0  0  0  0  0  0  0  0
    4.8808   15.3938   -7.9983 H   0  0  0  0  0  0  0  0  0  0  0  0
    5.6555   17.0145   -7.9983 H   0  0  0  0  0  0  0  0  0  0  0  0
    2.4274   16.2656   -5.7259 H   0  0  0  0  0  0  0  0  0  0  0  0
    2.7260   17.2137   -7.2221 H   0  0  0  0  0  0  0  0  0  0  0  0
    2.9726   15.4344   -7.2221 H   0  0  0  0  0  0  0  0  0  0  0  0
  1  2  1  0
  2  3  2  0
  2  4  1  0
  4  5  1  0
  5  6  1  0
  6  7  2  0
  6  8  1  0
  8  9  1  0
  9 10  1  0
 10 11  1  0
 10 12  1  0
 12 13  1  0
 13 14  1  0
 14 15  2  0
 14 16  1  0
 16 17  1  0
 17 18  1  0
 18 19  2  0
 19 20  1  0
 20 21  2  0
 21 22  1  0
 22 23  1  0
 23 24  1  0
 24 25  2  0
 25 26  1  0
 26 27  1  0
 21 28  1  0
 28 29  2  0
  5 30  1  0
 30 31  1  0
 30 32  1  0
 30 33  1  0
 13  8  1  0
 29 18  1  0
 26 22  2  0
  1 34  1  0
  1 35  1  0
  1 36  1  0
  4 37  1  0
  5 38  1  1
  9 39  1  0
  9 40  1  0
 10 41  1  1
 11 42  1  0
 12 43  1  0
 12 44  1  0
 13 45  1  6
 16 46  1  0
 17 47  1  0
 17 48  1  0
 19 49  1  0
 20 50  1  0
 24 51  1  0
 27 52  1  0
 27 53  1  0
 27 54  1  0
 28 55  1  0
 29 56  1  0
 31 57  1  0
 31 58  1  0
 31 59  1  0
 32 60  1  0
 32 61  1  0
 32 62  1  0
 33 63  1  0
 33 64  1  0
 33 65  1  0
M  END
>  <meeko>  (9) 
{"is_sidechain": [false], "free_energy": -6.532, "intermolecular_energy": -10.403, "internal_energy": -1.585}

$$$$
