4ih5_ligand
     RDKit          3D

 27 29  0  0  0  0  0  0  0  0999 V2000
    0.4970   -0.4050    2.4310 C   0  0  0  0  0  0  0  0  0  0  0  0
    0.6610   -0.7150    3.7790 C   0  0  0  0  0  0  0  0  0  0  0  0
    0.9480    0.2960    4.7000 C   0  0  0  0  0  0  0  0  0  0  0  0
    1.0530    1.6320    4.2920 C   0  0  0  0  0  0  0  0  0  0  0  0
    1.4020    2.6240    5.2350 N   0  0  0  0  0  0  0  0  0  0  0  0
    2.6640    3.1550    5.2920 N   0  0  0  0  0  0  0  0  0  0  0  0
    2.9130    4.5290    5.1680 C   0  0  0  0  0  0  0  0  0  0  0  0
    2.9290    5.3020    6.2920 N   0  0  0  0  0  0  0  0  0  0  0  0
    3.1790    6.6480    6.1820 C   0  0  0  0  0  0  0  0  0  0  0  0
    3.4300    7.4120    5.0880 N   0  0  0  0  0  0  0  0  0  0  0  0
    3.4050    6.6590    3.9640 C   0  0  0  0  0  0  0  0  0  0  0  0
    3.5940    7.0810    2.7110 N   0  0  0  0  0  0  0  0  0  0  0  0
    3.4410    5.9640    1.9720 N   0  0  0  0  0  0  0  0  0  0  0  0
    3.1770    4.8390    2.7020 C   0  0  0  0  0  0  0  0  0  0  0  0
    3.1560    5.2640    4.0040 C   0  0  0  0  0  0  0  0  0  0  0  0
    0.9190    1.9230    2.9280 C   0  0  0  0  0  0  0  0  0  0  0  0
    0.6330    0.9140    2.0040 C   0  0  0  0  0  0  0  0  0  0  0  0
    0.2611   -1.1985    1.7066 H   0  0  0  0  0  0  0  0  0  0  0  0
    0.5645   -1.7567    4.1189 H   0  0  0  0  0  0  0  0  0  0  0  0
    1.0934    0.0393    5.7597 H   0  0  0  0  0  0  0  0  0  0  0  0
    0.6450    3.2930    5.3890 H   0  0  0  0  0  0  0  0  0  0  0  0
    3.3880    2.6510    4.7790 H   0  0  0  0  0  0  0  0  0  0  0  0
    3.1753    7.1964    7.1355 H   0  0  0  0  0  0  0  0  0  0  0  0
    3.5260    6.0460    0.9640 H   0  0  0  0  0  0  0  0  0  0  0  0
    3.0167    3.8175    2.3267 H   0  0  0  0  0  0  0  0  0  0  0  0
    1.0405    2.9593    2.5797 H   0  0  0  0  0  0  0  0  0  0  0  0
    0.5152    1.1617    0.9387 H   0  0  0  0  0  0  0  0  0  0  0  0
  1  2  2  0
  2  3  1  0
  3  4  2  0
  4  5  1  0
  5  6  1  0
  6  7  1  0
  7  8  2  0
  8  9  1  0
  9 10  2  0
 10 11  1  0
 11 12  2  0
 12 13  1  0
 13 14  1  0
 14 15  2  0
  4 16  1  0
 16 17  2  0
 17  1  1  0
 15  7  1  0
 15 11  1  0
  1 18  1  0
  2 19  1  0
  3 20  1  0
  5 21  1  0
  6 22  1  0
  9 23  1  0
 13 24  1  0
 14 25  1  0
 16 26  1  0
 17 27  1  0
M  END
>  <meeko>  (1) 
{"is_sidechain": [false], "free_energy": -6.364, "intermolecular_energy": -7.48, "internal_energy": -0.394}

$$$$
4ih5_ligand
     RDKit          3D

 27 29  0  0  0  0  0  0  0  0999 V2000
    1.3400   -6.2140   -1.2470 C   0  0  0  0  0  0  0  0  0  0  0  0
    1.1270   -6.6790   -2.5420 C   0  0  0  0  0  0  0  0  0  0  0  0
    2.1790   -7.2580   -3.2590 C   0  0  0  0  0  0  0  0  0  0  0  0
    3.4480   -7.4010   -2.6840 C   0  0  0  0  0  0  0  0  0  0  0  0
    4.5060   -7.9360   -3.4530 N   0  0  0  0  0  0  0  0  0  0  0  0
    5.7840   -7.4510   -3.3600 N   0  0  0  0  0  0  0  0  0  0  0  0
    6.2600   -6.4140   -4.1740 C   0  0  0  0  0  0  0  0  0  0  0  0
    6.5890   -6.6890   -5.4700 N   0  0  0  0  0  0  0  0  0  0  0  0
    7.0500   -5.6790   -6.2780 C   0  0  0  0  0  0  0  0  0  0  0  0
    7.2580   -4.3630   -6.0140 N   0  0  0  0  0  0  0  0  0  0  0  0
    6.9460   -4.0800   -4.7280 C   0  0  0  0  0  0  0  0  0  0  0  0
    7.0420   -2.8930   -4.1230 N   0  0  0  0  0  0  0  0  0  0  0  0
    6.6450   -3.1470   -2.8600 N   0  0  0  0  0  0  0  0  0  0  0  0
    6.2820   -4.4450   -2.6350 C   0  0  0  0  0  0  0  0  0  0  0  0
    6.4620   -5.0720   -3.8400 C   0  0  0  0  0  0  0  0  0  0  0  0
    3.6540   -6.8970   -1.3930 C   0  0  0  0  0  0  0  0  0  0  0  0
    2.6050   -6.3170   -0.6740 C   0  0  0  0  0  0  0  0  0  0  0  0
    0.5115   -5.7666   -0.6782 H   0  0  0  0  0  0  0  0  0  0  0  0
    0.1313   -6.5910   -3.0012 H   0  0  0  0  0  0  0  0  0  0  0  0
    2.0074   -7.6057   -4.2884 H   0  0  0  0  0  0  0  0  0  0  0  0
    4.4350   -8.9500   -3.5520 H   0  0  0  0  0  0  0  0  0  0  0  0
    6.5240   -8.1480   -3.2660 H   0  0  0  0  0  0  0  0  0  0  0  0
    7.2900   -5.9857   -7.3068 H   0  0  0  0  0  0  0  0  0  0  0  0
    6.6500   -2.3790   -2.1960 H   0  0  0  0  0  0  0  0  0  0  0  0
    5.9242   -4.8886   -1.6942 H   0  0  0  0  0  0  0  0  0  0  0  0
    4.6542   -6.9586   -0.9394 H   0  0  0  0  0  0  0  0  0  0  0  0
    2.7789   -5.9416    0.3452 H   0  0  0  0  0  0  0  0  0  0  0  0
  1  2  2  0
  2  3  1  0
  3  4  2  0
  4  5  1  0
  5  6  1  0
  6  7  1  0
  7  8  2  0
  8  9  1  0
  9 10  2  0
 10 11  1  0
 11 12  2  0
 12 13  1  0
 13 14  1  0
 14 15  2  0
  4 16  1  0
 16 17  2  0
 17  1  1  0
 15  7  1  0
 15 11  1  0
  1 18  1  0
  2 19  1  0
  3 20  1  0
  5 21  1  0
  6 22  1  0
  9 23  1  0
 13 24  1  0
 14 25  1  0
 16 26  1  0
 17 27  1  0
M  END
>  <meeko>  (2) 
{"is_sidechain": [false], "free_energy": -6.094, "intermolecular_energy": -7.072, "internal_energy": -0.484}

$$$$
4ih5_ligand
     RDKit          3D

 27 29  0  0  0  0  0  0  0  0999 V2000
    0.9460   -0.2670    3.4290 C   0  0  0  0  0  0  0  0  0  0  0  0
    1.7300    0.1850    2.3700 C   0  0  0  0  0  0  0  0  0  0  0  0
    2.6820    1.1860    2.5830 C   0  0  0  0  0  0  0  0  0  0  0  0
    2.8800    1.7310    3.8580 C   0  0  0  0  0  0  0  0  0  0  0  0
    3.8080    2.7820    4.0300 N   0  0  0  0  0  0  0  0  0  0  0  0
    3.4060    4.0660    4.2880 N   0  0  0  0  0  0  0  0  0  0  0  0
    3.1200    4.9880    3.2710 C   0  0  0  0  0  0  0  0  0  0  0  0
    4.0570    5.9250    2.9460 N   0  0  0  0  0  0  0  0  0  0  0  0
    3.7890    6.8280    1.9460 C   0  0  0  0  0  0  0  0  0  0  0  0
    2.6890    6.9790    1.1650 N   0  0  0  0  0  0  0  0  0  0  0  0
    1.7470    6.0630    1.4860 C   0  0  0  0  0  0  0  0  0  0  0  0
    0.5380    5.9280    0.9340 N   0  0  0  0  0  0  0  0  0  0  0  0
   -0.0120    4.9050    1.6170 N   0  0  0  0  0  0  0  0  0  0  0  0
    0.8010    4.3670    2.5750 C   0  0  0  0  0  0  0  0  0  0  0  0
    1.9570    5.0990    2.5040 C   0  0  0  0  0  0  0  0  0  0  0  0
    2.0610    1.2890    4.9040 C   0  0  0  0  0  0  0  0  0  0  0  0
    1.1070    0.2890    4.6950 C   0  0  0  0  0  0  0  0  0  0  0  0
    0.2021   -1.0607    3.2654 H   0  0  0  0  0  0  0  0  0  0  0  0
    1.5999   -0.2458    1.3663 H   0  0  0  0  0  0  0  0  0  0  0  0
    3.2840    1.5508    1.7377 H   0  0  0  0  0  0  0  0  0  0  0  0
    4.6420    2.4810    4.5380 H   0  0  0  0  0  0  0  0  0  0  0  0
    3.9100    4.5560    5.0300 H   0  0  0  0  0  0  0  0  0  0  0  0
    4.5979    7.5460    1.7454 H   0  0  0  0  0  0  0  0  0  0  0  0
   -0.9590    4.6270    1.3770 H   0  0  0  0  0  0  0  0  0  0  0  0
    0.5767    3.5307    3.2534 H   0  0  0  0  0  0  0  0  0  0  0  0
    2.1698    1.7347    5.9038 H   0  0  0  0  0  0  0  0  0  0  0  0
    0.4830   -0.0588    5.5315 H   0  0  0  0  0  0  0  0  0  0  0  0
  1  2  2  0
  2  3  1  0
  3  4  2  0
  4  5  1  0
  5  6  1  0
  6  7  1  0
  7  8  2  0
  8  9  1  0
  9 10  2  0
 10 11  1  0
 11 12  2  0
 12 13  1  0
 13 14  1  0
 14 15  2  0
  4 16  1  0
 16 17  2  0
 17  1  1  0
 15  7  1  0
 15 11  1  0
  1 18  1  0
  2 19  1  0
  3 20  1  0
  5 21  1  0
  6 22  1  0
  9 23  1  0
 13 24  1  0
 14 25  1  0
 16 26  1  0
 17 27  1  0
M  END
>  <meeko>  (3) 
{"is_sidechain": [false], "free_energy": -6.029, "intermolecular_energy": -6.976, "internal_energy": -0.503}

$$$$
4ih5_ligand
     RDKit          3D

 27 29  0  0  0  0  0  0  0  0999 V2000
    0.9660   -0.2730    3.4550 C   0  0  0  0  0  0  0  0  0  0  0  0
    1.7370    0.1450    2.3730 C   0  0  0  0  0  0  0  0  0  0  0  0
    2.6930    1.1510    2.5420 C   0  0  0  0  0  0  0  0  0  0  0  0
    2.9070    1.7360    3.7970 C   0  0  0  0  0  0  0  0  0  0  0  0
    3.8370    2.7920    3.9240 N   0  0  0  0  0  0  0  0  0  0  0  0
    3.4380    4.0950    4.0580 N   0  0  0  0  0  0  0  0  0  0  0  0
    2.7000    4.7650    3.0720 C   0  0  0  0  0  0  0  0  0  0  0  0
    1.3840    4.4460    2.9010 N   0  0  0  0  0  0  0  0  0  0  0  0
    0.6500    5.1000    1.9420 C   0  0  0  0  0  0  0  0  0  0  0  0
    1.0100    6.0750    1.0680 N   0  0  0  0  0  0  0  0  0  0  0  0
    2.3170    6.3930    1.2190 C   0  0  0  0  0  0  0  0  0  0  0  0
    3.0080    7.2950    0.5200 N   0  0  0  0  0  0  0  0  0  0  0  0
    4.2530    7.2100    1.0320 N   0  0  0  0  0  0  0  0  0  0  0  0
    4.3830    6.3000    2.0440 C   0  0  0  0  0  0  0  0  0  0  0  0
    3.1330    5.7590    2.1900 C   0  0  0  0  0  0  0  0  0  0  0  0
    2.0990    1.3290    4.8670 C   0  0  0  0  0  0  0  0  0  0  0  0
    1.1430    0.3240    4.7010 C   0  0  0  0  0  0  0  0  0  0  0  0
    0.2203   -1.0713    3.3261 H   0  0  0  0  0  0  0  0  0  0  0  0
    1.5936   -0.3167    1.3849 H   0  0  0  0  0  0  0  0  0  0  0  0
    3.2850    1.4877    1.6782 H   0  0  0  0  0  0  0  0  0  0  0  0
    4.6440    2.5270    4.4920 H   0  0  0  0  0  0  0  0  0  0  0  0
    4.1330    4.7430    4.4310 H   0  0  0  0  0  0  0  0  0  0  0  0
   -0.4007    4.7823    1.8702 H   0  0  0  0  0  0  0  0  0  0  0  0
    4.9720    7.8070    0.6350 H   0  0  0  0  0  0  0  0  0  0  0  0
    5.2910    6.0561    2.6150 H   0  0  0  0  0  0  0  0  0  0  0  0
    2.2190    1.8070    5.8504 H   0  0  0  0  0  0  0  0  0  0  0  0
    0.5290    0.0036    5.5556 H   0  0  0  0  0  0  0  0  0  0  0  0
  1  2  2  0
  2  3  1  0
  3  4  2  0
  4  5  1  0
  5  6  1  0
  6  7  1  0
  7  8  2  0
  8  9  1  0
  9 10  2  0
 10 11  1  0
 11 12  2  0
 12 13  1  0
 13 14  1  0
 14 15  2  0
  4 16  1  0
 16 17  2  0
 17  1  1  0
 15  7  1  0
 15 11  1  0
  1 18  1  0
  2 19  1  0
  3 20  1  0
  5 21  1  0
  6 22  1  0
  9 23  1  0
 13 24  1  0
 14 25  1  0
 16 26  1  0
 17 27  1  0
M  END
>  <meeko>  (4) 
{"is_sidechain": [false], "free_energy": -5.975, "intermolecular_energy": -7.207, "internal_energy": -0.21}

$$$$
4ih5_ligand
     RDKit          3D

 27 29  0  0  0  0  0  0  0  0999 V2000
   -3.0780   -3.8750   -0.9530 C   0  0  0  0  0  0  0  0  0  0  0  0
   -3.1910   -5.2570   -0.8250 C   0  0  0  0  0  0  0  0  0  0  0  0
   -2.1270   -6.0830   -1.2000 C   0  0  0  0  0  0  0  0  0  0  0  0
   -0.9310   -5.5400   -1.6870 C   0  0  0  0  0  0  0  0  0  0  0  0
    0.1040   -6.4020   -2.1140 N   0  0  0  0  0  0  0  0  0  0  0  0
    0.6540   -6.3060   -3.3650 N   0  0  0  0  0  0  0  0  0  0  0  0
    1.9520   -5.8250   -3.5860 C   0  0  0  0  0  0  0  0  0  0  0  0
    2.1270   -4.4990   -3.8590 N   0  0  0  0  0  0  0  0  0  0  0  0
    3.3950   -4.0160   -4.0710 C   0  0  0  0  0  0  0  0  0  0  0  0
    4.5950   -4.6520   -4.0600 N   0  0  0  0  0  0  0  0  0  0  0  0
    4.4330   -5.9700   -3.8030 C   0  0  0  0  0  0  0  0  0  0  0  0
    5.3930   -6.8970   -3.7320 N   0  0  0  0  0  0  0  0  0  0  0  0
    4.7170   -8.0370   -3.4830 N   0  0  0  0  0  0  0  0  0  0  0  0
    3.3640   -7.8760   -3.3750 C   0  0  0  0  0  0  0  0  0  0  0  0
    3.1550   -6.5360   -3.5720 C   0  0  0  0  0  0  0  0  0  0  0  0
   -0.8470   -4.1500   -1.8410 C   0  0  0  0  0  0  0  0  0  0  0  0
   -1.9080   -3.3210   -1.4670 C   0  0  0  0  0  0  0  0  0  0  0  0
   -3.9101   -3.2229   -0.6491 H   0  0  0  0  0  0  0  0  0  0  0  0
   -4.1172   -5.6988   -0.4289 H   0  0  0  0  0  0  0  0  0  0  0  0
   -2.2305   -7.1745   -1.1114 H   0  0  0  0  0  0  0  0  0  0  0  0
    0.7670   -6.6070   -1.3650 H   0  0  0  0  0  0  0  0  0  0  0  0
    0.0460   -5.9340   -4.0970 H   0  0  0  0  0  0  0  0  0  0  0  0
    3.4473   -2.9382   -4.2846 H   0  0  0  0  0  0  0  0  0  0  0  0
    5.2500   -8.8970   -3.4030 H   0  0  0  0  0  0  0  0  0  0  0  0
    2.6095   -8.6509   -3.1743 H   0  0  0  0  0  0  0  0  0  0  0  0
    0.0667   -3.7051   -2.2621 H   0  0  0  0  0  0  0  0  0  0  0  0
   -1.8191   -2.2303   -1.5786 H   0  0  0  0  0  0  0  0  0  0  0  0
  1  2  2  0
  2  3  1  0
  3  4  2  0
  4  5  1  0
  5  6  1  0
  6  7  1  0
  7  8  2  0
  8  9  1  0
  9 10  2  0
 10 11  1  0
 11 12  2  0
 12 13  1  0
 13 14  1  0
 14 15  2  0
  4 16  1  0
 16 17  2  0
 17  1  1  0
 15  7  1  0
 15 11  1  0
  1 18  1  0
  2 19  1  0
  3 20  1  0
  5 21  1  0
  6 22  1  0
  9 23  1  0
 13 24  1  0
 14 25  1  0
 16 26  1  0
 17 27  1  0
M  END
>  <meeko>  (5) 
{"is_sidechain": [false], "free_energy": -5.917, "intermolecular_energy": -7.02, "internal_energy": -0.329}

$$$$
4ih5_ligand
     RDKit          3D

 27 29  0  0  0  0  0  0  0  0999 V2000
   -2.3570   -1.8800   -0.2450 C   0  0  0  0  0  0  0  0  0  0  0  0
   -3.1710   -2.9920   -0.4430 C   0  0  0  0  0  0  0  0  0  0  0  0
   -2.7370   -4.0400   -1.2600 C   0  0  0  0  0  0  0  0  0  0  0  0
   -1.4770   -4.0020   -1.8710 C   0  0  0  0  0  0  0  0  0  0  0  0
   -1.0900   -5.0480   -2.7380 N   0  0  0  0  0  0  0  0  0  0  0  0
   -0.5360   -6.2090   -2.2680 N   0  0  0  0  0  0  0  0  0  0  0  0
    0.8250   -6.3250   -1.9520 C   0  0  0  0  0  0  0  0  0  0  0  0
    1.2160   -6.1770   -0.6530 N   0  0  0  0  0  0  0  0  0  0  0  0
    2.5460   -6.2940   -0.3310 C   0  0  0  0  0  0  0  0  0  0  0  0
    3.6250   -6.5470   -1.1170 N   0  0  0  0  0  0  0  0  0  0  0  0
    3.2510   -6.6830   -2.4100 C   0  0  0  0  0  0  0  0  0  0  0  0
    4.0490   -6.9220   -3.4540 N   0  0  0  0  0  0  0  0  0  0  0  0
    3.2030   -6.9400   -4.5040 N   0  0  0  0  0  0  0  0  0  0  0  0
    1.8920   -6.7400   -4.1730 C   0  0  0  0  0  0  0  0  0  0  0  0
    1.8960   -6.5770   -2.8130 C   0  0  0  0  0  0  0  0  0  0  0  0
   -0.6850   -2.8610   -1.6890 C   0  0  0  0  0  0  0  0  0  0  0  0
   -1.1160   -1.8110   -0.8740 C   0  0  0  0  0  0  0  0  0  0  0  0
   -2.6926   -1.0590    0.4057 H   0  0  0  0  0  0  0  0  0  0  0  0
   -4.1560   -3.0459    0.0436 H   0  0  0  0  0  0  0  0  0  0  0  0
   -3.3940   -4.9066   -1.4254 H   0  0  0  0  0  0  0  0  0  0  0  0
   -1.7430   -5.1650   -3.5150 H   0  0  0  0  0  0  0  0  0  0  0  0
   -0.8300   -7.0690   -2.7330 H   0  0  0  0  0  0  0  0  0  0  0  0
    2.7748   -6.1613    0.7367 H   0  0  0  0  0  0  0  0  0  0  0  0
    3.5960   -7.0930   -5.4280 H   0  0  0  0  0  0  0  0  0  0  0  0
    1.0250   -6.7154   -4.8495 H   0  0  0  0  0  0  0  0  0  0  0  0
    0.2894   -2.7907   -2.1945 H   0  0  0  0  0  0  0  0  0  0  0  0
   -0.4747   -0.9291   -0.7290 H   0  0  0  0  0  0  0  0  0  0  0  0
  1  2  2  0
  2  3  1  0
  3  4  2  0
  4  5  1  0
  5  6  1  0
  6  7  1  0
  7  8  2  0
  8  9  1  0
  9 10  2  0
 10 11  1  0
 11 12  2  0
 12 13  1  0
 13 14  1  0
 14 15  2  0
  4 16  1  0
 16 17  2  0
 17  1  1  0
 15  7  1  0
 15 11  1  0
  1 18  1  0
  2 19  1  0
  3 20  1  0
  5 21  1  0
  6 22  1  0
  9 23  1  0
 13 24  1  0
 14 25  1  0
 16 26  1  0
 17 27  1  0
M  END
>  <meeko>  (6) 
{"is_sidechain": [false], "free_energy": -5.912, "intermolecular_energy": -6.952, "internal_energy": -0.39}

$$$$
4ih5_ligand
     RDKit          3D

 27 29  0  0  0  0  0  0  0  0999 V2000
    1.0490   -0.1510    4.2390 C   0  0  0  0  0  0  0  0  0  0  0  0
    1.0110    1.0620    4.9230 C   0  0  0  0  0  0  0  0  0  0  0  0
    0.8360    2.2560    4.2180 C   0  0  0  0  0  0  0  0  0  0  0  0
    0.6750    2.2540    2.8270 C   0  0  0  0  0  0  0  0  0  0  0  0
    0.5600    3.4810    2.1360 N   0  0  0  0  0  0  0  0  0  0  0  0
    1.0950    4.6410    2.6290 N   0  0  0  0  0  0  0  0  0  0  0  0
    2.3280    5.1490    2.1960 C   0  0  0  0  0  0  0  0  0  0  0  0
    2.8500    4.7010    1.0180 N   0  0  0  0  0  0  0  0  0  0  0  0
    4.0550    5.1970    0.5810 C   0  0  0  0  0  0  0  0  0  0  0  0
    4.8850    6.1150    1.1400 N   0  0  0  0  0  0  0  0  0  0  0  0
    4.3840    6.5590    2.3150 C   0  0  0  0  0  0  0  0  0  0  0  0
    4.9410    7.4510    3.1390 N   0  0  0  0  0  0  0  0  0  0  0  0
    4.0710    7.5230    4.1660 N   0  0  0  0  0  0  0  0  0  0  0  0
    2.9700    6.7260    4.0270 C   0  0  0  0  0  0  0  0  0  0  0  0
    3.1460    6.0920    2.8250 C   0  0  0  0  0  0  0  0  0  0  0  0
    0.7500    1.0290    2.1510 C   0  0  0  0  0  0  0  0  0  0  0  0
    0.9260   -0.1670    2.8520 C   0  0  0  0  0  0  0  0  0  0  0  0
    1.1757   -1.0930    4.7927 H   0  0  0  0  0  0  0  0  0  0  0  0
    1.1187    1.0800    6.0176 H   0  0  0  0  0  0  0  0  0  0  0  0
    0.8246    3.2110    4.7637 H   0  0  0  0  0  0  0  0  0  0  0  0
    0.6430    3.3630    1.1250 H   0  0  0  0  0  0  0  0  0  0  0  0
    1.0330    4.7720    3.6400 H   0  0  0  0  0  0  0  0  0  0  0  0
    4.4036    4.7833   -0.3768 H   0  0  0  0  0  0  0  0  0  0  0  0
    4.2980    8.1420    4.9380 H   0  0  0  0  0  0  0  0  0  0  0  0
    2.1277    6.6172    4.7261 H   0  0  0  0  0  0  0  0  0  0  0  0
    0.6693    1.0085    1.0542 H   0  0  0  0  0  0  0  0  0  0  0  0
    0.9674   -1.1220    2.3077 H   0  0  0  0  0  0  0  0  0  0  0  0
  1  2  2  0
  2  3  1  0
  3  4  2  0
  4  5  1  0
  5  6  1  0
  6  7  1  0
  7  8  2  0
  8  9  1  0
  9 10  2  0
 10 11  1  0
 11 12  2  0
 12 13  1  0
 13 14  1  0
 14 15  2  0
  4 16  1  0
 16 17  2  0
 17  1  1  0
 15  7  1  0
 15 11  1  0
  1 18  1  0
  2 19  1  0
  3 20  1  0
  5 21  1  0
  6 22  1  0
  9 23  1  0
 13 24  1  0
 14 25  1  0
 16 26  1  0
 17 27  1  0
M  END
>  <meeko>  (7) 
{"is_sidechain": [false], "free_energy": -5.909, "intermolecular_energy": -6.986, "internal_energy": -0.353}

$$$$
4ih5_ligand
     RDKit          3D

 27 29  0  0  0  0  0  0  0  0999 V2000
    0.8690   -0.2730    3.9960 C   0  0  0  0  0  0  0  0  0  0  0  0
    0.9220   -0.0740    2.6190 C   0  0  0  0  0  0  0  0  0  0  0  0
    0.9940    1.2230    2.1020 C   0  0  0  0  0  0  0  0  0  0  0  0
    1.0380    2.3350    2.9530 C   0  0  0  0  0  0  0  0  0  0  0  0
    1.0510    3.6360    2.4000 N   0  0  0  0  0  0  0  0  0  0  0  0
    2.1680    4.1550    1.8000 N   0  0  0  0  0  0  0  0  0  0  0  0
    2.8950    5.2210    2.3490 C   0  0  0  0  0  0  0  0  0  0  0  0
    2.4350    5.8170    3.4870 N   0  0  0  0  0  0  0  0  0  0  0  0
    3.1440    6.8580    4.0360 C   0  0  0  0  0  0  0  0  0  0  0  0
    4.2970    7.4500    3.6330 N   0  0  0  0  0  0  0  0  0  0  0  0
    4.7570    6.8750    2.4980 C   0  0  0  0  0  0  0  0  0  0  0  0
    5.8540    7.2120    1.8160 N   0  0  0  0  0  0  0  0  0  0  0  0
    5.8500    6.3670    0.7660 N   0  0  0  0  0  0  0  0  0  0  0  0
    4.8010    5.4900    0.7550 C   0  0  0  0  0  0  0  0  0  0  0  0
    4.0780    5.7960    1.8780 C   0  0  0  0  0  0  0  0  0  0  0  0
    0.9490    2.1190    4.3340 C   0  0  0  0  0  0  0  0  0  0  0  0
    0.8760    0.8250    4.8540 C   0  0  0  0  0  0  0  0  0  0  0  0
    0.8218   -1.2930    4.4050 H   0  0  0  0  0  0  0  0  0  0  0  0
    0.9072   -0.9375    1.9377 H   0  0  0  0  0  0  0  0  0  0  0  0
    1.0164    1.3723    1.0124 H   0  0  0  0  0  0  0  0  0  0  0  0
    0.1680    3.8690    1.9440 H   0  0  0  0  0  0  0  0  0  0  0  0
    2.1140    4.2910    0.7900 H   0  0  0  0  0  0  0  0  0  0  0  0
    2.7055    7.2808    4.9519 H   0  0  0  0  0  0  0  0  0  0  0  0
    6.5990    6.4490    0.0850 H   0  0  0  0  0  0  0  0  0  0  0  0
    4.5852    4.7108    0.0092 H   0  0  0  0  0  0  0  0  0  0  0  0
    0.9364    2.9802    5.0182 H   0  0  0  0  0  0  0  0  0  0  0  0
    0.8240    0.6723    5.9421 H   0  0  0  0  0  0  0  0  0  0  0  0
  1  2  2  0
  2  3  1  0
  3  4  2  0
  4  5  1  0
  5  6  1  0
  6  7  1  0
  7  8  2  0
  8  9  1  0
  9 10  2  0
 10 11  1  0
 11 12  2  0
 12 13  1  0
 13 14  1  0
 14 15  2  0
  4 16  1  0
 16 17  2  0
 17  1  1  0
 15  7  1  0
 15 11  1  0
  1 18  1  0
  2 19  1  0
  3 20  1  0
  5 21  1  0
  6 22  1  0
  9 23  1  0
 13 24  1  0
 14 25  1  0
 16 26  1  0
 17 27  1  0
M  END
>  <meeko>  (8) 
{"is_sidechain": [false], "free_energy": -5.885, "intermolecular_energy": -7.008, "internal_energy": -0.302}

$$$$
4ih5_ligand
     RDKit          3D

 27 29  0  0  0  0  0  0  0  0999 V2000
   -2.7330   -2.8070   -0.7210 C   0  0  0  0  0  0  0  0  0  0  0  0
   -3.1100   -4.1460   -0.8010 C   0  0  0  0  0  0  0  0  0  0  0  0
   -2.3380   -5.0460   -1.5420 C   0  0  0  0  0  0  0  0  0  0  0  0
   -1.1710   -4.6270   -2.1930 C   0  0  0  0  0  0  0  0  0  0  0  0
   -0.4450   -5.5460   -2.9820 N   0  0  0  0  0  0  0  0  0  0  0  0
    0.2820   -6.5640   -2.4230 N   0  0  0  0  0  0  0  0  0  0  0  0
    1.6780   -6.6440   -2.5300 C   0  0  0  0  0  0  0  0  0  0  0  0
    2.2280   -7.6710   -3.2400 N   0  0  0  0  0  0  0  0  0  0  0  0
    3.5940   -7.7550   -3.3560 C   0  0  0  0  0  0  0  0  0  0  0  0
    4.5730   -6.9540   -2.8620 N   0  0  0  0  0  0  0  0  0  0  0  0
    4.0400   -5.9370   -2.1450 C   0  0  0  0  0  0  0  0  0  0  0  0
    4.7060   -4.9720   -1.5070 N   0  0  0  0  0  0  0  0  0  0  0  0
    3.7310   -4.2380   -0.9330 N   0  0  0  0  0  0  0  0  0  0  0  0
    2.4660   -4.6850   -1.1920 C   0  0  0  0  0  0  0  0  0  0  0  0
    2.6400   -5.7880   -1.9860 C   0  0  0  0  0  0  0  0  0  0  0  0
   -0.8250   -3.2710   -2.1300 C   0  0  0  0  0  0  0  0  0  0  0  0
   -1.5940   -2.3680   -1.3910 C   0  0  0  0  0  0  0  0  0  0  0  0
   -3.3332   -2.0991   -0.1305 H   0  0  0  0  0  0  0  0  0  0  0  0
   -4.0146   -4.4949   -0.2814 H   0  0  0  0  0  0  0  0  0  0  0  0
   -2.6517   -6.0978   -1.6146 H   0  0  0  0  0  0  0  0  0  0  0  0
   -0.9400   -5.7910   -3.8410 H   0  0  0  0  0  0  0  0  0  0  0  0
   -0.1010   -7.5040   -2.5320 H   0  0  0  0  0  0  0  0  0  0  0  0
    3.9538   -8.6112   -3.9455 H   0  0  0  0  0  0  0  0  0  0  0  0
    4.0060   -3.4400   -0.3690 H   0  0  0  0  0  0  0  0  0  0  0  0
    1.5169   -4.2542   -0.8404 H   0  0  0  0  0  0  0  0  0  0  0  0
    0.0639   -2.9122   -2.6695 H   0  0  0  0  0  0  0  0  0  0  0  0
   -1.2993   -1.3095   -1.3385 H   0  0  0  0  0  0  0  0  0  0  0  0
  1  2  2  0
  2  3  1  0
  3  4  2  0
  4  5  1  0
  5  6  1  0
  6  7  1  0
  7  8  2  0
  8  9  1  0
  9 10  2  0
 10 11  1  0
 11 12  2  0
 12 13  1  0
 13 14  1  0
 14 15  2  0
  4 16  1  0
 16 17  2  0
 17  1  1  0
 15  7  1  0
 15 11  1  0
  1 18  1  0
  2 19  1  0
  3 20  1  0
  5 21  1  0
  6 22  1  0
  9 23  1  0
 13 24  1  0
 14 25  1  0
 16 26  1  0
 17 27  1  0
M  END
>  <meeko>  (9) 
{"is_sidechain": [false], "free_energy": -5.855, "intermolecular_energy": -6.887, "internal_energy": -0.388}

$$$$
