2qbq_ligand
     RDKit          3D

 57 59  0  0  0  0  0  0  0  0999 V2000
   13.9990    8.7910   -4.6290 C   0  0  0  0  0  0  0  0  0  0  0  0
   13.1010    8.4690   -5.8450 C   0  0  0  0  0  0  0  0  0  0  0  0
   12.2130    7.2800   -5.4340 C   0  0  0  0  0  0  0  0  0  0  0  0
   12.2410    9.7110   -6.1600 C   0  0  0  0  0  0  0  0  0  0  0  0
   11.5030    9.6290   -7.5060 C   0  0  0  0  0  0  0  0  0  0  0  0
   10.7780   10.9010   -7.6940 N   0  0  0  0  0  0  0  0  0  0  0  0
    9.9490   10.9340   -8.8350 C   0  0  0  0  0  0  0  0  0  0  0  0
    9.9970   12.0040   -9.7340 C   0  0  0  0  0  0  0  0  0  0  0  0
    9.1320   12.0540  -10.8290 C   0  0  0  0  0  0  0  0  0  0  0  0
    8.1940   11.0400  -11.0240 C   0  0  0  0  0  0  0  0  0  0  0  0
    8.1230    9.9630  -10.1340 C   0  0  0  0  0  0  0  0  0  0  0  0
    7.1130    8.9140  -10.2850 C   0  0  0  0  0  0  0  0  0  0  0  0
    7.6000    7.3260  -10.7030 S   0  0  0  0  0  0  0  0  0  0  0  0
    5.9870    6.7240  -10.6500 C   0  0  0  0  0  0  0  0  0  0  0  0
    5.6650    5.2130  -11.0300 C   0  0  0  0  0  0  0  0  0  0  0  0
    4.9900    4.9700  -12.0770 O   0  0  0  0  0  0  0  0  0  0  0  0
    6.1230    4.3240  -10.2380 O   0  0  0  0  0  0  0  0  0  0  0  0
    5.1010    7.7110  -10.2550 C   0  0  0  0  0  0  0  0  0  0  0  0
    3.7630    7.5370  -10.1060 O   0  0  0  0  0  0  0  0  0  0  0  0
    3.3930    7.4130   -8.7130 C   0  0  0  0  0  0  0  0  0  0  0  0
    3.4750    5.9480   -8.2300 C   0  0  0  0  0  0  0  0  0  0  0  0
    2.8280    5.0920   -8.9080 O   0  0  0  0  0  0  0  0  0  0  0  0
    4.2310    5.7340   -7.2320 O   0  0  0  0  0  0  0  0  0  0  0  0
    5.7450    8.9760  -10.1290 C   0  0  0  0  0  0  0  0  0  0  0  0
    4.7740   10.5770   -9.8000 Br  0  0  0  0  0  0  0  0  0  0  0  0
    9.0150    9.9140   -9.0520 C   0  0  0  0  0  0  0  0  0  0  0  0
   12.5100    9.4010   -8.6460 C   0  0  0  0  0  0  0  0  0  0  0  0
   13.3850    8.1430   -8.4580 C   0  0  0  0  0  0  0  0  0  0  0  0
   14.5280    8.1830   -9.4990 C   0  0  0  0  0  0  0  0  0  0  0  0
   12.5720    6.8670   -8.7460 C   0  0  0  0  0  0  0  0  0  0  0  0
   14.0210    8.1270   -7.0450 C   0  0  0  0  0  0  0  0  0  0  0  0
   13.4440    8.5920   -3.7004 H   0  0  0  0  0  0  0  0  0  0  0  0
   14.8992    8.1597   -4.6606 H   0  0  0  0  0  0  0  0  0  0  0  0
   14.2929    9.8505   -4.6606 H   0  0  0  0  0  0  0  0  0  0  0  0
   12.1672    7.2187   -4.3367 H   0  0  0  0  0  0  0  0  0  0  0  0
   11.1991    7.4234   -5.8359 H   0  0  0  0  0  0  0  0  0  0  0  0
   12.6383    6.3486   -5.8359 H   0  0  0  0  0  0  0  0  0  0  0  0
   11.4937    9.8272   -5.3612 H   0  0  0  0  0  0  0  0  0  0  0  0
   12.9271   10.5685   -6.2223 H   0  0  0  0  0  0  0  0  0  0  0  0
   10.7958    8.7865   -7.5137 H   0  0  0  0  0  0  0  0  0  0  0  0
   11.4330   11.6830   -7.7340 H   0  0  0  0  0  0  0  0  0  0  0  0
   10.7237   12.8147   -9.5769 H   0  0  0  0  0  0  0  0  0  0  0  0
    9.1902   12.8931  -11.5379 H   0  0  0  0  0  0  0  0  0  0  0  0
    7.5069   11.0875  -11.8817 H   0  0  0  0  0  0  0  0  0  0  0  0
    4.0749    8.0273   -8.1067 H   0  0  0  0  0  0  0  0  0  0  0  0
    2.3530    7.7537   -8.6021 H   0  0  0  0  0  0  0  0  0  0  0  0
    8.9798    9.0584   -8.3616 H   0  0  0  0  0  0  0  0  0  0  0  0
   11.9511    9.2978   -9.5878 H   0  0  0  0  0  0  0  0  0  0  0  0
   13.1886   10.2667   -8.6537 H   0  0  0  0  0  0  0  0  0  0  0  0
   15.4967    8.2169   -8.9788 H   0  0  0  0  0  0  0  0  0  0  0  0
   14.4816    7.2827  -10.1293 H   0  0  0  0  0  0  0  0  0  0  0  0
   14.4188    9.0779  -10.1293 H   0  0  0  0  0  0  0  0  0  0  0  0
   12.2742    6.3997   -7.7958 H   0  0  0  0  0  0  0  0  0  0  0  0
   11.6731    7.1276   -9.3240 H   0  0  0  0  0  0  0  0  0  0  0  0
   13.1880    6.1624   -9.3240 H   0  0  0  0  0  0  0  0  0  0  0  0
   14.4229    7.1172   -6.8754 H   0  0  0  0  0  0  0  0  0  0  0  0
   14.7697    8.9327   -7.0642 H   0  0  0  0  0  0  0  0  0  0  0  0
  1  2  1  0
  2  3  1  0
  2  4  1  0
  4  5  1  0
  5  6  1  0
  6  7  1  0
  7  8  2  0
  8  9  1  0
  9 10  2  0
 10 11  1  0
 11 12  1  0
 12 13  1  0
 13 14  1  0
 14 15  1  0
 15 16  2  0
 15 17  1  0
 14 18  2  0
 18 19  1  0
 19 20  1  0
 20 21  1  0
 21 22  2  0
 21 23  1  0
 18 24  1  0
 24 25  1  0
 11 26  2  0
  5 27  1  0
 27 28  1  0
 28 29  1  0
 28 30  1  0
 28 31  1  0
 31  2  1  0
 26  7  1  0
 24 12  2  0
  1 32  1  0
  1 33  1  0
  1 34  1  0
  3 35  1  0
  3 36  1  0
  3 37  1  0
  4 38  1  0
  4 39  1  0
  5 40  1  0
  6 41  1  0
  8 42  1  0
  9 43  1  0
 10 44  1  0
 20 45  1  0
 20 46  1  0
 26 47  1  0
 27 48  1  0
 27 49  1  0
 29 50  1  0
 29 51  1  0
 29 52  1  0
 30 53  1  0
 30 54  1  0
 30 55  1  0
 31 56  1  0
 31 57  1  0
M  CHG  2  17  -1  23  -1
M  END
>  <meeko>  (1) 
{"is_sidechain": [false], "free_energy": -7.109, "intermolecular_energy": -10.018, "internal_energy": -1.323}

$$$$
2qbq_ligand
     RDKit          3D

 57 59  0  0  0  0  0  0  0  0999 V2000
   13.3540    9.7930   -9.3180 C   0  0  0  0  0  0  0  0  0  0  0  0
   12.7120    8.7250   -8.4050 C   0  0  0  0  0  0  0  0  0  0  0  0
   11.3320    9.2700   -7.9920 C   0  0  0  0  0  0  0  0  0  0  0  0
   12.5640    7.4170   -9.2120 C   0  0  0  0  0  0  0  0  0  0  0  0
   12.1940    6.1980   -8.3520 C   0  0  0  0  0  0  0  0  0  0  0  0
   12.1470    5.0230   -9.2460 N   0  0  0  0  0  0  0  0  0  0  0  0
   11.2500    5.1520  -10.3270 C   0  0  0  0  0  0  0  0  0  0  0  0
   11.6920    5.0490  -11.6500 C   0  0  0  0  0  0  0  0  0  0  0  0
   10.8060    5.2340  -12.7140 C   0  0  0  0  0  0  0  0  0  0  0  0
    9.4690    5.5440  -12.4620 C   0  0  0  0  0  0  0  0  0  0  0  0
    9.0060    5.6590  -11.1470 C   0  0  0  0  0  0  0  0  0  0  0  0
    7.6220    6.0370  -10.8560 C   0  0  0  0  0  0  0  0  0  0  0  0
    6.5620    4.8890  -10.1550 S   0  0  0  0  0  0  0  0  0  0  0  0
    5.2540    6.0080  -10.0880 C   0  0  0  0  0  0  0  0  0  0  0  0
    3.8200    5.5590   -9.5650 C   0  0  0  0  0  0  0  0  0  0  0  0
    2.9360    5.2140  -10.4090 O   0  0  0  0  0  0  0  0  0  0  0  0
    3.6520    5.5720   -8.3010 O   0  0  0  0  0  0  0  0  0  0  0  0
    5.6460    7.2570  -10.5350 C   0  0  0  0  0  0  0  0  0  0  0  0
    4.8410    8.3490  -10.5870 O   0  0  0  0  0  0  0  0  0  0  0  0
    4.9590    9.1560   -9.3930 C   0  0  0  0  0  0  0  0  0  0  0  0
    3.9890   10.3580   -9.4190 C   0  0  0  0  0  0  0  0  0  0  0  0
    4.5160   11.5090   -9.5140 O   0  0  0  0  0  0  0  0  0  0  0  0
    2.7510   10.0720   -9.4000 O   0  0  0  0  0  0  0  0  0  0  0  0
    6.9760    7.2400  -11.0470 C   0  0  0  0  0  0  0  0  0  0  0  0
    7.7430    8.7430  -11.9230 Br  0  0  0  0  0  0  0  0  0  0  0  0
    9.9020    5.4460  -10.0880 C   0  0  0  0  0  0  0  0  0  0  0  0
   13.2380    5.9980   -7.2420 C   0  0  0  0  0  0  0  0  0  0  0  0
   13.4220    7.2330   -6.3350 C   0  0  0  0  0  0  0  0  0  0  0  0
   14.6780    7.0140   -5.4590 C   0  0  0  0  0  0  0  0  0  0  0  0
   12.2320    7.3790   -5.3680 C   0  0  0  0  0  0  0  0  0  0  0  0
   13.6460    8.5080   -7.1870 C   0  0  0  0  0  0  0  0  0  0  0  0
   13.8222   10.5718   -8.6981 H   0  0  0  0  0  0  0  0  0  0  0  0
   14.1183    9.3211   -9.9530 H   0  0  0  0  0  0  0  0  0  0  0  0
   12.5787   10.2466   -9.9530 H   0  0  0  0  0  0  0  0  0  0  0  0
   11.2621    9.2976   -6.8946 H   0  0  0  0  0  0  0  0  0  0  0  0
   11.2040   10.2862   -8.3932 H   0  0  0  0  0  0  0  0  0  0  0  0
   10.5442    8.6155   -8.3932 H   0  0  0  0  0  0  0  0  0  0  0  0
   11.7764    7.5617   -9.9662 H   0  0  0  0  0  0  0  0  0  0  0  0
   13.5445    7.2057   -9.6637 H   0  0  0  0  0  0  0  0  0  0  0  0
   11.2181    6.3436   -7.8658 H   0  0  0  0  0  0  0  0  0  0  0  0
   11.9150    4.1810   -8.7180 H   0  0  0  0  0  0  0  0  0  0  0  0
   12.7482    4.8199  -11.8547 H   0  0  0  0  0  0  0  0  0  0  0  0
   11.1621    5.1353  -13.7501 H   0  0  0  0  0  0  0  0  0  0  0  0
    8.7755    5.6987  -13.3017 H   0  0  0  0  0  0  0  0  0  0  0  0
    4.7302    8.5319   -8.5166 H   0  0  0  0  0  0  0  0  0  0  0  0
    5.9866    9.5451   -9.3417 H   0  0  0  0  0  0  0  0  0  0  0  0
    9.5388    5.5112   -9.0517 H   0  0  0  0  0  0  0  0  0  0  0  0
   12.9213    5.1510   -6.6157 H   0  0  0  0  0  0  0  0  0  0  0  0
   14.2032    5.8155   -7.7370 H   0  0  0  0  0  0  0  0  0  0  0  0
   14.3971    7.0630   -4.3966 H   0  0  0  0  0  0  0  0  0  0  0  0
   15.1107    6.0269   -5.6787 H   0  0  0  0  0  0  0  0  0  0  0  0
   15.4193    7.7964   -5.6787 H   0  0  0  0  0  0  0  0  0  0  0  0
   12.5950    7.3345   -4.3306 H   0  0  0  0  0  0  0  0  0  0  0  0
   11.7350    8.3449   -5.5414 H   0  0  0  0  0  0  0  0  0  0  0  0
   11.5162    6.5619   -5.5414 H   0  0  0  0  0  0  0  0  0  0  0  0
   13.5265    9.3752   -6.5209 H   0  0  0  0  0  0  0  0  0  0  0  0
   14.6494    8.3841   -7.6204 H   0  0  0  0  0  0  0  0  0  0  0  0
  1  2  1  0
  2  3  1  0
  2  4  1  0
  4  5  1  0
  5  6  1  0
  6  7  1  0
  7  8  2  0
  8  9  1  0
  9 10  2  0
 10 11  1  0
 11 12  1  0
 12 13  1  0
 13 14  1  0
 14 15  1  0
 15 16  2  0
 15 17  1  0
 14 18  2  0
 18 19  1  0
 19 20  1  0
 20 21  1  0
 21 22  2  0
 21 23  1  0
 18 24  1  0
 24 25  1  0
 11 26  2  0
  5 27  1  0
 27 28  1  0
 28 29  1  0
 28 30  1  0
 28 31  1  0
 31  2  1  0
 26  7  1  0
 24 12  2  0
  1 32  1  0
  1 33  1  0
  1 34  1  0
  3 35  1  0
  3 36  1  0
  3 37  1  0
  4 38  1  0
  4 39  1  0
  5 40  1  0
  6 41  1  0
  8 42  1  0
  9 43  1  0
 10 44  1  0
 20 45  1  0
 20 46  1  0
 26 47  1  0
 27 48  1  0
 27 49  1  0
 29 50  1  0
 29 51  1  0
 29 52  1  0
 30 53  1  0
 30 54  1  0
 30 55  1  0
 31 56  1  0
 31 57  1  0
M  CHG  2  17  -1  23  -1
M  END
>  <meeko>  (2) 
{"is_sidechain": [false], "free_energy": -6.963, "intermolecular_energy": -10.001, "internal_energy": -1.135}

$$$$
2qbq_ligand
     RDKit          3D

 57 59  0  0  0  0  0  0  0  0999 V2000
   12.4520    7.6550   -4.8700 C   0  0  0  0  0  0  0  0  0  0  0  0
   12.7250    7.8670   -6.3770 C   0  0  0  0  0  0  0  0  0  0  0  0
   14.2000    8.2880   -6.5020 C   0  0  0  0  0  0  0  0  0  0  0  0
   12.4710    6.5340   -7.1110 C   0  0  0  0  0  0  0  0  0  0  0  0
   12.4390    6.6670   -8.6420 C   0  0  0  0  0  0  0  0  0  0  0  0
   12.1310    5.3340   -9.1970 N   0  0  0  0  0  0  0  0  0  0  0  0
   11.2610    5.3550  -10.3090 C   0  0  0  0  0  0  0  0  0  0  0  0
   11.7480    5.2050  -11.6110 C   0  0  0  0  0  0  0  0  0  0  0  0
   10.8860    5.2840  -12.7070 C   0  0  0  0  0  0  0  0  0  0  0  0
    9.5280    5.5340  -12.5110 C   0  0  0  0  0  0  0  0  0  0  0  0
    9.0200    5.6950  -11.2170 C   0  0  0  0  0  0  0  0  0  0  0  0
    7.6100    6.0120  -10.9850 C   0  0  0  0  0  0  0  0  0  0  0  0
    6.5530    4.7950  -10.4070 S   0  0  0  0  0  0  0  0  0  0  0  0
    5.2060    5.8660  -10.3560 C   0  0  0  0  0  0  0  0  0  0  0  0
    3.7610    5.3440   -9.9400 C   0  0  0  0  0  0  0  0  0  0  0  0
    3.5390    5.0440   -8.7280 O   0  0  0  0  0  0  0  0  0  0  0  0
    2.9000    5.2660  -10.8790 O   0  0  0  0  0  0  0  0  0  0  0  0
    5.5770    7.1500  -10.7140 C   0  0  0  0  0  0  0  0  0  0  0  0
    4.7390    8.2170  -10.7540 O   0  0  0  0  0  0  0  0  0  0  0  0
    4.5020    8.7580   -9.4340 C   0  0  0  0  0  0  0  0  0  0  0  0
    5.3050   10.0560   -9.1980 C   0  0  0  0  0  0  0  0  0  0  0  0
    6.4350    9.9260   -8.6340 O   0  0  0  0  0  0  0  0  0  0  0  0
    4.7810   11.1230   -9.6450 O   0  0  0  0  0  0  0  0  0  0  0  0
    6.9330    7.2020  -11.1490 C   0  0  0  0  0  0  0  0  0  0  0  0
    7.6950    8.7740  -11.9010 Br  0  0  0  0  0  0  0  0  0  0  0  0
    9.8930    5.5880  -10.1240 C   0  0  0  0  0  0  0  0  0  0  0  0
   11.3720    7.6920   -9.0600 C   0  0  0  0  0  0  0  0  0  0  0  0
   11.5680    9.0850   -8.4250 C   0  0  0  0  0  0  0  0  0  0  0  0
   10.2960    9.9250   -8.6870 C   0  0  0  0  0  0  0  0  0  0  0  0
   12.7350    9.8310   -9.0980 C   0  0  0  0  0  0  0  0  0  0  0  0
   11.7560    8.9630   -6.8910 C   0  0  0  0  0  0  0  0  0  0  0  0
   13.1856    8.2247   -4.2808 H   0  0  0  0  0  0  0  0  0  0  0  0
   11.4372    8.0041   -4.6285 H   0  0  0  0  0  0  0  0  0  0  0  0
   12.5389    6.5854   -4.6285 H   0  0  0  0  0  0  0  0  0  0  0  0
   14.6324    8.4114   -5.4981 H   0  0  0  0  0  0  0  0  0  0  0  0
   14.7574    7.5131   -7.0486 H   0  0  0  0  0  0  0  0  0  0  0  0
   14.2644    9.2404   -7.0486 H   0  0  0  0  0  0  0  0  0  0  0  0
   13.2722    5.8306   -6.8404 H   0  0  0  0  0  0  0  0  0  0  0  0
   11.4776    6.1797   -6.7987 H   0  0  0  0  0  0  0  0  0  0  0  0
   13.4075    7.0215   -9.0245 H   0  0  0  0  0  0  0  0  0  0  0  0
   11.7360    4.7290   -8.4760 H   0  0  0  0  0  0  0  0  0  0  0  0
   12.8206    5.0230  -11.7737 H   0  0  0  0  0  0  0  0  0  0  0  0
   11.2785    5.1489  -13.7257 H   0  0  0  0  0  0  0  0  0  0  0  0
    8.8535    5.6049  -13.3770 H   0  0  0  0  0  0  0  0  0  0  0  0
    3.4295    8.9772   -9.3255 H   0  0  0  0  0  0  0  0  0  0  0  0
    4.8280    8.0128   -8.6935 H   0  0  0  0  0  0  0  0  0  0  0  0
    9.4955    5.6890   -9.1033 H   0  0  0  0  0  0  0  0  0  0  0  0
   11.4050    7.8012  -10.1541 H   0  0  0  0  0  0  0  0  0  0  0  0
   10.4031    7.3104   -8.7056 H   0  0  0  0  0  0  0  0  0  0  0  0
    9.8479   10.2209   -7.7270 H   0  0  0  0  0  0  0  0  0  0  0  0
   10.5627   10.8252   -9.2602 H   0  0  0  0  0  0  0  0  0  0  0  0
    9.5728    9.3263   -9.2602 H   0  0  0  0  0  0  0  0  0  0  0  0
   13.3948   10.2527   -8.3254 H   0  0  0  0  0  0  0  0  0  0  0  0
   13.3057    9.1298   -9.7246 H   0  0  0  0  0  0  0  0  0  0  0  0
   12.3382   10.6433   -9.7246 H   0  0  0  0  0  0  0  0  0  0  0  0
   12.1292    9.9313   -6.5260 H   0  0  0  0  0  0  0  0  0  0  0  0
   10.7679    8.6675   -6.5086 H   0  0  0  0  0  0  0  0  0  0  0  0
  1  2  1  0
  2  3  1  0
  2  4  1  0
  4  5  1  0
  5  6  1  0
  6  7  1  0
  7  8  2  0
  8  9  1  0
  9 10  2  0
 10 11  1  0
 11 12  1  0
 12 13  1  0
 13 14  1  0
 14 15  1  0
 15 16  2  0
 15 17  1  0
 14 18  2  0
 18 19  1  0
 19 20  1  0
 20 21  1  0
 21 22  2  0
 21 23  1  0
 18 24  1  0
 24 25  1  0
 11 26  2  0
  5 27  1  0
 27 28  1  0
 28 29  1  0
 28 30  1  0
 28 31  1  0
 31  2  1  0
 26  7  1  0
 24 12  2  0
  1 32  1  0
  1 33  1  0
  1 34  1  0
  3 35  1  0
  3 36  1  0
  3 37  1  0
  4 38  1  0
  4 39  1  0
  5 40  1  0
  6 41  1  0
  8 42  1  0
  9 43  1  0
 10 44  1  0
 20 45  1  0
 20 46  1  0
 26 47  1  0
 27 48  1  0
 27 49  1  0
 29 50  1  0
 29 51  1  0
 29 52  1  0
 30 53  1  0
 30 54  1  0
 30 55  1  0
 31 56  1  0
 31 57  1  0
M  CHG  2  17  -1  23  -1
M  END
>  <meeko>  (3) 
{"is_sidechain": [false], "free_energy": -6.888, "intermolecular_energy": -10.111, "internal_energy": -0.919}

$$$$
2qbq_ligand
     RDKit          3D

 57 59  0  0  0  0  0  0  0  0999 V2000
   13.8150   10.0810   -8.7840 C   0  0  0  0  0  0  0  0  0  0  0  0
   13.0240    9.0340   -7.9660 C   0  0  0  0  0  0  0  0  0  0  0  0
   11.6400    9.6480   -7.6870 C   0  0  0  0  0  0  0  0  0  0  0  0
   12.8920    7.7510   -8.8130 C   0  0  0  0  0  0  0  0  0  0  0  0
   12.3690    6.5390   -8.0240 C   0  0  0  0  0  0  0  0  0  0  0  0
   12.3540    5.3840   -8.9430 N   0  0  0  0  0  0  0  0  0  0  0  0
   11.4700    5.5220  -10.0350 C   0  0  0  0  0  0  0  0  0  0  0  0
   11.8300    5.0930  -11.3160 C   0  0  0  0  0  0  0  0  0  0  0  0
   10.9710    5.2850  -12.4000 C   0  0  0  0  0  0  0  0  0  0  0  0
    9.7470    5.9290  -12.2140 C   0  0  0  0  0  0  0  0  0  0  0  0
    9.3690    6.3740  -10.9420 C   0  0  0  0  0  0  0  0  0  0  0  0
    8.1160    7.1010  -10.7290 C   0  0  0  0  0  0  0  0  0  0  0  0
    8.1220    8.8130  -10.7260 S   0  0  0  0  0  0  0  0  0  0  0  0
    6.4190    8.9050  -10.4820 C   0  0  0  0  0  0  0  0  0  0  0  0
    5.6930   10.3090  -10.3010 C   0  0  0  0  0  0  0  0  0  0  0  0
    5.2950   10.9350  -11.3320 O   0  0  0  0  0  0  0  0  0  0  0  0
    5.5520   10.7200   -9.1020 O   0  0  0  0  0  0  0  0  0  0  0  0
    5.8500    7.6440  -10.4680 C   0  0  0  0  0  0  0  0  0  0  0  0
    4.5260    7.3920  -10.3100 O   0  0  0  0  0  0  0  0  0  0  0  0
    4.1270    7.4920   -8.9230 C   0  0  0  0  0  0  0  0  0  0  0  0
    3.5230    6.1670   -8.4070 C   0  0  0  0  0  0  0  0  0  0  0  0
    3.0340    5.3900   -9.2830 O   0  0  0  0  0  0  0  0  0  0  0  0
    3.6280    5.9580   -7.1580 O   0  0  0  0  0  0  0  0  0  0  0  0
    6.8400    6.6200  -10.5290 C   0  0  0  0  0  0  0  0  0  0  0  0
    6.4060    4.7800  -10.3250 Br  0  0  0  0  0  0  0  0  0  0  0  0
   10.2320    6.1510   -9.8580 C   0  0  0  0  0  0  0  0  0  0  0  0
   13.2790    6.2640   -6.8150 C   0  0  0  0  0  0  0  0  0  0  0  0
   13.4320    7.4720   -5.8670 C   0  0  0  0  0  0  0  0  0  0  0  0
   14.5760    7.1690   -4.8710 C   0  0  0  0  0  0  0  0  0  0  0  0
   12.1560    7.6680   -5.0260 C   0  0  0  0  0  0  0  0  0  0  0  0
   13.8120    8.7460   -6.6630 C   0  0  0  0  0  0  0  0  0  0  0  0
   14.3333   10.7670   -8.0979 H   0  0  0  0  0  0  0  0  0  0  0  0
   14.5538    9.5690   -9.4180 H   0  0  0  0  0  0  0  0  0  0  0  0
   13.1206   10.6518   -9.4180 H   0  0  0  0  0  0  0  0  0  0  0  0
   11.4822    9.7180   -6.6006 H   0  0  0  0  0  0  0  0  0  0  0  0
   11.5887   10.6533   -8.1305 H   0  0  0  0  0  0  0  0  0  0  0  0
   10.8603    9.0114   -8.1305 H   0  0  0  0  0  0  0  0  0  0  0  0
   12.1968    7.9520   -9.6414 H   0  0  0  0  0  0  0  0  0  0  0  0
   13.9019    7.4934   -9.1648 H   0  0  0  0  0  0  0  0  0  0  0  0
   11.3560    6.7293   -7.6398 H   0  0  0  0  0  0  0  0  0  0  0  0
   12.1280    4.5270   -8.4370 H   0  0  0  0  0  0  0  0  0  0  0  0
   12.8004    4.5989  -11.4716 H   0  0  0  0  0  0  0  0  0  0  0  0
   11.2590    4.9288  -13.4001 H   0  0  0  0  0  0  0  0  0  0  0  0
    9.0761    6.0876  -13.0712 H   0  0  0  0  0  0  0  0  0  0  0  0
    5.0089    7.7427   -8.3152 H   0  0  0  0  0  0  0  0  0  0  0  0
    3.3582    8.2746   -8.8422 H   0  0  0  0  0  0  0  0  0  0  0  0
    9.9303    6.4762   -8.8514 H   0  0  0  0  0  0  0  0  0  0  0  0
   12.8537    5.4257   -6.2437 H   0  0  0  0  0  0  0  0  0  0  0  0
   14.2799    6.0368   -7.2108 H   0  0  0  0  0  0  0  0  0  0  0  0
   14.2016    7.2682   -3.8414 H   0  0  0  0  0  0  0  0  0  0  0  0
   14.9400    6.1435   -5.0316 H   0  0  0  0  0  0  0  0  0  0  0  0
   15.3999    7.8799   -5.0316 H   0  0  0  0  0  0  0  0  0  0  0  0
   12.4119    7.6287   -3.9569 H   0  0  0  0  0  0  0  0  0  0  0  0
   11.7089    8.6454   -5.2603 H   0  0  0  0  0  0  0  0  0  0  0  0
   11.4362    6.8699   -5.2603 H   0  0  0  0  0  0  0  0  0  0  0  0
   13.6699    9.6077   -5.9941 H   0  0  0  0  0  0  0  0  0  0  0  0
   14.8473    8.5736   -6.9925 H   0  0  0  0  0  0  0  0  0  0  0  0
  1  2  1  0
  2  3  1  0
  2  4  1  0
  4  5  1  0
  5  6  1  0
  6  7  1  0
  7  8  2  0
  8  9  1  0
  9 10  2  0
 10 11  1  0
 11 12  1  0
 12 13  1  0
 13 14  1  0
 14 15  1  0
 15 16  2  0
 15 17  1  0
 14 18  2  0
 18 19  1  0
 19 20  1  0
 20 21  1  0
 21 22  2  0
 21 23  1  0
 18 24  1  0
 24 25  1  0
 11 26  2  0
  5 27  1  0
 27 28  1  0
 28 29  1  0
 28 30  1  0
 28 31  1  0
 31  2  1  0
 26  7  1  0
 24 12  2  0
  1 32  1  0
  1 33  1  0
  1 34  1  0
  3 35  1  0
  3 36  1  0
  3 37  1  0
  4 38  1  0
  4 39  1  0
  5 40  1  0
  6 41  1  0
  8 42  1  0
  9 43  1  0
 10 44  1  0
 20 45  1  0
 20 46  1  0
 26 47  1  0
 27 48  1  0
 27 49  1  0
 29 50  1  0
 29 51  1  0
 29 52  1  0
 30 53  1  0
 30 54  1  0
 30 55  1  0
 31 56  1  0
 31 57  1  0
M  CHG  2  17  -1  23  -1
M  END
>  <meeko>  (4) 
{"is_sidechain": [false], "free_energy": -6.816, "intermolecular_energy": -9.719, "internal_energy": -1.209}

$$$$
2qbq_ligand
     RDKit          3D

 57 59  0  0  0  0  0  0  0  0999 V2000
   13.9100    3.0090  -16.9730 C   0  0  0  0  0  0  0  0  0  0  0  0
   12.5300    3.2030  -16.3040 C   0  0  0  0  0  0  0  0  0  0  0  0
   12.0810    1.8150  -15.8110 C   0  0  0  0  0  0  0  0  0  0  0  0
   12.6960    4.1780  -15.1180 C   0  0  0  0  0  0  0  0  0  0  0  0
   11.3630    4.6720  -14.5330 C   0  0  0  0  0  0  0  0  0  0  0  0
   11.6800    5.6330  -13.4580 N   0  0  0  0  0  0  0  0  0  0  0  0
   11.0110    5.3830  -12.2400 C   0  0  0  0  0  0  0  0  0  0  0  0
   11.6220    4.6550  -11.2150 C   0  0  0  0  0  0  0  0  0  0  0  0
   10.9310    4.3650  -10.0370 C   0  0  0  0  0  0  0  0  0  0  0  0
    9.6100    4.7860   -9.8820 C   0  0  0  0  0  0  0  0  0  0  0  0
    8.9750    5.5090  -10.8980 C   0  0  0  0  0  0  0  0  0  0  0  0
    7.5730    5.9160  -10.7830 C   0  0  0  0  0  0  0  0  0  0  0  0
    6.3830    4.7460  -10.3990 S   0  0  0  0  0  0  0  0  0  0  0  0
    5.1130    5.9100  -10.4030 C   0  0  0  0  0  0  0  0  0  0  0  0
    3.6010    5.4720  -10.1690 C   0  0  0  0  0  0  0  0  0  0  0  0
    2.8370    5.3340  -11.1730 O   0  0  0  0  0  0  0  0  0  0  0  0
    3.2520    5.2800   -8.9570 O   0  0  0  0  0  0  0  0  0  0  0  0
    5.6060    7.1830  -10.6310 C   0  0  0  0  0  0  0  0  0  0  0  0
    4.8520    8.3100  -10.6760 O   0  0  0  0  0  0  0  0  0  0  0  0
    4.7960    8.9670   -9.3890 C   0  0  0  0  0  0  0  0  0  0  0  0
    4.0020   10.2900   -9.4590 C   0  0  0  0  0  0  0  0  0  0  0  0
    4.6840   11.3510   -9.6100 O   0  0  0  0  0  0  0  0  0  0  0  0
    2.7370   10.1820   -9.4170 O   0  0  0  0  0  0  0  0  0  0  0  0
    7.0000    7.1610  -10.9270 C   0  0  0  0  0  0  0  0  0  0  0  0
    7.9400    8.7170  -11.4860 Br  0  0  0  0  0  0  0  0  0  0  0  0
    9.6910    5.8150  -12.0660 C   0  0  0  0  0  0  0  0  0  0  0  0
   10.5200    5.3410  -15.6320 C   0  0  0  0  0  0  0  0  0  0  0  0
   10.2450    4.4270  -16.8440 C   0  0  0  0  0  0  0  0  0  0  0  0
    9.6500    5.2900  -17.9820 C   0  0  0  0  0  0  0  0  0  0  0  0
    9.1840    3.3660  -16.4960 C   0  0  0  0  0  0  0  0  0  0  0  0
   11.5620    3.7930  -17.3600 C   0  0  0  0  0  0  0  0  0  0  0  0
   14.6818    2.9005  -16.1967 H   0  0  0  0  0  0  0  0  0  0  0  0
   13.8901    2.1048  -17.5992 H   0  0  0  0  0  0  0  0  0  0  0  0
   14.1401    3.8836  -17.5992 H   0  0  0  0  0  0  0  0  0  0  0  0
   12.0763    1.8004  -14.7111 H   0  0  0  0  0  0  0  0  0  0  0  0
   11.0684    1.6030  -16.1849 H   0  0  0  0  0  0  0  0  0  0  0  0
   12.7775    1.0501  -16.1849 H   0  0  0  0  0  0  0  0  0  0  0  0
   13.2555    3.6647  -14.3221 H   0  0  0  0  0  0  0  0  0  0  0  0
   13.2266    5.0624  -15.5007 H   0  0  0  0  0  0  0  0  0  0  0  0
   10.7770    3.8327  -14.1302 H   0  0  0  0  0  0  0  0  0  0  0  0
   11.4780    6.5870  -13.7590 H   0  0  0  0  0  0  0  0  0  0  0  0
   12.6582    4.3069  -11.3378 H   0  0  0  0  0  0  0  0  0  0  0  0
   11.4280    3.8047   -9.2313 H   0  0  0  0  0  0  0  0  0  0  0  0
    9.0649    4.5484   -8.9566 H   0  0  0  0  0  0  0  0  0  0  0  0
    4.3082    8.2959   -8.6667 H   0  0  0  0  0  0  0  0  0  0  0  0
    5.8248    9.1998   -9.0769 H   0  0  0  0  0  0  0  0  0  0  0  0
    9.2064    6.4045  -12.8582 H   0  0  0  0  0  0  0  0  0  0  0  0
    9.5552    5.6400  -15.1963 H   0  0  0  0  0  0  0  0  0  0  0  0
   11.0974    6.2011  -16.0019 H   0  0  0  0  0  0  0  0  0  0  0  0
    9.0760    6.1225  -17.5491 H   0  0  0  0  0  0  0  0  0  0  0  0
   10.4649    5.6903  -18.6030 H   0  0  0  0  0  0  0  0  0  0  0  0
    8.9860    4.6707  -18.6030 H   0  0  0  0  0  0  0  0  0  0  0  0
    9.0971    3.2791  -15.4029 H   0  0  0  0  0  0  0  0  0  0  0  0
    8.2135    3.6657  -16.9183 H   0  0  0  0  0  0  0  0  0  0  0  0
    9.4837    2.3955  -16.9183 H   0  0  0  0  0  0  0  0  0  0  0  0
   11.2892    2.9797  -18.0486 H   0  0  0  0  0  0  0  0  0  0  0  0
   12.1164    4.6268  -17.8155 H   0  0  0  0  0  0  0  0  0  0  0  0
  1  2  1  0
  2  3  1  0
  2  4  1  0
  4  5  1  0
  5  6  1  0
  6  7  1  0
  7  8  2  0
  8  9  1  0
  9 10  2  0
 10 11  1  0
 11 12  1  0
 12 13  1  0
 13 14  1  0
 14 15  1  0
 15 16  2  0
 15 17  1  0
 14 18  2  0
 18 19  1  0
 19 20  1  0
 20 21  1  0
 21 22  2  0
 21 23  1  0
 18 24  1  0
 24 25  1  0
 11 26  2  0
  5 27  1  0
 27 28  1  0
 28 29  1  0
 28 30  1  0
 28 31  1  0
 31  2  1  0
 26  7  1  0
 24 12  2  0
  1 32  1  0
  1 33  1  0
  1 34  1  0
  3 35  1  0
  3 36  1  0
  3 37  1  0
  4 38  1  0
  4 39  1  0
  5 40  1  0
  6 41  1  0
  8 42  1  0
  9 43  1  0
 10 44  1  0
 20 45  1  0
 20 46  1  0
 26 47  1  0
 27 48  1  0
 27 49  1  0
 29 50  1  0
 29 51  1  0
 29 52  1  0
 30 53  1  0
 30 54  1  0
 30 55  1  0
 31 56  1  0
 31 57  1  0
M  CHG  2  17  -1  23  -1
M  END
>  <meeko>  (5) 
{"is_sidechain": [false], "free_energy": -6.455, "intermolecular_energy": -9.466, "internal_energy": -0.954}

$$$$
2qbq_ligand
     RDKit          3D

 57 59  0  0  0  0  0  0  0  0999 V2000
   12.4510    7.8930   -4.6600 C   0  0  0  0  0  0  0  0  0  0  0  0
   12.7990    8.1190   -6.1490 C   0  0  0  0  0  0  0  0  0  0  0  0
   14.3030    8.4420   -6.2050 C   0  0  0  0  0  0  0  0  0  0  0  0
   12.4890    6.8210   -6.9250 C   0  0  0  0  0  0  0  0  0  0  0  0
   12.5300    6.9880   -8.4530 C   0  0  0  0  0  0  0  0  0  0  0  0
   12.1580    5.6910   -9.0510 N   0  0  0  0  0  0  0  0  0  0  0  0
   11.2570    5.7870  -10.1330 C   0  0  0  0  0  0  0  0  0  0  0  0
   11.6250    5.3810  -11.4190 C   0  0  0  0  0  0  0  0  0  0  0  0
   10.7460    5.5340  -12.4940 C   0  0  0  0  0  0  0  0  0  0  0  0
    9.4930    6.1150  -12.2930 C   0  0  0  0  0  0  0  0  0  0  0  0
    9.1060    6.5360  -11.0150 C   0  0  0  0  0  0  0  0  0  0  0  0
    7.8210    7.1970  -10.7870 C   0  0  0  0  0  0  0  0  0  0  0  0
    7.7520    8.9060  -10.7030 S   0  0  0  0  0  0  0  0  0  0  0  0
    6.0440    8.9140  -10.4800 C   0  0  0  0  0  0  0  0  0  0  0  0
    5.2560   10.2760  -10.2440 C   0  0  0  0  0  0  0  0  0  0  0  0
    5.2500   10.7920   -9.0850 O   0  0  0  0  0  0  0  0  0  0  0  0
    4.6740   10.7730  -11.2650 O   0  0  0  0  0  0  0  0  0  0  0  0
    5.5300    7.6300  -10.5350 C   0  0  0  0  0  0  0  0  0  0  0  0
    4.2160    7.3160  -10.4070 O   0  0  0  0  0  0  0  0  0  0  0  0
    3.7620    7.4640   -9.0420 C   0  0  0  0  0  0  0  0  0  0  0  0
    3.5240    6.0940   -8.3690 C   0  0  0  0  0  0  0  0  0  0  0  0
    3.9090    5.9820   -7.1640 O   0  0  0  0  0  0  0  0  0  0  0  0
    2.9120    5.2300   -9.0700 O   0  0  0  0  0  0  0  0  0  0  0  0
    6.5640    6.6540  -10.6290 C   0  0  0  0  0  0  0  0  0  0  0  0
    6.2070    4.7890  -10.5190 Br  0  0  0  0  0  0  0  0  0  0  0  0
    9.9910    6.3530   -9.9410 C   0  0  0  0  0  0  0  0  0  0  0  0
   11.5510    8.0910   -8.8880 C   0  0  0  0  0  0  0  0  0  0  0  0
   11.8110    9.4530   -8.2120 C   0  0  0  0  0  0  0  0  0  0  0  0
   10.6100   10.3820   -8.5050 C   0  0  0  0  0  0  0  0  0  0  0  0
   13.0520   10.1340   -8.8200 C   0  0  0  0  0  0  0  0  0  0  0  0
   11.9270    9.2870   -6.6760 C   0  0  0  0  0  0  0  0  0  0  0  0
   13.2063    8.3835   -4.0284 H   0  0  0  0  0  0  0  0  0  0  0  0
   11.4604    8.3206   -4.4460 H   0  0  0  0  0  0  0  0  0  0  0  0
   12.4387    6.8141   -4.4460 H   0  0  0  0  0  0  0  0  0  0  0  0
   14.6981    8.5269   -5.1819 H   0  0  0  0  0  0  0  0  0  0  0  0
   14.8314    7.6369   -6.7365 H   0  0  0  0  0  0  0  0  0  0  0  0
   14.4542    9.3931   -6.7365 H   0  0  0  0  0  0  0  0  0  0  0  0
   13.2303    6.0603   -6.6390 H   0  0  0  0  0  0  0  0  0  0  0  0
   11.4622    6.5272   -6.6618 H   0  0  0  0  0  0  0  0  0  0  0  0
   13.5348    7.2844   -8.7885 H   0  0  0  0  0  0  0  0  0  0  0  0
   11.7640    5.0700   -8.3430 H   0  0  0  0  0  0  0  0  0  0  0  0
   12.6171    4.9364  -11.5863 H   0  0  0  0  0  0  0  0  0  0  0  0
   11.0413    5.1967  -13.4985 H   0  0  0  0  0  0  0  0  0  0  0  0
    8.8062    6.2428  -13.1427 H   0  0  0  0  0  0  0  0  0  0  0  0
    4.5236    8.0148   -8.4704 H   0  0  0  0  0  0  0  0  0  0  0  0
    2.8077    8.0110   -9.0547 H   0  0  0  0  0  0  0  0  0  0  0  0
    9.6843    6.6599   -8.9302 H   0  0  0  0  0  0  0  0  0  0  0  0
   11.6367    8.2218   -9.9768 H   0  0  0  0  0  0  0  0  0  0  0  0
   10.5453    7.7671   -8.5820 H   0  0  0  0  0  0  0  0  0  0  0  0
   10.1698   10.7225   -7.5562 H   0  0  0  0  0  0  0  0  0  0  0  0
   10.9525   11.2526   -9.0836 H   0  0  0  0  0  0  0  0  0  0  0  0
    9.8534    9.8317   -9.0836 H   0  0  0  0  0  0  0  0  0  0  0  0
   13.7062   10.4930   -8.0118 H   0  0  0  0  0  0  0  0  0  0  0  0
   13.6000    9.4102   -9.4412 H   0  0  0  0  0  0  0  0  0  0  0  0
   12.7359   10.9850   -9.4412 H   0  0  0  0  0  0  0  0  0  0  0  0
   12.3478   10.2205   -6.2740 H   0  0  0  0  0  0  0  0  0  0  0  0
   10.9065    9.0499   -6.3407 H   0  0  0  0  0  0  0  0  0  0  0  0
  1  2  1  0
  2  3  1  0
  2  4  1  0
  4  5  1  0
  5  6  1  0
  6  7  1  0
  7  8  2  0
  8  9  1  0
  9 10  2  0
 10 11  1  0
 11 12  1  0
 12 13  1  0
 13 14  1  0
 14 15  1  0
 15 16  2  0
 15 17  1  0
 14 18  2  0
 18 19  1  0
 19 20  1  0
 20 21  1  0
 21 22  2  0
 21 23  1  0
 18 24  1  0
 24 25  1  0
 11 26  2  0
  5 27  1  0
 27 28  1  0
 28 29  1  0
 28 30  1  0
 28 31  1  0
 31  2  1  0
 26  7  1  0
 24 12  2  0
  1 32  1  0
  1 33  1  0
  1 34  1  0
  3 35  1  0
  3 36  1  0
  3 37  1  0
  4 38  1  0
  4 39  1  0
  5 40  1  0
  6 41  1  0
  8 42  1  0
  9 43  1  0
 10 44  1  0
 20 45  1  0
 20 46  1  0
 26 47  1  0
 27 48  1  0
 27 49  1  0
 29 50  1  0
 29 51  1  0
 29 52  1  0
 30 53  1  0
 30 54  1  0
 30 55  1  0
 31 56  1  0
 31 57  1  0
M  CHG  2  17  -1  23  -1
M  END
>  <meeko>  (6) 
{"is_sidechain": [false], "free_energy": -6.412, "intermolecular_energy": -10.012, "internal_energy": -0.346}

$$$$
2qbq_ligand
     RDKit          3D

 57 59  0  0  0  0  0  0  0  0999 V2000
    9.5700    5.3250  -14.6120 C   0  0  0  0  0  0  0  0  0  0  0  0
    9.3180    5.9160  -13.2070 C   0  0  0  0  0  0  0  0  0  0  0  0
    9.4690    7.4420  -13.3370 C   0  0  0  0  0  0  0  0  0  0  0  0
    7.8860    5.5430  -12.7700 C   0  0  0  0  0  0  0  0  0  0  0  0
    7.5960    5.8290  -11.2880 C   0  0  0  0  0  0  0  0  0  0  0  0
    6.2210    5.3700  -11.0080 N   0  0  0  0  0  0  0  0  0  0  0  0
    5.4070    6.3290  -10.3700 C   0  0  0  0  0  0  0  0  0  0  0  0
    4.3210    5.9450   -9.5770 C   0  0  0  0  0  0  0  0  0  0  0  0
    3.4870    6.9040   -8.9970 C   0  0  0  0  0  0  0  0  0  0  0  0
    3.7220    8.2600   -9.2220 C   0  0  0  0  0  0  0  0  0  0  0  0
    4.7980    8.6680  -10.0180 C   0  0  0  0  0  0  0  0  0  0  0  0
    5.0350   10.0820  -10.3140 C   0  0  0  0  0  0  0  0  0  0  0  0
    4.2210   11.2840   -9.4060 S   0  0  0  0  0  0  0  0  0  0  0  0
    4.9950   12.5700  -10.2510 C   0  0  0  0  0  0  0  0  0  0  0  0
    4.6290   14.0880   -9.9420 C   0  0  0  0  0  0  0  0  0  0  0  0
    4.6160   14.4870   -8.7380 O   0  0  0  0  0  0  0  0  0  0  0  0
    4.3730   14.8220  -10.9540 O   0  0  0  0  0  0  0  0  0  0  0  0
    5.9090   12.0840  -11.1680 C   0  0  0  0  0  0  0  0  0  0  0  0
    6.6840   12.8540  -11.9730 O   0  0  0  0  0  0  0  0  0  0  0  0
    7.8050   13.4170  -11.2540 C   0  0  0  0  0  0  0  0  0  0  0  0
    9.0490   12.5050  -11.3340 C   0  0  0  0  0  0  0  0  0  0  0  0
    9.6760   12.4980  -12.4390 O   0  0  0  0  0  0  0  0  0  0  0  0
    9.3590   11.8930  -10.2650 O   0  0  0  0  0  0  0  0  0  0  0  0
    5.8630   10.6620  -11.2520 C   0  0  0  0  0  0  0  0  0  0  0  0
    6.8460    9.6930  -12.5610 Br  0  0  0  0  0  0  0  0  0  0  0  0
    5.6420    7.6940  -10.5740 C   0  0  0  0  0  0  0  0  0  0  0  0
    8.6110    5.0900  -10.3990 C   0  0  0  0  0  0  0  0  0  0  0  0
   10.0800    5.4390  -10.7150 C   0  0  0  0  0  0  0  0  0  0  0  0
   10.9920    4.4370   -9.9690 C   0  0  0  0  0  0  0  0  0  0  0  0
   10.4340    6.8390  -10.1800 C   0  0  0  0  0  0  0  0  0  0  0  0
   10.3580    5.3040  -12.2340 C   0  0  0  0  0  0  0  0  0  0  0  0
    9.9997    4.3172  -14.5142 H   0  0  0  0  0  0  0  0  0  0  0  0
    8.6187    5.2662  -15.1611 H   0  0  0  0  0  0  0  0  0  0  0  0
   10.2710    5.9708  -15.1611 H   0  0  0  0  0  0  0  0  0  0  0  0
    9.5136    7.8928  -12.3346 H   0  0  0  0  0  0  0  0  0  0  0  0
   10.3944    7.6736  -13.8847 H   0  0  0  0  0  0  0  0  0  0  0  0
    8.6069    7.8504  -13.8847 H   0  0  0  0  0  0  0  0  0  0  0  0
    7.1757    6.1202  -13.3802 H   0  0  0  0  0  0  0  0  0  0  0  0
    7.7793    4.4577  -12.9139 H   0  0  0  0  0  0  0  0  0  0  0  0
    7.6871    6.9037  -11.0717 H   0  0  0  0  0  0  0  0  0  0  0  0
    6.2360    4.5180  -10.4440 H   0  0  0  0  0  0  0  0  0  0  0  0
    4.1214    4.8765   -9.4081 H   0  0  0  0  0  0  0  0  0  0  0  0
    2.6450    6.5895   -8.3629 H   0  0  0  0  0  0  0  0  0  0  0  0
    3.0582    9.0126   -8.7715 H   0  0  0  0  0  0  0  0  0  0  0  0
    8.0522   14.3966  -11.6890 H   0  0  0  0  0  0  0  0  0  0  0  0
    7.5197   13.5170  -10.1964 H   0  0  0  0  0  0  0  0  0  0  0  0
    6.5036    8.0089  -11.1810 H   0  0  0  0  0  0  0  0  0  0  0  0
    8.4095    5.3520   -9.3498 H   0  0  0  0  0  0  0  0  0  0  0  0
    8.4865    4.0146  -10.5937 H   0  0  0  0  0  0  0  0  0  0  0  0
   10.8715    4.5694   -8.8837 H   0  0  0  0  0  0  0  0  0  0  0  0
   10.7123    3.4099  -10.2464 H   0  0  0  0  0  0  0  0  0  0  0  0
   12.0408    4.6191  -10.2464 H   0  0  0  0  0  0  0  0  0  0  0  0
   10.4300    6.8230   -9.0801 H   0  0  0  0  0  0  0  0  0  0  0  0
   11.4332    7.1268  -10.5389 H   0  0  0  0  0  0  0  0  0  0  0  0
    9.6917    7.5672  -10.5389 H   0  0  0  0  0  0  0  0  0  0  0  0
   11.3245    5.7885  -12.4368 H   0  0  0  0  0  0  0  0  0  0  0  0
   10.3247    4.2223  -12.4309 H   0  0  0  0  0  0  0  0  0  0  0  0
  1  2  1  0
  2  3  1  0
  2  4  1  0
  4  5  1  0
  5  6  1  0
  6  7  1  0
  7  8  2  0
  8  9  1  0
  9 10  2  0
 10 11  1  0
 11 12  1  0
 12 13  1  0
 13 14  1  0
 14 15  1  0
 15 16  2  0
 15 17  1  0
 14 18  2  0
 18 19  1  0
 19 20  1  0
 20 21  1  0
 21 22  2  0
 21 23  1  0
 18 24  1  0
 24 25  1  0
 11 26  2  0
  5 27  1  0
 27 28  1  0
 28 29  1  0
 28 30  1  0
 28 31  1  0
 31  2  1  0
 26  7  1  0
 24 12  2  0
  1 32  1  0
  1 33  1  0
  1 34  1  0
  3 35  1  0
  3 36  1  0
  3 37  1  0
  4 38  1  0
  4 39  1  0
  5 40  1  0
  6 41  1  0
  8 42  1  0
  9 43  1  0
 10 44  1  0
 20 45  1  0
 20 46  1  0
 26 47  1  0
 27 48  1  0
 27 49  1  0
 29 50  1  0
 29 51  1  0
 29 52  1  0
 30 53  1  0
 30 54  1  0
 30 55  1  0
 31 56  1  0
 31 57  1  0
M  CHG  2  17  -1  23  -1
M  END
>  <meeko>  (7) 
{"is_sidechain": [false], "free_energy": -6.378, "intermolecular_energy": -9.325, "internal_energy": -0.986}

$$$$
2qbq_ligand
     RDKit          3D

 57 59  0  0  0  0  0  0  0  0999 V2000
    7.3280    6.4730  -17.9900 C   0  0  0  0  0  0  0  0  0  0  0  0
    7.8400    7.2610  -16.7630 C   0  0  0  0  0  0  0  0  0  0  0  0
    6.6060    7.5890  -15.9030 C   0  0  0  0  0  0  0  0  0  0  0  0
    8.8280    6.3660  -15.9850 C   0  0  0  0  0  0  0  0  0  0  0  0
    9.6190    7.1140  -14.9000 C   0  0  0  0  0  0  0  0  0  0  0  0
   10.5550    6.1490  -14.2890 N   0  0  0  0  0  0  0  0  0  0  0  0
   10.2500    5.8120  -12.9530 C   0  0  0  0  0  0  0  0  0  0  0  0
   11.1540    5.0930  -12.1640 C   0  0  0  0  0  0  0  0  0  0  0  0
   10.8190    4.7140  -10.8620 C   0  0  0  0  0  0  0  0  0  0  0  0
    9.5650    5.0370  -10.3420 C   0  0  0  0  0  0  0  0  0  0  0  0
    8.6420    5.7500  -11.1160 C   0  0  0  0  0  0  0  0  0  0  0  0
    7.3010    6.0540  -10.6150 C   0  0  0  0  0  0  0  0  0  0  0  0
    6.1060    4.8280  -10.6000 S   0  0  0  0  0  0  0  0  0  0  0  0
    4.9260    5.8650   -9.8920 C   0  0  0  0  0  0  0  0  0  0  0  0
    3.4390    5.3580   -9.6380 C   0  0  0  0  0  0  0  0  0  0  0  0
    2.7060    5.0730  -10.6340 O   0  0  0  0  0  0  0  0  0  0  0  0
    3.0770    5.2660   -8.4180 O   0  0  0  0  0  0  0  0  0  0  0  0
    5.4620    7.1100   -9.6130 C   0  0  0  0  0  0  0  0  0  0  0  0
    4.7820    8.1350   -9.0410 O   0  0  0  0  0  0  0  0  0  0  0  0
    4.1840    8.9990  -10.0340 C   0  0  0  0  0  0  0  0  0  0  0  0
    3.1690    9.9780   -9.4020 C   0  0  0  0  0  0  0  0  0  0  0  0
    2.0400    9.4930   -9.0830 O   0  0  0  0  0  0  0  0  0  0  0  0
    3.5860   11.1620   -9.2090 O   0  0  0  0  0  0  0  0  0  0  0  0
    6.7940    7.2310  -10.1050 C   0  0  0  0  0  0  0  0  0  0  0  0
    7.7410    8.8790  -10.0670 Br  0  0  0  0  0  0  0  0  0  0  0  0
    9.0020    6.1440  -12.4140 C   0  0  0  0  0  0  0  0  0  0  0  0
   10.3820    8.2940  -15.5240 C   0  0  0  0  0  0  0  0  0  0  0  0
    9.4750    9.2880  -16.2800 C   0  0  0  0  0  0  0  0  0  0  0  0
   10.3750   10.2510  -17.0900 C   0  0  0  0  0  0  0  0  0  0  0  0
    8.6780   10.1580  -15.2910 C   0  0  0  0  0  0  0  0  0  0  0  0
    8.5550    8.5370  -17.2760 C   0  0  0  0  0  0  0  0  0  0  0  0
    6.7579    5.5956  -17.6505 H   0  0  0  0  0  0  0  0  0  0  0  0
    6.6777    7.1206  -18.5964 H   0  0  0  0  0  0  0  0  0  0  0  0
    8.1840    6.1419  -18.5964 H   0  0  0  0  0  0  0  0  0  0  0  0
    6.8720    7.5183  -14.8380 H   0  0  0  0  0  0  0  0  0  0  0  0
    6.2628    8.6095  -16.1283 H   0  0  0  0  0  0  0  0  0  0  0  0
    5.8014    6.8735  -16.1283 H   0  0  0  0  0  0  0  0  0  0  0  0
    8.2585    5.5572  -15.5038 H   0  0  0  0  0  0  0  0  0  0  0  0
    9.5608    5.9886  -16.7134 H   0  0  0  0  0  0  0  0  0  0  0  0
    8.9436    7.5229  -14.1341 H   0  0  0  0  0  0  0  0  0  0  0  0
   11.5120    6.5020  -14.3340 H   0  0  0  0  0  0  0  0  0  0  0  0
   12.1388    4.8233  -12.5731 H   0  0  0  0  0  0  0  0  0  0  0  0
   11.5437    4.1609  -10.2465 H   0  0  0  0  0  0  0  0  0  0  0  0
    9.3007    4.7300   -9.3193 H   0  0  0  0  0  0  0  0  0  0  0  0
    4.9783    9.5782  -10.5276 H   0  0  0  0  0  0  0  0  0  0  0  0
    3.6476    8.3690  -10.7588 H   0  0  0  0  0  0  0  0  0  0  0  0
    8.2899    6.7246  -13.0189 H   0  0  0  0  0  0  0  0  0  0  0  0
   10.8988    8.8379  -14.7196 H   0  0  0  0  0  0  0  0  0  0  0  0
   11.0810    7.8717  -16.2609 H   0  0  0  0  0  0  0  0  0  0  0  0
   10.9591   10.8759  -16.3984 H   0  0  0  0  0  0  0  0  0  0  0  0
   11.0591    9.6676  -17.7238 H   0  0  0  0  0  0  0  0  0  0  0  0
    9.7467   10.8941  -17.7238 H   0  0  0  0  0  0  0  0  0  0  0  0
    8.9382    9.8740  -14.2607 H   0  0  0  0  0  0  0  0  0  0  0  0
    8.9254   11.2175  -15.4529 H   0  0  0  0  0  0  0  0  0  0  0  0
    7.6009   10.0041  -15.4529 H   0  0  0  0  0  0  0  0  0  0  0  0
    7.7769    9.2425  -17.6028 H   0  0  0  0  0  0  0  0  0  0  0  0
    9.2294    8.1821  -18.0692 H   0  0  0  0  0  0  0  0  0  0  0  0
  1  2  1  0
  2  3  1  0
  2  4  1  0
  4  5  1  0
  5  6  1  0
  6  7  1  0
  7  8  2  0
  8  9  1  0
  9 10  2  0
 10 11  1  0
 11 12  1  0
 12 13  1  0
 13 14  1  0
 14 15  1  0
 15 16  2  0
 15 17  1  0
 14 18  2  0
 18 19  1  0
 19 20  1  0
 20 21  1  0
 21 22  2  0
 21 23  1  0
 18 24  1  0
 24 25  1  0
 11 26  2  0
  5 27  1  0
 27 28  1  0
 28 29  1  0
 28 30  1  0
 28 31  1  0
 31  2  1  0
 26  7  1  0
 24 12  2  0
  1 32  1  0
  1 33  1  0
  1 34  1  0
  3 35  1  0
  3 36  1  0
  3 37  1  0
  4 38  1  0
  4 39  1  0
  5 40  1  0
  6 41  1  0
  8 42  1  0
  9 43  1  0
 10 44  1  0
 20 45  1  0
 20 46  1  0
 26 47  1  0
 27 48  1  0
 27 49  1  0
 29 50  1  0
 29 51  1  0
 29 52  1  0
 30 53  1  0
 30 54  1  0
 30 55  1  0
 31 56  1  0
 31 57  1  0
M  CHG  2  17  -1  23  -1
M  END
>  <meeko>  (8) 
{"is_sidechain": [false], "free_energy": -6.278, "intermolecular_energy": -8.975, "internal_energy": -1.196}

$$$$
2qbq_ligand
     RDKit          3D

 57 59  0  0  0  0  0  0  0  0999 V2000
   11.3010    1.9000  -18.7360 C   0  0  0  0  0  0  0  0  0  0  0  0
   10.2870    1.8650  -17.5690 C   0  0  0  0  0  0  0  0  0  0  0  0
   10.9940    1.1680  -16.3920 C   0  0  0  0  0  0  0  0  0  0  0  0
    9.9150    3.3170  -17.2020 C   0  0  0  0  0  0  0  0  0  0  0  0
    8.7160    3.4260  -16.2460 C   0  0  0  0  0  0  0  0  0  0  0  0
    8.4450    4.8620  -16.0370 N   0  0  0  0  0  0  0  0  0  0  0  0
    8.8870    5.3610  -14.7920 C   0  0  0  0  0  0  0  0  0  0  0  0
   10.1900    5.1300  -14.3420 C   0  0  0  0  0  0  0  0  0  0  0  0
   10.5990    5.5790  -13.0840 C   0  0  0  0  0  0  0  0  0  0  0  0
    9.6990    6.2480  -12.2550 C   0  0  0  0  0  0  0  0  0  0  0  0
    8.3870    6.4840  -12.6820 C   0  0  0  0  0  0  0  0  0  0  0  0
    7.4070    7.1350  -11.8110 C   0  0  0  0  0  0  0  0  0  0  0  0
    7.1240    8.8160  -11.9660 S   0  0  0  0  0  0  0  0  0  0  0  0
    5.9170    8.8150  -10.7370 C   0  0  0  0  0  0  0  0  0  0  0  0
    5.2170   10.1680  -10.2760 C   0  0  0  0  0  0  0  0  0  0  0  0
    5.2360   10.4850   -9.0470 O   0  0  0  0  0  0  0  0  0  0  0  0
    4.6750   10.8630  -11.1980 O   0  0  0  0  0  0  0  0  0  0  0  0
    5.6910    7.5350  -10.2640 C   0  0  0  0  0  0  0  0  0  0  0  0
    4.7880    7.2110   -9.3040 O   0  0  0  0  0  0  0  0  0  0  0  0
    3.4550    7.0760   -9.8490 C   0  0  0  0  0  0  0  0  0  0  0  0
    3.1040    5.6000  -10.1360 C   0  0  0  0  0  0  0  0  0  0  0  0
    2.8800    4.8650   -9.1260 O   0  0  0  0  0  0  0  0  0  0  0  0
    3.0160    5.2780  -11.3620 O   0  0  0  0  0  0  0  0  0  0  0  0
    6.6050    6.5970  -10.8270 C   0  0  0  0  0  0  0  0  0  0  0  0
    6.6960    4.7920  -10.2360 Br  0  0  0  0  0  0  0  0  0  0  0  0
    7.9980    6.0490  -13.9580 C   0  0  0  0  0  0  0  0  0  0  0  0
    7.4910    2.7230  -16.8540 C   0  0  0  0  0  0  0  0  0  0  0  0
    7.7390    1.2410  -17.2060 C   0  0  0  0  0  0  0  0  0  0  0  0
    6.5520    0.7350  -18.0580 C   0  0  0  0  0  0  0  0  0  0  0  0
    7.7650    0.3770  -15.9310 C   0  0  0  0  0  0  0  0  0  0  0  0
    9.0340    1.0870  -18.0440 C   0  0  0  0  0  0  0  0  0  0  0  0
   12.3236    1.9353  -18.3323 H   0  0  0  0  0  0  0  0  0  0  0  0
   11.1813    0.9972  -19.3529 H   0  0  0  0  0  0  0  0  0  0  0  0
   11.1194    2.7924  -19.3529 H   0  0  0  0  0  0  0  0  0  0  0  0
   10.5978    1.5586  -15.4431 H   0  0  0  0  0  0  0  0  0  0  0  0
   10.8141    0.0842  -16.4461 H   0  0  0  0  0  0  0  0  0  0  0  0
   12.0752    1.3633  -16.4461 H   0  0  0  0  0  0  0  0  0  0  0  0
   10.7856    3.7876  -16.7219 H   0  0  0  0  0  0  0  0  0  0  0  0
    9.6272    3.8207  -18.1366 H   0  0  0  0  0  0  0  0  0  0  0  0
    8.9358    2.9380  -15.2850 H   0  0  0  0  0  0  0  0  0  0  0  0
    7.4480    5.0570  -16.1390 H   0  0  0  0  0  0  0  0  0  0  0  0
   10.9003    4.5894  -14.9847 H   0  0  0  0  0  0  0  0  0  0  0  0
   11.6315    5.4048  -12.7471 H   0  0  0  0  0  0  0  0  0  0  0  0
   10.0216    6.5918  -11.2611 H   0  0  0  0  0  0  0  0  0  0  0  0
    2.7313    7.4808   -9.1262 H   0  0  0  0  0  0  0  0  0  0  0  0
    3.4143    7.6298  -10.7985 H   0  0  0  0  0  0  0  0  0  0  0  0
    6.9757    6.2524  -14.3094 H   0  0  0  0  0  0  0  0  0  0  0  0
    6.6654    2.7745  -16.1290 H   0  0  0  0  0  0  0  0  0  0  0  0
    7.2556    3.2424  -17.7947 H   0  0  0  0  0  0  0  0  0  0  0  0
    5.7449    0.3909  -17.3946 H   0  0  0  0  0  0  0  0  0  0  0  0
    6.1812    1.5533  -18.6928 H   0  0  0  0  0  0  0  0  0  0  0  0
    6.8856   -0.0992  -18.6928 H   0  0  0  0  0  0  0  0  0  0  0  0
    7.7454    1.0294  -15.0455 H   0  0  0  0  0  0  0  0  0  0  0  0
    6.8864   -0.2847  -15.9185 H   0  0  0  0  0  0  0  0  0  0  0  0
    8.6818   -0.2307  -15.9185 H   0  0  0  0  0  0  0  0  0  0  0  0
    9.2941    0.0183  -18.0561 H   0  0  0  0  0  0  0  0  0  0  0  0
    8.7881    1.5210  -19.0244 H   0  0  0  0  0  0  0  0  0  0  0  0
  1  2  1  0
  2  3  1  0
  2  4  1  0
  4  5  1  0
  5  6  1  0
  6  7  1  0
  7  8  2  0
  8  9  1  0
  9 10  2  0
 10 11  1  0
 11 12  1  0
 12 13  1  0
 13 14  1  0
 14 15  1  0
 15 16  2  0
 15 17  1  0
 14 18  2  0
 18 19  1  0
 19 20  1  0
 20 21  1  0
 21 22  2  0
 21 23  1  0
 18 24  1  0
 24 25  1  0
 11 26  2  0
  5 27  1  0
 27 28  1  0
 28 29  1  0
 28 30  1  0
 28 31  1  0
 31  2  1  0
 26  7  1  0
 24 12  2  0
  1 32  1  0
  1 33  1  0
  1 34  1  0
  3 35  1  0
  3 36  1  0
  3 37  1  0
  4 38  1  0
  4 39  1  0
  5 40  1  0
  6 41  1  0
  8 42  1  0
  9 43  1  0
 10 44  1  0
 20 45  1  0
 20 46  1  0
 26 47  1  0
 27 48  1  0
 27 49  1  0
 29 50  1  0
 29 51  1  0
 29 52  1  0
 30 53  1  0
 30 54  1  0
 30 55  1  0
 31 56  1  0
 31 57  1  0
M  CHG  2  17  -1  23  -1
M  END
>  <meeko>  (9) 
{"is_sidechain": [false], "free_energy": -6.083, "intermolecular_energy": -8.735, "internal_energy": -1.161}

$$$$
