
     RDKit          3D

 31 32  0  0  0  0  0  0  0  0999 V2000
    6.7850    3.1420    3.7830 C   0  0  0  0  0  0  0  0  0  0  0  0
    5.9700    3.8410    2.7080 C   0  0  0  0  0  0  0  0  0  0  0  0
    5.2470    3.2380    1.9680 O   0  0  0  0  0  0  0  0  0  0  0  0
    6.1160    5.2030    2.6360 N   0  0  0  0  0  0  0  0  0  0  0  0
    5.5060    6.0530    1.6990 C   0  0  0  0  0  0  0  0  0  0  0  0
    6.2830    7.0560    1.1560 C   0  0  0  0  0  0  0  0  0  0  0  0
    5.7340    7.9370    0.2160 C   0  0  0  0  0  0  0  0  0  0  0  0
    4.4110    7.8060   -0.1670 C   0  0  0  0  0  0  0  0  0  0  0  0
    3.8980    8.6920   -1.0970 O   0  0  0  0  0  0  0  0  0  0  0  0
    4.7780    9.3040   -2.0400 C   0  0  0  0  0  0  0  0  0  0  0  0
    3.9300    9.9910   -3.1160 C   0  0  2  0  0  0  0  0  0  0  0  0
    4.7780   10.3470   -4.3420 C   0  0  0  0  0  0  0  0  0  0  0  0
    3.3380   11.1770   -2.6000 O   0  0  0  0  0  0  0  0  0  0  0  0
    2.8230    9.0090   -3.5260 C   0  0  0  0  0  0  0  0  0  0  0  0
    3.0880    8.0060   -4.1430 O   0  0  0  0  0  0  0  0  0  0  0  0
    1.5640    9.3210   -3.0870 N   0  0  0  0  0  0  0  0  0  0  0  0
    0.3940    8.5920   -3.2730 C   0  0  0  0  0  0  0  0  0  0  0  0
   -0.7570    9.1230   -2.7210 C   0  0  0  0  0  0  0  0  0  0  0  0
   -1.9540    8.4430   -2.8450 C   0  0  0  0  0  0  0  0  0  0  0  0
   -2.0060    7.2280   -3.5210 C   0  0  0  0  0  0  0  0  0  0  0  0
   -3.2710    6.5870   -3.6000 N   0  0  0  0  0  0  0  0  0  0  0  0
   -4.3160    7.2570   -3.3140 O   0  0  0  0  0  0  0  0  0  0  0  0
   -3.3850    5.3630   -3.9130 O   0  0  0  0  0  0  0  0  0  0  0  0
   -0.8250    6.6730   -4.1020 C   0  0  0  0  0  0  0  0  0  0  0  0
   -0.7650    5.3570   -4.8380 C   0  0  2  0  0  0  0  0  0  0  0  0
   -0.4440    4.3500   -3.9900 F   0  0  0  0  0  0  0  0  0  0  0  0
    0.1560    5.3930   -5.8140 F   0  0  0  0  0  0  0  0  0  0  0  0
   -1.9280    5.0100   -5.4230 F   0  0  0  0  0  0  0  0  0  0  0  0
    0.3690    7.3790   -3.9590 C   0  0  0  0  0  0  0  0  0  0  0  0
    3.6060    6.8060    0.3940 C   0  0  0  0  0  0  0  0  0  0  0  0
    4.1490    5.9230    1.3200 C   0  0  0  0  0  0  0  0  0  0  0  0
  2  1  1  0
  3  2  2  0
  4  2  1  0
  5  4  1  0
  6  5  2  0
  7  6  1  0
  8  7  2  0
  9  8  1  0
 10  9  1  0
 11 10  1  0
 11 12  1  6
 13 11  1  0
 14 11  1  0
 15 14  2  0
 16 14  1  0
 17 16  1  0
 18 17  2  0
 19 18  1  0
 20 19  2  0
 21 20  1  0
 22 21  2  0
 23 21  1  0
 24 20  1  0
 25 24  1  0
 25 26  1  1
 27 25  1  0
 28 25  1  0
 29 24  2  0
 29 17  1  0
 30  8  1  0
 31 30  2  0
 31  5  1  0
M  CHG  2  21   1  23  -1
M  END
$$$$
