
     RDKit          3D

 40 41  0  0  0  0  0  0  0  0999 V2000
    7.4550    1.0230   -9.9230 C   0  0  0  0  0  0  0  0  0  0  0  0
    7.4740    1.2660   -8.5340 O   0  0  0  0  0  0  0  0  0  0  0  0
    6.7700    2.3790   -8.1070 C   0  0  0  0  0  0  0  0  0  0  0  0
    7.4290    3.5260   -7.7270 C   0  0  0  0  0  0  0  0  0  0  0  0
    8.9280    3.6070   -7.7540 C   0  0  0  0  0  0  0  0  0  0  0  0
    9.5940    3.1750   -6.3780 C   0  0  1  0  0  0  0  0  0  0  0  0
    9.0390    3.8910   -5.1770 C   0  0  0  0  0  0  0  0  0  0  0  0
    9.4960    1.6350   -6.2140 C   0  0  0  0  0  0  0  0  0  0  0  0
    9.8540    1.0450   -4.8470 C   0  0  2  0  0  0  0  0  0  0  0  0
   11.1890    1.3940   -4.5430 O   0  0  0  0  0  0  0  0  0  0  0  0
   11.6420    0.9980   -3.2650 C   0  0  0  0  0  0  0  0  0  0  0  0
    9.6990   -0.4880   -4.8500 C   0  0  2  0  0  0  0  0  0  0  0  0
   10.6230   -1.0310   -5.7790 O   0  0  0  0  0  0  0  0  0  0  0  0
    8.2620   -0.9630   -5.1530 C   0  0  1  0  0  0  0  0  0  0  0  0
    8.2110   -2.4770   -5.3140 C   0  0  0  0  0  0  0  0  0  0  0  0
    7.3230   -0.5580   -4.0490 C   0  0  0  0  0  0  0  0  0  0  0  0
    5.9870   -0.3080   -4.2270 C   0  0  0  0  0  0  0  0  0  0  0  0
    5.3770   -0.3340   -5.5850 C   0  0  0  0  0  0  0  0  0  0  0  0
    5.1280   -0.0310   -3.0540 C   0  0  2  0  0  0  0  0  0  0  0  0
    4.0640   -0.9310   -2.9980 O   0  0  0  0  0  0  0  0  0  0  0  0
    4.2380   -2.1660   -2.4530 C   0  0  0  0  0  0  0  0  0  0  0  0
    3.1240   -2.9170   -2.3790 N   0  0  0  0  0  0  0  0  0  0  0  0
    5.3030   -2.5580   -2.0440 O   0  0  0  0  0  0  0  0  0  0  0  0
    4.5000    1.3660   -3.0690 C   0  0  1  0  0  0  0  0  0  0  0  0
    3.6360    1.5310   -1.9520 O   0  0  0  0  0  0  0  0  0  0  0  0
    4.1600    1.2340   -0.6650 C   0  0  0  0  0  0  0  0  0  0  0  0
    5.4780    2.4890   -3.1600 C   0  0  0  0  0  0  0  0  0  0  0  0
    5.0070    3.6700   -3.6830 C   0  0  0  0  0  0  0  0  0  0  0  0
    5.8680    4.8290   -3.7820 C   0  0  0  0  0  0  0  0  0  0  0  0
    5.4580    6.0500   -4.3230 C   0  0  0  0  0  0  0  0  0  0  0  0
    6.0300    7.3080   -3.8360 C   0  0  0  0  0  0  0  0  0  0  0  0
    4.3980    6.1340   -5.3820 C   0  0  0  0  0  0  0  0  0  0  0  0
    3.4490    6.8540   -5.1940 O   0  0  0  0  0  0  0  0  0  0  0  0
    4.4830    5.5650   -6.6290 N   0  0  0  0  0  0  0  0  0  0  0  0
    5.2580    4.5420   -7.1650 C   0  0  0  0  0  0  0  0  0  0  0  0
    4.6250    3.4090   -7.5840 C   0  0  0  0  0  0  0  0  0  0  0  0
    5.3510    2.3110   -8.0670 C   0  0  0  0  0  0  0  0  0  0  0  0
    4.7350    1.2870   -8.4170 O   0  0  0  0  0  0  0  0  0  0  0  0
    6.6950    4.6580   -7.2790 C   0  0  0  0  0  0  0  0  0  0  0  0
    7.2760    5.7150   -6.9600 O   0  0  0  0  0  0  0  0  0  0  0  0
  2  1  1  0
  3  2  1  0
  4  3  2  0
  5  4  1  0
  6  5  1  0
  6  7  1  1
  8  6  1  0
  9  8  1  0
  9 10  1  6
 11 10  1  0
 12  9  1  0
 12 13  1  6
 14 12  1  0
 14 15  1  1
 16 14  1  0
 17 16  2  3
 18 17  1  0
 19 17  1  0
 19 20  1  6
 21 20  1  0
 22 21  1  0
 23 21  2  0
 24 19  1  0
 24 25  1  1
 26 25  1  0
 27 24  1  0
 28 27  2  3
 29 28  1  0
 30 29  2  3
 31 30  1  0
 32 30  1  0
 33 32  2  0
 34 32  1  0
 35 34  1  0
 36 35  2  0
 37 36  1  0
 37  3  1  0
 38 37  2  0
 39 35  1  0
 39  4  1  0
 40 39  2  0
M  END
$$$$
