
     RDKit          3D

 17 19  0  0  0  0  0  0  0  0999 V2000
   -5.5140   12.1650   -6.3000 C   0  0  0  0  0  0  0  0  0  0  0  0
   -4.5330   11.1230   -6.8880 C   0  0  1  0  0  0  0  0  0  0  0  0
   -4.1560   10.0640   -5.8300 C   0  0  0  0  0  0  0  0  0  0  0  0
   -3.5670   10.4120   -4.8050 O   0  0  0  0  0  0  0  0  0  0  0  0
   -4.3980    8.8820   -6.0530 O   0  0  0  0  0  0  0  0  0  0  0  0
   -5.0750   10.5010   -8.1120 N   0  0  0  0  0  0  0  0  0  0  0  0
   -6.3520    9.9570   -8.2850 C   0  0  0  0  0  0  0  0  0  0  0  0
   -7.2230    9.9470   -7.4430 O   0  0  0  0  0  0  0  0  0  0  0  0
   -6.4720    9.3530   -9.6810 C   0  0  1  0  0  0  0  0  0  0  0  0
   -7.5110   10.0360  -10.6130 C   0  0  1  0  0  0  0  0  0  0  0  0
   -7.4430   11.5460  -10.4830 C   0  0  0  0  0  0  0  0  0  0  0  0
   -6.0820   11.9210  -11.0700 C   0  0  0  0  0  0  0  0  0  0  0  0
   -5.5280   10.5730  -11.5470 C   0  0  2  0  0  0  0  0  0  0  0  0
   -6.8270    9.8520  -12.0010 C   0  0  0  0  0  0  0  0  0  0  0  0
   -5.1220    9.6780  -10.3490 C   0  0  1  0  0  0  0  0  0  0  0  0
   -4.3320   10.3820   -9.2770 C   0  0  0  0  0  0  0  0  0  0  0  0
   -3.2050   10.7840   -9.4000 O   0  0  0  0  0  0  0  0  0  0  0  0
  2  1  1  1
  3  2  1  0
  4  3  1  0
  5  3  2  0
  6  2  1  0
  7  6  1  0
  8  7  2  0
  9  7  1  1
 10  9  1  0
 10 11  1  1
 12 11  1  0
 13 12  1  1
 14 13  1  0
 14 10  1  0
 15 13  1  0
 15  9  1  0
 15 16  1  1
 16  6  1  0
 17 16  2  0
M  CHG  1   4  -1
M  END
$$$$
