2zcq_ligand
     RDKit          3D

 42 43  0  0  0  0  0  0  0  0999 V2000
   -1.3050   -2.4200    1.4420 O   0  0  0  0  0  0  0  0  0  0  0  0
   -2.2870   -1.3840    0.9160 P   0  0  1  0  0  5  0  0  0  0  0  0
   -2.0750   -0.8390   -0.4740 O   0  0  0  0  0  0  0  0  0  0  0  0
   -3.7420   -2.1050    0.9440 O   0  0  0  0  0  0  0  0  0  0  0  0
   -2.3980   -0.1180    2.1840 C   0  0  1  0  0  0  0  0  0  0  0  0
   -2.2190    1.3430    1.7510 C   0  0  0  0  0  0  0  0  0  0  0  0
   -1.0260    2.1190    2.3200 C   0  0  0  0  0  0  0  0  0  0  0  0
    0.2930    1.3460    2.3740 C   0  0  0  0  0  0  0  0  0  0  0  0
    0.9620    1.3440    1.0170 C   0  0  0  0  0  0  0  0  0  0  0  0
    1.1990    0.1480    0.3250 C   0  0  0  0  0  0  0  0  0  0  0  0
    1.7530    0.1720   -0.9580 C   0  0  0  0  0  0  0  0  0  0  0  0
    2.0570    1.3900   -1.5650 C   0  0  0  0  0  0  0  0  0  0  0  0
    1.8060    2.5820   -0.8830 C   0  0  0  0  0  0  0  0  0  0  0  0
    2.1270    3.7820   -1.4750 O   0  0  0  0  0  0  0  0  0  0  0  0
    3.2420    4.4030   -0.9530 C   0  0  0  0  0  0  0  0  0  0  0  0
    3.2320    5.7980   -0.8930 C   0  0  0  0  0  0  0  0  0  0  0  0
    4.3480    6.4820   -0.4060 C   0  0  0  0  0  0  0  0  0  0  0  0
    5.4770    5.7720    0.0040 C   0  0  0  0  0  0  0  0  0  0  0  0
    5.4940    4.3780   -0.0810 C   0  0  0  0  0  0  0  0  0  0  0  0
    4.3800    3.6930   -0.5660 C   0  0  0  0  0  0  0  0  0  0  0  0
    1.2890    2.5640    0.4100 C   0  0  0  0  0  0  0  0  0  0  0  0
   -3.7570   -0.3850    3.2840 S   0  0  0  0  0  0  0  0  0  0  0  0
   -4.9710   -0.2450    2.4740 O   0  0  0  0  0  0  0  0  0  0  0  0
   -3.6330    0.5740    4.3770 O   0  0  0  0  0  0  0  0  0  0  0  0
   -3.5430   -1.7700    3.7330 O   0  0  0  0  0  0  0  0  0  0  0  0
   -3.8410   -2.5690    1.8190 H   0  0  0  0  0  0  0  0  0  0  0  0
   -1.4725   -0.2687    2.7591 H   0  0  0  0  0  0  0  0  0  0  0  0
   -2.1219    1.3503    0.6553 H   0  0  0  0  0  0  0  0  0  0  0  0
   -3.1020    1.8602    2.1544 H   0  0  0  0  0  0  0  0  0  0  0  0
   -0.8716    3.0107    1.6947 H   0  0  0  0  0  0  0  0  0  0  0  0
   -1.2848    2.3509    3.3637 H   0  0  0  0  0  0  0  0  0  0  0  0
    0.9616    1.8217    3.1065 H   0  0  0  0  0  0  0  0  0  0  0  0
    0.0846    0.3071    2.6694 H   0  0  0  0  0  0  0  0  0  0  0  0
    0.9476   -0.8146    0.7943 H   0  0  0  0  0  0  0  0  0  0  0  0
    1.9494   -0.7709   -1.4894 H   0  0  0  0  0  0  0  0  0  0  0  0
    2.4920    1.4115   -2.5751 H   0  0  0  0  0  0  0  0  0  0  0  0
    2.3464    6.3574   -1.2288 H   0  0  0  0  0  0  0  0  0  0  0  0
    4.3369    7.5803   -0.3457 H   0  0  0  0  0  0  0  0  0  0  0  0
    6.3535    6.3101    0.3941 H   0  0  0  0  0  0  0  0  0  0  0  0
    6.3874    3.8194    0.2351 H   0  0  0  0  0  0  0  0  0  0  0  0
    4.3981    2.5959   -0.6434 H   0  0  0  0  0  0  0  0  0  0  0  0
    1.1373    3.5075    0.9548 H   0  0  0  0  0  0  0  0  0  0  0  0
  1  2  2  0
  2  3  1  6
  2  4  1  0
  2  5  1  0
  5  6  1  0
  6  7  1  0
  7  8  1  0
  8  9  1  0
  9 10  2  0
 10 11  1  0
 11 12  2  0
 12 13  1  0
 13 14  1  0
 14 15  1  0
 15 16  2  0
 16 17  1  0
 17 18  2  0
 18 19  1  0
 19 20  2  0
 13 21  2  0
  5 22  1  0
 22 23  2  0
 22 24  2  0
 22 25  1  0
 21  9  1  0
 20 15  1  0
  4 26  1  0
  5 27  1  1
  6 28  1  0
  6 29  1  0
  7 30  1  0
  7 31  1  0
  8 32  1  0
  8 33  1  0
 10 34  1  0
 11 35  1  0
 12 36  1  0
 16 37  1  0
 17 38  1  0
 18 39  1  0
 19 40  1  0
 20 41  1  0
 21 42  1  0
M  CHG  2   3  -1  25  -1
M  END
>  <meeko>  (1) 
{"is_sidechain": [false], "free_energy": -8.364, "intermolecular_energy": -12.52, "internal_energy": -1.5}

$$$$
2zcq_ligand
     RDKit          3D

 42 43  0  0  0  0  0  0  0  0999 V2000
   -4.4440    1.2400    0.5570 O   0  0  0  0  0  0  0  0  0  0  0  0
   -4.2650   -0.1430    1.1630 P   0  0  1  0  0  5  0  0  0  0  0  0
   -5.0760   -0.5000    2.3840 O   0  0  0  0  0  0  0  0  0  0  0  0
   -4.6600   -1.1920   -0.0120 O   0  0  0  0  0  0  0  0  0  0  0  0
   -2.4960   -0.3660    1.3750 C   0  0  1  0  0  0  0  0  0  0  0  0
   -1.8130    0.3940    2.5210 C   0  0  0  0  0  0  0  0  0  0  0  0
   -1.2500    1.7870    2.2210 C   0  0  0  0  0  0  0  0  0  0  0  0
    0.2660    1.9270    2.3630 C   0  0  0  0  0  0  0  0  0  0  0  0
    0.9440    1.7330    1.0240 C   0  0  0  0  0  0  0  0  0  0  0  0
    1.0490    0.4640    0.4390 C   0  0  0  0  0  0  0  0  0  0  0  0
    1.6130    0.3150   -0.8310 C   0  0  0  0  0  0  0  0  0  0  0  0
    2.0620    1.4340   -1.5310 C   0  0  0  0  0  0  0  0  0  0  0  0
    1.9430    2.7010   -0.9560 C   0  0  0  0  0  0  0  0  0  0  0  0
    2.4050    3.8020   -1.6400 O   0  0  0  0  0  0  0  0  0  0  0  0
    3.4490    4.4640   -1.0290 C   0  0  0  0  0  0  0  0  0  0  0  0
    3.3400    5.8490   -0.8930 C   0  0  0  0  0  0  0  0  0  0  0  0
    4.3820    6.5770   -0.3140 C   0  0  0  0  0  0  0  0  0  0  0  0
    5.5370    5.9200    0.1130 C   0  0  0  0  0  0  0  0  0  0  0  0
    5.6540    4.5380   -0.0460 C   0  0  0  0  0  0  0  0  0  0  0  0
    4.6140    3.8090   -0.6240 C   0  0  0  0  0  0  0  0  0  0  0  0
    1.4150    2.8520    0.3240 C   0  0  0  0  0  0  0  0  0  0  0  0
   -2.0110   -2.0620    1.2430 S   0  0  0  0  0  0  0  0  0  0  0  0
   -3.1140   -2.8470    1.8080 O   0  0  0  0  0  0  0  0  0  0  0  0
   -0.7350   -2.2100    1.9360 O   0  0  0  0  0  0  0  0  0  0  0  0
   -1.8800   -2.2490   -0.2100 O   0  0  0  0  0  0  0  0  0  0  0  0
   -5.4100   -0.8000   -0.5370 H   0  0  0  0  0  0  0  0  0  0  0  0
   -2.0789    0.1661    0.5073 H   0  0  0  0  0  0  0  0  0  0  0  0
   -2.5533    0.5063    3.3268 H   0  0  0  0  0  0  0  0  0  0  0  0
   -0.9299   -0.2136    2.7677 H   0  0  0  0  0  0  0  0  0  0  0  0
   -1.5192    2.0461    1.1864 H   0  0  0  0  0  0  0  0  0  0  0  0
   -1.6879    2.4591    2.9737 H   0  0  0  0  0  0  0  0  0  0  0  0
    0.5025    2.9305    2.7465 H   0  0  0  0  0  0  0  0  0  0  0  0
    0.6304    1.1587    3.0609 H   0  0  0  0  0  0  0  0  0  0  0  0
    0.6853   -0.4203    0.9827 H   0  0  0  0  0  0  0  0  0  0  0  0
    1.7027   -0.6858   -1.2786 H   0  0  0  0  0  0  0  0  0  0  0  0
    2.5073    1.3195   -2.5303 H   0  0  0  0  0  0  0  0  0  0  0  0
    2.4342    6.3667   -1.2415 H   0  0  0  0  0  0  0  0  0  0  0  0
    4.2924    7.6668   -0.1947 H   0  0  0  0  0  0  0  0  0  0  0  0
    6.3555    6.4914    0.5751 H   0  0  0  0  0  0  0  0  0  0  0  0
    6.5678    4.0228    0.2850 H   0  0  0  0  0  0  0  0  0  0  0  0
    4.7115    2.7218   -0.7602 H   0  0  0  0  0  0  0  0  0  0  0  0
    1.3677    3.8494    0.7854 H   0  0  0  0  0  0  0  0  0  0  0  0
  1  2  2  0
  2  3  1  1
  2  4  1  0
  2  5  1  0
  5  6  1  0
  6  7  1  0
  7  8  1  0
  8  9  1  0
  9 10  2  0
 10 11  1  0
 11 12  2  0
 12 13  1  0
 13 14  1  0
 14 15  1  0
 15 16  2  0
 16 17  1  0
 17 18  2  0
 18 19  1  0
 19 20  2  0
 13 21  2  0
  5 22  1  0
 22 23  2  0
 22 24  2  0
 22 25  1  0
 21  9  1  0
 20 15  1  0
  4 26  1  0
  5 27  1  6
  6 28  1  0
  6 29  1  0
  7 30  1  0
  7 31  1  0
  8 32  1  0
  8 33  1  0
 10 34  1  0
 11 35  1  0
 12 36  1  0
 16 37  1  0
 17 38  1  0
 18 39  1  0
 19 40  1  0
 20 41  1  0
 21 42  1  0
M  CHG  2   3  -1  25  -1
M  END
>  <meeko>  (2) 
{"is_sidechain": [false], "free_energy": -8.107, "intermolecular_energy": -12.21, "internal_energy": -1.425}

$$$$
2zcq_ligand
     RDKit          3D

 42 43  0  0  0  0  0  0  0  0999 V2000
   -3.7020    0.4660    4.2190 O   0  0  0  0  0  0  0  0  0  0  0  0
   -3.4400   -0.7240    3.3080 P   0  0  1  0  0  5  0  0  0  0  0  0
   -2.6160   -1.8680    3.8440 O   0  0  0  0  0  0  0  0  0  0  0  0
   -4.9040   -1.3120    2.9240 O   0  0  0  0  0  0  0  0  0  0  0  0
   -2.8210   -0.0420    1.7670 C   0  0  1  0  0  0  0  0  0  0  0  0
   -1.9300    1.2050    1.8450 C   0  0  0  0  0  0  0  0  0  0  0  0
   -0.5150    1.0400    2.4090 C   0  0  0  0  0  0  0  0  0  0  0  0
    0.4340    2.2120    2.1560 C   0  0  0  0  0  0  0  0  0  0  0  0
    1.1350    2.0490    0.8240 C   0  0  0  0  0  0  0  0  0  0  0  0
    1.2490    0.7940    0.2110 C   0  0  0  0  0  0  0  0  0  0  0  0
    1.8350    0.6740   -1.0520 C   0  0  0  0  0  0  0  0  0  0  0  0
    2.2960    1.8090   -1.7180 C   0  0  0  0  0  0  0  0  0  0  0  0
    2.1680    3.0620   -1.1150 C   0  0  0  0  0  0  0  0  0  0  0  0
    2.6430    4.1790   -1.7650 O   0  0  0  0  0  0  0  0  0  0  0  0
    3.7040    4.8010   -1.1420 C   0  0  0  0  0  0  0  0  0  0  0  0
    4.6700    3.9850   -0.5500 C   0  0  0  0  0  0  0  0  0  0  0  0
    5.7490    4.5600    0.1240 C   0  0  0  0  0  0  0  0  0  0  0  0
    5.8520    5.9490    0.2190 C   0  0  0  0  0  0  0  0  0  0  0  0
    4.8720    6.7620   -0.3530 C   0  0  0  0  0  0  0  0  0  0  0  0
    3.7940    6.1900   -1.0280 C   0  0  0  0  0  0  0  0  0  0  0  0
    1.6190    3.1840    0.1590 C   0  0  0  0  0  0  0  0  0  0  0  0
   -2.2180   -1.2930    0.6720 S   0  0  0  0  0  0  0  0  0  0  0  0
   -3.3310   -2.2270    0.4680 O   0  0  0  0  0  0  0  0  0  0  0  0
   -1.0300   -1.8790    1.2860 O   0  0  0  0  0  0  0  0  0  0  0  0
   -1.8980   -0.5320   -0.5440 O   0  0  0  0  0  0  0  0  0  0  0  0
   -5.2440   -0.8070    2.1360 H   0  0  0  0  0  0  0  0  0  0  0  0
   -3.7253    0.3886    1.3123 H   0  0  0  0  0  0  0  0  0  0  0  0
   -1.8316    1.6019    0.8238 H   0  0  0  0  0  0  0  0  0  0  0  0
   -2.4389    1.8635    2.5642 H   0  0  0  0  0  0  0  0  0  0  0  0
   -0.5978    0.8994    3.4968 H   0  0  0  0  0  0  0  0  0  0  0  0
   -0.0783    0.1782    1.8831 H   0  0  0  0  0  0  0  0  0  0  0  0
   -0.1419    3.1492    2.1496 H   0  0  0  0  0  0  0  0  0  0  0  0
    1.1897    2.2366    2.9549 H   0  0  0  0  0  0  0  0  0  0  0  0
    0.8748   -0.1024    0.7273 H   0  0  0  0  0  0  0  0  0  0  0  0
    1.9326   -0.3162   -1.5209 H   0  0  0  0  0  0  0  0  0  0  0  0
    2.7577    1.7179   -2.7123 H   0  0  0  0  0  0  0  0  0  0  0  0
    4.5810    2.8905   -0.6146 H   0  0  0  0  0  0  0  0  0  0  0  0
    6.5177    3.9188    0.5800 H   0  0  0  0  0  0  0  0  0  0  0  0
    6.7052    6.4027    0.7445 H   0  0  0  0  0  0  0  0  0  0  0  0
    4.9502    7.8562   -0.2712 H   0  0  0  0  0  0  0  0  0  0  0  0
    3.0167    6.8311   -1.4694 H   0  0  0  0  0  0  0  0  0  0  0  0
    1.5652    4.1703    0.6431 H   0  0  0  0  0  0  0  0  0  0  0  0
  1  2  2  0
  2  3  1  1
  2  4  1  0
  2  5  1  0
  5  6  1  0
  6  7  1  0
  7  8  1  0
  8  9  1  0
  9 10  2  0
 10 11  1  0
 11 12  2  0
 12 13  1  0
 13 14  1  0
 14 15  1  0
 15 16  2  0
 16 17  1  0
 17 18  2  0
 18 19  1  0
 19 20  2  0
 13 21  2  0
  5 22  1  0
 22 23  2  0
 22 24  2  0
 22 25  1  0
 21  9  1  0
 20 15  1  0
  4 26  1  0
  5 27  1  6
  6 28  1  0
  6 29  1  0
  7 30  1  0
  7 31  1  0
  8 32  1  0
  8 33  1  0
 10 34  1  0
 11 35  1  0
 12 36  1  0
 16 37  1  0
 17 38  1  0
 18 39  1  0
 19 40  1  0
 20 41  1  0
 21 42  1  0
M  CHG  2   3  -1  25  -1
M  END
>  <meeko>  (3) 
{"is_sidechain": [false], "free_energy": -8.026, "intermolecular_energy": -12.675, "internal_energy": -0.839}

$$$$
2zcq_ligand
     RDKit          3D

 42 43  0  0  0  0  0  0  0  0999 V2000
   -2.5900   -1.2960    3.8810 O   0  0  0  0  0  0  0  0  0  0  0  0
   -3.7510   -0.4840    3.3270 P   0  0  1  0  0  5  0  0  0  0  0  0
   -5.0950   -1.1560    3.1960 O   0  0  0  0  0  0  0  0  0  0  0  0
   -3.9270    0.7740    4.3370 O   0  0  0  0  0  0  0  0  0  0  0  0
   -3.1560    0.2540    1.8030 C   0  0  1  0  0  0  0  0  0  0  0  0
   -2.0230    1.2850    1.9040 C   0  0  0  0  0  0  0  0  0  0  0  0
   -0.6110    0.7700    2.2050 C   0  0  0  0  0  0  0  0  0  0  0  0
    0.5020    1.8150    2.1120 C   0  0  0  0  0  0  0  0  0  0  0  0
    1.1670    1.7620    0.7530 C   0  0  0  0  0  0  0  0  0  0  0  0
    1.2870    0.5570    0.0490 C   0  0  0  0  0  0  0  0  0  0  0  0
    1.8380    0.5400   -1.2350 C   0  0  0  0  0  0  0  0  0  0  0  0
    2.2590    1.7290   -1.8300 C   0  0  0  0  0  0  0  0  0  0  0  0
    2.1250    2.9320   -1.1360 C   0  0  0  0  0  0  0  0  0  0  0  0
    2.5590    4.1020   -1.7160 O   0  0  0  0  0  0  0  0  0  0  0  0
    3.6120    4.7120   -1.0670 C   0  0  0  0  0  0  0  0  0  0  0  0
    3.6250    6.1070   -1.0330 C   0  0  0  0  0  0  0  0  0  0  0  0
    4.6850    6.7790   -0.4200 C   0  0  0  0  0  0  0  0  0  0  0  0
    5.7370    6.0560    0.1440 C   0  0  0  0  0  0  0  0  0  0  0  0
    5.7340    4.6610    0.0870 C   0  0  0  0  0  0  0  0  0  0  0  0
    4.6760    3.9870   -0.5250 C   0  0  0  0  0  0  0  0  0  0  0  0
    1.6100    2.9510    0.1580 C   0  0  0  0  0  0  0  0  0  0  0  0
   -2.9330   -0.9410    0.5180 S   0  0  0  0  0  0  0  0  0  0  0  0
   -1.9750   -0.3530   -0.4250 O   0  0  0  0  0  0  0  0  0  0  0  0
   -4.2480   -1.2320   -0.0450 O   0  0  0  0  0  0  0  0  0  0  0  0
   -2.3700   -2.0910    1.2410 O   0  0  0  0  0  0  0  0  0  0  0  0
   -3.4120    1.5420    3.9680 H   0  0  0  0  0  0  0  0  0  0  0  0
   -3.9916    0.9054    1.5073 H   0  0  0  0  0  0  0  0  0  0  0  0
   -1.9793    1.8192    0.9434 H   0  0  0  0  0  0  0  0  0  0  0  0
   -2.2853    1.8992    2.7780 H   0  0  0  0  0  0  0  0  0  0  0  0
   -0.6091    0.3621    3.2266 H   0  0  0  0  0  0  0  0  0  0  0  0
   -0.3897    0.0216    1.4299 H   0  0  0  0  0  0  0  0  0  0  0  0
    0.0725    2.8159    2.2660 H   0  0  0  0  0  0  0  0  0  0  0  0
    1.2551    1.6023    2.8851 H   0  0  0  0  0  0  0  0  0  0  0  0
    0.9454   -0.3816    0.5097 H   0  0  0  0  0  0  0  0  0  0  0  0
    1.9398   -0.4119   -1.7769 H   0  0  0  0  0  0  0  0  0  0  0  0
    2.6940    1.7185   -2.8403 H   0  0  0  0  0  0  0  0  0  0  0  0
    2.8015    6.6767   -1.4884 H   0  0  0  0  0  0  0  0  0  0  0  0
    4.6906    7.8783   -0.3818 H   0  0  0  0  0  0  0  0  0  0  0  0
    6.5682    6.5849    0.6332 H   0  0  0  0  0  0  0  0  0  0  0  0
    6.5671    4.0919    0.5253 H   0  0  0  0  0  0  0  0  0  0  0  0
    4.6800    2.8884   -0.5804 H   0  0  0  0  0  0  0  0  0  0  0  0
    1.5510    3.8990    0.7128 H   0  0  0  0  0  0  0  0  0  0  0  0
  1  2  2  0
  2  3  1  6
  2  4  1  0
  2  5  1  0
  5  6  1  0
  6  7  1  0
  7  8  1  0
  8  9  1  0
  9 10  2  0
 10 11  1  0
 11 12  2  0
 12 13  1  0
 13 14  1  0
 14 15  1  0
 15 16  2  0
 16 17  1  0
 17 18  2  0
 18 19  1  0
 19 20  2  0
 13 21  2  0
  5 22  1  0
 22 23  2  0
 22 24  2  0
 22 25  1  0
 21  9  1  0
 20 15  1  0
  4 26  1  0
  5 27  1  6
  6 28  1  0
  6 29  1  0
  7 30  1  0
  7 31  1  0
  8 32  1  0
  8 33  1  0
 10 34  1  0
 11 35  1  0
 12 36  1  0
 16 37  1  0
 17 38  1  0
 18 39  1  0
 19 40  1  0
 20 41  1  0
 21 42  1  0
M  CHG  2   3  -1  25  -1
M  END
>  <meeko>  (4) 
{"is_sidechain": [false], "free_energy": -7.885, "intermolecular_energy": -12.893, "internal_energy": -0.41}

$$$$
2zcq_ligand
     RDKit          3D

 42 43  0  0  0  0  0  0  0  0999 V2000
    0.4350   -2.7680    3.6450 O   0  0  0  0  0  0  0  0  0  0  0  0
   -0.9090   -2.6030    2.9530 P   0  0  1  0  0  5  0  0  0  0  0  0
   -1.7060   -3.8430    2.6320 O   0  0  0  0  0  0  0  0  0  0  0  0
   -1.8070   -1.6880    3.9490 O   0  0  0  0  0  0  0  0  0  0  0  0
   -0.6090   -1.5450    1.5330 C   0  0  1  0  0  0  0  0  0  0  0  0
    0.5370   -1.9280    0.5870 C   0  0  0  0  0  0  0  0  0  0  0  0
    1.6890   -0.9320    0.4170 C   0  0  0  0  0  0  0  0  0  0  0  0
    1.6780   -0.1310   -0.8850 C   0  0  0  0  0  0  0  0  0  0  0  0
    1.7350    1.3540   -0.5950 C   0  0  0  0  0  0  0  0  0  0  0  0
    1.1160    1.8980    0.5390 C   0  0  0  0  0  0  0  0  0  0  0  0
    1.2410    3.2590    0.8280 C   0  0  0  0  0  0  0  0  0  0  0  0
    1.9980    4.0830   -0.0040 C   0  0  0  0  0  0  0  0  0  0  0  0
    2.6280    3.5390   -1.1240 C   0  0  0  0  0  0  0  0  0  0  0  0
    3.3580    4.3580   -1.9560 O   0  0  0  0  0  0  0  0  0  0  0  0
    4.3220    5.1130   -1.3230 C   0  0  0  0  0  0  0  0  0  0  0  0
    5.0950    4.4810   -0.3470 C   0  0  0  0  0  0  0  0  0  0  0  0
    6.0640    5.2050    0.3520 C   0  0  0  0  0  0  0  0  0  0  0  0
    6.2460    6.5630    0.0850 C   0  0  0  0  0  0  0  0  0  0  0  0
    5.4550    7.1980   -0.8730 C   0  0  0  0  0  0  0  0  0  0  0  0
    4.4870    6.4770   -1.5730 C   0  0  0  0  0  0  0  0  0  0  0  0
    2.4780    2.1910   -1.4390 C   0  0  0  0  0  0  0  0  0  0  0  0
   -2.1050   -1.0870    0.7080 S   0  0  0  0  0  0  0  0  0  0  0  0
   -1.7870    0.1090   -0.0800 O   0  0  0  0  0  0  0  0  0  0  0  0
   -3.1300   -0.8940    1.7300 O   0  0  0  0  0  0  0  0  0  0  0  0
   -2.3780   -2.2570   -0.1400 O   0  0  0  0  0  0  0  0  0  0  0  0
   -2.7650   -1.9070    3.7920 H   0  0  0  0  0  0  0  0  0  0  0  0
   -0.1919   -0.6361    1.9912 H   0  0  0  0  0  0  0  0  0  0  0  0
    0.9692   -2.8684    0.9597 H   0  0  0  0  0  0  0  0  0  0  0  0
    0.0686   -1.9806   -0.4069 H   0  0  0  0  0  0  0  0  0  0  0  0
    1.6475   -0.2194    1.2539 H   0  0  0  0  0  0  0  0  0  0  0  0
    2.6090   -1.5345    0.3938 H   0  0  0  0  0  0  0  0  0  0  0  0
    2.5503   -0.4150   -1.4920 H   0  0  0  0  0  0  0  0  0  0  0  0
    0.7484   -0.3514   -1.4302 H   0  0  0  0  0  0  0  0  0  0  0  0
    0.5283    1.2493    1.2052 H   0  0  0  0  0  0  0  0  0  0  0  0
    0.7418    3.6810    1.7127 H   0  0  0  0  0  0  0  0  0  0  0  0
    2.0979    5.1551    0.2211 H   0  0  0  0  0  0  0  0  0  0  0  0
    4.9411    3.4139   -0.1286 H   0  0  0  0  0  0  0  0  0  0  0  0
    6.6829    4.7055    1.1119 H   0  0  0  0  0  0  0  0  0  0  0  0
    7.0132    7.1326    0.6300 H   0  0  0  0  0  0  0  0  0  0  0  0
    5.5949    8.2698   -1.0770 H   0  0  0  0  0  0  0  0  0  0  0  0
    3.8558    6.9814   -2.3194 H   0  0  0  0  0  0  0  0  0  0  0  0
    2.9421    1.7833   -2.3492 H   0  0  0  0  0  0  0  0  0  0  0  0
  1  2  2  0
  2  3  1  6
  2  4  1  0
  2  5  1  0
  5  6  1  0
  6  7  1  0
  7  8  1  0
  8  9  1  0
  9 10  2  0
 10 11  1  0
 11 12  2  0
 12 13  1  0
 13 14  1  0
 14 15  1  0
 15 16  2  0
 16 17  1  0
 17 18  2  0
 18 19  1  0
 19 20  2  0
 13 21  2  0
  5 22  1  0
 22 23  2  0
 22 24  2  0
 22 25  1  0
 21  9  1  0
 20 15  1  0
  4 26  1  0
  5 27  1  1
  6 28  1  0
  6 29  1  0
  7 30  1  0
  7 31  1  0
  8 32  1  0
  8 33  1  0
 10 34  1  0
 11 35  1  0
 12 36  1  0
 16 37  1  0
 17 38  1  0
 18 39  1  0
 19 40  1  0
 20 41  1  0
 21 42  1  0
M  CHG  2   3  -1  25  -1
M  END
>  <meeko>  (5) 
{"is_sidechain": [false], "free_energy": -7.242, "intermolecular_energy": -11.266, "internal_energy": -1.074}

$$$$
2zcq_ligand
     RDKit          3D

 42 43  0  0  0  0  0  0  0  0999 V2000
    0.5190   -1.7830    3.2810 O   0  0  0  0  0  0  0  0  0  0  0  0
   -0.9430   -2.1300    3.0460 P   0  0  1  0  0  5  0  0  0  0  0  0
   -1.2800   -3.1080    1.9480 O   0  0  0  0  0  0  0  0  0  0  0  0
   -1.4740   -2.7610    4.4450 O   0  0  0  0  0  0  0  0  0  0  0  0
   -1.8080   -0.5630    2.9130 C   0  0  1  0  0  0  0  0  0  0  0  0
   -1.1650    0.5380    2.0580 C   0  0  0  0  0  0  0  0  0  0  0  0
    0.1480    1.1540    2.5520 C   0  0  0  0  0  0  0  0  0  0  0  0
    0.4970    2.5200    1.9600 C   0  0  0  0  0  0  0  0  0  0  0  0
    1.2270    2.3560    0.6440 C   0  0  0  0  0  0  0  0  0  0  0  0
    1.2790    1.1170   -0.0100 C   0  0  0  0  0  0  0  0  0  0  0  0
    1.8950    1.0020   -1.2590 C   0  0  0  0  0  0  0  0  0  0  0  0
    2.4480    2.1260   -1.8700 C   0  0  0  0  0  0  0  0  0  0  0  0
    2.3820    3.3640   -1.2280 C   0  0  0  0  0  0  0  0  0  0  0  0
    2.9470    4.4680   -1.8240 O   0  0  0  0  0  0  0  0  0  0  0  0
    3.9970    5.0270   -1.1260 C   0  0  0  0  0  0  0  0  0  0  0  0
    4.1710    6.4090   -1.2230 C   0  0  0  0  0  0  0  0  0  0  0  0
    5.2370    7.0250   -0.5660 C   0  0  0  0  0  0  0  0  0  0  0  0
    6.1380    6.2560    0.1740 C   0  0  0  0  0  0  0  0  0  0  0  0
    5.9770    4.8720    0.2490 C   0  0  0  0  0  0  0  0  0  0  0  0
    4.9110    4.2540   -0.4060 C   0  0  0  0  0  0  0  0  0  0  0  0
    1.8020    3.4780    0.0330 C   0  0  0  0  0  0  0  0  0  0  0  0
   -3.5420   -0.7730    2.6340 S   0  0  0  0  0  0  0  0  0  0  0  0
   -3.9450   -1.9360    3.4320 O   0  0  0  0  0  0  0  0  0  0  0  0
   -3.7420   -0.9160    1.1950 O   0  0  0  0  0  0  0  0  0  0  0  0
   -4.1080    0.4810    3.1520 O   0  0  0  0  0  0  0  0  0  0  0  0
   -1.9070   -2.0330    4.9680 H   0  0  0  0  0  0  0  0  0  0  0  0
   -1.6833   -0.1324    3.9175 H   0  0  0  0  0  0  0  0  0  0  0  0
   -0.9722    0.1098    1.0633 H   0  0  0  0  0  0  0  0  0  0  0  0
   -1.8871    1.3673    2.0873 H   0  0  0  0  0  0  0  0  0  0  0  0
    0.0806    1.2651    3.6443 H   0  0  0  0  0  0  0  0  0  0  0  0
    0.9449    0.4700    2.2247 H   0  0  0  0  0  0  0  0  0  0  0  0
   -0.4292    3.0891    1.7918 H   0  0  0  0  0  0  0  0  0  0  0  0
    1.1492    3.0572    2.6644 H   0  0  0  0  0  0  0  0  0  0  0  0
    0.8322    0.2300    0.4629 H   0  0  0  0  0  0  0  0  0  0  0  0
    1.9435    0.0240   -1.7602 H   0  0  0  0  0  0  0  0  0  0  0  0
    2.9339    2.0382   -2.8529 H   0  0  0  0  0  0  0  0  0  0  0  0
    3.4682    7.0118   -1.8169 H   0  0  0  0  0  0  0  0  0  0  0  0
    5.3676    8.1153   -0.6309 H   0  0  0  0  0  0  0  0  0  0  0  0
    6.9747    6.7415    0.6978 H   0  0  0  0  0  0  0  0  0  0  0  0
    6.6919    4.2668    0.8257 H   0  0  0  0  0  0  0  0  0  0  0  0
    4.7908    3.1617   -0.3555 H   0  0  0  0  0  0  0  0  0  0  0  0
    1.7953    4.4492    0.5494 H   0  0  0  0  0  0  0  0  0  0  0  0
  1  2  2  0
  2  3  1  6
  2  4  1  0
  2  5  1  0
  5  6  1  0
  6  7  1  0
  7  8  1  0
  8  9  1  0
  9 10  2  0
 10 11  1  0
 11 12  2  0
 12 13  1  0
 13 14  1  0
 14 15  1  0
 15 16  2  0
 16 17  1  0
 17 18  2  0
 18 19  1  0
 19 20  2  0
 13 21  2  0
  5 22  1  0
 22 23  2  0
 22 24  2  0
 22 25  1  0
 21  9  1  0
 20 15  1  0
  4 26  1  0
  5 27  1  1
  6 28  1  0
  6 29  1  0
  7 30  1  0
  7 31  1  0
  8 32  1  0
  8 33  1  0
 10 34  1  0
 11 35  1  0
 12 36  1  0
 16 37  1  0
 17 38  1  0
 18 39  1  0
 19 40  1  0
 20 41  1  0
 21 42  1  0
M  CHG  2   3  -1  25  -1
M  END
>  <meeko>  (6) 
{"is_sidechain": [false], "free_energy": -7.214, "intermolecular_energy": -11.858, "internal_energy": -0.44}

$$$$
2zcq_ligand
     RDKit          3D

 42 43  0  0  0  0  0  0  0  0999 V2000
   -3.1850   -3.7420    1.8770 O   0  0  0  0  0  0  0  0  0  0  0  0
   -2.6180   -2.5620    1.1040 P   0  0  1  0  0  5  0  0  0  0  0  0
   -1.3480   -2.7660    0.3160 O   0  0  0  0  0  0  0  0  0  0  0  0
   -3.7800   -2.1240    0.0580 O   0  0  0  0  0  0  0  0  0  0  0  0
   -2.5390   -1.1990    2.2700 C   0  0  1  0  0  0  0  0  0  0  0  0
   -1.3900   -1.1970    3.2890 C   0  0  0  0  0  0  0  0  0  0  0  0
    0.0420   -1.2930    2.7540 C   0  0  0  0  0  0  0  0  0  0  0  0
    0.7770    0.0390    2.6000 C   0  0  0  0  0  0  0  0  0  0  0  0
    1.2090    0.2440    1.1640 C   0  0  0  0  0  0  0  0  0  0  0  0
    1.6250   -0.8320    0.3690 C   0  0  0  0  0  0  0  0  0  0  0  0
    1.9510   -0.6340   -0.9750 C   0  0  0  0  0  0  0  0  0  0  0  0
    1.8470    0.6370   -1.5380 C   0  0  0  0  0  0  0  0  0  0  0  0
    1.4170    1.7070   -0.7520 C   0  0  0  0  0  0  0  0  0  0  0  0
    1.3350    2.9650   -1.3040 O   0  0  0  0  0  0  0  0  0  0  0  0
    2.4260    3.7730   -1.0620 C   0  0  0  0  0  0  0  0  0  0  0  0
    3.6750    3.3100   -1.4780 C   0  0  0  0  0  0  0  0  0  0  0  0
    4.8190    4.0700   -1.2290 C   0  0  0  0  0  0  0  0  0  0  0  0
    4.7140    5.2850   -0.5510 C   0  0  0  0  0  0  0  0  0  0  0  0
    3.4680    5.7350   -0.1130 C   0  0  0  0  0  0  0  0  0  0  0  0
    2.3230    4.9770   -0.3620 C   0  0  0  0  0  0  0  0  0  0  0  0
    1.1260    1.5230    0.5980 C   0  0  0  0  0  0  0  0  0  0  0  0
   -2.8190    0.3660    1.4950 S   0  0  0  0  0  0  0  0  0  0  0  0
   -2.1300    0.3100    0.2010 O   0  0  0  0  0  0  0  0  0  0  0  0
   -2.3340    1.4000    2.4040 O   0  0  0  0  0  0  0  0  0  0  0  0
   -4.2820    0.3970    1.3470 O   0  0  0  0  0  0  0  0  0  0  0  0
   -4.1070   -1.2210    0.3180 H   0  0  0  0  0  0  0  0  0  0  0  0
   -3.3933   -1.3978    2.9338 H   0  0  0  0  0  0  0  0  0  0  0  0
   -1.4631   -0.2618    3.8635 H   0  0  0  0  0  0  0  0  0  0  0  0
   -1.5316   -2.1225    3.8664 H   0  0  0  0  0  0  0  0  0  0  0  0
    0.6211   -1.9218    3.4463 H   0  0  0  0  0  0  0  0  0  0  0  0
   -0.0414   -1.7113    1.7401 H   0  0  0  0  0  0  0  0  0  0  0  0
    0.1062    0.8588    2.8966 H   0  0  0  0  0  0  0  0  0  0  0  0
    1.6703    0.0283    3.2418 H   0  0  0  0  0  0  0  0  0  0  0  0
    1.6954   -1.8391    0.8058 H   0  0  0  0  0  0  0  0  0  0  0  0
    2.2899   -1.4813   -1.5892 H   0  0  0  0  0  0  0  0  0  0  0  0
    2.1025    0.7957   -2.5961 H   0  0  0  0  0  0  0  0  0  0  0  0
    3.7580    2.3464   -2.0020 H   0  0  0  0  0  0  0  0  0  0  0  0
    5.8025    3.7114   -1.5670 H   0  0  0  0  0  0  0  0  0  0  0  0
    5.6140    5.8884   -0.3617 H   0  0  0  0  0  0  0  0  0  0  0  0
    3.3881    6.6886    0.4294 H   0  0  0  0  0  0  0  0  0  0  0  0
    1.3421    5.3269   -0.0079 H   0  0  0  0  0  0  0  0  0  0  0  0
    0.8312    2.3815    1.2193 H   0  0  0  0  0  0  0  0  0  0  0  0
  1  2  2  0
  2  3  1  6
  2  4  1  0
  2  5  1  0
  5  6  1  0
  6  7  1  0
  7  8  1  0
  8  9  1  0
  9 10  2  0
 10 11  1  0
 11 12  2  0
 12 13  1  0
 13 14  1  0
 14 15  1  0
 15 16  2  0
 16 17  1  0
 17 18  2  0
 18 19  1  0
 19 20  2  0
 13 21  2  0
  5 22  1  0
 22 23  2  0
 22 24  2  0
 22 25  1  0
 21  9  1  0
 20 15  1  0
  4 26  1  0
  5 27  1  1
  6 28  1  0
  6 29  1  0
  7 30  1  0
  7 31  1  0
  8 32  1  0
  8 33  1  0
 10 34  1  0
 11 35  1  0
 12 36  1  0
 16 37  1  0
 17 38  1  0
 18 39  1  0
 19 40  1  0
 20 41  1  0
 21 42  1  0
M  CHG  2   3  -1  25  -1
M  END
>  <meeko>  (7) 
{"is_sidechain": [false], "free_energy": -7.174, "intermolecular_energy": -10.756, "internal_energy": -1.484}

$$$$
2zcq_ligand
     RDKit          3D

 42 43  0  0  0  0  0  0  0  0999 V2000
   -3.5680   -1.9260   -0.7340 O   0  0  0  0  0  0  0  0  0  0  0  0
   -3.0580   -1.3010    0.5550 P   0  0  1  0  0  5  0  0  0  0  0  0
   -2.9670    0.2020    0.6350 O   0  0  0  0  0  0  0  0  0  0  0  0
   -4.0800   -1.7930    1.7160 O   0  0  0  0  0  0  0  0  0  0  0  0
   -1.5190   -2.1430    0.9370 C   0  0  1  0  0  0  0  0  0  0  0  0
   -0.2080   -1.3820    0.6930 C   0  0  0  0  0  0  0  0  0  0  0  0
    0.3630   -1.3780   -0.7290 C   0  0  0  0  0  0  0  0  0  0  0  0
    1.7230   -0.6970   -0.8880 C   0  0  0  0  0  0  0  0  0  0  0  0
    1.6280    0.7700   -0.5280 C   0  0  0  0  0  0  0  0  0  0  0  0
    1.0010    1.1890    0.6540 C   0  0  0  0  0  0  0  0  0  0  0  0
    0.9870    2.5410    1.0050 C   0  0  0  0  0  0  0  0  0  0  0  0
    1.6110    3.4810    0.1870 C   0  0  0  0  0  0  0  0  0  0  0  0
    2.2500    3.0630   -0.9820 C   0  0  0  0  0  0  0  0  0  0  0  0
    2.8480    3.9950   -1.7990 O   0  0  0  0  0  0  0  0  0  0  0  0
    3.8260    4.7530   -1.1910 C   0  0  0  0  0  0  0  0  0  0  0  0
    4.8490    4.0720   -0.5300 C   0  0  0  0  0  0  0  0  0  0  0  0
    5.8480    4.7870    0.1330 C   0  0  0  0  0  0  0  0  0  0  0  0
    5.8130    6.1830    0.1470 C   0  0  0  0  0  0  0  0  0  0  0  0
    4.7760    6.8620   -0.4940 C   0  0  0  0  0  0  0  0  0  0  0  0
    3.7770    6.1480   -1.1580 C   0  0  0  0  0  0  0  0  0  0  0  0
    2.2360    1.7220   -1.3560 C   0  0  0  0  0  0  0  0  0  0  0  0
   -1.5830   -2.9900    2.4890 S   0  0  0  0  0  0  0  0  0  0  0  0
   -2.5630   -4.0690    2.3250 O   0  0  0  0  0  0  0  0  0  0  0  0
   -1.9190   -2.0060    3.5130 O   0  0  0  0  0  0  0  0  0  0  0  0
   -0.2120   -3.5000    2.6370 O   0  0  0  0  0  0  0  0  0  0  0  0
   -4.0270   -1.1460    2.4700 H   0  0  0  0  0  0  0  0  0  0  0  0
   -1.4571   -2.9041    0.1452 H   0  0  0  0  0  0  0  0  0  0  0  0
   -0.3787   -0.3341    0.9807 H   0  0  0  0  0  0  0  0  0  0  0  0
    0.5409   -1.9228    1.2902 H   0  0  0  0  0  0  0  0  0  0  0  0
    0.4665   -2.4231   -1.0560 H   0  0  0  0  0  0  0  0  0  0  0  0
   -0.3421   -0.7922   -1.3370 H   0  0  0  0  0  0  0  0  0  0  0  0
    2.4520   -1.1857   -0.2249 H   0  0  0  0  0  0  0  0  0  0  0  0
    2.0441   -0.7854   -1.9364 H   0  0  0  0  0  0  0  0  0  0  0  0
    0.5174    0.4490    1.3086 H   0  0  0  0  0  0  0  0  0  0  0  0
    0.4830    2.8640    1.9279 H   0  0  0  0  0  0  0  0  0  0  0  0
    1.6002    4.5463    0.4608 H   0  0  0  0  0  0  0  0  0  0  0  0
    4.8682    2.9722   -0.5314 H   0  0  0  0  0  0  0  0  0  0  0  0
    6.6618    4.2514    0.6438 H   0  0  0  0  0  0  0  0  0  0  0  0
    6.6032    6.7476    0.6635 H   0  0  0  0  0  0  0  0  0  0  0  0
    4.7457    7.9614   -0.4760 H   0  0  0  0  0  0  0  0  0  0  0  0
    2.9535    6.6829   -1.6538 H   0  0  0  0  0  0  0  0  0  0  0  0
    2.7026    1.4101   -2.3021 H   0  0  0  0  0  0  0  0  0  0  0  0
  1  2  2  0
  2  3  1  6
  2  4  1  0
  2  5  1  0
  5  6  1  0
  6  7  1  0
  7  8  1  0
  8  9  1  0
  9 10  2  0
 10 11  1  0
 11 12  2  0
 12 13  1  0
 13 14  1  0
 14 15  1  0
 15 16  2  0
 16 17  1  0
 17 18  2  0
 18 19  1  0
 19 20  2  0
 13 21  2  0
  5 22  1  0
 22 23  2  0
 22 24  2  0
 22 25  1  0
 21  9  1  0
 20 15  1  0
  4 26  1  0
  5 27  1  6
  6 28  1  0
  6 29  1  0
  7 30  1  0
  7 31  1  0
  8 32  1  0
  8 33  1  0
 10 34  1  0
 11 35  1  0
 12 36  1  0
 16 37  1  0
 17 38  1  0
 18 39  1  0
 19 40  1  0
 20 41  1  0
 21 42  1  0
M  CHG  2   3  -1  25  -1
M  END
>  <meeko>  (8) 
{"is_sidechain": [false], "free_energy": -6.972, "intermolecular_energy": -11.325, "internal_energy": -0.611}

$$$$
2zcq_ligand
     RDKit          3D

 42 43  0  0  0  0  0  0  0  0999 V2000
   -1.4100   -8.6310   -2.2010 O   0  0  0  0  0  0  0  0  0  0  0  0
   -2.7140   -8.9450   -1.4850 P   0  0  1  0  0  5  0  0  0  0  0  0
   -3.9850   -8.9880   -2.2970 O   0  0  0  0  0  0  0  0  0  0  0  0
   -2.5070  -10.4120   -0.8200 O   0  0  0  0  0  0  0  0  0  0  0  0
   -2.7880   -7.8310   -0.0790 C   0  0  1  0  0  0  0  0  0  0  0  0
   -3.2130   -6.3790   -0.3410 C   0  0  0  0  0  0  0  0  0  0  0  0
   -2.2950   -5.2620    0.1660 C   0  0  0  0  0  0  0  0  0  0  0  0
   -2.8790   -3.8500    0.0990 C   0  0  0  0  0  0  0  0  0  0  0  0
   -2.3550   -3.0040    1.2400 C   0  0  0  0  0  0  0  0  0  0  0  0
   -3.1510   -2.7180    2.3580 C   0  0  0  0  0  0  0  0  0  0  0  0
   -2.6260   -1.9970    3.4330 C   0  0  0  0  0  0  0  0  0  0  0  0
   -1.2990   -1.5710    3.4060 C   0  0  0  0  0  0  0  0  0  0  0  0
   -0.5000   -1.8700    2.3010 C   0  0  0  0  0  0  0  0  0  0  0  0
    0.8030   -1.4310    2.2660 O   0  0  0  0  0  0  0  0  0  0  0  0
    1.0020   -0.2660    1.5570 C   0  0  0  0  0  0  0  0  0  0  0  0
    1.7430   -0.3490    0.3770 C   0  0  0  0  0  0  0  0  0  0  0  0
    2.0060    0.8040   -0.3650 C   0  0  0  0  0  0  0  0  0  0  0  0
    1.5390    2.0410    0.0820 C   0  0  0  0  0  0  0  0  0  0  0  0
    0.8190    2.1260    1.2750 C   0  0  0  0  0  0  0  0  0  0  0  0
    0.5550    0.9750    2.0170 C   0  0  0  0  0  0  0  0  0  0  0  0
   -1.0280   -2.5560    1.2100 C   0  0  0  0  0  0  0  0  0  0  0  0
   -3.5700   -8.5700    1.3250 S   0  0  0  0  0  0  0  0  0  0  0  0
   -4.6250   -9.4400    0.7930 O   0  0  0  0  0  0  0  0  0  0  0  0
   -4.0410   -7.4900    2.1850 O   0  0  0  0  0  0  0  0  0  0  0  0
   -2.4740   -9.3340    1.9400 O   0  0  0  0  0  0  0  0  0  0  0  0
   -1.9060  -10.3130   -0.0330 H   0  0  0  0  0  0  0  0  0  0  0  0
   -1.7268   -7.6860    0.1716 H   0  0  0  0  0  0  0  0  0  0  0  0
   -3.3076   -6.2566   -1.4301 H   0  0  0  0  0  0  0  0  0  0  0  0
   -4.1426   -6.2551    0.2339 H   0  0  0  0  0  0  0  0  0  0  0  0
   -2.0472   -5.4770    1.2159 H   0  0  0  0  0  0  0  0  0  0  0  0
   -1.4222   -5.2605   -0.5035 H   0  0  0  0  0  0  0  0  0  0  0  0
   -2.5939   -3.3855   -0.8565 H   0  0  0  0  0  0  0  0  0  0  0  0
   -3.9743   -3.9142    0.1780 H   0  0  0  0  0  0  0  0  0  0  0  0
   -4.1949   -3.0633    2.3888 H   0  0  0  0  0  0  0  0  0  0  0  0
   -3.2601   -1.7652    4.3014 H   0  0  0  0  0  0  0  0  0  0  0  0
   -0.8836   -1.0022    4.2510 H   0  0  0  0  0  0  0  0  0  0  0  0
    2.1198   -1.3230    0.0317 H   0  0  0  0  0  0  0  0  0  0  0  0
    2.5805    0.7376   -1.3007 H   0  0  0  0  0  0  0  0  0  0  0  0
    1.7383    2.9491   -0.5059 H   0  0  0  0  0  0  0  0  0  0  0  0
    0.4592    3.1028    1.6305 H   0  0  0  0  0  0  0  0  0  0  0  0
   -0.0037    1.0442    2.9620 H   0  0  0  0  0  0  0  0  0  0  0  0
   -0.4031   -2.7460    0.3249 H   0  0  0  0  0  0  0  0  0  0  0  0
  1  2  2  0
  2  3  1  6
  2  4  1  0
  2  5  1  0
  5  6  1  0
  6  7  1  0
  7  8  1  0
  8  9  1  0
  9 10  2  0
 10 11  1  0
 11 12  2  0
 12 13  1  0
 13 14  1  0
 14 15  1  0
 15 16  2  0
 16 17  1  0
 17 18  2  0
 18 19  1  0
 19 20  2  0
 13 21  2  0
  5 22  1  0
 22 23  2  0
 22 24  2  0
 22 25  1  0
 21  9  1  0
 20 15  1  0
  4 26  1  0
  5 27  1  1
  6 28  1  0
  6 29  1  0
  7 30  1  0
  7 31  1  0
  8 32  1  0
  8 33  1  0
 10 34  1  0
 11 35  1  0
 12 36  1  0
 16 37  1  0
 17 38  1  0
 18 39  1  0
 19 40  1  0
 20 41  1  0
 21 42  1  0
M  CHG  2   3  -1  25  -1
M  END
>  <meeko>  (9) 
{"is_sidechain": [false], "free_energy": -6.775, "intermolecular_energy": -10.448, "internal_energy": -1.194}

$$$$
