
     RDKit          3D

 12 12  0  0  0  0  0  0  0  0999 V2000
    5.7550    0.0190   -7.8500 C   0  0  0  0  0  0  0  0  0  0  0  0
    4.3880    0.3700   -7.6520 O   0  0  0  0  0  0  0  0  0  0  0  0
    3.7650    1.2380   -8.4680 C   0  0  0  0  0  0  0  0  0  0  0  0
    4.4250    1.9400   -9.4600 C   0  0  0  0  0  0  0  0  0  0  0  0
    3.7210    2.8120  -10.2950 C   0  0  0  0  0  0  0  0  0  0  0  0
    2.3580    2.9900  -10.1190 C   0  0  0  0  0  0  0  0  0  0  0  0
    1.4550    4.0700  -11.1640 S   0  0  2  0  0  0  0  0  0  0  0  0
    1.9600    5.5800  -10.8580 N   0  0  0  0  0  0  0  0  0  0  0  0
    0.0320    3.9700  -10.8410 O   0  0  0  0  0  0  0  0  0  0  0  0
    1.7680    3.7110  -12.5390 O   0  0  0  0  0  0  0  0  0  0  0  0
    1.6880    2.2970   -9.1130 C   0  0  0  0  0  0  0  0  0  0  0  0
    2.3980    1.4260   -8.2890 C   0  0  0  0  0  0  0  0  0  0  0  0
  2  1  1  0
  3  2  1  0
  4  3  2  0
  5  4  1  0
  6  5  2  0
  7  6  1  0
  7  8  1  1
  9  7  2  0
 10  7  2  0
 11  6  1  0
 12 11  2  0
 12  3  1  0
M  END
$$$$
