3uev_ligand
     RDKit          3D

 43 42  0  0  0  0  0  0  0  0999 V2000
    2.2460    2.5590   -4.5850 C   0  0  0  0  0  0  0  0  0  0  0  0
    1.7330    2.3530   -6.0020 C   0  0  0  0  0  0  0  0  0  0  0  0
    0.5500    3.2730   -6.3050 C   0  0  0  0  0  0  0  0  0  0  0  0
    0.8820    4.7630   -6.1630 C   0  0  0  0  0  0  0  0  0  0  0  0
    2.1110    5.1900   -6.9710 C   0  0  0  0  0  0  0  0  0  0  0  0
    3.2550    5.7290   -6.1030 C   0  0  0  0  0  0  0  0  0  0  0  0
    4.6450    5.3570   -6.6250 C   0  0  0  0  0  0  0  0  0  0  0  0
    4.7260    3.9270   -7.1750 C   0  0  0  0  0  0  0  0  0  0  0  0
    6.0780    3.2540   -6.9220 C   0  0  0  0  0  0  0  0  0  0  0  0
    6.1860    1.8550   -7.5400 C   0  0  0  0  0  0  0  0  0  0  0  0
    4.9180    1.4140   -8.2770 C   0  0  0  0  0  0  0  0  0  0  0  0
    4.3180    0.1160   -7.7280 C   0  0  0  0  0  0  0  0  0  0  0  0
    4.6730   -0.1520   -6.2680 C   0  0  0  0  0  0  0  0  0  0  0  0
    3.5530   -0.7860   -5.4340 C   0  0  0  0  0  0  0  0  0  0  0  0
    2.6270   -1.3560   -6.0710 O   0  0  0  0  0  0  0  0  0  0  0  0
    3.7070   -0.6590   -4.1850 O   0  0  0  0  0  0  0  0  0  0  0  0
    1.4731    2.2486   -3.8665 H   0  0  0  0  0  0  0  0  0  0  0  0
    3.1526    1.9552   -4.4319 H   0  0  0  0  0  0  0  0  0  0  0  0
    2.4833    3.6221   -4.4319 H   0  0  0  0  0  0  0  0  0  0  0  0
    2.5452    2.5685   -6.7118 H   0  0  0  0  0  0  0  0  0  0  0  0
    1.3957    1.3106   -6.1005 H   0  0  0  0  0  0  0  0  0  0  0  0
    0.2196    3.0868   -7.3376 H   0  0  0  0  0  0  0  0  0  0  0  0
   -0.2344    3.0447   -5.5684 H   0  0  0  0  0  0  0  0  0  0  0  0
    0.0168    5.3479   -6.5084 H   0  0  0  0  0  0  0  0  0  0  0  0
    1.1098    4.9462   -5.1026 H   0  0  0  0  0  0  0  0  0  0  0  0
    2.4797    4.3182   -7.5314 H   0  0  0  0  0  0  0  0  0  0  0  0
    1.7944    6.0081   -7.6347 H   0  0  0  0  0  0  0  0  0  0  0  0
    3.1783    6.8258   -6.0678 H   0  0  0  0  0  0  0  0  0  0  0  0
    3.1498    5.2713   -5.1083 H   0  0  0  0  0  0  0  0  0  0  0  0
    4.9138    6.0563   -7.4305 H   0  0  0  0  0  0  0  0  0  0  0  0
    5.3389    5.4176   -5.7736 H   0  0  0  0  0  0  0  0  0  0  0  0
    3.9411    3.3239   -6.6953 H   0  0  0  0  0  0  0  0  0  0  0  0
    4.5936    3.9903   -8.2652 H   0  0  0  0  0  0  0  0  0  0  0  0
    6.8685    3.8870   -7.3514 H   0  0  0  0  0  0  0  0  0  0  0  0
    6.1845    3.1376   -5.8334 H   0  0  0  0  0  0  0  0  0  0  0  0
    7.0225    1.8534   -8.2544 H   0  0  0  0  0  0  0  0  0  0  0  0
    6.3428    1.1468   -6.7130 H   0  0  0  0  0  0  0  0  0  0  0  0
    4.1662    2.2118   -8.1862 H   0  0  0  0  0  0  0  0  0  0  0  0
    5.1987    1.2257   -9.3238 H   0  0  0  0  0  0  0  0  0  0  0  0
    3.2230    0.1753   -7.8143 H   0  0  0  0  0  0  0  0  0  0  0  0
    4.7403   -0.7098   -8.3193 H   0  0  0  0  0  0  0  0  0  0  0  0
    5.5396   -0.8292   -6.2464 H   0  0  0  0  0  0  0  0  0  0  0  0
    4.8745    0.8302   -5.8156 H   0  0  0  0  0  0  0  0  0  0  0  0
  1  2  1  0
  2  3  1  0
  3  4  1  0
  4  5  1  0
  5  6  1  0
  6  7  1  0
  7  8  1  0
  8  9  1  0
  9 10  1  0
 10 11  1  0
 11 12  1  0
 12 13  1  0
 13 14  1  0
 14 15  2  0
 14 16  1  0
  1 17  1  0
  1 18  1  0
  1 19  1  0
  2 20  1  0
  2 21  1  0
  3 22  1  0
  3 23  1  0
  4 24  1  0
  4 25  1  0
  5 26  1  0
  5 27  1  0
  6 28  1  0
  6 29  1  0
  7 30  1  0
  7 31  1  0
  8 32  1  0
  8 33  1  0
  9 34  1  0
  9 35  1  0
 10 36  1  0
 10 37  1  0
 11 38  1  0
 11 39  1  0
 12 40  1  0
 12 41  1  0
 13 42  1  0
 13 43  1  0
M  CHG  1  16  -1
M  END
>  <meeko>  (1) 
{"is_sidechain": [false], "free_energy": -4.912, "intermolecular_energy": -8.358, "internal_energy": -1.554}

$$$$
3uev_ligand
     RDKit          3D

 43 42  0  0  0  0  0  0  0  0999 V2000
   -2.4220    1.4340   -8.1410 C   0  0  0  0  0  0  0  0  0  0  0  0
   -3.6760    2.2170   -7.7870 C   0  0  0  0  0  0  0  0  0  0  0  0
   -3.9490    2.1810   -6.2820 C   0  0  0  0  0  0  0  0  0  0  0  0
   -5.1510    1.3090   -5.8990 C   0  0  0  0  0  0  0  0  0  0  0  0
   -5.7980    0.6100   -7.0980 C   0  0  0  0  0  0  0  0  0  0  0  0
   -7.3300    0.7010   -7.1020 C   0  0  0  0  0  0  0  0  0  0  0  0
   -7.8660    1.9100   -7.8740 C   0  0  0  0  0  0  0  0  0  0  0  0
   -8.4100    3.0200   -6.9660 C   0  0  0  0  0  0  0  0  0  0  0  0
   -7.6150    4.3250   -7.0560 C   0  0  0  0  0  0  0  0  0  0  0  0
   -7.1190    4.8310   -5.6960 C   0  0  0  0  0  0  0  0  0  0  0  0
   -7.5150    3.9250   -4.5270 C   0  0  0  0  0  0  0  0  0  0  0  0
   -6.6720    4.1550   -3.2680 C   0  0  0  0  0  0  0  0  0  0  0  0
   -5.1800    4.3010   -3.5510 C   0  0  0  0  0  0  0  0  0  0  0  0
   -4.2730    4.1940   -2.3200 C   0  0  0  0  0  0  0  0  0  0  0  0
   -3.6830    5.2480   -1.9570 O   0  0  0  0  0  0  0  0  0  0  0  0
   -4.2350    3.0380   -1.8070 O   0  0  0  0  0  0  0  0  0  0  0  0
   -1.9147    1.1172   -7.2178 H   0  0  0  0  0  0  0  0  0  0  0  0
   -2.6976    0.5473   -8.7307 H   0  0  0  0  0  0  0  0  0  0  0  0
   -1.7463    2.0709   -8.7307 H   0  0  0  0  0  0  0  0  0  0  0  0
   -3.5462    3.2628   -8.1025 H   0  0  0  0  0  0  0  0  0  0  0  0
   -4.5300    1.7566   -8.3054 H   0  0  0  0  0  0  0  0  0  0  0  0
   -3.0563    1.7852   -5.7756 H   0  0  0  0  0  0  0  0  0  0  0  0
   -4.1834    3.2097   -5.9710 H   0  0  0  0  0  0  0  0  0  0  0  0
   -4.8128    0.5410   -5.1877 H   0  0  0  0  0  0  0  0  0  0  0  0
   -5.9098    1.9740   -5.4608 H   0  0  0  0  0  0  0  0  0  0  0  0
   -5.4185    1.0755   -8.0196 H   0  0  0  0  0  0  0  0  0  0  0  0
   -5.5359   -0.4563   -7.0328 H   0  0  0  0  0  0  0  0  0  0  0  0
   -7.7323   -0.2132   -7.5629 H   0  0  0  0  0  0  0  0  0  0  0  0
   -7.6510    0.8156   -6.0561 H   0  0  0  0  0  0  0  0  0  0  0  0
   -7.0489    2.3258   -8.4818 H   0  0  0  0  0  0  0  0  0  0  0  0
   -8.7045    1.5554   -8.4914 H   0  0  0  0  0  0  0  0  0  0  0  0
   -9.4516    3.2260   -7.2533 H   0  0  0  0  0  0  0  0  0  0  0  0
   -8.3272    2.6608   -5.9296 H   0  0  0  0  0  0  0  0  0  0  0  0
   -6.7428    4.1579   -7.7051 H   0  0  0  0  0  0  0  0  0  0  0  0
   -8.2931    5.0912   -7.4599 H   0  0  0  0  0  0  0  0  0  0  0  0
   -6.0215    4.8982   -5.7284 H   0  0  0  0  0  0  0  0  0  0  0  0
   -7.5914    5.8091   -5.5223 H   0  0  0  0  0  0  0  0  0  0  0  0
   -8.5700    4.1150   -4.2801 H   0  0  0  0  0  0  0  0  0  0  0  0
   -7.3443    2.8867   -4.8477 H   0  0  0  0  0  0  0  0  0  0  0  0
   -7.0244    5.0738   -2.7765 H   0  0  0  0  0  0  0  0  0  0  0  0
   -6.7943    3.2667   -2.6308 H   0  0  0  0  0  0  0  0  0  0  0  0
   -4.8883    3.5115   -4.2593 H   0  0  0  0  0  0  0  0  0  0  0  0
   -5.0407    5.3175   -3.9477 H   0  0  0  0  0  0  0  0  0  0  0  0
  1  2  1  0
  2  3  1  0
  3  4  1  0
  4  5  1  0
  5  6  1  0
  6  7  1  0
  7  8  1  0
  8  9  1  0
  9 10  1  0
 10 11  1  0
 11 12  1  0
 12 13  1  0
 13 14  1  0
 14 15  2  0
 14 16  1  0
  1 17  1  0
  1 18  1  0
  1 19  1  0
  2 20  1  0
  2 21  1  0
  3 22  1  0
  3 23  1  0
  4 24  1  0
  4 25  1  0
  5 26  1  0
  5 27  1  0
  6 28  1  0
  6 29  1  0
  7 30  1  0
  7 31  1  0
  8 32  1  0
  8 33  1  0
  9 34  1  0
  9 35  1  0
 10 36  1  0
 10 37  1  0
 11 38  1  0
 11 39  1  0
 12 40  1  0
 12 41  1  0
 13 42  1  0
 13 43  1  0
M  CHG  1  16  -1
M  END
>  <meeko>  (2) 
{"is_sidechain": [false], "free_energy": -4.908, "intermolecular_energy": -8.308, "internal_energy": -1.597}

$$$$
3uev_ligand
     RDKit          3D

 43 42  0  0  0  0  0  0  0  0999 V2000
   -4.4550    3.0940   -1.8080 C   0  0  0  0  0  0  0  0  0  0  0  0
   -4.0800    4.4940   -2.2690 C   0  0  0  0  0  0  0  0  0  0  0  0
   -5.2180    5.1450   -3.0560 C   0  0  0  0  0  0  0  0  0  0  0  0
   -6.2030    4.1350   -3.6560 C   0  0  0  0  0  0  0  0  0  0  0  0
   -6.8010    4.5910   -4.9900 C   0  0  0  0  0  0  0  0  0  0  0  0
   -8.1780    3.9800   -5.2810 C   0  0  0  0  0  0  0  0  0  0  0  0
   -8.1540    2.9260   -6.3910 C   0  0  0  0  0  0  0  0  0  0  0  0
   -7.7430    1.5320   -5.9000 C   0  0  0  0  0  0  0  0  0  0  0  0
   -7.1970    0.6310   -7.0110 C   0  0  0  0  0  0  0  0  0  0  0  0
   -5.7190    0.8850   -7.3310 C   0  0  0  0  0  0  0  0  0  0  0  0
   -4.8830    1.2470   -6.0990 C   0  0  0  0  0  0  0  0  0  0  0  0
   -4.0450    2.5170   -6.2860 C   0  0  0  0  0  0  0  0  0  0  0  0
   -2.9320    2.6710   -5.2540 C   0  0  0  0  0  0  0  0  0  0  0  0
   -1.5110    2.4940   -5.8030 C   0  0  0  0  0  0  0  0  0  0  0  0
   -0.6580    3.3560   -5.4540 O   0  0  0  0  0  0  0  0  0  0  0  0
   -1.3680    1.4810   -6.5470 O   0  0  0  0  0  0  0  0  0  0  0  0
   -4.4641    3.0601   -0.7086 H   0  0  0  0  0  0  0  0  0  0  0  0
   -5.4536    2.8370   -2.1910 H   0  0  0  0  0  0  0  0  0  0  0  0
   -3.7185    2.3723   -2.1910 H   0  0  0  0  0  0  0  0  0  0  0  0
   -3.8544    5.1126   -1.3879 H   0  0  0  0  0  0  0  0  0  0  0  0
   -3.2022    4.4184   -2.9276 H   0  0  0  0  0  0  0  0  0  0  0  0
   -5.7723    5.8119   -2.3792 H   0  0  0  0  0  0  0  0  0  0  0  0
   -4.7607    5.6888   -3.8958 H   0  0  0  0  0  0  0  0  0  0  0  0
   -5.6734    3.1845   -3.8176 H   0  0  0  0  0  0  0  0  0  0  0  0
   -7.0355    4.0300   -2.9448 H   0  0  0  0  0  0  0  0  0  0  0  0
   -6.9025    5.6861   -4.9704 H   0  0  0  0  0  0  0  0  0  0  0  0
   -6.1203    4.2507   -5.7843 H   0  0  0  0  0  0  0  0  0  0  0  0
   -8.5515    3.5081   -4.3603 H   0  0  0  0  0  0  0  0  0  0  0  0
   -8.8297    4.7972   -5.6237 H   0  0  0  0  0  0  0  0  0  0  0  0
   -9.1607    2.8584   -6.8292 H   0  0  0  0  0  0  0  0  0  0  0  0
   -7.4007    3.2461   -7.1259 H   0  0  0  0  0  0  0  0  0  0  0  0
   -6.9644    1.6487   -5.1318 H   0  0  0  0  0  0  0  0  0  0  0  0
   -8.6482    1.0475   -5.5052 H   0  0  0  0  0  0  0  0  0  0  0  0
   -7.3105   -0.4171   -6.6971 H   0  0  0  0  0  0  0  0  0  0  0  0
   -7.7697    0.8568   -7.9226 H   0  0  0  0  0  0  0  0  0  0  0  0
   -5.2985   -0.0257   -7.7824 H   0  0  0  0  0  0  0  0  0  0  0  0
   -5.6782    1.7453   -8.0153 H   0  0  0  0  0  0  0  0  0  0  0  0
   -5.5633    1.3998   -5.2482 H   0  0  0  0  0  0  0  0  0  0  0  0
   -4.1821    0.4171   -5.9258 H   0  0  0  0  0  0  0  0  0  0  0  0
   -3.5898    2.4892   -7.2870 H   0  0  0  0  0  0  0  0  0  0  0  0
   -4.7237    3.3733   -6.1591 H   0  0  0  0  0  0  0  0  0  0  0  0
   -3.0068    3.6786   -4.8190 H   0  0  0  0  0  0  0  0  0  0  0  0
   -3.0804    1.8662   -4.5190 H   0  0  0  0  0  0  0  0  0  0  0  0
  1  2  1  0
  2  3  1  0
  3  4  1  0
  4  5  1  0
  5  6  1  0
  6  7  1  0
  7  8  1  0
  8  9  1  0
  9 10  1  0
 10 11  1  0
 11 12  1  0
 12 13  1  0
 13 14  1  0
 14 15  2  0
 14 16  1  0
  1 17  1  0
  1 18  1  0
  1 19  1  0
  2 20  1  0
  2 21  1  0
  3 22  1  0
  3 23  1  0
  4 24  1  0
  4 25  1  0
  5 26  1  0
  5 27  1  0
  6 28  1  0
  6 29  1  0
  7 30  1  0
  7 31  1  0
  8 32  1  0
  8 33  1  0
  9 34  1  0
  9 35  1  0
 10 36  1  0
 10 37  1  0
 11 38  1  0
 11 39  1  0
 12 40  1  0
 12 41  1  0
 13 42  1  0
 13 43  1  0
M  CHG  1  16  -1
M  END
>  <meeko>  (3) 
{"is_sidechain": [false], "free_energy": -4.846, "intermolecular_energy": -8.265, "internal_energy": -1.535}

$$$$
3uev_ligand
     RDKit          3D

 43 42  0  0  0  0  0  0  0  0999 V2000
    3.7030   -0.4460   -5.2010 C   0  0  0  0  0  0  0  0  0  0  0  0
    3.4300   -0.6870   -6.6770 C   0  0  0  0  0  0  0  0  0  0  0  0
    4.4400    0.0510   -7.5570 C   0  0  0  0  0  0  0  0  0  0  0  0
    5.6600    0.5680   -6.7870 C   0  0  0  0  0  0  0  0  0  0  0  0
    6.4010    1.6970   -7.5110 C   0  0  0  0  0  0  0  0  0  0  0  0
    6.0150    3.0960   -7.0130 C   0  0  0  0  0  0  0  0  0  0  0  0
    6.0710    4.1680   -8.1050 C   0  0  0  0  0  0  0  0  0  0  0  0
    5.1360    5.3550   -7.8420 C   0  0  0  0  0  0  0  0  0  0  0  0
    4.6270    5.4210   -6.4000 C   0  0  0  0  0  0  0  0  0  0  0  0
    3.0980    5.3770   -6.2920 C   0  0  0  0  0  0  0  0  0  0  0  0
    2.4580    4.2880   -7.1570 C   0  0  0  0  0  0  0  0  0  0  0  0
    2.4480    2.9090   -6.4880 C   0  0  0  0  0  0  0  0  0  0  0  0
    1.5690    2.8420   -5.2420 C   0  0  0  0  0  0  0  0  0  0  0  0
    0.0960    3.2010   -5.4670 C   0  0  0  0  0  0  0  0  0  0  0  0
   -0.3190    4.2590   -4.9210 O   0  0  0  0  0  0  0  0  0  0  0  0
   -0.5300    2.3750   -6.1930 O   0  0  0  0  0  0  0  0  0  0  0  0
    3.0140   -1.0542   -4.5966 H   0  0  0  0  0  0  0  0  0  0  0  0
    4.7407   -0.7280   -4.9692 H   0  0  0  0  0  0  0  0  0  0  0  0
    3.5519    0.6186   -4.9692 H   0  0  0  0  0  0  0  0  0  0  0  0
    3.4968   -1.7656   -6.8822 H   0  0  0  0  0  0  0  0  0  0  0  0
    2.4241   -0.3078   -6.9103 H   0  0  0  0  0  0  0  0  0  0  0  0
    4.7890   -0.6387   -8.3396 H   0  0  0  0  0  0  0  0  0  0  0  0
    3.9248    0.9291   -7.9736 H   0  0  0  0  0  0  0  0  0  0  0  0
    5.3225    0.9428   -5.8094 H   0  0  0  0  0  0  0  0  0  0  0  0
    6.3631   -0.2723   -6.6891 H   0  0  0  0  0  0  0  0  0  0  0  0
    7.4816    1.5586   -7.3591 H   0  0  0  0  0  0  0  0  0  0  0  0
    6.1202    1.6412   -8.5731 H   0  0  0  0  0  0  0  0  0  0  0  0
    4.9894    3.0545   -6.6176 H   0  0  0  0  0  0  0  0  0  0  0  0
    6.7470    3.3794   -6.2424 H   0  0  0  0  0  0  0  0  0  0  0  0
    7.1024    4.5446   -8.1713 H   0  0  0  0  0  0  0  0  0  0  0  0
    5.7399    3.6952   -9.0414 H   0  0  0  0  0  0  0  0  0  0  0  0
    5.6821    6.2842   -8.0617 H   0  0  0  0  0  0  0  0  0  0  0  0
    4.2571    5.2255   -8.4906 H   0  0  0  0  0  0  0  0  0  0  0  0
    5.0406    4.5663   -5.8446 H   0  0  0  0  0  0  0  0  0  0  0  0
    4.9547    6.3849   -5.9835 H   0  0  0  0  0  0  0  0  0  0  0  0
    2.8279    5.1917   -5.2419 H   0  0  0  0  0  0  0  0  0  0  0  0
    2.7191    6.3439   -6.6546 H   0  0  0  0  0  0  0  0  0  0  0  0
    1.4193    4.5789   -7.3724 H   0  0  0  0  0  0  0  0  0  0  0  0
    3.0629    4.2016   -8.0717 H   0  0  0  0  0  0  0  0  0  0  0  0
    2.0772    2.1720   -7.2155 H   0  0  0  0  0  0  0  0  0  0  0  0
    3.4790    2.6977   -6.1679 H   0  0  0  0  0  0  0  0  0  0  0  0
    1.6136    1.8160   -4.8480 H   0  0  0  0  0  0  0  0  0  0  0  0
    1.9657    3.5955   -4.5457 H   0  0  0  0  0  0  0  0  0  0  0  0
  1  2  1  0
  2  3  1  0
  3  4  1  0
  4  5  1  0
  5  6  1  0
  6  7  1  0
  7  8  1  0
  8  9  1  0
  9 10  1  0
 10 11  1  0
 11 12  1  0
 12 13  1  0
 13 14  1  0
 14 15  2  0
 14 16  1  0
  1 17  1  0
  1 18  1  0
  1 19  1  0
  2 20  1  0
  2 21  1  0
  3 22  1  0
  3 23  1  0
  4 24  1  0
  4 25  1  0
  5 26  1  0
  5 27  1  0
  6 28  1  0
  6 29  1  0
  7 30  1  0
  7 31  1  0
  8 32  1  0
  8 33  1  0
  9 34  1  0
  9 35  1  0
 10 36  1  0
 10 37  1  0
 11 38  1  0
 11 39  1  0
 12 40  1  0
 12 41  1  0
 13 42  1  0
 13 43  1  0
M  CHG  1  16  -1
M  END
>  <meeko>  (4) 
{"is_sidechain": [false], "free_energy": -4.799, "intermolecular_energy": -8.162, "internal_energy": -1.557}

$$$$
3uev_ligand
     RDKit          3D

 43 42  0  0  0  0  0  0  0  0999 V2000
    2.7260   -1.7130   -6.2920 C   0  0  0  0  0  0  0  0  0  0  0  0
    3.2700   -0.3050   -6.1080 C   0  0  0  0  0  0  0  0  0  0  0  0
    4.1930    0.0910   -7.2620 C   0  0  0  0  0  0  0  0  0  0  0  0
    5.5180    0.7070   -6.8010 C   0  0  0  0  0  0  0  0  0  0  0  0
    6.1770    1.5910   -7.8640 C   0  0  0  0  0  0  0  0  0  0  0  0
    5.2070    2.0540   -8.9590 C   0  0  0  0  0  0  0  0  0  0  0  0
    5.6520    3.3380   -9.6640 C   0  0  0  0  0  0  0  0  0  0  0  0
    6.3920    4.3150   -8.7410 C   0  0  0  0  0  0  0  0  0  0  0  0
    5.5100    5.4580   -8.2330 C   0  0  0  0  0  0  0  0  0  0  0  0
    5.3140    5.4460   -6.7120 C   0  0  0  0  0  0  0  0  0  0  0  0
    3.8540    5.2620   -6.2880 C   0  0  0  0  0  0  0  0  0  0  0  0
    3.5070    3.8140   -5.9220 C   0  0  0  0  0  0  0  0  0  0  0  0
    2.2980    3.2670   -6.6760 C   0  0  0  0  0  0  0  0  0  0  0  0
    1.0990    2.8980   -5.7950 C   0  0  0  0  0  0  0  0  0  0  0  0
    0.2820    2.0630   -6.2720 O   0  0  0  0  0  0  0  0  0  0  0  0
    1.0820    3.4850   -4.6750 O   0  0  0  0  0  0  0  0  0  0  0  0
    2.5496   -2.1696   -5.3069 H   0  0  0  0  0  0  0  0  0  0  0  0
    1.7796   -1.6703   -6.8511 H   0  0  0  0  0  0  0  0  0  0  0  0
    3.4552   -2.3177   -6.8511 H   0  0  0  0  0  0  0  0  0  0  0  0
    2.4279    0.4014   -6.0645 H   0  0  0  0  0  0  0  0  0  0  0  0
    3.8509   -0.2771   -5.1743 H   0  0  0  0  0  0  0  0  0  0  0  0
    4.4149   -0.8086   -7.8548 H   0  0  0  0  0  0  0  0  0  0  0  0
    3.6665    0.8580   -7.8489 H   0  0  0  0  0  0  0  0  0  0  0  0
    5.3263    1.3193   -5.9075 H   0  0  0  0  0  0  0  0  0  0  0  0
    6.2089   -0.1235   -6.5937 H   0  0  0  0  0  0  0  0  0  0  0  0
    6.5935    2.4804   -7.3684 H   0  0  0  0  0  0  0  0  0  0  0  0
    6.9539    0.9854   -8.3536 H   0  0  0  0  0  0  0  0  0  0  0  0
    5.1228    1.2551   -9.7105 H   0  0  0  0  0  0  0  0  0  0  0  0
    4.2453    2.2691   -8.4703 H   0  0  0  0  0  0  0  0  0  0  0  0
    6.3219    3.0663  -10.4931 H   0  0  0  0  0  0  0  0  0  0  0  0
    4.7425    3.8480  -10.0143 H   0  0  0  0  0  0  0  0  0  0  0  0
    6.7715    3.7554   -7.8734 H   0  0  0  0  0  0  0  0  0  0  0  0
    7.2026    4.7679   -9.3307 H   0  0  0  0  0  0  0  0  0  0  0  0
    5.9780    6.4122   -8.5168 H   0  0  0  0  0  0  0  0  0  0  0  0
    4.5174    5.3299   -8.6894 H   0  0  0  0  0  0  0  0  0  0  0  0
    5.9061    4.6202   -6.2907 H   0  0  0  0  0  0  0  0  0  0  0  0
    5.6404    6.4265   -6.3349 H   0  0  0  0  0  0  0  0  0  0  0  0
    3.6617    5.8992   -5.4122 H   0  0  0  0  0  0  0  0  0  0  0  0
    3.2273    5.5399   -7.1482 H   0  0  0  0  0  0  0  0  0  0  0  0
    4.3760    3.1795   -6.1508 H   0  0  0  0  0  0  0  0  0  0  0  0
    3.2521    3.8036   -4.8520 H   0  0  0  0  0  0  0  0  0  0  0  0
    1.9702    4.0313   -7.3960 H   0  0  0  0  0  0  0  0  0  0  0  0
    2.6292    2.3325   -7.1524 H   0  0  0  0  0  0  0  0  0  0  0  0
  1  2  1  0
  2  3  1  0
  3  4  1  0
  4  5  1  0
  5  6  1  0
  6  7  1  0
  7  8  1  0
  8  9  1  0
  9 10  1  0
 10 11  1  0
 11 12  1  0
 12 13  1  0
 13 14  1  0
 14 15  2  0
 14 16  1  0
  1 17  1  0
  1 18  1  0
  1 19  1  0
  2 20  1  0
  2 21  1  0
  3 22  1  0
  3 23  1  0
  4 24  1  0
  4 25  1  0
  5 26  1  0
  5 27  1  0
  6 28  1  0
  6 29  1  0
  7 30  1  0
  7 31  1  0
  8 32  1  0
  8 33  1  0
  9 34  1  0
  9 35  1  0
 10 36  1  0
 10 37  1  0
 11 38  1  0
 11 39  1  0
 12 40  1  0
 12 41  1  0
 13 42  1  0
 13 43  1  0
M  CHG  1  16  -1
M  END
>  <meeko>  (5) 
{"is_sidechain": [false], "free_energy": -4.789, "intermolecular_energy": -7.992, "internal_energy": -1.71}

$$$$
3uev_ligand
     RDKit          3D

 43 42  0  0  0  0  0  0  0  0999 V2000
    6.1830    1.2970   -7.3090 C   0  0  0  0  0  0  0  0  0  0  0  0
    5.2090    1.1890   -8.4710 C   0  0  0  0  0  0  0  0  0  0  0  0
    5.6790    2.0150   -9.6700 C   0  0  0  0  0  0  0  0  0  0  0  0
    5.0130    3.3930   -9.7620 C   0  0  0  0  0  0  0  0  0  0  0  0
    6.0070    4.5540   -9.6720 C   0  0  0  0  0  0  0  0  0  0  0  0
    5.6950    5.5370   -8.5360 C   0  0  0  0  0  0  0  0  0  0  0  0
    5.8550    4.9280   -7.1410 C   0  0  0  0  0  0  0  0  0  0  0  0
    4.8150    5.4310   -6.1330 C   0  0  0  0  0  0  0  0  0  0  0  0
    3.3990    5.5160   -6.7100 C   0  0  0  0  0  0  0  0  0  0  0  0
    2.4250    4.5090   -6.0860 C   0  0  0  0  0  0  0  0  0  0  0  0
    2.5430    3.1020   -6.6780 C   0  0  0  0  0  0  0  0  0  0  0  0
    2.9560    2.0440   -5.6490 C   0  0  0  0  0  0  0  0  0  0  0  0
    2.4280    0.6470   -5.9630 C   0  0  0  0  0  0  0  0  0  0  0  0
    3.3600   -0.5030   -5.5640 C   0  0  0  0  0  0  0  0  0  0  0  0
    3.6950   -1.3040   -6.4780 O   0  0  0  0  0  0  0  0  0  0  0  0
    3.6860   -0.5000   -4.3410 O   0  0  0  0  0  0  0  0  0  0  0  0
    5.6300    1.2357   -6.3601 H   0  0  0  0  0  0  0  0  0  0  0  0
    6.9109    0.4741   -7.3630 H   0  0  0  0  0  0  0  0  0  0  0  0
    6.7129    2.2594   -7.3630 H   0  0  0  0  0  0  0  0  0  0  0  0
    5.1269    0.1344   -8.7727 H   0  0  0  0  0  0  0  0  0  0  0  0
    4.2335    1.5775   -8.1432 H   0  0  0  0  0  0  0  0  0  0  0  0
    6.7666    2.1586   -9.5891 H   0  0  0  0  0  0  0  0  0  0  0  0
    5.3980    1.4586  -10.5764 H   0  0  0  0  0  0  0  0  0  0  0  0
    4.4830    3.4610  -10.7235 H   0  0  0  0  0  0  0  0  0  0  0  0
    4.3298    3.4822   -8.9045 H   0  0  0  0  0  0  0  0  0  0  0  0
    7.0128    4.1399   -9.5083 H   0  0  0  0  0  0  0  0  0  0  0  0
    5.9368    5.1153  -10.6154 H   0  0  0  0  0  0  0  0  0  0  0  0
    6.3771    6.3958   -8.6214 H   0  0  0  0  0  0  0  0  0  0  0  0
    4.6401    5.8302   -8.6422 H   0  0  0  0  0  0  0  0  0  0  0  0
    5.7592    3.8354   -7.2247 H   0  0  0  0  0  0  0  0  0  0  0  0
    6.8435    5.2317   -6.7660 H   0  0  0  0  0  0  0  0  0  0  0  0
    4.8008    4.7435   -5.2745 H   0  0  0  0  0  0  0  0  0  0  0  0
    5.1095    6.4509   -5.8447 H   0  0  0  0  0  0  0  0  0  0  0  0
    3.0114    6.5304   -6.5346 H   0  0  0  0  0  0  0  0  0  0  0  0
    3.4703    5.2773   -7.7814 H   0  0  0  0  0  0  0  0  0  0  0  0
    2.6275    4.4511   -5.0063 H   0  0  0  0  0  0  0  0  0  0  0  0
    1.4070    4.8668   -6.2995 H   0  0  0  0  0  0  0  0  0  0  0  0
    1.5674    2.8174   -7.0990 H   0  0  0  0  0  0  0  0  0  0  0  0
    3.3312    3.1361   -7.4445 H   0  0  0  0  0  0  0  0  0  0  0  0
    4.0547    2.0012   -5.6161 H   0  0  0  0  0  0  0  0  0  0  0  0
    2.5198    2.3444   -4.6849 H   0  0  0  0  0  0  0  0  0  0  0  0
    1.4751    0.5146   -5.4297 H   0  0  0  0  0  0  0  0  0  0  0  0
    2.3272    0.5953   -7.0572 H   0  0  0  0  0  0  0  0  0  0  0  0
  1  2  1  0
  2  3  1  0
  3  4  1  0
  4  5  1  0
  5  6  1  0
  6  7  1  0
  7  8  1  0
  8  9  1  0
  9 10  1  0
 10 11  1  0
 11 12  1  0
 12 13  1  0
 13 14  1  0
 14 15  2  0
 14 16  1  0
  1 17  1  0
  1 18  1  0
  1 19  1  0
  2 20  1  0
  2 21  1  0
  3 22  1  0
  3 23  1  0
  4 24  1  0
  4 25  1  0
  5 26  1  0
  5 27  1  0
  6 28  1  0
  6 29  1  0
  7 30  1  0
  7 31  1  0
  8 32  1  0
  8 33  1  0
  9 34  1  0
  9 35  1  0
 10 36  1  0
 10 37  1  0
 11 38  1  0
 11 39  1  0
 12 40  1  0
 12 41  1  0
 13 42  1  0
 13 43  1  0
M  CHG  1  16  -1
M  END
>  <meeko>  (6) 
{"is_sidechain": [false], "free_energy": -4.769, "intermolecular_energy": -7.852, "internal_energy": -1.818}

$$$$
3uev_ligand
     RDKit          3D

 43 42  0  0  0  0  0  0  0  0999 V2000
    3.1010    3.8760   -5.9000 C   0  0  0  0  0  0  0  0  0  0  0  0
    1.9840    4.7720   -5.3900 C   0  0  0  0  0  0  0  0  0  0  0  0
    0.8540    3.9520   -4.7650 C   0  0  0  0  0  0  0  0  0  0  0  0
   -0.4170    3.9090   -5.6230 C   0  0  0  0  0  0  0  0  0  0  0  0
   -0.3710    2.8420   -6.7210 C   0  0  0  0  0  0  0  0  0  0  0  0
   -1.1730    3.2210   -7.9720 C   0  0  0  0  0  0  0  0  0  0  0  0
   -2.4590    2.4060   -8.1410 C   0  0  0  0  0  0  0  0  0  0  0  0
   -2.3030    0.9330   -7.7440 C   0  0  0  0  0  0  0  0  0  0  0  0
   -3.2450    0.5020   -6.6170 C   0  0  0  0  0  0  0  0  0  0  0  0
   -4.6830    1.0000   -6.8010 C   0  0  0  0  0  0  0  0  0  0  0  0
   -5.2870    1.6020   -5.5290 C   0  0  0  0  0  0  0  0  0  0  0  0
   -4.7950    3.0250   -5.2390 C   0  0  0  0  0  0  0  0  0  0  0  0
   -3.7980    3.1020   -4.0860 C   0  0  0  0  0  0  0  0  0  0  0  0
   -4.3520    3.7060   -2.7900 C   0  0  0  0  0  0  0  0  0  0  0  0
   -4.7530    4.9000   -2.8480 O   0  0  0  0  0  0  0  0  0  0  0  0
   -4.3430    2.9110   -1.8070 O   0  0  0  0  0  0  0  0  0  0  0  0
    3.6419    3.4421   -5.0460 H   0  0  0  0  0  0  0  0  0  0  0  0
    2.6727    3.0681   -6.5115 H   0  0  0  0  0  0  0  0  0  0  0  0
    3.7967    4.4693   -6.5115 H   0  0  0  0  0  0  0  0  0  0  0  0
    2.3918    5.4563   -4.6314 H   0  0  0  0  0  0  0  0  0  0  0  0
    1.5742    5.3344   -6.2419 H   0  0  0  0  0  0  0  0  0  0  0  0
    1.2108    2.9217   -4.6192 H   0  0  0  0  0  0  0  0  0  0  0  0
    0.5874    4.4392   -3.8155 H   0  0  0  0  0  0  0  0  0  0  0  0
   -1.2742    3.6980   -4.9668 H   0  0  0  0  0  0  0  0  0  0  0  0
   -0.5069    4.8856   -6.1213 H   0  0  0  0  0  0  0  0  0  0  0  0
    0.6782    2.6871   -7.0130 H   0  0  0  0  0  0  0  0  0  0  0  0
   -0.8262    1.9301   -6.3072 H   0  0  0  0  0  0  0  0  0  0  0  0
   -1.4414    4.2856   -7.9047 H   0  0  0  0  0  0  0  0  0  0  0  0
   -0.5362    3.0066   -8.8429 H   0  0  0  0  0  0  0  0  0  0  0  0
   -3.2418    2.8555   -7.5124 H   0  0  0  0  0  0  0  0  0  0  0  0
   -2.7197    2.4285   -9.2094 H   0  0  0  0  0  0  0  0  0  0  0  0
   -2.5089    0.3105   -8.6273 H   0  0  0  0  0  0  0  0  0  0  0  0
   -1.2751    0.8044   -7.3739 H   0  0  0  0  0  0  0  0  0  0  0  0
   -3.2593   -0.5971   -6.5758 H   0  0  0  0  0  0  0  0  0  0  0  0
   -2.8636    0.9482   -5.6867 H   0  0  0  0  0  0  0  0  0  0  0  0
   -4.6873    1.7697   -7.5868 H   0  0  0  0  0  0  0  0  0  0  0  0
   -5.2964    0.1273   -7.0695 H   0  0  0  0  0  0  0  0  0  0  0  0
   -6.3811    1.6266   -5.6398 H   0  0  0  0  0  0  0  0  0  0  0  0
   -4.9699    0.9695   -4.6867 H   0  0  0  0  0  0  0  0  0  0  0  0
   -4.3101    3.4171   -6.1452 H   0  0  0  0  0  0  0  0  0  0  0  0
   -5.6742    3.6177   -4.9462 H   0  0  0  0  0  0  0  0  0  0  0  0
   -3.4511    2.0816   -3.8660 H   0  0  0  0  0  0  0  0  0  0  0  0
   -2.9936    3.7741   -4.4193 H   0  0  0  0  0  0  0  0  0  0  0  0
  1  2  1  0
  2  3  1  0
  3  4  1  0
  4  5  1  0
  5  6  1  0
  6  7  1  0
  7  8  1  0
  8  9  1  0
  9 10  1  0
 10 11  1  0
 11 12  1  0
 12 13  1  0
 13 14  1  0
 14 15  2  0
 14 16  1  0
  1 17  1  0
  1 18  1  0
  1 19  1  0
  2 20  1  0
  2 21  1  0
  3 22  1  0
  3 23  1  0
  4 24  1  0
  4 25  1  0
  5 26  1  0
  5 27  1  0
  6 28  1  0
  6 29  1  0
  7 30  1  0
  7 31  1  0
  8 32  1  0
  8 33  1  0
  9 34  1  0
  9 35  1  0
 10 36  1  0
 10 37  1  0
 11 38  1  0
 11 39  1  0
 12 40  1  0
 12 41  1  0
 13 42  1  0
 13 43  1  0
M  CHG  1  16  -1
M  END
>  <meeko>  (7) 
{"is_sidechain": [false], "free_energy": -4.744, "intermolecular_energy": -8.428, "internal_energy": -1.198}

$$$$
3uev_ligand
     RDKit          3D

 43 42  0  0  0  0  0  0  0  0999 V2000
    3.6860   -0.5370   -4.3940 C   0  0  0  0  0  0  0  0  0  0  0  0
    3.0590   -1.4970   -5.3920 C   0  0  0  0  0  0  0  0  0  0  0  0
    3.4360   -1.1330   -6.8290 C   0  0  0  0  0  0  0  0  0  0  0  0
    4.7100   -0.2860   -6.9300 C   0  0  0  0  0  0  0  0  0  0  0  0
    4.5360    0.9710   -7.7870 C   0  0  0  0  0  0  0  0  0  0  0  0
    4.7400    2.2750   -7.0050 C   0  0  0  0  0  0  0  0  0  0  0  0
    3.4720    3.1270   -6.9020 C   0  0  0  0  0  0  0  0  0  0  0  0
    2.2940    2.3920   -6.2520 C   0  0  0  0  0  0  0  0  0  0  0  0
    2.0020    2.8530   -4.8220 C   0  0  0  0  0  0  0  0  0  0  0  0
    1.0200    4.0280   -4.7490 C   0  0  0  0  0  0  0  0  0  0  0  0
   -0.0260    4.0180   -5.8680 C   0  0  0  0  0  0  0  0  0  0  0  0
   -1.2830    3.2150   -5.5160 C   0  0  0  0  0  0  0  0  0  0  0  0
   -2.0990    2.7930   -6.7350 C   0  0  0  0  0  0  0  0  0  0  0  0
   -2.2240    1.2790   -6.9380 C   0  0  0  0  0  0  0  0  0  0  0  0
   -2.3300    0.5740   -5.8970 O   0  0  0  0  0  0  0  0  0  0  0  0
   -2.2110    0.9190   -8.1510 O   0  0  0  0  0  0  0  0  0  0  0  0
    3.4649   -0.8755   -3.3710 H   0  0  0  0  0  0  0  0  0  0  0  0
    4.7754   -0.5115   -4.5444 H   0  0  0  0  0  0  0  0  0  0  0  0
    3.2714    0.4707   -4.5444 H   0  0  0  0  0  0  0  0  0  0  0  0
    3.4107   -2.5169   -5.1771 H   0  0  0  0  0  0  0  0  0  0  0  0
    1.9653   -1.4326   -5.2941 H   0  0  0  0  0  0  0  0  0  0  0  0
    3.5905   -2.0635   -7.3950 H   0  0  0  0  0  0  0  0  0  0  0  0
    2.6122   -0.5290   -7.2371 H   0  0  0  0  0  0  0  0  0  0  0  0
    5.0063    0.0211   -5.9161 H   0  0  0  0  0  0  0  0  0  0  0  0
    5.4765   -0.9076   -7.4158 H   0  0  0  0  0  0  0  0  0  0  0  0
    5.2685    0.9380   -8.6070 H   0  0  0  0  0  0  0  0  0  0  0  0
    3.4994    0.9720   -8.1550 H   0  0  0  0  0  0  0  0  0  0  0  0
    5.0743    2.0229   -5.9878 H   0  0  0  0  0  0  0  0  0  0  0  0
    5.4866    2.8688   -7.5528 H   0  0  0  0  0  0  0  0  0  0  0  0
    3.7000    4.0197   -6.3011 H   0  0  0  0  0  0  0  0  0  0  0  0
    3.1686    3.3819   -7.9281 H   0  0  0  0  0  0  0  0  0  0  0  0
    1.3960    2.5638   -6.8636 H   0  0  0  0  0  0  0  0  0  0  0  0
    2.5654    1.3273   -6.2001 H   0  0  0  0  0  0  0  0  0  0  0  0
    1.5754    2.0069   -4.2633 H   0  0  0  0  0  0  0  0  0  0  0  0
    2.9536    3.1983   -4.3917 H   0  0  0  0  0  0  0  0  0  0  0  0
    0.4967    3.9854   -3.7824 H   0  0  0  0  0  0  0  0  0  0  0  0
    1.6086    4.9502   -4.8633 H   0  0  0  0  0  0  0  0  0  0  0  0
   -0.3225    5.0563   -6.0780 H   0  0  0  0  0  0  0  0  0  0  0  0
    0.4358    3.5339   -6.7412 H   0  0  0  0  0  0  0  0  0  0  0  0
   -0.9763    2.3094   -4.9722 H   0  0  0  0  0  0  0  0  0  0  0  0
   -1.9250    3.8700   -4.9087 H   0  0  0  0  0  0  0  0  0  0  0  0
   -3.1122    3.2077   -6.6277 H   0  0  0  0  0  0  0  0  0  0  0  0
   -1.5605    3.1777   -7.6137 H   0  0  0  0  0  0  0  0  0  0  0  0
  1  2  1  0
  2  3  1  0
  3  4  1  0
  4  5  1  0
  5  6  1  0
  6  7  1  0
  7  8  1  0
  8  9  1  0
  9 10  1  0
 10 11  1  0
 11 12  1  0
 12 13  1  0
 13 14  1  0
 14 15  2  0
 14 16  1  0
  1 17  1  0
  1 18  1  0
  1 19  1  0
  2 20  1  0
  2 21  1  0
  3 22  1  0
  3 23  1  0
  4 24  1  0
  4 25  1  0
  5 26  1  0
  5 27  1  0
  6 28  1  0
  6 29  1  0
  7 30  1  0
  7 31  1  0
  8 32  1  0
  8 33  1  0
  9 34  1  0
  9 35  1  0
 10 36  1  0
 10 37  1  0
 11 38  1  0
 11 39  1  0
 12 40  1  0
 12 41  1  0
 13 42  1  0
 13 43  1  0
M  CHG  1  16  -1
M  END
>  <meeko>  (8) 
{"is_sidechain": [false], "free_energy": -4.66, "intermolecular_energy": -8.238, "internal_energy": -1.244}

$$$$
3uev_ligand
     RDKit          3D

 43 42  0  0  0  0  0  0  0  0999 V2000
   -5.8490    1.2950   -7.4100 C   0  0  0  0  0  0  0  0  0  0  0  0
   -4.5930    0.5170   -7.0510 C   0  0  0  0  0  0  0  0  0  0  0  0
   -3.6730    1.3340   -6.1420 C   0  0  0  0  0  0  0  0  0  0  0  0
   -2.3020    0.6850   -5.9170 C   0  0  0  0  0  0  0  0  0  0  0  0
   -1.1350    1.5490   -6.4030 C   0  0  0  0  0  0  0  0  0  0  0  0
   -1.5170    2.5030   -7.5420 C   0  0  0  0  0  0  0  0  0  0  0  0
   -0.7470    3.8260   -7.5120 C   0  0  0  0  0  0  0  0  0  0  0  0
   -0.4060    4.3000   -6.0940 C   0  0  0  0  0  0  0  0  0  0  0  0
    0.7400    5.3150   -6.0510 C   0  0  0  0  0  0  0  0  0  0  0  0
    2.1190    4.6690   -5.8700 C   0  0  0  0  0  0  0  0  0  0  0  0
    2.0540    3.2310   -5.3470 C   0  0  0  0  0  0  0  0  0  0  0  0
    2.9660    2.2660   -6.1120 C   0  0  0  0  0  0  0  0  0  0  0  0
    2.6070    0.7970   -5.9090 C   0  0  0  0  0  0  0  0  0  0  0  0
    3.7880   -0.1170   -5.5600 C   0  0  0  0  0  0  0  0  0  0  0  0
    4.6880   -0.2380   -6.4340 O   0  0  0  0  0  0  0  0  0  0  0  0
    3.7120   -0.6400   -4.4110 O   0  0  0  0  0  0  0  0  0  0  0  0
   -6.3601    1.6116   -6.4888 H   0  0  0  0  0  0  0  0  0  0  0  0
   -5.5749    2.1817   -8.0005 H   0  0  0  0  0  0  0  0  0  0  0  0
   -6.5208    0.6546   -8.0005 H   0  0  0  0  0  0  0  0  0  0  0  0
   -4.8813   -0.4082   -6.5305 H   0  0  0  0  0  0  0  0  0  0  0  0
   -4.0493    0.2884   -7.9795 H   0  0  0  0  0  0  0  0  0  0  0  0
   -3.5194    2.3224   -6.5998 H   0  0  0  0  0  0  0  0  0  0  0  0
   -4.1644    1.4008   -5.1601 H   0  0  0  0  0  0  0  0  0  0  0  0
   -2.1754    0.5013   -4.8399 H   0  0  0  0  0  0  0  0  0  0  0  0
   -2.2829   -0.2465   -6.5018 H   0  0  0  0  0  0  0  0  0  0  0  0
   -0.7671    2.1467   -5.5560 H   0  0  0  0  0  0  0  0  0  0  0  0
   -0.3664    0.8665   -6.7947 H   0  0  0  0  0  0  0  0  0  0  0  0
   -1.3121    2.0021   -8.4997 H   0  0  0  0  0  0  0  0  0  0  0  0
   -2.5829    2.7451   -7.4187 H   0  0  0  0  0  0  0  0  0  0  0  0
    0.1912    3.6962   -8.0713 H   0  0  0  0  0  0  0  0  0  0  0  0
   -1.3971    4.5905   -7.9625 H   0  0  0  0  0  0  0  0  0  0  0  0
   -1.3015    4.7665   -5.6575 H   0  0  0  0  0  0  0  0  0  0  0  0
   -0.0787    3.4165   -5.5263 H   0  0  0  0  0  0  0  0  0  0  0  0
    0.7408    5.8802   -6.9947 H   0  0  0  0  0  0  0  0  0  0  0  0
    0.5677    5.9627   -5.1787 H   0  0  0  0  0  0  0  0  0  0  0  0
    2.6315    4.6631   -6.8433 H   0  0  0  0  0  0  0  0  0  0  0  0
    2.6595    5.2633   -5.1186 H   0  0  0  0  0  0  0  0  0  0  0  0
    2.3544    3.2304   -4.2888 H   0  0  0  0  0  0  0  0  0  0  0  0
    1.0204    2.8807   -5.4847 H   0  0  0  0  0  0  0  0  0  0  0  0
    2.8943    2.4966   -7.1852 H   0  0  0  0  0  0  0  0  0  0  0  0
    3.9847    2.4064   -5.7215 H   0  0  0  0  0  0  0  0  0  0  0  0
    1.8741    0.7348   -5.0911 H   0  0  0  0  0  0  0  0  0  0  0  0
    2.2167    0.4400   -6.8735 H   0  0  0  0  0  0  0  0  0  0  0  0
  1  2  1  0
  2  3  1  0
  3  4  1  0
  4  5  1  0
  5  6  1  0
  6  7  1  0
  7  8  1  0
  8  9  1  0
  9 10  1  0
 10 11  1  0
 11 12  1  0
 12 13  1  0
 13 14  1  0
 14 15  2  0
 14 16  1  0
  1 17  1  0
  1 18  1  0
  1 19  1  0
  2 20  1  0
  2 21  1  0
  3 22  1  0
  3 23  1  0
  4 24  1  0
  4 25  1  0
  5 26  1  0
  5 27  1  0
  6 28  1  0
  6 29  1  0
  7 30  1  0
  7 31  1  0
  8 32  1  0
  8 33  1  0
  9 34  1  0
  9 35  1  0
 10 36  1  0
 10 37  1  0
 11 38  1  0
 11 39  1  0
 12 40  1  0
 12 41  1  0
 13 42  1  0
 13 43  1  0
M  CHG  1  16  -1
M  END
>  <meeko>  (9) 
{"is_sidechain": [false], "free_energy": -4.652, "intermolecular_energy": -8.344, "internal_energy": -1.124}

$$$$
