
     RDKit          3D

 19 22  0  0  0  0  0  0  0  0999 V2000
   -0.1600   -7.5860    4.2000 C   0  0  0  0  0  0  0  0  0  0  0  0
   -1.1150   -6.7980    4.9980 C   0  0  0  0  0  0  0  0  0  0  0  0
   -2.0610   -6.0130    4.3630 C   0  0  0  0  0  0  0  0  0  0  0  0
   -3.1140   -5.2860    5.1160 C   0  0  1  0  0  0  0  0  0  0  0  0
   -4.4190   -6.0640    5.1760 C   0  0  0  0  0  0  0  0  0  0  0  0
   -4.3410   -7.2460    6.0940 C   0  0  0  0  0  0  0  0  0  0  0  0
   -5.2620   -8.2250    5.9390 N   0  0  0  0  0  0  0  0  0  0  0  0
   -5.2550   -9.3520    6.7160 C   0  0  0  0  0  0  0  0  0  0  0  0
   -6.1120  -10.2140    6.5110 O   0  0  0  0  0  0  0  0  0  0  0  0
   -4.2680   -9.4850    7.7000 C   0  0  0  0  0  0  0  0  0  0  0  0
   -3.3310   -8.5070    7.8640 C   0  0  0  0  0  0  0  0  0  0  0  0
   -3.3380   -7.3710    7.0600 C   0  0  0  0  0  0  0  0  0  0  0  0
   -2.2570   -6.3410    7.2020 C   0  0  2  0  0  0  0  0  0  0  0  0
   -0.9910   -6.8600    6.4910 C   0  0  0  0  0  0  0  0  0  0  0  0
   -1.9820   -6.0690    8.6310 N   0  0  0  0  0  0  0  0  0  0  0  0
   -2.9780   -5.2730    9.3500 C   0  0  0  0  0  0  0  0  0  0  0  0
   -3.0970   -3.9240    8.6910 C   0  0  0  0  0  0  0  0  0  0  0  0
   -3.5480   -4.1020    7.2850 C   0  0  0  0  0  0  0  0  0  0  0  0
   -2.6130   -5.0040    6.5020 C   0  0  2  0  0  0  0  0  0  0  0  0
  2  1  1  0
  3  2  2  0
  4  3  1  0
  4  5  1  1
  6  5  1  0
  7  6  1  0
  8  7  1  0
  9  8  2  0
 10  8  1  0
 11 10  2  0
 12 11  1  0
 12  6  2  0
 13 12  1  0
 14  2  1  0
 13 14  1  6
 15 13  1  0
 16 15  1  0
 17 16  1  0
 18 17  1  0
 19 13  1  0
 19  4  1  0
 19 18  1  1
M  CHG  1  15   1
M  END
$$$$
