4m0z_ligand
     RDKit          3D

 39 41  0  0  0  0  0  0  0  0999 V2000
   11.4880   -7.8490    1.5200 C   0  0  0  0  0  0  0  0  0  0  0  0
   10.3260   -8.6540    1.3660 O   0  0  0  0  0  0  0  0  0  0  0  0
    9.6880   -8.5990    0.1580 C   0  0  0  0  0  0  0  0  0  0  0  0
   10.2980   -8.4970   -1.0820 C   0  0  0  0  0  0  0  0  0  0  0  0
    9.5140   -8.5000   -2.2360 C   0  0  0  0  0  0  0  0  0  0  0  0
    8.1140   -8.5840   -2.1710 C   0  0  0  0  0  0  0  0  0  0  0  0
    7.3870   -8.6540   -3.3680 C   0  0  0  0  0  0  0  0  0  0  0  0
    6.0030   -8.7840   -3.3610 C   0  0  0  0  0  0  0  0  0  0  0  0
    5.3230   -8.7990   -2.1500 C   0  0  0  0  0  0  0  0  0  0  0  0
    6.0190   -8.6750   -0.9310 C   0  0  0  0  0  0  0  0  0  0  0  0
    5.2140   -8.5680    0.2440 N   0  0  0  0  0  0  0  0  0  0  0  0
    4.8100   -7.4340    0.9100 C   0  0  0  0  0  0  0  0  0  0  0  0
    4.0660   -7.8300    1.9920 C   0  0  0  0  0  0  0  0  0  0  0  0
    3.4750   -7.0480    2.9690 N   0  0  0  0  0  0  0  0  0  0  0  0
    3.9580   -6.8460    4.2310 C   0  0  0  0  0  0  0  0  0  0  0  0
    3.1690   -6.0000    4.9560 N   0  0  0  0  0  0  0  0  0  0  0  0
    4.9610   -7.3280    4.7380 O   0  0  0  0  0  0  0  0  0  0  0  0
    3.9930   -9.2410    1.8800 C   0  0  0  0  0  0  0  0  0  0  0  0
    3.2890  -10.1550    2.7860 C   0  0  0  0  0  0  0  0  0  0  0  0
    3.9070  -11.3580    2.9740 N   0  0  0  0  0  0  0  0  0  0  0  0
    2.2300   -9.8740    3.3410 O   0  0  0  0  0  0  0  0  0  0  0  0
    4.6480   -9.6850    0.7900 N   0  0  0  0  0  0  0  0  0  0  0  0
    7.4500   -8.6220   -0.9170 C   0  0  0  0  0  0  0  0  0  0  0  0
    8.2910   -8.6720    0.2300 C   0  0  0  0  0  0  0  0  0  0  0  0
   11.6953   -7.7054    2.5907 H   0  0  0  0  0  0  0  0  0  0  0  0
   12.3453   -8.3477    1.0442 H   0  0  0  0  0  0  0  0  0  0  0  0
   11.3223   -6.8712    1.0442 H   0  0  0  0  0  0  0  0  0  0  0  0
   11.3924   -8.4143   -1.1559 H   0  0  0  0  0  0  0  0  0  0  0  0
   10.0037   -8.4351   -3.2189 H   0  0  0  0  0  0  0  0  0  0  0  0
    7.9208   -8.6052   -4.3286 H   0  0  0  0  0  0  0  0  0  0  0  0
    5.4503   -8.8743   -4.3078 H   0  0  0  0  0  0  0  0  0  0  0  0
    4.2285   -8.9089   -2.1424 H   0  0  0  0  0  0  0  0  0  0  0  0
    5.0418   -6.3969    0.6260 H   0  0  0  0  0  0  0  0  0  0  0  0
    2.5530   -6.6810    2.7510 H   0  0  0  0  0  0  0  0  0  0  0  0
    2.7650   -5.2170    4.4640 H   0  0  0  0  0  0  0  0  0  0  0  0
    3.5790   -5.7630    5.8510 H   0  0  0  0  0  0  0  0  0  0  0  0
    3.5130  -12.0350    3.6100 H   0  0  0  0  0  0  0  0  0  0  0  0
    4.7970  -11.5250    2.5190 H   0  0  0  0  0  0  0  0  0  0  0  0
    7.8218   -8.7727    1.2198 H   0  0  0  0  0  0  0  0  0  0  0  0
  1  2  1  0
  2  3  1  0
  3  4  2  0
  4  5  1  0
  5  6  2  0
  6  7  1  0
  7  8  2  0
  8  9  1  0
  9 10  2  0
 10 11  1  0
 11 12  1  0
 12 13  2  0
 13 14  1  0
 14 15  1  0
 15 16  1  0
 15 17  2  0
 13 18  1  0
 18 19  1  0
 19 20  1  0
 19 21  2  0
 18 22  2  0
 10 23  1  0
 23 24  2  0
 24  3  1  0
 23  6  1  0
 22 11  1  0
  1 25  1  0
  1 26  1  0
  1 27  1  0
  4 28  1  0
  5 29  1  0
  7 30  1  0
  8 31  1  0
  9 32  1  0
 12 33  1  0
 14 34  1  0
 16 35  1  0
 16 36  1  0
 20 37  1  0
 20 38  1  0
 24 39  1  0
M  END
>  <meeko>  (1) 
{"is_sidechain": [false], "free_energy": -8.736, "intermolecular_energy": -10.779, "internal_energy": -0.973}

$$$$
4m0z_ligand
     RDKit          3D

 39 41  0  0  0  0  0  0  0  0999 V2000
    2.9470   -9.7030   -2.0900 C   0  0  0  0  0  0  0  0  0  0  0  0
    3.8960   -9.7160   -1.0320 O   0  0  0  0  0  0  0  0  0  0  0  0
    5.2070   -9.5200   -1.3700 C   0  0  0  0  0  0  0  0  0  0  0  0
    5.7650   -9.7290   -2.6220 C   0  0  0  0  0  0  0  0  0  0  0  0
    7.1140   -9.4390   -2.8300 C   0  0  0  0  0  0  0  0  0  0  0  0
    7.9290   -8.9610   -1.7920 C   0  0  0  0  0  0  0  0  0  0  0  0
    9.2590   -8.6220   -2.0810 C   0  0  0  0  0  0  0  0  0  0  0  0
   10.0960   -8.1010   -1.1020 C   0  0  0  0  0  0  0  0  0  0  0  0
    9.6250   -7.9540    0.1960 C   0  0  0  0  0  0  0  0  0  0  0  0
    8.3110   -8.3370    0.5330 C   0  0  0  0  0  0  0  0  0  0  0  0
    7.9710   -8.2700    1.9190 N   0  0  0  0  0  0  0  0  0  0  0  0
    8.3660   -9.1000    2.9430 C   0  0  0  0  0  0  0  0  0  0  0  0
    7.7750   -8.6500    4.0940 C   0  0  0  0  0  0  0  0  0  0  0  0
    7.8500   -9.1810    5.3710 N   0  0  0  0  0  0  0  0  0  0  0  0
    8.7270   -8.7960    6.3450 C   0  0  0  0  0  0  0  0  0  0  0  0
    8.5380   -9.4840    7.5090 N   0  0  0  0  0  0  0  0  0  0  0  0
    9.6110   -7.9540    6.2710 O   0  0  0  0  0  0  0  0  0  0  0  0
    7.0790   -7.4770    3.7060 C   0  0  0  0  0  0  0  0  0  0  0  0
    6.2910   -6.6000    4.5770 C   0  0  0  0  0  0  0  0  0  0  0  0
    4.9990   -6.4130    4.1780 N   0  0  0  0  0  0  0  0  0  0  0  0
    6.7420   -6.0700    5.5900 O   0  0  0  0  0  0  0  0  0  0  0  0
    7.2420   -7.2180    2.3940 N   0  0  0  0  0  0  0  0  0  0  0  0
    7.4100   -8.7990   -0.4800 C   0  0  0  0  0  0  0  0  0  0  0  0
    6.0180   -9.0540   -0.3280 C   0  0  0  0  0  0  0  0  0  0  0  0
    1.9303   -9.6891   -1.6704 H   0  0  0  0  0  0  0  0  0  0  0  0
    3.1004   -8.8069   -2.7092 H   0  0  0  0  0  0  0  0  0  0  0  0
    3.0758  -10.6030   -2.7092 H   0  0  0  0  0  0  0  0  0  0  0  0
    5.1490  -10.1204   -3.4450 H   0  0  0  0  0  0  0  0  0  0  0  0
    7.5483   -9.5883   -3.8295 H   0  0  0  0  0  0  0  0  0  0  0  0
    9.6459   -8.7711   -3.0999 H   0  0  0  0  0  0  0  0  0  0  0  0
   11.1256   -7.8067   -1.3536 H   0  0  0  0  0  0  0  0  0  0  0  0
   10.2846   -7.5341    0.9697 H   0  0  0  0  0  0  0  0  0  0  0  0
    9.0355   -9.9682    2.8535 H   0  0  0  0  0  0  0  0  0  0  0  0
    7.2690   -9.9930    5.5520 H   0  0  0  0  0  0  0  0  0  0  0  0
    7.5850   -9.6860    7.7720 H   0  0  0  0  0  0  0  0  0  0  0  0
    9.1110   -9.1270    8.2640 H   0  0  0  0  0  0  0  0  0  0  0  0
    4.3720   -5.8540    4.7370 H   0  0  0  0  0  0  0  0  0  0  0  0
    4.6680   -6.9010    3.3530 H   0  0  0  0  0  0  0  0  0  0  0  0
    5.5573   -8.8765    0.6550 H   0  0  0  0  0  0  0  0  0  0  0  0
  1  2  1  0
  2  3  1  0
  3  4  2  0
  4  5  1  0
  5  6  2  0
  6  7  1  0
  7  8  2  0
  8  9  1  0
  9 10  2  0
 10 11  1  0
 11 12  1  0
 12 13  2  0
 13 14  1  0
 14 15  1  0
 15 16  1  0
 15 17  2  0
 13 18  1  0
 18 19  1  0
 19 20  1  0
 19 21  2  0
 18 22  2  0
 10 23  1  0
 23 24  2  0
 24  3  1  0
 23  6  1  0
 22 11  1  0
  1 25  1  0
  1 26  1  0
  1 27  1  0
  4 28  1  0
  5 29  1  0
  7 30  1  0
  8 31  1  0
  9 32  1  0
 12 33  1  0
 14 34  1  0
 16 35  1  0
 16 36  1  0
 20 37  1  0
 20 38  1  0
 24 39  1  0
M  END
>  <meeko>  (2) 
{"is_sidechain": [false], "free_energy": -8.572, "intermolecular_energy": -10.667, "internal_energy": -0.881}

$$$$
4m0z_ligand
     RDKit          3D

 39 41  0  0  0  0  0  0  0  0999 V2000
    3.4990   -8.7750   -3.0000 C   0  0  0  0  0  0  0  0  0  0  0  0
    4.6410   -8.3120   -3.7100 O   0  0  0  0  0  0  0  0  0  0  0  0
    5.8540   -8.4530   -3.0960 C   0  0  0  0  0  0  0  0  0  0  0  0
    7.0720   -8.6400   -3.7300 C   0  0  0  0  0  0  0  0  0  0  0  0
    8.2380   -8.7200   -2.9690 C   0  0  0  0  0  0  0  0  0  0  0  0
    8.2070   -8.6370   -1.5680 C   0  0  0  0  0  0  0  0  0  0  0  0
    9.4200   -8.6530   -0.8630 C   0  0  0  0  0  0  0  0  0  0  0  0
    9.4480   -8.5270    0.5200 C   0  0  0  0  0  0  0  0  0  0  0  0
    8.2550   -8.4290    1.2240 C   0  0  0  0  0  0  0  0  0  0  0  0
    7.0170   -8.4650    0.5520 C   0  0  0  0  0  0  0  0  0  0  0  0
    5.8520   -8.4910    1.3790 N   0  0  0  0  0  0  0  0  0  0  0  0
    5.1850   -7.4360    1.9590 C   0  0  0  0  0  0  0  0  0  0  0  0
    4.1360   -7.9520    2.6750 C   0  0  0  0  0  0  0  0  0  0  0  0
    3.2050   -7.2810    3.4510 N   0  0  0  0  0  0  0  0  0  0  0  0
    3.2480   -7.1430    4.8090 C   0  0  0  0  0  0  0  0  0  0  0  0
    2.2040   -6.4040    5.2850 N   0  0  0  0  0  0  0  0  0  0  0  0
    4.0770   -7.5980    5.5850 O   0  0  0  0  0  0  0  0  0  0  0  0
    4.1790   -9.3460    2.4230 C   0  0  0  0  0  0  0  0  0  0  0  0
    3.2540  -10.3580    2.9430 C   0  0  0  0  0  0  0  0  0  0  0  0
    3.7630  -11.6240    2.9890 N   0  0  0  0  0  0  0  0  0  0  0  0
    2.1120  -10.1020    3.3160 O   0  0  0  0  0  0  0  0  0  0  0  0
    5.1910   -9.6670    1.5940 N   0  0  0  0  0  0  0  0  0  0  0  0
    6.9710   -8.5120   -0.8790 C   0  0  0  0  0  0  0  0  0  0  0  0
    5.8140   -8.3790   -1.6970 C   0  0  0  0  0  0  0  0  0  0  0  0
    3.6844   -8.6998   -1.9183 H   0  0  0  0  0  0  0  0  0  0  0  0
    2.6272   -8.1593   -3.2663 H   0  0  0  0  0  0  0  0  0  0  0  0
    3.3021   -9.8240   -3.2663 H   0  0  0  0  0  0  0  0  0  0  0  0
    7.1188   -8.7247   -4.8257 H   0  0  0  0  0  0  0  0  0  0  0  0
    9.2041   -8.8511   -3.4783 H   0  0  0  0  0  0  0  0  0  0  0  0
   10.3647   -8.7672   -1.4148 H   0  0  0  0  0  0  0  0  0  0  0  0
   10.4093   -8.5050    1.0543 H   0  0  0  0  0  0  0  0  0  0  0  0
    8.2767   -8.3221    2.3186 H   0  0  0  0  0  0  0  0  0  0  0  0
    5.4463   -6.3716    1.8650 H   0  0  0  0  0  0  0  0  0  0  0  0
    2.3720   -6.9580    2.9680 H   0  0  0  0  0  0  0  0  0  0  0  0
    1.9120   -5.6130    4.7300 H   0  0  0  0  0  0  0  0  0  0  0  0
    2.2910   -6.2080    6.2750 H   0  0  0  0  0  0  0  0  0  0  0  0
    3.2100  -12.3780    3.3680 H   0  0  0  0  0  0  0  0  0  0  0  0
    4.7230  -11.7740    2.7020 H   0  0  0  0  0  0  0  0  0  0  0  0
    4.8430   -8.2102   -1.2084 H   0  0  0  0  0  0  0  0  0  0  0  0
  1  2  1  0
  2  3  1  0
  3  4  2  0
  4  5  1  0
  5  6  2  0
  6  7  1  0
  7  8  2  0
  8  9  1  0
  9 10  2  0
 10 11  1  0
 11 12  1  0
 12 13  2  0
 13 14  1  0
 14 15  1  0
 15 16  1  0
 15 17  2  0
 13 18  1  0
 18 19  1  0
 19 20  1  0
 19 21  2  0
 18 22  2  0
 10 23  1  0
 23 24  2  0
 24  3  1  0
 23  6  1  0
 22 11  1  0
  1 25  1  0
  1 26  1  0
  1 27  1  0
  4 28  1  0
  5 29  1  0
  7 30  1  0
  8 31  1  0
  9 32  1  0
 12 33  1  0
 14 34  1  0
 16 35  1  0
 16 36  1  0
 20 37  1  0
 20 38  1  0
 24 39  1  0
M  END
>  <meeko>  (3) 
{"is_sidechain": [false], "free_energy": -8.559, "intermolecular_energy": -10.553, "internal_energy": -0.981}

$$$$
4m0z_ligand
     RDKit          3D

 39 41  0  0  0  0  0  0  0  0999 V2000
    3.1940   -9.5740   -2.2330 C   0  0  0  0  0  0  0  0  0  0  0  0
    3.9570   -8.4010   -1.9780 O   0  0  0  0  0  0  0  0  0  0  0  0
    5.3170   -8.5390   -1.9470 C   0  0  0  0  0  0  0  0  0  0  0  0
    6.1150   -8.9820   -2.9910 C   0  0  0  0  0  0  0  0  0  0  0  0
    7.5000   -9.0250   -2.8260 C   0  0  0  0  0  0  0  0  0  0  0  0
    8.1070   -8.6500   -1.6170 C   0  0  0  0  0  0  0  0  0  0  0  0
    9.5070   -8.6480   -1.5370 C   0  0  0  0  0  0  0  0  0  0  0  0
   10.1590   -8.2420   -0.3790 C   0  0  0  0  0  0  0  0  0  0  0  0
    9.4150   -7.8750    0.7340 C   0  0  0  0  0  0  0  0  0  0  0  0
    8.0070   -7.9190    0.7060 C   0  0  0  0  0  0  0  0  0  0  0  0
    7.3430   -7.6500    1.9420 N   0  0  0  0  0  0  0  0  0  0  0  0
    6.2170   -6.8910    2.1670 C   0  0  0  0  0  0  0  0  0  0  0  0
    5.9660   -6.9110    3.5140 C   0  0  0  0  0  0  0  0  0  0  0  0
    4.9600   -6.2680    4.2170 N   0  0  0  0  0  0  0  0  0  0  0  0
    3.7290   -6.7870    4.5030 C   0  0  0  0  0  0  0  0  0  0  0  0
    2.9650   -5.9250    5.2360 N   0  0  0  0  0  0  0  0  0  0  0  0
    3.2770   -7.8750    4.1760 O   0  0  0  0  0  0  0  0  0  0  0  0
    6.9520   -7.7760    4.0520 C   0  0  0  0  0  0  0  0  0  0  0  0
    7.1110   -8.1520    5.4600 C   0  0  0  0  0  0  0  0  0  0  0  0
    7.9040   -9.2450    5.6710 N   0  0  0  0  0  0  0  0  0  0  0  0
    6.5840   -7.5430    6.3870 O   0  0  0  0  0  0  0  0  0  0  0  0
    7.7570   -8.2650    3.0890 N   0  0  0  0  0  0  0  0  0  0  0  0
    7.3170   -8.2560   -0.5040 C   0  0  0  0  0  0  0  0  0  0  0  0
    5.9150   -8.1740   -0.7340 C   0  0  0  0  0  0  0  0  0  0  0  0
    2.8959  -10.0322   -1.2784 H   0  0  0  0  0  0  0  0  0  0  0  0
    2.2951   -9.3087   -2.8089 H   0  0  0  0  0  0  0  0  0  0  0  0
    3.8009  -10.2882   -2.8089 H   0  0  0  0  0  0  0  0  0  0  0  0
    5.6599   -9.2970   -3.9416 H   0  0  0  0  0  0  0  0  0  0  0  0
    8.1306   -9.3605   -3.6625 H   0  0  0  0  0  0  0  0  0  0  0  0
   10.0989   -8.9732   -2.4053 H   0  0  0  0  0  0  0  0  0  0  0  0
   11.2580   -8.2116   -0.3445 H   0  0  0  0  0  0  0  0  0  0  0  0
    9.9306   -7.5461    1.6483 H   0  0  0  0  0  0  0  0  0  0  0  0
    5.6257   -6.3639    1.4038 H   0  0  0  0  0  0  0  0  0  0  0  0
    5.1270   -5.2930    4.4440 H   0  0  0  0  0  0  0  0  0  0  0  0
    3.4370   -5.3850    5.9460 H   0  0  0  0  0  0  0  0  0  0  0  0
    2.0960   -6.3460    5.5410 H   0  0  0  0  0  0  0  0  0  0  0  0
    8.0990   -9.5530    6.6110 H   0  0  0  0  0  0  0  0  0  0  0  0
    8.3420   -9.6900    4.8720 H   0  0  0  0  0  0  0  0  0  0  0  0
    5.2709   -7.8069    0.0786 H   0  0  0  0  0  0  0  0  0  0  0  0
  1  2  1  0
  2  3  1  0
  3  4  2  0
  4  5  1  0
  5  6  2  0
  6  7  1  0
  7  8  2  0
  8  9  1  0
  9 10  2  0
 10 11  1  0
 11 12  1  0
 12 13  2  0
 13 14  1  0
 14 15  1  0
 15 16  1  0
 15 17  2  0
 13 18  1  0
 18 19  1  0
 19 20  1  0
 19 21  2  0
 18 22  2  0
 10 23  1  0
 23 24  2  0
 24  3  1  0
 23  6  1  0
 22 11  1  0
  1 25  1  0
  1 26  1  0
  1 27  1  0
  4 28  1  0
  5 29  1  0
  7 30  1  0
  8 31  1  0
  9 32  1  0
 12 33  1  0
 14 34  1  0
 16 35  1  0
 16 36  1  0
 20 37  1  0
 20 38  1  0
 24 39  1  0
M  END
>  <meeko>  (4) 
{"is_sidechain": [false], "free_energy": -8.546, "intermolecular_energy": -10.883, "internal_energy": -0.635}

$$$$
4m0z_ligand
     RDKit          3D

 39 41  0  0  0  0  0  0  0  0999 V2000
   10.1570   -7.4370   -0.2730 C   0  0  0  0  0  0  0  0  0  0  0  0
    9.3710   -8.6170   -0.1530 O   0  0  0  0  0  0  0  0  0  0  0  0
    8.2750   -8.7190   -0.9630 C   0  0  0  0  0  0  0  0  0  0  0  0
    8.2910   -8.8520   -2.3430 C   0  0  0  0  0  0  0  0  0  0  0  0
    7.0870   -8.9940   -3.0330 C   0  0  0  0  0  0  0  0  0  0  0  0
    5.8520   -8.9820   -2.3650 C   0  0  0  0  0  0  0  0  0  0  0  0
    4.6810   -9.1990   -3.1060 C   0  0  0  0  0  0  0  0  0  0  0  0
    3.4380   -9.2430   -2.4880 C   0  0  0  0  0  0  0  0  0  0  0  0
    3.3450   -9.0240   -1.1200 C   0  0  0  0  0  0  0  0  0  0  0  0
    4.4950   -8.7480   -0.3540 C   0  0  0  0  0  0  0  0  0  0  0  0
    4.2730   -8.4070    1.0150 N   0  0  0  0  0  0  0  0  0  0  0  0
    4.6510   -7.2690    1.6900 C   0  0  0  0  0  0  0  0  0  0  0  0
    4.2320   -7.3980    2.9890 C   0  0  0  0  0  0  0  0  0  0  0  0
    4.4100   -6.5230    4.0480 N   0  0  0  0  0  0  0  0  0  0  0  0
    5.4580   -6.5330    4.9240 C   0  0  0  0  0  0  0  0  0  0  0  0
    5.3700   -5.5270    5.8430 N   0  0  0  0  0  0  0  0  0  0  0  0
    6.3990   -7.3130    4.9620 O   0  0  0  0  0  0  0  0  0  0  0  0
    3.5280   -8.6280    3.0190 C   0  0  0  0  0  0  0  0  0  0  0  0
    2.8590   -9.2250    4.1790 C   0  0  0  0  0  0  0  0  0  0  0  0
    1.6870   -9.8650    3.8940 N   0  0  0  0  0  0  0  0  0  0  0  0
    3.3060   -9.1660    5.3220 O   0  0  0  0  0  0  0  0  0  0  0  0
    3.5090   -9.2150    1.8070 N   0  0  0  0  0  0  0  0  0  0  0  0
    5.7930   -8.7790   -0.9610 C   0  0  0  0  0  0  0  0  0  0  0  0
    7.0460   -8.6950   -0.2910 C   0  0  0  0  0  0  0  0  0  0  0  0
   10.4080   -7.0601    0.7295 H   0  0  0  0  0  0  0  0  0  0  0  0
   11.0828   -7.6672   -0.8206 H   0  0  0  0  0  0  0  0  0  0  0  0
    9.5878   -6.6714   -0.8206 H   0  0  0  0  0  0  0  0  0  0  0  0
    9.2456   -8.8456   -2.8895 H   0  0  0  0  0  0  0  0  0  0  0  0
    7.1055   -9.1183   -4.1258 H   0  0  0  0  0  0  0  0  0  0  0  0
    4.7483   -9.3367   -4.1953 H   0  0  0  0  0  0  0  0  0  0  0  0
    2.5332   -9.4500   -3.0783 H   0  0  0  0  0  0  0  0  0  0  0  0
    2.3619   -9.0665   -0.6284 H   0  0  0  0  0  0  0  0  0  0  0  0
    5.1917   -6.4108    1.2643 H   0  0  0  0  0  0  0  0  0  0  0  0
    3.6380   -5.8910    4.2390 H   0  0  0  0  0  0  0  0  0  0  0  0
    5.0240   -4.6370    5.5160 H   0  0  0  0  0  0  0  0  0  0  0  0
    6.1970   -5.4640    6.4240 H   0  0  0  0  0  0  0  0  0  0  0  0
    1.1770  -10.3370    4.6250 H   0  0  0  0  0  0  0  0  0  0  0  0
    1.3810   -9.9140    2.9280 H   0  0  0  0  0  0  0  0  0  0  0  0
    7.0495   -8.6071    0.8055 H   0  0  0  0  0  0  0  0  0  0  0  0
  1  2  1  0
  2  3  1  0
  3  4  2  0
  4  5  1  0
  5  6  2  0
  6  7  1  0
  7  8  2  0
  8  9  1  0
  9 10  2  0
 10 11  1  0
 11 12  1  0
 12 13  2  0
 13 14  1  0
 14 15  1  0
 15 16  1  0
 15 17  2  0
 13 18  1  0
 18 19  1  0
 19 20  1  0
 19 21  2  0
 18 22  2  0
 10 23  1  0
 23 24  2  0
 24  3  1  0
 23  6  1  0
 22 11  1  0
  1 25  1  0
  1 26  1  0
  1 27  1  0
  4 28  1  0
  5 29  1  0
  7 30  1  0
  8 31  1  0
  9 32  1  0
 12 33  1  0
 14 34  1  0
 16 35  1  0
 16 36  1  0
 20 37  1  0
 20 38  1  0
 24 39  1  0
M  END
>  <meeko>  (5) 
{"is_sidechain": [false], "free_energy": -8.438, "intermolecular_energy": -10.553, "internal_energy": -0.831}

$$$$
4m0z_ligand
     RDKit          3D

 39 41  0  0  0  0  0  0  0  0999 V2000
    6.2730   -6.9960    3.4460 C   0  0  0  0  0  0  0  0  0  0  0  0
    4.9800   -7.1920    2.8870 O   0  0  0  0  0  0  0  0  0  0  0  0
    4.9010   -7.9630    1.7600 C   0  0  0  0  0  0  0  0  0  0  0  0
    3.7620   -8.5940    1.2830 C   0  0  0  0  0  0  0  0  0  0  0  0
    3.8240   -9.3110    0.0880 C   0  0  0  0  0  0  0  0  0  0  0  0
    5.0210   -9.4280   -0.6360 C   0  0  0  0  0  0  0  0  0  0  0  0
    5.0030  -10.1020   -1.8660 C   0  0  0  0  0  0  0  0  0  0  0  0
    6.1490  -10.2070   -2.6440 C   0  0  0  0  0  0  0  0  0  0  0  0
    7.3450   -9.6750   -2.1790 C   0  0  0  0  0  0  0  0  0  0  0  0
    7.4100   -9.0400   -0.9230 C   0  0  0  0  0  0  0  0  0  0  0  0
    8.7110   -8.6490   -0.4830 N   0  0  0  0  0  0  0  0  0  0  0  0
    9.2220   -8.6430    0.7950 C   0  0  0  0  0  0  0  0  0  0  0  0
   10.5080   -8.1720    0.7270 C   0  0  0  0  0  0  0  0  0  0  0  0
   11.4070   -7.9590    1.7580 N   0  0  0  0  0  0  0  0  0  0  0  0
   11.1990   -7.1610    2.8480 C   0  0  0  0  0  0  0  0  0  0  0  0
   12.2600   -7.1760    3.7070 N   0  0  0  0  0  0  0  0  0  0  0  0
   10.2180   -6.4760    3.1010 O   0  0  0  0  0  0  0  0  0  0  0  0
   10.7460   -7.9770   -0.6570 C   0  0  0  0  0  0  0  0  0  0  0  0
   11.9880   -7.4980   -1.2710 C   0  0  0  0  0  0  0  0  0  0  0  0
   11.9010   -7.2470   -2.6100 N   0  0  0  0  0  0  0  0  0  0  0  0
   13.0310   -7.3270   -0.6440 O   0  0  0  0  0  0  0  0  0  0  0  0
    9.6710   -8.3160   -1.3950 N   0  0  0  0  0  0  0  0  0  0  0  0
    6.2230   -8.8520   -0.1440 C   0  0  0  0  0  0  0  0  0  0  0  0
    6.1010   -8.0850    1.0480 C   0  0  0  0  0  0  0  0  0  0  0  0
    6.2033   -7.0066    4.5437 H   0  0  0  0  0  0  0  0  0  0  0  0
    6.9425   -7.8029    3.1133 H   0  0  0  0  0  0  0  0  0  0  0  0
    6.6733   -6.0269    3.1133 H   0  0  0  0  0  0  0  0  0  0  0  0
    2.8171   -8.5297    1.8425 H   0  0  0  0  0  0  0  0  0  0  0  0
    2.9142   -9.7958   -0.2957 H   0  0  0  0  0  0  0  0  0  0  0  0
    4.0655  -10.5551   -2.2205 H   0  0  0  0  0  0  0  0  0  0  0  0
    6.1097  -10.7084   -3.6223 H   0  0  0  0  0  0  0  0  0  0  0  0
    8.2511   -9.7503   -2.7981 H   0  0  0  0  0  0  0  0  0  0  0  0
    8.6939   -8.9591    1.7067 H   0  0  0  0  0  0  0  0  0  0  0  0
   12.3340   -8.3530    1.6300 H   0  0  0  0  0  0  0  0  0  0  0  0
   12.7300   -8.0590    3.8390 H   0  0  0  0  0  0  0  0  0  0  0  0
   12.0670   -6.6740    4.5650 H   0  0  0  0  0  0  0  0  0  0  0  0
   12.6970   -6.8790   -3.1090 H   0  0  0  0  0  0  0  0  0  0  0  0
   11.0070   -7.3720   -3.0720 H   0  0  0  0  0  0  0  0  0  0  0  0
    6.9913   -7.5630    1.4285 H   0  0  0  0  0  0  0  0  0  0  0  0
  1  2  1  0
  2  3  1  0
  3  4  2  0
  4  5  1  0
  5  6  2  0
  6  7  1  0
  7  8  2  0
  8  9  1  0
  9 10  2  0
 10 11  1  0
 11 12  1  0
 12 13  2  0
 13 14  1  0
 14 15  1  0
 15 16  1  0
 15 17  2  0
 13 18  1  0
 18 19  1  0
 19 20  1  0
 19 21  2  0
 18 22  2  0
 10 23  1  0
 23 24  2  0
 24  3  1  0
 23  6  1  0
 22 11  1  0
  1 25  1  0
  1 26  1  0
  1 27  1  0
  4 28  1  0
  5 29  1  0
  7 30  1  0
  8 31  1  0
  9 32  1  0
 12 33  1  0
 14 34  1  0
 16 35  1  0
 16 36  1  0
 20 37  1  0
 20 38  1  0
 24 39  1  0
M  END
>  <meeko>  (6) 
{"is_sidechain": [false], "free_energy": -8.402, "intermolecular_energy": -10.792, "internal_energy": -0.548}

$$$$
4m0z_ligand
     RDKit          3D

 39 41  0  0  0  0  0  0  0  0999 V2000
   12.9840   -7.5780    1.1860 C   0  0  0  0  0  0  0  0  0  0  0  0
   11.6090   -7.2650    1.3650 O   0  0  0  0  0  0  0  0  0  0  0  0
   10.7490   -7.6570    0.3770 C   0  0  0  0  0  0  0  0  0  0  0  0
   11.0370   -7.7210   -0.9770 C   0  0  0  0  0  0  0  0  0  0  0  0
   10.0680   -8.1890   -1.8650 C   0  0  0  0  0  0  0  0  0  0  0  0
    8.7940   -8.5770   -1.4220 C   0  0  0  0  0  0  0  0  0  0  0  0
    7.8870   -9.1040   -2.3540 C   0  0  0  0  0  0  0  0  0  0  0  0
    6.6300   -9.5450   -1.9600 C   0  0  0  0  0  0  0  0  0  0  0  0
    6.2440   -9.4220   -0.6320 C   0  0  0  0  0  0  0  0  0  0  0  0
    7.1100   -8.8460    0.3190 C   0  0  0  0  0  0  0  0  0  0  0  0
    6.5660   -8.6450    1.6250 N   0  0  0  0  0  0  0  0  0  0  0  0
    7.0990   -9.0030    2.8420 C   0  0  0  0  0  0  0  0  0  0  0  0
    6.2100   -8.6180    3.8130 C   0  0  0  0  0  0  0  0  0  0  0  0
    6.2960   -8.7940    5.1840 N   0  0  0  0  0  0  0  0  0  0  0  0
    6.7690   -7.8770    6.0790 C   0  0  0  0  0  0  0  0  0  0  0  0
    6.7010   -8.3290    7.3650 N   0  0  0  0  0  0  0  0  0  0  0  0
    7.2250   -6.7660    5.8470 O   0  0  0  0  0  0  0  0  0  0  0  0
    5.1750   -7.9540    3.1100 C   0  0  0  0  0  0  0  0  0  0  0  0
    3.9820   -7.3310    3.6920 C   0  0  0  0  0  0  0  0  0  0  0  0
    3.4390   -6.3280    2.9410 N   0  0  0  0  0  0  0  0  0  0  0  0
    3.4960   -7.6740    4.7670 O   0  0  0  0  0  0  0  0  0  0  0  0
    5.4180   -7.9250    1.7850 N   0  0  0  0  0  0  0  0  0  0  0  0
    8.4390   -8.4600   -0.0520 C   0  0  0  0  0  0  0  0  0  0  0  0
    9.4750   -8.0320    0.8240 C   0  0  0  0  0  0  0  0  0  0  0  0
   13.4660   -7.6877    2.1687 H   0  0  0  0  0  0  0  0  0  0  0  0
   13.0757   -8.5200    0.6254 H   0  0  0  0  0  0  0  0  0  0  0  0
   13.4744   -6.7685    0.6254 H   0  0  0  0  0  0  0  0  0  0  0  0
   12.0228   -7.4050   -1.3491 H   0  0  0  0  0  0  0  0  0  0  0  0
   10.3079   -8.2554   -2.9365 H   0  0  0  0  0  0  0  0  0  0  0  0
    8.1759   -9.1690   -3.4134 H   0  0  0  0  0  0  0  0  0  0  0  0
    5.9441   -9.9893   -2.6963 H   0  0  0  0  0  0  0  0  0  0  0  0
    5.2515   -9.7780   -0.3187 H   0  0  0  0  0  0  0  0  0  0  0  0
    8.0631   -9.5066    3.0064 H   0  0  0  0  0  0  0  0  0  0  0  0
    6.0830   -9.7250    5.5290 H   0  0  0  0  0  0  0  0  0  0  0  0
    5.8890   -8.8730    7.6170 H   0  0  0  0  0  0  0  0  0  0  0  0
    6.9480   -7.6140    8.0380 H   0  0  0  0  0  0  0  0  0  0  0  0
    2.5950   -5.8680    3.2460 H   0  0  0  0  0  0  0  0  0  0  0  0
    3.8590   -6.1080    2.0450 H   0  0  0  0  0  0  0  0  0  0  0  0
    9.2661   -7.9936    1.9033 H   0  0  0  0  0  0  0  0  0  0  0  0
  1  2  1  0
  2  3  1  0
  3  4  2  0
  4  5  1  0
  5  6  2  0
  6  7  1  0
  7  8  2  0
  8  9  1  0
  9 10  2  0
 10 11  1  0
 11 12  1  0
 12 13  2  0
 13 14  1  0
 14 15  1  0
 15 16  1  0
 15 17  2  0
 13 18  1  0
 18 19  1  0
 19 20  1  0
 19 21  2  0
 18 22  2  0
 10 23  1  0
 23 24  2  0
 24  3  1  0
 23  6  1  0
 22 11  1  0
  1 25  1  0
  1 26  1  0
  1 27  1  0
  4 28  1  0
  5 29  1  0
  7 30  1  0
  8 31  1  0
  9 32  1  0
 12 33  1  0
 14 34  1  0
 16 35  1  0
 16 36  1  0
 20 37  1  0
 20 38  1  0
 24 39  1  0
M  END
>  <meeko>  (7) 
{"is_sidechain": [false], "free_energy": -8.334, "intermolecular_energy": -10.54, "internal_energy": -0.716}

$$$$
4m0z_ligand
     RDKit          3D

 39 41  0  0  0  0  0  0  0  0999 V2000
   13.3020   -7.5560    0.9980 C   0  0  0  0  0  0  0  0  0  0  0  0
   11.9630   -7.0860    1.1010 O   0  0  0  0  0  0  0  0  0  0  0  0
   11.0780   -7.5190    0.1530 C   0  0  0  0  0  0  0  0  0  0  0  0
   11.3640   -7.7510   -1.1840 C   0  0  0  0  0  0  0  0  0  0  0  0
   10.3650   -8.2400   -2.0250 C   0  0  0  0  0  0  0  0  0  0  0  0
    9.0640   -8.4830   -1.5560 C   0  0  0  0  0  0  0  0  0  0  0  0
    8.1230   -9.0400   -2.4340 C   0  0  0  0  0  0  0  0  0  0  0  0
    6.8350   -9.3420   -2.0080 C   0  0  0  0  0  0  0  0  0  0  0  0
    6.4570   -9.0480   -0.7040 C   0  0  0  0  0  0  0  0  0  0  0  0
    7.3620   -8.4370    0.1870 C   0  0  0  0  0  0  0  0  0  0  0  0
    6.8320   -8.0560    1.4580 N   0  0  0  0  0  0  0  0  0  0  0  0
    5.7870   -7.2050    1.7350 C   0  0  0  0  0  0  0  0  0  0  0  0
    5.6550   -7.1370    3.0980 C   0  0  0  0  0  0  0  0  0  0  0  0
    4.7640   -6.3860    3.8450 N   0  0  0  0  0  0  0  0  0  0  0  0
    3.6580   -6.8660    4.4880 C   0  0  0  0  0  0  0  0  0  0  0  0
    2.9930   -5.8870    5.1680 N   0  0  0  0  0  0  0  0  0  0  0  0
    3.2350   -8.0130    4.5010 O   0  0  0  0  0  0  0  0  0  0  0  0
    6.6220   -8.0460    3.5970 C   0  0  0  0  0  0  0  0  0  0  0  0
    6.8790   -8.3620    5.0060 C   0  0  0  0  0  0  0  0  0  0  0  0
    7.6300   -9.4840    5.2090 N   0  0  0  0  0  0  0  0  0  0  0  0
    6.4630   -7.6800    5.9390 O   0  0  0  0  0  0  0  0  0  0  0  0
    7.3010   -8.6420    2.5980 N   0  0  0  0  0  0  0  0  0  0  0  0
    8.7160   -8.1930   -0.2100 C   0  0  0  0  0  0  0  0  0  0  0  0
    9.7800   -7.7490    0.6250 C   0  0  0  0  0  0  0  0  0  0  0  0
   13.7179   -7.7020    2.0058 H   0  0  0  0  0  0  0  0  0  0  0  0
   13.3142   -8.5121    0.4543 H   0  0  0  0  0  0  0  0  0  0  0  0
   13.9091   -6.8172    0.4543 H   0  0  0  0  0  0  0  0  0  0  0  0
   12.3713   -7.5508   -1.5781 H   0  0  0  0  0  0  0  0  0  0  0  0
   10.6016   -8.4401   -3.0805 H   0  0  0  0  0  0  0  0  0  0  0  0
    8.4090   -9.2412   -3.4769 H   0  0  0  0  0  0  0  0  0  0  0  0
    6.1193   -9.8110   -2.6992 H   0  0  0  0  0  0  0  0  0  0  0  0
    5.4406   -9.2947   -0.3633 H   0  0  0  0  0  0  0  0  0  0  0  0
    5.1686   -6.6746    0.9959 H   0  0  0  0  0  0  0  0  0  0  0  0
    4.8990   -5.3800    3.8210 H   0  0  0  0  0  0  0  0  0  0  0  0
    3.5550   -5.1880    5.6320 H   0  0  0  0  0  0  0  0  0  0  0  0
    2.2370   -6.2560    5.7320 H   0  0  0  0  0  0  0  0  0  0  0  0
    7.8880   -9.7570    6.1460 H   0  0  0  0  0  0  0  0  0  0  0  0
    7.9770   -9.9910    4.4030 H   0  0  0  0  0  0  0  0  0  0  0  0
    9.5726   -7.5785    1.6917 H   0  0  0  0  0  0  0  0  0  0  0  0
  1  2  1  0
  2  3  1  0
  3  4  2  0
  4  5  1  0
  5  6  2  0
  6  7  1  0
  7  8  2  0
  8  9  1  0
  9 10  2  0
 10 11  1  0
 11 12  1  0
 12 13  2  0
 13 14  1  0
 14 15  1  0
 15 16  1  0
 15 17  2  0
 13 18  1  0
 18 19  1  0
 19 20  1  0
 19 21  2  0
 18 22  2  0
 10 23  1  0
 23 24  2  0
 24  3  1  0
 23  6  1  0
 22 11  1  0
  1 25  1  0
  1 26  1  0
  1 27  1  0
  4 28  1  0
  5 29  1  0
  7 30  1  0
  8 31  1  0
  9 32  1  0
 12 33  1  0
 14 34  1  0
 16 35  1  0
 16 36  1  0
 20 37  1  0
 20 38  1  0
 24 39  1  0
M  END
>  <meeko>  (8) 
{"is_sidechain": [false], "free_energy": -8.251, "intermolecular_energy": -10.447, "internal_energy": -0.707}

$$$$
4m0z_ligand
     RDKit          3D

 39 41  0  0  0  0  0  0  0  0999 V2000
    6.4580  -10.1610   -2.1110 C   0  0  0  0  0  0  0  0  0  0  0  0
    7.3620   -9.1250   -2.4740 O   0  0  0  0  0  0  0  0  0  0  0  0
    8.2350   -8.6960   -1.5130 C   0  0  0  0  0  0  0  0  0  0  0  0
    9.6080   -8.5760   -1.6550 C   0  0  0  0  0  0  0  0  0  0  0  0
   10.3670   -8.0760   -0.5960 C   0  0  0  0  0  0  0  0  0  0  0  0
    9.7740   -7.7100    0.6230 C   0  0  0  0  0  0  0  0  0  0  0  0
   10.5810   -7.1490    1.6240 C   0  0  0  0  0  0  0  0  0  0  0  0
   10.0370   -6.7280    2.8310 C   0  0  0  0  0  0  0  0  0  0  0  0
    8.6810   -6.9060    3.0720 C   0  0  0  0  0  0  0  0  0  0  0  0
    7.8530   -7.5180    2.1090 C   0  0  0  0  0  0  0  0  0  0  0  0
    6.5060   -7.7730    2.5090 N   0  0  0  0  0  0  0  0  0  0  0  0
    5.5650   -6.8850    2.9800 C   0  0  0  0  0  0  0  0  0  0  0  0
    4.4220   -7.5940    3.2480 C   0  0  0  0  0  0  0  0  0  0  0  0
    3.2220   -7.1370    3.7670 N   0  0  0  0  0  0  0  0  0  0  0  0
    2.8700   -7.1410    5.0870 C   0  0  0  0  0  0  0  0  0  0  0  0
    1.6340   -6.5990    5.2910 N   0  0  0  0  0  0  0  0  0  0  0  0
    3.5140   -7.5640    6.0360 O   0  0  0  0  0  0  0  0  0  0  0  0
    4.7180   -8.9190    2.8410 C   0  0  0  0  0  0  0  0  0  0  0  0
    3.8150  -10.0730    2.9000 C   0  0  0  0  0  0  0  0  0  0  0  0
    4.3060  -11.2100    2.3220 N   0  0  0  0  0  0  0  0  0  0  0  0
    2.7060  -10.0380    3.4260 O   0  0  0  0  0  0  0  0  0  0  0  0
    5.9660   -9.0160    2.3440 N   0  0  0  0  0  0  0  0  0  0  0  0
    8.3800   -7.8830    0.8290 C   0  0  0  0  0  0  0  0  0  0  0  0
    7.6380   -8.3440   -0.2960 C   0  0  0  0  0  0  0  0  0  0  0  0
    6.3990  -10.2287   -1.0147 H   0  0  0  0  0  0  0  0  0  0  0  0
    5.4612   -9.9374   -2.5188 H   0  0  0  0  0  0  0  0  0  0  0  0
    6.8146  -11.1184   -2.5188 H   0  0  0  0  0  0  0  0  0  0  0  0
   10.0960   -8.8725   -2.5952 H   0  0  0  0  0  0  0  0  0  0  0  0
   11.4546   -7.9661   -0.7190 H   0  0  0  0  0  0  0  0  0  0  0  0
   11.6618   -7.0407    1.4504 H   0  0  0  0  0  0  0  0  0  0  0  0
   10.6767   -6.2563    3.5915 H   0  0  0  0  0  0  0  0  0  0  0  0
    8.2484   -6.5659    4.0244 H   0  0  0  0  0  0  0  0  0  0  0  0
    5.7047   -5.8025    3.1166 H   0  0  0  0  0  0  0  0  0  0  0  0
    2.5140   -6.8760    3.0880 H   0  0  0  0  0  0  0  0  0  0  0  0
    1.3860   -5.7980    4.7280 H   0  0  0  0  0  0  0  0  0  0  0  0
    1.4150   -6.5000    6.2750 H   0  0  0  0  0  0  0  0  0  0  0  0
    3.7690  -12.0630    2.3490 H   0  0  0  0  0  0  0  0  0  0  0  0
    5.2420  -11.1930    1.9330 H   0  0  0  0  0  0  0  0  0  0  0  0
    6.5450   -8.4275   -0.2047 H   0  0  0  0  0  0  0  0  0  0  0  0
  1  2  1  0
  2  3  1  0
  3  4  2  0
  4  5  1  0
  5  6  2  0
  6  7  1  0
  7  8  2  0
  8  9  1  0
  9 10  2  0
 10 11  1  0
 11 12  1  0
 12 13  2  0
 13 14  1  0
 14 15  1  0
 15 16  1  0
 15 17  2  0
 13 18  1  0
 18 19  1  0
 19 20  1  0
 19 21  2  0
 18 22  2  0
 10 23  1  0
 23 24  2  0
 24  3  1  0
 23  6  1  0
 22 11  1  0
  1 25  1  0
  1 26  1  0
  1 27  1  0
  4 28  1  0
  5 29  1  0
  7 30  1  0
  8 31  1  0
  9 32  1  0
 12 33  1  0
 14 34  1  0
 16 35  1  0
 16 36  1  0
 20 37  1  0
 20 38  1  0
 24 39  1  0
M  END
>  <meeko>  (9) 
{"is_sidechain": [false], "free_energy": -7.838, "intermolecular_energy": -9.931, "internal_energy": -0.712}

$$$$
