
     RDKit          3D

 24 27  0  0  0  0  0  0  0  0999 V2000
    3.3680    6.0080    8.3330 O   0  0  0  0  0  0  0  0  0  0  0  0
    2.3010    6.5720    7.9860 C   0  0  0  0  0  0  0  0  0  0  0  0
    2.2360    7.3490    7.0290 O   0  0  0  0  0  0  0  0  0  0  0  0
    1.0420    6.2720    8.7270 C   0  0  0  0  0  0  0  0  0  0  0  0
   -0.1240    6.9510    8.4460 C   0  0  0  0  0  0  0  0  0  0  0  0
   -1.3130    6.6580    9.1180 C   0  0  0  0  0  0  0  0  0  0  0  0
   -1.3370    5.6500   10.0640 C   0  0  0  0  0  0  0  0  0  0  0  0
   -0.1610    4.9520   10.3550 C   0  0  0  0  0  0  0  0  0  0  0  0
    0.1410    3.9200   11.2360 C   0  0  0  0  0  0  0  0  0  0  0  0
   -0.8130    3.2210   12.0850 C   0  0  0  0  0  0  0  0  0  0  0  0
   -1.6780    3.9450   12.8960 C   0  0  0  0  0  0  0  0  0  0  0  0
   -2.6170    3.2780   13.6840 C   0  0  0  0  0  0  0  0  0  0  0  0
   -2.6780    1.8980   13.6370 C   0  0  0  0  0  0  0  0  0  0  0  0
   -1.8280    1.1680   12.8190 C   0  0  0  0  0  0  0  0  0  0  0  0
   -0.8890    1.8330   12.0310 C   0  0  0  0  0  0  0  0  0  0  0  0
    1.5070    3.6700   11.0970 C   0  0  0  0  0  0  0  0  0  0  0  0
    2.3560    2.7150   11.7690 C   0  0  0  0  0  0  0  0  0  0  0  0
    2.0420    2.1790   13.0090 C   0  0  0  0  0  0  0  0  0  0  0  0
    2.8790    1.2590   13.6190 C   0  0  0  0  0  0  0  0  0  0  0  0
    4.0600    0.8840   12.9980 C   0  0  0  0  0  0  0  0  0  0  0  0
    4.3990    1.4200   11.7930 C   0  0  0  0  0  0  0  0  0  0  0  0
    3.5740    2.3350   11.1750 C   0  0  0  0  0  0  0  0  0  0  0  0
    1.9890    4.4890   10.1680 N   0  0  0  0  0  0  0  0  0  0  0  0
    1.0170    5.2700    9.7060 C   0  0  0  0  0  0  0  0  0  0  0  0
  2  1  1  0
  3  2  2  0
  4  2  1  0
  5  4  2  0
  6  5  1  0
  7  6  2  0
  8  7  1  0
  9  8  1  0
 10  9  1  0
 11 10  2  0
 12 11  1  0
 13 12  2  0
 14 13  1  0
 15 14  2  0
 15 10  1  0
 16  9  2  0
 17 16  1  0
 18 17  2  0
 19 18  1  0
 20 19  2  0
 21 20  1  0
 22 21  2  0
 22 17  1  0
 23 16  1  0
 24 23  1  0
 24  8  2  0
 24  4  1  0
M  CHG  1   1  -1
M  END
$$$$
