4pcs_ligand
     RDKit          3D

 32 33  0  0  0  0  0  0  0  0999 V2000
    0.2360    2.9410    6.7740 C   0  0  0  0  0  0  0  0  0  0  0  0
    1.3510    3.5540    7.5990 C   0  0  2  0  0  0  0  0  0  0  0  0
    0.7710    4.1790    8.8400 N   0  0  0  0  0  0  0  0  0  0  0  0
    1.7770    5.1940    9.3220 C   0  0  1  0  0  0  0  0  0  0  0  0
    2.3890    4.6710   10.5420 C   0  0  0  0  0  0  0  0  0  0  0  0
    2.8860    4.2350   11.5450 C   0  0  0  0  0  0  0  0  0  0  0  0
    3.4850    3.7170   12.7360 C   0  0  0  0  0  0  0  0  0  0  0  0
    2.9820    4.0810   13.9880 C   0  0  0  0  0  0  0  0  0  0  0  0
    3.5700    3.5750   15.1490 C   0  0  0  0  0  0  0  0  0  0  0  0
    4.6570    2.7070   15.0610 C   0  0  0  0  0  0  0  0  0  0  0  0
    5.1580    2.3410   13.8120 C   0  0  0  0  0  0  0  0  0  0  0  0
    4.5730    2.8460   12.6490 C   0  0  0  0  0  0  0  0  0  0  0  0
    2.8030    5.3440    8.1690 C   0  0  2  0  0  0  0  0  0  0  0  0
    3.1320    6.7020    7.8800 O   0  0  0  0  0  0  0  0  0  0  0  0
    2.0600    4.7510    6.9690 C   0  0  2  0  0  0  0  0  0  0  0  0
    1.0880    5.7010    6.5100 O   0  0  0  0  0  0  0  0  0  0  0  0
   -0.5280    2.5210    7.4447 H   0  0  0  0  0  0  0  0  0  0  0  0
   -0.2191    3.7157    6.1394 H   0  0  0  0  0  0  0  0  0  0  0  0
    0.6463    2.1416    6.1394 H   0  0  0  0  0  0  0  0  0  0  0  0
    2.0457    2.7127    7.7391 H   0  0  0  0  0  0  0  0  0  0  0  0
    0.4990    3.5000    9.5620 H   0  0  0  0  0  0  0  0  0  0  0  0
   -0.0710    4.7040    8.5610 H   0  0  0  0  0  0  0  0  0  0  0  0
    1.3426    6.1757    9.5621 H   0  0  0  0  0  0  0  0  0  0  0  0
    2.1238    4.7654   14.0588 H   0  0  0  0  0  0  0  0  0  0  0  0
    3.1747    3.8619   16.1346 H   0  0  0  0  0  0  0  0  0  0  0  0
    5.1198    2.3106   15.9768 H   0  0  0  0  0  0  0  0  0  0  0  0
    6.0144    1.6542   13.7430 H   0  0  0  0  0  0  0  0  0  0  0  0
    4.9693    2.5577   11.6642 H   0  0  0  0  0  0  0  0  0  0  0  0
    3.7566    4.8574    8.4217 H   0  0  0  0  0  0  0  0  0  0  0  0
    2.3100    7.2310    7.8670 H   0  0  0  0  0  0  0  0  0  0  0  0
    2.7009    4.4915    6.1134 H   0  0  0  0  0  0  0  0  0  0  0  0
    1.4490    6.0760    5.6770 H   0  0  0  0  0  0  0  0  0  0  0  0
  1  2  1  0
  2  3  1  0
  3  4  1  0
  4  5  1  0
  5  6  3  0
  6  7  1  0
  7  8  2  0
  8  9  1  0
  9 10  2  0
 10 11  1  0
 11 12  2  0
  4 13  1  0
 13 14  1  0
 13 15  1  0
 15 16  1  0
 15  2  1  0
 12  7  1  0
  1 17  1  0
  1 18  1  0
  1 19  1  0
  2 20  1  1
  3 21  1  0
  3 22  1  0
  4 23  1  1
  8 24  1  0
  9 25  1  0
 10 26  1  0
 11 27  1  0
 12 28  1  0
 13 29  1  1
 14 30  1  0
 15 31  1  6
 16 32  1  0
M  CHG  1   3   1
M  END
>  <meeko>  (1) 
{"is_sidechain": [false], "free_energy": -7.661, "intermolecular_energy": -8.557, "internal_energy": -0.157}

$$$$
4pcs_ligand
     RDKit          3D

 32 33  0  0  0  0  0  0  0  0999 V2000
    0.7900    3.4460    6.8130 C   0  0  0  0  0  0  0  0  0  0  0  0
    1.5560    3.9060    8.0390 C   0  0  2  0  0  0  0  0  0  0  0  0
    0.5860    4.3920    9.0830 N   0  0  0  0  0  0  0  0  0  0  0  0
    1.3630    5.2980   10.0050 C   0  0  1  0  0  0  0  0  0  0  0  0
    1.5300    4.6020   11.2790 C   0  0  0  0  0  0  0  0  0  0  0  0
    1.6610    4.0240   12.3250 C   0  0  0  0  0  0  0  0  0  0  0  0
    1.8220    3.3410   13.5700 C   0  0  0  0  0  0  0  0  0  0  0  0
    0.7110    2.7950   14.2190 C   0  0  0  0  0  0  0  0  0  0  0  0
    0.8720    2.1310   15.4360 C   0  0  0  0  0  0  0  0  0  0  0  0
    2.1390    2.0120   16.0050 C   0  0  0  0  0  0  0  0  0  0  0  0
    3.2480    2.5550   15.3590 C   0  0  0  0  0  0  0  0  0  0  0  0
    3.0910    3.2200   14.1410 C   0  0  0  0  0  0  0  0  0  0  0  0
    2.7180    5.5530    9.2940 C   0  0  2  0  0  0  0  0  0  0  0  0
    3.1170    6.9230    9.3140 O   0  0  0  0  0  0  0  0  0  0  0  0
    2.4280    5.1460    7.8470 C   0  0  2  0  0  0  0  0  0  0  0  0
    1.6630    6.1820    7.2180 O   0  0  0  0  0  0  0  0  0  0  0  0
   -0.1137    2.9033    7.1275 H   0  0  0  0  0  0  0  0  0  0  0  0
    0.5017    4.3205    6.2113 H   0  0  0  0  0  0  0  0  0  0  0  0
    1.4265    2.7806    6.2113 H   0  0  0  0  0  0  0  0  0  0  0  0
    2.1674    3.0276    8.2931 H   0  0  0  0  0  0  0  0  0  0  0  0
    0.0900    3.6380    9.5750 H   0  0  0  0  0  0  0  0  0  0  0  0
   -0.1150    4.9800    8.6090 H   0  0  0  0  0  0  0  0  0  0  0  0
    0.8663    6.2572   10.2129 H   0  0  0  0  0  0  0  0  0  0  0  0
   -0.2893    2.8885   13.7710 H   0  0  0  0  0  0  0  0  0  0  0  0
   -0.0021    1.7010   15.9469 H   0  0  0  0  0  0  0  0  0  0  0  0
    2.2635    1.4891   16.9647 H   0  0  0  0  0  0  0  0  0  0  0  0
    4.2474    2.4598   15.8086 H   0  0  0  0  0  0  0  0  0  0  0  0
    3.9666    3.6485   13.6314 H   0  0  0  0  0  0  0  0  0  0  0  0
    3.5329    5.0018    9.7860 H   0  0  0  0  0  0  0  0  0  0  0  0
    2.4220    7.4480    9.7600 H   0  0  0  0  0  0  0  0  0  0  0  0
    3.3218    4.9729    7.2296 H   0  0  0  0  0  0  0  0  0  0  0  0
    0.8020    6.2080    7.6920 H   0  0  0  0  0  0  0  0  0  0  0  0
  1  2  1  0
  2  3  1  0
  3  4  1  0
  4  5  1  0
  5  6  3  0
  6  7  1  0
  7  8  2  0
  8  9  1  0
  9 10  2  0
 10 11  1  0
 11 12  2  0
  4 13  1  0
 13 14  1  0
 13 15  1  0
 15 16  1  0
 15  2  1  0
 12  7  1  0
  1 17  1  0
  1 18  1  0
  1 19  1  0
  2 20  1  1
  3 21  1  0
  3 22  1  0
  4 23  1  1
  8 24  1  0
  9 25  1  0
 10 26  1  0
 11 27  1  0
 12 28  1  0
 13 29  1  1
 14 30  1  0
 15 31  1  6
 16 32  1  0
M  CHG  1   3   1
M  END
>  <meeko>  (2) 
{"is_sidechain": [false], "free_energy": -7.368, "intermolecular_energy": -8.233, "internal_energy": -0.153}

$$$$
4pcs_ligand
     RDKit          3D

 32 33  0  0  0  0  0  0  0  0999 V2000
    1.9780    4.9550    7.8570 C   0  0  0  0  0  0  0  0  0  0  0  0
    1.5590    4.4630    9.2290 C   0  0  2  0  0  0  0  0  0  0  0  0
    0.7470    5.5270    9.9170 N   0  0  0  0  0  0  0  0  0  0  0  0
    0.8170    5.2350   11.3950 C   0  0  1  0  0  0  0  0  0  0  0  0
   -0.4920    4.7430   11.8160 C   0  0  0  0  0  0  0  0  0  0  0  0
   -1.5730    4.3410   12.1550 C   0  0  0  0  0  0  0  0  0  0  0  0
   -2.8600    3.8680   12.5620 C   0  0  0  0  0  0  0  0  0  0  0  0
   -3.6590    3.1520   11.6670 C   0  0  0  0  0  0  0  0  0  0  0  0
   -4.9160    2.6940   12.0670 C   0  0  0  0  0  0  0  0  0  0  0  0
   -5.3740    2.9500   13.3580 C   0  0  0  0  0  0  0  0  0  0  0  0
   -4.5780    3.6630   14.2540 C   0  0  0  0  0  0  0  0  0  0  0  0
   -3.3200    4.1230   13.8560 C   0  0  0  0  0  0  0  0  0  0  0  0
    1.9260    4.1620   11.5550 C   0  0  2  0  0  0  0  0  0  0  0  0
    2.8250    4.4370   12.6290 O   0  0  0  0  0  0  0  0  0  0  0  0
    2.6920    4.2600   10.2340 C   0  0  2  0  0  0  0  0  0  0  0  0
    3.5240    5.4290   10.2650 O   0  0  0  0  0  0  0  0  0  0  0  0
    2.6876    5.7882    7.9672 H   0  0  0  0  0  0  0  0  0  0  0  0
    2.4589    4.1345    7.3043 H   0  0  0  0  0  0  0  0  0  0  0  0
    1.0914    5.2991    7.3043 H   0  0  0  0  0  0  0  0  0  0  0  0
    1.0529    3.5120    9.0065 H   0  0  0  0  0  0  0  0  0  0  0  0
   -0.2150    5.6120    9.5640 H   0  0  0  0  0  0  0  0  0  0  0  0
    1.2230    6.4290    9.7690 H   0  0  0  0  0  0  0  0  0  0  0  0
    1.0565    6.1125   12.0136 H   0  0  0  0  0  0  0  0  0  0  0  0
   -3.2981    2.9492   10.6479 H   0  0  0  0  0  0  0  0  0  0  0  0
   -5.5453    2.1306   11.3624 H   0  0  0  0  0  0  0  0  0  0  0  0
   -6.3649    2.5891   13.6708 H   0  0  0  0  0  0  0  0  0  0  0  0
   -4.9401    3.8631   15.2732 H   0  0  0  0  0  0  0  0  0  0  0  0
   -2.6918    4.6861   14.5619 H   0  0  0  0  0  0  0  0  0  0  0  0
    1.4936    3.1754   11.7776 H   0  0  0  0  0  0  0  0  0  0  0  0
    3.6740    4.7500   12.2580 H   0  0  0  0  0  0  0  0  0  0  0  0
    3.3384    3.3980   10.0123 H   0  0  0  0  0  0  0  0  0  0  0  0
    2.9110    6.1960   10.2580 H   0  0  0  0  0  0  0  0  0  0  0  0
  1  2  1  0
  2  3  1  0
  3  4  1  0
  4  5  1  0
  5  6  3  0
  6  7  1  0
  7  8  2  0
  8  9  1  0
  9 10  2  0
 10 11  1  0
 11 12  2  0
  4 13  1  0
 13 14  1  0
 13 15  1  0
 15 16  1  0
 15  2  1  0
 12  7  1  0
  1 17  1  0
  1 18  1  0
  1 19  1  0
  2 20  1  6
  3 21  1  0
  3 22  1  0
  4 23  1  1
  8 24  1  0
  9 25  1  0
 10 26  1  0
 11 27  1  0
 12 28  1  0
 13 29  1  1
 14 30  1  0
 15 31  1  6
 16 32  1  0
M  CHG  1   3   1
M  END
>  <meeko>  (3) 
{"is_sidechain": [false], "free_energy": -6.33, "intermolecular_energy": -7.074, "internal_energy": -0.152}

$$$$
4pcs_ligand
     RDKit          3D

 32 33  0  0  0  0  0  0  0  0999 V2000
    3.2440    2.7470   12.6620 C   0  0  0  0  0  0  0  0  0  0  0  0
    2.0820    3.7210   12.6670 C   0  0  2  0  0  0  0  0  0  0  0  0
    0.7900    2.9620   12.5280 N   0  0  0  0  0  0  0  0  0  0  0  0
   -0.2330    3.9430   12.0120 C   0  0  1  0  0  0  0  0  0  0  0  0
   -1.1630    4.2310   13.1000 C   0  0  0  0  0  0  0  0  0  0  0  0
   -1.9260    4.4630   14.0010 C   0  0  0  0  0  0  0  0  0  0  0  0
   -2.8350    4.7320   15.0710 C   0  0  0  0  0  0  0  0  0  0  0  0
   -2.4290    5.5130   16.1560 C   0  0  0  0  0  0  0  0  0  0  0  0
   -3.3190    5.7720   17.2000 C   0  0  0  0  0  0  0  0  0  0  0  0
   -4.6120    5.2520   17.1610 C   0  0  0  0  0  0  0  0  0  0  0  0
   -5.0190    4.4730   16.0790 C   0  0  0  0  0  0  0  0  0  0  0  0
   -4.1310    4.2120   15.0330 C   0  0  0  0  0  0  0  0  0  0  0  0
    0.5720    5.1960   11.5800 C   0  0  2  0  0  0  0  0  0  0  0  0
    0.1730    5.7120   10.3110 O   0  0  0  0  0  0  0  0  0  0  0  0
    2.0020    4.6630   11.4660 C   0  0  2  0  0  0  0  0  0  0  0  0
    2.1210    3.9080   10.2530 O   0  0  0  0  0  0  0  0  0  0  0  0
    3.5276    2.5093   13.6979 H   0  0  0  0  0  0  0  0  0  0  0  0
    2.9467    1.8242   12.1422 H   0  0  0  0  0  0  0  0  0  0  0  0
    4.1007    3.2009   12.1422 H   0  0  0  0  0  0  0  0  0  0  0  0
    2.2350    4.2827   13.6003 H   0  0  0  0  0  0  0  0  0  0  0  0
    0.4950    2.4780   13.3860 H   0  0  0  0  0  0  0  0  0  0  0  0
    0.9210    2.2530   11.7910 H   0  0  0  0  0  0  0  0  0  0  0  0
   -0.8223    3.5697   11.1615 H   0  0  0  0  0  0  0  0  0  0  0  0
   -1.4090    5.9235   16.1876 H   0  0  0  0  0  0  0  0  0  0  0  0
   -2.9997    6.3870   18.0543 H   0  0  0  0  0  0  0  0  0  0  0  0
   -5.3116    5.4566   17.9848 H   0  0  0  0  0  0  0  0  0  0  0  0
   -6.0396    4.0638   16.0490 H   0  0  0  0  0  0  0  0  0  0  0  0
   -4.4521    3.5970   14.1794 H   0  0  0  0  0  0  0  0  0  0  0  0
    0.4310    6.0222   12.2924 H   0  0  0  0  0  0  0  0  0  0  0  0
    0.1080    4.9730    9.6740 H   0  0  0  0  0  0  0  0  0  0  0  0
    2.7819    5.4386   11.4521 H   0  0  0  0  0  0  0  0  0  0  0  0
    1.7520    3.0190   10.4510 H   0  0  0  0  0  0  0  0  0  0  0  0
  1  2  1  0
  2  3  1  0
  3  4  1  0
  4  5  1  0
  5  6  3  0
  6  7  1  0
  7  8  2  0
  8  9  1  0
  9 10  2  0
 10 11  1  0
 11 12  2  0
  4 13  1  0
 13 14  1  0
 13 15  1  0
 15 16  1  0
 15  2  1  0
 12  7  1  0
  1 17  1  0
  1 18  1  0
  1 19  1  0
  2 20  1  1
  3 21  1  0
  3 22  1  0
  4 23  1  6
  8 24  1  0
  9 25  1  0
 10 26  1  0
 11 27  1  0
 12 28  1  0
 13 29  1  1
 14 30  1  0
 15 31  1  1
 16 32  1  0
M  CHG  1   3   1
M  END
>  <meeko>  (4) 
{"is_sidechain": [false], "free_energy": -6.308, "intermolecular_energy": -7.046, "internal_energy": -0.156}

$$$$
4pcs_ligand
     RDKit          3D

 32 33  0  0  0  0  0  0  0  0999 V2000
    2.8710    5.7650    8.9930 C   0  0  0  0  0  0  0  0  0  0  0  0
    2.0650    5.5400   10.2580 C   0  0  2  0  0  0  0  0  0  0  0  0
    2.5370    4.2820   10.9370 N   0  0  0  0  0  0  0  0  0  0  0  0
    1.4120    3.8270   11.8330 C   0  0  1  0  0  0  0  0  0  0  0  0
    1.8190    4.0650   13.2160 C   0  0  0  0  0  0  0  0  0  0  0  0
    2.1610    4.2620   14.3510 C   0  0  0  0  0  0  0  0  0  0  0  0
    2.5750    4.4940   15.7000 C   0  0  0  0  0  0  0  0  0  0  0  0
    2.2060    5.6730   16.3530 C   0  0  0  0  0  0  0  0  0  0  0  0
    2.6130    5.8970   17.6700 C   0  0  0  0  0  0  0  0  0  0  0  0
    3.3870    4.9460   18.3330 C   0  0  0  0  0  0  0  0  0  0  0  0
    3.7540    3.7680   17.6840 C   0  0  0  0  0  0  0  0  0  0  0  0
    3.3490    3.5420   16.3660 C   0  0  0  0  0  0  0  0  0  0  0  0
    0.1840    4.6820   11.4270 C   0  0  2  0  0  0  0  0  0  0  0  0
   -1.0130    3.9190   11.2880 O   0  0  0  0  0  0  0  0  0  0  0  0
    0.5840    5.2260   10.0530 C   0  0  2  0  0  0  0  0  0  0  0  0
    0.4420    4.1810    9.0810 O   0  0  0  0  0  0  0  0  0  0  0  0
    3.8990    6.0520    9.2594 H   0  0  0  0  0  0  0  0  0  0  0  0
    2.8908    4.8380    8.4011 H   0  0  0  0  0  0  0  0  0  0  0  0
    2.4078    6.5682    8.4011 H   0  0  0  0  0  0  0  0  0  0  0  0
    2.1967    6.4850   10.8054 H   0  0  0  0  0  0  0  0  0  0  0  0
    3.4340    4.3840   11.4280 H   0  0  0  0  0  0  0  0  0  0  0  0
    2.6510    3.5590   10.2110 H   0  0  0  0  0  0  0  0  0  0  0  0
    1.1677    2.7587   11.7377 H   0  0  0  0  0  0  0  0  0  0  0  0
    1.5955    6.4240   15.8302 H   0  0  0  0  0  0  0  0  0  0  0  0
    2.3225    6.8248   18.1846 H   0  0  0  0  0  0  0  0  0  0  0  0
    3.7086    5.1252   19.3696 H   0  0  0  0  0  0  0  0  0  0  0  0
    4.3621    3.0168   18.2093 H   0  0  0  0  0  0  0  0  0  0  0  0
    3.6401    2.6136   15.8529 H   0  0  0  0  0  0  0  0  0  0  0  0
   -0.0387    5.4427   12.1897 H   0  0  0  0  0  0  0  0  0  0  0  0
   -1.0400    3.2400   11.9910 H   0  0  0  0  0  0  0  0  0  0  0  0
   -0.0110    6.0841    9.7072 H   0  0  0  0  0  0  0  0  0  0  0  0
    0.6880    3.3490    9.5420 H   0  0  0  0  0  0  0  0  0  0  0  0
  1  2  1  0
  2  3  1  0
  3  4  1  0
  4  5  1  0
  5  6  3  0
  6  7  1  0
  7  8  2  0
  8  9  1  0
  9 10  2  0
 10 11  1  0
 11 12  2  0
  4 13  1  0
 13 14  1  0
 13 15  1  0
 15 16  1  0
 15  2  1  0
 12  7  1  0
  1 17  1  0
  1 18  1  0
  1 19  1  0
  2 20  1  1
  3 21  1  0
  3 22  1  0
  4 23  1  1
  8 24  1  0
  9 25  1  0
 10 26  1  0
 11 27  1  0
 12 28  1  0
 13 29  1  1
 14 30  1  0
 15 31  1  6
 16 32  1  0
M  CHG  1   3   1
M  END
>  <meeko>  (5) 
{"is_sidechain": [false], "free_energy": -6.172, "intermolecular_energy": -6.893, "internal_energy": -0.157}

$$$$
4pcs_ligand
     RDKit          3D

 32 33  0  0  0  0  0  0  0  0999 V2000
    2.4290    5.0790    9.4190 C   0  0  0  0  0  0  0  0  0  0  0  0
    1.7470    4.3410   10.5560 C   0  0  2  0  0  0  0  0  0  0  0  0
    1.1210    5.3370   11.4960 N   0  0  0  0  0  0  0  0  0  0  0  0
    0.9450    4.6310   12.8170 C   0  0  1  0  0  0  0  0  0  0  0  0
   -0.4830    4.3880   13.0060 C   0  0  0  0  0  0  0  0  0  0  0  0
   -1.6600    4.1940   13.1560 C   0  0  0  0  0  0  0  0  0  0  0  0
   -3.0600    3.9680   13.3390 C   0  0  0  0  0  0  0  0  0  0  0  0
   -3.8380    3.4990   12.2770 C   0  0  0  0  0  0  0  0  0  0  0  0
   -5.2060    3.2820   12.4580 C   0  0  0  0  0  0  0  0  0  0  0  0
   -5.7950    3.5330   13.6960 C   0  0  0  0  0  0  0  0  0  0  0  0
   -5.0200    4.0000   14.7570 C   0  0  0  0  0  0  0  0  0  0  0  0
   -3.6520    4.2180   14.5790 C   0  0  0  0  0  0  0  0  0  0  0  0
    1.7530    3.3120   12.6950 C   0  0  2  0  0  0  0  0  0  0  0  0
    2.5550    3.0350   13.8420 O   0  0  0  0  0  0  0  0  0  0  0  0
    2.6750    3.5830   11.5030 C   0  0  2  0  0  0  0  0  0  0  0  0
    3.7400    4.4440   11.9270 O   0  0  0  0  0  0  0  0  0  0  0  0
    3.1212    5.8280    9.8310 H   0  0  0  0  0  0  0  0  0  0  0  0
    2.9897    4.3624    8.8009 H   0  0  0  0  0  0  0  0  0  0  0  0
    1.6705    5.5815    8.8009 H   0  0  0  0  0  0  0  0  0  0  0  0
    1.0684    3.6517   10.0322 H   0  0  0  0  0  0  0  0  0  0  0  0
    0.2540    5.7590   11.1400 H   0  0  0  0  0  0  0  0  0  0  0  0
    1.8040    6.0930   11.6510 H   0  0  0  0  0  0  0  0  0  0  0  0
    1.3021    5.2068   13.6835 H   0  0  0  0  0  0  0  0  0  0  0  0
   -3.3736    3.3010   11.2997 H   0  0  0  0  0  0  0  0  0  0  0  0
   -5.8190    2.9127   11.6226 H   0  0  0  0  0  0  0  0  0  0  0  0
   -6.8726    3.3625   13.8363 H   0  0  0  0  0  0  0  0  0  0  0  0
   -5.4859    4.1966   15.7339 H   0  0  0  0  0  0  0  0  0  0  0  0
   -3.0406    4.5867   15.4158 H   0  0  0  0  0  0  0  0  0  0  0  0
    1.0837    2.4458   12.5868 H   0  0  0  0  0  0  0  0  0  0  0  0
    3.4980    3.1260   13.5990 H   0  0  0  0  0  0  0  0  0  0  0  0
    3.1307    2.6853   11.0598 H   0  0  0  0  0  0  0  0  0  0  0  0
    4.4660    3.8500   12.2210 H   0  0  0  0  0  0  0  0  0  0  0  0
  1  2  1  0
  2  3  1  0
  3  4  1  0
  4  5  1  0
  5  6  3  0
  6  7  1  0
  7  8  2  0
  8  9  1  0
  9 10  2  0
 10 11  1  0
 11 12  2  0
  4 13  1  0
 13 14  1  0
 13 15  1  0
 15 16  1  0
 15  2  1  0
 12  7  1  0
  1 17  1  0
  1 18  1  0
  1 19  1  0
  2 20  1  6
  3 21  1  0
  3 22  1  0
  4 23  1  1
  8 24  1  0
  9 25  1  0
 10 26  1  0
 11 27  1  0
 12 28  1  0
 13 29  1  6
 14 30  1  0
 15 31  1  6
 16 32  1  0
M  CHG  1   3   1
M  END
>  <meeko>  (6) 
{"is_sidechain": [false], "free_energy": -5.891, "intermolecular_energy": -6.583, "internal_energy": -0.153}

$$$$
4pcs_ligand
     RDKit          3D

 32 33  0  0  0  0  0  0  0  0999 V2000
   -3.9050   -0.5040   10.6570 C   0  0  0  0  0  0  0  0  0  0  0  0
   -4.1990    0.9250   11.0720 C   0  0  2  0  0  0  0  0  0  0  0  0
   -4.6920    0.9430   12.4940 N   0  0  0  0  0  0  0  0  0  0  0  0
   -5.4510    2.2350   12.6710 C   0  0  1  0  0  0  0  0  0  0  0  0
   -4.6490    3.1100   13.5220 C   0  0  0  0  0  0  0  0  0  0  0  0
   -3.9840    3.8240   14.2250 C   0  0  0  0  0  0  0  0  0  0  0  0
   -3.1960    4.6700   15.0660 C   0  0  0  0  0  0  0  0  0  0  0  0
   -1.9090    5.0470   14.6720 C   0  0  0  0  0  0  0  0  0  0  0  0
   -1.1410    5.8710   15.4970 C   0  0  0  0  0  0  0  0  0  0  0  0
   -1.6570    6.3180   16.7120 C   0  0  0  0  0  0  0  0  0  0  0  0
   -2.9410    5.9450   17.1060 C   0  0  0  0  0  0  0  0  0  0  0  0
   -3.7110    5.1200   16.2840 C   0  0  0  0  0  0  0  0  0  0  0  0
   -5.6320    2.8110   11.2420 C   0  0  2  0  0  0  0  0  0  0  0  0
   -6.9540    3.2840   10.9890 O   0  0  0  0  0  0  0  0  0  0  0  0
   -5.3630    1.5980   10.3470 C   0  0  2  0  0  0  0  0  0  0  0  0
   -6.5110    0.7390   10.3740 O   0  0  0  0  0  0  0  0  0  0  0  0
   -3.7767   -1.1274   11.5542 H   0  0  0  0  0  0  0  0  0  0  0  0
   -4.7422   -0.8915   10.0579 H   0  0  0  0  0  0  0  0  0  0  0  0
   -2.9828   -0.5295   10.0579 H   0  0  0  0  0  0  0  0  0  0  0  0
   -3.2512    1.4431   10.8640 H   0  0  0  0  0  0  0  0  0  0  0  0
   -3.9520    0.8050   13.1940 H   0  0  0  0  0  0  0  0  0  0  0  0
   -5.3770    0.1790   12.5970 H   0  0  0  0  0  0  0  0  0  0  0  0
   -6.4340    2.1151   13.1499 H   0  0  0  0  0  0  0  0  0  0  0  0
   -1.5016    4.6948   13.7128 H   0  0  0  0  0  0  0  0  0  0  0  0
   -0.1279    6.1676   15.1877 H   0  0  0  0  0  0  0  0  0  0  0  0
   -1.0500    6.9662   17.3611 H   0  0  0  0  0  0  0  0  0  0  0  0
   -3.3475    6.3006   18.0643 H   0  0  0  0  0  0  0  0  0  0  0  0
   -4.7236    4.8242   16.5956 H   0  0  0  0  0  0  0  0  0  0  0  0
   -4.9727    3.6758   11.0764 H   0  0  0  0  0  0  0  0  0  0  0  0
   -7.4920    3.1690   11.7970 H   0  0  0  0  0  0  0  0  0  0  0  0
   -5.1538    1.8396    9.2944 H   0  0  0  0  0  0  0  0  0  0  0  0
   -6.2080   -0.1020   10.7820 H   0  0  0  0  0  0  0  0  0  0  0  0
  1  2  1  0
  2  3  1  0
  3  4  1  0
  4  5  1  0
  5  6  3  0
  6  7  1  0
  7  8  2  0
  8  9  1  0
  9 10  2  0
 10 11  1  0
 11 12  2  0
  4 13  1  0
 13 14  1  0
 13 15  1  0
 15 16  1  0
 15  2  1  0
 12  7  1  0
  1 17  1  0
  1 18  1  0
  1 19  1  0
  2 20  1  1
  3 21  1  0
  3 22  1  0
  4 23  1  1
  8 24  1  0
  9 25  1  0
 10 26  1  0
 11 27  1  0
 12 28  1  0
 13 29  1  6
 14 30  1  0
 15 31  1  6
 16 32  1  0
M  CHG  1   3   1
M  END
>  <meeko>  (7) 
{"is_sidechain": [false], "free_energy": -5.889, "intermolecular_energy": -6.578, "internal_energy": -0.156}

$$$$
4pcs_ligand
     RDKit          3D

 32 33  0  0  0  0  0  0  0  0999 V2000
   -8.8260    0.2420   12.8920 C   0  0  0  0  0  0  0  0  0  0  0  0
   -7.3360    0.3910   12.6510 C   0  0  2  0  0  0  0  0  0  0  0  0
   -7.0670    1.7080   11.9720 N   0  0  0  0  0  0  0  0  0  0  0  0
   -5.7260    1.5790   11.2950 C   0  0  1  0  0  0  0  0  0  0  0  0
   -4.7700    2.3970   12.0370 C   0  0  0  0  0  0  0  0  0  0  0  0
   -3.9900    3.0740   12.6520 C   0  0  0  0  0  0  0  0  0  0  0  0
   -3.0590    3.8820   13.3770 C   0  0  0  0  0  0  0  0  0  0  0  0
   -3.4020    4.3880   14.6340 C   0  0  0  0  0  0  0  0  0  0  0  0
   -2.4920    5.1790   15.3380 C   0  0  0  0  0  0  0  0  0  0  0  0
   -1.2420    5.4630   14.7900 C   0  0  0  0  0  0  0  0  0  0  0  0
   -0.8980    4.9570   13.5370 C   0  0  0  0  0  0  0  0  0  0  0  0
   -1.8060    4.1660   12.8300 C   0  0  0  0  0  0  0  0  0  0  0  0
   -5.3750    0.0690   11.3520 C   0  0  2  0  0  0  0  0  0  0  0  0
   -4.8780   -0.4420   10.1150 O   0  0  0  0  0  0  0  0  0  0  0  0
   -6.7260   -0.5870   11.6490 C   0  0  2  0  0  0  0  0  0  0  0  0
   -7.5090   -0.5990   10.4470 O   0  0  0  0  0  0  0  0  0  0  0  0
   -9.0222    0.2224   13.9742 H   0  0  0  0  0  0  0  0  0  0  0  0
   -9.3576    1.0915   12.4383 H   0  0  0  0  0  0  0  0  0  0  0  0
   -9.1788   -0.6959   12.4383 H   0  0  0  0  0  0  0  0  0  0  0  0
   -6.9081    0.2472   13.6541 H   0  0  0  0  0  0  0  0  0  0  0  0
   -7.1310    2.5210   12.5980 H   0  0  0  0  0  0  0  0  0  0  0  0
   -7.7680    1.8240   11.2260 H   0  0  0  0  0  0  0  0  0  0  0  0
   -5.7169    1.9236   10.2504 H   0  0  0  0  0  0  0  0  0  0  0  0
   -4.3875    4.1633   15.0680 H   0  0  0  0  0  0  0  0  0  0  0  0
   -2.7618    5.5787   16.3266 H   0  0  0  0  0  0  0  0  0  0  0  0
   -0.5267    6.0866   15.3463 H   0  0  0  0  0  0  0  0  0  0  0  0
    0.0887    5.1809   13.1054 H   0  0  0  0  0  0  0  0  0  0  0  0
   -1.5341    3.7665   11.8418 H   0  0  0  0  0  0  0  0  0  0  0  0
   -4.5831   -0.1256   12.0903 H   0  0  0  0  0  0  0  0  0  0  0  0
   -4.1490   -1.0660   10.3000 H   0  0  0  0  0  0  0  0  0  0  0  0
   -6.6648   -1.6222   12.0158 H   0  0  0  0  0  0  0  0  0  0  0  0
   -8.0190    0.2410   10.4500 H   0  0  0  0  0  0  0  0  0  0  0  0
  1  2  1  0
  2  3  1  0
  3  4  1  0
  4  5  1  0
  5  6  3  0
  6  7  1  0
  7  8  2  0
  8  9  1  0
  9 10  2  0
 10 11  1  0
 11 12  2  0
  4 13  1  0
 13 14  1  0
 13 15  1  0
 15 16  1  0
 15  2  1  0
 12  7  1  0
  1 17  1  0
  1 18  1  0
  1 19  1  0
  2 20  1  1
  3 21  1  0
  3 22  1  0
  4 23  1  6
  8 24  1  0
  9 25  1  0
 10 26  1  0
 11 27  1  0
 12 28  1  0
 13 29  1  1
 14 30  1  0
 15 31  1  1
 16 32  1  0
M  CHG  1   3   1
M  END
>  <meeko>  (8) 
{"is_sidechain": [false], "free_energy": -5.814, "intermolecular_energy": -6.505, "internal_energy": -0.146}

$$$$
4pcs_ligand
     RDKit          3D

 32 33  0  0  0  0  0  0  0  0999 V2000
    5.7730    2.3850   13.5820 C   0  0  0  0  0  0  0  0  0  0  0  0
    4.5640    3.3000   13.6200 C   0  0  2  0  0  0  0  0  0  0  0  0
    3.5300    2.7270   14.5530 N   0  0  0  0  0  0  0  0  0  0  0  0
    2.2090    3.3380   14.1610 C   0  0  1  0  0  0  0  0  0  0  0  0
    1.8250    4.2830   15.2060 C   0  0  0  0  0  0  0  0  0  0  0  0
    1.5160    5.0580   16.0720 C   0  0  0  0  0  0  0  0  0  0  0  0
    1.1530    5.9830   17.1000 C   0  0  0  0  0  0  0  0  0  0  0  0
   -0.1850    6.3460   17.2760 C   0  0  0  0  0  0  0  0  0  0  0  0
   -0.5350    7.2520   18.2790 C   0  0  0  0  0  0  0  0  0  0  0  0
    0.4480    7.7930   19.1060 C   0  0  0  0  0  0  0  0  0  0  0  0
    1.7830    7.4300   18.9330 C   0  0  0  0  0  0  0  0  0  0  0  0
    2.1370    6.5250   17.9300 C   0  0  0  0  0  0  0  0  0  0  0  0
    2.4610    4.0380   12.8000 C   0  0  2  0  0  0  0  0  0  0  0  0
    1.4420    3.7810   11.8350 O   0  0  0  0  0  0  0  0  0  0  0  0
    3.7660    3.3970   12.3210 C   0  0  2  0  0  0  0  0  0  0  0  0
    3.4820    2.0800   11.8290 O   0  0  0  0  0  0  0  0  0  0  0  0
    6.0860    2.1481   14.6096 H   0  0  0  0  0  0  0  0  0  0  0  0
    5.5129    1.4555   13.0544 H   0  0  0  0  0  0  0  0  0  0  0  0
    6.5969    2.8878   13.0544 H   0  0  0  0  0  0  0  0  0  0  0  0
    4.9995    4.2732   13.8906 H   0  0  0  0  0  0  0  0  0  0  0  0
    3.7550    2.8470   15.5490 H   0  0  0  0  0  0  0  0  0  0  0  0
    3.4610    1.7170   14.3610 H   0  0  0  0  0  0  0  0  0  0  0  0
    1.3923    2.6084   14.0576 H   0  0  0  0  0  0  0  0  0  0  0  0
   -0.9617    5.9183   16.6249 H   0  0  0  0  0  0  0  0  0  0  0  0
   -1.5879    7.5392   18.4168 H   0  0  0  0  0  0  0  0  0  0  0  0
    0.1703    8.5067   19.8956 H   0  0  0  0  0  0  0  0  0  0  0  0
    2.5578    7.8567   19.5869 H   0  0  0  0  0  0  0  0  0  0  0  0
    3.1904    6.2391   17.7937 H   0  0  0  0  0  0  0  0  0  0  0  0
    2.4862    5.1315   12.9164 H   0  0  0  0  0  0  0  0  0  0  0  0
    0.8110    4.5280   11.8340 H   0  0  0  0  0  0  0  0  0  0  0  0
    4.2818    3.9468   11.5200 H   0  0  0  0  0  0  0  0  0  0  0  0
    4.3310    1.5860   11.8740 H   0  0  0  0  0  0  0  0  0  0  0  0
  1  2  1  0
  2  3  1  0
  3  4  1  0
  4  5  1  0
  5  6  3  0
  6  7  1  0
  7  8  2  0
  8  9  1  0
  9 10  2  0
 10 11  1  0
 11 12  2  0
  4 13  1  0
 13 14  1  0
 13 15  1  0
 15 16  1  0
 15  2  1  0
 12  7  1  0
  1 17  1  0
  1 18  1  0
  1 19  1  0
  2 20  1  1
  3 21  1  0
  3 22  1  0
  4 23  1  6
  8 24  1  0
  9 25  1  0
 10 26  1  0
 11 27  1  0
 12 28  1  0
 13 29  1  1
 14 30  1  0
 15 31  1  6
 16 32  1  0
M  CHG  1   3   1
M  END
>  <meeko>  (9) 
{"is_sidechain": [false], "free_energy": -5.687, "intermolecular_energy": -6.356, "internal_energy": -0.152}

$$$$
