3gbb_ligand
     RDKit          3D

 34 35  0  0  0  0  0  0  0  0999 V2000
    3.0000   -2.1170    7.1680 N   0  0  0  0  0  0  0  0  0  0  0  0
    3.8920   -1.0860    7.8020 C   0  0  1  0  0  0  0  0  0  0  0  0
    5.1850   -1.7310    8.3280 C   0  0  0  0  0  0  0  0  0  0  0  0
    5.0790   -2.5310    9.6440 C   0  0  2  0  0  0  0  0  0  0  0  0
    5.9450   -1.8240   10.7560 C   0  0  0  0  0  0  0  0  0  0  0  0
    6.3760   -0.6670   10.4360 O   0  0  0  0  0  0  0  0  0  0  0  0
    6.1550   -2.4780   11.8090 O   0  0  0  0  0  0  0  0  0  0  0  0
    5.4580   -4.0080    9.4490 C   0  0  0  0  0  0  0  0  0  0  0  0
    4.1220   -4.7040    9.3080 C   0  0  1  0  0  0  0  0  0  0  0  0
    4.1200   -6.0990    9.5910 O   0  0  0  0  0  0  0  0  0  0  0  0
    4.2730   -6.4350   10.9680 C   0  0  0  0  0  0  0  0  0  0  0  0
    3.2060   -5.7660   11.8220 C   0  0  0  0  0  0  0  0  0  0  0  0
    3.2820   -4.2560   11.6660 C   0  0  0  0  0  0  0  0  0  0  0  0
    3.2120   -3.8660   10.1910 C   0  0  1  0  0  0  0  0  0  0  0  0
    3.6480   -2.5110   10.0240 O   0  0  0  0  0  0  0  0  0  0  0  0
    4.1330    0.1000    6.8140 C   0  0  0  0  0  0  0  0  0  0  0  0
    3.1410    0.7920    6.4800 O   0  0  0  0  0  0  0  0  0  0  0  0
    5.3630    0.1970    6.4930 O   0  0  0  0  0  0  0  0  0  0  0  0
    3.5930   -2.8820    6.7680 H   0  0  0  0  0  0  0  0  0  0  0  0
    2.5150   -1.7090    6.3620 H   0  0  0  0  0  0  0  0  0  0  0  0
    2.3290   -2.4120    7.8880 H   0  0  0  0  0  0  0  0  0  0  0  0
    3.3941   -0.6572    8.6842 H   0  0  0  0  0  0  0  0  0  0  0  0
    5.5549   -2.4162    7.5510 H   0  0  0  0  0  0  0  0  0  0  0  0
    5.8542   -0.8885    8.5567 H   0  0  0  0  0  0  0  0  0  0  0  0
    6.0672   -4.1405    8.5427 H   0  0  0  0  0  0  0  0  0  0  0  0
    6.0617   -4.4068   10.2776 H   0  0  0  0  0  0  0  0  0  0  0  0
    3.7831   -4.7415    8.2622 H   0  0  0  0  0  0  0  0  0  0  0  0
    4.1911   -7.5260   11.0819 H   0  0  0  0  0  0  0  0  0  0  0  0
    5.2589   -6.0816   11.3042 H   0  0  0  0  0  0  0  0  0  0  0  0
    2.2129   -6.1151   11.5027 H   0  0  0  0  0  0  0  0  0  0  0  0
    3.3736   -6.0275   12.8772 H   0  0  0  0  0  0  0  0  0  0  0  0
    2.4404   -3.7939   12.2029 H   0  0  0  0  0  0  0  0  0  0  0  0
    4.2372   -3.9032   12.0821 H   0  0  0  0  0  0  0  0  0  0  0  0
    2.1638   -4.0193    9.8946 H   0  0  0  0  0  0  0  0  0  0  0  0
  1  2  1  0
  2  3  1  0
  4  3  1  6
  4  5  1  0
  5  6  2  0
  5  7  1  0
  4  8  1  0
  8  9  1  0
  9 10  1  0
 10 11  1  0
 11 12  1  0
 12 13  1  0
 13 14  1  0
 14 15  1  0
  2 16  1  0
 16 17  2  0
 16 18  1  0
 15  4  1  0
 14  9  1  0
  1 19  1  0
  1 20  1  0
  1 21  1  0
  2 22  1  1
  3 23  1  0
  3 24  1  0
  8 25  1  0
  8 26  1  0
  9 27  1  6
 11 28  1  0
 11 29  1  0
 12 30  1  0
 12 31  1  0
 13 32  1  0
 13 33  1  0
 14 34  1  6
M  CHG  3   1   1   7  -1  18  -1
M  END
>  <meeko>  (1) 
{"is_sidechain": [false], "free_energy": -4.586, "intermolecular_energy": -5.792, "internal_energy": -0.623}

$$$$
3gbb_ligand
     RDKit          3D

 34 35  0  0  0  0  0  0  0  0999 V2000
   10.2070   10.7460   -8.9890 N   0  0  0  0  0  0  0  0  0  0  0  0
    8.7800   10.7790   -8.5150 C   0  0  1  0  0  0  0  0  0  0  0  0
    8.6100    9.9420   -7.2370 C   0  0  0  0  0  0  0  0  0  0  0  0
    7.8480    8.6060   -7.3740 C   0  0  2  0  0  0  0  0  0  0  0  0
    8.8710    7.4090   -7.2810 C   0  0  0  0  0  0  0  0  0  0  0  0
    9.0290    6.9380   -6.1060 O   0  0  0  0  0  0  0  0  0  0  0  0
    9.4490    7.0750   -8.3470 O   0  0  0  0  0  0  0  0  0  0  0  0
    6.9980    8.5600   -8.6540 C   0  0  0  0  0  0  0  0  0  0  0  0
    5.6090    8.9180   -8.1720 C   0  0  1  0  0  0  0  0  0  0  0  0
    4.5380    8.5000   -9.0120 O   0  0  0  0  0  0  0  0  0  0  0  0
    4.2910    7.0960   -9.0200 C   0  0  0  0  0  0  0  0  0  0  0  0
    4.0380    6.5710   -7.6140 C   0  0  0  0  0  0  0  0  0  0  0  0
    5.2350    6.8610   -6.7250 C   0  0  0  0  0  0  0  0  0  0  0  0
    5.5830    8.3480   -6.7640 C   0  0  1  0  0  0  0  0  0  0  0  0
    6.9010    8.5540   -6.2370 O   0  0  0  0  0  0  0  0  0  0  0  0
    8.2900   12.2550   -8.3750 C   0  0  0  0  0  0  0  0  0  0  0  0
    8.9280   13.1430   -8.9910 O   0  0  0  0  0  0  0  0  0  0  0  0
    7.2590   12.3360   -7.6280 O   0  0  0  0  0  0  0  0  0  0  0  0
   10.2510   11.1350   -9.9610 H   0  0  0  0  0  0  0  0  0  0  0  0
   10.5220    9.7750   -9.0760 H   0  0  0  0  0  0  0  0  0  0  0  0
   10.7640   11.2510   -8.2890 H   0  0  0  0  0  0  0  0  0  0  0  0
    8.1292   10.3089   -9.2670 H   0  0  0  0  0  0  0  0  0  0  0  0
    9.6152    9.7136   -6.8530 H   0  0  0  0  0  0  0  0  0  0  0  0
    7.9900   10.5591   -6.5701 H   0  0  0  0  0  0  0  0  0  0  0  0
    7.3587    9.2922   -9.3914 H   0  0  0  0  0  0  0  0  0  0  0  0
    7.0369    7.5830   -9.1579 H   0  0  0  0  0  0  0  0  0  0  0  0
    5.4308   10.0033   -8.1940 H   0  0  0  0  0  0  0  0  0  0  0  0
    3.4081    6.8910   -9.6433 H   0  0  0  0  0  0  0  0  0  0  0  0
    5.1794    6.5895   -9.4251 H   0  0  0  0  0  0  0  0  0  0  0  0
    3.1472    7.0633   -7.1967 H   0  0  0  0  0  0  0  0  0  0  0  0
    3.8783    5.4836   -7.6592 H   0  0  0  0  0  0  0  0  0  0  0  0
    4.9962    6.5722   -5.6908 H   0  0  0  0  0  0  0  0  0  0  0  0
    6.0974    6.2842   -7.0904 H   0  0  0  0  0  0  0  0  0  0  0  0
    4.8013    8.8497   -6.1748 H   0  0  0  0  0  0  0  0  0  0  0  0
  1  2  1  0
  2  3  1  0
  4  3  1  1
  4  5  1  0
  5  6  2  0
  5  7  1  0
  4  8  1  0
  8  9  1  0
  9 10  1  0
 10 11  1  0
 11 12  1  0
 12 13  1  0
 13 14  1  0
 14 15  1  0
  2 16  1  0
 16 17  2  0
 16 18  1  0
 15  4  1  0
 14  9  1  0
  1 19  1  0
  1 20  1  0
  1 21  1  0
  2 22  1  6
  3 23  1  0
  3 24  1  0
  8 25  1  0
  8 26  1  0
  9 27  1  1
 11 28  1  0
 11 29  1  0
 12 30  1  0
 12 31  1  0
 13 32  1  0
 13 33  1  0
 14 34  1  1
M  CHG  3   1   1   7  -1  18  -1
M  END
>  <meeko>  (2) 
{"is_sidechain": [false], "free_energy": -4.531, "intermolecular_energy": -5.787, "internal_energy": -0.559}

$$$$
3gbb_ligand
     RDKit          3D

 34 35  0  0  0  0  0  0  0  0999 V2000
    6.4670   -1.2230    9.4690 N   0  0  0  0  0  0  0  0  0  0  0  0
    5.2830   -2.0430    9.0370 C   0  0  1  0  0  0  0  0  0  0  0  0
    4.4430   -2.4720   10.2510 C   0  0  0  0  0  0  0  0  0  0  0  0
    4.0790   -3.9690   10.3530 C   0  0  2  0  0  0  0  0  0  0  0  0
    2.5440   -4.1120   10.6850 C   0  0  0  0  0  0  0  0  0  0  0  0
    1.8450   -3.0790   10.4150 O   0  0  0  0  0  0  0  0  0  0  0  0
    2.1780   -5.1930   11.2130 O   0  0  0  0  0  0  0  0  0  0  0  0
    4.9740   -4.7080   11.3610 C   0  0  0  0  0  0  0  0  0  0  0  0
    6.0230   -5.3660   10.4910 C   0  0  1  0  0  0  0  0  0  0  0  0
    6.6910   -6.4840   11.0670 O   0  0  0  0  0  0  0  0  0  0  0  0
    5.8970   -7.6620   11.1900 C   0  0  0  0  0  0  0  0  0  0  0  0
    5.3200   -8.0830    9.8460 C   0  0  0  0  0  0  0  0  0  0  0  0
    4.4660   -6.9640    9.2710 C   0  0  0  0  0  0  0  0  0  0  0  0
    5.2600   -5.6620    9.2100 C   0  0  1  0  0  0  0  0  0  0  0  0
    4.3680   -4.5550    9.0250 O   0  0  0  0  0  0  0  0  0  0  0  0
    4.4710   -1.2840    7.9400 C   0  0  0  0  0  0  0  0  0  0  0  0
    3.3180   -1.7020    7.6730 O   0  0  0  0  0  0  0  0  0  0  0  0
    5.1300   -0.2990    7.4700 O   0  0  0  0  0  0  0  0  0  0  0  0
    6.9600   -0.8620    8.6180 H   0  0  0  0  0  0  0  0  0  0  0  0
    7.1530   -1.8220    9.9390 H   0  0  0  0  0  0  0  0  0  0  0  0
    6.1110   -0.5020   10.1100 H   0  0  0  0  0  0  0  0  0  0  0  0
    5.6295   -2.9776    8.5717 H   0  0  0  0  0  0  0  0  0  0  0  0
    5.0068   -2.2043   11.1568 H   0  0  0  0  0  0  0  0  0  0  0  0
    3.4819   -1.9499   10.1344 H   0  0  0  0  0  0  0  0  0  0  0  0
    5.4359   -4.0022   12.0671 H   0  0  0  0  0  0  0  0  0  0  0  0
    4.4175   -5.4287   11.9781 H   0  0  0  0  0  0  0  0  0  0  0  0
    6.8929   -4.7130   10.3273 H   0  0  0  0  0  0  0  0  0  0  0  0
    6.5233   -8.4769   11.5821 H   0  0  0  0  0  0  0  0  0  0  0  0
    5.0627   -7.4484   11.8744 H   0  0  0  0  0  0  0  0  0  0  0  0
    6.1426   -8.3069    9.1509 H   0  0  0  0  0  0  0  0  0  0  0  0
    4.6951   -8.9773    9.9864 H   0  0  0  0  0  0  0  0  0  0  0  0
    4.1442   -7.2395    8.2558 H   0  0  0  0  0  0  0  0  0  0  0  0
    3.5901   -6.8161    9.9198 H   0  0  0  0  0  0  0  0  0  0  0  0
    5.9677   -5.7877    8.3773 H   0  0  0  0  0  0  0  0  0  0  0  0
  1  2  1  0
  2  3  1  0
  4  3  1  6
  4  5  1  0
  5  6  2  0
  5  7  1  0
  4  8  1  0
  8  9  1  0
  9 10  1  0
 10 11  1  0
 11 12  1  0
 12 13  1  0
 13 14  1  0
 14 15  1  0
  2 16  1  0
 16 17  2  0
 16 18  1  0
 15  4  1  0
 14  9  1  0
  1 19  1  0
  1 20  1  0
  1 21  1  0
  2 22  1  6
  3 23  1  0
  3 24  1  0
  8 25  1  0
  8 26  1  0
  9 27  1  6
 11 28  1  0
 11 29  1  0
 12 30  1  0
 12 31  1  0
 13 32  1  0
 13 33  1  0
 14 34  1  6
M  CHG  3   1   1   7  -1  18  -1
M  END
>  <meeko>  (3) 
{"is_sidechain": [false], "free_energy": -4.45, "intermolecular_energy": -5.711, "internal_energy": -0.533}

$$$$
3gbb_ligand
     RDKit          3D

 34 35  0  0  0  0  0  0  0  0999 V2000
    5.9860   -1.1530    8.9310 N   0  0  0  0  0  0  0  0  0  0  0  0
    4.8990   -2.1850    8.8180 C   0  0  1  0  0  0  0  0  0  0  0  0
    4.5570   -2.7720   10.1980 C   0  0  0  0  0  0  0  0  0  0  0  0
    5.2360   -4.1050   10.5770 C   0  0  2  0  0  0  0  0  0  0  0  0
    6.5470   -3.8080   11.4020 C   0  0  0  0  0  0  0  0  0  0  0  0
    7.4930   -3.2860   10.7230 O   0  0  0  0  0  0  0  0  0  0  0  0
    6.5430   -4.1480   12.6120 O   0  0  0  0  0  0  0  0  0  0  0  0
    5.5000   -4.9850    9.3440 C   0  0  0  0  0  0  0  0  0  0  0  0
    4.3420   -5.9590    9.3470 C   0  0  1  0  0  0  0  0  0  0  0  0
    4.5530   -7.1710    8.6310 O   0  0  0  0  0  0  0  0  0  0  0  0
    5.4630   -8.0820    9.2440 C   0  0  0  0  0  0  0  0  0  0  0  0
    5.0300   -8.4260   10.6620 C   0  0  0  0  0  0  0  0  0  0  0  0
    4.9460   -7.1630   11.5030 C   0  0  0  0  0  0  0  0  0  0  0  0
    4.0480   -6.1280   10.8280 C   0  0  1  0  0  0  0  0  0  0  0  0
    4.2630   -4.8390   11.4170 O   0  0  0  0  0  0  0  0  0  0  0  0
    3.6690   -1.5940    8.0590 C   0  0  0  0  0  0  0  0  0  0  0  0
    3.8910   -0.9160    7.0270 O   0  0  0  0  0  0  0  0  0  0  0  0
    2.5720   -1.9180    8.6250 O   0  0  0  0  0  0  0  0  0  0  0  0
    6.2270   -1.0210    9.9420 H   0  0  0  0  0  0  0  0  0  0  0  0
    5.6330   -0.2410    8.6220 H   0  0  0  0  0  0  0  0  0  0  0  0
    6.7590   -1.4680    8.3330 H   0  0  0  0  0  0  0  0  0  0  0  0
    5.2550   -3.0330    8.2146 H   0  0  0  0  0  0  0  0  0  0  0  0
    4.8411   -2.0270   10.9558 H   0  0  0  0  0  0  0  0  0  0  0  0
    3.4818   -2.9999   10.1544 H   0  0  0  0  0  0  0  0  0  0  0  0
    5.5032   -4.3816    8.4243 H   0  0  0  0  0  0  0  0  0  0  0  0
    6.4791   -5.4852    9.3778 H   0  0  0  0  0  0  0  0  0  0  0  0
    3.4783   -5.5763    8.7835 H   0  0  0  0  0  0  0  0  0  0  0  0
    5.5022   -9.0053    8.6474 H   0  0  0  0  0  0  0  0  0  0  0  0
    6.4535   -7.6057    9.2893 H   0  0  0  0  0  0  0  0  0  0  0  0
    4.0429   -8.9106   10.6336 H   0  0  0  0  0  0  0  0  0  0  0  0
    5.7687   -9.1077   11.1088 H   0  0  0  0  0  0  0  0  0  0  0  0
    4.5310   -7.4129   12.4906 H   0  0  0  0  0  0  0  0  0  0  0  0
    5.9558   -6.7405   11.6112 H   0  0  0  0  0  0  0  0  0  0  0  0
    3.0200   -6.4955   10.9626 H   0  0  0  0  0  0  0  0  0  0  0  0
  1  2  1  0
  2  3  1  0
  4  3  1  6
  4  5  1  0
  5  6  2  0
  5  7  1  0
  4  8  1  0
  8  9  1  0
  9 10  1  0
 10 11  1  0
 11 12  1  0
 12 13  1  0
 13 14  1  0
 14 15  1  0
  2 16  1  0
 16 17  2  0
 16 18  1  0
 15  4  1  0
 14  9  1  0
  1 19  1  0
  1 20  1  0
  1 21  1  0
  2 22  1  6
  3 23  1  0
  3 24  1  0
  8 25  1  0
  8 26  1  0
  9 27  1  6
 11 28  1  0
 11 29  1  0
 12 30  1  0
 12 31  1  0
 13 32  1  0
 13 33  1  0
 14 34  1  6
M  CHG  3   1   1   7  -1  18  -1
M  END
>  <meeko>  (4) 
{"is_sidechain": [false], "free_energy": -4.401, "intermolecular_energy": -5.526, "internal_energy": -0.656}

$$$$
3gbb_ligand
     RDKit          3D

 34 35  0  0  0  0  0  0  0  0999 V2000
    1.7750   -2.0880    9.2600 N   0  0  0  0  0  0  0  0  0  0  0  0
    1.9960   -3.3160   10.1000 C   0  0  1  0  0  0  0  0  0  0  0  0
    3.3010   -3.2000   10.9030 C   0  0  0  0  0  0  0  0  0  0  0  0
    4.5530   -3.8730   10.3010 C   0  0  2  0  0  0  0  0  0  0  0  0
    5.5050   -2.7670    9.7050 C   0  0  0  0  0  0  0  0  0  0  0  0
    4.9700   -2.0340    8.8080 O   0  0  0  0  0  0  0  0  0  0  0  0
    6.6870   -2.7470   10.1340 O   0  0  0  0  0  0  0  0  0  0  0  0
    4.1840   -4.9530    9.2710 C   0  0  0  0  0  0  0  0  0  0  0  0
    4.2790   -6.2430   10.0570 C   0  0  1  0  0  0  0  0  0  0  0  0
    4.4610   -7.4250    9.2840 O   0  0  0  0  0  0  0  0  0  0  0  0
    5.7500   -7.5640    8.6910 C   0  0  0  0  0  0  0  0  0  0  0  0
    6.8510   -7.4960    9.7390 C   0  0  0  0  0  0  0  0  0  0  0  0
    6.7850   -6.1710   10.4810 C   0  0  0  0  0  0  0  0  0  0  0  0
    5.3870   -5.9480   11.0540 C   0  0  1  0  0  0  0  0  0  0  0  0
    5.2240   -4.5720   11.4210 O   0  0  0  0  0  0  0  0  0  0  0  0
    0.7360   -3.6050   10.9760 C   0  0  0  0  0  0  0  0  0  0  0  0
   -0.3340   -3.8880   10.3850 O   0  0  0  0  0  0  0  0  0  0  0  0
    1.0030   -3.5170   12.2200 O   0  0  0  0  0  0  0  0  0  0  0  0
    2.6900   -1.5950    9.1290 H   0  0  0  0  0  0  0  0  0  0  0  0
    1.1860   -1.4200    9.7690 H   0  0  0  0  0  0  0  0  0  0  0  0
    1.3140   -2.3970    8.3960 H   0  0  0  0  0  0  0  0  0  0  0  0
    2.1257   -4.1929    9.4486 H   0  0  0  0  0  0  0  0  0  0  0  0
    3.5239   -2.1294   11.0222 H   0  0  0  0  0  0  0  0  0  0  0  0
    3.1089   -3.7393   11.8423 H   0  0  0  0  0  0  0  0  0  0  0  0
    3.1636   -4.7997    8.8899 H   0  0  0  0  0  0  0  0  0  0  0  0
    4.8391   -4.9421    8.3874 H   0  0  0  0  0  0  0  0  0  0  0  0
    3.3271   -6.5023   10.5435 H   0  0  0  0  0  0  0  0  0  0  0  0
    5.8048   -8.5346    8.1762 H   0  0  0  0  0  0  0  0  0  0  0  0
    5.8960   -6.7375    7.9800 H   0  0  0  0  0  0  0  0  0  0  0  0
    6.7228   -8.3209   10.4553 H   0  0  0  0  0  0  0  0  0  0  0  0
    7.8280   -7.5813    9.2408 H   0  0  0  0  0  0  0  0  0  0  0  0
    7.5160   -6.1796   11.3029 H   0  0  0  0  0  0  0  0  0  0  0  0
    7.0151   -5.3574    9.7774 H   0  0  0  0  0  0  0  0  0  0  0  0
    5.3069   -6.6330   11.9109 H   0  0  0  0  0  0  0  0  0  0  0  0
  1  2  1  0
  2  3  1  0
  4  3  1  1
  4  5  1  0
  5  6  2  0
  5  7  1  0
  4  8  1  0
  8  9  1  0
  9 10  1  0
 10 11  1  0
 11 12  1  0
 12 13  1  0
 13 14  1  0
 14 15  1  0
  2 16  1  0
 16 17  2  0
 16 18  1  0
 15  4  1  0
 14  9  1  0
  1 19  1  0
  1 20  1  0
  1 21  1  0
  2 22  1  6
  3 23  1  0
  3 24  1  0
  8 25  1  0
  8 26  1  0
  9 27  1  1
 11 28  1  0
 11 29  1  0
 12 30  1  0
 12 31  1  0
 13 32  1  0
 13 33  1  0
 14 34  1  1
M  CHG  3   1   1   7  -1  18  -1
M  END
>  <meeko>  (5) 
{"is_sidechain": [false], "free_energy": -4.24, "intermolecular_energy": -5.347, "internal_energy": -0.631}

$$$$
3gbb_ligand
     RDKit          3D

 34 35  0  0  0  0  0  0  0  0999 V2000
    8.2590   -2.0830   11.3890 N   0  0  0  0  0  0  0  0  0  0  0  0
    7.7840   -1.3940   10.1400 C   0  0  1  0  0  0  0  0  0  0  0  0
    6.2800   -1.0870   10.2230 C   0  0  0  0  0  0  0  0  0  0  0  0
    5.3140   -2.2080    9.7830 C   0  0  2  0  0  0  0  0  0  0  0  0
    4.5420   -1.7520    8.4860 C   0  0  0  0  0  0  0  0  0  0  0  0
    5.1240   -0.8340    7.8180 O   0  0  0  0  0  0  0  0  0  0  0  0
    3.4300   -2.2980    8.2680 O   0  0  0  0  0  0  0  0  0  0  0  0
    4.3670   -2.6280   10.9180 C   0  0  0  0  0  0  0  0  0  0  0  0
    5.0190   -3.8710   11.4850 C   0  0  1  0  0  0  0  0  0  0  0  0
    4.1580   -4.7430   12.2100 O   0  0  0  0  0  0  0  0  0  0  0  0
    3.2220   -5.4650   11.4130 C   0  0  0  0  0  0  0  0  0  0  0  0
    3.9230   -6.2680   10.3280 C   0  0  0  0  0  0  0  0  0  0  0  0
    4.7310   -5.3430    9.4320 C   0  0  0  0  0  0  0  0  0  0  0  0
    5.6830   -4.4880   10.2650 C   0  0  1  0  0  0  0  0  0  0  0  0
    6.1600   -3.3850    9.4830 O   0  0  0  0  0  0  0  0  0  0  0  0
    8.6700   -0.1430    9.8430 C   0  0  0  0  0  0  0  0  0  0  0  0
    9.1100   -0.0030    8.6760 O   0  0  0  0  0  0  0  0  0  0  0  0
    8.8070    0.5880   10.8790 O   0  0  0  0  0  0  0  0  0  0  0  0
    8.5650   -3.0550   11.1470 H   0  0  0  0  0  0  0  0  0  0  0  0
    7.4750   -2.2060   12.0380 H   0  0  0  0  0  0  0  0  0  0  0  0
    8.9850   -1.4840   11.8020 H   0  0  0  0  0  0  0  0  0  0  0  0
    7.9019   -2.0673    9.2782 H   0  0  0  0  0  0  0  0  0  0  0  0
    6.0483   -0.8402   11.2696 H   0  0  0  0  0  0  0  0  0  0  0  0
    6.1142   -0.2679    9.5078 H   0  0  0  0  0  0  0  0  0  0  0  0
    4.2951   -1.8393   11.6814 H   0  0  0  0  0  0  0  0  0  0  0  0
    3.3380   -2.8054   10.5721 H   0  0  0  0  0  0  0  0  0  0  0  0
    5.7359   -3.6347   12.2852 H   0  0  0  0  0  0  0  0  0  0  0  0
    2.6567   -6.1528   12.0591 H   0  0  0  0  0  0  0  0  0  0  0  0
    2.5480   -4.7426   10.9294 H   0  0  0  0  0  0  0  0  0  0  0  0
    4.5967   -7.0010   10.7959 H   0  0  0  0  0  0  0  0  0  0  0  0
    3.1676   -6.7878    9.7204 H   0  0  0  0  0  0  0  0  0  0  0  0
    5.3145   -5.9465    8.7212 H   0  0  0  0  0  0  0  0  0  0  0  0
    4.0403   -4.6805    8.8897 H   0  0  0  0  0  0  0  0  0  0  0  0
    6.4870   -5.1678   10.5835 H   0  0  0  0  0  0  0  0  0  0  0  0
  1  2  1  0
  2  3  1  0
  4  3  1  1
  4  5  1  0
  5  6  2  0
  5  7  1  0
  4  8  1  0
  8  9  1  0
  9 10  1  0
 10 11  1  0
 11 12  1  0
 12 13  1  0
 13 14  1  0
 14 15  1  0
  2 16  1  0
 16 17  2  0
 16 18  1  0
 15  4  1  0
 14  9  1  0
  1 19  1  0
  1 20  1  0
  1 21  1  0
  2 22  1  6
  3 23  1  0
  3 24  1  0
  8 25  1  0
  8 26  1  0
  9 27  1  1
 11 28  1  0
 11 29  1  0
 12 30  1  0
 12 31  1  0
 13 32  1  0
 13 33  1  0
 14 34  1  1
M  CHG  3   1   1   7  -1  18  -1
M  END
>  <meeko>  (6) 
{"is_sidechain": [false], "free_energy": -4.179, "intermolecular_energy": -5.18, "internal_energy": -0.722}

$$$$
3gbb_ligand
     RDKit          3D

 34 35  0  0  0  0  0  0  0  0999 V2000
    8.3010   -3.1770   10.5600 N   0  0  0  0  0  0  0  0  0  0  0  0
    7.0370   -2.3880   10.3540 C   0  0  1  0  0  0  0  0  0  0  0  0
    5.9390   -2.8510   11.3250 C   0  0  0  0  0  0  0  0  0  0  0  0
    5.0610   -4.0370   10.8700 C   0  0  2  0  0  0  0  0  0  0  0  0
    3.5490   -3.5900   10.8480 C   0  0  0  0  0  0  0  0  0  0  0  0
    2.7180   -4.5200   11.1150 O   0  0  0  0  0  0  0  0  0  0  0  0
    3.3180   -2.3950   10.5330 O   0  0  0  0  0  0  0  0  0  0  0  0
    5.2960   -5.2880   11.7310 C   0  0  0  0  0  0  0  0  0  0  0  0
    6.2570   -6.1150   10.9050 C   0  0  1  0  0  0  0  0  0  0  0  0
    6.2860   -7.5070   11.2030 O   0  0  0  0  0  0  0  0  0  0  0  0
    5.1330   -8.2360   10.7900 C   0  0  0  0  0  0  0  0  0  0  0  0
    4.8740   -8.0650    9.3000 C   0  0  0  0  0  0  0  0  0  0  0  0
    4.6790   -6.5940    8.9700 C   0  0  0  0  0  0  0  0  0  0  0  0
    5.8590   -5.7690    9.4800 C   0  0  1  0  0  0  0  0  0  0  0  0
    5.5100   -4.3790    9.5010 O   0  0  0  0  0  0  0  0  0  0  0  0
    7.3390   -0.8570   10.4230 C   0  0  0  0  0  0  0  0  0  0  0  0
    6.7910   -0.1950   11.3370 O   0  0  0  0  0  0  0  0  0  0  0  0
    8.1450   -0.4980    9.5020 O   0  0  0  0  0  0  0  0  0  0  0  0
    8.7600   -2.8590   11.4470 H   0  0  0  0  0  0  0  0  0  0  0  0
    8.9740   -2.9550    9.8190 H   0  0  0  0  0  0  0  0  0  0  0  0
    8.0390   -4.1700   10.5330 H   0  0  0  0  0  0  0  0  0  0  0  0
    6.6409   -2.5795    9.3458 H   0  0  0  0  0  0  0  0  0  0  0  0
    6.4283   -3.1413   12.2664 H   0  0  0  0  0  0  0  0  0  0  0  0
    5.2495   -1.9978   11.4073 H   0  0  0  0  0  0  0  0  0  0  0  0
    5.7420   -5.0194   12.7000 H   0  0  0  0  0  0  0  0  0  0  0  0
    4.3652   -5.8246   11.9672 H   0  0  0  0  0  0  0  0  0  0  0  0
    7.3071   -5.8714   11.1238 H   0  0  0  0  0  0  0  0  0  0  0  0
    5.2875   -9.3034   11.0065 H   0  0  0  0  0  0  0  0  0  0  0  0
    4.2625   -7.8490   11.3400 H   0  0  0  0  0  0  0  0  0  0  0  0
    5.7333   -8.4542    8.7342 H   0  0  0  0  0  0  0  0  0  0  0  0
    3.9642   -8.6194    9.0264 H   0  0  0  0  0  0  0  0  0  0  0  0
    4.5992   -6.4754    7.8793 H   0  0  0  0  0  0  0  0  0  0  0  0
    3.7598   -6.2391    9.4589 H   0  0  0  0  0  0  0  0  0  0  0  0
    6.6918   -5.9920    8.7968 H   0  0  0  0  0  0  0  0  0  0  0  0
  1  2  1  0
  2  3  1  0
  4  3  1  1
  4  5  1  0
  5  6  2  0
  5  7  1  0
  4  8  1  0
  8  9  1  0
  9 10  1  0
 10 11  1  0
 11 12  1  0
 12 13  1  0
 13 14  1  0
 14 15  1  0
  2 16  1  0
 16 17  2  0
 16 18  1  0
 15  4  1  0
 14  9  1  0
  1 19  1  0
  1 20  1  0
  1 21  1  0
  2 22  1  6
  3 23  1  0
  3 24  1  0
  8 25  1  0
  8 26  1  0
  9 27  1  1
 11 28  1  0
 11 29  1  0
 12 30  1  0
 12 31  1  0
 13 32  1  0
 13 33  1  0
 14 34  1  6
M  CHG  3   1   1   7  -1  18  -1
M  END
>  <meeko>  (7) 
{"is_sidechain": [false], "free_energy": -4.078, "intermolecular_energy": -5.08, "internal_energy": -0.695}

$$$$
3gbb_ligand
     RDKit          3D

 34 35  0  0  0  0  0  0  0  0999 V2000
    6.1500   -0.3480    8.3900 N   0  0  0  0  0  0  0  0  0  0  0  0
    6.1300   -1.4220    9.4420 C   0  0  1  0  0  0  0  0  0  0  0  0
    6.6210   -0.8730   10.7910 C   0  0  0  0  0  0  0  0  0  0  0  0
    8.1020   -1.1250   11.1490 C   0  0  2  0  0  0  0  0  0  0  0  0
    8.2470   -2.5550   11.7970 C   0  0  0  0  0  0  0  0  0  0  0  0
    8.8350   -3.4140   11.0590 O   0  0  0  0  0  0  0  0  0  0  0  0
    7.7400   -2.7140   12.9360 O   0  0  0  0  0  0  0  0  0  0  0  0
    8.6740   -0.0110   12.0400 C   0  0  0  0  0  0  0  0  0  0  0  0
    9.4080    0.8840   11.0660 C   0  0  1  0  0  0  0  0  0  0  0  0
   10.4190    1.7130   11.6300 O   0  0  0  0  0  0  0  0  0  0  0  0
   11.5940    1.0270   12.0540 C   0  0  0  0  0  0  0  0  0  0  0  0
   12.2060    0.2230   10.9150 C   0  0  0  0  0  0  0  0  0  0  0  0
   11.2010   -0.7880   10.3890 C   0  0  0  0  0  0  0  0  0  0  0  0
    9.8940   -0.0950   10.0100 C   0  0  1  0  0  0  0  0  0  0  0  0
    8.8490   -1.0670    9.8720 O   0  0  0  0  0  0  0  0  0  0  0  0
    4.7190   -2.0890    9.5060 C   0  0  0  0  0  0  0  0  0  0  0  0
    4.0540   -2.1510    8.4440 O   0  0  0  0  0  0  0  0  0  0  0  0
    4.4510   -2.5010   10.6830 O   0  0  0  0  0  0  0  0  0  0  0  0
    5.1940   -0.2670    7.9670 H   0  0  0  0  0  0  0  0  0  0  0  0
    6.7590   -0.6320    7.6150 H   0  0  0  0  0  0  0  0  0  0  0  0
    6.5040    0.5040    8.8410 H   0  0  0  0  0  0  0  0  0  0  0  0
    6.8366   -2.2202    9.1708 H   0  0  0  0  0  0  0  0  0  0  0  0
    6.4607    0.2152   10.7854 H   0  0  0  0  0  0  0  0  0  0  0  0
    6.0444   -1.4205   11.5511 H   0  0  0  0  0  0  0  0  0  0  0  0
    7.8675    0.5389   12.5472 H   0  0  0  0  0  0  0  0  0  0  0  0
    9.3242   -0.3955   12.8396 H   0  0  0  0  0  0  0  0  0  0  0  0
    8.7555    1.6671   10.6525 H   0  0  0  0  0  0  0  0  0  0  0  0
   12.3303    1.7630   12.4092 H   0  0  0  0  0  0  0  0  0  0  0  0
   11.3184    0.3320   12.8609 H   0  0  0  0  0  0  0  0  0  0  0  0
   12.4945    0.9056   10.1021 H   0  0  0  0  0  0  0  0  0  0  0  0
   13.0921   -0.3116   11.2879 H   0  0  0  0  0  0  0  0  0  0  0  0
   11.6183   -1.2847    9.5006 H   0  0  0  0  0  0  0  0  0  0  0  0
   10.9959   -1.5285   11.1761 H   0  0  0  0  0  0  0  0  0  0  0  0
   10.1069    0.4435    9.0747 H   0  0  0  0  0  0  0  0  0  0  0  0
  1  2  1  0
  2  3  1  0
  4  3  1  6
  4  5  1  0
  5  6  2  0
  5  7  1  0
  4  8  1  0
  8  9  1  0
  9 10  1  0
 10 11  1  0
 11 12  1  0
 12 13  1  0
 13 14  1  0
 14 15  1  0
  2 16  1  0
 16 17  2  0
 16 18  1  0
 15  4  1  0
 14  9  1  0
  1 19  1  0
  1 20  1  0
  1 21  1  0
  2 22  1  6
  3 23  1  0
  3 24  1  0
  8 25  1  0
  8 26  1  0
  9 27  1  6
 11 28  1  0
 11 29  1  0
 12 30  1  0
 12 31  1  0
 13 32  1  0
 13 33  1  0
 14 34  1  6
M  CHG  3   1   1   7  -1  18  -1
M  END
>  <meeko>  (8) 
{"is_sidechain": [false], "free_energy": -4.072, "intermolecular_energy": -5.098, "internal_energy": -0.669}

$$$$
3gbb_ligand
     RDKit          3D

 34 35  0  0  0  0  0  0  0  0999 V2000
   10.4540    2.4120    7.0910 N   0  0  0  0  0  0  0  0  0  0  0  0
    9.6520    1.2550    7.6200 C   0  0  1  0  0  0  0  0  0  0  0  0
    9.2350    1.5020    9.0790 C   0  0  0  0  0  0  0  0  0  0  0  0
    9.7080    0.4700   10.1250 C   0  0  2  0  0  0  0  0  0  0  0  0
   11.2050    0.7730   10.5180 C   0  0  0  0  0  0  0  0  0  0  0  0
   11.5120    2.0110   10.5160 O   0  0  0  0  0  0  0  0  0  0  0  0
   11.9410   -0.2200   10.7470 O   0  0  0  0  0  0  0  0  0  0  0  0
    9.5050   -0.9740    9.6370 C   0  0  0  0  0  0  0  0  0  0  0  0
    8.2100   -1.3950   10.2990 C   0  0  1  0  0  0  0  0  0  0  0  0
    8.0110   -2.7980   10.4270 O   0  0  0  0  0  0  0  0  0  0  0  0
    8.8400   -3.4390   11.3940 C   0  0  0  0  0  0  0  0  0  0  0  0
    8.6840   -2.8000   12.7660 C   0  0  0  0  0  0  0  0  0  0  0  0
    9.0440   -1.3250   12.7000 C   0  0  0  0  0  0  0  0  0  0  0  0
    8.2360   -0.6250   11.6090 C   0  0  1  0  0  0  0  0  0  0  0  0
    8.8280    0.6440   11.3020 O   0  0  0  0  0  0  0  0  0  0  0  0
    8.4580    0.9440    6.6640 C   0  0  0  0  0  0  0  0  0  0  0  0
    7.3610    0.6270    7.1830 O   0  0  0  0  0  0  0  0  0  0  0  0
    8.7930    1.0770    5.4400 O   0  0  0  0  0  0  0  0  0  0  0  0
   10.8000    2.1750    6.1300 H   0  0  0  0  0  0  0  0  0  0  0  0
   11.3020    2.5340    7.6550 H   0  0  0  0  0  0  0  0  0  0  0  0
    9.8530    3.2430    7.1490 H   0  0  0  0  0  0  0  0  0  0  0  0
   10.2755    0.3490    7.6389 H   0  0  0  0  0  0  0  0  0  0  0  0
    9.6331    2.4833    9.3768 H   0  0  0  0  0  0  0  0  0  0  0  0
    8.1375    1.4286    9.0798 H   0  0  0  0  0  0  0  0  0  0  0  0
    9.4155   -1.0093    8.5412 H   0  0  0  0  0  0  0  0  0  0  0  0
   10.3484   -1.6332    9.8902 H   0  0  0  0  0  0  0  0  0  0  0  0
    7.3319   -1.1536    9.6820 H   0  0  0  0  0  0  0  0  0  0  0  0
    8.5596   -4.5007   11.4591 H   0  0  0  0  0  0  0  0  0  0  0  0
    9.8883   -3.3322   11.0783 H   0  0  0  0  0  0  0  0  0  0  0  0
    7.6412   -2.9052   13.0998 H   0  0  0  0  0  0  0  0  0  0  0  0
    9.3571   -3.3031   13.4758 H   0  0  0  0  0  0  0  0  0  0  0  0
    8.8250   -0.8553   13.6703 H   0  0  0  0  0  0  0  0  0  0  0  0
   10.1146   -1.2304   12.4656 H   0  0  0  0  0  0  0  0  0  0  0  0
    7.2149   -0.5370   12.0085 H   0  0  0  0  0  0  0  0  0  0  0  0
  1  2  1  0
  2  3  1  0
  4  3  1  6
  4  5  1  0
  5  6  2  0
  5  7  1  0
  4  8  1  0
  8  9  1  0
  9 10  1  0
 10 11  1  0
 11 12  1  0
 12 13  1  0
 13 14  1  0
 14 15  1  0
  2 16  1  0
 16 17  2  0
 16 18  1  0
 15  4  1  0
 14  9  1  0
  1 19  1  0
  1 20  1  0
  1 21  1  0
  2 22  1  1
  3 23  1  0
  3 24  1  0
  8 25  1  0
  8 26  1  0
  9 27  1  6
 11 28  1  0
 11 29  1  0
 12 30  1  0
 12 31  1  0
 13 32  1  0
 13 33  1  0
 14 34  1  1
M  CHG  3   1   1   7  -1  18  -1
M  END
>  <meeko>  (9) 
{"is_sidechain": [false], "free_energy": -4.07, "intermolecular_energy": -5.195, "internal_energy": -0.569}

$$$$
