1vso_ligand
     RDKit          3D

 38 38  0  0  0  0  0  0  0  0999 V2000
   -8.6920   21.2640    8.4570 C   0  0  0  0  0  0  0  0  0  0  0  0
   -7.8540   19.9780    8.3390 C   0  0  0  0  0  0  0  0  0  0  0  0
   -8.6550   18.8210    8.9810 C   0  0  0  0  0  0  0  0  0  0  0  0
   -7.6670   19.6300    6.8560 C   0  0  0  0  0  0  0  0  0  0  0  0
   -6.5300   20.1790    9.0420 C   0  0  0  0  0  0  0  0  0  0  0  0
   -6.3260   21.4340    9.5490 O   0  0  0  0  0  0  0  0  0  0  0  0
   -5.0450   21.5480   10.0450 N   0  0  0  0  0  0  0  0  0  0  0  0
   -4.5130   20.3330    9.8980 C   0  0  0  0  0  0  0  0  0  0  0  0
   -3.1940   20.1850   10.1130 O   0  0  0  0  0  0  0  0  0  0  0  0
   -2.6480   21.2390   10.9180 C   0  0  0  0  0  0  0  0  0  0  0  0
   -1.7690   20.4680   12.3780 P   0  0  0  0  0  0  0  0  0  0  0  0
   -2.1340   21.3380   13.5850 O   0  0  0  0  0  0  0  0  0  0  0  0
   -0.3040   20.4620   12.0010 O   0  0  0  0  0  0  0  0  0  0  0  0
   -2.4200   19.0920   12.5600 O   0  0  0  0  0  0  0  0  0  0  0  0
   -5.3810   19.4240    9.2450 C   0  0  0  0  0  0  0  0  0  0  0  0
   -5.0500   18.0280    8.8020 C   0  0  0  0  0  0  0  0  0  0  0  0
   -5.1360   16.9600    9.9000 C   0  0  2  0  0  0  0  0  0  0  0  0
   -4.1790   17.2360   10.9920 N   0  0  0  0  0  0  0  0  0  0  0  0
   -5.0400   15.5060    9.3320 C   0  0  0  0  0  0  0  0  0  0  0  0
   -3.9130   14.9370    9.3830 O   0  0  0  0  0  0  0  0  0  0  0  0
   -6.1240   15.0800    8.8230 O   0  0  0  0  0  0  0  0  0  0  0  0
   -8.8482   21.5037    9.5191 H   0  0  0  0  0  0  0  0  0  0  0  0
   -8.1608   22.0939    7.9681 H   0  0  0  0  0  0  0  0  0  0  0  0
   -9.6658   21.1133    7.9681 H   0  0  0  0  0  0  0  0  0  0  0  0
   -8.5999   18.9006   10.0767 H   0  0  0  0  0  0  0  0  0  0  0  0
   -9.7058   18.8810    8.6614 H   0  0  0  0  0  0  0  0  0  0  0  0
   -8.2289   17.8585    8.6614 H   0  0  0  0  0  0  0  0  0  0  0  0
   -7.1480   18.6641    6.7687 H   0  0  0  0  0  0  0  0  0  0  0  0
   -8.6507   19.5631    6.3682 H   0  0  0  0  0  0  0  0  0  0  0  0
   -7.0683   20.4134    6.3682 H   0  0  0  0  0  0  0  0  0  0  0  0
   -1.9349   21.8294   10.3240 H   0  0  0  0  0  0  0  0  0  0  0  0
   -3.4515   21.9040   11.2675 H   0  0  0  0  0  0  0  0  0  0  0  0
   -5.7499   17.7498    8.0003 H   0  0  0  0  0  0  0  0  0  0  0  0
   -3.9992   18.0503    8.4775 H   0  0  0  0  0  0  0  0  0  0  0  0
   -6.1396   17.0214   10.3461 H   0  0  0  0  0  0  0  0  0  0  0  0
   -3.2950   16.6470   11.0310 H   0  0  0  0  0  0  0  0  0  0  0  0
   -3.6670   18.1630   10.9080 H   0  0  0  0  0  0  0  0  0  0  0  0
   -4.5970   17.1650   11.9170 H   0  0  0  0  0  0  0  0  0  0  0  0
  1  2  1  0
  2  3  1  0
  2  4  1  0
  2  5  1  0
  5  6  1  0
  6  7  1  0
  7  8  2  0
  8  9  1  0
  9 10  1  0
 10 11  1  0
 11 12  2  0
 11 13  1  0
 11 14  1  0
  8 15  1  0
 15 16  1  0
 16 17  1  0
 17 18  1  0
 17 19  1  0
 19 20  2  0
 19 21  1  0
 15  5  2  0
  1 22  1  0
  1 23  1  0
  1 24  1  0
  3 25  1  0
  3 26  1  0
  3 27  1  0
  4 28  1  0
  4 29  1  0
  4 30  1  0
 10 31  1  0
 10 32  1  0
 16 33  1  0
 16 34  1  0
 17 35  1  1
 18 36  1  0
 18 37  1  0
 18 38  1  0
M  CHG  4  13  -1  14  -1  18   1  21  -1
M  END
>  <meeko>  (1) 
{"is_sidechain": [false], "free_energy": -5.467, "intermolecular_energy": -7.865, "internal_energy": -1.071}

$$$$
1vso_ligand
     RDKit          3D

 38 38  0  0  0  0  0  0  0  0999 V2000
   -3.5560   22.7060   11.3800 C   0  0  0  0  0  0  0  0  0  0  0  0
   -3.4170   21.6310   10.2860 C   0  0  0  0  0  0  0  0  0  0  0  0
   -2.5800   22.2270    9.1300 C   0  0  0  0  0  0  0  0  0  0  0  0
   -2.6320   20.4370   10.8460 C   0  0  0  0  0  0  0  0  0  0  0  0
   -4.7940   21.2260    9.8080 C   0  0  0  0  0  0  0  0  0  0  0  0
   -5.7740   22.1640    9.9950 O   0  0  0  0  0  0  0  0  0  0  0  0
   -7.0040   21.6460    9.6520 N   0  0  0  0  0  0  0  0  0  0  0  0
   -6.7430   20.4210    9.1920 C   0  0  0  0  0  0  0  0  0  0  0  0
   -7.7770   19.5910    8.9650 O   0  0  0  0  0  0  0  0  0  0  0  0
   -8.3970   19.8260    7.6930 C   0  0  0  0  0  0  0  0  0  0  0  0
  -10.0560   20.6380    7.9900 P   0  0  0  0  0  0  0  0  0  0  0  0
  -10.4830   20.2020    9.3940 O   0  0  0  0  0  0  0  0  0  0  0  0
  -10.9410   20.1560    6.8620 O   0  0  0  0  0  0  0  0  0  0  0  0
   -9.7670   22.1430    8.0180 O   0  0  0  0  0  0  0  0  0  0  0  0
   -5.3730   20.0740    9.2870 C   0  0  0  0  0  0  0  0  0  0  0  0
   -4.7620   18.7350    8.9890 C   0  0  0  0  0  0  0  0  0  0  0  0
   -5.1580   17.6110    9.9540 C   0  0  2  0  0  0  0  0  0  0  0  0
   -4.1690   17.4670   11.0440 N   0  0  0  0  0  0  0  0  0  0  0  0
   -5.4790   16.2700    9.2160 C   0  0  0  0  0  0  0  0  0  0  0  0
   -4.6360   15.3350    9.3200 O   0  0  0  0  0  0  0  0  0  0  0  0
   -6.5510   16.3020    8.5350 O   0  0  0  0  0  0  0  0  0  0  0  0
   -3.4946   22.2313   12.3704 H   0  0  0  0  0  0  0  0  0  0  0  0
   -2.7456   23.4424   11.2755 H   0  0  0  0  0  0  0  0  0  0  0  0
   -4.5271   23.2121   11.2755 H   0  0  0  0  0  0  0  0  0  0  0  0
   -1.7501   22.8179    9.5449 H   0  0  0  0  0  0  0  0  0  0  0  0
   -2.1763   21.4119    8.5114 H   0  0  0  0  0  0  0  0  0  0  0  0
   -3.2182   22.8751    8.5114 H   0  0  0  0  0  0  0  0  0  0  0  0
   -2.6523   20.4679   11.9454 H   0  0  0  0  0  0  0  0  0  0  0  0
   -3.0910   19.5002   10.4970 H   0  0  0  0  0  0  0  0  0  0  0  0
   -1.5900   20.4870   10.4970 H   0  0  0  0  0  0  0  0  0  0  0  0
   -7.7619   20.4882    7.0862 H   0  0  0  0  0  0  0  0  0  0  0  0
   -8.5307   18.8759    7.1550 H   0  0  0  0  0  0  0  0  0  0  0  0
   -5.0692   18.4381    7.9753 H   0  0  0  0  0  0  0  0  0  0  0  0
   -3.6748   18.8631    9.0969 H   0  0  0  0  0  0  0  0  0  0  0  0
   -6.1051   17.9021   10.4318 H   0  0  0  0  0  0  0  0  0  0  0  0
   -4.1750   16.5580   11.5960 H   0  0  0  0  0  0  0  0  0  0  0  0
   -3.1630   17.3720   10.7190 H   0  0  0  0  0  0  0  0  0  0  0  0
   -4.2290   18.2100   11.7380 H   0  0  0  0  0  0  0  0  0  0  0  0
  1  2  1  0
  2  3  1  0
  2  4  1  0
  2  5  1  0
  5  6  1  0
  6  7  1  0
  7  8  2  0
  8  9  1  0
  9 10  1  0
 10 11  1  0
 11 12  2  0
 11 13  1  0
 11 14  1  0
  8 15  1  0
 15 16  1  0
 16 17  1  0
 17 18  1  0
 17 19  1  0
 19 20  2  0
 19 21  1  0
 15  5  2  0
  1 22  1  0
  1 23  1  0
  1 24  1  0
  3 25  1  0
  3 26  1  0
  3 27  1  0
  4 28  1  0
  4 29  1  0
  4 30  1  0
 10 31  1  0
 10 32  1  0
 16 33  1  0
 16 34  1  0
 17 35  1  1
 18 36  1  0
 18 37  1  0
 18 38  1  0
M  CHG  4  13  -1  14  -1  18   1  21  -1
M  END
>  <meeko>  (2) 
{"is_sidechain": [false], "free_energy": -5.091, "intermolecular_energy": -7.847, "internal_energy": -0.547}

$$$$
1vso_ligand
     RDKit          3D

 38 38  0  0  0  0  0  0  0  0999 V2000
   -3.1010   21.5200   11.2890 C   0  0  0  0  0  0  0  0  0  0  0  0
   -4.0860   21.3610   10.1160 C   0  0  0  0  0  0  0  0  0  0  0  0
   -5.2810   22.3120   10.3580 C   0  0  0  0  0  0  0  0  0  0  0  0
   -3.4040   21.8110    8.8170 C   0  0  0  0  0  0  0  0  0  0  0  0
   -4.5430   19.9210   10.0420 C   0  0  0  0  0  0  0  0  0  0  0  0
   -3.8550   19.0500   10.8430 O   0  0  0  0  0  0  0  0  0  0  0  0
   -4.2580   17.7540   10.6000 N   0  0  0  0  0  0  0  0  0  0  0  0
   -5.2410   17.8650    9.7050 C   0  0  0  0  0  0  0  0  0  0  0  0
   -5.7020   16.7440    9.1210 O   0  0  0  0  0  0  0  0  0  0  0  0
   -4.9580   15.5810    9.5080 C   0  0  0  0  0  0  0  0  0  0  0  0
   -5.6960   14.0960    8.6430 P   0  0  0  0  0  0  0  0  0  0  0  0
   -4.6210   13.6110    7.6670 O   0  0  0  0  0  0  0  0  0  0  0  0
   -6.9730   14.6030    8.0060 O   0  0  0  0  0  0  0  0  0  0  0  0
   -5.8690   13.0370    9.7370 O   0  0  0  0  0  0  0  0  0  0  0  0
   -5.4570   19.2000    9.2820 C   0  0  0  0  0  0  0  0  0  0  0  0
   -6.3850   19.6580    8.1940 C   0  0  0  0  0  0  0  0  0  0  0  0
   -7.8610   19.2940    8.4020 C   0  0  2  0  0  0  0  0  0  0  0  0
   -8.2210   18.0720    7.6530 N   0  0  0  0  0  0  0  0  0  0  0  0
   -8.8200   20.5000    8.1360 C   0  0  0  0  0  0  0  0  0  0  0  0
   -9.6890   20.3610    7.2290 O   0  0  0  0  0  0  0  0  0  0  0  0
   -8.5680   21.5240    8.8460 O   0  0  0  0  0  0  0  0  0  0  0  0
   -3.6463   21.4320   12.2402 H   0  0  0  0  0  0  0  0  0  0  0  0
   -2.3334   20.7341   11.2323 H   0  0  0  0  0  0  0  0  0  0  0  0
   -2.6197   22.5075   11.2323 H   0  0  0  0  0  0  0  0  0  0  0  0
   -5.4374   22.4364   11.4397 H   0  0  0  0  0  0  0  0  0  0  0  0
   -5.0686   23.2908    9.9032 H   0  0  0  0  0  0  0  0  0  0  0  0
   -6.1871   21.8853    9.9032 H   0  0  0  0  0  0  0  0  0  0  0  0
   -2.5083   22.4020    9.0588 H   0  0  0  0  0  0  0  0  0  0  0  0
   -3.1128   20.9271    8.2305 H   0  0  0  0  0  0  0  0  0  0  0  0
   -4.1021   22.4264    8.2305 H   0  0  0  0  0  0  0  0  0  0  0  0
   -3.9049   15.6980    9.2126 H   0  0  0  0  0  0  0  0  0  0  0  0
   -5.0058   15.4464   10.5987 H   0  0  0  0  0  0  0  0  0  0  0  0
   -6.3110   20.7531    8.1214 H   0  0  0  0  0  0  0  0  0  0  0  0
   -6.0665   19.1361    7.2796 H   0  0  0  0  0  0  0  0  0  0  0  0
   -7.9987   19.0559    9.4671 H   0  0  0  0  0  0  0  0  0  0  0  0
   -9.1170   17.5710    7.9310 H   0  0  0  0  0  0  0  0  0  0  0  0
   -8.5190   18.2400    6.6470 H   0  0  0  0  0  0  0  0  0  0  0  0
   -7.4920   17.3610    7.6720 H   0  0  0  0  0  0  0  0  0  0  0  0
  1  2  1  0
  2  3  1  0
  2  4  1  0
  2  5  1  0
  5  6  1  0
  6  7  1  0
  7  8  2  0
  8  9  1  0
  9 10  1  0
 10 11  1  0
 11 12  2  0
 11 13  1  0
 11 14  1  0
  8 15  1  0
 15 16  1  0
 16 17  1  0
 17 18  1  0
 17 19  1  0
 19 20  2  0
 19 21  1  0
 15  5  2  0
  1 22  1  0
  1 23  1  0
  1 24  1  0
  3 25  1  0
  3 26  1  0
  3 27  1  0
  4 28  1  0
  4 29  1  0
  4 30  1  0
 10 31  1  0
 10 32  1  0
 16 33  1  0
 16 34  1  0
 17 35  1  1
 18 36  1  0
 18 37  1  0
 18 38  1  0
M  CHG  4  13  -1  14  -1  18   1  21  -1
M  END
>  <meeko>  (3) 
{"is_sidechain": [false], "free_energy": -5.08, "intermolecular_energy": -7.448, "internal_energy": -0.929}

$$$$
1vso_ligand
     RDKit          3D

 38 38  0  0  0  0  0  0  0  0999 V2000
  -11.3820   24.0960   11.4310 C   0  0  0  0  0  0  0  0  0  0  0  0
  -11.1950   22.9330   10.4400 C   0  0  0  0  0  0  0  0  0  0  0  0
  -11.9690   21.7100   10.9830 C   0  0  0  0  0  0  0  0  0  0  0  0
  -11.8270   23.3080    9.0930 C   0  0  0  0  0  0  0  0  0  0  0  0
   -9.7190   22.6270   10.3050 C   0  0  0  0  0  0  0  0  0  0  0  0
   -8.9380   23.0570   11.3440 O   0  0  0  0  0  0  0  0  0  0  0  0
   -7.6050   22.8500   11.0580 N   0  0  0  0  0  0  0  0  0  0  0  0
   -7.6020   22.2280    9.8780 C   0  0  0  0  0  0  0  0  0  0  0  0
   -6.4260   22.0720    9.2440 O   0  0  0  0  0  0  0  0  0  0  0  0
   -5.5250   21.2190    9.9630 C   0  0  0  0  0  0  0  0  0  0  0  0
   -5.3820   19.6010    9.0360 P   0  0  0  0  0  0  0  0  0  0  0  0
   -6.0820   18.5600    9.9130 O   0  0  0  0  0  0  0  0  0  0  0  0
   -3.8970   19.3890    8.8350 O   0  0  0  0  0  0  0  0  0  0  0  0
   -6.2090   19.7930    7.7600 O   0  0  0  0  0  0  0  0  0  0  0  0
   -8.8980   22.0800    9.3260 C   0  0  0  0  0  0  0  0  0  0  0  0
   -9.2380   21.5530    7.9620 C   0  0  0  0  0  0  0  0  0  0  0  0
   -9.7760   20.1160    7.9350 C   0  0  2  0  0  0  0  0  0  0  0  0
   -9.0770   19.2640    8.9210 N   0  0  0  0  0  0  0  0  0  0  0  0
   -9.8060   19.5130    6.4930 C   0  0  0  0  0  0  0  0  0  0  0  0
  -10.7690   19.8440    5.7460 O   0  0  0  0  0  0  0  0  0  0  0  0
   -8.8610   18.6960    6.2570 O   0  0  0  0  0  0  0  0  0  0  0  0
  -11.3206   23.7138   12.4606 H   0  0  0  0  0  0  0  0  0  0  0  0
  -10.5928   24.8452   11.2703 H   0  0  0  0  0  0  0  0  0  0  0  0
  -12.3663   24.5600   11.2703 H   0  0  0  0  0  0  0  0  0  0  0  0
  -11.9578   21.7277   12.0828 H   0  0  0  0  0  0  0  0  0  0  0  0
  -13.0089   21.7463   10.6263 H   0  0  0  0  0  0  0  0  0  0  0  0
  -11.4911   20.7857   10.6263 H   0  0  0  0  0  0  0  0  0  0  0  0
  -12.7610   23.8622    9.2678 H   0  0  0  0  0  0  0  0  0  0  0  0
  -11.1282   23.9377    8.5228 H   0  0  0  0  0  0  0  0  0  0  0  0
  -12.0449   22.3929    8.5228 H   0  0  0  0  0  0  0  0  0  0  0  0
   -4.5365   21.6965   10.0324 H   0  0  0  0  0  0  0  0  0  0  0  0
   -5.9029   21.0406   10.9805 H   0  0  0  0  0  0  0  0  0  0  0  0
  -10.0022   22.2113    7.5230 H   0  0  0  0  0  0  0  0  0  0  0  0
   -8.2952   21.5379    7.3956 H   0  0  0  0  0  0  0  0  0  0  0  0
  -10.8303   20.1495    8.2471 H   0  0  0  0  0  0  0  0  0  0  0  0
   -8.9570   19.6490    9.9050 H   0  0  0  0  0  0  0  0  0  0  0  0
   -9.6190   18.4030    9.2250 H   0  0  0  0  0  0  0  0  0  0  0  0
   -8.1450   18.9860    8.6200 H   0  0  0  0  0  0  0  0  0  0  0  0
  1  2  1  0
  2  3  1  0
  2  4  1  0
  2  5  1  0
  5  6  1  0
  6  7  1  0
  7  8  2  0
  8  9  1  0
  9 10  1  0
 10 11  1  0
 11 12  2  0
 11 13  1  0
 11 14  1  0
  8 15  1  0
 15 16  1  0
 16 17  1  0
 17 18  1  0
 17 19  1  0
 19 20  2  0
 19 21  1  0
 15  5  2  0
  1 22  1  0
  1 23  1  0
  1 24  1  0
  3 25  1  0
  3 26  1  0
  3 27  1  0
  4 28  1  0
  4 29  1  0
  4 30  1  0
 10 31  1  0
 10 32  1  0
 16 33  1  0
 16 34  1  0
 17 35  1  1
 18 36  1  0
 18 37  1  0
 18 38  1  0
M  CHG  4  13  -1  14  -1  18   1  21  -1
M  END
>  <meeko>  (4) 
{"is_sidechain": [false], "free_energy": -5.063, "intermolecular_energy": -7.147, "internal_energy": -1.207}

$$$$
1vso_ligand
     RDKit          3D

 38 38  0  0  0  0  0  0  0  0999 V2000
  -12.3340   22.9940    8.9660 C   0  0  0  0  0  0  0  0  0  0  0  0
  -11.7600   21.8650    9.8420 C   0  0  0  0  0  0  0  0  0  0  0  0
  -12.4270   21.9520   11.2350 C   0  0  0  0  0  0  0  0  0  0  0  0
  -12.1470   20.5090    9.2380 C   0  0  0  0  0  0  0  0  0  0  0  0
  -10.2600   22.0290    9.9460 C   0  0  0  0  0  0  0  0  0  0  0  0
   -9.8240   22.7080   11.0520 O   0  0  0  0  0  0  0  0  0  0  0  0
   -8.4640   22.9170   10.9800 N   0  0  0  0  0  0  0  0  0  0  0  0
   -8.0810   22.2960    9.8640 C   0  0  0  0  0  0  0  0  0  0  0  0
   -6.8270   22.4960    9.4200 O   0  0  0  0  0  0  0  0  0  0  0  0
   -5.8550   22.4060   10.4710 C   0  0  0  0  0  0  0  0  0  0  0  0
   -4.2740   21.7140    9.7500 P   0  0  0  0  0  0  0  0  0  0  0  0
   -3.3230   21.5360   10.9380 O   0  0  0  0  0  0  0  0  0  0  0  0
   -3.8350   22.7240    8.7120 O   0  0  0  0  0  0  0  0  0  0  0  0
   -4.6470   20.3260    9.2180 O   0  0  0  0  0  0  0  0  0  0  0  0
   -9.1640   21.7380    9.1410 C   0  0  0  0  0  0  0  0  0  0  0  0
   -9.1040   21.0950    7.7860 C   0  0  0  0  0  0  0  0  0  0  0  0
   -8.4700   19.6980    7.7560 C   0  0  2  0  0  0  0  0  0  0  0  0
   -7.0030   19.7790    7.5950 N   0  0  0  0  0  0  0  0  0  0  0  0
   -9.1640   18.7460    6.7290 C   0  0  0  0  0  0  0  0  0  0  0  0
   -9.9950   19.2620    5.9290 O   0  0  0  0  0  0  0  0  0  0  0  0
   -8.8410   17.5240    6.8600 O   0  0  0  0  0  0  0  0  0  0  0  0
  -12.7380   23.7887    9.6104 H   0  0  0  0  0  0  0  0  0  0  0  0
  -11.5364   23.4069    8.3309 H   0  0  0  0  0  0  0  0  0  0  0  0
  -13.1376   22.5928    8.3309 H   0  0  0  0  0  0  0  0  0  0  0  0
  -11.6590   21.8518   12.0161 H   0  0  0  0  0  0  0  0  0  0  0  0
  -12.9320   22.9236   11.3397 H   0  0  0  0  0  0  0  0  0  0  0  0
  -13.1643   21.1424   11.3397 H   0  0  0  0  0  0  0  0  0  0  0  0
  -12.3516   19.7922   10.0470 H   0  0  0  0  0  0  0  0  0  0  0  0
  -13.0471   20.6277    8.6170 H   0  0  0  0  0  0  0  0  0  0  0  0
  -11.3198   20.1347    8.6170 H   0  0  0  0  0  0  0  0  0  0  0  0
   -5.6666   23.4054   10.8901 H   0  0  0  0  0  0  0  0  0  0  0  0
   -6.2242   21.7510   11.2739 H   0  0  0  0  0  0  0  0  0  0  0  0
  -10.1317   21.0111    7.4028 H   0  0  0  0  0  0  0  0  0  0  0  0
   -8.4579   21.7379    7.1702 H   0  0  0  0  0  0  0  0  0  0  0  0
   -8.6476   19.2306    8.7358 H   0  0  0  0  0  0  0  0  0  0  0  0
   -6.6300   20.3020    6.7480 H   0  0  0  0  0  0  0  0  0  0  0  0
   -6.5120   20.3960    8.3070 H   0  0  0  0  0  0  0  0  0  0  0  0
   -6.5520   18.8660    7.5740 H   0  0  0  0  0  0  0  0  0  0  0  0
  1  2  1  0
  2  3  1  0
  2  4  1  0
  2  5  1  0
  5  6  1  0
  6  7  1  0
  7  8  2  0
  8  9  1  0
  9 10  1  0
 10 11  1  0
 11 12  2  0
 11 13  1  0
 11 14  1  0
  8 15  1  0
 15 16  1  0
 16 17  1  0
 17 18  1  0
 17 19  1  0
 19 20  2  0
 19 21  1  0
 15  5  2  0
  1 22  1  0
  1 23  1  0
  1 24  1  0
  3 25  1  0
  3 26  1  0
  3 27  1  0
  4 28  1  0
  4 29  1  0
  4 30  1  0
 10 31  1  0
 10 32  1  0
 16 33  1  0
 16 34  1  0
 17 35  1  1
 18 36  1  0
 18 37  1  0
 18 38  1  0
M  CHG  4  13  -1  14  -1  18   1  21  -1
M  END
>  <meeko>  (5) 
{"is_sidechain": [false], "free_energy": -5.04, "intermolecular_energy": -7.241, "internal_energy": -1.079}

$$$$
1vso_ligand
     RDKit          3D

 38 38  0  0  0  0  0  0  0  0999 V2000
  -10.5810   20.0870    6.6940 C   0  0  0  0  0  0  0  0  0  0  0  0
   -9.5950   20.1680    7.8730 C   0  0  0  0  0  0  0  0  0  0  0  0
   -8.7660   21.4650    7.7180 C   0  0  0  0  0  0  0  0  0  0  0  0
  -10.3830   20.2880    9.1850 C   0  0  0  0  0  0  0  0  0  0  0  0
   -8.7030   18.9470    7.8610 C   0  0  0  0  0  0  0  0  0  0  0  0
   -9.1880   17.8780    7.1570 O   0  0  0  0  0  0  0  0  0  0  0  0
   -8.3680   16.7830    7.3220 N   0  0  0  0  0  0  0  0  0  0  0  0
   -7.3540   17.2260    8.0670 C   0  0  0  0  0  0  0  0  0  0  0  0
   -6.4860   16.3250    8.5630 O   0  0  0  0  0  0  0  0  0  0  0  0
   -6.7280   15.0020    8.0660 C   0  0  0  0  0  0  0  0  0  0  0  0
   -5.2670   13.9270    8.5220 P   0  0  0  0  0  0  0  0  0  0  0  0
   -4.2310   14.8760    9.1300 O   0  0  0  0  0  0  0  0  0  0  0  0
   -4.8530   13.2520    7.2320 O   0  0  0  0  0  0  0  0  0  0  0  0
   -5.7800   12.9980    9.6290 O   0  0  0  0  0  0  0  0  0  0  0  0
   -7.5110   18.5740    8.4710 C   0  0  0  0  0  0  0  0  0  0  0  0
   -6.6310   19.3350    9.4210 C   0  0  0  0  0  0  0  0  0  0  0  0
   -5.1320   19.2910    9.0950 C   0  0  2  0  0  0  0  0  0  0  0  0
   -4.4670   18.1650    9.7840 N   0  0  0  0  0  0  0  0  0  0  0  0
   -4.4280   20.6700    9.3190 C   0  0  0  0  0  0  0  0  0  0  0  0
   -3.1680   20.6970    9.2380 O   0  0  0  0  0  0  0  0  0  0  0  0
   -5.2260   21.6120    9.6170 O   0  0  0  0  0  0  0  0  0  0  0  0
  -11.6077   20.0027    7.0798 H   0  0  0  0  0  0  0  0  0  0  0  0
  -10.4935   20.9954    6.0798 H   0  0  0  0  0  0  0  0  0  0  0  0
  -10.3465   19.2051    6.0798 H   0  0  0  0  0  0  0  0  0  0  0  0
   -8.5136   21.8599    8.7131 H   0  0  0  0  0  0  0  0  0  0  0  0
   -7.8407   21.2449    7.1653 H   0  0  0  0  0  0  0  0  0  0  0  0
   -9.3543   22.2123    7.1653 H   0  0  0  0  0  0  0  0  0  0  0  0
   -9.6950   20.1832   10.0368 H   0  0  0  0  0  0  0  0  0  0  0  0
  -10.8741   21.2713    9.2291 H   0  0  0  0  0  0  0  0  0  0  0  0
  -11.1445   19.4955    9.2291 H   0  0  0  0  0  0  0  0  0  0  0  0
   -7.6443   14.5961    8.5195 H   0  0  0  0  0  0  0  0  0  0  0  0
   -6.8554   15.0249    6.9736 H   0  0  0  0  0  0  0  0  0  0  0  0
   -6.9509   20.3874    9.4134 H   0  0  0  0  0  0  0  0  0  0  0  0
   -6.7462   18.8499   10.4015 H   0  0  0  0  0  0  0  0  0  0  0  0
   -5.0312   19.0964    8.0171 H   0  0  0  0  0  0  0  0  0  0  0  0
   -3.9780   17.4390    9.1800 H   0  0  0  0  0  0  0  0  0  0  0  0
   -3.5960   18.4320   10.3290 H   0  0  0  0  0  0  0  0  0  0  0  0
   -5.0940   17.6400   10.3900 H   0  0  0  0  0  0  0  0  0  0  0  0
  1  2  1  0
  2  3  1  0
  2  4  1  0
  2  5  1  0
  5  6  1  0
  6  7  1  0
  7  8  2  0
  8  9  1  0
  9 10  1  0
 10 11  1  0
 11 12  2  0
 11 13  1  0
 11 14  1  0
  8 15  1  0
 15 16  1  0
 16 17  1  0
 17 18  1  0
 17 19  1  0
 19 20  2  0
 19 21  1  0
 15  5  2  0
  1 22  1  0
  1 23  1  0
  1 24  1  0
  3 25  1  0
  3 26  1  0
  3 27  1  0
  4 28  1  0
  4 29  1  0
  4 30  1  0
 10 31  1  0
 10 32  1  0
 16 33  1  0
 16 34  1  0
 17 35  1  6
 18 36  1  0
 18 37  1  0
 18 38  1  0
M  CHG  4  13  -1  14  -1  18   1  21  -1
M  END
>  <meeko>  (6) 
{"is_sidechain": [false], "free_energy": -4.973, "intermolecular_energy": -7.323, "internal_energy": -0.901}

$$$$
1vso_ligand
     RDKit          3D

 38 38  0  0  0  0  0  0  0  0999 V2000
   -1.8040   23.1490    9.9590 C   0  0  0  0  0  0  0  0  0  0  0  0
   -2.5270   22.2560   10.9830 C   0  0  0  0  0  0  0  0  0  0  0  0
   -1.4580   21.4620   11.7690 C   0  0  0  0  0  0  0  0  0  0  0  0
   -3.2690   23.1410   11.9930 C   0  0  0  0  0  0  0  0  0  0  0  0
   -3.4690   21.3230   10.2530 C   0  0  0  0  0  0  0  0  0  0  0  0
   -2.9590   20.0840    9.9730 O   0  0  0  0  0  0  0  0  0  0  0  0
   -3.8420   19.3670    9.1940 N   0  0  0  0  0  0  0  0  0  0  0  0
   -4.9100   20.1580    9.0740 C   0  0  0  0  0  0  0  0  0  0  0  0
   -5.8670   19.8080    8.1960 O   0  0  0  0  0  0  0  0  0  0  0  0
   -6.7210   18.7720    8.7010 C   0  0  0  0  0  0  0  0  0  0  0  0
   -8.3640   18.8810    7.8160 P   0  0  0  0  0  0  0  0  0  0  0  0
   -8.1170   19.7750    6.5970 O   0  0  0  0  0  0  0  0  0  0  0  0
   -9.3310   19.4330    8.8410 O   0  0  0  0  0  0  0  0  0  0  0  0
   -8.6510   17.4590    7.3220 O   0  0  0  0  0  0  0  0  0  0  0  0
   -4.7360   21.4210    9.6900 C   0  0  0  0  0  0  0  0  0  0  0  0
   -5.6780   22.5890    9.6270 C   0  0  0  0  0  0  0  0  0  0  0  0
   -7.1370   22.2670    9.9760 C   0  0  2  0  0  0  0  0  0  0  0  0
   -7.9840   22.2400    8.7650 N   0  0  0  0  0  0  0  0  0  0  0  0
   -7.6970   23.1800   11.1150 C   0  0  0  0  0  0  0  0  0  0  0  0
   -8.9210   23.0600   11.4050 O   0  0  0  0  0  0  0  0  0  0  0  0
   -6.8440   23.9940   11.5890 O   0  0  0  0  0  0  0  0  0  0  0  0
   -1.1976   23.8980   10.4893 H   0  0  0  0  0  0  0  0  0  0  0  0
   -1.1508   22.5285    9.3279 H   0  0  0  0  0  0  0  0  0  0  0  0
   -2.5469   23.6588    9.3279 H   0  0  0  0  0  0  0  0  0  0  0  0
   -1.6277   21.5881   12.8485 H   0  0  0  0  0  0  0  0  0  0  0  0
   -1.5284   20.3955   11.5088 H   0  0  0  0  0  0  0  0  0  0  0  0
   -0.4574   21.8376   11.5088 H   0  0  0  0  0  0  0  0  0  0  0  0
   -3.0077   22.8293   13.0150 H   0  0  0  0  0  0  0  0  0  0  0  0
   -2.9774   24.1911   11.8440 H   0  0  0  0  0  0  0  0  0  0  0  0
   -4.3539   23.0371   11.8440 H   0  0  0  0  0  0  0  0  0  0  0  0
   -6.2631   17.7892    8.5153 H   0  0  0  0  0  0  0  0  0  0  0  0
   -6.8656   18.8950    9.7845 H   0  0  0  0  0  0  0  0  0  0  0  0
   -5.3199   23.3542   10.3314 H   0  0  0  0  0  0  0  0  0  0  0  0
   -5.6802   22.9251    8.5796 H   0  0  0  0  0  0  0  0  0  0  0  0
   -7.1628   21.2496   10.3935 H   0  0  0  0  0  0  0  0  0  0  0  0
   -7.9140   23.0650    8.0980 H   0  0  0  0  0  0  0  0  0  0  0  0
   -7.7030   21.5140    8.0430 H   0  0  0  0  0  0  0  0  0  0  0  0
   -8.9760   22.1390    8.9730 H   0  0  0  0  0  0  0  0  0  0  0  0
  1  2  1  0
  2  3  1  0
  2  4  1  0
  2  5  1  0
  5  6  1  0
  6  7  1  0
  7  8  2  0
  8  9  1  0
  9 10  1  0
 10 11  1  0
 11 12  2  0
 11 13  1  0
 11 14  1  0
  8 15  1  0
 15 16  1  0
 16 17  1  0
 17 18  1  0
 17 19  1  0
 19 20  2  0
 19 21  1  0
 15  5  2  0
  1 22  1  0
  1 23  1  0
  1 24  1  0
  3 25  1  0
  3 26  1  0
  3 27  1  0
  4 28  1  0
  4 29  1  0
  4 30  1  0
 10 31  1  0
 10 32  1  0
 16 33  1  0
 16 34  1  0
 17 35  1  1
 18 36  1  0
 18 37  1  0
 18 38  1  0
M  CHG  4  13  -1  14  -1  18   1  21  -1
M  END
>  <meeko>  (7) 
{"is_sidechain": [false], "free_energy": -4.839, "intermolecular_energy": -6.882, "internal_energy": -1.149}

$$$$
1vso_ligand
     RDKit          3D

 38 38  0  0  0  0  0  0  0  0999 V2000
   -3.3700   19.9700   10.6760 C   0  0  0  0  0  0  0  0  0  0  0  0
   -4.4520   19.5140    9.6800 C   0  0  0  0  0  0  0  0  0  0  0  0
   -3.7800   19.3000    8.3040 C   0  0  0  0  0  0  0  0  0  0  0  0
   -5.0120   18.1560   10.1270 C   0  0  0  0  0  0  0  0  0  0  0  0
   -5.5330   20.5690    9.6000 C   0  0  0  0  0  0  0  0  0  0  0  0
   -5.3060   21.6930   10.3490 O   0  0  0  0  0  0  0  0  0  0  0  0
   -6.4040   22.5240   10.3120 N   0  0  0  0  0  0  0  0  0  0  0  0
   -7.2560   21.9250    9.4780 C   0  0  0  0  0  0  0  0  0  0  0  0
   -8.5100   22.4060    9.3950 O   0  0  0  0  0  0  0  0  0  0  0  0
   -9.0260   22.8120   10.6700 C   0  0  0  0  0  0  0  0  0  0  0  0
  -10.8930   22.8440   10.5650 P   0  0  0  0  0  0  0  0  0  0  0  0
  -11.2190   23.0410    9.0810 O   0  0  0  0  0  0  0  0  0  0  0  0
  -11.3230   23.9700   11.4800 O   0  0  0  0  0  0  0  0  0  0  0  0
  -11.3450   21.4380   10.9760 O   0  0  0  0  0  0  0  0  0  0  0  0
   -6.7880   20.6720    9.0120 C   0  0  0  0  0  0  0  0  0  0  0  0
   -7.5490   19.6830    8.1770 C   0  0  0  0  0  0  0  0  0  0  0  0
   -9.0480   19.9760    8.0260 C   0  0  2  0  0  0  0  0  0  0  0  0
   -9.8100   19.4860    9.1940 N   0  0  0  0  0  0  0  0  0  0  0  0
   -9.6190   19.4910    6.6540 C   0  0  0  0  0  0  0  0  0  0  0  0
   -8.8970   18.7120    5.9680 O   0  0  0  0  0  0  0  0  0  0  0  0
  -10.7480   19.9940    6.3600 O   0  0  0  0  0  0  0  0  0  0  0  0
   -3.7305   19.8180   11.7041 H   0  0  0  0  0  0  0  0  0  0  0  0
   -2.4544   19.3812   10.5178 H   0  0  0  0  0  0  0  0  0  0  0  0
   -3.1520   21.0365   10.5178 H   0  0  0  0  0  0  0  0  0  0  0  0
   -2.7412   18.9692    8.4507 H   0  0  0  0  0  0  0  0  0  0  0  0
   -4.3329   18.5335    7.7412 H   0  0  0  0  0  0  0  0  0  0  0  0
   -3.7878   20.2451    7.7412 H   0  0  0  0  0  0  0  0  0  0  0  0
   -5.0306   18.1108   11.2259 H   0  0  0  0  0  0  0  0  0  0  0  0
   -6.0336   18.0345    9.7377 H   0  0  0  0  0  0  0  0  0  0  0  0
   -4.3730   17.3497    9.7377 H   0  0  0  0  0  0  0  0  0  0  0  0
   -8.7092   22.0975   11.4441 H   0  0  0  0  0  0  0  0  0  0  0  0
   -8.6441   23.8095   10.9331 H   0  0  0  0  0  0  0  0  0  0  0  0
   -7.1015   19.6695    7.1723 H   0  0  0  0  0  0  0  0  0  0  0  0
   -7.4765   18.7189    8.7017 H   0  0  0  0  0  0  0  0  0  0  0  0
   -9.1738   21.0687    8.0117 H   0  0  0  0  0  0  0  0  0  0  0  0
   -9.2650   19.0030    9.9690 H   0  0  0  0  0  0  0  0  0  0  0  0
  -10.2010   20.2500    9.8200 H   0  0  0  0  0  0  0  0  0  0  0  0
  -10.5570   18.8420    8.9430 H   0  0  0  0  0  0  0  0  0  0  0  0
  1  2  1  0
  2  3  1  0
  2  4  1  0
  2  5  1  0
  5  6  1  0
  6  7  1  0
  7  8  2  0
  8  9  1  0
  9 10  1  0
 10 11  1  0
 11 12  2  0
 11 13  1  0
 11 14  1  0
  8 15  1  0
 15 16  1  0
 16 17  1  0
 17 18  1  0
 17 19  1  0
 19 20  2  0
 19 21  1  0
 15  5  2  0
  1 22  1  0
  1 23  1  0
  1 24  1  0
  3 25  1  0
  3 26  1  0
  3 27  1  0
  4 28  1  0
  4 29  1  0
  4 30  1  0
 10 31  1  0
 10 32  1  0
 16 33  1  0
 16 34  1  0
 17 35  1  6
 18 36  1  0
 18 37  1  0
 18 38  1  0
M  CHG  4  13  -1  14  -1  18   1  21  -1
M  END
>  <meeko>  (8) 
{"is_sidechain": [false], "free_energy": -4.732, "intermolecular_energy": -7.11, "internal_energy": -0.767}

$$$$
1vso_ligand
     RDKit          3D

 38 38  0  0  0  0  0  0  0  0999 V2000
   -3.7560   23.9580   11.3150 C   0  0  0  0  0  0  0  0  0  0  0  0
   -3.5320   23.3700    9.9100 C   0  0  0  0  0  0  0  0  0  0  0  0
   -3.9790   24.4250    8.8700 C   0  0  0  0  0  0  0  0  0  0  0  0
   -2.0320   23.1290    9.6950 C   0  0  0  0  0  0  0  0  0  0  0  0
   -4.3340   22.0950    9.7700 C   0  0  0  0  0  0  0  0  0  0  0  0
   -3.6340   21.0160    9.3010 O   0  0  0  0  0  0  0  0  0  0  0  0
   -4.4820   19.9520    9.0840 N   0  0  0  0  0  0  0  0  0  0  0  0
   -5.6770   20.3790    9.4950 C   0  0  0  0  0  0  0  0  0  0  0  0
   -6.7540   19.6210    9.2210 O   0  0  0  0  0  0  0  0  0  0  0  0
   -6.8480   19.2870    7.8290 C   0  0  0  0  0  0  0  0  0  0  0  0
   -8.6170   18.8050    7.4590 P   0  0  0  0  0  0  0  0  0  0  0  0
   -9.4550   19.4200    8.5830 O   0  0  0  0  0  0  0  0  0  0  0  0
   -8.6130   17.2930    7.4040 O   0  0  0  0  0  0  0  0  0  0  0  0
   -8.9640   19.5220    6.1490 O   0  0  0  0  0  0  0  0  0  0  0  0
   -5.6680   21.7320    9.9130 C   0  0  0  0  0  0  0  0  0  0  0  0
   -6.8590   22.5600   10.3030 C   0  0  0  0  0  0  0  0  0  0  0  0
   -7.8620   22.8280    9.1740 C   0  0  2  0  0  0  0  0  0  0  0  0
   -7.5170   24.0590    8.4330 N   0  0  0  0  0  0  0  0  0  0  0  0
   -9.3450   22.7840    9.6650 C   0  0  0  0  0  0  0  0  0  0  0  0
   -9.5420   22.7210   10.9120 O   0  0  0  0  0  0  0  0  0  0  0  0
  -10.1990   22.7620    8.7240 O   0  0  0  0  0  0  0  0  0  0  0  0
   -3.4724   23.2135   12.0735 H   0  0  0  0  0  0  0  0  0  0  0  0
   -3.1385   24.8600   11.4377 H   0  0  0  0  0  0  0  0  0  0  0  0
   -4.8171   24.2206   11.4377 H   0  0  0  0  0  0  0  0  0  0  0  0
   -4.3568   25.3168    9.3915 H   0  0  0  0  0  0  0  0  0  0  0  0
   -3.1220   24.7045    8.2396 H   0  0  0  0  0  0  0  0  0  0  0  0
   -4.7759   24.0037    8.2396 H   0  0  0  0  0  0  0  0  0  0  0  0
   -1.5301   23.0484   10.6705 H   0  0  0  0  0  0  0  0  0  0  0  0
   -1.8878   22.1962    9.1302 H   0  0  0  0  0  0  0  0  0  0  0  0
   -1.6028   23.9697    9.1302 H   0  0  0  0  0  0  0  0  0  0  0  0
   -6.5637   20.1563    7.2179 H   0  0  0  0  0  0  0  0  0  0  0  0
   -6.1706   18.4532    7.5927 H   0  0  0  0  0  0  0  0  0  0  0  0
   -7.3885   22.0356   11.1121 H   0  0  0  0  0  0  0  0  0  0  0  0
   -6.4648   23.5423   10.6026 H   0  0  0  0  0  0  0  0  0  0  0  0
   -7.7812   22.0007    8.4535 H   0  0  0  0  0  0  0  0  0  0  0  0
   -8.2600   24.8180    8.3680 H   0  0  0  0  0  0  0  0  0  0  0  0
   -6.7970   24.6770    8.9100 H   0  0  0  0  0  0  0  0  0  0  0  0
   -7.2240   23.8810    7.4740 H   0  0  0  0  0  0  0  0  0  0  0  0
  1  2  1  0
  2  3  1  0
  2  4  1  0
  2  5  1  0
  5  6  1  0
  6  7  1  0
  7  8  2  0
  8  9  1  0
  9 10  1  0
 10 11  1  0
 11 12  2  0
 11 13  1  0
 11 14  1  0
  8 15  1  0
 15 16  1  0
 16 17  1  0
 17 18  1  0
 17 19  1  0
 19 20  2  0
 19 21  1  0
 15  5  2  0
  1 22  1  0
  1 23  1  0
  1 24  1  0
  3 25  1  0
  3 26  1  0
  3 27  1  0
  4 28  1  0
  4 29  1  0
  4 30  1  0
 10 31  1  0
 10 32  1  0
 16 33  1  0
 16 34  1  0
 17 35  1  6
 18 36  1  0
 18 37  1  0
 18 38  1  0
M  CHG  4  13  -1  14  -1  18   1  21  -1
M  END
>  <meeko>  (9) 
{"is_sidechain": [false], "free_energy": -4.649, "intermolecular_energy": -6.879, "internal_energy": -0.879}

$$$$
