
     RDKit          3D

 28 31  0  0  0  0  0  0  0  0999 V2000
   -5.2750   -6.9380  -13.4970 C   0  0  0  0  0  0  0  0  0  0  0  0
   -4.1020   -6.4880  -12.8180 N   0  0  0  0  0  0  0  0  0  0  0  0
   -2.9500   -7.1880  -13.3720 C   0  0  0  0  0  0  0  0  0  0  0  0
   -1.6910   -6.7320  -12.7370 C   0  0  0  0  0  0  0  0  0  0  0  0
   -1.8120   -6.8300  -11.2480 C   0  0  1  0  0  0  0  0  0  0  0  0
   -0.5440   -6.4110  -10.5770 C   0  0  0  0  0  0  0  0  0  0  0  0
    0.0390   -7.2770   -9.6670 C   0  0  0  0  0  0  0  0  0  0  0  0
   -0.5610   -8.4280   -9.3630 O   0  0  0  0  0  0  0  0  0  0  0  0
    1.2260   -6.9550   -9.0620 C   0  0  0  0  0  0  0  0  0  0  0  0
    1.8610   -5.7670   -9.3310 C   0  0  0  0  0  0  0  0  0  0  0  0
    3.0190   -5.5000   -8.7140 O   0  0  0  0  0  0  0  0  0  0  0  0
    1.3140   -4.8350  -10.2290 C   0  0  0  0  0  0  0  0  0  0  0  0
    1.9080   -3.5740  -10.5630 C   0  0  0  0  0  0  0  0  0  0  0  0
    2.9920   -3.2170  -10.0610 O   0  0  0  0  0  0  0  0  0  0  0  0
    1.2680   -2.7240  -11.4600 C   0  0  0  0  0  0  0  0  0  0  0  0
    0.0670   -3.1250  -12.0090 C   0  0  0  0  0  0  0  0  0  0  0  0
   -0.7050   -2.3290  -12.9160 C   0  0  0  0  0  0  0  0  0  0  0  0
   -1.7230   -1.5320  -12.3850 C   0  0  0  0  0  0  0  0  0  0  0  0
   -2.4880   -0.7780  -13.2510 C   0  0  0  0  0  0  0  0  0  0  0  0
   -2.2440   -0.7870  -14.6170 C   0  0  0  0  0  0  0  0  0  0  0  0
   -1.2220   -1.5930  -15.1260 C   0  0  0  0  0  0  0  0  0  0  0  0
   -0.4800   -2.3770  -14.2790 C   0  0  0  0  0  0  0  0  0  0  0  0
    0.7240   -3.4090  -14.9290 Cl  0  0  0  0  0  0  0  0  0  0  0  0
   -0.5080   -4.3050  -11.6990 O   0  0  0  0  0  0  0  0  0  0  0  0
    0.0890   -5.1700  -10.8450 C   0  0  0  0  0  0  0  0  0  0  0  0
   -3.0270   -6.1920  -10.6220 C   0  0  2  0  0  0  0  0  0  0  0  0
   -3.1360   -6.6200   -9.2820 O   0  0  0  0  0  0  0  0  0  0  0  0
   -4.2630   -6.6470  -11.3640 C   0  0  0  0  0  0  0  0  0  0  0  0
  2  1  1  0
  3  2  1  0
  4  3  1  0
  5  4  1  0
  5  6  1  1
  7  6  2  0
  8  7  1  0
  9  7  1  0
 10  9  2  0
 11 10  1  0
 12 10  1  0
 13 12  1  0
 14 13  2  0
 15 13  1  0
 16 15  2  0
 17 16  1  0
 18 17  2  0
 19 18  1  0
 20 19  2  0
 21 20  1  0
 22 21  2  0
 22 17  1  0
 23 22  1  0
 24 16  1  0
 25  6  1  0
 25 24  1  0
 25 12  2  0
 26  5  1  0
 26 27  1  1
 28  2  1  0
 28 26  1  0
M  CHG  1   2   1
M  END
$$$$
