3ozt_ligand
     RDKit          3D

 50 52  0  0  0  0  0  0  0  0999 V2000
   11.1180   -1.3690    4.6920 O   0  0  0  0  0  0  0  0  0  0  0  0
   10.5110   -0.3280    4.9260 C   0  0  0  0  0  0  0  0  0  0  0  0
    9.5260   -0.2210    5.8830 N   0  0  0  0  0  0  0  0  0  0  0  0
    9.1680   -1.3390    6.7230 C   0  0  0  0  0  0  0  0  0  0  0  0
    7.8770   -0.9980    7.3980 C   0  0  0  0  0  0  0  0  0  0  0  0
    6.7110   -0.7970    6.7590 C   0  0  0  0  0  0  0  0  0  0  0  0
    5.4260   -0.4370    7.4520 C   0  0  1  0  0  0  0  0  0  0  0  0
    4.5010   -1.5130    7.2240 O   0  0  0  0  0  0  0  0  0  0  0  0
    4.2360   -2.1690    8.4800 C   0  0  1  0  0  0  0  0  0  0  0  0
    4.2570   -3.6470    8.3460 N   0  0  0  0  0  0  0  0  0  0  0  0
    5.4320   -4.3930    8.4080 C   0  0  0  0  0  0  0  0  0  0  0  0
    5.4910   -5.7260    8.3000 C   0  0  0  0  0  0  0  0  0  0  0  0
    4.2230   -6.4670    8.0990 C   0  0  0  0  0  0  0  0  0  0  0  0
    4.2100   -7.6890    8.0030 O   0  0  0  0  0  0  0  0  0  0  0  0
    2.9760   -5.6740    8.0220 C   0  0  0  0  0  0  0  0  0  0  0  0
    3.0670   -4.3440    8.1460 C   0  0  0  0  0  0  0  0  0  0  0  0
    5.3030   -1.6790    9.4760 C   0  0  2  0  0  0  0  0  0  0  0  0
    4.8690   -1.6510   10.8380 O   0  0  0  0  0  0  0  0  0  0  0  0
    5.5750   -0.2770    8.9650 C   0  0  2  0  0  0  0  0  0  0  0  0
    4.5610    0.5950    9.5040 O   0  0  0  0  0  0  0  0  0  0  0  0
   10.8830    0.9070    4.1790 C   0  0  0  0  0  0  0  0  0  0  0  0
   12.2200    1.3120    4.0690 C   0  0  0  0  0  0  0  0  0  0  0  0
   12.5350    2.4760    3.3490 C   0  0  0  0  0  0  0  0  0  0  0  0
   13.9380    2.8910    3.2280 N   0  0  0  0  0  0  0  0  0  0  0  0
   14.2360    3.6290    2.2790 O   0  0  0  0  0  0  0  0  0  0  0  0
   14.7350    2.4820    4.0840 O   0  0  0  0  0  0  0  0  0  0  0  0
   11.5350    3.2460    2.7440 C   0  0  0  0  0  0  0  0  0  0  0  0
   10.2080    2.8480    2.8760 C   0  0  0  0  0  0  0  0  0  0  0  0
    9.2100    3.5890    2.3060 O   0  0  0  0  0  0  0  0  0  0  0  0
    9.8740    1.6930    3.5950 C   0  0  0  0  0  0  0  0  0  0  0  0
    8.5450    1.3700    3.6980 O   0  0  0  0  0  0  0  0  0  0  0  0
    9.2280    0.6900    6.2030 H   0  0  0  0  0  0  0  0  0  0  0  0
    9.0442   -2.2445    6.1108 H   0  0  0  0  0  0  0  0  0  0  0  0
    9.9550   -1.5330    7.4666 H   0  0  0  0  0  0  0  0  0  0  0  0
    7.8820   -0.9052    8.4941 H   0  0  0  0  0  0  0  0  0  0  0  0
    6.6963   -0.9022    5.6641 H   0  0  0  0  0  0  0  0  0  0  0  0
    5.0889    0.5287    7.0473 H   0  0  0  0  0  0  0  0  0  0  0  0
    3.2264   -1.9169    8.8366 H   0  0  0  0  0  0  0  0  0  0  0  0
    6.3766   -3.8490    8.5559 H   0  0  0  0  0  0  0  0  0  0  0  0
    6.4529   -6.2563    8.3587 H   0  0  0  0  0  0  0  0  0  0  0  0
    2.0028   -6.1629    7.8674 H   0  0  0  0  0  0  0  0  0  0  0  0
    2.1367   -3.7602    8.0857 H   0  0  0  0  0  0  0  0  0  0  0  0
    6.1760   -2.3474    9.5093 H   0  0  0  0  0  0  0  0  0  0  0  0
    4.4060   -0.7920   10.9430 H   0  0  0  0  0  0  0  0  0  0  0  0
    6.5517    0.1458    9.2431 H   0  0  0  0  0  0  0  0  0  0  0  0
    3.9180    0.0340    9.9760 H   0  0  0  0  0  0  0  0  0  0  0  0
   13.0178    0.7219    4.5436 H   0  0  0  0  0  0  0  0  0  0  0  0
   11.7936    4.1505    2.1738 H   0  0  0  0  0  0  0  0  0  0  0  0
    9.4800    3.9030    1.4290 H   0  0  0  0  0  0  0  0  0  0  0  0
    8.1130    1.5400    2.8320 H   0  0  0  0  0  0  0  0  0  0  0  0
  1  2  2  0
  2  3  1  0
  3  4  1  0
  4  5  1  0
  5  6  2  0
  6  7  1  0
  7  8  1  0
  8  9  1  0
  9 10  1  0
 10 11  1  0
 11 12  2  0
 12 13  1  0
 13 14  2  0
 13 15  1  0
 15 16  2  0
  9 17  1  0
 17 18  1  0
 17 19  1  0
 19 20  1  0
  2 21  1  0
 21 22  2  0
 22 23  1  0
 23 24  1  0
 24 25  2  0
 24 26  1  0
 23 27  2  0
 27 28  1  0
 28 29  1  0
 28 30  2  0
 30 31  1  0
 19  7  1  0
 30 21  1  0
 16 10  1  0
  3 32  1  0
  4 33  1  0
  4 34  1  0
  5 35  1  0
  6 36  1  0
  7 37  1  6
  9 38  1  1
 11 39  1  0
 12 40  1  0
 15 41  1  0
 16 42  1  0
 17 43  1  1
 18 44  1  0
 19 45  1  6
 20 46  1  0
 22 47  1  0
 27 48  1  0
 29 49  1  0
 31 50  1  0
M  CHG  2  24   1  26  -1
M  END
>  <meeko>  (1) 
{"is_sidechain": [false], "free_energy": -8.644, "intermolecular_energy": -12.686, "internal_energy": -0.952}

$$$$
3ozt_ligand
     RDKit          3D

 50 52  0  0  0  0  0  0  0  0999 V2000
    6.1220   -2.5170    7.6550 O   0  0  0  0  0  0  0  0  0  0  0  0
    5.1940   -2.7500    8.4250 C   0  0  0  0  0  0  0  0  0  0  0  0
    4.6710   -1.8150    9.2910 N   0  0  0  0  0  0  0  0  0  0  0  0
    5.1610   -0.4570    9.3160 C   0  0  0  0  0  0  0  0  0  0  0  0
    6.4840   -0.4700   10.0160 C   0  0  0  0  0  0  0  0  0  0  0  0
    7.0140    0.5810   10.6650 C   0  0  0  0  0  0  0  0  0  0  0  0
    8.3540    0.5560   11.3470 C   0  0  1  0  0  0  0  0  0  0  0  0
    9.1710   -0.3990   10.6490 O   0  0  0  0  0  0  0  0  0  0  0  0
   10.2460    0.3040    9.9930 C   0  0  1  0  0  0  0  0  0  0  0  0
   10.4550   -0.1800    8.6060 N   0  0  0  0  0  0  0  0  0  0  0  0
   11.7020   -0.1760    7.9850 C   0  0  0  0  0  0  0  0  0  0  0  0
   11.9320   -0.6110    6.7400 C   0  0  0  0  0  0  0  0  0  0  0  0
   10.7860   -1.1340    5.9610 C   0  0  0  0  0  0  0  0  0  0  0  0
   10.9330   -1.5560    4.8190 O   0  0  0  0  0  0  0  0  0  0  0  0
    9.4580   -1.1290    6.6150 C   0  0  0  0  0  0  0  0  0  0  0  0
    9.3750   -0.6620    7.8670 C   0  0  0  0  0  0  0  0  0  0  0  0
    9.8840    1.8000   10.0190 C   0  0  2  0  0  0  0  0  0  0  0  0
   11.0130    2.6780   10.0520 O   0  0  0  0  0  0  0  0  0  0  0  0
    9.0850    1.8980   11.3040 C   0  0  2  0  0  0  0  0  0  0  0  0
   10.0160    2.0250   12.3970 O   0  0  0  0  0  0  0  0  0  0  0  0
    4.5550   -4.0950    8.3980 C   0  0  0  0  0  0  0  0  0  0  0  0
    5.3280   -5.2640    8.3570 C   0  0  0  0  0  0  0  0  0  0  0  0
    4.6920   -6.5160    8.3440 C   0  0  0  0  0  0  0  0  0  0  0  0
    5.5060   -7.7380    8.3110 N   0  0  0  0  0  0  0  0  0  0  0  0
    5.7180   -8.2530    7.2050 O   0  0  0  0  0  0  0  0  0  0  0  0
    5.9340   -8.1740    9.3890 O   0  0  0  0  0  0  0  0  0  0  0  0
    3.2960   -6.6200    8.3620 C   0  0  0  0  0  0  0  0  0  0  0  0
    2.5360   -5.4540    8.3810 C   0  0  0  0  0  0  0  0  0  0  0  0
    1.1710   -5.5260    8.3860 O   0  0  0  0  0  0  0  0  0  0  0  0
    3.1530   -4.1970    8.3890 C   0  0  0  0  0  0  0  0  0  0  0  0
    2.3400   -3.0910    8.3910 O   0  0  0  0  0  0  0  0  0  0  0  0
    3.7720   -1.9720    9.7240 H   0  0  0  0  0  0  0  0  0  0  0  0
    5.2830   -0.0826    8.2889 H   0  0  0  0  0  0  0  0  0  0  0  0
    4.4520    0.2016    9.8389 H   0  0  0  0  0  0  0  0  0  0  0  0
    7.0630   -1.4051    9.9980 H   0  0  0  0  0  0  0  0  0  0  0  0
    6.4332    1.5146   10.6993 H   0  0  0  0  0  0  0  0  0  0  0  0
    8.1842    0.3044   12.4043 H   0  0  0  0  0  0  0  0  0  0  0  0
   11.1964    0.1249   10.5171 H   0  0  0  0  0  0  0  0  0  0  0  0
   12.5574    0.2117    8.5577 H   0  0  0  0  0  0  0  0  0  0  0  0
   12.9431   -0.5809    6.3079 H   0  0  0  0  0  0  0  0  0  0  0  0
    8.5658   -1.4980    6.0879 H   0  0  0  0  0  0  0  0  0  0  0  0
    8.3851   -0.6582    8.3466 H   0  0  0  0  0  0  0  0  0  0  0  0
    9.3531    2.1132    9.1079 H   0  0  0  0  0  0  0  0  0  0  0  0
   10.6370    3.5780   10.1520 H   0  0  0  0  0  0  0  0  0  0  0  0
    8.3921    2.7502   11.3649 H   0  0  0  0  0  0  0  0  0  0  0  0
   10.0560    2.9710   12.6340 H   0  0  0  0  0  0  0  0  0  0  0  0
    6.4260   -5.2009    8.3351 H   0  0  0  0  0  0  0  0  0  0  0  0
    2.8082   -7.6059    8.3611 H   0  0  0  0  0  0  0  0  0  0  0  0
    0.8790   -6.4280    8.5940 H   0  0  0  0  0  0  0  0  0  0  0  0
    1.5430   -3.2880    8.9300 H   0  0  0  0  0  0  0  0  0  0  0  0
  1  2  2  0
  2  3  1  0
  3  4  1  0
  4  5  1  0
  5  6  2  0
  6  7  1  0
  7  8  1  0
  8  9  1  0
  9 10  1  0
 10 11  1  0
 11 12  2  0
 12 13  1  0
 13 14  2  0
 13 15  1  0
 15 16  2  0
  9 17  1  0
 17 18  1  0
 17 19  1  0
 19 20  1  0
  2 21  1  0
 21 22  2  0
 22 23  1  0
 23 24  1  0
 24 25  2  0
 24 26  1  0
 23 27  2  0
 27 28  1  0
 28 29  1  0
 28 30  2  0
 30 31  1  0
 19  7  1  0
 30 21  1  0
 16 10  1  0
  3 32  1  0
  4 33  1  0
  4 34  1  0
  5 35  1  0
  6 36  1  0
  7 37  1  1
  9 38  1  1
 11 39  1  0
 12 40  1  0
 15 41  1  0
 16 42  1  0
 17 43  1  6
 18 44  1  0
 19 45  1  6
 20 46  1  0
 22 47  1  0
 27 48  1  0
 29 49  1  0
 31 50  1  0
M  CHG  2  24   1  26  -1
M  END
>  <meeko>  (2) 
{"is_sidechain": [false], "free_energy": -8.25, "intermolecular_energy": -11.917, "internal_energy": -1.143}

$$$$
3ozt_ligand
     RDKit          3D

 50 52  0  0  0  0  0  0  0  0999 V2000
   10.9730   -0.9650    4.3050 O   0  0  0  0  0  0  0  0  0  0  0  0
   10.7040    0.0410    4.9550 C   0  0  0  0  0  0  0  0  0  0  0  0
    9.8410    0.0450    6.0290 N   0  0  0  0  0  0  0  0  0  0  0  0
    9.2190   -1.1700    6.4990 C   0  0  0  0  0  0  0  0  0  0  0  0
    7.9420   -0.7860    7.1790 C   0  0  0  0  0  0  0  0  0  0  0  0
    6.7300   -0.8200    6.5990 C   0  0  0  0  0  0  0  0  0  0  0  0
    5.4580   -0.4130    7.2910 C   0  0  1  0  0  0  0  0  0  0  0  0
    4.5010   -1.4650    7.0810 O   0  0  0  0  0  0  0  0  0  0  0  0
    4.2210   -2.0970    8.3460 C   0  0  1  0  0  0  0  0  0  0  0  0
    4.2000   -3.5760    8.2310 N   0  0  0  0  0  0  0  0  0  0  0  0
    5.3430   -4.3600    8.3670 C   0  0  0  0  0  0  0  0  0  0  0  0
    5.3620   -5.6960    8.2790 C   0  0  0  0  0  0  0  0  0  0  0  0
    4.0830   -6.3970    8.0170 C   0  0  0  0  0  0  0  0  0  0  0  0
    4.0330   -7.6190    7.9350 O   0  0  0  0  0  0  0  0  0  0  0  0
    2.8690   -5.5640    7.8610 C   0  0  0  0  0  0  0  0  0  0  0  0
    2.9990   -4.2360    7.9740 C   0  0  0  0  0  0  0  0  0  0  0  0
    5.3060   -1.6250    9.3320 C   0  0  2  0  0  0  0  0  0  0  0  0
    4.8770   -1.5660   10.6950 O   0  0  0  0  0  0  0  0  0  0  0  0
    5.6160   -0.2380    8.8020 C   0  0  2  0  0  0  0  0  0  0  0  0
    4.6310    0.6700    9.3330 O   0  0  0  0  0  0  0  0  0  0  0  0
   11.3770    1.3240    4.6090 C   0  0  0  0  0  0  0  0  0  0  0  0
   12.0050    2.1020    5.5920 C   0  0  0  0  0  0  0  0  0  0  0  0
   12.6390    3.3010    5.2280 C   0  0  0  0  0  0  0  0  0  0  0  0
   13.3030    4.1070    6.2610 N   0  0  0  0  0  0  0  0  0  0  0  0
   14.4920    4.4030    6.0780 O   0  0  0  0  0  0  0  0  0  0  0  0
   12.6340    4.4440    7.2470 O   0  0  0  0  0  0  0  0  0  0  0  0
   12.6500    3.7410    3.9000 C   0  0  0  0  0  0  0  0  0  0  0  0
   12.0060    2.9740    2.9340 C   0  0  0  0  0  0  0  0  0  0  0  0
   11.9900    3.3860    1.6300 O   0  0  0  0  0  0  0  0  0  0  0  0
   11.3640    1.7780    3.2780 C   0  0  0  0  0  0  0  0  0  0  0  0
   10.7360    1.0820    2.2760 O   0  0  0  0  0  0  0  0  0  0  0  0
    9.8340    0.8260    6.6700 H   0  0  0  0  0  0  0  0  0  0  0  0
    9.0070   -1.8365    5.6500 H   0  0  0  0  0  0  0  0  0  0  0  0
    9.8842   -1.7025    7.1947 H   0  0  0  0  0  0  0  0  0  0  0  0
    7.9995   -0.4529    8.2258 H   0  0  0  0  0  0  0  0  0  0  0  0
    6.6644   -1.1658    5.5568 H   0  0  0  0  0  0  0  0  0  0  0  0
    5.1486    0.5567    6.8739 H   0  0  0  0  0  0  0  0  0  0  0  0
    3.2201   -1.8118    8.7023 H   0  0  0  0  0  0  0  0  0  0  0  0
    6.2962   -3.8461    8.5601 H   0  0  0  0  0  0  0  0  0  0  0  0
    6.3005   -6.2573    8.3978 H   0  0  0  0  0  0  0  0  0  0  0  0
    1.8897   -6.0222    7.6584 H   0  0  0  0  0  0  0  0  0  0  0  0
    2.0939   -3.6222    7.8556 H   0  0  0  0  0  0  0  0  0  0  0  0
    6.1596   -2.3177    9.3710 H   0  0  0  0  0  0  0  0  0  0  0  0
    4.7390   -2.5000   10.9610 H   0  0  0  0  0  0  0  0  0  0  0  0
    6.6054    0.1600    9.0717 H   0  0  0  0  0  0  0  0  0  0  0  0
    4.6890    1.4950    8.8160 H   0  0  0  0  0  0  0  0  0  0  0  0
   12.0011    1.7750    6.6423 H   0  0  0  0  0  0  0  0  0  0  0  0
   13.1587    4.6766    3.6244 H   0  0  0  0  0  0  0  0  0  0  0  0
   11.3160    4.0710    1.4990 H   0  0  0  0  0  0  0  0  0  0  0  0
   10.9290    0.1250    2.3890 H   0  0  0  0  0  0  0  0  0  0  0  0
  1  2  2  0
  2  3  1  0
  3  4  1  0
  4  5  1  0
  5  6  2  0
  6  7  1  0
  7  8  1  0
  8  9  1  0
  9 10  1  0
 10 11  1  0
 11 12  2  0
 12 13  1  0
 13 14  2  0
 13 15  1  0
 15 16  2  0
  9 17  1  0
 17 18  1  0
 17 19  1  0
 19 20  1  0
  2 21  1  0
 21 22  2  0
 22 23  1  0
 23 24  1  0
 24 25  2  0
 24 26  1  0
 23 27  2  0
 27 28  1  0
 28 29  1  0
 28 30  2  0
 30 31  1  0
 19  7  1  0
 30 21  1  0
 16 10  1  0
  3 32  1  0
  4 33  1  0
  4 34  1  0
  5 35  1  0
  6 36  1  0
  7 37  1  6
  9 38  1  1
 11 39  1  0
 12 40  1  0
 15 41  1  0
 16 42  1  0
 17 43  1  1
 18 44  1  0
 19 45  1  6
 20 46  1  0
 22 47  1  0
 27 48  1  0
 29 49  1  0
 31 50  1  0
M  CHG  2  24   1  26  -1
M  END
>  <meeko>  (3) 
{"is_sidechain": [false], "free_energy": -8.24, "intermolecular_energy": -12.078, "internal_energy": -0.969}

$$$$
3ozt_ligand
     RDKit          3D

 50 52  0  0  0  0  0  0  0  0999 V2000
    4.6180   -2.1600    8.7810 O   0  0  0  0  0  0  0  0  0  0  0  0
    5.2070   -3.1690    8.4040 C   0  0  0  0  0  0  0  0  0  0  0  0
    6.5300   -3.1780    8.0170 N   0  0  0  0  0  0  0  0  0  0  0  0
    7.3380   -1.9830    8.0760 C   0  0  0  0  0  0  0  0  0  0  0  0
    7.6640   -1.7310    9.5150 C   0  0  0  0  0  0  0  0  0  0  0  0
    7.5350   -0.5430   10.1290 C   0  0  0  0  0  0  0  0  0  0  0  0
    7.8850   -0.3030   11.5720 C   0  0  1  0  0  0  0  0  0  0  0  0
    9.0400    0.5520   11.5960 O   0  0  0  0  0  0  0  0  0  0  0  0
    8.6600    1.8280   12.1510 C   0  0  1  0  0  0  0  0  0  0  0  0
    9.2240    2.9590   11.3730 N   0  0  0  0  0  0  0  0  0  0  0  0
   10.5660    3.0270   11.0080 C   0  0  0  0  0  0  0  0  0  0  0  0
   11.1100    4.0250   10.3000 C   0  0  0  0  0  0  0  0  0  0  0  0
   10.2300    5.1380    9.8730 C   0  0  0  0  0  0  0  0  0  0  0  0
   10.6660    6.0760    9.2140 O   0  0  0  0  0  0  0  0  0  0  0  0
    8.8060    5.0720   10.2700 C   0  0  0  0  0  0  0  0  0  0  0  0
    8.3990    4.0120   10.9800 C   0  0  0  0  0  0  0  0  0  0  0  0
    7.1210    1.8680   12.1680 C   0  0  2  0  0  0  0  0  0  0  0  0
    6.5640    2.6620   13.2190 O   0  0  0  0  0  0  0  0  0  0  0  0
    6.7800    0.4030   12.3580 C   0  0  2  0  0  0  0  0  0  0  0  0
    6.8630    0.1070   13.7660 O   0  0  0  0  0  0  0  0  0  0  0  0
    4.4830   -4.4710    8.4080 C   0  0  0  0  0  0  0  0  0  0  0  0
    5.1800   -5.6870    8.4190 C   0  0  0  0  0  0  0  0  0  0  0  0
    4.4650   -6.8960    8.4330 C   0  0  0  0  0  0  0  0  0  0  0  0
    5.1990   -8.1670    8.4550 N   0  0  0  0  0  0  0  0  0  0  0  0
    5.1050   -8.8650    9.4750 O   0  0  0  0  0  0  0  0  0  0  0  0
    5.8630   -8.4660    7.4520 O   0  0  0  0  0  0  0  0  0  0  0  0
    3.0650   -6.9100    8.4270 C   0  0  0  0  0  0  0  0  0  0  0  0
    2.3820   -5.6980    8.3940 C   0  0  0  0  0  0  0  0  0  0  0  0
    1.0150   -5.6830    8.3760 O   0  0  0  0  0  0  0  0  0  0  0  0
    3.0780   -4.4830    8.3750 C   0  0  0  0  0  0  0  0  0  0  0  0
    2.3380   -3.3280    8.3260 O   0  0  0  0  0  0  0  0  0  0  0  0
    7.0310   -4.0520    7.9470 H   0  0  0  0  0  0  0  0  0  0  0  0
    8.2644   -2.1272    7.5007 H   0  0  0  0  0  0  0  0  0  0  0  0
    6.7966   -1.1276    7.6458 H   0  0  0  0  0  0  0  0  0  0  0  0
    8.0351   -2.5775   10.1114 H   0  0  0  0  0  0  0  0  0  0  0  0
    7.1508    0.3041    9.5418 H   0  0  0  0  0  0  0  0  0  0  0  0
    8.0511   -1.2842   12.0407 H   0  0  0  0  0  0  0  0  0  0  0  0
    9.0635    1.9374   13.1684 H   0  0  0  0  0  0  0  0  0  0  0  0
   11.2247    2.2042   11.3229 H   0  0  0  0  0  0  0  0  0  0  0  0
   12.1795    4.0187   10.0428 H   0  0  0  0  0  0  0  0  0  0  0  0
    8.1026    5.8700    9.9902 H   0  0  0  0  0  0  0  0  0  0  0  0
    7.3398    3.9691   11.2737 H   0  0  0  0  0  0  0  0  0  0  0  0
    6.7095    2.3349   11.2610 H   0  0  0  0  0  0  0  0  0  0  0  0
    7.3070    2.8280   13.8370 H   0  0  0  0  0  0  0  0  0  0  0  0
    5.7764    0.1044   12.0210 H   0  0  0  0  0  0  0  0  0  0  0  0
    5.9520   -0.0270   14.0880 H   0  0  0  0  0  0  0  0  0  0  0  0
    6.2800   -5.6945    8.4167 H   0  0  0  0  0  0  0  0  0  0  0  0
    2.5147   -7.8622    8.4480 H   0  0  0  0  0  0  0  0  0  0  0  0
    0.6860   -5.8350    7.4760 H   0  0  0  0  0  0  0  0  0  0  0  0
    2.5940   -2.8250    7.5220 H   0  0  0  0  0  0  0  0  0  0  0  0
  1  2  2  0
  2  3  1  0
  3  4  1  0
  4  5  1  0
  5  6  2  0
  6  7  1  0
  7  8  1  0
  8  9  1  0
  9 10  1  0
 10 11  1  0
 11 12  2  0
 12 13  1  0
 13 14  2  0
 13 15  1  0
 15 16  2  0
  9 17  1  0
 17 18  1  0
 17 19  1  0
 19 20  1  0
  2 21  1  0
 21 22  2  0
 22 23  1  0
 23 24  1  0
 24 25  2  0
 24 26  1  0
 23 27  2  0
 27 28  1  0
 28 29  1  0
 28 30  2  0
 30 31  1  0
 19  7  1  0
 30 21  1  0
 16 10  1  0
  3 32  1  0
  4 33  1  0
  4 34  1  0
  5 35  1  0
  6 36  1  0
  7 37  1  1
  9 38  1  1
 11 39  1  0
 12 40  1  0
 15 41  1  0
 16 42  1  0
 17 43  1  6
 18 44  1  0
 19 45  1  6
 20 46  1  0
 22 47  1  0
 27 48  1  0
 29 49  1  0
 31 50  1  0
M  CHG  2  24   1  26  -1
M  END
>  <meeko>  (4) 
{"is_sidechain": [false], "free_energy": -8.023, "intermolecular_energy": -12.096, "internal_energy": -0.632}

$$$$
3ozt_ligand
     RDKit          3D

 50 52  0  0  0  0  0  0  0  0999 V2000
    6.1230   -2.6190    7.6630 O   0  0  0  0  0  0  0  0  0  0  0  0
    5.1570   -2.8150    8.3950 C   0  0  0  0  0  0  0  0  0  0  0  0
    4.5820   -1.8360    9.1750 N   0  0  0  0  0  0  0  0  0  0  0  0
    5.0610   -0.4740    9.1470 C   0  0  0  0  0  0  0  0  0  0  0  0
    5.7470   -0.2130   10.4510 C   0  0  0  0  0  0  0  0  0  0  0  0
    5.6200    0.9180   11.1670 C   0  0  0  0  0  0  0  0  0  0  0  0
    6.3320    1.1710   12.4670 C   0  0  1  0  0  0  0  0  0  0  0  0
    7.5370    0.3880   12.4540 O   0  0  0  0  0  0  0  0  0  0  0  0
    8.6700    1.2790   12.4100 C   0  0  1  0  0  0  0  0  0  0  0  0
    9.6920    0.8240   11.4360 N   0  0  0  0  0  0  0  0  0  0  0  0
   10.7690    0.0160   11.7940 C   0  0  0  0  0  0  0  0  0  0  0  0
   11.7060   -0.4210   10.9440 C   0  0  0  0  0  0  0  0  0  0  0  0
   11.5980   -0.0230    9.5210 C   0  0  0  0  0  0  0  0  0  0  0  0
   12.4190   -0.3990    8.6910 O   0  0  0  0  0  0  0  0  0  0  0  0
   10.4600    0.8440    9.1400 C   0  0  0  0  0  0  0  0  0  0  0  0
    9.5970    1.2070   10.0990 C   0  0  0  0  0  0  0  0  0  0  0  0
    8.1270    2.6740   12.0470 C   0  0  2  0  0  0  0  0  0  0  0  0
    8.8910    3.7590   12.5810 O   0  0  0  0  0  0  0  0  0  0  0  0
    6.7420    2.6310   12.6620 C   0  0  2  0  0  0  0  0  0  0  0  0
    6.8680    2.9600   14.0600 O   0  0  0  0  0  0  0  0  0  0  0  0
    4.5280   -4.1660    8.4130 C   0  0  0  0  0  0  0  0  0  0  0  0
    5.3110   -5.3280    8.4600 C   0  0  0  0  0  0  0  0  0  0  0  0
    4.6840   -6.5850    8.4870 C   0  0  0  0  0  0  0  0  0  0  0  0
    5.5080   -7.7990    8.5460 N   0  0  0  0  0  0  0  0  0  0  0  0
    5.9530   -8.1350    9.6520 O   0  0  0  0  0  0  0  0  0  0  0  0
    5.7030   -8.4150    7.4880 O   0  0  0  0  0  0  0  0  0  0  0  0
    3.2900   -6.7000    8.4590 C   0  0  0  0  0  0  0  0  0  0  0  0
    2.5220   -5.5420    8.3910 C   0  0  0  0  0  0  0  0  0  0  0  0
    1.1570   -5.6260    8.3500 O   0  0  0  0  0  0  0  0  0  0  0  0
    3.1280   -4.2800    8.3580 C   0  0  0  0  0  0  0  0  0  0  0  0
    2.3090   -3.1820    8.2740 O   0  0  0  0  0  0  0  0  0  0  0  0
    3.6620   -1.9760    9.5680 H   0  0  0  0  0  0  0  0  0  0  0  0
    5.7699   -0.3420    8.3164 H   0  0  0  0  0  0  0  0  0  0  0  0
    4.2267    0.2277    9.0002 H   0  0  0  0  0  0  0  0  0  0  0  0
    6.4009   -1.0015   10.8519 H   0  0  0  0  0  0  0  0  0  0  0  0
    4.9561    1.7045   10.7789 H   0  0  0  0  0  0  0  0  0  0  0  0
    5.6410    0.9071   13.2812 H   0  0  0  0  0  0  0  0  0  0  0  0
    9.1783    1.3005   13.3853 H   0  0  0  0  0  0  0  0  0  0  0  0
   10.8553   -0.2837   12.8489 H   0  0  0  0  0  0  0  0  0  0  0  0
   12.5328   -1.0576   11.2921 H   0  0  0  0  0  0  0  0  0  0  0  0
   10.3268    1.1801    8.1011 H   0  0  0  0  0  0  0  0  0  0  0  0
    8.7543    1.8527    9.8108 H   0  0  0  0  0  0  0  0  0  0  0  0
    8.1558    2.8614   10.9635 H   0  0  0  0  0  0  0  0  0  0  0  0
    9.7580    3.7120   12.1250 H   0  0  0  0  0  0  0  0  0  0  0  0
    6.0108    3.3278   12.2265 H   0  0  0  0  0  0  0  0  0  0  0  0
    7.6640    2.5050   14.3940 H   0  0  0  0  0  0  0  0  0  0  0  0
    6.4085   -5.2561    8.4756 H   0  0  0  0  0  0  0  0  0  0  0  0
    2.8095   -7.6890    8.4902 H   0  0  0  0  0  0  0  0  0  0  0  0
    0.8790   -6.5270    8.1250 H   0  0  0  0  0  0  0  0  0  0  0  0
    2.6330   -2.5000    8.9020 H   0  0  0  0  0  0  0  0  0  0  0  0
  1  2  2  0
  2  3  1  0
  3  4  1  0
  4  5  1  0
  5  6  2  0
  6  7  1  0
  7  8  1  0
  8  9  1  0
  9 10  1  0
 10 11  1  0
 11 12  2  0
 12 13  1  0
 13 14  2  0
 13 15  1  0
 15 16  2  0
  9 17  1  0
 17 18  1  0
 17 19  1  0
 19 20  1  0
  2 21  1  0
 21 22  2  0
 22 23  1  0
 23 24  1  0
 24 25  2  0
 24 26  1  0
 23 27  2  0
 27 28  1  0
 28 29  1  0
 28 30  2  0
 30 31  1  0
 19  7  1  0
 30 21  1  0
 16 10  1  0
  3 32  1  0
  4 33  1  0
  4 34  1  0
  5 35  1  0
  6 36  1  0
  7 37  1  1
  9 38  1  1
 11 39  1  0
 12 40  1  0
 15 41  1  0
 16 42  1  0
 17 43  1  6
 18 44  1  0
 19 45  1  6
 20 46  1  0
 22 47  1  0
 27 48  1  0
 29 49  1  0
 31 50  1  0
M  CHG  2  24   1  26  -1
M  END
>  <meeko>  (5) 
{"is_sidechain": [false], "free_energy": -8.003, "intermolecular_energy": -11.522, "internal_energy": -1.177}

$$$$
3ozt_ligand
     RDKit          3D

 50 52  0  0  0  0  0  0  0  0999 V2000
   10.9210   -1.3020    4.6880 O   0  0  0  0  0  0  0  0  0  0  0  0
   10.1520   -0.3870    4.9690 C   0  0  0  0  0  0  0  0  0  0  0  0
    9.2870   -0.4220    6.0420 N   0  0  0  0  0  0  0  0  0  0  0  0
    9.2630   -1.5430    6.9510 C   0  0  0  0  0  0  0  0  0  0  0  0
    7.9190   -1.5550    7.6110 C   0  0  0  0  0  0  0  0  0  0  0  0
    7.6040   -2.2990    8.6860 C   0  0  0  0  0  0  0  0  0  0  0  0
    6.2430   -2.3130    9.3260 C   0  0  1  0  0  0  0  0  0  0  0  0
    6.3770   -1.7210   10.6280 O   0  0  0  0  0  0  0  0  0  0  0  0
    5.6560   -0.4720   10.6460 C   0  0  1  0  0  0  0  0  0  0  0  0
    6.4350    0.6060   11.3050 N   0  0  0  0  0  0  0  0  0  0  0  0
    6.0670    1.1610   12.5280 C   0  0  0  0  0  0  0  0  0  0  0  0
    6.7480    2.1280   13.1580 C   0  0  0  0  0  0  0  0  0  0  0  0
    7.9770    2.6480   12.5150 C   0  0  0  0  0  0  0  0  0  0  0  0
    8.6500    3.5250   13.0460 O   0  0  0  0  0  0  0  0  0  0  0  0
    8.3630    2.0650   11.2100 C   0  0  0  0  0  0  0  0  0  0  0  0
    7.5850    1.1040   10.6960 C   0  0  0  0  0  0  0  0  0  0  0  0
    5.3350   -0.1200    9.1820 C   0  0  2  0  0  0  0  0  0  0  0  0
    4.1340    0.6370    9.0080 O   0  0  0  0  0  0  0  0  0  0  0  0
    5.2020   -1.4960    8.5600 C   0  0  2  0  0  0  0  0  0  0  0  0
    3.8660   -1.9730    8.8180 O   0  0  0  0  0  0  0  0  0  0  0  0
   10.1780    0.8550    4.1470 C   0  0  0  0  0  0  0  0  0  0  0  0
   11.3520    1.6090    4.0110 C   0  0  0  0  0  0  0  0  0  0  0  0
   11.3430    2.7690    3.2190 C   0  0  0  0  0  0  0  0  0  0  0  0
   12.5770    3.5510    3.0720 N   0  0  0  0  0  0  0  0  0  0  0  0
   13.0440    4.0790    4.0910 O   0  0  0  0  0  0  0  0  0  0  0  0
   13.0780    3.6300    1.9420 O   0  0  0  0  0  0  0  0  0  0  0  0
   10.1780    3.1930    2.5680 C   0  0  0  0  0  0  0  0  0  0  0  0
    9.0130    2.4500    2.7270 C   0  0  0  0  0  0  0  0  0  0  0  0
    7.8580    2.8480    2.1120 O   0  0  0  0  0  0  0  0  0  0  0  0
    9.0010    1.2940    3.5160 C   0  0  0  0  0  0  0  0  0  0  0  0
    7.8110    0.6200    3.6390 O   0  0  0  0  0  0  0  0  0  0  0  0
    8.8550    0.4290    6.3710 H   0  0  0  0  0  0  0  0  0  0  0  0
    9.4180   -2.4802    6.3964 H   0  0  0  0  0  0  0  0  0  0  0  0
   10.0631   -1.4528    7.7004 H   0  0  0  0  0  0  0  0  0  0  0  0
    7.1349   -0.9105    7.1871 H   0  0  0  0  0  0  0  0  0  0  0  0
    8.3880   -2.9349    9.1231 H   0  0  0  0  0  0  0  0  0  0  0  0
    5.8964   -3.3567    9.3480 H   0  0  0  0  0  0  0  0  0  0  0  0
    4.7319   -0.5727   11.2341 H   0  0  0  0  0  0  0  0  0  0  0  0
    5.1548    0.7795   13.0100 H   0  0  0  0  0  0  0  0  0  0  0  0
    6.4042    2.5243   14.1249 H   0  0  0  0  0  0  0  0  0  0  0  0
    9.2619    2.4109   10.6786 H   0  0  0  0  0  0  0  0  0  0  0  0
    7.8742    0.6775    9.7242 H   0  0  0  0  0  0  0  0  0  0  0  0
    6.1028    0.5283    8.7346 H   0  0  0  0  0  0  0  0  0  0  0  0
    4.0570    1.1860    9.8170 H   0  0  0  0  0  0  0  0  0  0  0  0
    5.3597   -1.5385    7.4722 H   0  0  0  0  0  0  0  0  0  0  0  0
    3.9330   -2.6630    9.5030 H   0  0  0  0  0  0  0  0  0  0  0  0
   12.2743    1.2942    4.5212 H   0  0  0  0  0  0  0  0  0  0  0  0
   10.1841    4.0975    1.9420 H   0  0  0  0  0  0  0  0  0  0  0  0
    7.5790    3.7170    2.4420 H   0  0  0  0  0  0  0  0  0  0  0  0
    8.0020   -0.3100    3.8900 H   0  0  0  0  0  0  0  0  0  0  0  0
  1  2  2  0
  2  3  1  0
  3  4  1  0
  4  5  1  0
  5  6  2  0
  6  7  1  0
  7  8  1  0
  8  9  1  0
  9 10  1  0
 10 11  1  0
 11 12  2  0
 12 13  1  0
 13 14  2  0
 13 15  1  0
 15 16  2  0
  9 17  1  0
 17 18  1  0
 17 19  1  0
 19 20  1  0
  2 21  1  0
 21 22  2  0
 22 23  1  0
 23 24  1  0
 24 25  2  0
 24 26  1  0
 23 27  2  0
 27 28  1  0
 28 29  1  0
 28 30  2  0
 30 31  1  0
 19  7  1  0
 30 21  1  0
 16 10  1  0
  3 32  1  0
  4 33  1  0
  4 34  1  0
  5 35  1  0
  6 36  1  0
  7 37  1  1
  9 38  1  1
 11 39  1  0
 12 40  1  0
 15 41  1  0
 16 42  1  0
 17 43  1  6
 18 44  1  0
 19 45  1  6
 20 46  1  0
 22 47  1  0
 27 48  1  0
 29 49  1  0
 31 50  1  0
M  CHG  2  24   1  26  -1
M  END
>  <meeko>  (6) 
{"is_sidechain": [false], "free_energy": -7.921, "intermolecular_energy": -11.564, "internal_energy": -1.014}

$$$$
3ozt_ligand
     RDKit          3D

 50 52  0  0  0  0  0  0  0  0999 V2000
    6.5580   -3.1400    9.0480 O   0  0  0  0  0  0  0  0  0  0  0  0
    5.5010   -3.1700    8.4250 C   0  0  0  0  0  0  0  0  0  0  0  0
    5.0200   -2.1080    7.6910 N   0  0  0  0  0  0  0  0  0  0  0  0
    5.7680   -0.8790    7.5680 C   0  0  0  0  0  0  0  0  0  0  0  0
    5.3690    0.0050    8.7080 C   0  0  0  0  0  0  0  0  0  0  0  0
    6.1140    0.2160    9.8070 C   0  0  0  0  0  0  0  0  0  0  0  0
    5.6880    1.0930   10.9520 C   0  0  1  0  0  0  0  0  0  0  0  0
    5.4640    0.2370   12.0850 O   0  0  0  0  0  0  0  0  0  0  0  0
    6.4610    0.5230   13.0870 C   0  0  1  0  0  0  0  0  0  0  0  0
    7.0240   -0.7170   13.6750 N   0  0  0  0  0  0  0  0  0  0  0  0
    8.3850   -0.8840   13.9220 C   0  0  0  0  0  0  0  0  0  0  0  0
    8.9290   -1.9840   14.4580 C   0  0  0  0  0  0  0  0  0  0  0  0
    8.0300   -3.1050   14.8150 C   0  0  0  0  0  0  0  0  0  0  0  0
    8.4660   -4.1350   15.3190 O   0  0  0  0  0  0  0  0  0  0  0  0
    6.5850   -2.9330   14.5440 C   0  0  0  0  0  0  0  0  0  0  0  0
    6.1800   -1.7770   14.0010 C   0  0  0  0  0  0  0  0  0  0  0  0
    7.5520    1.3690   12.4030 C   0  0  2  0  0  0  0  0  0  0  0  0
    8.2250    2.2780   13.2780 O   0  0  0  0  0  0  0  0  0  0  0  0
    6.7470    2.1180   11.3590 C   0  0  2  0  0  0  0  0  0  0  0  0
    6.1510    3.2650   11.9980 O   0  0  0  0  0  0  0  0  0  0  0  0
    4.7100   -4.4320    8.4080 C   0  0  0  0  0  0  0  0  0  0  0  0
    5.3400   -5.6820    8.3220 C   0  0  0  0  0  0  0  0  0  0  0  0
    4.5620   -6.8520    8.3200 C   0  0  0  0  0  0  0  0  0  0  0  0
    5.2270   -8.1580    8.2390 N   0  0  0  0  0  0  0  0  0  0  0  0
    5.8040   -8.4410    7.1790 O   0  0  0  0  0  0  0  0  0  0  0  0
    5.1740   -8.8940    9.2340 O   0  0  0  0  0  0  0  0  0  0  0  0
    3.1660   -6.7940    8.3940 C   0  0  0  0  0  0  0  0  0  0  0  0
    2.5480   -5.5480    8.4580 C   0  0  0  0  0  0  0  0  0  0  0  0
    1.1840   -5.4620    8.5180 O   0  0  0  0  0  0  0  0  0  0  0  0
    3.3060   -4.3710    8.4560 C   0  0  0  0  0  0  0  0  0  0  0  0
    2.6280   -3.1780    8.5050 O   0  0  0  0  0  0  0  0  0  0  0  0
    4.2860   -2.2530    7.0130 H   0  0  0  0  0  0  0  0  0  0  0  0
    6.8467   -1.0893    7.6152 H   0  0  0  0  0  0  0  0  0  0  0  0
    5.5559   -0.3904    6.6055 H   0  0  0  0  0  0  0  0  0  0  0  0
    4.3982    0.5180    8.6420 H   0  0  0  0  0  0  0  0  0  0  0  0
    7.0926   -0.2821    9.8726 H   0  0  0  0  0  0  0  0  0  0  0  0
    4.7933    1.6475   10.6324 H   0  0  0  0  0  0  0  0  0  0  0  0
    6.0122    1.0724   13.9277 H   0  0  0  0  0  0  0  0  0  0  0  0
    9.0589   -0.0554   13.6587 H   0  0  0  0  0  0  0  0  0  0  0  0
   10.0136   -2.0528   14.6283 H   0  0  0  0  0  0  0  0  0  0  0  0
    5.8653   -3.7303   14.7813 H   0  0  0  0  0  0  0  0  0  0  0  0
    5.1056   -1.6561   13.7982 H   0  0  0  0  0  0  0  0  0  0  0  0
    8.3720    0.7494   12.0110 H   0  0  0  0  0  0  0  0  0  0  0  0
    9.1400    1.9330   13.3530 H   0  0  0  0  0  0  0  0  0  0  0  0
    7.3206    2.4860   10.4956 H   0  0  0  0  0  0  0  0  0  0  0  0
    6.4690    3.2810   12.9200 H   0  0  0  0  0  0  0  0  0  0  0  0
    6.4362   -5.7461    8.2565 H   0  0  0  0  0  0  0  0  0  0  0  0
    2.5672   -7.7167    8.4015 H   0  0  0  0  0  0  0  0  0  0  0  0
    0.9160   -4.7500    9.1200 H   0  0  0  0  0  0  0  0  0  0  0  0
    2.1280   -3.0670    7.6670 H   0  0  0  0  0  0  0  0  0  0  0  0
  1  2  2  0
  2  3  1  0
  3  4  1  0
  4  5  1  0
  5  6  2  0
  6  7  1  0
  7  8  1  0
  8  9  1  0
  9 10  1  0
 10 11  1  0
 11 12  2  0
 12 13  1  0
 13 14  2  0
 13 15  1  0
 15 16  2  0
  9 17  1  0
 17 18  1  0
 17 19  1  0
 19 20  1  0
  2 21  1  0
 21 22  2  0
 22 23  1  0
 23 24  1  0
 24 25  2  0
 24 26  1  0
 23 27  2  0
 27 28  1  0
 28 29  1  0
 28 30  2  0
 30 31  1  0
 19  7  1  0
 30 21  1  0
 16 10  1  0
  3 32  1  0
  4 33  1  0
  4 34  1  0
  5 35  1  0
  6 36  1  0
  7 37  1  6
  9 38  1  1
 11 39  1  0
 12 40  1  0
 15 41  1  0
 16 42  1  0
 17 43  1  6
 18 44  1  0
 19 45  1  6
 20 46  1  0
 22 47  1  0
 27 48  1  0
 29 49  1  0
 31 50  1  0
M  CHG  2  24   1  26  -1
M  END
>  <meeko>  (7) 
{"is_sidechain": [false], "free_energy": -7.9, "intermolecular_energy": -11.551, "internal_energy": -0.996}

$$$$
3ozt_ligand
     RDKit          3D

 50 52  0  0  0  0  0  0  0  0999 V2000
    3.9150   -7.5330    7.2820 O   0  0  0  0  0  0  0  0  0  0  0  0
    4.7270   -7.0010    8.0330 C   0  0  0  0  0  0  0  0  0  0  0  0
    5.7320   -7.6890    8.6770 N   0  0  0  0  0  0  0  0  0  0  0  0
    5.9290   -9.1040    8.4680 C   0  0  0  0  0  0  0  0  0  0  0  0
    6.8020   -9.6040    9.5760 C   0  0  0  0  0  0  0  0  0  0  0  0
    6.4640   -9.5960   10.8770 C   0  0  0  0  0  0  0  0  0  0  0  0
    7.3630  -10.0850   11.9790 C   0  0  1  0  0  0  0  0  0  0  0  0
    8.6600  -10.3110   11.4050 O   0  0  0  0  0  0  0  0  0  0  0  0
    9.5860   -9.3540   11.9590 C   0  0  1  0  0  0  0  0  0  0  0  0
   10.4600   -8.7630   10.9160 N   0  0  0  0  0  0  0  0  0  0  0  0
   11.4560   -7.8320   11.2050 C   0  0  0  0  0  0  0  0  0  0  0  0
   12.2690   -7.2840   10.2930 C   0  0  0  0  0  0  0  0  0  0  0  0
   12.1040   -7.6880    8.8770 C   0  0  0  0  0  0  0  0  0  0  0  0
   12.8250   -7.2290    7.9980 O   0  0  0  0  0  0  0  0  0  0  0  0
   11.0400   -8.6680    8.5680 C   0  0  0  0  0  0  0  0  0  0  0  0
   10.2990   -9.1340    9.5820 C   0  0  0  0  0  0  0  0  0  0  0  0
    8.7440   -8.2750   12.6660 C   0  0  2  0  0  0  0  0  0  0  0  0
    9.3930   -7.6600   13.7820 O   0  0  0  0  0  0  0  0  0  0  0  0
    7.5370   -9.0770   13.1150 C   0  0  2  0  0  0  0  0  0  0  0  0
    7.8760   -9.7320   14.3530 O   0  0  0  0  0  0  0  0  0  0  0  0
    4.6670   -5.5260    8.2310 C   0  0  0  0  0  0  0  0  0  0  0  0
    5.8320   -4.7770    8.4540 C   0  0  0  0  0  0  0  0  0  0  0  0
    5.7390   -3.3860    8.6250 C   0  0  0  0  0  0  0  0  0  0  0  0
    6.9620   -2.6050    8.8490 N   0  0  0  0  0  0  0  0  0  0  0  0
    7.6490   -2.3220    7.8580 O   0  0  0  0  0  0  0  0  0  0  0  0
    7.2300   -2.2750   10.0130 O   0  0  0  0  0  0  0  0  0  0  0  0
    4.5030   -2.7320    8.5860 C   0  0  0  0  0  0  0  0  0  0  0  0
    3.3510   -3.4850    8.3860 C   0  0  0  0  0  0  0  0  0  0  0  0
    2.1280   -2.8730    8.3550 O   0  0  0  0  0  0  0  0  0  0  0  0
    3.4220   -4.8740    8.2180 C   0  0  0  0  0  0  0  0  0  0  0  0
    2.2430   -5.5540    8.0400 O   0  0  0  0  0  0  0  0  0  0  0  0
    6.5080   -7.1870    9.0860 H   0  0  0  0  0  0  0  0  0  0  0  0
    4.9606   -9.6253    8.4883 H   0  0  0  0  0  0  0  0  0  0  0  0
    6.3980   -9.2901    7.4906 H   0  0  0  0  0  0  0  0  0  0  0  0
    7.7897  -10.0064    9.3068 H   0  0  0  0  0  0  0  0  0  0  0  0
    5.4716   -9.2091   11.1517 H   0  0  0  0  0  0  0  0  0  0  0  0
    6.9046  -10.9898   12.4048 H   0  0  0  0  0  0  0  0  0  0  0  0
   10.2649   -9.8469   12.6704 H   0  0  0  0  0  0  0  0  0  0  0  0
   11.5829   -7.5264   12.2541 H   0  0  0  0  0  0  0  0  0  0  0  0
   13.0379   -6.5543   10.5868 H   0  0  0  0  0  0  0  0  0  0  0  0
   10.8624   -9.0043    7.5358 H   0  0  0  0  0  0  0  0  0  0  0  0
    9.5078   -9.8606    9.3453 H   0  0  0  0  0  0  0  0  0  0  0  0
    8.5253   -7.4220   12.0068 H   0  0  0  0  0  0  0  0  0  0  0  0
    9.6450   -8.4010   14.3730 H   0  0  0  0  0  0  0  0  0  0  0  0
    6.6222   -8.4931   13.2945 H   0  0  0  0  0  0  0  0  0  0  0  0
    7.2660  -10.4860   14.4580 H   0  0  0  0  0  0  0  0  0  0  0  0
    6.8116   -5.2757    8.4947 H   0  0  0  0  0  0  0  0  0  0  0  0
    4.4433   -1.6408    8.7114 H   0  0  0  0  0  0  0  0  0  0  0  0
    1.6320   -3.0640    9.1670 H   0  0  0  0  0  0  0  0  0  0  0  0
    1.5000   -4.9160    8.1060 H   0  0  0  0  0  0  0  0  0  0  0  0
  1  2  2  0
  2  3  1  0
  3  4  1  0
  4  5  1  0
  5  6  2  0
  6  7  1  0
  7  8  1  0
  8  9  1  0
  9 10  1  0
 10 11  1  0
 11 12  2  0
 12 13  1  0
 13 14  2  0
 13 15  1  0
 15 16  2  0
  9 17  1  0
 17 18  1  0
 17 19  1  0
 19 20  1  0
  2 21  1  0
 21 22  2  0
 22 23  1  0
 23 24  1  0
 24 25  2  0
 24 26  1  0
 23 27  2  0
 27 28  1  0
 28 29  1  0
 28 30  2  0
 30 31  1  0
 19  7  1  0
 30 21  1  0
 16 10  1  0
  3 32  1  0
  4 33  1  0
  4 34  1  0
  5 35  1  0
  6 36  1  0
  7 37  1  1
  9 38  1  1
 11 39  1  0
 12 40  1  0
 15 41  1  0
 16 42  1  0
 17 43  1  6
 18 44  1  0
 19 45  1  1
 20 46  1  0
 22 47  1  0
 27 48  1  0
 29 49  1  0
 31 50  1  0
M  CHG  2  24   1  26  -1
M  END
>  <meeko>  (8) 
{"is_sidechain": [false], "free_energy": -7.894, "intermolecular_energy": -11.233, "internal_energy": -1.305}

$$$$
3ozt_ligand
     RDKit          3D

 50 52  0  0  0  0  0  0  0  0999 V2000
    5.6880   -8.1820    7.1400 O   0  0  0  0  0  0  0  0  0  0  0  0
    5.5550   -7.6210    8.2250 C   0  0  0  0  0  0  0  0  0  0  0  0
    6.0470   -8.1280    9.4080 N   0  0  0  0  0  0  0  0  0  0  0  0
    6.8060   -9.3560    9.4430 C   0  0  0  0  0  0  0  0  0  0  0  0
    8.1260   -9.0490   10.0790 C   0  0  0  0  0  0  0  0  0  0  0  0
    9.3190   -9.3910    9.5630 C   0  0  0  0  0  0  0  0  0  0  0  0
   10.6350   -9.0910   10.2260 C   0  0  1  0  0  0  0  0  0  0  0  0
   11.4810  -10.2370   10.0340 O   0  0  0  0  0  0  0  0  0  0  0  0
   12.5730   -9.8680    9.1680 C   0  0  1  0  0  0  0  0  0  0  0  0
   12.8320  -10.9000    8.1340 N   0  0  0  0  0  0  0  0  0  0  0  0
   11.8110  -11.5950    7.4900 C   0  0  0  0  0  0  0  0  0  0  0  0
   12.0040  -12.5260    6.5470 C   0  0  0  0  0  0  0  0  0  0  0  0
   13.3970  -12.8460    6.1570 C   0  0  0  0  0  0  0  0  0  0  0  0
   13.6390  -13.6820    5.2930 O   0  0  0  0  0  0  0  0  0  0  0  0
   14.4830  -12.1160    6.8480 C   0  0  0  0  0  0  0  0  0  0  0  0
   14.1420  -11.2100    7.7740 C   0  0  0  0  0  0  0  0  0  0  0  0
   12.2020   -8.5150    8.5320 C   0  0  2  0  0  0  0  0  0  0  0  0
   13.3230   -7.6870    8.2130 O   0  0  0  0  0  0  0  0  0  0  0  0
   11.3590   -7.8860    9.6250 C   0  0  2  0  0  0  0  0  0  0  0  0
   12.2520   -7.2790   10.5800 O   0  0  0  0  0  0  0  0  0  0  0  0
    4.8750   -6.2970    8.2740 C   0  0  0  0  0  0  0  0  0  0  0  0
    5.6080   -5.1100    8.4140 C   0  0  0  0  0  0  0  0  0  0  0  0
    4.9330   -3.8780    8.4460 C   0  0  0  0  0  0  0  0  0  0  0  0
    5.7060   -2.6380    8.5830 N   0  0  0  0  0  0  0  0  0  0  0  0
    5.2590   -1.7660    9.3420 O   0  0  0  0  0  0  0  0  0  0  0  0
    6.7590   -2.5400    7.9360 O   0  0  0  0  0  0  0  0  0  0  0  0
    3.5390   -3.8130    8.3490 C   0  0  0  0  0  0  0  0  0  0  0  0
    2.8180   -4.9970    8.2320 C   0  0  0  0  0  0  0  0  0  0  0  0
    1.4530   -4.9630    8.1480 O   0  0  0  0  0  0  0  0  0  0  0  0
    3.4720   -6.2350    8.2040 C   0  0  0  0  0  0  0  0  0  0  0  0
    2.6960   -7.3620    8.1020 O   0  0  0  0  0  0  0  0  0  0  0  0
    6.1260   -7.5330   10.2200 H   0  0  0  0  0  0  0  0  0  0  0  0
    6.2702  -10.1123   10.0353 H   0  0  0  0  0  0  0  0  0  0  0  0
    6.9477   -9.7539    8.4273 H   0  0  0  0  0  0  0  0  0  0  0  0
    8.1190   -8.5056   11.0354 H   0  0  0  0  0  0  0  0  0  0  0  0
    9.3336   -9.9213    8.5994 H   0  0  0  0  0  0  0  0  0  0  0  0
   10.4308   -8.8632   11.2826 H   0  0  0  0  0  0  0  0  0  0  0  0
   13.5060   -9.7851    9.7447 H   0  0  0  0  0  0  0  0  0  0  0  0
   10.7744  -11.3630    7.7758 H   0  0  0  0  0  0  0  0  0  0  0  0
   11.1526  -13.0385    6.0754 H   0  0  0  0  0  0  0  0  0  0  0  0
   15.5387  -12.3114    6.6085 H   0  0  0  0  0  0  0  0  0  0  0  0
   14.9536  -10.6727    8.2865 H   0  0  0  0  0  0  0  0  0  0  0  0
   11.7012   -8.6382    7.5604 H   0  0  0  0  0  0  0  0  0  0  0  0
   13.4070   -7.0650    8.9650 H   0  0  0  0  0  0  0  0  0  0  0  0
   10.6590   -7.1061    9.2907 H   0  0  0  0  0  0  0  0  0  0  0  0
   11.7620   -6.5590   11.0180 H   0  0  0  0  0  0  0  0  0  0  0  0
    6.7043   -5.1430    8.4982 H   0  0  0  0  0  0  0  0  0  0  0  0
    3.0218   -2.8423    8.3650 H   0  0  0  0  0  0  0  0  0  0  0  0
    1.1120   -5.8130    7.8280 H   0  0  0  0  0  0  0  0  0  0  0  0
    2.6890   -7.8180    8.9720 H   0  0  0  0  0  0  0  0  0  0  0  0
  1  2  2  0
  2  3  1  0
  3  4  1  0
  4  5  1  0
  5  6  2  0
  6  7  1  0
  7  8  1  0
  8  9  1  0
  9 10  1  0
 10 11  1  0
 11 12  2  0
 12 13  1  0
 13 14  2  0
 13 15  1  0
 15 16  2  0
  9 17  1  0
 17 18  1  0
 17 19  1  0
 19 20  1  0
  2 21  1  0
 21 22  2  0
 22 23  1  0
 23 24  1  0
 24 25  2  0
 24 26  1  0
 23 27  2  0
 27 28  1  0
 28 29  1  0
 28 30  2  0
 30 31  1  0
 19  7  1  0
 30 21  1  0
 16 10  1  0
  3 32  1  0
  4 33  1  0
  4 34  1  0
  5 35  1  0
  6 36  1  0
  7 37  1  1
  9 38  1  1
 11 39  1  0
 12 40  1  0
 15 41  1  0
 16 42  1  0
 17 43  1  6
 18 44  1  0
 19 45  1  6
 20 46  1  0
 22 47  1  0
 27 48  1  0
 29 49  1  0
 31 50  1  0
M  CHG  2  24   1  26  -1
M  END
>  <meeko>  (9) 
{"is_sidechain": [false], "free_energy": -7.819, "intermolecular_energy": -11.398, "internal_energy": -1.03}

$$$$
