
     RDKit          3D

 34 37  0  0  0  0  0  0  0  0999 V2000
   18.1950    3.6670  -11.2130 C   0  0  0  0  0  0  0  0  0  0  0  0
   18.2740    4.3070   -9.9890 C   0  0  0  0  0  0  0  0  0  0  0  0
   17.7780    3.6110   -8.7880 C   0  0  0  0  0  0  0  0  0  0  0  0
   18.0790    4.3240   -7.5190 N   0  0  0  0  0  0  0  0  0  0  0  0
   19.5270    4.2110   -7.2120 C   0  0  0  0  0  0  0  0  0  0  0  0
   19.9820    5.1280   -6.0990 C   0  0  0  0  0  0  0  0  0  0  0  0
   20.1120    6.5020   -6.3490 C   0  0  0  0  0  0  0  0  0  0  0  0
   20.5300    7.3740   -5.3440 C   0  0  0  0  0  0  0  0  0  0  0  0
   20.8420    6.8910   -4.0780 C   0  0  0  0  0  0  0  0  0  0  0  0
   20.7420    5.5210   -3.8180 C   0  0  0  0  0  0  0  0  0  0  0  0
   20.3060    4.6340   -4.7940 C   0  0  0  0  0  0  0  0  0  0  0  0
   20.1810    3.1820   -4.4710 C   0  0  0  0  0  0  0  0  0  0  0  0
   20.6930    2.3400   -5.1770 O   0  0  0  0  0  0  0  0  0  0  0  0
   19.4530    2.8710   -3.3920 N   0  0  0  0  0  0  0  0  0  0  0  0
   19.1570    1.5010   -2.9790 C   0  0  0  0  0  0  0  0  0  0  0  0
   17.7160    1.1840   -3.2510 C   0  0  0  0  0  0  0  0  0  0  0  0
   17.3360    0.6870   -4.4740 C   0  0  0  0  0  0  0  0  0  0  0  0
   15.9770    0.4110   -4.7190 C   0  0  0  0  0  0  0  0  0  0  0  0
   15.0250    0.6440   -3.7350 C   0  0  0  0  0  0  0  0  0  0  0  0
   15.4120    1.1400   -2.5080 C   0  0  0  0  0  0  0  0  0  0  0  0
   16.7680    1.4030   -2.2600 C   0  0  0  0  0  0  0  0  0  0  0  0
   17.1940    3.7840   -6.4400 C   0  0  0  0  0  0  0  0  0  0  0  0
   15.7240    3.7800   -6.8600 C   0  0  0  0  0  0  0  0  0  0  0  0
   15.1180    2.5650   -7.1630 C   0  0  0  0  0  0  0  0  0  0  0  0
   13.7860    2.5070   -7.5640 C   0  0  0  0  0  0  0  0  0  0  0  0
   13.0800    3.6670   -7.6910 C   0  0  0  0  0  0  0  0  0  0  0  0
   13.6570    4.8790   -7.4060 C   0  0  0  0  0  0  0  0  0  0  0  0
   14.9790    4.9690   -6.9650 C   0  0  0  0  0  0  0  0  0  0  0  0
   15.5080    6.3180   -6.6260 C   0  0  0  0  0  0  0  0  0  0  0  0
   16.7120    6.5540   -6.7810 O   0  0  0  0  0  0  0  0  0  0  0  0
   14.7220    7.1490   -6.1500 O   0  0  0  0  0  0  0  0  0  0  0  0
   12.7680    5.9100   -7.6150 O   0  0  0  0  0  0  0  0  0  0  0  0
   11.5340    5.2320   -8.0250 C   0  0  0  0  0  0  0  0  0  0  0  0
   11.8080    3.8560   -8.1110 O   0  0  0  0  0  0  0  0  0  0  0  0
  2  1  2  0
  3  2  1  0
  4  3  1  0
  5  4  1  0
  6  5  1  0
  7  6  2  0
  8  7  1  0
  9  8  2  0
 10  9  1  0
 11  6  1  0
 11 10  2  0
 12 11  1  0
 13 12  2  0
 14 12  1  0
 15 14  1  0
 16 15  1  0
 17 16  2  0
 18 17  1  0
 19 18  2  0
 20 19  1  0
 21 20  2  0
 21 16  1  0
 22  4  1  0
 23 22  1  0
 24 23  2  0
 25 24  1  0
 26 25  2  0
 27 26  1  0
 28 27  2  0
 28 23  1  0
 29 28  1  0
 30 29  2  0
 31 29  1  0
 32 27  1  0
 33 32  1  0
 34 33  1  0
 34 26  1  0
M  CHG  2   4   1  31  -1
M  END
$$$$
