4eor_ligand
     RDKit          3D

 50 53  0  0  0  0  0  0  0  0999 V2000
  -17.8100   15.6240    5.6480 N   0  0  0  0  0  0  0  0  0  0  0  0
  -18.7810   15.0660    4.3900 S   0  0  0  0  0  0  0  0  0  0  0  0
  -19.8400   16.0250    4.1850 O   0  0  0  0  0  0  0  0  0  0  0  0
  -19.0360   13.6750    4.6850 O   0  0  0  0  0  0  0  0  0  0  0  0
  -17.6650   15.1570    3.0170 C   0  0  0  0  0  0  0  0  0  0  0  0
  -17.9480   14.4390    1.8560 C   0  0  0  0  0  0  0  0  0  0  0  0
  -17.0690   14.5090    0.7690 C   0  0  0  0  0  0  0  0  0  0  0  0
  -15.9000   15.2770    0.8250 C   0  0  0  0  0  0  0  0  0  0  0  0
  -14.9950   15.4000   -0.2330 N   0  0  0  0  0  0  0  0  0  0  0  0
  -14.4200   14.5050   -1.1360 C   0  0  0  0  0  0  0  0  0  0  0  0
  -14.7090   13.2110   -0.8700 N   0  0  0  0  0  0  0  0  0  0  0  0
  -14.2120   12.2310   -1.6700 C   0  0  0  0  0  0  0  0  0  0  0  0
  -14.5040   10.9050   -1.4210 O   0  0  0  0  0  0  0  0  0  0  0  0
  -13.8480   10.3380   -0.2850 C   0  0  0  0  0  0  0  0  0  0  0  0
  -14.6940    9.2220    0.3610 C   0  0  0  0  0  0  0  0  0  0  0  0
  -16.1720    9.6220    0.4340 C   0  0  0  0  0  0  0  0  0  0  0  0
  -16.4450   10.7380    1.4430 C   0  0  0  0  0  0  0  0  0  0  0  0
  -15.6010   10.6340    2.7140 C   0  0  0  0  0  0  0  0  0  0  0  0
  -15.0310    9.2390    2.9190 C   0  0  0  0  0  0  0  0  0  0  0  0
  -14.1450    8.8130    1.7450 C   0  0  0  0  0  0  0  0  0  0  0  0
  -13.4080   12.5800   -2.7530 C   0  0  0  0  0  0  0  0  0  0  0  0
  -12.7580   11.8690   -3.7420 N   0  0  0  0  0  0  0  0  0  0  0  0
  -12.1600   12.7800   -4.4790 C   0  0  0  0  0  0  0  0  0  0  0  0
  -12.3920   14.0450   -4.0130 N   0  0  0  0  0  0  0  0  0  0  0  0
  -13.1880   13.9340   -2.9110 C   0  0  0  0  0  0  0  0  0  0  0  0
  -13.6520   14.9340   -2.1520 N   0  0  0  0  0  0  0  0  0  0  0  0
  -15.6380   15.9830    2.0130 C   0  0  0  0  0  0  0  0  0  0  0  0
  -16.5060   15.9240    3.1070 C   0  0  0  0  0  0  0  0  0  0  0  0
  -18.2920   15.4580    6.5340 H   0  0  0  0  0  0  0  0  0  0  0  0
  -16.8740   15.2220    5.6430 H   0  0  0  0  0  0  0  0  0  0  0  0
  -18.8562   13.8215    1.7946 H   0  0  0  0  0  0  0  0  0  0  0  0
  -17.3017   13.9487   -0.1486 H   0  0  0  0  0  0  0  0  0  0  0  0
  -14.5890   16.3120   -0.3870 H   0  0  0  0  0  0  0  0  0  0  0  0
  -12.8836    9.9157   -0.6037 H   0  0  0  0  0  0  0  0  0  0  0  0
  -13.7015   11.1337    0.4603 H   0  0  0  0  0  0  0  0  0  0  0  0
  -14.6200    8.3354   -0.2859 H   0  0  0  0  0  0  0  0  0  0  0  0
  -16.4909    9.9649   -0.5613 H   0  0  0  0  0  0  0  0  0  0  0  0
  -16.7342    8.7367    0.7658 H   0  0  0  0  0  0  0  0  0  0  0  0
  -16.2301   11.7030    0.9608 H   0  0  0  0  0  0  0  0  0  0  0  0
  -17.4983   10.6476    1.7469 H   0  0  0  0  0  0  0  0  0  0  0  0
  -14.7681   11.3492    2.6445 H   0  0  0  0  0  0  0  0  0  0  0  0
  -16.2546   10.8583    3.5699 H   0  0  0  0  0  0  0  0  0  0  0  0
  -14.4305    9.2308    3.8406 H   0  0  0  0  0  0  0  0  0  0  0  0
  -15.8705    8.5318    2.9903 H   0  0  0  0  0  0  0  0  0  0  0  0
  -13.1548    9.2744    1.8741 H   0  0  0  0  0  0  0  0  0  0  0  0
  -14.1062    7.7138    1.7590 H   0  0  0  0  0  0  0  0  0  0  0  0
  -11.5472   12.5519   -5.3635 H   0  0  0  0  0  0  0  0  0  0  0  0
  -12.0480   14.9090   -4.4040 H   0  0  0  0  0  0  0  0  0  0  0  0
  -14.7277   16.5966    2.0828 H   0  0  0  0  0  0  0  0  0  0  0  0
  -16.2761   16.4776    4.0293 H   0  0  0  0  0  0  0  0  0  0  0  0
  1  2  1  0
  2  3  2  0
  2  4  2  0
  2  5  1  0
  5  6  2  0
  6  7  1  0
  7  8  2  0
  8  9  1  0
  9 10  1  0
 10 11  2  0
 11 12  1  0
 12 13  1  0
 13 14  1  0
 14 15  1  0
 15 16  1  0
 16 17  1  0
 17 18  1  0
 18 19  1  0
 19 20  1  0
 12 21  2  0
 21 22  1  0
 22 23  2  0
 23 24  1  0
 24 25  1  0
 25 26  2  0
  8 27  1  0
 27 28  2  0
 28  5  1  0
 26 10  1  0
 20 15  1  0
 25 21  1  0
  1 29  1  0
  1 30  1  0
  6 31  1  0
  7 32  1  0
  9 33  1  0
 14 34  1  0
 14 35  1  0
 15 36  1  0
 16 37  1  0
 16 38  1  0
 17 39  1  0
 17 40  1  0
 18 41  1  0
 18 42  1  0
 19 43  1  0
 19 44  1  0
 20 45  1  0
 20 46  1  0
 23 47  1  0
 24 48  1  0
 27 49  1  0
 28 50  1  0
M  END
>  <meeko>  (1) 
{"is_sidechain": [false], "free_energy": -9.281, "intermolecular_energy": -12.807, "internal_energy": -0.931}

$$$$
4eor_ligand
     RDKit          3D

 50 53  0  0  0  0  0  0  0  0999 V2000
  -20.5950   19.6410    5.3450 N   0  0  0  0  0  0  0  0  0  0  0  0
  -21.4400   18.4960    4.4430 S   0  0  0  0  0  0  0  0  0  0  0  0
  -21.8840   19.1270    3.2230 O   0  0  0  0  0  0  0  0  0  0  0  0
  -22.3510   17.8670    5.3710 O   0  0  0  0  0  0  0  0  0  0  0  0
  -20.1550   17.3430    4.0450 C   0  0  0  0  0  0  0  0  0  0  0  0
  -19.2970   17.6150    2.9800 C   0  0  0  0  0  0  0  0  0  0  0  0
  -18.2800   16.7070    2.6630 C   0  0  0  0  0  0  0  0  0  0  0  0
  -18.1120   15.5190    3.3840 C   0  0  0  0  0  0  0  0  0  0  0  0
  -17.1060   14.5840    3.1260 N   0  0  0  0  0  0  0  0  0  0  0  0
  -15.9980   14.5500    2.2790 C   0  0  0  0  0  0  0  0  0  0  0  0
  -15.6020   13.2980    1.9590 N   0  0  0  0  0  0  0  0  0  0  0  0
  -14.5320   13.1180    1.1400 C   0  0  0  0  0  0  0  0  0  0  0  0
  -14.1190   11.8470    0.7930 O   0  0  0  0  0  0  0  0  0  0  0  0
  -14.9460   11.1740   -0.1590 C   0  0  0  0  0  0  0  0  0  0  0  0
  -15.0790    9.6720    0.1640 C   0  0  0  0  0  0  0  0  0  0  0  0
  -16.5100    9.3250    0.5920 C   0  0  0  0  0  0  0  0  0  0  0  0
  -16.8850    9.8940    1.9610 C   0  0  0  0  0  0  0  0  0  0  0  0
  -15.7380    9.8610    2.9720 C   0  0  0  0  0  0  0  0  0  0  0  0
  -14.6470    8.8760    2.5800 C   0  0  0  0  0  0  0  0  0  0  0  0
  -14.0440    9.2160    1.2150 C   0  0  0  0  0  0  0  0  0  0  0  0
  -13.8590   14.2330    0.6450 C   0  0  0  0  0  0  0  0  0  0  0  0
  -12.7700   14.4140   -0.1840 N   0  0  0  0  0  0  0  0  0  0  0  0
  -12.6250   15.7190   -0.2740 C   0  0  0  0  0  0  0  0  0  0  0  0
  -13.5660   16.3880    0.4580 N   0  0  0  0  0  0  0  0  0  0  0  0
  -14.3630   15.4530    1.0520 C   0  0  0  0  0  0  0  0  0  0  0  0
  -15.4080   15.6810    1.8540 N   0  0  0  0  0  0  0  0  0  0  0  0
  -18.9990   15.2690    4.4470 C   0  0  0  0  0  0  0  0  0  0  0  0
  -20.0190   16.1660    4.7770 C   0  0  0  0  0  0  0  0  0  0  0  0
  -20.2100   19.1860    6.1750 H   0  0  0  0  0  0  0  0  0  0  0  0
  -19.8790   20.1270    4.8090 H   0  0  0  0  0  0  0  0  0  0  0  0
  -19.4186   18.5372    2.3928 H   0  0  0  0  0  0  0  0  0  0  0  0
  -17.5983   16.9318    1.8295 H   0  0  0  0  0  0  0  0  0  0  0  0
  -17.1820   13.6890    3.5870 H   0  0  0  0  0  0  0  0  0  0  0  0
  -15.9465   11.6311   -0.1486 H   0  0  0  0  0  0  0  0  0  0  0  0
  -14.4788   11.2722   -1.1500 H   0  0  0  0  0  0  0  0  0  0  0  0
  -14.8617    9.1153   -0.7595 H   0  0  0  0  0  0  0  0  0  0  0  0
  -17.2066    9.7293   -0.1572 H   0  0  0  0  0  0  0  0  0  0  0  0
  -16.5721    8.2292    0.6657 H   0  0  0  0  0  0  0  0  0  0  0  0
  -17.2020   10.9390    1.8285 H   0  0  0  0  0  0  0  0  0  0  0  0
  -17.6893    9.2612    2.3644 H   0  0  0  0  0  0  0  0  0  0  0  0
  -15.2979   10.8669    3.0398 H   0  0  0  0  0  0  0  0  0  0  0  0
  -16.1518    9.5359    3.9379 H   0  0  0  0  0  0  0  0  0  0  0  0
  -13.8511    8.9044    3.3388 H   0  0  0  0  0  0  0  0  0  0  0  0
  -15.0952    7.8734    2.5177 H   0  0  0  0  0  0  0  0  0  0  0  0
  -13.3121   10.0255    1.3528 H   0  0  0  0  0  0  0  0  0  0  0  0
  -13.5882    8.2916    0.8307 H   0  0  0  0  0  0  0  0  0  0  0  0
  -11.8408   16.2122   -0.8670 H   0  0  0  0  0  0  0  0  0  0  0  0
  -13.6690   17.3880    0.5490 H   0  0  0  0  0  0  0  0  0  0  0  0
  -18.8871   14.3448    5.0329 H   0  0  0  0  0  0  0  0  0  0  0  0
  -20.7071   15.9446    5.6062 H   0  0  0  0  0  0  0  0  0  0  0  0
  1  2  1  0
  2  3  2  0
  2  4  2  0
  2  5  1  0
  5  6  2  0
  6  7  1  0
  7  8  2  0
  8  9  1  0
  9 10  1  0
 10 11  2  0
 11 12  1  0
 12 13  1  0
 13 14  1  0
 14 15  1  0
 15 16  1  0
 16 17  1  0
 17 18  1  0
 18 19  1  0
 19 20  1  0
 12 21  2  0
 21 22  1  0
 22 23  2  0
 23 24  1  0
 24 25  1  0
 25 26  2  0
  8 27  1  0
 27 28  2  0
 28  5  1  0
 26 10  1  0
 20 15  1  0
 25 21  1  0
  1 29  1  0
  1 30  1  0
  6 31  1  0
  7 32  1  0
  9 33  1  0
 14 34  1  0
 14 35  1  0
 15 36  1  0
 16 37  1  0
 16 38  1  0
 17 39  1  0
 17 40  1  0
 18 41  1  0
 18 42  1  0
 19 43  1  0
 19 44  1  0
 20 45  1  0
 20 46  1  0
 23 47  1  0
 24 48  1  0
 27 49  1  0
 28 50  1  0
M  END
>  <meeko>  (2) 
{"is_sidechain": [false], "free_energy": -9.21, "intermolecular_energy": -12.987, "internal_energy": -0.654}

$$$$
4eor_ligand
     RDKit          3D

 50 53  0  0  0  0  0  0  0  0999 V2000
  -23.8920   18.1990    5.2870 N   0  0  0  0  0  0  0  0  0  0  0  0
  -22.8660   19.3610    4.6270 S   0  0  0  0  0  0  0  0  0  0  0  0
  -22.7360   20.4360    5.5810 O   0  0  0  0  0  0  0  0  0  0  0  0
  -23.3350   19.5690    3.2770 O   0  0  0  0  0  0  0  0  0  0  0  0
  -21.3310   18.4780    4.5610 C   0  0  0  0  0  0  0  0  0  0  0  0
  -21.3400   17.0850    4.5950 C   0  0  0  0  0  0  0  0  0  0  0  0
  -20.1300   16.3830    4.5430 C   0  0  0  0  0  0  0  0  0  0  0  0
  -18.9030   17.0530    4.4710 C   0  0  0  0  0  0  0  0  0  0  0  0
  -17.6640   16.4080    4.3990 N   0  0  0  0  0  0  0  0  0  0  0  0
  -16.8080   16.0540    3.3570 C   0  0  0  0  0  0  0  0  0  0  0  0
  -17.0200   14.8030    2.8870 N   0  0  0  0  0  0  0  0  0  0  0  0
  -16.2530   14.3270    1.8700 C   0  0  0  0  0  0  0  0  0  0  0  0
  -16.4610   13.0570    1.3700 O   0  0  0  0  0  0  0  0  0  0  0  0
  -15.7850   12.0080    2.0670 C   0  0  0  0  0  0  0  0  0  0  0  0
  -16.3910   10.6280    1.7420 C   0  0  0  0  0  0  0  0  0  0  0  0
  -16.0930    9.6180    2.8570 C   0  0  0  0  0  0  0  0  0  0  0  0
  -14.6200    9.2170    2.9280 C   0  0  0  0  0  0  0  0  0  0  0  0
  -13.9540    9.0850    1.5580 C   0  0  0  0  0  0  0  0  0  0  0  0
  -14.9670    8.9190    0.4350 C   0  0  0  0  0  0  0  0  0  0  0  0
  -15.9300   10.1070    0.3640 C   0  0  0  0  0  0  0  0  0  0  0  0
  -15.2580   15.1390    1.3310 C   0  0  0  0  0  0  0  0  0  0  0  0
  -14.3270   14.9840    0.3230 N   0  0  0  0  0  0  0  0  0  0  0  0
  -13.6670   16.1230    0.2920 C   0  0  0  0  0  0  0  0  0  0  0  0
  -14.1280   17.0040    1.2310 N   0  0  0  0  0  0  0  0  0  0  0  0
  -15.1440   16.3910    1.9040 C   0  0  0  0  0  0  0  0  0  0  0  0
  -15.8710   16.9030    2.9030 N   0  0  0  0  0  0  0  0  0  0  0  0
  -18.9260   18.4600    4.4480 C   0  0  0  0  0  0  0  0  0  0  0  0
  -20.1270   19.1740    4.4990 C   0  0  0  0  0  0  0  0  0  0  0  0
  -23.6510   18.0690    6.2720 H   0  0  0  0  0  0  0  0  0  0  0  0
  -24.8790   18.4160    5.1620 H   0  0  0  0  0  0  0  0  0  0  0  0
  -22.2930   16.5398    4.6624 H   0  0  0  0  0  0  0  0  0  0  0  0
  -20.1436   15.2832    4.5590 H   0  0  0  0  0  0  0  0  0  0  0  0
  -17.2850   16.0450    5.2620 H   0  0  0  0  0  0  0  0  0  0  0  0
  -14.7247   12.0102    1.7740 H   0  0  0  0  0  0  0  0  0  0  0  0
  -15.8946   12.1862    3.1469 H   0  0  0  0  0  0  0  0  0  0  0  0
  -17.4825   10.7525    1.6864 H   0  0  0  0  0  0  0  0  0  0  0  0
  -16.3804   10.0654    3.8200 H   0  0  0  0  0  0  0  0  0  0  0  0
  -16.6694    8.7075    2.6360 H   0  0  0  0  0  0  0  0  0  0  0  0
  -14.0791    9.9813    3.5053 H   0  0  0  0  0  0  0  0  0  0  0  0
  -14.5784    8.2259    3.4033 H   0  0  0  0  0  0  0  0  0  0  0  0
  -13.3585    9.9897    1.3659 H   0  0  0  0  0  0  0  0  0  0  0  0
  -13.3231    8.1841    1.5769 H   0  0  0  0  0  0  0  0  0  0  0  0
  -14.4296    8.8376   -0.5213 H   0  0  0  0  0  0  0  0  0  0  0  0
  -15.5552    8.0110    0.6339 H   0  0  0  0  0  0  0  0  0  0  0  0
  -15.4259   10.9291   -0.1651 H   0  0  0  0  0  0  0  0  0  0  0  0
  -16.8309    9.7541   -0.1592 H   0  0  0  0  0  0  0  0  0  0  0  0
  -12.8441   16.3397   -0.4051 H   0  0  0  0  0  0  0  0  0  0  0  0
  -13.7910   17.9390    1.4050 H   0  0  0  0  0  0  0  0  0  0  0  0
  -17.9760   19.0113    4.3885 H   0  0  0  0  0  0  0  0  0  0  0  0
  -20.1206   20.2739    4.4902 H   0  0  0  0  0  0  0  0  0  0  0  0
  1  2  1  0
  2  3  2  0
  2  4  2  0
  2  5  1  0
  5  6  2  0
  6  7  1  0
  7  8  2  0
  8  9  1  0
  9 10  1  0
 10 11  2  0
 11 12  1  0
 12 13  1  0
 13 14  1  0
 14 15  1  0
 15 16  1  0
 16 17  1  0
 17 18  1  0
 18 19  1  0
 19 20  1  0
 12 21  2  0
 21 22  1  0
 22 23  2  0
 23 24  1  0
 24 25  1  0
 25 26  2  0
  8 27  1  0
 27 28  2  0
 28  5  1  0
 26 10  1  0
 20 15  1  0
 25 21  1  0
  1 29  1  0
  1 30  1  0
  6 31  1  0
  7 32  1  0
  9 33  1  0
 14 34  1  0
 14 35  1  0
 15 36  1  0
 16 37  1  0
 16 38  1  0
 17 39  1  0
 17 40  1  0
 18 41  1  0
 18 42  1  0
 19 43  1  0
 19 44  1  0
 20 45  1  0
 20 46  1  0
 23 47  1  0
 24 48  1  0
 27 49  1  0
 28 50  1  0
M  END
>  <meeko>  (3) 
{"is_sidechain": [false], "free_energy": -9.145, "intermolecular_energy": -12.866, "internal_energy": -0.685}

$$$$
4eor_ligand
     RDKit          3D

 50 53  0  0  0  0  0  0  0  0999 V2000
  -10.7180   11.1630   -4.5630 N   0  0  0  0  0  0  0  0  0  0  0  0
  -10.8490   12.7550   -5.0980 S   0  0  0  0  0  0  0  0  0  0  0  0
  -11.1530   12.7290   -6.5090 O   0  0  0  0  0  0  0  0  0  0  0  0
   -9.6960   13.4410   -4.5610 O   0  0  0  0  0  0  0  0  0  0  0  0
  -12.2900   13.3030   -4.2220 C   0  0  0  0  0  0  0  0  0  0  0  0
  -13.2610   12.3740   -3.8530 C   0  0  0  0  0  0  0  0  0  0  0  0
  -14.3990   12.8010   -3.1610 C   0  0  0  0  0  0  0  0  0  0  0  0
  -14.5940   14.1500   -2.8410 C   0  0  0  0  0  0  0  0  0  0  0  0
  -15.7000   14.6350   -2.1370 N   0  0  0  0  0  0  0  0  0  0  0  0
  -15.9460   14.9480   -0.8000 C   0  0  0  0  0  0  0  0  0  0  0  0
  -16.3430   13.8860   -0.0630 N   0  0  0  0  0  0  0  0  0  0  0  0
  -16.6180   14.0490    1.2590 C   0  0  0  0  0  0  0  0  0  0  0  0
  -17.0150   12.9750    2.0310 O   0  0  0  0  0  0  0  0  0  0  0  0
  -16.0050   11.9940    2.2770 C   0  0  0  0  0  0  0  0  0  0  0  0
  -16.4920   10.5750    1.9190 C   0  0  0  0  0  0  0  0  0  0  0  0
  -16.2270    9.5950    3.0680 C   0  0  0  0  0  0  0  0  0  0  0  0
  -14.7420    9.2900    3.2690 C   0  0  0  0  0  0  0  0  0  0  0  0
  -13.9550    9.1910    1.9620 C   0  0  0  0  0  0  0  0  0  0  0  0
  -14.8560    8.9520    0.7600 C   0  0  0  0  0  0  0  0  0  0  0  0
  -15.8830   10.0750    0.5920 C   0  0  0  0  0  0  0  0  0  0  0  0
  -16.4880   15.3120    1.8300 C   0  0  0  0  0  0  0  0  0  0  0  0
  -16.6770   15.8220    3.0990 N   0  0  0  0  0  0  0  0  0  0  0  0
  -16.3850   17.1020    2.9980 C   0  0  0  0  0  0  0  0  0  0  0  0
  -16.0190   17.4420    1.7250 N   0  0  0  0  0  0  0  0  0  0  0  0
  -16.0790   16.3100    0.9660 C   0  0  0  0  0  0  0  0  0  0  0  0
  -15.7980   16.2010   -0.3370 N   0  0  0  0  0  0  0  0  0  0  0  0
  -13.6000   15.0660   -3.2350 C   0  0  0  0  0  0  0  0  0  0  0  0
  -12.4570   14.6530   -3.9260 C   0  0  0  0  0  0  0  0  0  0  0  0
  -11.6270   10.8590   -4.2110 H   0  0  0  0  0  0  0  0  0  0  0  0
  -10.3510   10.5300   -5.2720 H   0  0  0  0  0  0  0  0  0  0  0  0
  -13.1332   11.3108   -4.1046 H   0  0  0  0  0  0  0  0  0  0  0  0
  -15.1565   12.0616   -2.8620 H   0  0  0  0  0  0  0  0  0  0  0  0
  -16.5600   14.7470   -2.6550 H   0  0  0  0  0  0  0  0  0  0  0  0
  -15.1204   12.2320    1.6680 H   0  0  0  0  0  0  0  0  0  0  0  0
  -15.7607   12.0134    3.3494 H   0  0  0  0  0  0  0  0  0  0  0  0
  -17.5804   10.6282    1.7691 H   0  0  0  0  0  0  0  0  0  0  0  0
  -16.6234   10.0302    3.9972 H   0  0  0  0  0  0  0  0  0  0  0  0
  -16.7235    8.6477    2.8108 H   0  0  0  0  0  0  0  0  0  0  0  0
  -14.3019   10.0919    3.8800 H   0  0  0  0  0  0  0  0  0  0  0  0
  -14.6780    8.3074    3.7592 H   0  0  0  0  0  0  0  0  0  0  0  0
  -13.4040   10.1307    1.8093 H   0  0  0  0  0  0  0  0  0  0  0  0
  -13.2721    8.3327    2.0456 H   0  0  0  0  0  0  0  0  0  0  0  0
  -14.2349    8.8980   -0.1463 H   0  0  0  0  0  0  0  0  0  0  0  0
  -15.4004    8.0097    0.9206 H   0  0  0  0  0  0  0  0  0  0  0  0
  -15.3888   10.9240    0.0971 H   0  0  0  0  0  0  0  0  0  0  0  0
  -16.7116    9.6612   -0.0015 H   0  0  0  0  0  0  0  0  0  0  0  0
  -16.4301   17.8123    3.8367 H   0  0  0  0  0  0  0  0  0  0  0  0
  -15.7470   18.3550    1.3940 H   0  0  0  0  0  0  0  0  0  0  0  0
  -13.7257   16.1318   -2.9934 H   0  0  0  0  0  0  0  0  0  0  0  0
  -11.6974   15.3872   -4.2326 H   0  0  0  0  0  0  0  0  0  0  0  0
  1  2  1  0
  2  3  2  0
  2  4  2  0
  2  5  1  0
  5  6  2  0
  6  7  1  0
  7  8  2  0
  8  9  1  0
  9 10  1  0
 10 11  2  0
 11 12  1  0
 12 13  1  0
 13 14  1  0
 14 15  1  0
 15 16  1  0
 16 17  1  0
 17 18  1  0
 18 19  1  0
 19 20  1  0
 12 21  2  0
 21 22  1  0
 22 23  2  0
 23 24  1  0
 24 25  1  0
 25 26  2  0
  8 27  1  0
 27 28  2  0
 28  5  1  0
 26 10  1  0
 20 15  1  0
 25 21  1  0
  1 29  1  0
  1 30  1  0
  6 31  1  0
  7 32  1  0
  9 33  1  0
 14 34  1  0
 14 35  1  0
 15 36  1  0
 16 37  1  0
 16 38  1  0
 17 39  1  0
 17 40  1  0
 18 41  1  0
 18 42  1  0
 19 43  1  0
 19 44  1  0
 20 45  1  0
 20 46  1  0
 23 47  1  0
 24 48  1  0
 27 49  1  0
 28 50  1  0
M  END
>  <meeko>  (4) 
{"is_sidechain": [false], "free_energy": -8.761, "intermolecular_energy": -12.128, "internal_energy": -0.893}

$$$$
4eor_ligand
     RDKit          3D

 50 53  0  0  0  0  0  0  0  0999 V2000
  -10.8070   13.1760   -6.7410 N   0  0  0  0  0  0  0  0  0  0  0  0
  -10.4420   12.6740   -5.1750 S   0  0  0  0  0  0  0  0  0  0  0  0
   -9.3390   13.4720   -4.6950 O   0  0  0  0  0  0  0  0  0  0  0  0
  -10.3920   11.2310   -5.2330 O   0  0  0  0  0  0  0  0  0  0  0  0
  -11.9070   13.1540   -4.3010 C   0  0  0  0  0  0  0  0  0  0  0  0
  -12.9020   12.2080   -4.0620 C   0  0  0  0  0  0  0  0  0  0  0  0
  -14.0600   12.5830   -3.3710 C   0  0  0  0  0  0  0  0  0  0  0  0
  -14.2500   13.8960   -2.9250 C   0  0  0  0  0  0  0  0  0  0  0  0
  -15.3750   14.3260   -2.2150 N   0  0  0  0  0  0  0  0  0  0  0  0
  -15.7880   14.2270   -0.8870 C   0  0  0  0  0  0  0  0  0  0  0  0
  -14.9980   13.4290   -0.1340 N   0  0  0  0  0  0  0  0  0  0  0  0
  -15.2860   13.2430    1.1810 C   0  0  0  0  0  0  0  0  0  0  0  0
  -14.4850   12.4400    1.9680 O   0  0  0  0  0  0  0  0  0  0  0  0
  -13.7120   11.4680    1.2620 C   0  0  0  0  0  0  0  0  0  0  0  0
  -13.9810   10.0410    1.7810 C   0  0  0  0  0  0  0  0  0  0  0  0
  -14.5970    9.1620    0.6860 C   0  0  0  0  0  0  0  0  0  0  0  0
  -16.0310    9.5570    0.3320 C   0  0  0  0  0  0  0  0  0  0  0  0
  -16.8600    9.9970    1.5390 C   0  0  0  0  0  0  0  0  0  0  0  0
  -16.2670    9.5180    2.8550 C   0  0  0  0  0  0  0  0  0  0  0  0
  -14.8460   10.0480    3.0600 C   0  0  0  0  0  0  0  0  0  0  0  0
  -16.3970   13.8780    1.7310 C   0  0  0  0  0  0  0  0  0  0  0  0
  -16.9650   13.9130    2.9890 N   0  0  0  0  0  0  0  0  0  0  0  0
  -18.0100   14.7040    2.8680 C   0  0  0  0  0  0  0  0  0  0  0  0
  -18.1440   15.1790    1.5930 N   0  0  0  0  0  0  0  0  0  0  0  0
  -17.1210   14.6610    0.8530 C   0  0  0  0  0  0  0  0  0  0  0  0
  -16.8800   14.8750   -0.4450 N   0  0  0  0  0  0  0  0  0  0  0  0
  -13.2310   14.8300   -3.1890 C   0  0  0  0  0  0  0  0  0  0  0  0
  -12.0680   14.4700   -3.8770 C   0  0  0  0  0  0  0  0  0  0  0  0
  -10.6080   12.4090   -7.3870 H   0  0  0  0  0  0  0  0  0  0  0  0
  -11.7590   13.5220   -6.8410 H   0  0  0  0  0  0  0  0  0  0  0  0
  -12.7781   11.1733   -4.4141 H   0  0  0  0  0  0  0  0  0  0  0  0
  -14.8372   11.8298   -3.1743 H   0  0  0  0  0  0  0  0  0  0  0  0
  -16.1150   14.7610   -2.7480 H   0  0  0  0  0  0  0  0  0  0  0  0
  -13.9707   11.5138    0.1938 H   0  0  0  0  0  0  0  0  0  0  0  0
  -12.6474   11.6957    1.4191 H   0  0  0  0  0  0  0  0  0  0  0  0
  -13.0105    9.6015    2.0550 H   0  0  0  0  0  0  0  0  0  0  0  0
  -13.9777    9.2459   -0.2192 H   0  0  0  0  0  0  0  0  0  0  0  0
  -14.6274    8.1324    1.0720 H   0  0  0  0  0  0  0  0  0  0  0  0
  -15.9953   10.3886   -0.3872 H   0  0  0  0  0  0  0  0  0  0  0  0
  -16.5181    8.6635   -0.0857 H   0  0  0  0  0  0  0  0  0  0  0  0
  -16.9086   11.0958    1.5526 H   0  0  0  0  0  0  0  0  0  0  0  0
  -17.8604    9.5506    1.4396 H   0  0  0  0  0  0  0  0  0  0  0  0
  -16.9018    9.8701    3.6815 H   0  0  0  0  0  0  0  0  0  0  0  0
  -16.2239    8.4191    2.8326 H   0  0  0  0  0  0  0  0  0  0  0  0
  -14.9127   11.0830    3.4265 H   0  0  0  0  0  0  0  0  0  0  0  0
  -14.3562    9.3742    3.7784 H   0  0  0  0  0  0  0  0  0  0  0  0
  -18.6933   14.9529    3.6933 H   0  0  0  0  0  0  0  0  0  0  0  0
  -18.8600   15.8020    1.2480 H   0  0  0  0  0  0  0  0  0  0  0  0
  -13.3522   15.8681   -2.8460 H   0  0  0  0  0  0  0  0  0  0  0  0
  -11.2886   15.2189   -4.0810 H   0  0  0  0  0  0  0  0  0  0  0  0
  1  2  1  0
  2  3  2  0
  2  4  2  0
  2  5  1  0
  5  6  2  0
  6  7  1  0
  7  8  2  0
  8  9  1  0
  9 10  1  0
 10 11  2  0
 11 12  1  0
 12 13  1  0
 13 14  1  0
 14 15  1  0
 15 16  1  0
 16 17  1  0
 17 18  1  0
 18 19  1  0
 19 20  1  0
 12 21  2  0
 21 22  1  0
 22 23  2  0
 23 24  1  0
 24 25  1  0
 25 26  2  0
  8 27  1  0
 27 28  2  0
 28  5  1  0
 26 10  1  0
 20 15  1  0
 25 21  1  0
  1 29  1  0
  1 30  1  0
  6 31  1  0
  7 32  1  0
  9 33  1  0
 14 34  1  0
 14 35  1  0
 15 36  1  0
 16 37  1  0
 16 38  1  0
 17 39  1  0
 17 40  1  0
 18 41  1  0
 18 42  1  0
 19 43  1  0
 19 44  1  0
 20 45  1  0
 20 46  1  0
 23 47  1  0
 24 48  1  0
 27 49  1  0
 28 50  1  0
M  END
>  <meeko>  (5) 
{"is_sidechain": [false], "free_energy": -8.72, "intermolecular_energy": -11.936, "internal_energy": -1.028}

$$$$
4eor_ligand
     RDKit          3D

 50 53  0  0  0  0  0  0  0  0999 V2000
  -10.4780   15.4310   -2.2680 N   0  0  0  0  0  0  0  0  0  0  0  0
  -11.5520   15.4020   -3.5650 S   0  0  0  0  0  0  0  0  0  0  0  0
  -11.2710   14.2260   -4.3530 O   0  0  0  0  0  0  0  0  0  0  0  0
  -11.5250   16.7360   -4.1210 O   0  0  0  0  0  0  0  0  0  0  0  0
  -13.1000   15.1670   -2.7360 C   0  0  0  0  0  0  0  0  0  0  0  0
  -14.1500   16.0500   -2.9820 C   0  0  0  0  0  0  0  0  0  0  0  0
  -15.3750   15.8680   -2.3300 C   0  0  0  0  0  0  0  0  0  0  0  0
  -15.5670   14.8220   -1.4190 C   0  0  0  0  0  0  0  0  0  0  0  0
  -16.7700   14.5780   -0.7510 N   0  0  0  0  0  0  0  0  0  0  0  0
  -17.1430   14.4950    0.5900 C   0  0  0  0  0  0  0  0  0  0  0  0
  -16.9610   13.2670    1.1250 N   0  0  0  0  0  0  0  0  0  0  0  0
  -17.2840   13.0440    2.4260 C   0  0  0  0  0  0  0  0  0  0  0  0
  -17.0960   11.7990    2.9930 O   0  0  0  0  0  0  0  0  0  0  0  0
  -16.3810   10.8620    2.1860 C   0  0  0  0  0  0  0  0  0  0  0  0
  -14.9440   10.6460    2.7020 C   0  0  0  0  0  0  0  0  0  0  0  0
  -13.9130   11.2170    1.7210 C   0  0  0  0  0  0  0  0  0  0  0  0
  -13.8170   10.4200    0.4190 C   0  0  0  0  0  0  0  0  0  0  0  0
  -13.9570    8.9100    0.6130 C   0  0  0  0  0  0  0  0  0  0  0  0
  -13.6980    8.4840    2.0500 C   0  0  0  0  0  0  0  0  0  0  0  0
  -14.6650    9.1620    3.0240 C   0  0  0  0  0  0  0  0  0  0  0  0
  -17.8010   14.0890    3.1880 C   0  0  0  0  0  0  0  0  0  0  0  0
  -18.2220   14.2150    4.4960 N   0  0  0  0  0  0  0  0  0  0  0  0
  -18.6050   15.4690    4.6120 C   0  0  0  0  0  0  0  0  0  0  0  0
  -18.4530   16.1570    3.4410 N   0  0  0  0  0  0  0  0  0  0  0  0
  -17.9410   15.2910    2.5200 C   0  0  0  0  0  0  0  0  0  0  0  0
  -17.6390   15.5590    1.2450 N   0  0  0  0  0  0  0  0  0  0  0  0
  -14.4850   13.9530   -1.1840 C   0  0  0  0  0  0  0  0  0  0  0  0
  -13.2560   14.1210   -1.8300 C   0  0  0  0  0  0  0  0  0  0  0  0
   -9.9290   16.2910   -2.3150 H   0  0  0  0  0  0  0  0  0  0  0  0
  -10.9350   15.3180   -1.3650 H   0  0  0  0  0  0  0  0  0  0  0  0
  -14.0166   16.8855   -3.6849 H   0  0  0  0  0  0  0  0  0  0  0  0
  -16.2039   16.5608   -2.5374 H   0  0  0  0  0  0  0  0  0  0  0  0
  -17.5720   14.3470   -1.3200 H   0  0  0  0  0  0  0  0  0  0  0  0
  -16.9135    9.8996    2.2003 H   0  0  0  0  0  0  0  0  0  0  0  0
  -16.3219   11.2641    1.1638 H   0  0  0  0  0  0  0  0  0  0  0  0
  -14.8467   11.1999    3.6474 H   0  0  0  0  0  0  0  0  0  0  0  0
  -14.1968   12.2516    1.4779 H   0  0  0  0  0  0  0  0  0  0  0  0
  -12.9297   11.1636    2.2111 H   0  0  0  0  0  0  0  0  0  0  0  0
  -14.6165   10.7593   -0.2560 H   0  0  0  0  0  0  0  0  0  0  0  0
  -12.8142   10.6000    0.0042 H   0  0  0  0  0  0  0  0  0  0  0  0
  -14.9783    8.6112    0.3345 H   0  0  0  0  0  0  0  0  0  0  0  0
  -13.2060    8.4189   -0.0232 H   0  0  0  0  0  0  0  0  0  0  0  0
  -13.8211    7.3936    2.1264 H   0  0  0  0  0  0  0  0  0  0  0  0
  -12.6743    8.7846    2.3178 H   0  0  0  0  0  0  0  0  0  0  0  0
  -15.6202    8.6171    2.9984 H   0  0  0  0  0  0  0  0  0  0  0  0
  -14.1885    9.1358    4.0151 H   0  0  0  0  0  0  0  0  0  0  0  0
  -18.9997   15.9098    5.5393 H   0  0  0  0  0  0  0  0  0  0  0  0
  -18.6710   17.1280    3.2730 H   0  0  0  0  0  0  0  0  0  0  0  0
  -14.6091   13.1213   -0.4748 H   0  0  0  0  0  0  0  0  0  0  0  0
  -12.4216   13.4343   -1.6247 H   0  0  0  0  0  0  0  0  0  0  0  0
  1  2  1  0
  2  3  2  0
  2  4  2  0
  2  5  1  0
  5  6  2  0
  6  7  1  0
  7  8  2  0
  8  9  1  0
  9 10  1  0
 10 11  2  0
 11 12  1  0
 12 13  1  0
 13 14  1  0
 14 15  1  0
 15 16  1  0
 16 17  1  0
 17 18  1  0
 18 19  1  0
 19 20  1  0
 12 21  2  0
 21 22  1  0
 22 23  2  0
 23 24  1  0
 24 25  1  0
 25 26  2  0
  8 27  1  0
 27 28  2  0
 28  5  1  0
 26 10  1  0
 20 15  1  0
 25 21  1  0
  1 29  1  0
  1 30  1  0
  6 31  1  0
  7 32  1  0
  9 33  1  0
 14 34  1  0
 14 35  1  0
 15 36  1  0
 16 37  1  0
 16 38  1  0
 17 39  1  0
 17 40  1  0
 18 41  1  0
 18 42  1  0
 19 43  1  0
 19 44  1  0
 20 45  1  0
 20 46  1  0
 23 47  1  0
 24 48  1  0
 27 49  1  0
 28 50  1  0
M  END
>  <meeko>  (6) 
{"is_sidechain": [false], "free_energy": -8.564, "intermolecular_energy": -11.72, "internal_energy": -1.029}

$$$$
4eor_ligand
     RDKit          3D

 50 53  0  0  0  0  0  0  0  0999 V2000
  -10.2300   15.0470   -3.0510 N   0  0  0  0  0  0  0  0  0  0  0  0
  -11.8570   15.1440   -3.4770 S   0  0  0  0  0  0  0  0  0  0  0  0
  -12.2920   13.8290   -3.8820 O   0  0  0  0  0  0  0  0  0  0  0  0
  -11.9630   16.2990   -4.3370 O   0  0  0  0  0  0  0  0  0  0  0  0
  -12.6060   15.5300   -1.9180 C   0  0  0  0  0  0  0  0  0  0  0  0
  -12.7980   14.5160   -0.9810 C   0  0  0  0  0  0  0  0  0  0  0  0
  -13.3890   14.8170    0.2520 C   0  0  0  0  0  0  0  0  0  0  0  0
  -13.8080   16.1160    0.5620 C   0  0  0  0  0  0  0  0  0  0  0  0
  -14.3870   16.4800    1.7810 N   0  0  0  0  0  0  0  0  0  0  0  0
  -15.5650   16.1360    2.4430 C   0  0  0  0  0  0  0  0  0  0  0  0
  -15.9190   14.8420    2.2760 N   0  0  0  0  0  0  0  0  0  0  0  0
  -17.0490   14.3700    2.8670 C   0  0  0  0  0  0  0  0  0  0  0  0
  -17.4210   13.0490    2.7180 O   0  0  0  0  0  0  0  0  0  0  0  0
  -16.3430   12.1260    2.5510 C   0  0  0  0  0  0  0  0  0  0  0  0
  -16.8530   10.7140    2.1990 C   0  0  0  0  0  0  0  0  0  0  0  0
  -16.4390    9.6950    3.2680 C   0  0  0  0  0  0  0  0  0  0  0  0
  -14.9380    9.4070    3.2770 C   0  0  0  0  0  0  0  0  0  0  0  0
  -14.3130    9.3720    1.8820 C   0  0  0  0  0  0  0  0  0  0  0  0
  -15.3490    9.1640    0.7880 C   0  0  0  0  0  0  0  0  0  0  0  0
  -16.4020   10.2750    0.7890 C   0  0  0  0  0  0  0  0  0  0  0  0
  -17.8260   15.2340    3.6360 C   0  0  0  0  0  0  0  0  0  0  0  0
  -18.9950   15.0980    4.3570 N   0  0  0  0  0  0  0  0  0  0  0  0
  -19.2200   16.2900    4.8680 C   0  0  0  0  0  0  0  0  0  0  0  0
  -18.2530   17.1880    4.5100 N   0  0  0  0  0  0  0  0  0  0  0  0
  -17.3550   16.5300    3.7220 C   0  0  0  0  0  0  0  0  0  0  0  0
  -16.2540   17.0410    3.1600 N   0  0  0  0  0  0  0  0  0  0  0  0
  -13.6090   17.1160   -0.4080 C   0  0  0  0  0  0  0  0  0  0  0  0
  -13.0190   16.8310   -1.6440 C   0  0  0  0  0  0  0  0  0  0  0  0
  -10.1180   15.3970   -2.0970 H   0  0  0  0  0  0  0  0  0  0  0  0
   -9.8400   14.1130   -3.1620 H   0  0  0  0  0  0  0  0  0  0  0  0
  -12.4871   13.4858   -1.2089 H   0  0  0  0  0  0  0  0  0  0  0  0
  -13.5270   14.0156    0.9928 H   0  0  0  0  0  0  0  0  0  0  0  0
  -13.9170   17.1960    2.3170 H   0  0  0  0  0  0  0  0  0  0  0  0
  -15.6906   12.4822    1.7401 H   0  0  0  0  0  0  0  0  0  0  0  0
  -15.7920   12.0655    3.5011 H   0  0  0  0  0  0  0  0  0  0  0  0
  -17.9522   10.7546    2.1841 H   0  0  0  0  0  0  0  0  0  0  0  0
  -16.7254   10.0878    4.2548 H   0  0  0  0  0  0  0  0  0  0  0  0
  -16.9514    8.7501    3.0344 H   0  0  0  0  0  0  0  0  0  0  0  0
  -14.4369   10.1915    3.8630 H   0  0  0  0  0  0  0  0  0  0  0  0
  -14.8040    8.4072    3.7156 H   0  0  0  0  0  0  0  0  0  0  0  0
  -13.7961   10.3262    1.7024 H   0  0  0  0  0  0  0  0  0  0  0  0
  -13.6145    8.5229    1.8485 H   0  0  0  0  0  0  0  0  0  0  0  0
  -14.8408    9.1550   -0.1875 H   0  0  0  0  0  0  0  0  0  0  0  0
  -15.8587    8.2073    0.9749 H   0  0  0  0  0  0  0  0  0  0  0  0
  -15.9812   11.1504    0.2726 H   0  0  0  0  0  0  0  0  0  0  0  0
  -17.2909    9.8703    0.2830 H   0  0  0  0  0  0  0  0  0  0  0  0
  -20.0820   16.5343    5.5061 H   0  0  0  0  0  0  0  0  0  0  0  0
  -18.1990   18.1610    4.7740 H   0  0  0  0  0  0  0  0  0  0  0  0
  -13.9250   18.1466   -0.1890 H   0  0  0  0  0  0  0  0  0  0  0  0
  -12.8828   17.6264   -2.3915 H   0  0  0  0  0  0  0  0  0  0  0  0
  1  2  1  0
  2  3  2  0
  2  4  2  0
  2  5  1  0
  5  6  2  0
  6  7  1  0
  7  8  2  0
  8  9  1  0
  9 10  1  0
 10 11  2  0
 11 12  1  0
 12 13  1  0
 13 14  1  0
 14 15  1  0
 15 16  1  0
 16 17  1  0
 17 18  1  0
 18 19  1  0
 19 20  1  0
 12 21  2  0
 21 22  1  0
 22 23  2  0
 23 24  1  0
 24 25  1  0
 25 26  2  0
  8 27  1  0
 27 28  2  0
 28  5  1  0
 26 10  1  0
 20 15  1  0
 25 21  1  0
  1 29  1  0
  1 30  1  0
  6 31  1  0
  7 32  1  0
  9 33  1  0
 14 34  1  0
 14 35  1  0
 15 36  1  0
 16 37  1  0
 16 38  1  0
 17 39  1  0
 17 40  1  0
 18 41  1  0
 18 42  1  0
 19 43  1  0
 19 44  1  0
 20 45  1  0
 20 46  1  0
 23 47  1  0
 24 48  1  0
 27 49  1  0
 28 50  1  0
M  END
>  <meeko>  (7) 
{"is_sidechain": [false], "free_energy": -8.529, "intermolecular_energy": -12.136, "internal_energy": -0.564}

$$$$
4eor_ligand
     RDKit          3D

 50 53  0  0  0  0  0  0  0  0999 V2000
  -15.0350   19.0950   -4.3070 N   0  0  0  0  0  0  0  0  0  0  0  0
  -13.6130   18.7800   -3.4610 S   0  0  0  0  0  0  0  0  0  0  0  0
  -12.9040   20.0270   -3.2980 O   0  0  0  0  0  0  0  0  0  0  0  0
  -13.0250   17.6290   -4.1060 O   0  0  0  0  0  0  0  0  0  0  0  0
  -14.2450   18.2810   -1.8830 C   0  0  0  0  0  0  0  0  0  0  0  0
  -13.3550   17.9590   -0.8600 C   0  0  0  0  0  0  0  0  0  0  0  0
  -13.8500   17.5660    0.3890 C   0  0  0  0  0  0  0  0  0  0  0  0
  -15.2260   17.4740    0.6320 C   0  0  0  0  0  0  0  0  0  0  0  0
  -15.7790   17.1050    1.8610 N   0  0  0  0  0  0  0  0  0  0  0  0
  -16.3960   15.9520    2.3470 C   0  0  0  0  0  0  0  0  0  0  0  0
  -16.2900   14.8920    1.5140 N   0  0  0  0  0  0  0  0  0  0  0  0
  -16.8470   13.7020    1.8640 C   0  0  0  0  0  0  0  0  0  0  0  0
  -16.7410   12.6060    1.0320 O   0  0  0  0  0  0  0  0  0  0  0  0
  -15.5220   11.8680    1.1460 C   0  0  0  0  0  0  0  0  0  0  0  0
  -15.7420   10.3620    0.8980 C   0  0  0  0  0  0  0  0  0  0  0  0
  -16.6420    9.7510    1.9790 C   0  0  0  0  0  0  0  0  0  0  0  0
  -15.9650    9.6670    3.3480 C   0  0  0  0  0  0  0  0  0  0  0  0
  -14.4800    9.3120    3.2760 C   0  0  0  0  0  0  0  0  0  0  0  0
  -14.1000    8.6740    1.9490 C   0  0  0  0  0  0  0  0  0  0  0  0
  -14.4070    9.5990    0.7680 C   0  0  0  0  0  0  0  0  0  0  0  0
  -17.5220   13.5980    3.0780 C   0  0  0  0  0  0  0  0  0  0  0  0
  -18.1840   12.5770    3.7300 N   0  0  0  0  0  0  0  0  0  0  0  0
  -18.6100   13.1110    4.8550 C   0  0  0  0  0  0  0  0  0  0  0  0
  -18.2560   14.4280    4.9590 N   0  0  0  0  0  0  0  0  0  0  0  0
  -17.5600   14.7550    3.8320 C   0  0  0  0  0  0  0  0  0  0  0  0
  -17.0300   15.9460    3.5320 N   0  0  0  0  0  0  0  0  0  0  0  0
  -16.0990   17.7970   -0.4240 C   0  0  0  0  0  0  0  0  0  0  0  0
  -15.6190   18.1930   -1.6760 C   0  0  0  0  0  0  0  0  0  0  0  0
  -14.8520   19.8270   -4.9960 H   0  0  0  0  0  0  0  0  0  0  0  0
  -15.4420   18.2640   -4.7330 H   0  0  0  0  0  0  0  0  0  0  0  0
  -12.2701   18.0134   -1.0330 H   0  0  0  0  0  0  0  0  0  0  0  0
  -13.1433   17.3244    1.1965 H   0  0  0  0  0  0  0  0  0  0  0  0
  -15.8210   17.8150    2.5780 H   0  0  0  0  0  0  0  0  0  0  0  0
  -14.8034   12.2500    0.4059 H   0  0  0  0  0  0  0  0  0  0  0  0
  -15.1387   11.9947    2.1692 H   0  0  0  0  0  0  0  0  0  0  0  0
  -16.2613   10.2587   -0.0662 H   0  0  0  0  0  0  0  0  0  0  0  0
  -17.5459   10.3708    2.0731 H   0  0  0  0  0  0  0  0  0  0  0  0
  -16.8775    8.7230    1.6665 H   0  0  0  0  0  0  0  0  0  0  0  0
  -16.0655   10.6426    3.8460 H   0  0  0  0  0  0  0  0  0  0  0  0
  -16.4629    8.8595    3.9049 H   0  0  0  0  0  0  0  0  0  0  0  0
  -13.8903   10.2312    3.4077 H   0  0  0  0  0  0  0  0  0  0  0  0
  -14.2709    8.5814    4.0714 H   0  0  0  0  0  0  0  0  0  0  0  0
  -13.0230    8.4505    1.9563 H   0  0  0  0  0  0  0  0  0  0  0  0
  -14.6923    7.7550    1.8280 H   0  0  0  0  0  0  0  0  0  0  0  0
  -13.5943   10.3357    0.6854 H   0  0  0  0  0  0  0  0  0  0  0  0
  -14.4917    8.9596   -0.1230 H   0  0  0  0  0  0  0  0  0  0  0  0
  -19.1817   12.5641    5.6193 H   0  0  0  0  0  0  0  0  0  0  0  0
  -18.4610   15.0550    5.7230 H   0  0  0  0  0  0  0  0  0  0  0  0
  -17.1850   17.7364   -0.2602 H   0  0  0  0  0  0  0  0  0  0  0  0
  -16.3198   18.4326   -2.4893 H   0  0  0  0  0  0  0  0  0  0  0  0
  1  2  1  0
  2  3  2  0
  2  4  2  0
  2  5  1  0
  5  6  2  0
  6  7  1  0
  7  8  2  0
  8  9  1  0
  9 10  1  0
 10 11  2  0
 11 12  1  0
 12 13  1  0
 13 14  1  0
 14 15  1  0
 15 16  1  0
 16 17  1  0
 17 18  1  0
 18 19  1  0
 19 20  1  0
 12 21  2  0
 21 22  1  0
 22 23  2  0
 23 24  1  0
 24 25  1  0
 25 26  2  0
  8 27  1  0
 27 28  2  0
 28  5  1  0
 26 10  1  0
 20 15  1  0
 25 21  1  0
  1 29  1  0
  1 30  1  0
  6 31  1  0
  7 32  1  0
  9 33  1  0
 14 34  1  0
 14 35  1  0
 15 36  1  0
 16 37  1  0
 16 38  1  0
 17 39  1  0
 17 40  1  0
 18 41  1  0
 18 42  1  0
 19 43  1  0
 19 44  1  0
 20 45  1  0
 20 46  1  0
 23 47  1  0
 24 48  1  0
 27 49  1  0
 28 50  1  0
M  END
>  <meeko>  (8) 
{"is_sidechain": [false], "free_energy": -8.48, "intermolecular_energy": -11.787, "internal_energy": -0.846}

$$$$
4eor_ligand
     RDKit          3D

 50 53  0  0  0  0  0  0  0  0999 V2000
  -10.1930   15.1750   -2.5520 N   0  0  0  0  0  0  0  0  0  0  0  0
  -11.3540   15.2310   -3.7710 S   0  0  0  0  0  0  0  0  0  0  0  0
  -11.3720   13.9470   -4.4310 O   0  0  0  0  0  0  0  0  0  0  0  0
  -11.1140   16.4670   -4.4780 O   0  0  0  0  0  0  0  0  0  0  0  0
  -12.8460   15.4000   -2.8290 C   0  0  0  0  0  0  0  0  0  0  0  0
  -12.8020   16.0180   -1.5810 C   0  0  0  0  0  0  0  0  0  0  0  0
  -13.9780   16.1540   -0.8340 C   0  0  0  0  0  0  0  0  0  0  0  0
  -15.2020   15.6680   -1.3080 C   0  0  0  0  0  0  0  0  0  0  0  0
  -16.4110   15.7900   -0.6170 N   0  0  0  0  0  0  0  0  0  0  0  0
  -16.8670   15.3740    0.6340 C   0  0  0  0  0  0  0  0  0  0  0  0
  -16.3320   14.2000    1.0400 N   0  0  0  0  0  0  0  0  0  0  0  0
  -16.6900   13.6760    2.2420 C   0  0  0  0  0  0  0  0  0  0  0  0
  -16.1470   12.4850    2.6790 O   0  0  0  0  0  0  0  0  0  0  0  0
  -15.2200   11.8710    1.7810 C   0  0  0  0  0  0  0  0  0  0  0  0
  -15.7230   10.4950    1.2980 C   0  0  0  0  0  0  0  0  0  0  0  0
  -16.2510    9.6580    2.4690 C   0  0  0  0  0  0  0  0  0  0  0  0
  -15.1480    9.1850    3.4170 C   0  0  0  0  0  0  0  0  0  0  0  0
  -13.8510    8.8000    2.7040 C   0  0  0  0  0  0  0  0  0  0  0  0
  -14.0650    8.5200    1.2240 C   0  0  0  0  0  0  0  0  0  0  0  0
  -14.6420    9.7370    0.4970 C   0  0  0  0  0  0  0  0  0  0  0  0
  -17.6070   14.3610    3.0360 C   0  0  0  0  0  0  0  0  0  0  0  0
  -18.1750   14.1300    4.2730 N   0  0  0  0  0  0  0  0  0  0  0  0
  -18.9730   15.1570    4.4790 C   0  0  0  0  0  0  0  0  0  0  0  0
  -18.9470   16.0390    3.4330 N   0  0  0  0  0  0  0  0  0  0  0  0
  -18.0790   15.5450    2.5030 C   0  0  0  0  0  0  0  0  0  0  0  0
  -17.7600   16.1000    1.3290 N   0  0  0  0  0  0  0  0  0  0  0  0
  -15.2130   15.0400   -2.5670 C   0  0  0  0  0  0  0  0  0  0  0  0
  -14.0470   14.8980   -3.3250 C   0  0  0  0  0  0  0  0  0  0  0  0
  -10.6280   15.4570   -1.6710 H   0  0  0  0  0  0  0  0  0  0  0  0
   -9.7320   14.2700   -2.4770 H   0  0  0  0  0  0  0  0  0  0  0  0
  -11.8483   16.3970   -1.1849 H   0  0  0  0  0  0  0  0  0  0  0  0
  -13.9394   16.6530    0.1455 H   0  0  0  0  0  0  0  0  0  0  0  0
  -17.1810   16.2160   -1.1120 H   0  0  0  0  0  0  0  0  0  0  0  0
  -15.0807   12.5264    0.9086 H   0  0  0  0  0  0  0  0  0  0  0  0
  -14.2705   11.7216    2.3160 H   0  0  0  0  0  0  0  0  0  0  0  0
  -16.5628   10.6734    0.6103 H   0  0  0  0  0  0  0  0  0  0  0  0
  -16.9655   10.2683    3.0408 H   0  0  0  0  0  0  0  0  0  0  0  0
  -16.7228    8.7604    2.0427 H   0  0  0  0  0  0  0  0  0  0  0  0
  -14.9273    9.9965    4.1261 H   0  0  0  0  0  0  0  0  0  0  0  0
  -15.5207    8.2801    3.9193 H   0  0  0  0  0  0  0  0  0  0  0  0
  -13.1323    9.6264    2.8071 H   0  0  0  0  0  0  0  0  0  0  0  0
  -13.4732    7.8775    3.1691 H   0  0  0  0  0  0  0  0  0  0  0  0
  -13.0995    8.2563    0.7675 H   0  0  0  0  0  0  0  0  0  0  0  0
  -14.7832    7.6920    1.1313 H   0  0  0  0  0  0  0  0  0  0  0  0
  -13.8185   10.4340    0.2826 H   0  0  0  0  0  0  0  0  0  0  0  0
  -15.1281    9.3609   -0.4153 H   0  0  0  0  0  0  0  0  0  0  0  0
  -19.5863   15.2899    5.3825 H   0  0  0  0  0  0  0  0  0  0  0  0
  -19.4650   16.9010    3.3520 H   0  0  0  0  0  0  0  0  0  0  0  0
  -16.1622   14.6513   -2.9645 H   0  0  0  0  0  0  0  0  0  0  0  0
  -14.0776   14.3951   -4.3028 H   0  0  0  0  0  0  0  0  0  0  0  0
  1  2  1  0
  2  3  2  0
  2  4  2  0
  2  5  1  0
  5  6  2  0
  6  7  1  0
  7  8  2  0
  8  9  1  0
  9 10  1  0
 10 11  2  0
 11 12  1  0
 12 13  1  0
 13 14  1  0
 14 15  1  0
 15 16  1  0
 16 17  1  0
 17 18  1  0
 18 19  1  0
 19 20  1  0
 12 21  2  0
 21 22  1  0
 22 23  2  0
 23 24  1  0
 24 25  1  0
 25 26  2  0
  8 27  1  0
 27 28  2  0
 28  5  1  0
 26 10  1  0
 20 15  1  0
 25 21  1  0
  1 29  1  0
  1 30  1  0
  6 31  1  0
  7 32  1  0
  9 33  1  0
 14 34  1  0
 14 35  1  0
 15 36  1  0
 16 37  1  0
 16 38  1  0
 17 39  1  0
 17 40  1  0
 18 41  1  0
 18 42  1  0
 19 43  1  0
 19 44  1  0
 20 45  1  0
 20 46  1  0
 23 47  1  0
 24 48  1  0
 27 49  1  0
 28 50  1  0
M  END
>  <meeko>  (9) 
{"is_sidechain": [false], "free_energy": -8.23, "intermolecular_energy": -11.461, "internal_energy": -0.827}

$$$$
