1bzc_ligand
     RDKit          3D

 43 44  0  0  0  0  0  0  0  0999 V2000
   16.6180    5.1050  -13.4270 N   0  0  0  0  0  0  0  0  0  0  0  0
   16.0070    3.8730  -13.4640 C   0  0  0  0  0  0  0  0  0  0  0  0
   15.6230    3.4560  -14.5540 O   0  0  0  0  0  0  0  0  0  0  0  0
   15.7860    3.1890  -12.0910 C   0  0  2  0  0  0  0  0  0  0  0  0
   16.2100    1.7060  -12.0390 C   0  0  0  0  0  0  0  0  0  0  0  0
   15.2490    0.6780  -12.6360 C   0  0  0  0  0  0  0  0  0  0  0  0
   15.8060   -0.4210  -13.5400 C   0  0  0  0  0  0  0  0  0  0  0  0
   16.5690   -0.0420  -14.4680 O   0  0  0  0  0  0  0  0  0  0  0  0
   15.4220   -1.5830  -13.2250 O   0  0  0  0  0  0  0  0  0  0  0  0
   14.4280    3.3630  -11.6040 N   0  0  0  0  0  0  0  0  0  0  0  0
   14.0110    4.5400  -11.0250 C   0  0  0  0  0  0  0  0  0  0  0  0
   14.7840    5.4830  -10.8430 O   0  0  0  0  0  0  0  0  0  0  0  0
   12.5870    4.6580  -10.5700 C   0  0  0  0  0  0  0  0  0  0  0  0
   12.2860    4.2170   -9.2740 C   0  0  0  0  0  0  0  0  0  0  0  0
   10.9740    4.2450   -8.7900 C   0  0  0  0  0  0  0  0  0  0  0  0
    9.9270    4.7150   -9.5930 C   0  0  0  0  0  0  0  0  0  0  0  0
    8.6010    4.7310   -9.1190 C   0  0  0  0  0  0  0  0  0  0  0  0
    7.5480    5.1920   -9.9170 C   0  0  0  0  0  0  0  0  0  0  0  0
    6.1100    5.2320   -9.4360 C   0  0  0  0  0  0  0  0  0  0  0  0
    5.2120    4.8930  -10.4170 F   0  0  0  0  0  0  0  0  0  0  0  0
    5.8740    4.3620   -8.4000 F   0  0  0  0  0  0  0  0  0  0  0  0
    5.3190    6.9120   -8.7290 P   0  0  0  0  0  0  0  0  0  0  0  0
    4.6710    6.5160   -7.3930 O   0  0  0  0  0  0  0  0  0  0  0  0
    4.2880    7.3380   -9.7840 O   0  0  0  0  0  0  0  0  0  0  0  0
    6.4830    7.9030   -8.5750 O   0  0  0  0  0  0  0  0  0  0  0  0
    7.8480    5.6520  -11.2090 C   0  0  0  0  0  0  0  0  0  0  0  0
    9.1610    5.6410  -11.6950 C   0  0  0  0  0  0  0  0  0  0  0  0
   10.2170    5.1710  -10.8990 C   0  0  0  0  0  0  0  0  0  0  0  0
   11.5470    5.1380  -11.3770 C   0  0  0  0  0  0  0  0  0  0  0  0
   17.2870    5.2880  -12.6930 H   0  0  0  0  0  0  0  0  0  0  0  0
   16.8580    5.4450  -14.3490 H   0  0  0  0  0  0  0  0  0  0  0  0
   16.4685    3.7167  -11.4086 H   0  0  0  0  0  0  0  0  0  0  0  0
   17.1649    1.6168  -12.5778 H   0  0  0  0  0  0  0  0  0  0  0  0
   16.2514    1.4628  -10.9670 H   0  0  0  0  0  0  0  0  0  0  0  0
   14.7474    0.1789  -11.7938 H   0  0  0  0  0  0  0  0  0  0  0  0
   14.6110    1.2724  -13.3066 H   0  0  0  0  0  0  0  0  0  0  0  0
   13.7790    2.6050  -11.8500 H   0  0  0  0  0  0  0  0  0  0  0  0
   13.0939    3.8432   -8.6278 H   0  0  0  0  0  0  0  0  0  0  0  0
   10.7624    3.8946   -7.7690 H   0  0  0  0  0  0  0  0  0  0  0  0
    8.3886    4.3738   -8.1005 H   0  0  0  0  0  0  0  0  0  0  0  0
    7.0374    6.0276  -11.8507 H   0  0  0  0  0  0  0  0  0  0  0  0
    9.3672    6.0049  -12.7124 H   0  0  0  0  0  0  0  0  0  0  0  0
   11.7680    5.4933  -12.3943 H   0  0  0  0  0  0  0  0  0  0  0  0
  1  2  1  0
  2  3  2  0
  2  4  1  0
  4  5  1  0
  5  6  1  0
  6  7  1  0
  7  8  2  0
  7  9  1  0
  4 10  1  0
 10 11  1  0
 11 12  2  0
 11 13  1  0
 13 14  2  0
 14 15  1  0
 15 16  2  0
 16 17  1  0
 17 18  2  0
 18 19  1  0
 19 20  1  0
 19 21  1  0
 19 22  1  0
 22 23  2  0
 22 24  1  0
 22 25  1  0
 18 26  1  0
 26 27  2  0
 27 28  1  0
 28 29  2  0
 29 13  1  0
 28 16  1  0
  1 30  1  0
  1 31  1  0
  4 32  1  1
  5 33  1  0
  5 34  1  0
  6 35  1  0
  6 36  1  0
 10 37  1  0
 14 38  1  0
 15 39  1  0
 17 40  1  0
 26 41  1  0
 27 42  1  0
 29 43  1  0
M  CHG  3   9  -1  24  -1  25  -1
M  END
>  <meeko>  (1) 
{"is_sidechain": [false], "free_energy": -6.895, "intermolecular_energy": -10.119, "internal_energy": -0.952}

$$$$
1bzc_ligand
     RDKit          3D

 43 44  0  0  0  0  0  0  0  0999 V2000
    3.3050   10.1700   -9.4960 N   0  0  0  0  0  0  0  0  0  0  0  0
    4.5740    9.6810   -9.2900 C   0  0  0  0  0  0  0  0  0  0  0  0
    5.4970   10.4890   -9.2200 O   0  0  0  0  0  0  0  0  0  0  0  0
    4.7050    8.1360   -9.2650 C   0  0  2  0  0  0  0  0  0  0  0  0
    4.1790    7.4690   -7.9770 C   0  0  0  0  0  0  0  0  0  0  0  0
    4.9740    6.2880   -7.4210 C   0  0  0  0  0  0  0  0  0  0  0  0
    4.9090    4.9430   -8.1440 C   0  0  0  0  0  0  0  0  0  0  0  0
    3.8130    4.6640   -8.6990 O   0  0  0  0  0  0  0  0  0  0  0  0
    5.9850    4.2830   -8.0900 O   0  0  0  0  0  0  0  0  0  0  0  0
    6.0570    7.6960   -9.5690 N   0  0  0  0  0  0  0  0  0  0  0  0
    6.3320    6.9000  -10.6580 C   0  0  0  0  0  0  0  0  0  0  0  0
    5.4380    6.4780  -11.3960 O   0  0  0  0  0  0  0  0  0  0  0  0
    7.7540    6.5070  -10.9250 C   0  0  0  0  0  0  0  0  0  0  0  0
    8.2770    6.8020  -12.1920 C   0  0  0  0  0  0  0  0  0  0  0  0
    9.5780    6.4250  -12.5400 C   0  0  0  0  0  0  0  0  0  0  0  0
   10.3900    5.7410  -11.6280 C   0  0  0  0  0  0  0  0  0  0  0  0
   11.6960    5.3430  -11.9780 C   0  0  0  0  0  0  0  0  0  0  0  0
   12.5120    4.6520  -11.0740 C   0  0  0  0  0  0  0  0  0  0  0  0
   13.9250    4.2170  -11.4130 C   0  0  0  0  0  0  0  0  0  0  0  0
   14.8760    5.0900  -10.9450 F   0  0  0  0  0  0  0  0  0  0  0  0
   14.2460    2.9950  -10.8750 F   0  0  0  0  0  0  0  0  0  0  0  0
   14.4930    3.9790  -13.3020 P   0  0  0  0  0  0  0  0  0  0  0  0
   13.4090    3.0930  -13.9350 O   0  0  0  0  0  0  0  0  0  0  0  0
   15.8570    3.2790  -13.2190 O   0  0  0  0  0  0  0  0  0  0  0  0
   14.5620    5.3880  -13.9100 O   0  0  0  0  0  0  0  0  0  0  0  0
   11.9990    4.3720   -9.7970 C   0  0  0  0  0  0  0  0  0  0  0  0
   10.7030    4.7590   -9.4370 C   0  0  0  0  0  0  0  0  0  0  0  0
    9.8800    5.4440  -10.3430 C   0  0  0  0  0  0  0  0  0  0  0  0
    8.5640    5.8310  -10.0040 C   0  0  0  0  0  0  0  0  0  0  0  0
    2.5220    9.6340   -9.1540 H   0  0  0  0  0  0  0  0  0  0  0  0
    3.2540   11.1730   -9.3700 H   0  0  0  0  0  0  0  0  0  0  0  0
    4.0391    7.7910  -10.0697 H   0  0  0  0  0  0  0  0  0  0  0  0
    4.1461    8.2419   -7.1950 H   0  0  0  0  0  0  0  0  0  0  0  0
    3.2041    7.0441   -8.2584 H   0  0  0  0  0  0  0  0  0  0  0  0
    6.0309    6.5921   -7.4011 H   0  0  0  0  0  0  0  0  0  0  0  0
    4.5010    6.0870   -6.4484 H   0  0  0  0  0  0  0  0  0  0  0  0
    6.7930    8.1340   -9.0010 H   0  0  0  0  0  0  0  0  0  0  0  0
    7.6545    7.3382  -12.9235 H   0  0  0  0  0  0  0  0  0  0  0  0
    9.9668    6.6683  -13.5398 H   0  0  0  0  0  0  0  0  0  0  0  0
   12.0816    5.5798  -12.9806 H   0  0  0  0  0  0  0  0  0  0  0  0
   12.6265    3.8394   -9.0672 H   0  0  0  0  0  0  0  0  0  0  0  0
   10.3252    4.5231   -8.4312 H   0  0  0  0  0  0  0  0  0  0  0  0
    8.1705    5.5982   -9.0035 H   0  0  0  0  0  0  0  0  0  0  0  0
  1  2  1  0
  2  3  2  0
  2  4  1  0
  4  5  1  0
  5  6  1  0
  6  7  1  0
  7  8  2  0
  7  9  1  0
  4 10  1  0
 10 11  1  0
 11 12  2  0
 11 13  1  0
 13 14  2  0
 14 15  1  0
 15 16  2  0
 16 17  1  0
 17 18  2  0
 18 19  1  0
 19 20  1  0
 19 21  1  0
 19 22  1  0
 22 23  2  0
 22 24  1  0
 22 25  1  0
 18 26  1  0
 26 27  2  0
 27 28  1  0
 28 29  2  0
 29 13  1  0
 28 16  1  0
  1 30  1  0
  1 31  1  0
  4 32  1  6
  5 33  1  0
  5 34  1  0
  6 35  1  0
  6 36  1  0
 10 37  1  0
 14 38  1  0
 15 39  1  0
 17 40  1  0
 26 41  1  0
 27 42  1  0
 29 43  1  0
M  CHG  3   9  -1  24  -1  25  -1
M  END
>  <meeko>  (2) 
{"is_sidechain": [false], "free_energy": -6.887, "intermolecular_energy": -10.112, "internal_energy": -0.949}

$$$$
1bzc_ligand
     RDKit          3D

 43 44  0  0  0  0  0  0  0  0999 V2000
    3.2270   10.2330   -9.5690 N   0  0  0  0  0  0  0  0  0  0  0  0
    4.5550   10.0330   -9.2690 C   0  0  0  0  0  0  0  0  0  0  0  0
    5.2920   11.0160   -9.2430 O   0  0  0  0  0  0  0  0  0  0  0  0
    4.9900    8.5560   -9.0910 C   0  0  2  0  0  0  0  0  0  0  0  0
    4.1030    7.7380   -8.1300 C   0  0  0  0  0  0  0  0  0  0  0  0
    4.6380    6.3860   -7.6570 C   0  0  0  0  0  0  0  0  0  0  0  0
    4.8470    5.2710   -8.6810 C   0  0  0  0  0  0  0  0  0  0  0  0
    5.9850    5.2190   -9.2190 O   0  0  0  0  0  0  0  0  0  0  0  0
    3.8330    4.5360   -8.8470 O   0  0  0  0  0  0  0  0  0  0  0  0
    6.3950    8.4380   -8.7360 N   0  0  0  0  0  0  0  0  0  0  0  0
    7.3760    8.3040   -9.6920 C   0  0  0  0  0  0  0  0  0  0  0  0
    7.1040    8.2230  -10.8930 O   0  0  0  0  0  0  0  0  0  0  0  0
    8.8060    8.2150   -9.2530 C   0  0  0  0  0  0  0  0  0  0  0  0
    9.5450    7.1030   -9.6820 C   0  0  0  0  0  0  0  0  0  0  0  0
   10.8700    6.9190   -9.2770 C   0  0  0  0  0  0  0  0  0  0  0  0
   11.4930    7.8430   -8.4290 C   0  0  0  0  0  0  0  0  0  0  0  0
   12.8220    7.6550   -8.0030 C   0  0  0  0  0  0  0  0  0  0  0  0
   13.4490    8.5710   -7.1500 C   0  0  0  0  0  0  0  0  0  0  0  0
   14.8810    8.4060   -6.6800 C   0  0  0  0  0  0  0  0  0  0  0  0
   15.6300    7.6200   -7.5210 F   0  0  0  0  0  0  0  0  0  0  0  0
   15.5520    9.6020   -6.5940 F   0  0  0  0  0  0  0  0  0  0  0  0
   15.2850    7.5980   -4.9090 P   0  0  0  0  0  0  0  0  0  0  0  0
   15.6420    8.7860   -4.0020 O   0  0  0  0  0  0  0  0  0  0  0  0
   16.4780    6.6660   -5.1630 O   0  0  0  0  0  0  0  0  0  0  0  0
   14.0110    6.8590   -4.4750 O   0  0  0  0  0  0  0  0  0  0  0  0
   12.7190    9.6970   -6.7340 C   0  0  0  0  0  0  0  0  0  0  0  0
   11.3970    9.8960   -7.1480 C   0  0  0  0  0  0  0  0  0  0  0  0
   10.7640    8.9750   -7.9960 C   0  0  0  0  0  0  0  0  0  0  0  0
    9.4250    9.1500   -8.4130 C   0  0  0  0  0  0  0  0  0  0  0  0
    2.5490    9.5790   -9.2060 H   0  0  0  0  0  0  0  0  0  0  0  0
    2.9690   11.2110   -9.5420 H   0  0  0  0  0  0  0  0  0  0  0  0
    4.8440    8.1054  -10.0838 H   0  0  0  0  0  0  0  0  0  0  0  0
    3.9289    8.3549   -7.2361 H   0  0  0  0  0  0  0  0  0  0  0  0
    3.2038    7.4953   -8.7153 H   0  0  0  0  0  0  0  0  0  0  0  0
    5.6121    6.5735   -7.1817 H   0  0  0  0  0  0  0  0  0  0  0  0
    3.8392    5.9998   -7.0068 H   0  0  0  0  0  0  0  0  0  0  0  0
    6.6060    8.6030   -7.7430 H   0  0  0  0  0  0  0  0  0  0  0  0
    9.0746    6.3642  -10.3475 H   0  0  0  0  0  0  0  0  0  0  0  0
   11.4292    6.0392   -9.6280 H   0  0  0  0  0  0  0  0  0  0  0  0
   13.3785    6.7708   -8.3473 H   0  0  0  0  0  0  0  0  0  0  0  0
   13.1948   10.4350   -6.0714 H   0  0  0  0  0  0  0  0  0  0  0  0
   10.8478   10.7850   -6.8044 H   0  0  0  0  0  0  0  0  0  0  0  0
    8.8615   10.0317   -8.0737 H   0  0  0  0  0  0  0  0  0  0  0  0
  1  2  1  0
  2  3  2  0
  2  4  1  0
  4  5  1  0
  5  6  1  0
  6  7  1  0
  7  8  2  0
  7  9  1  0
  4 10  1  0
 10 11  1  0
 11 12  2  0
 11 13  1  0
 13 14  2  0
 14 15  1  0
 15 16  2  0
 16 17  1  0
 17 18  2  0
 18 19  1  0
 19 20  1  0
 19 21  1  0
 19 22  1  0
 22 23  2  0
 22 24  1  0
 22 25  1  0
 18 26  1  0
 26 27  2  0
 27 28  1  0
 28 29  2  0
 29 13  1  0
 28 16  1  0
  1 30  1  0
  1 31  1  0
  4 32  1  6
  5 33  1  0
  5 34  1  0
  6 35  1  0
  6 36  1  0
 10 37  1  0
 14 38  1  0
 15 39  1  0
 17 40  1  0
 26 41  1  0
 27 42  1  0
 29 43  1  0
M  CHG  3   9  -1  24  -1  25  -1
M  END
>  <meeko>  (3) 
{"is_sidechain": [false], "free_energy": -6.605, "intermolecular_energy": -9.541, "internal_energy": -1.105}

$$$$
1bzc_ligand
     RDKit          3D

 43 44  0  0  0  0  0  0  0  0999 V2000
    3.8600   10.4540   -9.5070 N   0  0  0  0  0  0  0  0  0  0  0  0
    5.0380    9.7750   -9.2960 C   0  0  0  0  0  0  0  0  0  0  0  0
    6.0480   10.4360   -9.0670 O   0  0  0  0  0  0  0  0  0  0  0  0
    4.9690    8.2360   -9.4680 C   0  0  2  0  0  0  0  0  0  0  0  0
    4.1600    7.5050   -8.3770 C   0  0  0  0  0  0  0  0  0  0  0  0
    4.8860    6.4370   -7.5590 C   0  0  0  0  0  0  0  0  0  0  0  0
    4.8880    4.9930   -8.0590 C   0  0  0  0  0  0  0  0  0  0  0  0
    5.9610    4.3530   -7.9020 O   0  0  0  0  0  0  0  0  0  0  0  0
    3.7890    4.6280   -8.5650 O   0  0  0  0  0  0  0  0  0  0  0  0
    6.2860    7.6430   -9.6300 N   0  0  0  0  0  0  0  0  0  0  0  0
    6.5740    6.7910  -10.6710 C   0  0  0  0  0  0  0  0  0  0  0  0
    5.7150    6.4480  -11.4860 O   0  0  0  0  0  0  0  0  0  0  0  0
    7.9630    6.2390  -10.7910 C   0  0  0  0  0  0  0  0  0  0  0  0
    8.6080    5.8540   -9.6060 C   0  0  0  0  0  0  0  0  0  0  0  0
    9.9220    5.3760   -9.6240 C   0  0  0  0  0  0  0  0  0  0  0  0
   10.6270    5.2720  -10.8290 C   0  0  0  0  0  0  0  0  0  0  0  0
   11.9570    4.8080  -10.8530 C   0  0  0  0  0  0  0  0  0  0  0  0
   12.6710    4.7070  -12.0520 C   0  0  0  0  0  0  0  0  0  0  0  0
   14.1000    4.2030  -12.1160 C   0  0  0  0  0  0  0  0  0  0  0  0
   15.0250    5.2110  -12.0080 F   0  0  0  0  0  0  0  0  0  0  0  0
   14.3950    3.3180  -11.1070 F   0  0  0  0  0  0  0  0  0  0  0  0
   14.7630    3.2190  -13.7100 P   0  0  0  0  0  0  0  0  0  0  0  0
   16.0060    2.4580  -13.2210 O   0  0  0  0  0  0  0  0  0  0  0  0
   15.1020    4.3100  -14.7360 O   0  0  0  0  0  0  0  0  0  0  0  0
   13.6170    2.2970  -14.1530 O   0  0  0  0  0  0  0  0  0  0  0  0
   12.0230    5.0730  -13.2430 C   0  0  0  0  0  0  0  0  0  0  0  0
   10.7030    5.5380  -13.2350 C   0  0  0  0  0  0  0  0  0  0  0  0
    9.9880    5.6480  -12.0330 C   0  0  0  0  0  0  0  0  0  0  0  0
    8.6590    6.1290  -12.0020 C   0  0  0  0  0  0  0  0  0  0  0  0
    2.9920    9.9910   -9.2840 H   0  0  0  0  0  0  0  0  0  0  0  0
    3.9270   11.4310   -9.2530 H   0  0  0  0  0  0  0  0  0  0  0  0
    4.4061    8.0895  -10.4016 H   0  0  0  0  0  0  0  0  0  0  0  0
    3.7924    8.2663   -7.6732 H   0  0  0  0  0  0  0  0  0  0  0  0
    3.3798    6.9569   -8.9254 H   0  0  0  0  0  0  0  0  0  0  0  0
    5.9370    6.7516   -7.4792 H   0  0  0  0  0  0  0  0  0  0  0  0
    4.3136    6.3898   -6.6208 H   0  0  0  0  0  0  0  0  0  0  0  0
    7.0090    8.0150   -9.0000 H   0  0  0  0  0  0  0  0  0  0  0  0
    8.0720    5.9293   -8.6484 H   0  0  0  0  0  0  0  0  0  0  0  0
   10.4064    5.0788   -8.6822 H   0  0  0  0  0  0  0  0  0  0  0  0
   12.4440    4.5192   -9.9099 H   0  0  0  0  0  0  0  0  0  0  0  0
   12.5621    4.9928  -14.1985 H   0  0  0  0  0  0  0  0  0  0  0  0
   10.2205    5.8205  -14.1823 H   0  0  0  0  0  0  0  0  0  0  0  0
    8.1651    6.4206  -12.9406 H   0  0  0  0  0  0  0  0  0  0  0  0
  1  2  1  0
  2  3  2  0
  2  4  1  0
  4  5  1  0
  5  6  1  0
  6  7  1  0
  7  8  2  0
  7  9  1  0
  4 10  1  0
 10 11  1  0
 11 12  2  0
 11 13  1  0
 13 14  2  0
 14 15  1  0
 15 16  2  0
 16 17  1  0
 17 18  2  0
 18 19  1  0
 19 20  1  0
 19 21  1  0
 19 22  1  0
 22 23  2  0
 22 24  1  0
 22 25  1  0
 18 26  1  0
 26 27  2  0
 27 28  1  0
 28 29  2  0
 29 13  1  0
 28 16  1  0
  1 30  1  0
  1 31  1  0
  4 32  1  6
  5 33  1  0
  5 34  1  0
  6 35  1  0
  6 36  1  0
 10 37  1  0
 14 38  1  0
 15 39  1  0
 17 40  1  0
 26 41  1  0
 27 42  1  0
 29 43  1  0
M  CHG  3   9  -1  24  -1  25  -1
M  END
>  <meeko>  (4) 
{"is_sidechain": [false], "free_energy": -6.59, "intermolecular_energy": -9.688, "internal_energy": -0.937}

$$$$
1bzc_ligand
     RDKit          3D

 43 44  0  0  0  0  0  0  0  0999 V2000
    3.8150    5.1700   -8.5540 N   0  0  0  0  0  0  0  0  0  0  0  0
    4.5970    5.9050   -7.6930 C   0  0  0  0  0  0  0  0  0  0  0  0
    4.6160    5.5740   -6.5100 O   0  0  0  0  0  0  0  0  0  0  0  0
    5.2980    7.1420   -8.3100 C   0  0  2  0  0  0  0  0  0  0  0  0
    4.4750    7.8740   -9.3890 C   0  0  0  0  0  0  0  0  0  0  0  0
    4.1760    9.3560   -9.1630 C   0  0  0  0  0  0  0  0  0  0  0  0
    5.3270   10.3600   -9.2030 C   0  0  0  0  0  0  0  0  0  0  0  0
    5.1330   11.4500   -8.6020 O   0  0  0  0  0  0  0  0  0  0  0  0
    6.3380    9.9500   -9.8400 O   0  0  0  0  0  0  0  0  0  0  0  0
    6.6350    6.8320   -8.7900 N   0  0  0  0  0  0  0  0  0  0  0  0
    6.8430    6.0000   -9.8670 C   0  0  0  0  0  0  0  0  0  0  0  0
    5.9090    5.4360  -10.4410 O   0  0  0  0  0  0  0  0  0  0  0  0
    8.2480    5.7470  -10.3240 C   0  0  0  0  0  0  0  0  0  0  0  0
    8.5450    6.0060  -11.6700 C   0  0  0  0  0  0  0  0  0  0  0  0
    9.8180    5.7500  -12.1890 C   0  0  0  0  0  0  0  0  0  0  0  0
   10.8290    5.2260  -11.3740 C   0  0  0  0  0  0  0  0  0  0  0  0
   12.1090    4.9490  -11.8930 C   0  0  0  0  0  0  0  0  0  0  0  0
   13.1230    4.4190  -11.0870 C   0  0  0  0  0  0  0  0  0  0  0  0
   14.5140    4.1180  -11.6100 C   0  0  0  0  0  0  0  0  0  0  0  0
   15.4840    4.8790  -11.0070 F   0  0  0  0  0  0  0  0  0  0  0  0
   14.8850    2.8110  -11.4060 F   0  0  0  0  0  0  0  0  0  0  0  0
   14.9530    4.3580  -13.5330 P   0  0  0  0  0  0  0  0  0  0  0  0
   16.4320    3.9580  -13.6580 O   0  0  0  0  0  0  0  0  0  0  0  0
   14.7170    5.8500  -13.8090 O   0  0  0  0  0  0  0  0  0  0  0  0
   14.0020    3.4340  -14.3090 O   0  0  0  0  0  0  0  0  0  0  0  0
   12.8350    4.1770   -9.7340 C   0  0  0  0  0  0  0  0  0  0  0  0
   11.5680    4.4450   -9.2040 C   0  0  0  0  0  0  0  0  0  0  0  0
   10.5480    4.9680  -10.0120 C   0  0  0  0  0  0  0  0  0  0  0  0
    9.2570    5.2320   -9.4990 C   0  0  0  0  0  0  0  0  0  0  0  0
    4.0800    5.1290   -9.5270 H   0  0  0  0  0  0  0  0  0  0  0  0
    3.4920    4.3060   -8.1380 H   0  0  0  0  0  0  0  0  0  0  0  0
    5.3860    7.8518   -7.4742 H   0  0  0  0  0  0  0  0  0  0  0  0
    5.0259    7.7898  -10.3374 H   0  0  0  0  0  0  0  0  0  0  0  0
    3.4906    7.3834   -9.3720 H   0  0  0  0  0  0  0  0  0  0  0  0
    3.4558    9.6608   -9.9366 H   0  0  0  0  0  0  0  0  0  0  0  0
    3.8265    9.3979   -8.1208 H   0  0  0  0  0  0  0  0  0  0  0  0
    7.3880    7.3840   -8.3610 H   0  0  0  0  0  0  0  0  0  0  0  0
    7.7646    6.4168  -12.3275 H   0  0  0  0  0  0  0  0  0  0  0  0
   10.0273    5.9623  -13.2478 H   0  0  0  0  0  0  0  0  0  0  0  0
   12.3158    5.1535  -12.9538 H   0  0  0  0  0  0  0  0  0  0  0  0
   13.6194    3.7695   -9.0792 H   0  0  0  0  0  0  0  0  0  0  0  0
   11.3697    4.2431   -8.1410 H   0  0  0  0  0  0  0  0  0  0  0  0
    9.0420    5.0306   -8.4392 H   0  0  0  0  0  0  0  0  0  0  0  0
  1  2  1  0
  2  3  2  0
  2  4  1  0
  4  5  1  0
  5  6  1  0
  6  7  1  0
  7  8  2  0
  7  9  1  0
  4 10  1  0
 10 11  1  0
 11 12  2  0
 11 13  1  0
 13 14  2  0
 14 15  1  0
 15 16  2  0
 16 17  1  0
 17 18  2  0
 18 19  1  0
 19 20  1  0
 19 21  1  0
 19 22  1  0
 22 23  2  0
 22 24  1  0
 22 25  1  0
 18 26  1  0
 26 27  2  0
 27 28  1  0
 28 29  2  0
 29 13  1  0
 28 16  1  0
  1 30  1  0
  1 31  1  0
  4 32  1  1
  5 33  1  0
  5 34  1  0
  6 35  1  0
  6 36  1  0
 10 37  1  0
 14 38  1  0
 15 39  1  0
 17 40  1  0
 26 41  1  0
 27 42  1  0
 29 43  1  0
M  CHG  3   9  -1  24  -1  25  -1
M  END
>  <meeko>  (5) 
{"is_sidechain": [false], "free_energy": -6.553, "intermolecular_energy": -10.048, "internal_energy": -0.523}

$$$$
1bzc_ligand
     RDKit          3D

 43 44  0  0  0  0  0  0  0  0999 V2000
   13.6320   11.2150   -4.9290 N   0  0  0  0  0  0  0  0  0  0  0  0
   13.8400   12.4610   -5.4740 C   0  0  0  0  0  0  0  0  0  0  0  0
   14.4120   13.3010   -4.7830 O   0  0  0  0  0  0  0  0  0  0  0  0
   13.2360   12.6910   -6.8830 C   0  0  2  0  0  0  0  0  0  0  0  0
   12.8290   14.1500   -7.1750 C   0  0  0  0  0  0  0  0  0  0  0  0
   11.4820   14.6280   -6.6320 C   0  0  0  0  0  0  0  0  0  0  0  0
   11.4420   15.8540   -5.7210 C   0  0  0  0  0  0  0  0  0  0  0  0
   10.3870   16.5410   -5.7620 O   0  0  0  0  0  0  0  0  0  0  0  0
   12.4900   16.0120   -5.0330 O   0  0  0  0  0  0  0  0  0  0  0  0
   12.1430   11.7750   -7.1660 N   0  0  0  0  0  0  0  0  0  0  0  0
   12.1120   11.0170   -8.3150 C   0  0  0  0  0  0  0  0  0  0  0  0
   12.9820   11.1180   -9.1830 O   0  0  0  0  0  0  0  0  0  0  0  0
   10.9670   10.0740   -8.5270 C   0  0  0  0  0  0  0  0  0  0  0  0
   11.2760    8.7590   -8.9050 C   0  0  0  0  0  0  0  0  0  0  0  0
   10.2650    7.8290   -9.1710 C   0  0  0  0  0  0  0  0  0  0  0  0
    8.9170    8.1920   -9.0690 C   0  0  0  0  0  0  0  0  0  0  0  0
    7.8940    7.2660   -9.3520 C   0  0  0  0  0  0  0  0  0  0  0  0
    6.5430    7.6230   -9.2580 C   0  0  0  0  0  0  0  0  0  0  0  0
    5.4160    6.6490   -9.5460 C   0  0  0  0  0  0  0  0  0  0  0  0
    4.2150    7.2770   -9.7660 F   0  0  0  0  0  0  0  0  0  0  0  0
    5.6480    5.8880  -10.6660 F   0  0  0  0  0  0  0  0  0  0  0  0
    4.9070    5.2590   -8.2210 P   0  0  0  0  0  0  0  0  0  0  0  0
    4.5720    6.0350   -6.9380 O   0  0  0  0  0  0  0  0  0  0  0  0
    6.1560    4.3780   -8.0730 O   0  0  0  0  0  0  0  0  0  0  0  0
    3.7020    4.5170   -8.8190 O   0  0  0  0  0  0  0  0  0  0  0  0
    6.2290    8.9330   -8.8620 C   0  0  0  0  0  0  0  0  0  0  0  0
    7.2350    9.8640   -8.5790 C   0  0  0  0  0  0  0  0  0  0  0  0
    8.5890    9.5120   -8.6800 C   0  0  0  0  0  0  0  0  0  0  0  0
    9.6190   10.4420   -8.4130 C   0  0  0  0  0  0  0  0  0  0  0  0
   13.5660   10.4240   -5.5520 H   0  0  0  0  0  0  0  0  0  0  0  0
   14.1570   11.0750   -4.0760 H   0  0  0  0  0  0  0  0  0  0  0  0
   14.0617   12.4702   -7.5755 H   0  0  0  0  0  0  0  0  0  0  0  0
   13.6063   14.8009   -6.7482 H   0  0  0  0  0  0  0  0  0  0  0  0
   12.7240   14.1987   -8.2689 H   0  0  0  0  0  0  0  0  0  0  0  0
   10.8455   14.8515   -7.5009 H   0  0  0  0  0  0  0  0  0  0  0  0
   11.1540   13.8049   -5.9801 H   0  0  0  0  0  0  0  0  0  0  0  0
   11.4820   11.6370   -6.3910 H   0  0  0  0  0  0  0  0  0  0  0  0
   12.3292    8.4543   -8.9937 H   0  0  0  0  0  0  0  0  0  0  0  0
   10.5321    6.8027   -9.4631 H   0  0  0  0  0  0  0  0  0  0  0  0
    8.1615    6.2423   -9.6528 H   0  0  0  0  0  0  0  0  0  0  0  0
    5.1744    9.2327   -8.7727 H   0  0  0  0  0  0  0  0  0  0  0  0
    6.9604   10.8844   -8.2736 H   0  0  0  0  0  0  0  0  0  0  0  0
    9.3598   11.4677   -8.1119 H   0  0  0  0  0  0  0  0  0  0  0  0
  1  2  1  0
  2  3  2  0
  2  4  1  0
  4  5  1  0
  5  6  1  0
  6  7  1  0
  7  8  2  0
  7  9  1  0
  4 10  1  0
 10 11  1  0
 11 12  2  0
 11 13  1  0
 13 14  2  0
 14 15  1  0
 15 16  2  0
 16 17  1  0
 17 18  2  0
 18 19  1  0
 19 20  1  0
 19 21  1  0
 19 22  1  0
 22 23  2  0
 22 24  1  0
 22 25  1  0
 18 26  1  0
 26 27  2  0
 27 28  1  0
 28 29  2  0
 29 13  1  0
 28 16  1  0
  1 30  1  0
  1 31  1  0
  4 32  1  6
  5 33  1  0
  5 34  1  0
  6 35  1  0
  6 36  1  0
 10 37  1  0
 14 38  1  0
 15 39  1  0
 17 40  1  0
 26 41  1  0
 27 42  1  0
 29 43  1  0
M  CHG  3   9  -1  24  -1  25  -1
M  END
>  <meeko>  (6) 
{"is_sidechain": [false], "free_energy": -6.463, "intermolecular_energy": -9.454, "internal_energy": -0.984}

$$$$
1bzc_ligand
     RDKit          3D

 43 44  0  0  0  0  0  0  0  0999 V2000
    5.3730    5.6320   -7.2400 N   0  0  0  0  0  0  0  0  0  0  0  0
    5.0140    5.1560   -8.4800 C   0  0  0  0  0  0  0  0  0  0  0  0
    3.9200    4.6060   -8.5880 O   0  0  0  0  0  0  0  0  0  0  0  0
    6.0870    5.2870   -9.5900 C   0  0  2  0  0  0  0  0  0  0  0  0
    7.2840    4.3260   -9.4410 C   0  0  0  0  0  0  0  0  0  0  0  0
    8.6520    4.9440   -9.1510 C   0  0  0  0  0  0  0  0  0  0  0  0
    9.6840    5.0250  -10.2760 C   0  0  0  0  0  0  0  0  0  0  0  0
   10.8240    4.5570  -10.0160 O   0  0  0  0  0  0  0  0  0  0  0  0
    9.2430    5.5540  -11.3350 O   0  0  0  0  0  0  0  0  0  0  0  0
    6.5350    6.6600   -9.7590 N   0  0  0  0  0  0  0  0  0  0  0  0
    6.2650    7.3740  -10.9050 C   0  0  0  0  0  0  0  0  0  0  0  0
    5.6770    6.8670  -11.8620 O   0  0  0  0  0  0  0  0  0  0  0  0
    6.7350    8.7950  -10.9980 C   0  0  0  0  0  0  0  0  0  0  0  0
    7.8240    9.0600  -11.8400 C   0  0  0  0  0  0  0  0  0  0  0  0
    8.3560   10.3490  -11.9460 C   0  0  0  0  0  0  0  0  0  0  0  0
    7.8120   11.4080  -11.2090 C   0  0  0  0  0  0  0  0  0  0  0  0
    8.3530   12.7060  -11.2980 C   0  0  0  0  0  0  0  0  0  0  0  0
    7.8190   13.7690  -10.5600 C   0  0  0  0  0  0  0  0  0  0  0  0
    8.3700   15.1800  -10.6380 C   0  0  0  0  0  0  0  0  0  0  0  0
    8.8720   15.4860  -11.8790 F   0  0  0  0  0  0  0  0  0  0  0  0
    7.4180   16.1350  -10.3760 F   0  0  0  0  0  0  0  0  0  0  0  0
    9.8520   15.7620   -9.4490 P   0  0  0  0  0  0  0  0  0  0  0  0
   10.8970   16.3820  -10.3900 O   0  0  0  0  0  0  0  0  0  0  0  0
   10.3490   14.4740   -8.7780 O   0  0  0  0  0  0  0  0  0  0  0  0
    9.2410   16.7700   -8.4640 O   0  0  0  0  0  0  0  0  0  0  0  0
    6.7160   13.5120   -9.7310 C   0  0  0  0  0  0  0  0  0  0  0  0
    6.1690   12.2270   -9.6310 C   0  0  0  0  0  0  0  0  0  0  0  0
    6.7070   11.1590  -10.3630 C   0  0  0  0  0  0  0  0  0  0  0  0
    6.1780    9.8520  -10.2650 C   0  0  0  0  0  0  0  0  0  0  0  0
    6.0120    6.4120   -7.1920 H   0  0  0  0  0  0  0  0  0  0  0  0
    4.5970    5.6450   -6.5920 H   0  0  0  0  0  0  0  0  0  0  0  0
    5.5701    4.9748  -10.5095 H   0  0  0  0  0  0  0  0  0  0  0  0
    7.0523    3.6361   -8.6161 H   0  0  0  0  0  0  0  0  0  0  0  0
    7.3919    3.8565  -10.4299 H   0  0  0  0  0  0  0  0  0  0  0  0
    8.4736    5.9721   -8.8030 H   0  0  0  0  0  0  0  0  0  0  0  0
    9.1057    4.2509   -8.4273 H   0  0  0  0  0  0  0  0  0  0  0  0
    6.9370    7.0910   -8.9170 H   0  0  0  0  0  0  0  0  0  0  0  0
    8.2669    8.2415  -12.4264 H   0  0  0  0  0  0  0  0  0  0  0  0
    9.2099   10.5327  -12.6147 H   0  0  0  0  0  0  0  0  0  0  0  0
    9.2121   12.8877  -11.9606 H   0  0  0  0  0  0  0  0  0  0  0  0
    6.2736   14.3344   -9.1497 H   0  0  0  0  0  0  0  0  0  0  0  0
    5.3069   12.0533   -8.9703 H   0  0  0  0  0  0  0  0  0  0  0  0
    5.3185    9.6619   -9.6053 H   0  0  0  0  0  0  0  0  0  0  0  0
  1  2  1  0
  2  3  2  0
  2  4  1  0
  4  5  1  0
  5  6  1  0
  6  7  1  0
  7  8  2  0
  7  9  1  0
  4 10  1  0
 10 11  1  0
 11 12  2  0
 11 13  1  0
 13 14  2  0
 14 15  1  0
 15 16  2  0
 16 17  1  0
 17 18  2  0
 18 19  1  0
 19 20  1  0
 19 21  1  0
 19 22  1  0
 22 23  2  0
 22 24  1  0
 22 25  1  0
 18 26  1  0
 26 27  2  0
 27 28  1  0
 28 29  2  0
 29 13  1  0
 28 16  1  0
  1 30  1  0
  1 31  1  0
  4 32  1  6
  5 33  1  0
  5 34  1  0
  6 35  1  0
  6 36  1  0
 10 37  1  0
 14 38  1  0
 15 39  1  0
 17 40  1  0
 26 41  1  0
 27 42  1  0
 29 43  1  0
M  CHG  3   9  -1  24  -1  25  -1
M  END
>  <meeko>  (7) 
{"is_sidechain": [false], "free_energy": -6.265, "intermolecular_energy": -8.972, "internal_energy": -1.175}

$$$$
1bzc_ligand
     RDKit          3D

 43 44  0  0  0  0  0  0  0  0999 V2000
   14.8690    5.0700  -15.6850 N   0  0  0  0  0  0  0  0  0  0  0  0
   15.3720    5.0940  -14.4050 C   0  0  0  0  0  0  0  0  0  0  0  0
   16.1200    6.0200  -14.0990 O   0  0  0  0  0  0  0  0  0  0  0  0
   15.0060    3.8800  -13.5130 C   0  0  2  0  0  0  0  0  0  0  0  0
   15.1260    2.5110  -14.2150 C   0  0  0  0  0  0  0  0  0  0  0  0
   13.8570    1.6680  -14.3350 C   0  0  0  0  0  0  0  0  0  0  0  0
   12.9310    1.8860  -15.5320 C   0  0  0  0  0  0  0  0  0  0  0  0
   12.5100    3.0610  -15.7000 O   0  0  0  0  0  0  0  0  0  0  0  0
   12.7150    0.8390  -16.2050 O   0  0  0  0  0  0  0  0  0  0  0  0
   13.7040    4.0340  -12.8850 N   0  0  0  0  0  0  0  0  0  0  0  0
   13.5680    4.5640  -11.6210 C   0  0  0  0  0  0  0  0  0  0  0  0
   14.5460    4.8820  -10.9420 O   0  0  0  0  0  0  0  0  0  0  0  0
   12.1920    4.7180  -11.0470 C   0  0  0  0  0  0  0  0  0  0  0  0
   12.0120    4.3730   -9.7000 C   0  0  0  0  0  0  0  0  0  0  0  0
   10.7500    4.4400   -9.1010 C   0  0  0  0  0  0  0  0  0  0  0  0
    9.6330    4.8550   -9.8360 C   0  0  0  0  0  0  0  0  0  0  0  0
    8.3560    4.9090   -9.2430 C   0  0  0  0  0  0  0  0  0  0  0  0
    7.2320    5.3150   -9.9730 C   0  0  0  0  0  0  0  0  0  0  0  0
    5.8450    5.3950   -9.3650 C   0  0  0  0  0  0  0  0  0  0  0  0
    4.8560    5.0470  -10.2520 F   0  0  0  0  0  0  0  0  0  0  0  0
    5.6900    4.5570   -8.2880 F   0  0  0  0  0  0  0  0  0  0  0  0
    5.1480    7.1070   -8.6370 P   0  0  0  0  0  0  0  0  0  0  0  0
    6.3750    8.0270   -8.5380 O   0  0  0  0  0  0  0  0  0  0  0  0
    4.5660    6.7450   -7.2630 O   0  0  0  0  0  0  0  0  0  0  0  0
    4.0930    7.6020   -9.6380 O   0  0  0  0  0  0  0  0  0  0  0  0
    7.4110    5.6810  -11.3170 C   0  0  0  0  0  0  0  0  0  0  0  0
    8.6730    5.6300  -11.9190 C   0  0  0  0  0  0  0  0  0  0  0  0
    9.7990    5.2150  -11.1930 C   0  0  0  0  0  0  0  0  0  0  0  0
   11.0800    5.1430  -11.7870 C   0  0  0  0  0  0  0  0  0  0  0  0
   13.9820    4.6150  -15.8440 H   0  0  0  0  0  0  0  0  0  0  0  0
   15.0230    5.9410  -16.1760 H   0  0  0  0  0  0  0  0  0  0  0  0
   15.7729    3.8775  -12.7244 H   0  0  0  0  0  0  0  0  0  0  0  0
   15.4978    2.6943  -15.2339 H   0  0  0  0  0  0  0  0  0  0  0  0
   15.7947    1.9221  -13.5700 H   0  0  0  0  0  0  0  0  0  0  0  0
   14.1715    0.6142  -14.3588 H   0  0  0  0  0  0  0  0  0  0  0  0
   13.2504    1.9814  -13.4726 H   0  0  0  0  0  0  0  0  0  0  0  0
   12.9010    3.8530  -13.5000 H   0  0  0  0  0  0  0  0  0  0  0  0
   12.8769    4.0445   -9.1050 H   0  0  0  0  0  0  0  0  0  0  0  0
   10.6339    4.1641   -8.0425 H   0  0  0  0  0  0  0  0  0  0  0  0
    8.2397    4.6268   -8.1862 H   0  0  0  0  0  0  0  0  0  0  0  0
    6.5440    6.0135  -11.9067 H   0  0  0  0  0  0  0  0  0  0  0  0
    8.7834    5.9189  -12.9746 H   0  0  0  0  0  0  0  0  0  0  0  0
   11.2056    5.4240  -12.8431 H   0  0  0  0  0  0  0  0  0  0  0  0
  1  2  1  0
  2  3  2  0
  2  4  1  0
  4  5  1  0
  5  6  1  0
  6  7  1  0
  7  8  2  0
  7  9  1  0
  4 10  1  0
 10 11  1  0
 11 12  2  0
 11 13  1  0
 13 14  2  0
 14 15  1  0
 15 16  2  0
 16 17  1  0
 17 18  2  0
 18 19  1  0
 19 20  1  0
 19 21  1  0
 19 22  1  0
 22 23  2  0
 22 24  1  0
 22 25  1  0
 18 26  1  0
 26 27  2  0
 27 28  1  0
 28 29  2  0
 29 13  1  0
 28 16  1  0
  1 30  1  0
  1 31  1  0
  4 32  1  1
  5 33  1  0
  5 34  1  0
  6 35  1  0
  6 36  1  0
 10 37  1  0
 14 38  1  0
 15 39  1  0
 17 40  1  0
 26 41  1  0
 27 42  1  0
 29 43  1  0
M  CHG  3   9  -1  24  -1  25  -1
M  END
>  <meeko>  (8) 
{"is_sidechain": [false], "free_energy": -6.194, "intermolecular_energy": -8.636, "internal_energy": -1.407}

$$$$
