4crc_ligand
     RDKit          3D

 60 64  0  0  0  0  0  0  0  0999 V2000
   13.6150  -10.9050   -3.6420 O   0  0  0  0  0  0  0  0  0  0  0  0
   13.0160  -11.5980   -4.4550 C   0  0  0  0  0  0  0  0  0  0  0  0
   13.4370  -11.6100   -5.8760 C   0  0  0  0  0  0  0  0  0  0  0  0
   14.4020  -12.4060   -6.3630 C   0  0  0  0  0  0  0  0  0  0  0  0
   14.7960  -12.3490   -7.7760 C   0  0  0  0  0  0  0  0  0  0  0  0
   15.8160  -11.4210   -8.0730 C   0  0  0  0  0  0  0  0  0  0  0  0
   16.2640  -11.2360   -9.3780 C   0  0  0  0  0  0  0  0  0  0  0  0
   17.5100  -10.0960   -9.7040 Cl  0  0  0  0  0  0  0  0  0  0  0  0
   15.7040  -11.9640  -10.4170 C   0  0  0  0  0  0  0  0  0  0  0  0
   14.6920  -12.8870  -10.1440 C   0  0  0  0  0  0  0  0  0  0  0  0
   14.2240  -13.1000   -8.8250 C   0  0  0  0  0  0  0  0  0  0  0  0
   13.1980  -14.0750   -8.6540 N   0  0  0  0  0  0  0  0  0  0  0  0
   13.2410  -15.4090   -8.3270 C   0  0  0  0  0  0  0  0  0  0  0  0
   12.0210  -15.8930   -8.2710 N   0  0  0  0  0  0  0  0  0  0  0  0
   11.1930  -14.8530   -8.5820 N   0  0  0  0  0  0  0  0  0  0  0  0
   11.8880  -13.7520   -8.8250 N   0  0  0  0  0  0  0  0  0  0  0  0
   11.9270  -12.3600   -4.1510 N   0  0  0  0  0  0  0  0  0  0  0  0
   11.4040  -12.4580   -2.7880 C   0  0  1  0  0  0  0  0  0  0  0  0
   10.3950  -11.3330   -2.4970 C   0  0  0  0  0  0  0  0  0  0  0  0
   10.7730  -10.4840   -1.3070 C   0  0  0  0  0  0  0  0  0  0  0  0
    9.9720   -9.4010   -0.9160 C   0  0  0  0  0  0  0  0  0  0  0  0
   10.3030   -8.6510    0.2130 C   0  0  0  0  0  0  0  0  0  0  0  0
   11.4380   -8.9690    0.9560 C   0  0  0  0  0  0  0  0  0  0  0  0
   12.2470  -10.0350    0.5690 C   0  0  0  0  0  0  0  0  0  0  0  0
   11.9180  -10.7890   -0.5580 C   0  0  0  0  0  0  0  0  0  0  0  0
   10.7420  -13.8510   -2.6710 C   0  0  0  0  0  0  0  0  0  0  0  0
   11.2390  -14.8230   -3.2420 O   0  0  0  0  0  0  0  0  0  0  0  0
    9.5870  -13.8520   -1.9100 N   0  0  0  0  0  0  0  0  0  0  0  0
    8.7310  -14.9360   -1.6370 C   0  0  0  0  0  0  0  0  0  0  0  0
    8.7700  -15.6910   -0.4660 C   0  0  0  0  0  0  0  0  0  0  0  0
    7.8790  -16.7580   -0.2790 C   0  0  0  0  0  0  0  0  0  0  0  0
    6.9360  -17.0900   -1.2600 C   0  0  0  0  0  0  0  0  0  0  0  0
    6.0110  -18.2000   -1.0670 C   0  0  0  0  0  0  0  0  0  0  0  0
    5.4600  -18.5120    0.1550 N   0  0  0  0  0  0  0  0  0  0  0  0
    4.6770  -19.5640   -0.0320 N   0  0  0  0  0  0  0  0  0  0  0  0
    4.7880  -19.8370   -1.3350 N   0  0  0  0  0  0  0  0  0  0  0  0
    5.5960  -19.0320   -2.0400 N   0  0  0  0  0  0  0  0  0  0  0  0
    6.9010  -16.3300   -2.4350 C   0  0  0  0  0  0  0  0  0  0  0  0
    7.7890  -15.2640   -2.6200 C   0  0  0  0  0  0  0  0  0  0  0  0
   12.9290  -10.9266   -6.5724 H   0  0  0  0  0  0  0  0  0  0  0  0
   14.9073  -13.1147   -5.6903 H   0  0  0  0  0  0  0  0  0  0  0  0
   16.2653  -10.8331   -7.2591 H   0  0  0  0  0  0  0  0  0  0  0  0
   16.0544  -11.8155  -11.4491 H   0  0  0  0  0  0  0  0  0  0  0  0
   14.2491  -13.4607  -10.9715 H   0  0  0  0  0  0  0  0  0  0  0  0
   14.1592  -15.9852   -8.1402 H   0  0  0  0  0  0  0  0  0  0  0  0
   11.4070  -12.8610   -4.8640 H   0  0  0  0  0  0  0  0  0  0  0  0
   12.2099  -12.3441   -2.0480 H   0  0  0  0  0  0  0  0  0  0  0  0
   10.3310  -10.6838   -3.3827 H   0  0  0  0  0  0  0  0  0  0  0  0
    9.4325  -11.8114   -2.2630 H   0  0  0  0  0  0  0  0  0  0  0  0
    9.0783   -9.1416   -1.5025 H   0  0  0  0  0  0  0  0  0  0  0  0
    9.6666   -7.8069    0.5171 H   0  0  0  0  0  0  0  0  0  0  0  0
   11.6951   -8.3786    1.8478 H   0  0  0  0  0  0  0  0  0  0  0  0
   13.1460  -10.2826    1.1525 H   0  0  0  0  0  0  0  0  0  0  0  0
   12.5614  -11.6283   -0.8607 H   0  0  0  0  0  0  0  0  0  0  0  0
    9.2920  -12.9580   -1.5250 H   0  0  0  0  0  0  0  0  0  0  0  0
    9.5042  -15.4485    0.3164 H   0  0  0  0  0  0  0  0  0  0  0  0
    7.9214  -17.3427    0.6518 H   0  0  0  0  0  0  0  0  0  0  0  0
    4.2870  -20.6100   -1.7620 H   0  0  0  0  0  0  0  0  0  0  0  0
    6.1693  -16.5726   -3.2197 H   0  0  0  0  0  0  0  0  0  0  0  0
    7.7464  -14.6766   -3.5490 H   0  0  0  0  0  0  0  0  0  0  0  0
  1  2  2  0
  2  3  1  0
  3  4  2  0
  4  5  1  0
  5  6  2  0
  6  7  1  0
  7  8  1  0
  7  9  2  0
  9 10  1  0
 10 11  2  0
 11 12  1  0
 12 13  1  0
 13 14  2  0
 14 15  1  0
 15 16  2  0
  2 17  1  0
 17 18  1  0
 18 19  1  0
 19 20  1  0
 20 21  2  0
 21 22  1  0
 22 23  2  0
 23 24  1  0
 24 25  2  0
 18 26  1  0
 26 27  2  0
 26 28  1  0
 28 29  1  0
 29 30  2  0
 30 31  1  0
 31 32  2  0
 32 33  1  0
 33 34  1  0
 34 35  2  0
 35 36  1  0
 36 37  1  0
 32 38  1  0
 38 39  2  0
 11  5  1  0
 16 12  1  0
 25 20  1  0
 39 29  1  0
 37 33  2  0
  3 40  1  0
  4 41  1  0
  6 42  1  0
  9 43  1  0
 10 44  1  0
 13 45  1  0
 17 46  1  0
 18 47  1  1
 19 48  1  0
 19 49  1  0
 21 50  1  0
 22 51  1  0
 23 52  1  0
 24 53  1  0
 25 54  1  0
 28 55  1  0
 30 56  1  0
 31 57  1  0
 36 58  1  0
 38 59  1  0
 39 60  1  0
M  END
>  <meeko>  (1) 
{"is_sidechain": [false], "free_energy": -9.057, "intermolecular_energy": -13.822, "internal_energy": -1.637}

$$$$
4crc_ligand
     RDKit          3D

 60 64  0  0  0  0  0  0  0  0999 V2000
   13.4730  -11.0050   -4.0230 O   0  0  0  0  0  0  0  0  0  0  0  0
   12.7650  -11.7270   -4.7120 C   0  0  0  0  0  0  0  0  0  0  0  0
   13.0000  -11.8250   -6.1720 C   0  0  0  0  0  0  0  0  0  0  0  0
   12.9830  -12.9800   -6.8560 C   0  0  0  0  0  0  0  0  0  0  0  0
   13.2560  -13.0170   -8.2980 C   0  0  0  0  0  0  0  0  0  0  0  0
   12.1560  -13.3770   -9.1040 C   0  0  0  0  0  0  0  0  0  0  0  0
   12.2800  -13.4850  -10.4870 C   0  0  0  0  0  0  0  0  0  0  0  0
   10.9170  -13.9270  -11.4390 Cl  0  0  0  0  0  0  0  0  0  0  0  0
   13.5020  -13.2440  -11.0970 C   0  0  0  0  0  0  0  0  0  0  0  0
   14.6040  -12.8880  -10.3160 C   0  0  0  0  0  0  0  0  0  0  0  0
   14.5020  -12.7630   -8.9110 C   0  0  0  0  0  0  0  0  0  0  0  0
   15.6830  -12.3800   -8.2090 N   0  0  0  0  0  0  0  0  0  0  0  0
   16.6470  -13.1140   -7.5610 C   0  0  0  0  0  0  0  0  0  0  0  0
   17.5640  -12.3110   -7.0720 N   0  0  0  0  0  0  0  0  0  0  0  0
   17.1670  -11.0480   -7.4020 N   0  0  0  0  0  0  0  0  0  0  0  0
   16.0290  -11.0720   -8.0800 N   0  0  0  0  0  0  0  0  0  0  0  0
   11.7120  -12.4460   -4.2310 N   0  0  0  0  0  0  0  0  0  0  0  0
   11.3660  -12.4590   -2.8090 C   0  0  1  0  0  0  0  0  0  0  0  0
   10.3510  -11.3500   -2.4740 C   0  0  0  0  0  0  0  0  0  0  0  0
   10.7680  -10.4920   -1.3040 C   0  0  0  0  0  0  0  0  0  0  0  0
    9.9770   -9.4100   -0.8920 C   0  0  0  0  0  0  0  0  0  0  0  0
   10.3450   -8.6510    0.2200 C   0  0  0  0  0  0  0  0  0  0  0  0
   11.5080   -8.9590    0.9230 C   0  0  0  0  0  0  0  0  0  0  0  0
   12.3070  -10.0240    0.5140 C   0  0  0  0  0  0  0  0  0  0  0  0
   11.9410  -10.7880   -0.5950 C   0  0  0  0  0  0  0  0  0  0  0  0
   10.7850  -13.8610   -2.5110 C   0  0  0  0  0  0  0  0  0  0  0  0
   11.5090  -14.8560   -2.5650 O   0  0  0  0  0  0  0  0  0  0  0  0
    9.4330  -13.8480   -2.2150 N   0  0  0  0  0  0  0  0  0  0  0  0
    8.5990  -14.9470   -1.9350 C   0  0  0  0  0  0  0  0  0  0  0  0
    8.6160  -15.6590   -0.7360 C   0  0  0  0  0  0  0  0  0  0  0  0
    7.7490  -16.7440   -0.5420 C   0  0  0  0  0  0  0  0  0  0  0  0
    6.8520  -17.1380   -1.5430 C   0  0  0  0  0  0  0  0  0  0  0  0
    5.9530  -18.2670   -1.3440 C   0  0  0  0  0  0  0  0  0  0  0  0
    5.5370  -18.6820   -0.0990 N   0  0  0  0  0  0  0  0  0  0  0  0
    4.7370  -19.7220   -0.2860 N   0  0  0  0  0  0  0  0  0  0  0  0
    4.7060  -19.8870   -1.6120 N   0  0  0  0  0  0  0  0  0  0  0  0
    5.4340  -19.0200   -2.3310 N   0  0  0  0  0  0  0  0  0  0  0  0
    6.8390  -16.4210   -2.7460 C   0  0  0  0  0  0  0  0  0  0  0  0
    7.7030  -15.3370   -2.9380 C   0  0  0  0  0  0  0  0  0  0  0  0
   13.2001  -10.8970   -6.7277 H   0  0  0  0  0  0  0  0  0  0  0  0
   12.7601  -13.9174   -6.3254 H   0  0  0  0  0  0  0  0  0  0  0  0
   11.1826  -13.5761   -8.6318 H   0  0  0  0  0  0  0  0  0  0  0  0
   13.6027  -13.3326  -12.1888 H   0  0  0  0  0  0  0  0  0  0  0  0
   15.5718  -12.7009  -10.8042 H   0  0  0  0  0  0  0  0  0  0  0  0
   16.6502  -14.2099   -7.4660 H   0  0  0  0  0  0  0  0  0  0  0  0
   11.0970  -12.9730   -4.8430 H   0  0  0  0  0  0  0  0  0  0  0  0
   12.2512  -12.2620   -2.1864 H   0  0  0  0  0  0  0  0  0  0  0  0
   10.2356  -10.7041   -3.3569 H   0  0  0  0  0  0  0  0  0  0  0  0
    9.4085  -11.8443   -2.1958 H   0  0  0  0  0  0  0  0  0  0  0  0
    9.0619   -9.1581   -1.4480 H   0  0  0  0  0  0  0  0  0  0  0  0
    9.7158   -7.8081    0.5420 H   0  0  0  0  0  0  0  0  0  0  0  0
   11.7950   -8.3612    1.8007 H   0  0  0  0  0  0  0  0  0  0  0  0
   13.2279  -10.2633    1.0660 H   0  0  0  0  0  0  0  0  0  0  0  0
   12.5763  -11.6271   -0.9148 H   0  0  0  0  0  0  0  0  0  0  0  0
    8.9700  -12.9440   -2.2360 H   0  0  0  0  0  0  0  0  0  0  0  0
    9.3140  -15.3677    0.0627 H   0  0  0  0  0  0  0  0  0  0  0  0
    7.7737  -17.2938    0.4104 H   0  0  0  0  0  0  0  0  0  0  0  0
    4.1610  -20.6260   -2.0440 H   0  0  0  0  0  0  0  0  0  0  0  0
    6.1436  -16.7125   -3.5469 H   0  0  0  0  0  0  0  0  0  0  0  0
    7.6780  -14.7843   -3.8888 H   0  0  0  0  0  0  0  0  0  0  0  0
  1  2  2  0
  2  3  1  0
  3  4  2  0
  4  5  1  0
  5  6  2  0
  6  7  1  0
  7  8  1  0
  7  9  2  0
  9 10  1  0
 10 11  2  0
 11 12  1  0
 12 13  1  0
 13 14  2  0
 14 15  1  0
 15 16  2  0
  2 17  1  0
 17 18  1  0
 18 19  1  0
 19 20  1  0
 20 21  2  0
 21 22  1  0
 22 23  2  0
 23 24  1  0
 24 25  2  0
 18 26  1  0
 26 27  2  0
 26 28  1  0
 28 29  1  0
 29 30  2  0
 30 31  1  0
 31 32  2  0
 32 33  1  0
 33 34  1  0
 34 35  2  0
 35 36  1  0
 36 37  1  0
 32 38  1  0
 38 39  2  0
 11  5  1  0
 16 12  1  0
 25 20  1  0
 39 29  1  0
 37 33  2  0
  3 40  1  0
  4 41  1  0
  6 42  1  0
  9 43  1  0
 10 44  1  0
 13 45  1  0
 17 46  1  0
 18 47  1  1
 19 48  1  0
 19 49  1  0
 21 50  1  0
 22 51  1  0
 23 52  1  0
 24 53  1  0
 25 54  1  0
 28 55  1  0
 30 56  1  0
 31 57  1  0
 36 58  1  0
 38 59  1  0
 39 60  1  0
M  END
>  <meeko>  (2) 
{"is_sidechain": [false], "free_energy": -9.002, "intermolecular_energy": -13.891, "internal_energy": -1.483}

$$$$
4crc_ligand
     RDKit          3D

 60 64  0  0  0  0  0  0  0  0999 V2000
    9.0920  -13.1120   -0.2710 O   0  0  0  0  0  0  0  0  0  0  0  0
    9.2360  -13.9580   -1.1450 C   0  0  0  0  0  0  0  0  0  0  0  0
    8.9490  -15.3830   -0.8550 C   0  0  0  0  0  0  0  0  0  0  0  0
    7.9910  -16.0930   -1.4730 C   0  0  0  0  0  0  0  0  0  0  0  0
    7.7330  -17.4930   -1.1190 C   0  0  0  0  0  0  0  0  0  0  0  0
    6.5540  -17.7140   -0.3770 C   0  0  0  0  0  0  0  0  0  0  0  0
    6.2030  -18.9900    0.0570 C   0  0  0  0  0  0  0  0  0  0  0  0
    4.7580  -19.2210    0.9610 Cl  0  0  0  0  0  0  0  0  0  0  0  0
    7.0190  -20.0730   -0.2320 C   0  0  0  0  0  0  0  0  0  0  0  0
    8.1920  -19.8750   -0.9650 C   0  0  0  0  0  0  0  0  0  0  0  0
    8.5660  -18.5910   -1.4250 C   0  0  0  0  0  0  0  0  0  0  0  0
    9.7750  -18.5020   -2.1760 N   0  0  0  0  0  0  0  0  0  0  0  0
   11.0930  -18.4210   -1.7940 C   0  0  0  0  0  0  0  0  0  0  0  0
   11.8620  -18.3710   -2.8570 N   0  0  0  0  0  0  0  0  0  0  0  0
   11.0180  -18.4050   -3.9290 N   0  0  0  0  0  0  0  0  0  0  0  0
    9.7560  -18.4740   -3.5350 N   0  0  0  0  0  0  0  0  0  0  0  0
    9.6930  -13.6870   -2.4000 N   0  0  0  0  0  0  0  0  0  0  0  0
   10.0050  -12.3250   -2.8360 C   0  0  1  0  0  0  0  0  0  0  0  0
   11.3650  -11.8630   -2.2810 C   0  0  0  0  0  0  0  0  0  0  0  0
   11.2470  -10.7820   -1.2330 C   0  0  0  0  0  0  0  0  0  0  0  0
   10.1520   -9.9070   -1.2280 C   0  0  0  0  0  0  0  0  0  0  0  0
   10.0250   -8.9410   -0.2290 C   0  0  0  0  0  0  0  0  0  0  0  0
   10.9940   -8.8350    0.7680 C   0  0  0  0  0  0  0  0  0  0  0  0
   12.0930   -9.6920    0.7630 C   0  0  0  0  0  0  0  0  0  0  0  0
   12.2210  -10.6600   -0.2320 C   0  0  0  0  0  0  0  0  0  0  0  0
   10.0080  -12.3490   -4.3820 C   0  0  0  0  0  0  0  0  0  0  0  0
    9.1980  -11.6680   -5.0130 O   0  0  0  0  0  0  0  0  0  0  0  0
   10.9620  -13.1930   -4.9200 N   0  0  0  0  0  0  0  0  0  0  0  0
   11.2040  -13.4710   -6.2800 C   0  0  0  0  0  0  0  0  0  0  0  0
   11.8610  -12.6040   -7.1530 C   0  0  0  0  0  0  0  0  0  0  0  0
   12.0560  -12.9610   -8.4950 C   0  0  0  0  0  0  0  0  0  0  0  0
   11.5980  -14.1900   -8.9880 C   0  0  0  0  0  0  0  0  0  0  0  0
   11.7990  -14.5610  -10.3820 C   0  0  0  0  0  0  0  0  0  0  0  0
   10.9360  -14.1880  -11.3880 N   0  0  0  0  0  0  0  0  0  0  0  0
   11.4160  -14.6920  -12.5150 N   0  0  0  0  0  0  0  0  0  0  0  0
   12.5270  -15.3360  -12.1480 N   0  0  0  0  0  0  0  0  0  0  0  0
   12.8280  -15.2960  -10.8420 N   0  0  0  0  0  0  0  0  0  0  0  0
   10.9380  -15.0560   -8.1080 C   0  0  0  0  0  0  0  0  0  0  0  0
   10.7450  -14.7000   -6.7680 C   0  0  0  0  0  0  0  0  0  0  0  0
    9.5558  -15.8883   -0.0892 H   0  0  0  0  0  0  0  0  0  0  0  0
    7.3883  -15.6156   -2.2597 H   0  0  0  0  0  0  0  0  0  0  0  0
    5.8998  -16.8630   -0.1367 H   0  0  0  0  0  0  0  0  0  0  0  0
    6.7450  -21.0808    0.1133 H   0  0  0  0  0  0  0  0  0  0  0  0
    8.8384  -20.7363   -1.1891 H   0  0  0  0  0  0  0  0  0  0  0  0
   11.4499  -18.4011   -0.7537 H   0  0  0  0  0  0  0  0  0  0  0  0
    9.8750  -14.4230   -3.0760 H   0  0  0  0  0  0  0  0  0  0  0  0
    9.2604  -11.6092   -2.4575 H   0  0  0  0  0  0  0  0  0  0  0  0
   11.8717  -12.7302   -1.8324 H   0  0  0  0  0  0  0  0  0  0  0  0
   11.9334  -11.4400   -3.1225 H   0  0  0  0  0  0  0  0  0  0  0  0
    9.3883   -9.9822   -2.0161 H   0  0  0  0  0  0  0  0  0  0  0  0
    9.1593   -8.2623   -0.2280 H   0  0  0  0  0  0  0  0  0  0  0  0
   10.8911   -8.0759    1.5575 H   0  0  0  0  0  0  0  0  0  0  0  0
   12.8609   -9.6044    1.5457 H   0  0  0  0  0  0  0  0  0  0  0  0
   13.0916  -11.3323   -0.2317 H   0  0  0  0  0  0  0  0  0  0  0  0
   11.5400  -13.7090   -4.2620 H   0  0  0  0  0  0  0  0  0  0  0  0
   12.2285  -11.6341   -6.7865 H   0  0  0  0  0  0  0  0  0  0  0  0
   12.5762  -12.2660   -9.1706 H   0  0  0  0  0  0  0  0  0  0  0  0
   13.1070  -15.8260  -12.8230 H   0  0  0  0  0  0  0  0  0  0  0  0
   10.5676  -16.0253   -8.4730 H   0  0  0  0  0  0  0  0  0  0  0  0
   10.2265  -15.3943   -6.0905 H   0  0  0  0  0  0  0  0  0  0  0  0
  1  2  2  0
  2  3  1  0
  3  4  2  0
  4  5  1  0
  5  6  2  0
  6  7  1  0
  7  8  1  0
  7  9  2  0
  9 10  1  0
 10 11  2  0
 11 12  1  0
 12 13  1  0
 13 14  2  0
 14 15  1  0
 15 16  2  0
  2 17  1  0
 17 18  1  0
 18 19  1  0
 19 20  1  0
 20 21  2  0
 21 22  1  0
 22 23  2  0
 23 24  1  0
 24 25  2  0
 18 26  1  0
 26 27  2  0
 26 28  1  0
 28 29  1  0
 29 30  2  0
 30 31  1  0
 31 32  2  0
 32 33  1  0
 33 34  1  0
 34 35  2  0
 35 36  1  0
 36 37  1  0
 32 38  1  0
 38 39  2  0
 11  5  1  0
 16 12  1  0
 25 20  1  0
 39 29  1  0
 37 33  2  0
  3 40  1  0
  4 41  1  0
  6 42  1  0
  9 43  1  0
 10 44  1  0
 13 45  1  0
 17 46  1  0
 18 47  1  6
 19 48  1  0
 19 49  1  0
 21 50  1  0
 22 51  1  0
 23 52  1  0
 24 53  1  0
 25 54  1  0
 28 55  1  0
 30 56  1  0
 31 57  1  0
 36 58  1  0
 38 59  1  0
 39 60  1  0
M  END
>  <meeko>  (3) 
{"is_sidechain": [false], "free_energy": -8.818, "intermolecular_energy": -13.595, "internal_energy": -1.5}

$$$$
4crc_ligand
     RDKit          3D

 60 64  0  0  0  0  0  0  0  0999 V2000
   12.9470  -11.6170   -4.0890 O   0  0  0  0  0  0  0  0  0  0  0  0
   12.0450  -12.3170   -4.5320 C   0  0  0  0  0  0  0  0  0  0  0  0
   12.0860  -12.7800   -5.9390 C   0  0  0  0  0  0  0  0  0  0  0  0
   13.0830  -13.5150   -6.4570 C   0  0  0  0  0  0  0  0  0  0  0  0
   13.0820  -13.9160   -7.8680 C   0  0  0  0  0  0  0  0  0  0  0  0
   13.9060  -13.1390   -8.7100 C   0  0  0  0  0  0  0  0  0  0  0  0
   13.9750  -13.3850  -10.0790 C   0  0  0  0  0  0  0  0  0  0  0  0
   14.9910  -12.4180  -11.0740 Cl  0  0  0  0  0  0  0  0  0  0  0  0
   13.2210  -14.4040  -10.6420 C   0  0  0  0  0  0  0  0  0  0  0  0
   12.3980  -15.1830   -9.8260 C   0  0  0  0  0  0  0  0  0  0  0  0
   12.3160  -14.9590   -8.4310 C   0  0  0  0  0  0  0  0  0  0  0  0
   11.4560  -15.8210   -7.6880 N   0  0  0  0  0  0  0  0  0  0  0  0
   10.1440  -15.6980   -7.2990 C   0  0  0  0  0  0  0  0  0  0  0  0
    9.7750  -16.7690   -6.6350 N   0  0  0  0  0  0  0  0  0  0  0  0
   10.8750  -17.5760   -6.5890 N   0  0  0  0  0  0  0  0  0  0  0  0
   11.9000  -17.0140   -7.2120 N   0  0  0  0  0  0  0  0  0  0  0  0
   10.9450  -12.6880   -3.8170 N   0  0  0  0  0  0  0  0  0  0  0  0
   10.7730  -12.3180   -2.4110 C   0  0  1  0  0  0  0  0  0  0  0  0
   10.3260  -10.8510   -2.2740 C   0  0  0  0  0  0  0  0  0  0  0  0
   10.8680  -10.1740   -1.0380 C   0  0  0  0  0  0  0  0  0  0  0  0
   10.1560   -9.1380   -0.4180 C   0  0  0  0  0  0  0  0  0  0  0  0
   10.6410   -8.5500    0.7510 C   0  0  0  0  0  0  0  0  0  0  0  0
   11.8440   -8.9840    1.3060 C   0  0  0  0  0  0  0  0  0  0  0  0
   12.5650  -10.0050    0.6890 C   0  0  0  0  0  0  0  0  0  0  0  0
   12.0820  -10.5970   -0.4780 C   0  0  0  0  0  0  0  0  0  0  0  0
    9.7150  -13.2840   -1.8300 C   0  0  0  0  0  0  0  0  0  0  0  0
    9.0930  -12.9810   -0.8100 O   0  0  0  0  0  0  0  0  0  0  0  0
    9.5850  -14.4590   -2.5490 N   0  0  0  0  0  0  0  0  0  0  0  0
    8.7450  -15.5550   -2.2710 C   0  0  0  0  0  0  0  0  0  0  0  0
    9.0090  -16.5200   -1.2990 C   0  0  0  0  0  0  0  0  0  0  0  0
    8.1170  -17.5810   -1.0910 C   0  0  0  0  0  0  0  0  0  0  0  0
    6.9460  -17.6980   -1.8500 C   0  0  0  0  0  0  0  0  0  0  0  0
    6.0190  -18.8010   -1.6360 C   0  0  0  0  0  0  0  0  0  0  0  0
    6.0030  -19.5530   -0.4820 N   0  0  0  0  0  0  0  0  0  0  0  0
    5.0480  -20.4600   -0.6260 N   0  0  0  0  0  0  0  0  0  0  0  0
    4.5390  -20.2220   -1.8380 N   0  0  0  0  0  0  0  0  0  0  0  0
    5.0900  -19.2080   -2.5210 N   0  0  0  0  0  0  0  0  0  0  0  0
    6.6850  -16.7280   -2.8250 C   0  0  0  0  0  0  0  0  0  0  0  0
    7.5750  -15.6670   -3.0320 C   0  0  0  0  0  0  0  0  0  0  0  0
   11.2496  -12.5051   -6.5985 H   0  0  0  0  0  0  0  0  0  0  0  0
   13.9177  -13.8228   -5.8101 H   0  0  0  0  0  0  0  0  0  0  0  0
   14.5047  -12.3241   -8.2770 H   0  0  0  0  0  0  0  0  0  0  0  0
   13.2710  -14.5972  -11.7238 H   0  0  0  0  0  0  0  0  0  0  0  0
   11.8002  -15.9885  -10.2775 H   0  0  0  0  0  0  0  0  0  0  0  0
    9.4995  -14.8323   -7.5119 H   0  0  0  0  0  0  0  0  0  0  0  0
   10.1790  -13.2030   -4.2380 H   0  0  0  0  0  0  0  0  0  0  0  0
   11.7226  -12.4013   -1.8620 H   0  0  0  0  0  0  0  0  0  0  0  0
   10.6747  -10.2959   -3.1573 H   0  0  0  0  0  0  0  0  0  0  0  0
    9.2292  -10.8512   -2.1907 H   0  0  0  0  0  0  0  0  0  0  0  0
    9.2098   -8.7865   -0.8552 H   0  0  0  0  0  0  0  0  0  0  0  0
   10.0728   -7.7423    1.2356 H   0  0  0  0  0  0  0  0  0  0  0  0
   12.2235   -8.5216    2.2291 H   0  0  0  0  0  0  0  0  0  0  0  0
   13.5169  -10.3446    1.1233 H   0  0  0  0  0  0  0  0  0  0  0  0
   12.6568  -11.4004   -0.9619 H   0  0  0  0  0  0  0  0  0  0  0  0
   10.1910  -14.5700   -3.3560 H   0  0  0  0  0  0  0  0  0  0  0  0
    9.9233  -16.4479   -0.6917 H   0  0  0  0  0  0  0  0  0  0  0  0
    8.3402  -18.3331   -0.3199 H   0  0  0  0  0  0  0  0  0  0  0  0
    3.7790  -20.7790   -2.2150 H   0  0  0  0  0  0  0  0  0  0  0  0
    5.7720  -16.8000   -3.4343 H   0  0  0  0  0  0  0  0  0  0  0  0
    7.3525  -14.9129   -3.8013 H   0  0  0  0  0  0  0  0  0  0  0  0
  1  2  2  0
  2  3  1  0
  3  4  2  0
  4  5  1  0
  5  6  2  0
  6  7  1  0
  7  8  1  0
  7  9  2  0
  9 10  1  0
 10 11  2  0
 11 12  1  0
 12 13  1  0
 13 14  2  0
 14 15  1  0
 15 16  2  0
  2 17  1  0
 17 18  1  0
 18 19  1  0
 19 20  1  0
 20 21  2  0
 21 22  1  0
 22 23  2  0
 23 24  1  0
 24 25  2  0
 18 26  1  0
 26 27  2  0
 26 28  1  0
 28 29  1  0
 29 30  2  0
 30 31  1  0
 31 32  2  0
 32 33  1  0
 33 34  1  0
 34 35  2  0
 35 36  1  0
 36 37  1  0
 32 38  1  0
 38 39  2  0
 11  5  1  0
 16 12  1  0
 25 20  1  0
 39 29  1  0
 37 33  2  0
  3 40  1  0
  4 41  1  0
  6 42  1  0
  9 43  1  0
 10 44  1  0
 13 45  1  0
 17 46  1  0
 18 47  1  1
 19 48  1  0
 19 49  1  0
 21 50  1  0
 22 51  1  0
 23 52  1  0
 24 53  1  0
 25 54  1  0
 28 55  1  0
 30 56  1  0
 31 57  1  0
 36 58  1  0
 38 59  1  0
 39 60  1  0
M  END
>  <meeko>  (4) 
{"is_sidechain": [false], "free_energy": -8.623, "intermolecular_energy": -13.256, "internal_energy": -1.541}

$$$$
4crc_ligand
     RDKit          3D

 60 64  0  0  0  0  0  0  0  0999 V2000
    9.6960  -13.2260   -4.3600 O   0  0  0  0  0  0  0  0  0  0  0  0
   10.9210  -13.2430   -4.3830 C   0  0  0  0  0  0  0  0  0  0  0  0
   11.6400  -13.2550   -5.6780 C   0  0  0  0  0  0  0  0  0  0  0  0
   11.5820  -14.2690   -6.5570 C   0  0  0  0  0  0  0  0  0  0  0  0
   12.3430  -14.2350   -7.8110 C   0  0  0  0  0  0  0  0  0  0  0  0
   11.6520  -13.6910   -8.9140 C   0  0  0  0  0  0  0  0  0  0  0  0
   12.2410  -13.6290  -10.1750 C   0  0  0  0  0  0  0  0  0  0  0  0
   11.3690  -12.9610  -11.4970 Cl  0  0  0  0  0  0  0  0  0  0  0  0
   13.5270  -14.1120  -10.3670 C   0  0  0  0  0  0  0  0  0  0  0  0
   14.2280  -14.6550   -9.2880 C   0  0  0  0  0  0  0  0  0  0  0  0
   13.6550  -14.7210   -7.9960 C   0  0  0  0  0  0  0  0  0  0  0  0
   14.4610  -15.2820   -6.9610 N   0  0  0  0  0  0  0  0  0  0  0  0
   14.7850  -16.5800   -6.6470 C   0  0  0  0  0  0  0  0  0  0  0  0
   15.5800  -16.6000   -5.6020 N   0  0  0  0  0  0  0  0  0  0  0  0
   15.7500  -15.2950   -5.2380 N   0  0  0  0  0  0  0  0  0  0  0  0
   15.0740  -14.4880   -6.0420 N   0  0  0  0  0  0  0  0  0  0  0  0
   11.7040  -13.2930   -3.2680 N   0  0  0  0  0  0  0  0  0  0  0  0
   11.1360  -13.2740   -1.9190 C   0  0  1  0  0  0  0  0  0  0  0  0
   10.1220  -12.1260   -1.7600 C   0  0  0  0  0  0  0  0  0  0  0  0
   10.6210  -11.0040   -0.8810 C   0  0  0  0  0  0  0  0  0  0  0  0
    9.9070   -9.8030   -0.7780 C   0  0  0  0  0  0  0  0  0  0  0  0
   10.3500   -8.7890    0.0730 C   0  0  0  0  0  0  0  0  0  0  0  0
   11.5140   -8.9620    0.8200 C   0  0  0  0  0  0  0  0  0  0  0  0
   12.2380  -10.1480    0.7140 C   0  0  0  0  0  0  0  0  0  0  0  0
   11.7960  -11.1650   -0.1330 C   0  0  0  0  0  0  0  0  0  0  0  0
   10.4650  -14.6500   -1.7050 C   0  0  0  0  0  0  0  0  0  0  0  0
   11.1550  -15.6510   -1.5070 O   0  0  0  0  0  0  0  0  0  0  0  0
    9.0850  -14.6100   -1.7820 N   0  0  0  0  0  0  0  0  0  0  0  0
    8.1800  -15.6850   -1.6700 C   0  0  0  0  0  0  0  0  0  0  0  0
    7.3280  -16.1020   -2.6920 C   0  0  0  0  0  0  0  0  0  0  0  0
    6.4560  -17.1820   -2.4930 C   0  0  0  0  0  0  0  0  0  0  0  0
    6.4200  -17.8630   -1.2700 C   0  0  0  0  0  0  0  0  0  0  0  0
    5.5130  -18.9840   -1.0610 C   0  0  0  0  0  0  0  0  0  0  0  0
    5.3120  -19.9700   -2.0010 N   0  0  0  0  0  0  0  0  0  0  0  0
    4.4350  -20.8190   -1.4880 N   0  0  0  0  0  0  0  0  0  0  0  0
    4.1490  -20.3180   -0.2830 N   0  0  0  0  0  0  0  0  0  0  0  0
    4.7810  -19.1840    0.0500 N   0  0  0  0  0  0  0  0  0  0  0  0
    7.2770  -17.4400   -0.2460 C   0  0  0  0  0  0  0  0  0  0  0  0
    8.1480  -16.3630   -0.4460 C   0  0  0  0  0  0  0  0  0  0  0  0
   12.2579  -12.3820   -5.9350 H   0  0  0  0  0  0  0  0  0  0  0  0
   10.9516  -15.1420   -6.3323 H   0  0  0  0  0  0  0  0  0  0  0  0
   10.6298  -13.3089   -8.7759 H   0  0  0  0  0  0  0  0  0  0  0  0
   13.9919  -14.0676  -11.3630 H   0  0  0  0  0  0  0  0  0  0  0  0
   15.2465  -15.0393   -9.4458 H   0  0  0  0  0  0  0  0  0  0  0  0
   14.4314  -17.4691   -7.1897 H   0  0  0  0  0  0  0  0  0  0  0  0
   12.7130  -13.3840   -3.3240 H   0  0  0  0  0  0  0  0  0  0  0  0
   11.9175  -13.0991   -1.1649 H   0  0  0  0  0  0  0  0  0  0  0  0
    9.8998  -11.7162   -2.7564 H   0  0  0  0  0  0  0  0  0  0  0  0
    9.2284  -12.5461   -1.2752 H   0  0  0  0  0  0  0  0  0  0  0  0
    8.9920   -9.6582   -1.3712 H   0  0  0  0  0  0  0  0  0  0  0  0
    9.7796   -7.8520    0.1542 H   0  0  0  0  0  0  0  0  0  0  0  0
   11.8607   -8.1634    1.4923 H   0  0  0  0  0  0  0  0  0  0  0  0
   13.1597  -10.2827    1.2991 H   0  0  0  0  0  0  0  0  0  0  0  0
   12.3726  -12.0982   -0.2144 H   0  0  0  0  0  0  0  0  0  0  0  0
    8.6640  -13.7070   -1.9790 H   0  0  0  0  0  0  0  0  0  0  0  0
    7.3400  -15.5805   -3.6604 H   0  0  0  0  0  0  0  0  0  0  0  0
    5.7905  -17.4989   -3.3096 H   0  0  0  0  0  0  0  0  0  0  0  0
    3.4900  -20.7750    0.3410 H   0  0  0  0  0  0  0  0  0  0  0  0
    7.2653  -17.9589    0.7239 H   0  0  0  0  0  0  0  0  0  0  0  0
    8.8155  -16.0455    0.3686 H   0  0  0  0  0  0  0  0  0  0  0  0
  1  2  2  0
  2  3  1  0
  3  4  2  0
  4  5  1  0
  5  6  2  0
  6  7  1  0
  7  8  1  0
  7  9  2  0
  9 10  1  0
 10 11  2  0
 11 12  1  0
 12 13  1  0
 13 14  2  0
 14 15  1  0
 15 16  2  0
  2 17  1  0
 17 18  1  0
 18 19  1  0
 19 20  1  0
 20 21  2  0
 21 22  1  0
 22 23  2  0
 23 24  1  0
 24 25  2  0
 18 26  1  0
 26 27  2  0
 26 28  1  0
 28 29  1  0
 29 30  2  0
 30 31  1  0
 31 32  2  0
 32 33  1  0
 33 34  1  0
 34 35  2  0
 35 36  1  0
 36 37  1  0
 32 38  1  0
 38 39  2  0
 11  5  1  0
 16 12  1  0
 25 20  1  0
 39 29  1  0
 37 33  2  0
  3 40  1  0
  4 41  1  0
  6 42  1  0
  9 43  1  0
 10 44  1  0
 13 45  1  0
 17 46  1  0
 18 47  1  1
 19 48  1  0
 19 49  1  0
 21 50  1  0
 22 51  1  0
 23 52  1  0
 24 53  1  0
 25 54  1  0
 28 55  1  0
 30 56  1  0
 31 57  1  0
 36 58  1  0
 38 59  1  0
 39 60  1  0
M  END
>  <meeko>  (5) 
{"is_sidechain": [false], "free_energy": -7.965, "intermolecular_energy": -12.806, "internal_energy": -0.986}

$$$$
4crc_ligand
     RDKit          3D

 60 64  0  0  0  0  0  0  0  0999 V2000
    6.7760  -15.0630   -3.2260 O   0  0  0  0  0  0  0  0  0  0  0  0
    7.7010  -15.1420   -2.4280 C   0  0  0  0  0  0  0  0  0  0  0  0
    8.6530  -14.0160   -2.2790 C   0  0  0  0  0  0  0  0  0  0  0  0
    9.7480  -13.8560   -3.0400 C   0  0  0  0  0  0  0  0  0  0  0  0
   10.6710  -12.7360   -2.8230 C   0  0  0  0  0  0  0  0  0  0  0  0
   10.3650  -11.9170   -1.7150 C   0  0  0  0  0  0  0  0  0  0  0  0
   11.1350  -10.7980   -1.4110 C   0  0  0  0  0  0  0  0  0  0  0  0
   10.7320   -9.8220   -0.0540 Cl  0  0  0  0  0  0  0  0  0  0  0  0
   12.2220  -10.4650   -2.2050 C   0  0  0  0  0  0  0  0  0  0  0  0
   12.5420  -11.2620   -3.3060 C   0  0  0  0  0  0  0  0  0  0  0  0
   11.7800  -12.4090   -3.6320 C   0  0  0  0  0  0  0  0  0  0  0  0
   12.1990  -13.1610   -4.7690 N   0  0  0  0  0  0  0  0  0  0  0  0
   12.9390  -14.3130   -4.8880 C   0  0  0  0  0  0  0  0  0  0  0  0
   13.0550  -14.6380   -6.1550 N   0  0  0  0  0  0  0  0  0  0  0  0
   12.3910  -13.6690   -6.8500 N   0  0  0  0  0  0  0  0  0  0  0  0
   11.8780  -12.7660   -6.0290 N   0  0  0  0  0  0  0  0  0  0  0  0
    7.9570  -16.2410   -1.6630 N   0  0  0  0  0  0  0  0  0  0  0  0
    7.0960  -17.4250   -1.6930 C   0  0  1  0  0  0  0  0  0  0  0  0
    7.8950  -18.6830   -2.0800 C   0  0  0  0  0  0  0  0  0  0  0  0
    9.3100  -18.3820   -2.5130 C   0  0  0  0  0  0  0  0  0  0  0  0
    9.5760  -17.8850   -3.7960 C   0  0  0  0  0  0  0  0  0  0  0  0
   10.8810  -17.5650   -4.1730 C   0  0  0  0  0  0  0  0  0  0  0  0
   11.9320  -17.7460   -3.2750 C   0  0  0  0  0  0  0  0  0  0  0  0
   11.6790  -18.2520   -2.0020 C   0  0  0  0  0  0  0  0  0  0  0  0
   10.3760  -18.5700   -1.6210 C   0  0  0  0  0  0  0  0  0  0  0  0
    6.4870  -17.5590   -0.2780 C   0  0  0  0  0  0  0  0  0  0  0  0
    6.9720  -16.9360    0.6680 O   0  0  0  0  0  0  0  0  0  0  0  0
    5.4120  -18.4270   -0.2190 N   0  0  0  0  0  0  0  0  0  0  0  0
    4.6600  -18.7990    0.9120 C   0  0  0  0  0  0  0  0  0  0  0  0
    4.8750  -19.9630    1.6490 C   0  0  0  0  0  0  0  0  0  0  0  0
    4.0760  -20.2560    2.7630 C   0  0  0  0  0  0  0  0  0  0  0  0
    3.0470  -19.3920    3.1600 C   0  0  0  0  0  0  0  0  0  0  0  0
    2.2140  -19.6960    4.3160 C   0  0  0  0  0  0  0  0  0  0  0  0
    2.5580  -20.6380    5.2600 N   0  0  0  0  0  0  0  0  0  0  0  0
    1.5860  -20.6570    6.1590 N   0  0  0  0  0  0  0  0  0  0  0  0
    0.7120  -19.7430    5.7260 N   0  0  0  0  0  0  0  0  0  0  0  0
    1.0370  -19.1060    4.5920 N   0  0  0  0  0  0  0  0  0  0  0  0
    2.8340  -18.2250    2.4160 C   0  0  0  0  0  0  0  0  0  0  0  0
    3.6330  -17.9320    1.3050 C   0  0  0  0  0  0  0  0  0  0  0  0
    8.4508  -13.2671   -1.4991 H   0  0  0  0  0  0  0  0  0  0  0  0
    9.9572  -14.5791   -3.8421 H   0  0  0  0  0  0  0  0  0  0  0  0
    9.5023  -12.1676   -1.0802 H   0  0  0  0  0  0  0  0  0  0  0  0
   12.8286   -9.5783   -1.9689 H   0  0  0  0  0  0  0  0  0  0  0  0
   13.4046  -10.9926   -3.9332 H   0  0  0  0  0  0  0  0  0  0  0  0
   13.3695  -14.8779   -4.0480 H   0  0  0  0  0  0  0  0  0  0  0  0
    8.7780  -16.3030   -1.0690 H   0  0  0  0  0  0  0  0  0  0  0  0
    6.3059  -17.3196   -2.4511 H   0  0  0  0  0  0  0  0  0  0  0  0
    7.9316  -19.3548   -1.2098 H   0  0  0  0  0  0  0  0  0  0  0  0
    7.3827  -19.1433   -2.9377 H   0  0  0  0  0  0  0  0  0  0  0  0
    8.7511  -17.7463   -4.5103 H   0  0  0  0  0  0  0  0  0  0  0  0
   11.0806  -17.1695   -5.1798 H   0  0  0  0  0  0  0  0  0  0  0  0
   12.9598  -17.4895   -3.5714 H   0  0  0  0  0  0  0  0  0  0  0  0
   12.5091  -18.4010   -1.2958 H   0  0  0  0  0  0  0  0  0  0  0  0
   10.1829  -18.9707   -0.6149 H   0  0  0  0  0  0  0  0  0  0  0  0
    5.1470  -18.8860   -1.0860 H   0  0  0  0  0  0  0  0  0  0  0  0
    5.6769  -20.6559    1.3543 H   0  0  0  0  0  0  0  0  0  0  0  0
    4.2597  -21.1781    3.3340 H   0  0  0  0  0  0  0  0  0  0  0  0
   -0.1460  -19.5450    6.2330 H   0  0  0  0  0  0  0  0  0  0  0  0
    2.0311  -17.5320    2.7076 H   0  0  0  0  0  0  0  0  0  0  0  0
    3.4521  -17.0096    0.7336 H   0  0  0  0  0  0  0  0  0  0  0  0
  1  2  2  0
  2  3  1  0
  3  4  2  0
  4  5  1  0
  5  6  2  0
  6  7  1  0
  7  8  1  0
  7  9  2  0
  9 10  1  0
 10 11  2  0
 11 12  1  0
 12 13  1  0
 13 14  2  0
 14 15  1  0
 15 16  2  0
  2 17  1  0
 17 18  1  0
 18 19  1  0
 19 20  1  0
 20 21  2  0
 21 22  1  0
 22 23  2  0
 23 24  1  0
 24 25  2  0
 18 26  1  0
 26 27  2  0
 26 28  1  0
 28 29  1  0
 29 30  2  0
 30 31  1  0
 31 32  2  0
 32 33  1  0
 33 34  1  0
 34 35  2  0
 35 36  1  0
 36 37  1  0
 32 38  1  0
 38 39  2  0
 11  5  1  0
 16 12  1  0
 25 20  1  0
 39 29  1  0
 37 33  2  0
  3 40  1  0
  4 41  1  0
  6 42  1  0
  9 43  1  0
 10 44  1  0
 13 45  1  0
 17 46  1  0
 18 47  1  6
 19 48  1  0
 19 49  1  0
 21 50  1  0
 22 51  1  0
 23 52  1  0
 24 53  1  0
 25 54  1  0
 28 55  1  0
 30 56  1  0
 31 57  1  0
 36 58  1  0
 38 59  1  0
 39 60  1  0
M  END
>  <meeko>  (6) 
{"is_sidechain": [false], "free_energy": -7.933, "intermolecular_energy": -12.102, "internal_energy": -1.641}

$$$$
4crc_ligand
     RDKit          3D

 60 64  0  0  0  0  0  0  0  0999 V2000
    8.1430  -14.4900   -5.9800 O   0  0  0  0  0  0  0  0  0  0  0  0
    9.0840  -15.2730   -5.9280 C   0  0  0  0  0  0  0  0  0  0  0  0
   10.1910  -15.1700   -6.9080 C   0  0  0  0  0  0  0  0  0  0  0  0
   10.7380  -14.0080   -7.3000 C   0  0  0  0  0  0  0  0  0  0  0  0
   11.8120  -13.9700   -8.2990 C   0  0  0  0  0  0  0  0  0  0  0  0
   11.4920  -14.5550   -9.5420 C   0  0  0  0  0  0  0  0  0  0  0  0
   12.4280  -14.6210  -10.5710 C   0  0  0  0  0  0  0  0  0  0  0  0
   12.0030  -15.3420  -12.0730 Cl  0  0  0  0  0  0  0  0  0  0  0  0
   13.7050  -14.1120  -10.3840 C   0  0  0  0  0  0  0  0  0  0  0  0
   14.0420  -13.5290   -9.1600 C   0  0  0  0  0  0  0  0  0  0  0  0
   13.1070  -13.4430   -8.1020 C   0  0  0  0  0  0  0  0  0  0  0  0
   13.5490  -12.8160   -6.8990 N   0  0  0  0  0  0  0  0  0  0  0  0
   13.2990  -11.5770   -6.3620 C   0  0  0  0  0  0  0  0  0  0  0  0
   13.9240  -11.4560   -5.2130 N   0  0  0  0  0  0  0  0  0  0  0  0
   14.5920  -12.6310   -5.0280 N   0  0  0  0  0  0  0  0  0  0  0  0
   14.3840  -13.4580   -6.0400 N   0  0  0  0  0  0  0  0  0  0  0  0
    9.1780  -16.2930   -5.0300 N   0  0  0  0  0  0  0  0  0  0  0  0
    8.1680  -16.5110   -3.9930 C   0  0  1  0  0  0  0  0  0  0  0  0
    8.5390  -17.7090   -3.1000 C   0  0  0  0  0  0  0  0  0  0  0  0
    7.6130  -17.8830   -1.9200 C   0  0  0  0  0  0  0  0  0  0  0  0
    6.4420  -18.6460   -2.0350 C   0  0  0  0  0  0  0  0  0  0  0  0
    5.6150  -18.8410   -0.9280 C   0  0  0  0  0  0  0  0  0  0  0  0
    5.9450  -18.2720    0.3000 C   0  0  0  0  0  0  0  0  0  0  0  0
    7.1010  -17.5020    0.4220 C   0  0  0  0  0  0  0  0  0  0  0  0
    7.9310  -17.3060   -0.6820 C   0  0  0  0  0  0  0  0  0  0  0  0
    8.0900  -15.2020   -3.1750 C   0  0  0  0  0  0  0  0  0  0  0  0
    6.9970  -14.6900   -2.9270 O   0  0  0  0  0  0  0  0  0  0  0  0
    9.3270  -14.7090   -2.8010 N   0  0  0  0  0  0  0  0  0  0  0  0
    9.6080  -13.5280   -2.0860 C   0  0  0  0  0  0  0  0  0  0  0  0
    9.4350  -13.3840   -0.7100 C   0  0  0  0  0  0  0  0  0  0  0  0
    9.7380  -12.1690   -0.0790 C   0  0  0  0  0  0  0  0  0  0  0  0
   10.2180  -11.0760   -0.8130 C   0  0  0  0  0  0  0  0  0  0  0  0
   10.5320   -9.8130   -0.1590 C   0  0  0  0  0  0  0  0  0  0  0  0
    9.9030   -8.6290   -0.4770 N   0  0  0  0  0  0  0  0  0  0  0  0
   10.4270   -7.6930    0.3000 N   0  0  0  0  0  0  0  0  0  0  0  0
   11.3340   -8.3400    1.0390 N   0  0  0  0  0  0  0  0  0  0  0  0
   11.4520   -9.6550    0.8100 N   0  0  0  0  0  0  0  0  0  0  0  0
   10.3890  -11.2250   -2.1940 C   0  0  0  0  0  0  0  0  0  0  0  0
   10.0880  -12.4390   -2.8230 C   0  0  0  0  0  0  0  0  0  0  0  0
   10.5880  -16.1005   -7.3398 H   0  0  0  0  0  0  0  0  0  0  0  0
   10.3738  -13.0662   -6.8637 H   0  0  0  0  0  0  0  0  0  0  0  0
   10.4845  -14.9667   -9.7015 H   0  0  0  0  0  0  0  0  0  0  0  0
   14.4471  -14.1671  -11.1941 H   0  0  0  0  0  0  0  0  0  0  0  0
   15.0562  -13.1282   -9.0159 H   0  0  0  0  0  0  0  0  0  0  0  0
   12.6699  -10.8023   -6.8246 H   0  0  0  0  0  0  0  0  0  0  0  0
    9.9330  -16.9710   -5.0640 H   0  0  0  0  0  0  0  0  0  0  0  0
    7.1913  -16.7525   -4.4377 H   0  0  0  0  0  0  0  0  0  0  0  0
    8.5031  -18.6237   -3.7100 H   0  0  0  0  0  0  0  0  0  0  0  0
    9.5454  -17.5177   -2.6993 H   0  0  0  0  0  0  0  0  0  0  0  0
    6.1738  -19.0934   -3.0035 H   0  0  0  0  0  0  0  0  0  0  0  0
    4.7009  -19.4451   -1.0252 H   0  0  0  0  0  0  0  0  0  0  0  0
    5.2942  -18.4300    1.1726 H   0  0  0  0  0  0  0  0  0  0  0  0
    7.3589  -17.0483    1.3903 H   0  0  0  0  0  0  0  0  0  0  0  0
    8.8403  -16.6953   -0.5809 H   0  0  0  0  0  0  0  0  0  0  0  0
   10.1400  -15.2360   -3.1060 H   0  0  0  0  0  0  0  0  0  0  0  0
    9.0583  -14.2293   -0.1154 H   0  0  0  0  0  0  0  0  0  0  0  0
    9.5969  -12.0724    1.0076 H   0  0  0  0  0  0  0  0  0  0  0  0
   11.8980   -7.8580    1.7330 H   0  0  0  0  0  0  0  0  0  0  0  0
   10.7634  -10.3803   -2.7909 H   0  0  0  0  0  0  0  0  0  0  0  0
   10.2304  -12.5383   -3.9092 H   0  0  0  0  0  0  0  0  0  0  0  0
  1  2  2  0
  2  3  1  0
  3  4  2  0
  4  5  1  0
  5  6  2  0
  6  7  1  0
  7  8  1  0
  7  9  2  0
  9 10  1  0
 10 11  2  0
 11 12  1  0
 12 13  1  0
 13 14  2  0
 14 15  1  0
 15 16  2  0
  2 17  1  0
 17 18  1  0
 18 19  1  0
 19 20  1  0
 20 21  2  0
 21 22  1  0
 22 23  2  0
 23 24  1  0
 24 25  2  0
 18 26  1  0
 26 27  2  0
 26 28  1  0
 28 29  1  0
 29 30  2  0
 30 31  1  0
 31 32  2  0
 32 33  1  0
 33 34  1  0
 34 35  2  0
 35 36  1  0
 36 37  1  0
 32 38  1  0
 38 39  2  0
 11  5  1  0
 16 12  1  0
 25 20  1  0
 39 29  1  0
 37 33  2  0
  3 40  1  0
  4 41  1  0
  6 42  1  0
  9 43  1  0
 10 44  1  0
 13 45  1  0
 17 46  1  0
 18 47  1  6
 19 48  1  0
 19 49  1  0
 21 50  1  0
 22 51  1  0
 23 52  1  0
 24 53  1  0
 25 54  1  0
 28 55  1  0
 30 56  1  0
 31 57  1  0
 36 58  1  0
 38 59  1  0
 39 60  1  0
M  END
>  <meeko>  (7) 
{"is_sidechain": [false], "free_energy": -7.773, "intermolecular_energy": -12.383, "internal_energy": -1.117}

$$$$
4crc_ligand
     RDKit          3D

 60 64  0  0  0  0  0  0  0  0999 V2000
    9.9020  -12.8080   -4.4570 O   0  0  0  0  0  0  0  0  0  0  0  0
   10.9220  -13.4660   -4.2930 C   0  0  0  0  0  0  0  0  0  0  0  0
   11.4850  -14.2570   -5.4120 C   0  0  0  0  0  0  0  0  0  0  0  0
   12.5100  -15.1150   -5.2800 C   0  0  0  0  0  0  0  0  0  0  0  0
   13.0440  -15.8470   -6.4340 C   0  0  0  0  0  0  0  0  0  0  0  0
   12.5450  -17.1580   -6.5930 C   0  0  0  0  0  0  0  0  0  0  0  0
   12.9920  -17.9790   -7.6250 C   0  0  0  0  0  0  0  0  0  0  0  0
   12.3620  -19.5710   -7.7870 Cl  0  0  0  0  0  0  0  0  0  0  0  0
   13.9470  -17.5180   -8.5180 C   0  0  0  0  0  0  0  0  0  0  0  0
   14.4540  -16.2240   -8.3780 C   0  0  0  0  0  0  0  0  0  0  0  0
   14.0110  -15.3670   -7.3430 C   0  0  0  0  0  0  0  0  0  0  0  0
   14.5830  -14.0610   -7.2980 N   0  0  0  0  0  0  0  0  0  0  0  0
   15.7150  -13.5730   -6.6920 C   0  0  0  0  0  0  0  0  0  0  0  0
   15.8390  -12.2900   -6.9470 N   0  0  0  0  0  0  0  0  0  0  0  0
   14.7590  -11.9580   -7.7130 N   0  0  0  0  0  0  0  0  0  0  0  0
   13.9870  -13.0130   -7.9260 N   0  0  0  0  0  0  0  0  0  0  0  0
   11.5850  -13.5610   -3.1050 N   0  0  0  0  0  0  0  0  0  0  0  0
   11.1550  -12.8260   -1.9150 C   0  0  1  0  0  0  0  0  0  0  0  0
   10.9300  -11.3370   -2.2340 C   0  0  0  0  0  0  0  0  0  0  0  0
   11.0670  -10.4400   -1.0260 C   0  0  0  0  0  0  0  0  0  0  0  0
   12.1440  -10.5900   -0.1410 C   0  0  0  0  0  0  0  0  0  0  0  0
   12.2890   -9.7280    0.9460 C   0  0  0  0  0  0  0  0  0  0  0  0
   11.3570   -8.7140    1.1640 C   0  0  0  0  0  0  0  0  0  0  0  0
   10.2770   -8.5650    0.2970 C   0  0  0  0  0  0  0  0  0  0  0  0
   10.1300   -9.4240   -0.7920 C   0  0  0  0  0  0  0  0  0  0  0  0
    9.8510  -13.5000   -1.4300 C   0  0  0  0  0  0  0  0  0  0  0  0
    9.0710  -12.8870   -0.6990 O   0  0  0  0  0  0  0  0  0  0  0  0
    9.6990  -14.7990   -1.8810 N   0  0  0  0  0  0  0  0  0  0  0  0
    8.6510  -15.6970   -1.5960 C   0  0  0  0  0  0  0  0  0  0  0  0
    7.7400  -16.1640   -2.5430 C   0  0  0  0  0  0  0  0  0  0  0  0
    6.7250  -17.0570   -2.1710 C   0  0  0  0  0  0  0  0  0  0  0  0
    6.6020  -17.4970   -0.8460 C   0  0  0  0  0  0  0  0  0  0  0  0
    5.5460  -18.4230   -0.4580 C   0  0  0  0  0  0  0  0  0  0  0  0
    4.7940  -18.2640    0.6850 N   0  0  0  0  0  0  0  0  0  0  0  0
    3.9380  -19.2740    0.7280 N   0  0  0  0  0  0  0  0  0  0  0  0
    4.2060  -19.9860   -0.3710 N   0  0  0  0  0  0  0  0  0  0  0  0
    5.1880  -19.5170   -1.1540 N   0  0  0  0  0  0  0  0  0  0  0  0
    7.5180  -17.0240    0.1000 C   0  0  0  0  0  0  0  0  0  0  0  0
    8.5320  -16.1340   -0.2720 C   0  0  0  0  0  0  0  0  0  0  0  0
   11.0374  -14.1345   -6.4093 H   0  0  0  0  0  0  0  0  0  0  0  0
   12.9577  -15.2719   -4.2876 H   0  0  0  0  0  0  0  0  0  0  0  0
   11.7897  -17.5377   -5.8892 H   0  0  0  0  0  0  0  0  0  0  0  0
   14.3032  -18.1671   -9.3315 H   0  0  0  0  0  0  0  0  0  0  0  0
   15.2136  -15.8637   -9.0873 H   0  0  0  0  0  0  0  0  0  0  0  0
   16.4132  -14.1673   -6.0842 H   0  0  0  0  0  0  0  0  0  0  0  0
   12.3820  -14.1770   -2.9830 H   0  0  0  0  0  0  0  0  0  0  0  0
   11.9264  -12.8582   -1.1315 H   0  0  0  0  0  0  0  0  0  0  0  0
   11.6698  -11.0253   -2.9861 H   0  0  0  0  0  0  0  0  0  0  0  0
    9.8980  -11.2346   -2.6007 H   0  0  0  0  0  0  0  0  0  0  0  0
   12.8788  -11.3920   -0.3048 H   0  0  0  0  0  0  0  0  0  0  0  0
   13.1401   -9.8483    1.6324 H   0  0  0  0  0  0  0  0  0  0  0  0
   11.4745   -8.0326    2.0195 H   0  0  0  0  0  0  0  0  0  0  0  0
    9.5387   -7.7684    0.4715 H   0  0  0  0  0  0  0  0  0  0  0  0
    9.2734   -9.3034   -1.4715 H   0  0  0  0  0  0  0  0  0  0  0  0
   10.4460  -15.1730   -2.4590 H   0  0  0  0  0  0  0  0  0  0  0  0
    7.8182  -15.8298   -3.5881 H   0  0  0  0  0  0  0  0  0  0  0  0
    6.0151  -17.4174   -2.9300 H   0  0  0  0  0  0  0  0  0  0  0  0
    3.6910  -20.8320   -0.5960 H   0  0  0  0  0  0  0  0  0  0  0  0
    7.4404  -17.3549    1.1462 H   0  0  0  0  0  0  0  0  0  0  0  0
    9.2438  -15.7738    0.4853 H   0  0  0  0  0  0  0  0  0  0  0  0
  1  2  2  0
  2  3  1  0
  3  4  2  0
  4  5  1  0
  5  6  2  0
  6  7  1  0
  7  8  1  0
  7  9  2  0
  9 10  1  0
 10 11  2  0
 11 12  1  0
 12 13  1  0
 13 14  2  0
 14 15  1  0
 15 16  2  0
  2 17  1  0
 17 18  1  0
 18 19  1  0
 19 20  1  0
 20 21  2  0
 21 22  1  0
 22 23  2  0
 23 24  1  0
 24 25  2  0
 18 26  1  0
 26 27  2  0
 26 28  1  0
 28 29  1  0
 29 30  2  0
 30 31  1  0
 31 32  2  0
 32 33  1  0
 33 34  1  0
 34 35  2  0
 35 36  1  0
 36 37  1  0
 32 38  1  0
 38 39  2  0
 11  5  1  0
 16 12  1  0
 25 20  1  0
 39 29  1  0
 37 33  2  0
  3 40  1  0
  4 41  1  0
  6 42  1  0
  9 43  1  0
 10 44  1  0
 13 45  1  0
 17 46  1  0
 18 47  1  1
 19 48  1  0
 19 49  1  0
 21 50  1  0
 22 51  1  0
 23 52  1  0
 24 53  1  0
 25 54  1  0
 28 55  1  0
 30 56  1  0
 31 57  1  0
 36 58  1  0
 38 59  1  0
 39 60  1  0
M  END
>  <meeko>  (8) 
{"is_sidechain": [false], "free_energy": -7.688, "intermolecular_energy": -12.829, "internal_energy": -0.54}

$$$$
4crc_ligand
     RDKit          3D

 60 64  0  0  0  0  0  0  0  0999 V2000
    7.2290  -14.1070   -5.0740 O   0  0  0  0  0  0  0  0  0  0  0  0
    8.0140  -14.5870   -4.2650 C   0  0  0  0  0  0  0  0  0  0  0  0
    7.6320  -15.7820   -3.4770 C   0  0  0  0  0  0  0  0  0  0  0  0
    8.4340  -16.3720   -2.5760 C   0  0  0  0  0  0  0  0  0  0  0  0
    8.0100  -17.5740   -1.8490 C   0  0  0  0  0  0  0  0  0  0  0  0
    6.7890  -17.4510   -1.1530 C   0  0  0  0  0  0  0  0  0  0  0  0
    6.2830  -18.5010   -0.3920 C   0  0  0  0  0  0  0  0  0  0  0  0
    4.7920  -18.3160    0.4430 Cl  0  0  0  0  0  0  0  0  0  0  0  0
    6.9840  -19.6950   -0.3010 C   0  0  0  0  0  0  0  0  0  0  0  0
    8.1960  -19.8360   -0.9810 C   0  0  0  0  0  0  0  0  0  0  0  0
    8.7270  -18.7870   -1.7670 C   0  0  0  0  0  0  0  0  0  0  0  0
    9.9630  -19.0400   -2.4320 N   0  0  0  0  0  0  0  0  0  0  0  0
   11.2640  -18.7470   -2.0980 C   0  0  0  0  0  0  0  0  0  0  0  0
   12.0740  -19.1990   -3.0280 N   0  0  0  0  0  0  0  0  0  0  0  0
   11.2730  -19.7730   -3.9720 N   0  0  0  0  0  0  0  0  0  0  0  0
    9.9970  -19.6780   -3.6320 N   0  0  0  0  0  0  0  0  0  0  0  0
    9.2440  -14.0660   -3.9960 N   0  0  0  0  0  0  0  0  0  0  0  0
    9.7640  -12.8960   -4.7050 C   0  0  1  0  0  0  0  0  0  0  0  0
    9.5550  -11.6110   -3.8820 C   0  0  0  0  0  0  0  0  0  0  0  0
   10.2810  -11.6240   -2.5580 C   0  0  0  0  0  0  0  0  0  0  0  0
   11.4280  -10.8430   -2.3620 C   0  0  0  0  0  0  0  0  0  0  0  0
   12.0660  -10.8240   -1.1220 C   0  0  0  0  0  0  0  0  0  0  0  0
   11.5700  -11.5910   -0.0690 C   0  0  0  0  0  0  0  0  0  0  0  0
   10.4370  -12.3810   -0.2570 C   0  0  0  0  0  0  0  0  0  0  0  0
    9.7950  -12.4000   -1.4960 C   0  0  0  0  0  0  0  0  0  0  0  0
   11.2660  -13.1650   -4.9540 C   0  0  0  0  0  0  0  0  0  0  0  0
   11.7900  -14.1960   -4.5300 O   0  0  0  0  0  0  0  0  0  0  0  0
   11.9010  -12.1530   -5.6520 N   0  0  0  0  0  0  0  0  0  0  0  0
   13.2610  -12.0690   -6.0100 C   0  0  0  0  0  0  0  0  0  0  0  0
   13.7520  -12.3230   -7.2900 C   0  0  0  0  0  0  0  0  0  0  0  0
   15.1240  -12.2180   -7.5570 C   0  0  0  0  0  0  0  0  0  0  0  0
   16.0300  -11.8590   -6.5500 C   0  0  0  0  0  0  0  0  0  0  0  0
   17.4560  -11.7520   -6.8260 C   0  0  0  0  0  0  0  0  0  0  0  0
   18.4240  -12.0400   -5.8890 N   0  0  0  0  0  0  0  0  0  0  0  0
   19.5970  -11.8370   -6.4710 N   0  0  0  0  0  0  0  0  0  0  0  0
   19.2920  -11.4420   -7.7100 N   0  0  0  0  0  0  0  0  0  0  0  0
   17.9860  -11.3680   -8.0020 N   0  0  0  0  0  0  0  0  0  0  0  0
   15.5320  -11.6070   -5.2660 C   0  0  0  0  0  0  0  0  0  0  0  0
   14.1620  -11.7100   -5.0000 C   0  0  0  0  0  0  0  0  0  0  0  0
    6.6324  -16.2113   -3.6396 H   0  0  0  0  0  0  0  0  0  0  0  0
    9.4287  -15.9457   -2.3790 H   0  0  0  0  0  0  0  0  0  0  0  0
    6.2263  -16.5077   -1.2128 H   0  0  0  0  0  0  0  0  0  0  0  0
    6.5880  -20.5250    0.3026 H   0  0  0  0  0  0  0  0  0  0  0  0
    8.7494  -20.7835   -0.9035 H   0  0  0  0  0  0  0  0  0  0  0  0
   11.5792  -18.2142   -1.1887 H   0  0  0  0  0  0  0  0  0  0  0  0
    9.8390  -14.4420   -3.2640 H   0  0  0  0  0  0  0  0  0  0  0  0
    9.2317  -12.7419   -5.6552 H   0  0  0  0  0  0  0  0  0  0  0  0
    9.9188  -10.7562   -4.4711 H   0  0  0  0  0  0  0  0  0  0  0  0
    8.4797  -11.5362   -3.6628 H   0  0  0  0  0  0  0  0  0  0  0  0
   11.8276  -10.2411   -3.1915 H   0  0  0  0  0  0  0  0  0  0  0  0
   12.9618  -10.2029   -0.9747 H   0  0  0  0  0  0  0  0  0  0  0  0
   12.0722  -11.5729    0.9095 H   0  0  0  0  0  0  0  0  0  0  0  0
   10.0484  -12.9903    0.5724 H   0  0  0  0  0  0  0  0  0  0  0  0
    8.9029  -13.0271   -1.6403 H   0  0  0  0  0  0  0  0  0  0  0  0
   11.3330  -11.3510   -5.9110 H   0  0  0  0  0  0  0  0  0  0  0  0
   13.0585  -12.6075   -8.0951 H   0  0  0  0  0  0  0  0  0  0  0  0
   15.4952  -12.4205   -8.5725 H   0  0  0  0  0  0  0  0  0  0  0  0
   20.0130  -11.2120   -8.3880 H   0  0  0  0  0  0  0  0  0  0  0  0
   16.2241  -11.3254   -4.4587 H   0  0  0  0  0  0  0  0  0  0  0  0
   13.7885  -11.5066   -3.9856 H   0  0  0  0  0  0  0  0  0  0  0  0
  1  2  2  0
  2  3  1  0
  3  4  2  0
  4  5  1  0
  5  6  2  0
  6  7  1  0
  7  8  1  0
  7  9  2  0
  9 10  1  0
 10 11  2  0
 11 12  1  0
 12 13  1  0
 13 14  2  0
 14 15  1  0
 15 16  2  0
  2 17  1  0
 17 18  1  0
 18 19  1  0
 19 20  1  0
 20 21  2  0
 21 22  1  0
 22 23  2  0
 23 24  1  0
 24 25  2  0
 18 26  1  0
 26 27  2  0
 26 28  1  0
 28 29  1  0
 29 30  2  0
 30 31  1  0
 31 32  2  0
 32 33  1  0
 33 34  1  0
 34 35  2  0
 35 36  1  0
 36 37  1  0
 32 38  1  0
 38 39  2  0
 11  5  1  0
 16 12  1  0
 25 20  1  0
 39 29  1  0
 37 33  2  0
  3 40  1  0
  4 41  1  0
  6 42  1  0
  9 43  1  0
 10 44  1  0
 13 45  1  0
 17 46  1  0
 18 47  1  6
 19 48  1  0
 19 49  1  0
 21 50  1  0
 22 51  1  0
 23 52  1  0
 24 53  1  0
 25 54  1  0
 28 55  1  0
 30 56  1  0
 31 57  1  0
 36 58  1  0
 38 59  1  0
 39 60  1  0
M  END
>  <meeko>  (9) 
{"is_sidechain": [false], "free_energy": -7.598, "intermolecular_energy": -11.674, "internal_energy": -1.559}

$$$$
