3pww_ligand
     RDKit          3D

100104  0  0  0  0  0  0  0  0999 V2000
    2.9600   -1.4960   12.1290 C   0  0  0  0  0  0  0  0  0  0  0  0
    2.2840   -0.5830   11.0890 C   0  0  0  0  0  0  0  0  0  0  0  0
    3.1640    0.6630   10.8990 C   0  0  0  0  0  0  0  0  0  0  0  0
    0.9000   -0.1810   11.6210 C   0  0  0  0  0  0  0  0  0  0  0  0
    2.1620   -1.3410    9.8260 N   0  0  0  0  0  0  0  0  0  0  0  0
    3.2100   -1.6240    8.9770 C   0  0  0  0  0  0  0  0  0  0  0  0
    4.3630   -1.2450    9.1680 O   0  0  0  0  0  0  0  0  0  0  0  0
    2.8390   -2.4330    7.7070 C   0  0  2  0  0  0  0  0  0  0  0  0
    1.7660   -3.5070    7.9350 C   0  0  0  0  0  0  0  0  0  0  0  0
    2.2670   -4.8050    8.5900 C   0  0  2  0  0  0  0  0  0  0  0  0
    2.4840   -4.6560   10.1050 C   0  0  0  0  0  0  0  0  0  0  0  0
    2.9790   -5.9570   10.7330 C   0  0  0  0  0  0  0  0  0  0  0  0
    4.2510   -6.4520   10.0540 C   0  0  0  0  0  0  0  0  0  0  0  0
    4.0550   -6.6090    8.5490 C   0  0  0  0  0  0  0  0  0  0  0  0
    3.5180   -5.3400    7.8690 C   0  0  2  0  0  0  0  0  0  0  0  0
    4.6030   -4.2670    7.7420 C   0  0  0  0  0  0  0  0  0  0  0  0
    4.0370   -3.0820    7.0080 N   0  0  2  0  0  0  0  0  0  0  0  0
    5.1180   -2.0730    6.5970 C   0  0  0  0  0  0  0  0  0  0  0  0
    5.3020   -2.1940    5.0720 C   0  0  1  0  0  0  0  0  0  0  0  0
    4.1030   -1.6430    4.4860 O   0  0  0  0  0  0  0  0  0  0  0  0
    6.6070   -1.5140    4.5750 C   0  0  2  0  0  0  0  0  0  0  0  0
    6.6290    0.0110    4.8410 C   0  0  0  0  0  0  0  0  0  0  0  0
    7.4340    0.7980    3.8310 C   0  0  0  0  0  0  0  0  0  0  0  0
    6.8140    1.6920    2.9470 C   0  0  0  0  0  0  0  0  0  0  0  0
    7.5720    2.4140    2.0250 C   0  0  0  0  0  0  0  0  0  0  0  0
    8.9540    2.2470    1.9710 C   0  0  0  0  0  0  0  0  0  0  0  0
    9.5800    1.3530    2.8360 C   0  0  0  0  0  0  0  0  0  0  0  0
    8.8250    0.6310    3.7600 C   0  0  0  0  0  0  0  0  0  0  0  0
    6.8730   -1.8320    3.1670 N   0  0  0  0  0  0  0  0  0  0  0  0
    7.7630   -2.7880    2.7350 C   0  0  0  0  0  0  0  0  0  0  0  0
    8.5320   -3.3470    3.5220 O   0  0  0  0  0  0  0  0  0  0  0  0
    7.7440   -3.0820    1.2170 C   0  0  2  0  0  0  0  0  0  0  0  0
    8.0900   -4.5430    0.9200 C   0  0  0  0  0  0  0  0  0  0  0  0
    9.5620   -4.7160    0.6320 C   0  0  0  0  0  0  0  0  0  0  0  0
   10.2750   -5.3180    1.6260 N   0  0  0  0  0  0  0  0  0  0  0  0
   10.0920   -4.4030   -0.4310 O   0  0  0  0  0  0  0  0  0  0  0  0
    8.7150   -2.1840    0.6010 N   0  0  0  0  0  0  0  0  0  0  0  0
    8.3700   -0.9580    0.0760 C   0  0  0  0  0  0  0  0  0  0  0  0
    7.2190   -0.5410    0.0500 O   0  0  0  0  0  0  0  0  0  0  0  0
    9.5220   -0.1690   -0.4680 C   0  0  0  0  0  0  0  0  0  0  0  0
    9.3000    0.7950   -1.4370 C   0  0  0  0  0  0  0  0  0  0  0  0
   10.3990    1.4990   -1.9140 C   0  0  0  0  0  0  0  0  0  0  0  0
   11.6770    1.2180   -1.4100 C   0  0  0  0  0  0  0  0  0  0  0  0
   12.8130    1.9060   -1.8680 C   0  0  0  0  0  0  0  0  0  0  0  0
   14.0720    1.6060   -1.3530 C   0  0  0  0  0  0  0  0  0  0  0  0
   14.2020    0.6200   -0.3820 C   0  0  0  0  0  0  0  0  0  0  0  0
   13.0690   -0.0620    0.0730 C   0  0  0  0  0  0  0  0  0  0  0  0
   11.8020    0.2150   -0.4210 C   0  0  0  0  0  0  0  0  0  0  0  0
   10.7460   -0.4710    0.0500 N   0  0  0  0  0  0  0  0  0  0  0  0
    2.7042   -1.1505   13.1415 H   0  0  0  0  0  0  0  0  0  0  0  0
    2.6075   -2.5292   11.9941 H   0  0  0  0  0  0  0  0  0  0  0  0
    4.0511   -1.4603   11.9941 H   0  0  0  0  0  0  0  0  0  0  0  0
    3.4479    1.0649   11.8828 H   0  0  0  0  0  0  0  0  0  0  0  0
    4.0706    0.3897   10.3391 H   0  0  0  0  0  0  0  0  0  0  0  0
    2.6033    1.4260   10.3391 H   0  0  0  0  0  0  0  0  0  0  0  0
    0.9146   -0.1852   12.7209 H   0  0  0  0  0  0  0  0  0  0  0  0
    0.6478    0.8275   11.2615 H   0  0  0  0  0  0  0  0  0  0  0  0
    0.1467   -0.8975   11.2615 H   0  0  0  0  0  0  0  0  0  0  0  0
    1.2180   -1.5860    9.5500 H   0  0  0  0  0  0  0  0  0  0  0  0
    2.4229   -1.6568    7.0479 H   0  0  0  0  0  0  0  0  0  0  0  0
    0.9872   -3.0778    8.5825 H   0  0  0  0  0  0  0  0  0  0  0  0
    1.4009   -3.7902    6.9368 H   0  0  0  0  0  0  0  0  0  0  0  0
    1.4721   -5.5565    8.4747 H   0  0  0  0  0  0  0  0  0  0  0  0
    3.2300   -3.8674   10.2828 H   0  0  0  0  0  0  0  0  0  0  0  0
    1.5199   -4.3963   10.5666 H   0  0  0  0  0  0  0  0  0  0  0  0
    3.1864   -5.7838   11.7993 H   0  0  0  0  0  0  0  0  0  0  0  0
    2.1985   -6.7218   10.6071 H   0  0  0  0  0  0  0  0  0  0  0  0
    5.0587   -5.7277   10.2359 H   0  0  0  0  0  0  0  0  0  0  0  0
    4.5066   -7.4361   10.4739 H   0  0  0  0  0  0  0  0  0  0  0  0
    5.0242   -6.8642    8.0957 H   0  0  0  0  0  0  0  0  0  0  0  0
    3.3055   -7.4001    8.3994 H   0  0  0  0  0  0  0  0  0  0  0  0
    3.2150   -5.6143    6.8477 H   0  0  0  0  0  0  0  0  0  0  0  0
    4.9336   -3.9565    8.7441 H   0  0  0  0  0  0  0  0  0  0  0  0
    5.4625   -4.6716    7.1874 H   0  0  0  0  0  0  0  0  0  0  0  0
    3.7000   -3.4170    6.0830 H   0  0  0  0  0  0  0  0  0  0  0  0
    4.7995   -1.0530    6.8579 H   0  0  0  0  0  0  0  0  0  0  0  0
    6.0629   -2.2798    7.1208 H   0  0  0  0  0  0  0  0  0  0  0  0
    5.4300   -3.2422    4.7640 H   0  0  0  0  0  0  0  0  0  0  0  0
    3.9500   -2.1560    3.6510 H   0  0  0  0  0  0  0  0  0  0  0  0
    7.4295   -1.9357    5.1714 H   0  0  0  0  0  0  0  0  0  0  0  0
    5.5932    0.3808    4.8221 H   0  0  0  0  0  0  0  0  0  0  0  0
    7.1122    0.1576    5.8183 H   0  0  0  0  0  0  0  0  0  0  0  0
    5.7226    1.8251    2.9806 H   0  0  0  0  0  0  0  0  0  0  0  0
    7.0772    3.1170    1.3388 H   0  0  0  0  0  0  0  0  0  0  0  0
    9.5501    2.8206    1.2460 H   0  0  0  0  0  0  0  0  0  0  0  0
   10.6705    1.2162    2.7905 H   0  0  0  0  0  0  0  0  0  0  0  0
    9.3246   -0.0756    4.4390 H   0  0  0  0  0  0  0  0  0  0  0  0
    6.1560   -1.5460    2.4910 H   0  0  0  0  0  0  0  0  0  0  0  0
    6.7359   -2.9158    0.8094 H   0  0  0  0  0  0  0  0  0  0  0  0
    7.8217   -5.1581    1.7916 H   0  0  0  0  0  0  0  0  0  0  0  0
    7.5251   -4.8572    0.0299 H   0  0  0  0  0  0  0  0  0  0  0  0
   11.2760   -5.4010    1.4980 H   0  0  0  0  0  0  0  0  0  0  0  0
    9.9190   -5.3980    2.5690 H   0  0  0  0  0  0  0  0  0  0  0  0
    9.7050   -2.4320    0.5920 H   0  0  0  0  0  0  0  0  0  0  0  0
    8.2874    0.9968   -1.8165 H   0  0  0  0  0  0  0  0  0  0  0  0
   10.2670    2.2736   -2.6838 H   0  0  0  0  0  0  0  0  0  0  0  0
   12.7078    2.6854   -2.6371 H   0  0  0  0  0  0  0  0  0  0  0  0
   14.9594    2.1470   -1.7132 H   0  0  0  0  0  0  0  0  0  0  0  0
   15.1935    0.3767    0.0275 H   0  0  0  0  0  0  0  0  0  0  0  0
   13.1852   -0.8388    0.8431 H   0  0  0  0  0  0  0  0  0  0  0  0
  1  2  1  0
  2  3  1  0
  2  4  1  0
  2  5  1  0
  5  6  1  0
  6  7  2  0
  6  8  1  0
  8  9  1  0
  9 10  1  0
 10 11  1  0
 11 12  1  0
 12 13  1  0
 13 14  1  0
 14 15  1  0
 15 16  1  0
 16 17  1  0
 17 18  1  0
 18 19  1  0
 19 20  1  0
 19 21  1  0
 21 22  1  0
 22 23  1  0
 23 24  2  0
 24 25  1  0
 25 26  2  0
 26 27  1  0
 27 28  2  0
 21 29  1  0
 29 30  1  0
 30 31  2  0
 30 32  1  0
 32 33  1  0
 33 34  1  0
 34 35  1  0
 34 36  2  0
 32 37  1  0
 37 38  1  0
 38 39  2  0
 38 40  1  0
 40 41  2  0
 41 42  1  0
 42 43  2  0
 43 44  1  0
 44 45  2  0
 45 46  1  0
 46 47  2  0
 47 48  1  0
 48 49  2  0
 17  8  1  0
 28 23  1  0
 49 40  1  0
 15 10  1  0
 48 43  1  0
  1 50  1  0
  1 51  1  0
  1 52  1  0
  3 53  1  0
  3 54  1  0
  3 55  1  0
  4 56  1  0
  4 57  1  0
  4 58  1  0
  5 59  1  0
  8 60  1  6
  9 61  1  0
  9 62  1  0
 10 63  1  1
 11 64  1  0
 11 65  1  0
 12 66  1  0
 12 67  1  0
 13 68  1  0
 13 69  1  0
 14 70  1  0
 14 71  1  0
 15 72  1  6
 16 73  1  0
 16 74  1  0
 17 75  1  6
 18 76  1  0
 18 77  1  0
 19 78  1  1
 20 79  1  0
 21 80  1  1
 22 81  1  0
 22 82  1  0
 24 83  1  0
 25 84  1  0
 26 85  1  0
 27 86  1  0
 28 87  1  0
 29 88  1  0
 32 89  1  6
 33 90  1  0
 33 91  1  0
 35 92  1  0
 35 93  1  0
 37 94  1  0
 41 95  1  0
 42 96  1  0
 44 97  1  0
 45 98  1  0
 46 99  1  0
 47100  1  0
M  CHG  1  17   1
M  END
>  <meeko>  (1) 
{"is_sidechain": [false], "free_energy": -10.212, "intermolecular_energy": -18.272, "internal_energy": -2.187}

$$$$
3pww_ligand
     RDKit          3D

100104  0  0  0  0  0  0  0  0999 V2000
    0.8540   -0.5710   11.8560 C   0  0  0  0  0  0  0  0  0  0  0  0
    2.2610   -0.6640   11.2340 C   0  0  0  0  0  0  0  0  0  0  0  0
    3.1500   -1.4900   12.1770 C   0  0  0  0  0  0  0  0  0  0  0  0
    2.8210    0.7590   11.0840 C   0  0  0  0  0  0  0  0  0  0  0  0
    2.1350   -1.3220    9.9170 N   0  0  0  0  0  0  0  0  0  0  0  0
    3.1660   -1.4780    9.0160 C   0  0  0  0  0  0  0  0  0  0  0  0
    4.3030   -1.0520    9.2020 O   0  0  0  0  0  0  0  0  0  0  0  0
    2.7930   -2.2000    7.6940 C   0  0  2  0  0  0  0  0  0  0  0  0
    1.7460   -3.3100    7.8570 C   0  0  0  0  0  0  0  0  0  0  0  0
    2.2830   -4.6420    8.4090 C   0  0  2  0  0  0  0  0  0  0  0  0
    2.5200   -4.5990    9.9280 C   0  0  0  0  0  0  0  0  0  0  0  0
    3.0510   -5.9310   10.4510 C   0  0  0  0  0  0  0  0  0  0  0  0
    4.3220   -6.3480    9.7220 C   0  0  0  0  0  0  0  0  0  0  0  0
    4.1080   -6.3980    8.2110 C   0  0  0  0  0  0  0  0  0  0  0  0
    3.5350   -5.0950    7.6340 C   0  0  2  0  0  0  0  0  0  0  0  0
    4.5950   -3.9930    7.5720 C   0  0  0  0  0  0  0  0  0  0  0  0
    3.9940   -2.7690    6.9340 N   0  0  2  0  0  0  0  0  0  0  0  0
    5.0470   -1.7100    6.5840 C   0  0  0  0  0  0  0  0  0  0  0  0
    4.9710   -1.4730    5.0630 C   0  0  1  0  0  0  0  0  0  0  0  0
    4.6230   -0.0820    4.8990 O   0  0  0  0  0  0  0  0  0  0  0  0
    6.2820   -1.8770    4.3330 C   0  0  2  0  0  0  0  0  0  0  0  0
    7.3610   -2.4300    5.2960 C   0  0  0  0  0  0  0  0  0  0  0  0
    7.7200   -3.8780    5.0480 C   0  0  0  0  0  0  0  0  0  0  0  0
    8.7170   -4.2320    4.1290 C   0  0  0  0  0  0  0  0  0  0  0  0
    9.0400   -5.5730    3.9170 C   0  0  0  0  0  0  0  0  0  0  0  0
    8.3660   -6.5730    4.6130 C   0  0  0  0  0  0  0  0  0  0  0  0
    7.3650   -6.2360    5.5210 C   0  0  0  0  0  0  0  0  0  0  0  0
    7.0420   -4.8960    5.7360 C   0  0  0  0  0  0  0  0  0  0  0  0
    6.7940   -0.7780    3.5060 N   0  0  0  0  0  0  0  0  0  0  0  0
    7.8530    0.0310    3.8480 C   0  0  0  0  0  0  0  0  0  0  0  0
    8.3550   -0.0150    4.9740 O   0  0  0  0  0  0  0  0  0  0  0  0
    8.3370    1.0000    2.7440 C   0  0  2  0  0  0  0  0  0  0  0  0
    7.2310    1.9650    2.3120 C   0  0  0  0  0  0  0  0  0  0  0  0
    7.7950    3.1710    1.5990 C   0  0  0  0  0  0  0  0  0  0  0  0
    6.9610    4.2460    1.5400 N   0  0  0  0  0  0  0  0  0  0  0  0
    8.9380    3.2260    1.1500 O   0  0  0  0  0  0  0  0  0  0  0  0
    8.7740    0.1760    1.6220 N   0  0  0  0  0  0  0  0  0  0  0  0
   10.0980    0.0200    1.2790 C   0  0  0  0  0  0  0  0  0  0  0  0
   11.0130    0.5900    1.8630 O   0  0  0  0  0  0  0  0  0  0  0  0
   10.3380   -0.9050    0.1250 C   0  0  0  0  0  0  0  0  0  0  0  0
   10.6370   -0.3860   -1.1240 C   0  0  0  0  0  0  0  0  0  0  0  0
   10.8470   -1.2820   -2.1640 C   0  0  0  0  0  0  0  0  0  0  0  0
   10.7530   -2.6600   -1.9250 C   0  0  0  0  0  0  0  0  0  0  0  0
   10.9570   -3.5980   -2.9510 C   0  0  0  0  0  0  0  0  0  0  0  0
   10.8540   -4.9630   -2.6870 C   0  0  0  0  0  0  0  0  0  0  0  0
   10.5480   -5.3940   -1.4010 C   0  0  0  0  0  0  0  0  0  0  0  0
   10.3470   -4.4580   -0.3820 C   0  0  0  0  0  0  0  0  0  0  0  0
   10.4430   -3.0930   -0.6150 C   0  0  0  0  0  0  0  0  0  0  0  0
   10.2400   -2.2360    0.4010 N   0  0  0  0  0  0  0  0  0  0  0  0
    0.9369   -0.5765   12.9529 H   0  0  0  0  0  0  0  0  0  0  0  0
    0.3697    0.3611   11.5295 H   0  0  0  0  0  0  0  0  0  0  0  0
    0.2512   -1.4313   11.5295 H   0  0  0  0  0  0  0  0  0  0  0  0
    2.8959   -1.2539   13.2209 H   0  0  0  0  0  0  0  0  0  0  0  0
    2.9839   -2.5616   11.9925 H   0  0  0  0  0  0  0  0  0  0  0  0
    4.2065   -1.2457   11.9925 H   0  0  0  0  0  0  0  0  0  0  0  0
    2.9917    1.1928   12.0803 H   0  0  0  0  0  0  0  0  0  0  0  0
    3.7719    0.7226   10.5321 H   0  0  0  0  0  0  0  0  0  0  0  0
    2.1003    1.3804   10.5321 H   0  0  0  0  0  0  0  0  0  0  0  0
    1.1950   -1.5960    9.6500 H   0  0  0  0  0  0  0  0  0  0  0  0
    2.3511   -1.3876    7.0984 H   0  0  0  0  0  0  0  0  0  0  0  0
    0.9683   -2.9458    8.5444 H   0  0  0  0  0  0  0  0  0  0  0  0
    1.3722   -3.5276    6.8456 H   0  0  0  0  0  0  0  0  0  0  0  0
    1.5020   -5.4001    8.2499 H   0  0  0  0  0  0  0  0  0  0  0  0
    3.2522   -3.8095   10.1530 H   0  0  0  0  0  0  0  0  0  0  0  0
    1.5582   -4.3943   10.4209 H   0  0  0  0  0  0  0  0  0  0  0  0
    3.2702   -5.8322   11.5244 H   0  0  0  0  0  0  0  0  0  0  0  0
    2.2846   -6.7009   10.2782 H   0  0  0  0  0  0  0  0  0  0  0  0
    5.1177   -5.6225    9.9468 H   0  0  0  0  0  0  0  0  0  0  0  0
    4.6027   -7.3548   10.0649 H   0  0  0  0  0  0  0  0  0  0  0  0
    5.0759   -6.5976    7.7279 H   0  0  0  0  0  0  0  0  0  0  0  0
    3.3734   -7.1924    8.0126 H   0  0  0  0  0  0  0  0  0  0  0  0
    3.2226   -5.2997    6.5993 H   0  0  0  0  0  0  0  0  0  0  0  0
    4.9337   -3.7496    8.5899 H   0  0  0  0  0  0  0  0  0  0  0  0
    5.4543   -4.3374    6.9779 H   0  0  0  0  0  0  0  0  0  0  0  0
    3.6500   -3.0430    5.9910 H   0  0  0  0  0  0  0  0  0  0  0  0
    4.8333   -0.7746    7.1218 H   0  0  0  0  0  0  0  0  0  0  0  0
    6.0520   -2.0490    6.8755 H   0  0  0  0  0  0  0  0  0  0  0  0
    4.2111   -2.1143    4.5926 H   0  0  0  0  0  0  0  0  0  0  0  0
    4.1110   -0.0300    4.0510 H   0  0  0  0  0  0  0  0  0  0  0  0
    6.0244   -2.7078    3.6596 H   0  0  0  0  0  0  0  0  0  0  0  0
    8.2712   -1.8231    5.1815 H   0  0  0  0  0  0  0  0  0  0  0  0
    6.9413   -2.3746    6.3113 H   0  0  0  0  0  0  0  0  0  0  0  0
    9.2487   -3.4473    3.5708 H   0  0  0  0  0  0  0  0  0  0  0  0
    9.8288   -5.8406    3.1985 H   0  0  0  0  0  0  0  0  0  0  0  0
    8.6241   -7.6291    4.4458 H   0  0  0  0  0  0  0  0  0  0  0  0
    6.8295   -7.0259    6.0682 H   0  0  0  0  0  0  0  0  0  0  0  0
    6.2484   -4.6349    6.4516 H   0  0  0  0  0  0  0  0  0  0  0  0
    6.5510   -0.8060    2.5090 H   0  0  0  0  0  0  0  0  0  0  0  0
    9.1592    1.6260    3.1209 H   0  0  0  0  0  0  0  0  0  0  0  0
    6.5424    1.4390    1.6344 H   0  0  0  0  0  0  0  0  0  0  0  0
    6.7048    2.3122    3.2134 H   0  0  0  0  0  0  0  0  0  0  0  0
    7.2790    5.0550    1.0210 H   0  0  0  0  0  0  0  0  0  0  0  0
    5.9680    4.1650    1.7130 H   0  0  0  0  0  0  0  0  0  0  0  0
    8.0890   -0.3580    1.0840 H   0  0  0  0  0  0  0  0  0  0  0  0
   10.7058    0.6997   -1.2866 H   0  0  0  0  0  0  0  0  0  0  0  0
   11.0863   -0.9117   -3.1718 H   0  0  0  0  0  0  0  0  0  0  0  0
   11.1991   -3.2537   -3.9673 H   0  0  0  0  0  0  0  0  0  0  0  0
   11.0140   -5.6953   -3.4920 H   0  0  0  0  0  0  0  0  0  0  0  0
   10.4642   -6.4695   -1.1857 H   0  0  0  0  0  0  0  0  0  0  0  0
   10.1064   -4.8127    0.6311 H   0  0  0  0  0  0  0  0  0  0  0  0
  1  2  1  0
  2  3  1  0
  2  4  1  0
  2  5  1  0
  5  6  1  0
  6  7  2  0
  6  8  1  0
  8  9  1  0
  9 10  1  0
 10 11  1  0
 11 12  1  0
 12 13  1  0
 13 14  1  0
 14 15  1  0
 15 16  1  0
 16 17  1  0
 17 18  1  0
 18 19  1  0
 19 20  1  0
 19 21  1  0
 21 22  1  0
 22 23  1  0
 23 24  2  0
 24 25  1  0
 25 26  2  0
 26 27  1  0
 27 28  2  0
 21 29  1  0
 29 30  1  0
 30 31  2  0
 30 32  1  0
 32 33  1  0
 33 34  1  0
 34 35  1  0
 34 36  2  0
 32 37  1  0
 37 38  1  0
 38 39  2  0
 38 40  1  0
 40 41  2  0
 41 42  1  0
 42 43  2  0
 43 44  1  0
 44 45  2  0
 45 46  1  0
 46 47  2  0
 47 48  1  0
 48 49  2  0
 17  8  1  0
 28 23  1  0
 49 40  1  0
 15 10  1  0
 48 43  1  0
  1 50  1  0
  1 51  1  0
  1 52  1  0
  3 53  1  0
  3 54  1  0
  3 55  1  0
  4 56  1  0
  4 57  1  0
  4 58  1  0
  5 59  1  0
  8 60  1  6
  9 61  1  0
  9 62  1  0
 10 63  1  1
 11 64  1  0
 11 65  1  0
 12 66  1  0
 12 67  1  0
 13 68  1  0
 13 69  1  0
 14 70  1  0
 14 71  1  0
 15 72  1  6
 16 73  1  0
 16 74  1  0
 17 75  1  6
 18 76  1  0
 18 77  1  0
 19 78  1  6
 20 79  1  0
 21 80  1  6
 22 81  1  0
 22 82  1  0
 24 83  1  0
 25 84  1  0
 26 85  1  0
 27 86  1  0
 28 87  1  0
 29 88  1  0
 32 89  1  1
 33 90  1  0
 33 91  1  0
 35 92  1  0
 35 93  1  0
 37 94  1  0
 41 95  1  0
 42 96  1  0
 44 97  1  0
 45 98  1  0
 46 99  1  0
 47100  1  0
M  CHG  1  17   1
M  END
>  <meeko>  (2) 
{"is_sidechain": [false], "free_energy": -10.151, "intermolecular_energy": -19.317, "internal_energy": -1.033}

$$$$
3pww_ligand
     RDKit          3D

100104  0  0  0  0  0  0  0  0999 V2000
    9.5540    2.4560    0.7330 C   0  0  0  0  0  0  0  0  0  0  0  0
    8.8670    1.1700    0.2380 C   0  0  0  0  0  0  0  0  0  0  0  0
    9.2240    0.9720   -1.2430 C   0  0  0  0  0  0  0  0  0  0  0  0
    7.3480    1.3360    0.4030 C   0  0  0  0  0  0  0  0  0  0  0  0
    9.3640    0.0430    1.0560 N   0  0  0  0  0  0  0  0  0  0  0  0
    8.8180   -1.2220    1.0640 C   0  0  0  0  0  0  0  0  0  0  0  0
    7.8290   -1.5410    0.4080 O   0  0  0  0  0  0  0  0  0  0  0  0
    9.5100   -2.2410    2.0060 C   0  0  2  0  0  0  0  0  0  0  0  0
   10.9990   -2.4640    1.7080 C   0  0  0  0  0  0  0  0  0  0  0  0
   11.2980   -3.3930    0.5190 C   0  0  2  0  0  0  0  0  0  0  0  0
   11.0980   -2.6970   -0.8380 C   0  0  0  0  0  0  0  0  0  0  0  0
   11.4020   -3.6370   -2.0010 C   0  0  0  0  0  0  0  0  0  0  0  0
   10.5650   -4.9080   -1.9220 C   0  0  0  0  0  0  0  0  0  0  0  0
   10.7500   -5.6160   -0.5820 C   0  0  0  0  0  0  0  0  0  0  0  0
   10.4970   -4.7040    0.6280 C   0  0  2  0  0  0  0  0  0  0  0  0
    9.0020   -4.4410    0.8320 C   0  0  0  0  0  0  0  0  0  0  0  0
    8.8150   -3.6050    2.0690 N   0  0  2  0  0  0  0  0  0  0  0  0
    7.3470   -3.5180    2.5050 C   0  0  0  0  0  0  0  0  0  0  0  0
    7.2590   -4.0800    3.9360 C   0  0  1  0  0  0  0  0  0  0  0  0
    8.5720   -4.6010    4.2350 O   0  0  0  0  0  0  0  0  0  0  0  0
    6.7610   -3.0230    4.9600 C   0  0  2  0  0  0  0  0  0  0  0  0
    7.8210   -1.9370    5.2670 C   0  0  0  0  0  0  0  0  0  0  0  0
    7.4390   -0.5540    4.7890 C   0  0  0  0  0  0  0  0  0  0  0  0
    6.0970   -0.1950    4.6040 C   0  0  0  0  0  0  0  0  0  0  0  0
    5.7620    1.0880    4.1680 C   0  0  0  0  0  0  0  0  0  0  0  0
    6.7620    2.0200    3.9030 C   0  0  0  0  0  0  0  0  0  0  0  0
    8.1000    1.6710    4.0700 C   0  0  0  0  0  0  0  0  0  0  0  0
    8.4370    0.3910    4.5090 C   0  0  0  0  0  0  0  0  0  0  0  0
    6.2550   -3.6590    6.1820 N   0  0  0  0  0  0  0  0  0  0  0  0
    5.1020   -3.2920    6.8360 C   0  0  0  0  0  0  0  0  0  0  0  0
    4.4840   -2.2720    6.5170 O   0  0  0  0  0  0  0  0  0  0  0  0
    4.6630   -4.2200    7.9920 C   0  0  2  0  0  0  0  0  0  0  0  0
    3.5410   -5.1670    7.5640 C   0  0  0  0  0  0  0  0  0  0  0  0
    2.2070   -4.7340    8.1220 C   0  0  0  0  0  0  0  0  0  0  0  0
    1.6450   -5.6010    9.0090 N   0  0  0  0  0  0  0  0  0  0  0  0
    1.6730   -3.6580    7.8590 O   0  0  0  0  0  0  0  0  0  0  0  0
    4.2250   -3.3560    9.0830 N   0  0  0  0  0  0  0  0  0  0  0  0
    4.4600   -3.6460   10.4080 C   0  0  0  0  0  0  0  0  0  0  0  0
    5.0230   -4.6690   10.7800 O   0  0  0  0  0  0  0  0  0  0  0  0
    3.9700   -2.6070   11.3700 C   0  0  0  0  0  0  0  0  0  0  0  0
    4.3540   -2.6630   12.6990 C   0  0  0  0  0  0  0  0  0  0  0  0
    3.8700   -1.6800   13.5540 C   0  0  0  0  0  0  0  0  0  0  0  0
    3.0240   -0.6800   13.0560 C   0  0  0  0  0  0  0  0  0  0  0  0
    2.5130    0.3300   13.8890 C   0  0  0  0  0  0  0  0  0  0  0  0
    1.6710    1.3120   13.3700 C   0  0  0  0  0  0  0  0  0  0  0  0
    1.3370    1.2890   12.0210 C   0  0  0  0  0  0  0  0  0  0  0  0
    1.8480    0.2830   11.1930 C   0  0  0  0  0  0  0  0  0  0  0  0
    2.6890   -0.7070   11.6830 C   0  0  0  0  0  0  0  0  0  0  0  0
    3.1520   -1.6510   10.8450 N   0  0  0  0  0  0  0  0  0  0  0  0
    9.5605    2.4682    1.8329 H   0  0  0  0  0  0  0  0  0  0  0  0
   10.5883    2.4861    0.3599 H   0  0  0  0  0  0  0  0  0  0  0  0
    9.0040    3.3325    0.3599 H   0  0  0  0  0  0  0  0  0  0  0  0
   10.1835    0.4398   -1.3209 H   0  0  0  0  0  0  0  0  0  0  0  0
    8.4364    0.3818   -1.7343 H   0  0  0  0  0  0  0  0  0  0  0  0
    9.3077    1.9526   -1.7343 H   0  0  0  0  0  0  0  0  0  0  0  0
    7.0963    1.3635    1.4735 H   0  0  0  0  0  0  0  0  0  0  0  0
    7.0278    2.2745   -0.0732 H   0  0  0  0  0  0  0  0  0  0  0  0
    6.8327    0.4888   -0.0732 H   0  0  0  0  0  0  0  0  0  0  0  0
   10.1090    0.2680    1.7070 H   0  0  0  0  0  0  0  0  0  0  0  0
    9.4193   -1.7526    2.9875 H   0  0  0  0  0  0  0  0  0  0  0  0
   11.4541   -1.4849    1.4975 H   0  0  0  0  0  0  0  0  0  0  0  0
   11.4164   -2.9614    2.5959 H   0  0  0  0  0  0  0  0  0  0  0  0
   12.3658   -3.6525    0.5677 H   0  0  0  0  0  0  0  0  0  0  0  0
   10.0541   -2.3590   -0.9155 H   0  0  0  0  0  0  0  0  0  0  0  0
   11.7916   -1.8451   -0.8935 H   0  0  0  0  0  0  0  0  0  0  0  0
   11.1798   -3.1203   -2.9463 H   0  0  0  0  0  0  0  0  0  0  0  0
   12.4642   -3.9183   -1.9503 H   0  0  0  0  0  0  0  0  0  0  0  0
    9.5038   -4.6456   -2.0443 H   0  0  0  0  0  0  0  0  0  0  0  0
   10.8940   -5.5888   -2.7209 H   0  0  0  0  0  0  0  0  0  0  0  0
   10.0483   -6.4618   -0.5343 H   0  0  0  0  0  0  0  0  0  0  0  0
   11.7988   -5.9436   -0.5290 H   0  0  0  0  0  0  0  0  0  0  0  0
   10.8564   -5.2335    1.5227 H   0  0  0  0  0  0  0  0  0  0  0  0
    8.5998   -3.9043   -0.0399 H   0  0  0  0  0  0  0  0  0  0  0  0
    8.4691   -5.3966    0.9457 H   0  0  0  0  0  0  0  0  0  0  0  0
    9.2400   -4.1220    2.8650 H   0  0  0  0  0  0  0  0  0  0  0  0
    7.0118   -2.4704    2.4910 H   0  0  0  0  0  0  0  0  0  0  0  0
    6.7036   -4.0916    1.8216 H   0  0  0  0  0  0  0  0  0  0  0  0
    6.5057   -4.8782    4.0096 H   0  0  0  0  0  0  0  0  0  0  0  0
    8.5780   -5.5310    3.8910 H   0  0  0  0  0  0  0  0  0  0  0  0
    5.9190   -2.4973    4.4859 H   0  0  0  0  0  0  0  0  0  0  0  0
    7.9710   -1.8977    6.3560 H   0  0  0  0  0  0  0  0  0  0  0  0
    8.7347   -2.2209    4.7243 H   0  0  0  0  0  0  0  0  0  0  0  0
    5.3025   -0.9291    4.8037 H   0  0  0  0  0  0  0  0  0  0  0  0
    4.7056    1.3634    4.0334 H   0  0  0  0  0  0  0  0  0  0  0  0
    6.4954    3.0313    3.5620 H   0  0  0  0  0  0  0  0  0  0  0  0
    8.8908    2.4050    3.8556 H   0  0  0  0  0  0  0  0  0  0  0  0
    9.4954    0.1199    4.6369 H   0  0  0  0  0  0  0  0  0  0  0  0
    6.6080   -4.6010    6.3860 H   0  0  0  0  0  0  0  0  0  0  0  0
    5.5009   -4.8605    8.3046 H   0  0  0  0  0  0  0  0  0  0  0  0
    3.4822   -5.1778    6.4656 H   0  0  0  0  0  0  0  0  0  0  0  0
    3.7688   -6.1698    7.9545 H   0  0  0  0  0  0  0  0  0  0  0  0
    0.7240   -5.3760    9.3630 H   0  0  0  0  0  0  0  0  0  0  0  0
    1.9500   -6.5630    9.0860 H   0  0  0  0  0  0  0  0  0  0  0  0
    3.7650   -2.4680    8.8760 H   0  0  0  0  0  0  0  0  0  0  0  0
    5.0195   -3.4584   13.0657 H   0  0  0  0  0  0  0  0  0  0  0  0
    4.1500   -1.6869   14.6177 H   0  0  0  0  0  0  0  0  0  0  0  0
    2.7790    0.3456   14.9562 H   0  0  0  0  0  0  0  0  0  0  0  0
    1.2728    2.1012   14.0247 H   0  0  0  0  0  0  0  0  0  0  0  0
    0.6721    2.0602   11.6049 H   0  0  0  0  0  0  0  0  0  0  0  0
    1.5764    0.2765   10.1271 H   0  0  0  0  0  0  0  0  0  0  0  0
  1  2  1  0
  2  3  1  0
  2  4  1  0
  2  5  1  0
  5  6  1  0
  6  7  2  0
  6  8  1  0
  8  9  1  0
  9 10  1  0
 10 11  1  0
 11 12  1  0
 12 13  1  0
 13 14  1  0
 14 15  1  0
 15 16  1  0
 16 17  1  0
 17 18  1  0
 18 19  1  0
 19 20  1  0
 19 21  1  0
 21 22  1  0
 22 23  1  0
 23 24  2  0
 24 25  1  0
 25 26  2  0
 26 27  1  0
 27 28  2  0
 21 29  1  0
 29 30  1  0
 30 31  2  0
 30 32  1  0
 32 33  1  0
 33 34  1  0
 34 35  1  0
 34 36  2  0
 32 37  1  0
 37 38  1  0
 38 39  2  0
 38 40  1  0
 40 41  2  0
 41 42  1  0
 42 43  2  0
 43 44  1  0
 44 45  2  0
 45 46  1  0
 46 47  2  0
 47 48  1  0
 48 49  2  0
 17  8  1  0
 28 23  1  0
 49 40  1  0
 15 10  1  0
 48 43  1  0
  1 50  1  0
  1 51  1  0
  1 52  1  0
  3 53  1  0
  3 54  1  0
  3 55  1  0
  4 56  1  0
  4 57  1  0
  4 58  1  0
  5 59  1  0
  8 60  1  1
  9 61  1  0
  9 62  1  0
 10 63  1  1
 11 64  1  0
 11 65  1  0
 12 66  1  0
 12 67  1  0
 13 68  1  0
 13 69  1  0
 14 70  1  0
 14 71  1  0
 15 72  1  1
 16 73  1  0
 16 74  1  0
 17 75  1  1
 18 76  1  0
 18 77  1  0
 19 78  1  6
 20 79  1  0
 21 80  1  6
 22 81  1  0
 22 82  1  0
 24 83  1  0
 25 84  1  0
 26 85  1  0
 27 86  1  0
 28 87  1  0
 29 88  1  0
 32 89  1  1
 33 90  1  0
 33 91  1  0
 35 92  1  0
 35 93  1  0
 37 94  1  0
 41 95  1  0
 42 96  1  0
 44 97  1  0
 45 98  1  0
 46 99  1  0
 47100  1  0
M  CHG  1  17   1
M  END
>  <meeko>  (3) 
{"is_sidechain": [false], "free_energy": -10.057, "intermolecular_energy": -17.855, "internal_energy": -2.327}

$$$$
3pww_ligand
     RDKit          3D

100104  0  0  0  0  0  0  0  0999 V2000
   14.4600   -4.9040    2.0760 C   0  0  0  0  0  0  0  0  0  0  0  0
   13.4860   -3.7270    1.8760 C   0  0  0  0  0  0  0  0  0  0  0  0
   13.9250   -2.5770    2.7950 C   0  0  0  0  0  0  0  0  0  0  0  0
   12.0720   -4.1980    2.2490 C   0  0  0  0  0  0  0  0  0  0  0  0
   13.5480   -3.3200    0.4560 N   0  0  0  0  0  0  0  0  0  0  0  0
   12.7830   -2.3220   -0.1080 C   0  0  0  0  0  0  0  0  0  0  0  0
   11.9370   -1.6800    0.5110 O   0  0  0  0  0  0  0  0  0  0  0  0
   13.0200   -2.0750   -1.6210 C   0  0  2  0  0  0  0  0  0  0  0  0
   14.4990   -2.0530   -2.0310 C   0  0  0  0  0  0  0  0  0  0  0  0
   15.2480   -0.7460   -1.7210 C   0  0  2  0  0  0  0  0  0  0  0  0
   15.6250   -0.6200   -0.2350 C   0  0  0  0  0  0  0  0  0  0  0  0
   16.3680    0.6840    0.0470 C   0  0  0  0  0  0  0  0  0  0  0  0
   15.5570    1.8930   -0.4050 C   0  0  0  0  0  0  0  0  0  0  0  0
   15.1740    1.7890   -1.8780 C   0  0  0  0  0  0  0  0  0  0  0  0
   14.4590    0.4750   -2.2290 C   0  0  2  0  0  0  0  0  0  0  0  0
   13.0130    0.4680   -1.7240 C   0  0  0  0  0  0  0  0  0  0  0  0
   12.3470   -0.8090   -2.1590 N   0  0  2  0  0  0  0  0  0  0  0  0
   10.8290   -0.7880   -1.9350 C   0  0  0  0  0  0  0  0  0  0  0  0
   10.4510    0.6390   -1.4960 C   0  0  1  0  0  0  0  0  0  0  0  0
    9.9240    1.2870   -2.6740 O   0  0  0  0  0  0  0  0  0  0  0  0
    9.4720    0.6490   -0.2890 C   0  0  2  0  0  0  0  0  0  0  0  0
    9.8420    1.7090    0.7770 C   0  0  0  0  0  0  0  0  0  0  0  0
    8.9540    1.6850    2.0010 C   0  0  0  0  0  0  0  0  0  0  0  0
    7.7340    2.3740    2.0260 C   0  0  0  0  0  0  0  0  0  0  0  0
    6.9240    2.3360    3.1620 C   0  0  0  0  0  0  0  0  0  0  0  0
    7.3280    1.6180    4.2850 C   0  0  0  0  0  0  0  0  0  0  0  0
    8.5430    0.9380    4.2760 C   0  0  0  0  0  0  0  0  0  0  0  0
    9.3540    0.9730    3.1410 C   0  0  0  0  0  0  0  0  0  0  0  0
    9.3270   -0.6900    0.2930 N   0  0  0  0  0  0  0  0  0  0  0  0
    8.1410   -1.3830    0.3750 C   0  0  0  0  0  0  0  0  0  0  0  0
    7.0660   -0.8450    0.0990 O   0  0  0  0  0  0  0  0  0  0  0  0
    8.2560   -2.8490    0.8540 C   0  0  2  0  0  0  0  0  0  0  0  0
    8.5760   -2.9330    2.3480 C   0  0  0  0  0  0  0  0  0  0  0  0
    7.3770   -3.3840    3.1470 C   0  0  0  0  0  0  0  0  0  0  0  0
    6.4900   -2.3980    3.4570 N   0  0  0  0  0  0  0  0  0  0  0  0
    7.1620   -4.5530    3.4570 O   0  0  0  0  0  0  0  0  0  0  0  0
    9.3110   -3.4710    0.0610 N   0  0  0  0  0  0  0  0  0  0  0  0
    9.3180   -4.8110   -0.2550 C   0  0  0  0  0  0  0  0  0  0  0  0
    8.4610   -5.5950    0.1340 O   0  0  0  0  0  0  0  0  0  0  0  0
   10.4660   -5.2410   -1.1170 C   0  0  0  0  0  0  0  0  0  0  0  0
   10.4610   -4.9430   -2.4700 C   0  0  0  0  0  0  0  0  0  0  0  0
   11.5450   -5.3660   -3.2290 C   0  0  0  0  0  0  0  0  0  0  0  0
   12.5910   -6.0690   -2.6160 C   0  0  0  0  0  0  0  0  0  0  0  0
   13.7040   -6.5150   -3.3500 C   0  0  0  0  0  0  0  0  0  0  0  0
   14.7300   -7.2140   -2.7180 C   0  0  0  0  0  0  0  0  0  0  0  0
   14.6490   -7.4700   -1.3540 C   0  0  0  0  0  0  0  0  0  0  0  0
   13.5420   -7.0230   -0.6250 C   0  0  0  0  0  0  0  0  0  0  0  0
   12.5050   -6.3250   -1.2280 C   0  0  0  0  0  0  0  0  0  0  0  0
   11.4630   -5.9180   -0.4820 N   0  0  0  0  0  0  0  0  0  0  0  0
   14.6060   -5.0804    3.1519 H   0  0  0  0  0  0  0  0  0  0  0  0
   14.0428   -5.8086    1.6094 H   0  0  0  0  0  0  0  0  0  0  0  0
   15.4266   -4.6633    1.6094 H   0  0  0  0  0  0  0  0  0  0  0  0
   13.8085   -2.8821    3.8454 H   0  0  0  0  0  0  0  0  0  0  0  0
   14.9795   -2.3330    2.5988 H   0  0  0  0  0  0  0  0  0  0  0  0
   13.3013   -1.6924    2.5988 H   0  0  0  0  0  0  0  0  0  0  0  0
   11.9734   -4.2308    3.3441 H   0  0  0  0  0  0  0  0  0  0  0  0
   11.3313   -3.4981    1.8350 H   0  0  0  0  0  0  0  0  0  0  0  0
   11.8989   -5.2023    1.8350 H   0  0  0  0  0  0  0  0  0  0  0  0
   14.1440   -3.8860   -0.1380 H   0  0  0  0  0  0  0  0  0  0  0  0
   12.5420   -2.9527   -2.0805 H   0  0  0  0  0  0  0  0  0  0  0  0
   15.0103   -2.8711   -1.5025 H   0  0  0  0  0  0  0  0  0  0  0  0
   14.5126   -2.1588   -3.1258 H   0  0  0  0  0  0  0  0  0  0  0  0
   16.2007   -0.7775   -2.2699 H   0  0  0  0  0  0  0  0  0  0  0  0
   14.7066   -0.6457    0.3699 H   0  0  0  0  0  0  0  0  0  0  0  0
   16.2891   -1.4578    0.0241 H   0  0  0  0  0  0  0  0  0  0  0  0
   16.5561    0.7626    1.1279 H   0  0  0  0  0  0  0  0  0  0  0  0
   17.3146    0.6721   -0.5131 H   0  0  0  0  0  0  0  0  0  0  0  0
   14.6400    1.9548    0.1994 H   0  0  0  0  0  0  0  0  0  0  0  0
   16.1749    2.7932   -0.2713 H   0  0  0  0  0  0  0  0  0  0  0  0
   14.5055    2.6269   -2.1249 H   0  0  0  0  0  0  0  0  0  0  0  0
   16.1070    1.8176   -2.4599 H   0  0  0  0  0  0  0  0  0  0  0  0
   14.4175    0.4037   -3.3259 H   0  0  0  0  0  0  0  0  0  0  0  0
   13.0058    0.5319   -0.6259 H   0  0  0  0  0  0  0  0  0  0  0  0
   12.4705    1.3298   -2.1400 H   0  0  0  0  0  0  0  0  0  0  0  0
   12.4050   -0.8560   -3.1970 H   0  0  0  0  0  0  0  0  0  0  0  0
   10.3071   -1.0454   -2.8684 H   0  0  0  0  0  0  0  0  0  0  0  0
   10.5381   -1.5214   -1.1685 H   0  0  0  0  0  0  0  0  0  0  0  0
   11.3254    1.1890   -1.1178 H   0  0  0  0  0  0  0  0  0  0  0  0
   10.1000    0.6640   -3.4250 H   0  0  0  0  0  0  0  0  0  0  0  0
    8.4894    0.9481   -0.6828 H   0  0  0  0  0  0  0  0  0  0  0  0
   10.8787    1.5298    1.0980 H   0  0  0  0  0  0  0  0  0  0  0  0
    9.7092    2.6943    0.3062 H   0  0  0  0  0  0  0  0  0  0  0  0
    7.4127    2.9485    1.1447 H   0  0  0  0  0  0  0  0  0  0  0  0
    5.9647    2.8742    3.1704 H   0  0  0  0  0  0  0  0  0  0  0  0
    6.6874    1.5882    5.1787 H   0  0  0  0  0  0  0  0  0  0  0  0
    8.8636    0.3731    5.1638 H   0  0  0  0  0  0  0  0  0  0  0  0
   10.3150    0.4377    3.1405 H   0  0  0  0  0  0  0  0  0  0  0  0
   10.1830   -1.2510    0.3670 H   0  0  0  0  0  0  0  0  0  0  0  0
    7.2973   -3.3706    0.7164 H   0  0  0  0  0  0  0  0  0  0  0  0
    9.3959   -3.6509    2.4980 H   0  0  0  0  0  0  0  0  0  0  0  0
    8.8646   -1.9301    2.6957 H   0  0  0  0  0  0  0  0  0  0  0  0
    5.7010   -2.6460    4.0420 H   0  0  0  0  0  0  0  0  0  0  0  0
    6.7330   -1.4170    3.3980 H   0  0  0  0  0  0  0  0  0  0  0  0
   10.0610   -2.8970   -0.3280 H   0  0  0  0  0  0  0  0  0  0  0  0
    9.6272   -4.3904   -2.9276 H   0  0  0  0  0  0  0  0  0  0  0  0
   11.5821   -5.1500   -4.3069 H   0  0  0  0  0  0  0  0  0  0  0  0
   13.7650   -6.3109   -4.4292 H   0  0  0  0  0  0  0  0  0  0  0  0
   15.5996   -7.5615   -3.2952 H   0  0  0  0  0  0  0  0  0  0  0  0
   15.4543   -8.0233   -0.8487 H   0  0  0  0  0  0  0  0  0  0  0  0
   13.4921   -7.2301    0.4542 H   0  0  0  0  0  0  0  0  0  0  0  0
  1  2  1  0
  2  3  1  0
  2  4  1  0
  2  5  1  0
  5  6  1  0
  6  7  2  0
  6  8  1  0
  8  9  1  0
  9 10  1  0
 10 11  1  0
 11 12  1  0
 12 13  1  0
 13 14  1  0
 14 15  1  0
 15 16  1  0
 16 17  1  0
 17 18  1  0
 18 19  1  0
 19 20  1  0
 19 21  1  0
 21 22  1  0
 22 23  1  0
 23 24  2  0
 24 25  1  0
 25 26  2  0
 26 27  1  0
 27 28  2  0
 21 29  1  0
 29 30  1  0
 30 31  2  0
 30 32  1  0
 32 33  1  0
 33 34  1  0
 34 35  1  0
 34 36  2  0
 32 37  1  0
 37 38  1  0
 38 39  2  0
 38 40  1  0
 40 41  2  0
 41 42  1  0
 42 43  2  0
 43 44  1  0
 44 45  2  0
 45 46  1  0
 46 47  2  0
 47 48  1  0
 48 49  2  0
 17  8  1  0
 28 23  1  0
 49 40  1  0
 15 10  1  0
 48 43  1  0
  1 50  1  0
  1 51  1  0
  1 52  1  0
  3 53  1  0
  3 54  1  0
  3 55  1  0
  4 56  1  0
  4 57  1  0
  4 58  1  0
  5 59  1  0
  8 60  1  6
  9 61  1  0
  9 62  1  0
 10 63  1  6
 11 64  1  0
 11 65  1  0
 12 66  1  0
 12 67  1  0
 13 68  1  0
 13 69  1  0
 14 70  1  0
 14 71  1  0
 15 72  1  6
 16 73  1  0
 16 74  1  0
 17 75  1  6
 18 76  1  0
 18 77  1  0
 19 78  1  1
 20 79  1  0
 21 80  1  6
 22 81  1  0
 22 82  1  0
 24 83  1  0
 25 84  1  0
 26 85  1  0
 27 86  1  0
 28 87  1  0
 29 88  1  0
 32 89  1  1
 33 90  1  0
 33 91  1  0
 35 92  1  0
 35 93  1  0
 37 94  1  0
 41 95  1  0
 42 96  1  0
 44 97  1  0
 45 98  1  0
 46 99  1  0
 47100  1  0
M  CHG  1  17   1
M  END
>  <meeko>  (4) 
{"is_sidechain": [false], "free_energy": -9.985, "intermolecular_energy": -16.115, "internal_energy": -3.937}

$$$$
3pww_ligand
     RDKit          3D

100104  0  0  0  0  0  0  0  0999 V2000
    2.5330    0.6990   11.4130 C   0  0  0  0  0  0  0  0  0  0  0  0
    2.0740   -0.7520   11.6500 C   0  0  0  0  0  0  0  0  0  0  0  0
    0.7400   -0.7160   12.4130 C   0  0  0  0  0  0  0  0  0  0  0  0
    3.1450   -1.4720   12.4820 C   0  0  0  0  0  0  0  0  0  0  0  0
    1.9090   -1.4000   10.3310 N   0  0  0  0  0  0  0  0  0  0  0  0
    2.8980   -1.5000    9.3770 C   0  0  0  0  0  0  0  0  0  0  0  0
    4.0250   -1.0280    9.5120 O   0  0  0  0  0  0  0  0  0  0  0  0
    2.4910   -2.2220    8.0670 C   0  0  2  0  0  0  0  0  0  0  0  0
    1.5910   -3.4480    8.2770 C   0  0  0  0  0  0  0  0  0  0  0  0
    2.3190   -4.7260    8.7300 C   0  0  2  0  0  0  0  0  0  0  0  0
    2.6840   -4.6980   10.2240 C   0  0  0  0  0  0  0  0  0  0  0  0
    3.4030   -5.9760   10.6490 C   0  0  0  0  0  0  0  0  0  0  0  0
    4.6420   -6.2260    9.7970 C   0  0  0  0  0  0  0  0  0  0  0  0
    4.3000   -6.2590    8.3100 C   0  0  0  0  0  0  0  0  0  0  0  0
    3.5380   -5.0130    7.8340 C   0  0  2  0  0  0  0  0  0  0  0  0
    4.4610   -3.7960    7.7220 C   0  0  0  0  0  0  0  0  0  0  0  0
    3.6740   -2.6310    7.1850 N   0  0  2  0  0  0  0  0  0  0  0  0
    4.5690   -1.4510    6.7850 C   0  0  0  0  0  0  0  0  0  0  0  0
    4.8000   -1.5450    5.2650 C   0  0  1  0  0  0  0  0  0  0  0  0
    4.3340   -0.2920    4.7180 O   0  0  0  0  0  0  0  0  0  0  0  0
    6.2770   -1.8690    4.9080 C   0  0  2  0  0  0  0  0  0  0  0  0
    6.9430   -2.8320    5.9200 C   0  0  0  0  0  0  0  0  0  0  0  0
    7.3730   -4.1520    5.3200 C   0  0  0  0  0  0  0  0  0  0  0  0
    6.6980   -5.3420    5.6240 C   0  0  0  0  0  0  0  0  0  0  0  0
    7.1050   -6.5510    5.0570 C   0  0  0  0  0  0  0  0  0  0  0  0
    8.1920   -6.5840    4.1870 C   0  0  0  0  0  0  0  0  0  0  0  0
    8.8790   -5.4100    3.8860 C   0  0  0  0  0  0  0  0  0  0  0  0
    8.4730   -4.2010    4.4510 C   0  0  0  0  0  0  0  0  0  0  0  0
    7.0620   -0.6440    4.7160 N   0  0  0  0  0  0  0  0  0  0  0  0
    7.9650   -0.4440    3.6980 C   0  0  0  0  0  0  0  0  0  0  0  0
    8.2990   -1.3670    2.9500 O   0  0  0  0  0  0  0  0  0  0  0  0
    8.5370    0.9880    3.5820 C   0  0  2  0  0  0  0  0  0  0  0  0
    7.4600    2.0490    3.8230 C   0  0  0  0  0  0  0  0  0  0  0  0
    6.8650    2.5390    2.5250 C   0  0  0  0  0  0  0  0  0  0  0  0
    5.6380    2.0290    2.2270 N   0  0  0  0  0  0  0  0  0  0  0  0
    7.3980    3.3790    1.8040 O   0  0  0  0  0  0  0  0  0  0  0  0
    9.0950    1.1120    2.2390 N   0  0  0  0  0  0  0  0  0  0  0  0
   10.4170    1.4160    2.0040 C   0  0  0  0  0  0  0  0  0  0  0  0
   11.2210    1.6450    2.9000 O   0  0  0  0  0  0  0  0  0  0  0  0
   10.8000    1.4500    0.5560 C   0  0  0  0  0  0  0  0  0  0  0  0
    9.8660    1.1180   -0.4110 C   0  0  0  0  0  0  0  0  0  0  0  0
   10.2690    1.1590   -1.7400 C   0  0  0  0  0  0  0  0  0  0  0  0
   11.5840    1.5280   -2.0580 C   0  0  0  0  0  0  0  0  0  0  0  0
   12.0300    1.5810   -3.3890 C   0  0  0  0  0  0  0  0  0  0  0  0
   13.3420    1.9480   -3.6780 C   0  0  0  0  0  0  0  0  0  0  0  0
   14.2120    2.2640   -2.6410 C   0  0  0  0  0  0  0  0  0  0  0  0
   13.7660    2.2130   -1.3160 C   0  0  0  0  0  0  0  0  0  0  0  0
   12.4640    1.8500   -0.9990 C   0  0  0  0  0  0  0  0  0  0  0  0
   12.0860    1.8160    0.2910 N   0  0  0  0  0  0  0  0  0  0  0  0
    2.6904    1.1966   12.3813 H   0  0  0  0  0  0  0  0  0  0  0  0
    3.4745    0.6975   10.8442 H   0  0  0  0  0  0  0  0  0  0  0  0
    1.7619    1.2392   10.8442 H   0  0  0  0  0  0  0  0  0  0  0  0
    0.9364   -0.7213   13.4953 H   0  0  0  0  0  0  0  0  0  0  0  0
    0.1887    0.1973   12.1448 H   0  0  0  0  0  0  0  0  0  0  0  0
    0.1403   -1.5983   12.1448 H   0  0  0  0  0  0  0  0  0  0  0  0
    2.9344   -1.3304   13.5523 H   0  0  0  0  0  0  0  0  0  0  0  0
    3.1328   -2.5461   12.2449 H   0  0  0  0  0  0  0  0  0  0  0  0
    4.1350   -1.0553   12.2449 H   0  0  0  0  0  0  0  0  0  0  0  0
    0.9700   -1.7120   10.1090 H   0  0  0  0  0  0  0  0  0  0  0  0
    1.9115   -1.4476    7.5431 H   0  0  0  0  0  0  0  0  0  0  0  0
    0.8425   -3.1936    9.0419 H   0  0  0  0  0  0  0  0  0  0  0  0
    1.1544   -3.6779    7.2939 H   0  0  0  0  0  0  0  0  0  0  0  0
    1.6160   -5.5635    8.6098 H   0  0  0  0  0  0  0  0  0  0  0  0
    3.3420   -3.8374   10.4150 H   0  0  0  0  0  0  0  0  0  0  0  0
    1.7535   -4.6164   10.8049 H   0  0  0  0  0  0  0  0  0  0  0  0
    3.7057   -5.8830   11.7024 H   0  0  0  0  0  0  0  0  0  0  0  0
    2.7135   -6.8225   10.5145 H   0  0  0  0  0  0  0  0  0  0  0  0
    5.3694   -5.4211    9.9788 H   0  0  0  0  0  0  0  0  0  0  0  0
    5.0621   -7.2034   10.0766 H   0  0  0  0  0  0  0  0  0  0  0  0
    5.2365   -6.3353    7.7380 H   0  0  0  0  0  0  0  0  0  0  0  0
    3.6424   -7.1254    8.1461 H   0  0  0  0  0  0  0  0  0  0  0  0
    3.1587   -5.2228    6.8230 H   0  0  0  0  0  0  0  0  0  0  0  0
    4.8611   -3.5441    8.7152 H   0  0  0  0  0  0  0  0  0  0  0  0
    5.2960   -4.0244    7.0433 H   0  0  0  0  0  0  0  0  0  0  0  0
    3.2790   -2.9160    6.2660 H   0  0  0  0  0  0  0  0  0  0  0  0
    4.0722   -0.5012    7.0321 H   0  0  0  0  0  0  0  0  0  0  0  0
    5.5256   -1.4869    7.3269 H   0  0  0  0  0  0  0  0  0  0  0  0
    4.2426   -2.3845    4.8239 H   0  0  0  0  0  0  0  0  0  0  0  0
    5.0510    0.0180    4.1070 H   0  0  0  0  0  0  0  0  0  0  0  0
    6.2584   -2.4058    3.9481 H   0  0  0  0  0  0  0  0  0  0  0  0
    7.8316   -2.3355    6.3369 H   0  0  0  0  0  0  0  0  0  0  0  0
    6.1879   -3.0611    6.6863 H   0  0  0  0  0  0  0  0  0  0  0  0
    5.8416   -5.3232    6.3141 H   0  0  0  0  0  0  0  0  0  0  0  0
    6.5662   -7.4793    5.2978 H   0  0  0  0  0  0  0  0  0  0  0  0
    8.5081   -7.5369    3.7375 H   0  0  0  0  0  0  0  0  0  0  0  0
    9.7410   -5.4364    3.2032 H   0  0  0  0  0  0  0  0  0  0  0  0
    9.0207   -3.2772    4.2128 H   0  0  0  0  0  0  0  0  0  0  0  0
    6.7070    0.2030    5.1760 H   0  0  0  0  0  0  0  0  0  0  0  0
    9.3079    1.1531    4.3491 H   0  0  0  0  0  0  0  0  0  0  0  0
    6.6608    1.6131    4.4404 H   0  0  0  0  0  0  0  0  0  0  0  0
    7.9267    2.9045    4.3331 H   0  0  0  0  0  0  0  0  0  0  0  0
    5.2290    2.2870    1.3370 H   0  0  0  0  0  0  0  0  0  0  0  0
    5.2740    1.2020    2.6830 H   0  0  0  0  0  0  0  0  0  0  0  0
    8.5100    0.9190    1.4250 H   0  0  0  0  0  0  0  0  0  0  0  0
    8.8401    0.8316   -0.1363 H   0  0  0  0  0  0  0  0  0  0  0  0
    9.5589    0.9029   -2.5401 H   0  0  0  0  0  0  0  0  0  0  0  0
   11.3390    1.3312   -4.2076 H   0  0  0  0  0  0  0  0  0  0  0  0
   13.6880    1.9876   -4.7214 H   0  0  0  0  0  0  0  0  0  0  0  0
   15.2499    2.5538   -2.8619 H   0  0  0  0  0  0  0  0  0  0  0  0
   14.4644    2.4669   -0.5050 H   0  0  0  0  0  0  0  0  0  0  0  0
  1  2  1  0
  2  3  1  0
  2  4  1  0
  2  5  1  0
  5  6  1  0
  6  7  2  0
  6  8  1  0
  8  9  1  0
  9 10  1  0
 10 11  1  0
 11 12  1  0
 12 13  1  0
 13 14  1  0
 14 15  1  0
 15 16  1  0
 16 17  1  0
 17 18  1  0
 18 19  1  0
 19 20  1  0
 19 21  1  0
 21 22  1  0
 22 23  1  0
 23 24  2  0
 24 25  1  0
 25 26  2  0
 26 27  1  0
 27 28  2  0
 21 29  1  0
 29 30  1  0
 30 31  2  0
 30 32  1  0
 32 33  1  0
 33 34  1  0
 34 35  1  0
 34 36  2  0
 32 37  1  0
 37 38  1  0
 38 39  2  0
 38 40  1  0
 40 41  2  0
 41 42  1  0
 42 43  2  0
 43 44  1  0
 44 45  2  0
 45 46  1  0
 46 47  2  0
 47 48  1  0
 48 49  2  0
 17  8  1  0
 28 23  1  0
 49 40  1  0
 15 10  1  0
 48 43  1  0
  1 50  1  0
  1 51  1  0
  1 52  1  0
  3 53  1  0
  3 54  1  0
  3 55  1  0
  4 56  1  0
  4 57  1  0
  4 58  1  0
  5 59  1  0
  8 60  1  6
  9 61  1  0
  9 62  1  0
 10 63  1  1
 11 64  1  0
 11 65  1  0
 12 66  1  0
 12 67  1  0
 13 68  1  0
 13 69  1  0
 14 70  1  0
 14 71  1  0
 15 72  1  6
 16 73  1  0
 16 74  1  0
 17 75  1  6
 18 76  1  0
 18 77  1  0
 19 78  1  6
 20 79  1  0
 21 80  1  6
 22 81  1  0
 22 82  1  0
 24 83  1  0
 25 84  1  0
 26 85  1  0
 27 86  1  0
 28 87  1  0
 29 88  1  0
 32 89  1  1
 33 90  1  0
 33 91  1  0
 35 92  1  0
 35 93  1  0
 37 94  1  0
 41 95  1  0
 42 96  1  0
 44 97  1  0
 45 98  1  0
 46 99  1  0
 47100  1  0
M  CHG  1  17   1
M  END
>  <meeko>  (5) 
{"is_sidechain": [false], "free_energy": -9.856, "intermolecular_energy": -18.367, "internal_energy": -1.455}

$$$$
3pww_ligand
     RDKit          3D

100104  0  0  0  0  0  0  0  0999 V2000
   12.2970   -8.7020    0.9610 C   0  0  0  0  0  0  0  0  0  0  0  0
   12.5800   -7.2010    1.1600 C   0  0  0  0  0  0  0  0  0  0  0  0
   14.0800   -6.9600    0.9320 C   0  0  0  0  0  0  0  0  0  0  0  0
   12.1900   -6.8190    2.5960 C   0  0  0  0  0  0  0  0  0  0  0  0
   11.7700   -6.4500    0.1780 N   0  0  0  0  0  0  0  0  0  0  0  0
   11.8140   -5.0830    0.0050 C   0  0  0  0  0  0  0  0  0  0  0  0
   12.5180   -4.3340    0.6790 O   0  0  0  0  0  0  0  0  0  0  0  0
   10.8690   -4.5180   -1.0870 C   0  0  2  0  0  0  0  0  0  0  0  0
   10.6330   -5.4680   -2.2690 C   0  0  0  0  0  0  0  0  0  0  0  0
   11.7670   -5.5180   -3.3070 C   0  0  2  0  0  0  0  0  0  0  0  0
   12.9660   -6.3570   -2.8310 C   0  0  0  0  0  0  0  0  0  0  0  0
   14.0770   -6.3930   -3.8770 C   0  0  0  0  0  0  0  0  0  0  0  0
   14.5240   -4.9870   -4.2610 C   0  0  0  0  0  0  0  0  0  0  0  0
   13.3490   -4.1380   -4.7380 C   0  0  0  0  0  0  0  0  0  0  0  0
   12.1810   -4.1000   -3.7400 C   0  0  2  0  0  0  0  0  0  0  0  0
   12.4980   -3.2070   -2.5370 C   0  0  0  0  0  0  0  0  0  0  0  0
   11.2950   -3.1530   -1.6360 N   0  0  2  0  0  0  0  0  0  0  0  0
   11.4200   -2.0760   -0.5500 C   0  0  0  0  0  0  0  0  0  0  0  0
   10.6910   -0.8200   -1.0650 C   0  0  1  0  0  0  0  0  0  0  0  0
    9.9550   -1.2430   -2.2330 O   0  0  0  0  0  0  0  0  0  0  0  0
    9.8020   -0.1610    0.0250 C   0  0  2  0  0  0  0  0  0  0  0  0
   10.1750    1.3180    0.2920 C   0  0  0  0  0  0  0  0  0  0  0  0
    9.0760    2.1180    0.9550 C   0  0  0  0  0  0  0  0  0  0  0  0
    9.0520    3.5180    0.8820 C   0  0  0  0  0  0  0  0  0  0  0  0
    8.0280    4.2400    1.4950 C   0  0  0  0  0  0  0  0  0  0  0  0
    7.0230    3.5750    2.1930 C   0  0  0  0  0  0  0  0  0  0  0  0
    7.0420    2.1850    2.2830 C   0  0  0  0  0  0  0  0  0  0  0  0
    8.0640    1.4600    1.6690 C   0  0  0  0  0  0  0  0  0  0  0  0
    9.7890   -0.9560    1.2580 N   0  0  0  0  0  0  0  0  0  0  0  0
    8.8500   -1.9160    1.5600 C   0  0  0  0  0  0  0  0  0  0  0  0
    7.8410   -2.0640    0.8660 O   0  0  0  0  0  0  0  0  0  0  0  0
    9.1390   -2.7590    2.8240 C   0  0  2  0  0  0  0  0  0  0  0  0
    9.5470   -4.1910    2.4690 C   0  0  0  0  0  0  0  0  0  0  0  0
    8.3410   -5.0670    2.2310 C   0  0  0  0  0  0  0  0  0  0  0  0
    8.1240   -5.4040    0.9290 N   0  0  0  0  0  0  0  0  0  0  0  0
    7.6270   -5.5070    3.1300 O   0  0  0  0  0  0  0  0  0  0  0  0
    7.9180   -2.7500    3.6240 N   0  0  0  0  0  0  0  0  0  0  0  0
    7.5500   -1.6860    4.4150 C   0  0  0  0  0  0  0  0  0  0  0  0
    8.2340   -0.6770    4.5410 O   0  0  0  0  0  0  0  0  0  0  0  0
    6.2380   -1.8570    5.1190 C   0  0  0  0  0  0  0  0  0  0  0  0
    5.2930   -0.8460    5.0720 C   0  0  0  0  0  0  0  0  0  0  0  0
    4.0940   -1.0490    5.7430 C   0  0  0  0  0  0  0  0  0  0  0  0
    3.8790   -2.2480    6.4360 C   0  0  0  0  0  0  0  0  0  0  0  0
    2.6800   -2.4910    7.1280 C   0  0  0  0  0  0  0  0  0  0  0  0
    2.4920   -3.6900    7.8110 C   0  0  0  0  0  0  0  0  0  0  0  0
    3.4980   -4.6500    7.8060 C   0  0  0  0  0  0  0  0  0  0  0  0
    4.6900   -4.4070    7.1150 C   0  0  0  0  0  0  0  0  0  0  0  0
    4.9050   -3.2220    6.4260 C   0  0  0  0  0  0  0  0  0  0  0  0
    6.0680   -3.0380    5.7780 N   0  0  0  0  0  0  0  0  0  0  0  0
   12.2048   -9.1910    1.9420 H   0  0  0  0  0  0  0  0  0  0  0  0
   11.3595   -8.8271    0.3994 H   0  0  0  0  0  0  0  0  0  0  0  0
   13.1246   -9.1599    0.3994 H   0  0  0  0  0  0  0  0  0  0  0  0
   14.5900   -6.8781    1.9032 H   0  0  0  0  0  0  0  0  0  0  0  0
   14.5045   -7.8015    0.3648 H   0  0  0  0  0  0  0  0  0  0  0  0
   14.2196   -6.0279    0.3648 H   0  0  0  0  0  0  0  0  0  0  0  0
   12.7895   -7.4062    3.3073 H   0  0  0  0  0  0  0  0  0  0  0  0
   12.3791   -5.7470    2.7545 H   0  0  0  0  0  0  0  0  0  0  0  0
   11.1222   -7.0303    2.7545 H   0  0  0  0  0  0  0  0  0  0  0  0
   11.0840   -6.9940   -0.3340 H   0  0  0  0  0  0  0  0  0  0  0  0
    9.9224   -4.3991   -0.5395 H   0  0  0  0  0  0  0  0  0  0  0  0
   10.4946   -6.4827   -1.8674 H   0  0  0  0  0  0  0  0  0  0  0  0
    9.7508   -5.0807   -2.7998 H   0  0  0  0  0  0  0  0  0  0  0  0
   11.3741   -6.0342   -4.1953 H   0  0  0  0  0  0  0  0  0  0  0  0
   13.3629   -5.9184   -1.9036 H   0  0  0  0  0  0  0  0  0  0  0  0
   12.6195   -7.3871   -2.6614 H   0  0  0  0  0  0  0  0  0  0  0  0
   14.9371   -6.9427   -3.4670 H   0  0  0  0  0  0  0  0  0  0  0  0
   13.6891   -6.8914   -4.7776 H   0  0  0  0  0  0  0  0  0  0  0  0
   14.9807   -4.5050   -3.3840 H   0  0  0  0  0  0  0  0  0  0  0  0
   15.2486   -5.0678   -5.0847 H   0  0  0  0  0  0  0  0  0  0  0  0
   13.7042   -3.1094   -4.8989 H   0  0  0  0  0  0  0  0  0  0  0  0
   12.9712   -4.5960   -5.6640 H   0  0  0  0  0  0  0  0  0  0  0  0
   11.3188   -3.6519   -4.2556 H   0  0  0  0  0  0  0  0  0  0  0  0
   13.3538   -3.6225   -1.9848 H   0  0  0  0  0  0  0  0  0  0  0  0
   12.7488   -2.1933   -2.8828 H   0  0  0  0  0  0  0  0  0  0  0  0
   10.4970   -2.7930   -2.1970 H   0  0  0  0  0  0  0  0  0  0  0  0
   10.9538   -2.4260    0.3828 H   0  0  0  0  0  0  0  0  0  0  0  0
   12.4769   -1.8547   -0.3405 H   0  0  0  0  0  0  0  0  0  0  0  0
   11.4010   -0.0227   -1.3297 H   0  0  0  0  0  0  0  0  0  0  0  0
    9.0550   -1.5030   -1.9060 H   0  0  0  0  0  0  0  0  0  0  0  0
    8.7761   -0.1469   -0.3718 H   0  0  0  0  0  0  0  0  0  0  0  0
   11.0605    1.3394    0.9443 H   0  0  0  0  0  0  0  0  0  0  0  0
   10.3605    1.7820   -0.6879 H   0  0  0  0  0  0  0  0  0  0  0  0
    9.8459    4.0505    0.3377 H   0  0  0  0  0  0  0  0  0  0  0  0
    8.0142    5.3378    1.4269 H   0  0  0  0  0  0  0  0  0  0  0  0
    6.2150    4.1468    2.6728 H   0  0  0  0  0  0  0  0  0  0  0  0
    6.2514    1.6589    2.8381 H   0  0  0  0  0  0  0  0  0  0  0  0
    8.0760    0.3627    1.7457 H   0  0  0  0  0  0  0  0  0  0  0  0
   10.6740   -1.0140    1.7740 H   0  0  0  0  0  0  0  0  0  0  0  0
    9.9835   -2.3302    3.3833 H   0  0  0  0  0  0  0  0  0  0  0  0
   10.1607   -4.1720    1.5563 H   0  0  0  0  0  0  0  0  0  0  0  0
   10.1148   -4.6076    3.3140 H   0  0  0  0  0  0  0  0  0  0  0  0
    7.2920   -5.9430    0.7190 H   0  0  0  0  0  0  0  0  0  0  0  0
    8.5590   -4.9040    0.1650 H   0  0  0  0  0  0  0  0  0  0  0  0
    7.2690   -3.5370    3.5720 H   0  0  0  0  0  0  0  0  0  0  0  0
    5.4855    0.0868    4.5216 H   0  0  0  0  0  0  0  0  0  0  0  0
    3.3160   -0.2715    5.7305 H   0  0  0  0  0  0  0  0  0  0  0  0
    1.8858   -1.7299    7.1301 H   0  0  0  0  0  0  0  0  0  0  0  0
    1.5524   -3.8767    8.3517 H   0  0  0  0  0  0  0  0  0  0  0  0
    3.3568   -5.5988    8.3444 H   0  0  0  0  0  0  0  0  0  0  0  0
    5.4772   -5.1753    7.1180 H   0  0  0  0  0  0  0  0  0  0  0  0
  1  2  1  0
  2  3  1  0
  2  4  1  0
  2  5  1  0
  5  6  1  0
  6  7  2  0
  6  8  1  0
  8  9  1  0
  9 10  1  0
 10 11  1  0
 11 12  1  0
 12 13  1  0
 13 14  1  0
 14 15  1  0
 15 16  1  0
 16 17  1  0
 17 18  1  0
 18 19  1  0
 19 20  1  0
 19 21  1  0
 21 22  1  0
 22 23  1  0
 23 24  2  0
 24 25  1  0
 25 26  2  0
 26 27  1  0
 27 28  2  0
 21 29  1  0
 29 30  1  0
 30 31  2  0
 30 32  1  0
 32 33  1  0
 33 34  1  0
 34 35  1  0
 34 36  2  0
 32 37  1  0
 37 38  1  0
 38 39  2  0
 38 40  1  0
 40 41  2  0
 41 42  1  0
 42 43  2  0
 43 44  1  0
 44 45  2  0
 45 46  1  0
 46 47  2  0
 47 48  1  0
 48 49  2  0
 17  8  1  0
 28 23  1  0
 49 40  1  0
 15 10  1  0
 48 43  1  0
  1 50  1  0
  1 51  1  0
  1 52  1  0
  3 53  1  0
  3 54  1  0
  3 55  1  0
  4 56  1  0
  4 57  1  0
  4 58  1  0
  5 59  1  0
  8 60  1  1
  9 61  1  0
  9 62  1  0
 10 63  1  6
 11 64  1  0
 11 65  1  0
 12 66  1  0
 12 67  1  0
 13 68  1  0
 13 69  1  0
 14 70  1  0
 14 71  1  0
 15 72  1  6
 16 73  1  0
 16 74  1  0
 17 75  1  6
 18 76  1  0
 18 77  1  0
 19 78  1  6
 20 79  1  0
 21 80  1  6
 22 81  1  0
 22 82  1  0
 24 83  1  0
 25 84  1  0
 26 85  1  0
 27 86  1  0
 28 87  1  0
 29 88  1  0
 32 89  1  1
 33 90  1  0
 33 91  1  0
 35 92  1  0
 35 93  1  0
 37 94  1  0
 41 95  1  0
 42 96  1  0
 44 97  1  0
 45 98  1  0
 46 99  1  0
 47100  1  0
M  CHG  1  17   1
M  END
>  <meeko>  (6) 
{"is_sidechain": [false], "free_energy": -9.851, "intermolecular_energy": -18.271, "internal_energy": -1.542}

$$$$
3pww_ligand
     RDKit          3D

100104  0  0  0  0  0  0  0  0999 V2000
   12.6240   -9.1810    2.0760 C   0  0  0  0  0  0  0  0  0  0  0  0
   13.4330   -8.0900    1.3500 C   0  0  0  0  0  0  0  0  0  0  0  0
   14.4830   -8.7800    0.4640 C   0  0  0  0  0  0  0  0  0  0  0  0
   14.1210   -7.2110    2.4060 C   0  0  0  0  0  0  0  0  0  0  0  0
   12.4940   -7.2940    0.5320 N   0  0  0  0  0  0  0  0  0  0  0  0
   12.8490   -6.2030   -0.2310 C   0  0  0  0  0  0  0  0  0  0  0  0
   13.9920   -5.7550   -0.2880 O   0  0  0  0  0  0  0  0  0  0  0  0
   11.6890   -5.5230   -1.0040 C   0  0  2  0  0  0  0  0  0  0  0  0
   11.3410   -6.1970   -2.3380 C   0  0  0  0  0  0  0  0  0  0  0  0
   12.2850   -5.8640   -3.5060 C   0  0  2  0  0  0  0  0  0  0  0  0
   13.6140   -6.6340   -3.4280 C   0  0  0  0  0  0  0  0  0  0  0  0
   14.5320   -6.2890   -4.5980 C   0  0  0  0  0  0  0  0  0  0  0  0
   14.7850   -4.7880   -4.6810 C   0  0  0  0  0  0  0  0  0  0  0  0
   13.4780   -4.0050   -4.7610 C   0  0  0  0  0  0  0  0  0  0  0  0
   12.4960   -4.3440   -3.6300 C   0  0  2  0  0  0  0  0  0  0  0  0
   12.9320   -3.7210   -2.3010 C   0  0  0  0  0  0  0  0  0  0  0  0
   11.8960   -4.0270   -1.2520 N   0  0  2  0  0  0  0  0  0  0  0  0
   12.1080   -3.2220    0.0370 C   0  0  0  0  0  0  0  0  0  0  0  0
   10.7250   -2.7260    0.5000 C   0  0  1  0  0  0  0  0  0  0  0  0
    9.8130   -3.0480   -0.5710 O   0  0  0  0  0  0  0  0  0  0  0  0
   10.3090   -3.3220    1.8730 C   0  0  2  0  0  0  0  0  0  0  0  0
    9.6020   -4.6930    1.7430 C   0  0  0  0  0  0  0  0  0  0  0  0
    9.5880   -5.5000    3.0220 C   0  0  0  0  0  0  0  0  0  0  0  0
    8.4090   -5.6640    3.7630 C   0  0  0  0  0  0  0  0  0  0  0  0
    8.4120   -6.4160    4.9390 C   0  0  0  0  0  0  0  0  0  0  0  0
    9.5920   -7.0050    5.3900 C   0  0  0  0  0  0  0  0  0  0  0  0
   10.7720   -6.8390    4.6690 C   0  0  0  0  0  0  0  0  0  0  0  0
   10.7710   -6.0890    3.4920 C   0  0  0  0  0  0  0  0  0  0  0  0
    9.5160   -2.3660    2.6530 N   0  0  0  0  0  0  0  0  0  0  0  0
    8.2670   -1.9120    2.2990 C   0  0  0  0  0  0  0  0  0  0  0  0
    7.7850   -2.1660    1.1920 O   0  0  0  0  0  0  0  0  0  0  0  0
    7.5400   -1.0550    3.3620 C   0  0  2  0  0  0  0  0  0  0  0  0
    8.5100   -0.1340    4.1070 C   0  0  0  0  0  0  0  0  0  0  0  0
    8.9720    1.0070    3.2330 C   0  0  0  0  0  0  0  0  0  0  0  0
   10.3200    1.0880    3.0600 N   0  0  0  0  0  0  0  0  0  0  0  0
    8.2090    1.7810    2.6610 O   0  0  0  0  0  0  0  0  0  0  0  0
    6.8960   -1.9850    4.2840 N   0  0  0  0  0  0  0  0  0  0  0  0
    5.7480   -1.6740    4.9780 C   0  0  0  0  0  0  0  0  0  0  0  0
    5.1970   -0.5830    4.9070 O   0  0  0  0  0  0  0  0  0  0  0  0
    5.2210   -2.7830    5.8370 C   0  0  0  0  0  0  0  0  0  0  0  0
    5.9550   -3.9480    5.9850 C   0  0  0  0  0  0  0  0  0  0  0  0
    5.4230   -4.9500    6.7880 C   0  0  0  0  0  0  0  0  0  0  0  0
    4.1830   -4.7570    7.4120 C   0  0  0  0  0  0  0  0  0  0  0  0
    3.6110   -5.7470    8.2300 C   0  0  0  0  0  0  0  0  0  0  0  0
    2.3760   -5.5310    8.8370 C   0  0  0  0  0  0  0  0  0  0  0  0
    1.7080   -4.3290    8.6300 C   0  0  0  0  0  0  0  0  0  0  0  0
    2.2800   -3.3450    7.8170 C   0  0  0  0  0  0  0  0  0  0  0  0
    3.5090   -3.5320    7.1990 C   0  0  0  0  0  0  0  0  0  0  0  0
    4.0140   -2.5540    6.4270 N   0  0  0  0  0  0  0  0  0  0  0  0
   12.7226   -9.0480    3.1635 H   0  0  0  0  0  0  0  0  0  0  0  0
   11.5643   -9.1021    1.7915 H   0  0  0  0  0  0  0  0  0  0  0  0
   13.0072  -10.1721    1.7915 H   0  0  0  0  0  0  0  0  0  0  0  0
   15.2329   -9.2728    1.1002 H   0  0  0  0  0  0  0  0  0  0  0  0
   13.9904   -9.5310   -0.1711 H   0  0  0  0  0  0  0  0  0  0  0  0
   14.9769   -8.0299   -0.1711 H   0  0  0  0  0  0  0  0  0  0  0  0
   13.8459   -7.5625    3.4114 H   0  0  0  0  0  0  0  0  0  0  0  0
   15.2121   -7.2742    2.2813 H   0  0  0  0  0  0  0  0  0  0  0  0
   13.7976   -6.1670    2.2813 H   0  0  0  0  0  0  0  0  0  0  0  0
   11.5150   -7.5400    0.6230 H   0  0  0  0  0  0  0  0  0  0  0  0
   10.8409   -5.6520   -0.3154 H   0  0  0  0  0  0  0  0  0  0  0  0
   11.3607   -7.2860   -2.1844 H   0  0  0  0  0  0  0  0  0  0  0  0
   10.3517   -5.8117   -2.6257 H   0  0  0  0  0  0  0  0  0  0  0  0
   11.7945   -6.2059   -4.4293 H   0  0  0  0  0  0  0  0  0  0  0  0
   14.1219   -6.3753   -2.4872 H   0  0  0  0  0  0  0  0  0  0  0  0
   13.3914   -7.7104   -3.4707 H   0  0  0  0  0  0  0  0  0  0  0  0
   15.4930   -6.8073   -4.4641 H   0  0  0  0  0  0  0  0  0  0  0  0
   14.0424   -6.6101   -5.5292 H   0  0  0  0  0  0  0  0  0  0  0  0
   15.3389   -4.4687   -3.7859 H   0  0  0  0  0  0  0  0  0  0  0  0
   15.3654   -4.5854   -5.5932 H   0  0  0  0  0  0  0  0  0  0  0  0
   13.7108   -2.9311   -4.7109 H   0  0  0  0  0  0  0  0  0  0  0  0
   12.9911   -4.2801   -5.7083 H   0  0  0  0  0  0  0  0  0  0  0  0
   11.5242   -3.9000   -3.8918 H   0  0  0  0  0  0  0  0  0  0  0  0
   13.9010   -4.1431   -1.9963 H   0  0  0  0  0  0  0  0  0  0  0  0
   13.0327   -2.6318   -2.4168 H   0  0  0  0  0  0  0  0  0  0  0  0
   10.9880   -3.6490   -1.5880 H   0  0  0  0  0  0  0  0  0  0  0  0
   12.5569   -3.8619    0.8109 H   0  0  0  0  0  0  0  0  0  0  0  0
   12.7864   -2.3744   -0.1403 H   0  0  0  0  0  0  0  0  0  0  0  0
   10.7273   -1.6418    0.6855 H   0  0  0  0  0  0  0  0  0  0  0  0
    9.8640   -2.2890   -1.2070 H   0  0  0  0  0  0  0  0  0  0  0  0
   11.2389   -3.5129    2.4287 H   0  0  0  0  0  0  0  0  0  0  0  0
    8.5613   -4.5178    1.4328 H   0  0  0  0  0  0  0  0  0  0  0  0
   10.1709   -5.2764    1.0041 H   0  0  0  0  0  0  0  0  0  0  0  0
    7.4757   -5.1970    3.4154 H   0  0  0  0  0  0  0  0  0  0  0  0
    7.4812   -6.5440    5.5110 H   0  0  0  0  0  0  0  0  0  0  0  0
    9.5913   -7.6006    6.3148 H   0  0  0  0  0  0  0  0  0  0  0  0
   11.7048   -7.2990    5.0272 H   0  0  0  0  0  0  0  0  0  0  0  0
   11.7063   -5.9586    2.9279 H   0  0  0  0  0  0  0  0  0  0  0  0
    9.7690   -2.2630    3.6430 H   0  0  0  0  0  0  0  0  0  0  0  0
    6.8012   -0.3971    2.8810 H   0  0  0  0  0  0  0  0  0  0  0  0
    8.0036    0.2768    4.9929 H   0  0  0  0  0  0  0  0  0  0  0  0
    9.3914   -0.7243    4.3980 H   0  0  0  0  0  0  0  0  0  0  0  0
   10.6760    1.8730    2.5280 H   0  0  0  0  0  0  0  0  0  0  0  0
   10.9700    0.6050    3.6660 H   0  0  0  0  0  0  0  0  0  0  0  0
    7.2670   -2.9290    4.3980 H   0  0  0  0  0  0  0  0  0  0  0  0
    6.9259   -4.0760    5.4841 H   0  0  0  0  0  0  0  0  0  0  0  0
    5.9733   -5.8913    6.9333 H   0  0  0  0  0  0  0  0  0  0  0  0
    4.1414   -6.6970    8.3915 H   0  0  0  0  0  0  0  0  0  0  0  0
    1.9313   -6.3074    9.4769 H   0  0  0  0  0  0  0  0  0  0  0  0
    0.7316   -4.1524    9.1048 H   0  0  0  0  0  0  0  0  0  0  0  0
    1.7419   -2.3980    7.6632 H   0  0  0  0  0  0  0  0  0  0  0  0
  1  2  1  0
  2  3  1  0
  2  4  1  0
  2  5  1  0
  5  6  1  0
  6  7  2  0
  6  8  1  0
  8  9  1  0
  9 10  1  0
 10 11  1  0
 11 12  1  0
 12 13  1  0
 13 14  1  0
 14 15  1  0
 15 16  1  0
 16 17  1  0
 17 18  1  0
 18 19  1  0
 19 20  1  0
 19 21  1  0
 21 22  1  0
 22 23  1  0
 23 24  2  0
 24 25  1  0
 25 26  2  0
 26 27  1  0
 27 28  2  0
 21 29  1  0
 29 30  1  0
 30 31  2  0
 30 32  1  0
 32 33  1  0
 33 34  1  0
 34 35  1  0
 34 36  2  0
 32 37  1  0
 37 38  1  0
 38 39  2  0
 38 40  1  0
 40 41  2  0
 41 42  1  0
 42 43  2  0
 43 44  1  0
 44 45  2  0
 45 46  1  0
 46 47  2  0
 47 48  1  0
 48 49  2  0
 17  8  1  0
 28 23  1  0
 49 40  1  0
 15 10  1  0
 48 43  1  0
  1 50  1  0
  1 51  1  0
  1 52  1  0
  3 53  1  0
  3 54  1  0
  3 55  1  0
  4 56  1  0
  4 57  1  0
  4 58  1  0
  5 59  1  0
  8 60  1  1
  9 61  1  0
  9 62  1  0
 10 63  1  6
 11 64  1  0
 11 65  1  0
 12 66  1  0
 12 67  1  0
 13 68  1  0
 13 69  1  0
 14 70  1  0
 14 71  1  0
 15 72  1  6
 16 73  1  0
 16 74  1  0
 17 75  1  6
 18 76  1  0
 18 77  1  0
 19 78  1  1
 20 79  1  0
 21 80  1  1
 22 81  1  0
 22 82  1  0
 24 83  1  0
 25 84  1  0
 26 85  1  0
 27 86  1  0
 28 87  1  0
 29 88  1  0
 32 89  1  6
 33 90  1  0
 33 91  1  0
 35 92  1  0
 35 93  1  0
 37 94  1  0
 41 95  1  0
 42 96  1  0
 44 97  1  0
 45 98  1  0
 46 99  1  0
 47100  1  0
M  CHG  1  17   1
M  END
>  <meeko>  (7) 
{"is_sidechain": [false], "free_energy": -9.658, "intermolecular_energy": -17.404, "internal_energy": -2.063}

$$$$
3pww_ligand
     RDKit          3D

100104  0  0  0  0  0  0  0  0999 V2000
   13.0050   -4.2450    2.5650 C   0  0  0  0  0  0  0  0  0  0  0  0
   12.2860   -5.5160    2.0720 C   0  0  0  0  0  0  0  0  0  0  0  0
   11.3010   -5.9650    3.1620 C   0  0  0  0  0  0  0  0  0  0  0  0
   13.3400   -6.6050    1.8230 C   0  0  0  0  0  0  0  0  0  0  0  0
   11.5720   -5.1790    0.8220 N   0  0  0  0  0  0  0  0  0  0  0  0
   12.1750   -4.7090   -0.3240 C   0  0  0  0  0  0  0  0  0  0  0  0
   13.3800   -4.4870   -0.4180 O   0  0  0  0  0  0  0  0  0  0  0  0
   11.2190   -4.4230   -1.5110 C   0  0  2  0  0  0  0  0  0  0  0  0
   11.0090   -5.6170   -2.4530 C   0  0  0  0  0  0  0  0  0  0  0  0
   12.1470   -5.8680   -3.4570 C   0  0  2  0  0  0  0  0  0  0  0  0
   13.3640   -6.5520   -2.8100 C   0  0  0  0  0  0  0  0  0  0  0  0
   14.4780   -6.7920   -3.8260 C   0  0  0  0  0  0  0  0  0  0  0  0
   14.8920   -5.4960   -4.5130 C   0  0  0  0  0  0  0  0  0  0  0  0
   13.6980   -4.8030   -5.1630 C   0  0  0  0  0  0  0  0  0  0  0  0
   12.5280   -4.5720   -4.1950 C   0  0  2  0  0  0  0  0  0  0  0  0
   12.8200   -3.4270   -3.2210 C   0  0  0  0  0  0  0  0  0  0  0  0
   11.6130   -3.2040   -2.3500 N   0  0  2  0  0  0  0  0  0  0  0  0
   11.7090   -1.9100   -1.5310 C   0  0  0  0  0  0  0  0  0  0  0  0
   10.9580   -0.8160   -2.3130 C   0  0  1  0  0  0  0  0  0  0  0  0
    9.5970   -0.8540   -1.8330 O   0  0  0  0  0  0  0  0  0  0  0  0
   11.6270    0.5790   -2.1740 C   0  0  2  0  0  0  0  0  0  0  0  0
   13.1350    0.5600   -2.5220 C   0  0  0  0  0  0  0  0  0  0  0  0
   13.5540    1.6360   -3.4990 C   0  0  0  0  0  0  0  0  0  0  0  0
   12.9890    1.7130   -4.7800 C   0  0  0  0  0  0  0  0  0  0  0  0
   13.3820    2.7160   -5.6670 C   0  0  0  0  0  0  0  0  0  0  0  0
   14.3480    3.6460   -5.2880 C   0  0  0  0  0  0  0  0  0  0  0  0
   14.9250    3.5720   -4.0230 C   0  0  0  0  0  0  0  0  0  0  0  0
   14.5320    2.5720   -3.1340 C   0  0  0  0  0  0  0  0  0  0  0  0
   11.3750    1.1640   -0.8520 N   0  0  0  0  0  0  0  0  0  0  0  0
   10.2260    1.8340   -0.4990 C   0  0  0  0  0  0  0  0  0  0  0  0
    9.3760    2.1320   -1.3410 O   0  0  0  0  0  0  0  0  0  0  0  0
   10.0990    2.2010    0.9980 C   0  0  2  0  0  0  0  0  0  0  0  0
   11.4240    2.7120    1.5700 C   0  0  0  0  0  0  0  0  0  0  0  0
   12.1130    1.6550    2.3990 C   0  0  0  0  0  0  0  0  0  0  0  0
   11.9280    1.7670    3.7440 N   0  0  0  0  0  0  0  0  0  0  0  0
   12.7500    0.7190    1.9210 O   0  0  0  0  0  0  0  0  0  0  0  0
    9.6660    0.9930    1.6930 N   0  0  0  0  0  0  0  0  0  0  0  0
    8.5650    0.9610    2.5190 C   0  0  0  0  0  0  0  0  0  0  0  0
    7.8850    1.9480    2.7680 O   0  0  0  0  0  0  0  0  0  0  0  0
    8.2620   -0.3880    3.0990 C   0  0  0  0  0  0  0  0  0  0  0  0
    7.9340   -0.5030    4.4390 C   0  0  0  0  0  0  0  0  0  0  0  0
    7.6650   -1.7740    4.9320 C   0  0  0  0  0  0  0  0  0  0  0  0
    7.7330   -2.8820    4.0750 C   0  0  0  0  0  0  0  0  0  0  0  0
    7.4700   -4.1830    4.5360 C   0  0  0  0  0  0  0  0  0  0  0  0
    7.5460   -5.2670    3.6640 C   0  0  0  0  0  0  0  0  0  0  0  0
    7.8850   -5.0570    2.3330 C   0  0  0  0  0  0  0  0  0  0  0  0
    8.1450   -3.7600    1.8760 C   0  0  0  0  0  0  0  0  0  0  0  0
    8.0760   -2.6610    2.7210 C   0  0  0  0  0  0  0  0  0  0  0  0
    8.3360   -1.4370    2.2320 N   0  0  0  0  0  0  0  0  0  0  0  0
   13.0127   -4.2314    3.6649 H   0  0  0  0  0  0  0  0  0  0  0  0
   14.0395   -4.2405    2.1910 H   0  0  0  0  0  0  0  0  0  0  0  0
   12.4760   -3.3560    2.1910 H   0  0  0  0  0  0  0  0  0  0  0  0
   11.7355   -5.7670    4.1530 H   0  0  0  0  0  0  0  0  0  0  0  0
   10.3586   -5.4075    3.0568 H   0  0  0  0  0  0  0  0  0  0  0  0
   11.1036   -7.0420    3.0568 H   0  0  0  0  0  0  0  0  0  0  0  0
   13.7086   -6.9858    2.7869 H   0  0  0  0  0  0  0  0  0  0  0  0
   12.8878   -7.4292    1.2519 H   0  0  0  0  0  0  0  0  0  0  0  0
   14.1785   -6.1800    1.2519 H   0  0  0  0  0  0  0  0  0  0  0  0
   10.5600   -5.2320    0.8670 H   0  0  0  0  0  0  0  0  0  0  0  0
   10.2686   -4.2088   -1.0003 H   0  0  0  0  0  0  0  0  0  0  0  0
   10.8939   -6.5206   -1.8364 H   0  0  0  0  0  0  0  0  0  0  0  0
   10.1191   -5.3784   -3.0540 H   0  0  0  0  0  0  0  0  0  0  0  0
   11.7692   -6.5772   -4.2082 H   0  0  0  0  0  0  0  0  0  0  0  0
   13.7481   -5.9097   -2.0038 H   0  0  0  0  0  0  0  0  0  0  0  0
   13.0419   -7.5268   -2.4150 H   0  0  0  0  0  0  0  0  0  0  0  0
   15.3502   -7.2167   -3.3074 H   0  0  0  0  0  0  0  0  0  0  0  0
   14.1039   -7.4864   -4.5928 H   0  0  0  0  0  0  0  0  0  0  0  0
   15.3344   -4.8206   -3.7659 H   0  0  0  0  0  0  0  0  0  0  0  0
   15.6209   -5.7395   -5.3000 H   0  0  0  0  0  0  0  0  0  0  0  0
   14.0286   -3.8278   -5.5500 H   0  0  0  0  0  0  0  0  0  0  0  0
   13.3333   -5.4645   -5.9626 H   0  0  0  0  0  0  0  0  0  0  0  0
   11.6568   -4.2697   -4.7947 H   0  0  0  0  0  0  0  0  0  0  0  0
   13.6845   -3.6885   -2.5931 H   0  0  0  0  0  0  0  0  0  0  0  0
   13.0466   -2.5094   -3.7837 H   0  0  0  0  0  0  0  0  0  0  0  0
   10.8080   -2.9970   -2.9750 H   0  0  0  0  0  0  0  0  0  0  0  0
   11.2443   -2.0537   -0.5444 H   0  0  0  0  0  0  0  0  0  0  0  0
   12.7599   -1.6251   -1.3748 H   0  0  0  0  0  0  0  0  0  0  0  0
   10.9865   -1.0042   -3.3964 H   0  0  0  0  0  0  0  0  0  0  0  0
    9.6600   -0.8720   -0.8430 H   0  0  0  0  0  0  0  0  0  0  0  0
   11.1528    1.2315   -2.9219 H   0  0  0  0  0  0  0  0  0  0  0  0
   13.7065    0.6956   -1.5919 H   0  0  0  0  0  0  0  0  0  0  0  0
   13.3379   -0.4065   -3.0064 H   0  0  0  0  0  0  0  0  0  0  0  0
   12.2309    0.9778   -5.0878 H   0  0  0  0  0  0  0  0  0  0  0  0
   12.9283    2.7726   -6.6675 H   0  0  0  0  0  0  0  0  0  0  0  0
   14.6544    4.4378   -5.9875 H   0  0  0  0  0  0  0  0  0  0  0  0
   15.6912    4.3027   -3.7247 H   0  0  0  0  0  0  0  0  0  0  0  0
   14.9936    2.5170   -2.1371 H   0  0  0  0  0  0  0  0  0  0  0  0
   11.9420    0.8020   -0.0770 H   0  0  0  0  0  0  0  0  0  0  0  0
    9.3729    3.0168    1.1298 H   0  0  0  0  0  0  0  0  0  0  0  0
   12.0842    3.0012    0.7390 H   0  0  0  0  0  0  0  0  0  0  0  0
   11.2102    3.5743    2.2186 H   0  0  0  0  0  0  0  0  0  0  0  0
   12.4210    1.1130    4.3390 H   0  0  0  0  0  0  0  0  0  0  0  0
   11.5910    2.6210    4.1700 H   0  0  0  0  0  0  0  0  0  0  0  0
   10.1550    0.1110    1.5340 H   0  0  0  0  0  0  0  0  0  0  0  0
    7.8879    0.3816    5.0912 H   0  0  0  0  0  0  0  0  0  0  0  0
    7.3997   -1.9106    5.9907 H   0  0  0  0  0  0  0  0  0  0  0  0
    7.2028   -4.3465    5.5905 H   0  0  0  0  0  0  0  0  0  0  0  0
    7.3386   -6.2843    4.0276 H   0  0  0  0  0  0  0  0  0  0  0  0
    7.9489   -5.9086    1.6397 H   0  0  0  0  0  0  0  0  0  0  0  0
    8.4110   -3.6076    0.8196 H   0  0  0  0  0  0  0  0  0  0  0  0
  1  2  1  0
  2  3  1  0
  2  4  1  0
  2  5  1  0
  5  6  1  0
  6  7  2  0
  6  8  1  0
  8  9  1  0
  9 10  1  0
 10 11  1  0
 11 12  1  0
 12 13  1  0
 13 14  1  0
 14 15  1  0
 15 16  1  0
 16 17  1  0
 17 18  1  0
 18 19  1  0
 19 20  1  0
 19 21  1  0
 21 22  1  0
 22 23  1  0
 23 24  2  0
 24 25  1  0
 25 26  2  0
 26 27  1  0
 27 28  2  0
 21 29  1  0
 29 30  1  0
 30 31  2  0
 30 32  1  0
 32 33  1  0
 33 34  1  0
 34 35  1  0
 34 36  2  0
 32 37  1  0
 37 38  1  0
 38 39  2  0
 38 40  1  0
 40 41  2  0
 41 42  1  0
 42 43  2  0
 43 44  1  0
 44 45  2  0
 45 46  1  0
 46 47  2  0
 47 48  1  0
 48 49  2  0
 17  8  1  0
 28 23  1  0
 49 40  1  0
 15 10  1  0
 48 43  1  0
  1 50  1  0
  1 51  1  0
  1 52  1  0
  3 53  1  0
  3 54  1  0
  3 55  1  0
  4 56  1  0
  4 57  1  0
  4 58  1  0
  5 59  1  0
  8 60  1  1
  9 61  1  0
  9 62  1  0
 10 63  1  6
 11 64  1  0
 11 65  1  0
 12 66  1  0
 12 67  1  0
 13 68  1  0
 13 69  1  0
 14 70  1  0
 14 71  1  0
 15 72  1  6
 16 73  1  0
 16 74  1  0
 17 75  1  6
 18 76  1  0
 18 77  1  0
 19 78  1  6
 20 79  1  0
 21 80  1  6
 22 81  1  0
 22 82  1  0
 24 83  1  0
 25 84  1  0
 26 85  1  0
 27 86  1  0
 28 87  1  0
 29 88  1  0
 32 89  1  6
 33 90  1  0
 33 91  1  0
 35 92  1  0
 35 93  1  0
 37 94  1  0
 41 95  1  0
 42 96  1  0
 44 97  1  0
 45 98  1  0
 46 99  1  0
 47100  1  0
M  CHG  1  17   1
M  END
>  <meeko>  (8) 
{"is_sidechain": [false], "free_energy": -9.568, "intermolecular_energy": -16.858, "internal_energy": -2.448}

$$$$
3pww_ligand
     RDKit          3D

100104  0  0  0  0  0  0  0  0999 V2000
   14.8140   -3.6390    3.9980 C   0  0  0  0  0  0  0  0  0  0  0  0
   14.4990   -5.1270    3.7520 C   0  0  0  0  0  0  0  0  0  0  0  0
   14.3440   -5.8180    5.1160 C   0  0  0  0  0  0  0  0  0  0  0  0
   15.6660   -5.7480    2.9700 C   0  0  0  0  0  0  0  0  0  0  0  0
   13.2440   -5.2060    2.9750 N   0  0  0  0  0  0  0  0  0  0  0  0
   13.0890   -4.7440    1.6860 C   0  0  0  0  0  0  0  0  0  0  0  0
   13.9800   -4.1830    1.0520 O   0  0  0  0  0  0  0  0  0  0  0  0
   11.6760   -4.9330    1.0750 C   0  0  2  0  0  0  0  0  0  0  0  0
   11.4350   -6.3220    0.4660 C   0  0  0  0  0  0  0  0  0  0  0  0
   12.0450   -6.5410   -0.9290 C   0  0  2  0  0  0  0  0  0  0  0  0
   13.5610   -6.7940   -0.8760 C   0  0  0  0  0  0  0  0  0  0  0  0
   14.1430   -7.0100   -2.2710 C   0  0  0  0  0  0  0  0  0  0  0  0
   13.8250   -5.8390   -3.1940 C   0  0  0  0  0  0  0  0  0  0  0  0
   12.3230   -5.5730   -3.2610 C   0  0  0  0  0  0  0  0  0  0  0  0
   11.6760   -5.3880   -1.8800 C   0  0  2  0  0  0  0  0  0  0  0  0
   12.0160   -4.0230   -1.2770 C   0  0  0  0  0  0  0  0  0  0  0  0
   11.2980   -3.8730    0.0370 N   0  0  2  0  0  0  0  0  0  0  0  0
   11.3610   -2.4410    0.5830 C   0  0  0  0  0  0  0  0  0  0  0  0
   10.0260   -1.7570    0.2300 C   0  0  1  0  0  0  0  0  0  0  0  0
    9.2130   -2.7770   -0.3890 O   0  0  0  0  0  0  0  0  0  0  0  0
    9.3560   -1.0900    1.4630 C   0  0  2  0  0  0  0  0  0  0  0  0
   10.0390    0.2380    1.8730 C   0  0  0  0  0  0  0  0  0  0  0  0
    9.1060    1.4280    1.8890 C   0  0  0  0  0  0  0  0  0  0  0  0
    9.3920    2.5850    1.1510 C   0  0  0  0  0  0  0  0  0  0  0  0
    8.5180    3.6720    1.1730 C   0  0  0  0  0  0  0  0  0  0  0  0
    7.3540    3.6190    1.9380 C   0  0  0  0  0  0  0  0  0  0  0  0
    7.0650    2.4800    2.6850 C   0  0  0  0  0  0  0  0  0  0  0  0
    7.9360    1.3910    2.6630 C   0  0  0  0  0  0  0  0  0  0  0  0
    9.2530   -2.0260    2.5880 N   0  0  0  0  0  0  0  0  0  0  0  0
    8.3070   -3.0200    2.6950 C   0  0  0  0  0  0  0  0  0  0  0  0
    7.3610   -3.0890    1.9060 O   0  0  0  0  0  0  0  0  0  0  0  0
    8.5030   -4.0050    3.8710 C   0  0  2  0  0  0  0  0  0  0  0  0
    8.7580   -5.4320    3.3770 C   0  0  0  0  0  0  0  0  0  0  0  0
    9.2420   -6.3250    4.4930 C   0  0  0  0  0  0  0  0  0  0  0  0
   10.4070   -6.9840    4.2390 N   0  0  0  0  0  0  0  0  0  0  0  0
    8.6800   -6.4240    5.5820 O   0  0  0  0  0  0  0  0  0  0  0  0
    7.2890   -3.9450    4.6780 N   0  0  0  0  0  0  0  0  0  0  0  0
    6.8990   -2.8140    5.3590 C   0  0  0  0  0  0  0  0  0  0  0  0
    7.5580   -1.7810    5.3730 O   0  0  0  0  0  0  0  0  0  0  0  0
    5.5980   -2.9450    6.0900 C   0  0  0  0  0  0  0  0  0  0  0  0
    4.7300   -1.8680    6.1490 C   0  0  0  0  0  0  0  0  0  0  0  0
    3.5370   -2.0360    6.8420 C   0  0  0  0  0  0  0  0  0  0  0  0
    3.2530   -3.2660    7.4500 C   0  0  0  0  0  0  0  0  0  0  0  0
    2.0580   -3.4740    8.1600 C   0  0  0  0  0  0  0  0  0  0  0  0
    1.8010   -4.7070    8.7570 C   0  0  0  0  0  0  0  0  0  0  0  0
    2.7320   -5.7330    8.6470 C   0  0  0  0  0  0  0  0  0  0  0  0
    3.9190   -5.5240    7.9380 C   0  0  0  0  0  0  0  0  0  0  0  0
    4.2030   -4.3070    7.3330 C   0  0  0  0  0  0  0  0  0  0  0  0
    5.3590   -4.1580    6.6630 N   0  0  0  0  0  0  0  0  0  0  0  0
   14.8547   -3.4469    5.0803 H   0  0  0  0  0  0  0  0  0  0  0  0
   15.7848   -3.3899    3.5446 H   0  0  0  0  0  0  0  0  0  0  0  0
   14.0274   -3.0179    3.5446 H   0  0  0  0  0  0  0  0  0  0  0  0
   14.5085   -5.0847    5.9193 H   0  0  0  0  0  0  0  0  0  0  0  0
   13.3299   -6.2353    5.2025 H   0  0  0  0  0  0  0  0  0  0  0  0
   15.0827   -6.6285    5.2025 H   0  0  0  0  0  0  0  0  0  0  0  0
   16.4107   -6.1443    3.6759 H   0  0  0  0  0  0  0  0  0  0  0  0
   15.2896   -6.5651    2.3370 H   0  0  0  0  0  0  0  0  0  0  0  0
   16.1334   -4.9794    2.3370 H   0  0  0  0  0  0  0  0  0  0  0  0
   12.4360   -5.5550    3.4790 H   0  0  0  0  0  0  0  0  0  0  0  0
   11.0224   -4.8167    1.9521 H   0  0  0  0  0  0  0  0  0  0  0  0
   11.8652   -7.0713    1.1468 H   0  0  0  0  0  0  0  0  0  0  0  0
   10.3461   -6.4153    0.3408 H   0  0  0  0  0  0  0  0  0  0  0  0
   11.6026   -7.4610   -1.3386 H   0  0  0  0  0  0  0  0  0  0  0  0
   14.0523   -5.9246   -0.4148 H   0  0  0  0  0  0  0  0  0  0  0  0
   13.7378   -7.7043   -0.2843 H   0  0  0  0  0  0  0  0  0  0  0  0
   15.2349   -7.1161   -2.1907 H   0  0  0  0  0  0  0  0  0  0  0  0
   13.6927   -7.9187   -2.6970 H   0  0  0  0  0  0  0  0  0  0  0  0
   14.3313   -4.9383   -2.8166 H   0  0  0  0  0  0  0  0  0  0  0  0
   14.1770   -6.0905   -4.2054 H   0  0  0  0  0  0  0  0  0  0  0  0
   12.1563   -4.6589   -3.8498 H   0  0  0  0  0  0  0  0  0  0  0  0
   11.8564   -6.4552   -3.7236 H   0  0  0  0  0  0  0  0  0  0  0  0
   10.5852   -5.4158   -2.0193 H   0  0  0  0  0  0  0  0  0  0  0  0
   13.1015   -3.9524   -1.1138 H   0  0  0  0  0  0  0  0  0  0  0  0
   11.7007   -3.2248   -1.9650 H   0  0  0  0  0  0  0  0  0  0  0  0
   10.2800   -3.9830   -0.1470 H   0  0  0  0  0  0  0  0  0  0  0  0
   11.4973   -2.4599    1.6744 H   0  0  0  0  0  0  0  0  0  0  0  0
   12.2075   -1.8933    0.1431 H   0  0  0  0  0  0  0  0  0  0  0  0
   10.1753   -0.9158   -0.4629 H   0  0  0  0  0  0  0  0  0  0  0  0
    8.8720   -3.3380    0.3550 H   0  0  0  0  0  0  0  0  0  0  0  0
    8.3331   -0.8225    1.1595 H   0  0  0  0  0  0  0  0  0  0  0  0
   10.4594    0.1141    2.8819 H   0  0  0  0  0  0  0  0  0  0  0  0
   10.8099    0.4471    1.1167 H   0  0  0  0  0  0  0  0  0  0  0  0
   10.3121    2.6361    0.5503 H   0  0  0  0  0  0  0  0  0  0  0  0
    8.7479    4.5730    0.5853 H   0  0  0  0  0  0  0  0  0  0  0  0
    6.6645    4.4760    1.9516 H   0  0  0  0  0  0  0  0  0  0  0  0
    6.1491    2.4391    3.2929 H   0  0  0  0  0  0  0  0  0  0  0  0
    7.7038    0.4952    3.2576 H   0  0  0  0  0  0  0  0  0  0  0  0
   10.0940   -2.1400    3.1650 H   0  0  0  0  0  0  0  0  0  0  0  0
    9.3866   -3.7220    4.4619 H   0  0  0  0  0  0  0  0  0  0  0  0
    7.8216   -5.8425    2.9712 H   0  0  0  0  0  0  0  0  0  0  0  0
    9.5375   -5.3949    2.6018 H   0  0  0  0  0  0  0  0  0  0  0  0
   10.7360   -7.6380    4.9380 H   0  0  0  0  0  0  0  0  0  0  0  0
   10.7750   -7.0820    3.3010 H   0  0  0  0  0  0  0  0  0  0  0  0
    6.6610   -4.7490    4.7130 H   0  0  0  0  0  0  0  0  0  0  0  0
    4.9762   -0.9119    5.6639 H   0  0  0  0  0  0  0  0  0  0  0  0
    2.8183   -1.2063    6.9129 H   0  0  0  0  0  0  0  0  0  0  0  0
    1.3226   -2.6604    8.2449 H   0  0  0  0  0  0  0  0  0  0  0  0
    0.8654   -4.8673    9.3128 H   0  0  0  0  0  0  0  0  0  0  0  0
    2.5354   -6.7079    9.1169 H   0  0  0  0  0  0  0  0  0  0  0  0
    4.6466   -6.3450    7.8575 H   0  0  0  0  0  0  0  0  0  0  0  0
  1  2  1  0
  2  3  1  0
  2  4  1  0
  2  5  1  0
  5  6  1  0
  6  7  2  0
  6  8  1  0
  8  9  1  0
  9 10  1  0
 10 11  1  0
 11 12  1  0
 12 13  1  0
 13 14  1  0
 14 15  1  0
 15 16  1  0
 16 17  1  0
 17 18  1  0
 18 19  1  0
 19 20  1  0
 19 21  1  0
 21 22  1  0
 22 23  1  0
 23 24  2  0
 24 25  1  0
 25 26  2  0
 26 27  1  0
 27 28  2  0
 21 29  1  0
 29 30  1  0
 30 31  2  0
 30 32  1  0
 32 33  1  0
 33 34  1  0
 34 35  1  0
 34 36  2  0
 32 37  1  0
 37 38  1  0
 38 39  2  0
 38 40  1  0
 40 41  2  0
 41 42  1  0
 42 43  2  0
 43 44  1  0
 44 45  2  0
 45 46  1  0
 46 47  2  0
 47 48  1  0
 48 49  2  0
 17  8  1  0
 28 23  1  0
 49 40  1  0
 15 10  1  0
 48 43  1  0
  1 50  1  0
  1 51  1  0
  1 52  1  0
  3 53  1  0
  3 54  1  0
  3 55  1  0
  4 56  1  0
  4 57  1  0
  4 58  1  0
  5 59  1  0
  8 60  1  1
  9 61  1  0
  9 62  1  0
 10 63  1  6
 11 64  1  0
 11 65  1  0
 12 66  1  0
 12 67  1  0
 13 68  1  0
 13 69  1  0
 14 70  1  0
 14 71  1  0
 15 72  1  6
 16 73  1  0
 16 74  1  0
 17 75  1  6
 18 76  1  0
 18 77  1  0
 19 78  1  6
 20 79  1  0
 21 80  1  6
 22 81  1  0
 22 82  1  0
 24 83  1  0
 25 84  1  0
 26 85  1  0
 27 86  1  0
 28 87  1  0
 29 88  1  0
 32 89  1  1
 33 90  1  0
 33 91  1  0
 35 92  1  0
 35 93  1  0
 37 94  1  0
 41 95  1  0
 42 96  1  0
 44 97  1  0
 45 98  1  0
 46 99  1  0
 47100  1  0
M  CHG  1  17   1
M  END
>  <meeko>  (9) 
{"is_sidechain": [false], "free_energy": -9.497, "intermolecular_energy": -17.276, "internal_energy": -1.904}

$$$$
