
     RDKit          3D

 10 10  0  0  0  0  0  0  0  0999 V2000
   -0.1460    4.5930   -0.7700 N   0  0  0  0  0  0  0  0  0  0  0  0
    1.4580    4.5670   -0.4170 S   0  0  2  0  0  0  0  0  0  0  0  0
    2.1990    4.1140   -1.6090 O   0  0  0  0  0  0  0  0  0  0  0  0
    1.6430    3.7170    0.7670 O   0  0  0  0  0  0  0  0  0  0  0  0
    2.0230    6.1870   -0.0400 C   0  0  0  0  0  0  0  0  0  0  0  0
    1.6880    7.2420   -0.8700 C   0  0  0  0  0  0  0  0  0  0  0  0
    2.1370    8.5350   -0.5710 C   0  0  0  0  0  0  0  0  0  0  0  0
    2.9250    8.7390    0.5430 C   0  0  0  0  0  0  0  0  0  0  0  0
    3.2690    7.6870    1.3630 C   0  0  0  0  0  0  0  0  0  0  0  0
    2.8280    6.4100    1.0820 C   0  0  0  0  0  0  0  0  0  0  0  0
  2  1  1  6
  3  2  2  0
  4  2  2  0
  5  2  1  0
  6  5  2  0
  7  6  1  0
  8  7  2  0
  9  8  1  0
 10  9  2  0
 10  5  1  0
M  END
$$$$
