3dd0_ligand
     RDKit          3D

 26 27  0  0  0  0  0  0  0  0999 V2000
    1.9920    7.2360  -11.9480 C   0  0  0  0  0  0  0  0  0  0  0  0
    1.1480    5.9990  -11.6960 C   0  0  0  0  0  0  0  0  0  0  0  0
    0.5220    6.1460  -10.4220 O   0  0  0  0  0  0  0  0  0  0  0  0
    0.5350    5.0620   -9.5870 C   0  0  0  0  0  0  0  0  0  0  0  0
   -0.0660    4.9930   -8.3330 C   0  0  0  0  0  0  0  0  0  0  0  0
    0.0150    3.8220   -7.5660 C   0  0  0  0  0  0  0  0  0  0  0  0
    0.7090    2.7010   -8.0610 C   0  0  0  0  0  0  0  0  0  0  0  0
    0.8660    1.4910   -7.4090 N   0  0  0  0  0  0  0  0  0  0  0  0
    1.5600    0.6740   -8.1760 C   0  0  0  0  0  0  0  0  0  0  0  0
    2.0420   -0.9900   -7.7760 S   0  0  0  0  0  0  0  0  0  0  0  0
    2.9030   -0.9750   -6.3200 N   0  0  0  0  0  0  0  0  0  0  0  0
    2.9850   -1.4220   -8.7830 O   0  0  0  0  0  0  0  0  0  0  0  0
    0.8380   -1.7340   -7.4840 O   0  0  0  0  0  0  0  0  0  0  0  0
    2.0830    1.2940   -9.6800 S   0  0  0  0  0  0  0  0  0  0  0  0
    1.3060    2.7880   -9.3200 C   0  0  0  0  0  0  0  0  0  0  0  0
    1.2300    3.9570  -10.0950 C   0  0  0  0  0  0  0  0  0  0  0  0
    2.2928    7.6768  -10.9861 H   0  0  0  0  0  0  0  0  0  0  0  0
    2.8892    6.9574  -12.5202 H   0  0  0  0  0  0  0  0  0  0  0  0
    1.4054    7.9698  -12.5202 H   0  0  0  0  0  0  0  0  0  0  0  0
    0.3821    5.9033  -12.4797 H   0  0  0  0  0  0  0  0  0  0  0  0
    1.7771    5.0968  -11.7115 H   0  0  0  0  0  0  0  0  0  0  0  0
   -0.6094    5.8651   -7.9404 H   0  0  0  0  0  0  0  0  0  0  0  0
   -0.4640    3.7789   -6.5767 H   0  0  0  0  0  0  0  0  0  0  0  0
    3.6410   -1.6790   -6.3780 H   0  0  0  0  0  0  0  0  0  0  0  0
    3.2800   -0.0370   -6.1760 H   0  0  0  0  0  0  0  0  0  0  0  0
    1.7083    4.0040  -11.0844 H   0  0  0  0  0  0  0  0  0  0  0  0
  1  2  1  0
  2  3  1  0
  3  4  1  0
  4  5  2  0
  5  6  1  0
  6  7  2  0
  7  8  1  0
  8  9  2  0
  9 10  1  0
 10 11  1  0
 10 12  2  0
 10 13  2  0
  9 14  1  0
 14 15  1  0
 15 16  2  0
 16  4  1  0
 15  7  1  0
  1 17  1  0
  1 18  1  0
  1 19  1  0
  2 20  1  0
  2 21  1  0
  5 22  1  0
  6 23  1  0
 11 24  1  0
 11 25  1  0
 16 26  1  0
M  END
>  <meeko>  (1) 
{"is_sidechain": [false], "free_energy": -5.337, "intermolecular_energy": -6.429, "internal_energy": -0.241}

$$$$
3dd0_ligand
     RDKit          3D

 26 27  0  0  0  0  0  0  0  0999 V2000
    1.9880    7.4510  -12.3220 C   0  0  0  0  0  0  0  0  0  0  0  0
    0.6330    6.7800  -12.1890 C   0  0  0  0  0  0  0  0  0  0  0  0
    0.5650    6.1790  -10.8970 O   0  0  0  0  0  0  0  0  0  0  0  0
    0.7680    4.8280  -10.8210 C   0  0  0  0  0  0  0  0  0  0  0  0
    0.7800    3.9440  -11.8960 C   0  0  0  0  0  0  0  0  0  0  0  0
    1.0000    2.5740  -11.6930 C   0  0  0  0  0  0  0  0  0  0  0  0
    1.2110    2.0800  -10.3910 C   0  0  0  0  0  0  0  0  0  0  0  0
    1.4370    0.7580  -10.0530 N   0  0  0  0  0  0  0  0  0  0  0  0
    1.6030    0.6670   -8.7480 C   0  0  0  0  0  0  0  0  0  0  0  0
    1.9000   -0.8220   -7.8240 S   0  0  0  0  0  0  0  0  0  0  0  0
    2.6340   -0.4170   -6.3550 N   0  0  0  0  0  0  0  0  0  0  0  0
    2.8820   -1.5940   -8.5510 O   0  0  0  0  0  0  0  0  0  0  0  0
    0.6140   -1.3700   -7.4560 O   0  0  0  0  0  0  0  0  0  0  0  0
    1.4750    2.1200   -7.8580 S   0  0  0  0  0  0  0  0  0  0  0  0
    1.1950    2.9800   -9.3240 C   0  0  0  0  0  0  0  0  0  0  0  0
    0.9760    4.3530   -9.5190 C   0  0  0  0  0  0  0  0  0  0  0  0
    2.3968    7.6534  -11.3210 H   0  0  0  0  0  0  0  0  0  0  0  0
    2.6732    6.7881  -12.8707 H   0  0  0  0  0  0  0  0  0  0  0  0
    1.8760    8.3978  -12.8707 H   0  0  0  0  0  0  0  0  0  0  0  0
   -0.1664    7.5281  -12.2955 H   0  0  0  0  0  0  0  0  0  0  0  0
    0.5045    6.0186  -12.9725 H   0  0  0  0  0  0  0  0  0  0  0  0
    0.6153    4.3238  -12.9151 H   0  0  0  0  0  0  0  0  0  0  0  0
    1.0078    1.8852  -12.5506 H   0  0  0  0  0  0  0  0  0  0  0  0
    2.6310   -1.2450   -5.7570 H   0  0  0  0  0  0  0  0  0  0  0  0
    3.5800   -0.0850   -6.5460 H   0  0  0  0  0  0  0  0  0  0  0  0
    0.9678    5.0447   -8.6637 H   0  0  0  0  0  0  0  0  0  0  0  0
  1  2  1  0
  2  3  1  0
  3  4  1  0
  4  5  2  0
  5  6  1  0
  6  7  2  0
  7  8  1  0
  8  9  2  0
  9 10  1  0
 10 11  1  0
 10 12  2  0
 10 13  2  0
  9 14  1  0
 14 15  1  0
 15 16  2  0
 16  4  1  0
 15  7  1  0
  1 17  1  0
  1 18  1  0
  1 19  1  0
  2 20  1  0
  2 21  1  0
  5 22  1  0
  6 23  1  0
 11 24  1  0
 11 25  1  0
 16 26  1  0
M  END
>  <meeko>  (2) 
{"is_sidechain": [false], "free_energy": -4.89, "intermolecular_energy": -5.872, "internal_energy": -0.261}

$$$$
3dd0_ligand
     RDKit          3D

 26 27  0  0  0  0  0  0  0  0999 V2000
    6.3350    1.9610  -14.8150 C   0  0  0  0  0  0  0  0  0  0  0  0
    4.8260    1.8170  -14.7260 C   0  0  0  0  0  0  0  0  0  0  0  0
    4.5110    0.4280  -14.7970 O   0  0  0  0  0  0  0  0  0  0  0  0
    3.9780   -0.1540  -13.6780 C   0  0  0  0  0  0  0  0  0  0  0  0
    3.7650   -1.5170  -13.4910 C   0  0  0  0  0  0  0  0  0  0  0  0
    3.2100   -1.9960  -12.2960 C   0  0  0  0  0  0  0  0  0  0  0  0
    2.8610   -1.0960  -11.2710 C   0  0  0  0  0  0  0  0  0  0  0  0
    2.3060   -1.4340  -10.0490 N   0  0  0  0  0  0  0  0  0  0  0  0
    2.1240   -0.3380   -9.3390 C   0  0  0  0  0  0  0  0  0  0  0  0
    1.4210   -0.2440   -7.7090 S   0  0  0  0  0  0  0  0  0  0  0  0
    2.5750   -0.7610   -6.5850 N   0  0  0  0  0  0  0  0  0  0  0  0
    0.3500   -1.2140   -7.6420 O   0  0  0  0  0  0  0  0  0  0  0  0
    1.2100    1.1530   -7.4050 O   0  0  0  0  0  0  0  0  0  0  0  0
    2.5680    1.1370  -10.0780 S   0  0  0  0  0  0  0  0  0  0  0  0
    3.0810    0.2680  -11.4750 C   0  0  0  0  0  0  0  0  0  0  0  0
    3.6360    0.7560  -12.6690 C   0  0  0  0  0  0  0  0  0  0  0  0
    6.7599    2.0015  -13.8012 H   0  0  0  0  0  0  0  0  0  0  0  0
    6.7544    1.0988  -15.3541 H   0  0  0  0  0  0  0  0  0  0  0  0
    6.5838    2.8870  -15.3541 H   0  0  0  0  0  0  0  0  0  0  0  0
    4.4669    2.2330  -13.7731 H   0  0  0  0  0  0  0  0  0  0  0  0
    4.3409    2.3615  -15.5496 H   0  0  0  0  0  0  0  0  0  0  0  0
    4.0348   -2.2249  -14.2885 H   0  0  0  0  0  0  0  0  0  0  0  0
    3.0472   -3.0752  -12.1591 H   0  0  0  0  0  0  0  0  0  0  0  0
    2.7820    0.0190   -5.9580 H   0  0  0  0  0  0  0  0  0  0  0  0
    2.2010   -1.5680   -6.0830 H   0  0  0  0  0  0  0  0  0  0  0  0
    3.7995    1.8346  -12.8098 H   0  0  0  0  0  0  0  0  0  0  0  0
  1  2  1  0
  2  3  1  0
  3  4  1  0
  4  5  2  0
  5  6  1  0
  6  7  2  0
  7  8  1  0
  8  9  2  0
  9 10  1  0
 10 11  1  0
 10 12  2  0
 10 13  2  0
  9 14  1  0
 14 15  1  0
 15 16  2  0
 16  4  1  0
 15  7  1  0
  1 17  1  0
  1 18  1  0
  1 19  1  0
  2 20  1  0
  2 21  1  0
  5 22  1  0
  6 23  1  0
 11 24  1  0
 11 25  1  0
 16 26  1  0
M  END
>  <meeko>  (3) 
{"is_sidechain": [false], "free_energy": -4.78, "intermolecular_energy": -5.771, "internal_energy": -0.229}

$$$$
3dd0_ligand
     RDKit          3D

 26 27  0  0  0  0  0  0  0  0999 V2000
    6.2120    2.4440  -14.6590 C   0  0  0  0  0  0  0  0  0  0  0  0
    4.7280    2.4990  -14.9790 C   0  0  0  0  0  0  0  0  0  0  0  0
    4.1460    1.2600  -14.5770 O   0  0  0  0  0  0  0  0  0  0  0  0
    3.5800    1.2070  -13.3320 C   0  0  0  0  0  0  0  0  0  0  0  0
    2.8900    2.2410  -12.7060 C   0  0  0  0  0  0  0  0  0  0  0  0
    2.3520    2.0670  -11.4230 C   0  0  0  0  0  0  0  0  0  0  0  0
    2.5080    0.8380  -10.7540 C   0  0  0  0  0  0  0  0  0  0  0  0
    2.0310    0.5360   -9.4910 N   0  0  0  0  0  0  0  0  0  0  0  0
    2.3520   -0.7080   -9.1940 C   0  0  0  0  0  0  0  0  0  0  0  0
    1.9830   -1.5570   -7.6760 S   0  0  0  0  0  0  0  0  0  0  0  0
    2.6850   -0.7100   -6.3910 N   0  0  0  0  0  0  0  0  0  0  0  0
    2.6600   -2.8340   -7.7180 O   0  0  0  0  0  0  0  0  0  0  0  0
    0.5590   -1.4520   -7.4530 O   0  0  0  0  0  0  0  0  0  0  0  0
    3.2490   -1.5690  -10.3660 S   0  0  0  0  0  0  0  0  0  0  0  0
    3.2030   -0.1890  -11.3960 C   0  0  0  0  0  0  0  0  0  0  0  0
    3.7450   -0.0230  -12.6810 C   0  0  0  0  0  0  0  0  0  0  0  0
    6.3519    2.4388  -13.5679 H   0  0  0  0  0  0  0  0  0  0  0  0
    6.6461    1.5292  -15.0887 H   0  0  0  0  0  0  0  0  0  0  0  0
    6.7126    3.3242  -15.0887 H   0  0  0  0  0  0  0  0  0  0  0  0
    4.2579    3.3282  -14.4300 H   0  0  0  0  0  0  0  0  0  0  0  0
    4.5743    2.6628  -16.0558 H   0  0  0  0  0  0  0  0  0  0  0  0
    2.7656    3.2040  -13.2228 H   0  0  0  0  0  0  0  0  0  0  0  0
    1.8077    2.8912  -10.9388 H   0  0  0  0  0  0  0  0  0  0  0  0
    2.3110   -1.0870   -5.5180 H   0  0  0  0  0  0  0  0  0  0  0  0
    3.6990   -0.8130   -6.4500 H   0  0  0  0  0  0  0  0  0  0  0  0
    4.2900   -0.8449  -13.1684 H   0  0  0  0  0  0  0  0  0  0  0  0
  1  2  1  0
  2  3  1  0
  3  4  1  0
  4  5  2  0
  5  6  1  0
  6  7  2  0
  7  8  1  0
  8  9  2  0
  9 10  1  0
 10 11  1  0
 10 12  2  0
 10 13  2  0
  9 14  1  0
 14 15  1  0
 15 16  2  0
 16  4  1  0
 15  7  1  0
  1 17  1  0
  1 18  1  0
  1 19  1  0
  2 20  1  0
  2 21  1  0
  5 22  1  0
  6 23  1  0
 11 24  1  0
 11 25  1  0
 16 26  1  0
M  END
>  <meeko>  (4) 
{"is_sidechain": [false], "free_energy": -4.751, "intermolecular_energy": -5.688, "internal_energy": -0.277}

$$$$
3dd0_ligand
     RDKit          3D

 26 27  0  0  0  0  0  0  0  0999 V2000
    4.0210   -3.5480   -6.8570 C   0  0  0  0  0  0  0  0  0  0  0  0
    2.9780   -2.4470   -6.7860 C   0  0  0  0  0  0  0  0  0  0  0  0
    2.2890   -2.4130   -8.0350 O   0  0  0  0  0  0  0  0  0  0  0  0
    2.4320   -1.2870   -8.8010 C   0  0  0  0  0  0  0  0  0  0  0  0
    3.3290   -1.1270   -9.8540 C   0  0  0  0  0  0  0  0  0  0  0  0
    3.3830    0.0780  -10.5680 C   0  0  0  0  0  0  0  0  0  0  0  0
    2.5280    1.1410  -10.2220 C   0  0  0  0  0  0  0  0  0  0  0  0
    2.4800    2.3780  -10.8410 N   0  0  0  0  0  0  0  0  0  0  0  0
    1.5530    3.1160  -10.2630 C   0  0  0  0  0  0  0  0  0  0  0  0
    1.1250    4.7890  -10.6830 S   0  0  0  0  0  0  0  0  0  0  0  0
   -0.0890    4.7620  -11.8610 N   0  0  0  0  0  0  0  0  0  0  0  0
    2.2770    5.3840  -11.3220 O   0  0  0  0  0  0  0  0  0  0  0  0
    0.4990    5.3830   -9.5230 O   0  0  0  0  0  0  0  0  0  0  0  0
    0.7160    2.4060   -8.9530 S   0  0  0  0  0  0  0  0  0  0  0  0
    1.6350    0.9640   -9.1630 C   0  0  0  0  0  0  0  0  0  0  0  0
    1.5740   -0.2400   -8.4430 C   0  0  0  0  0  0  0  0  0  0  0  0
    4.3062   -3.8491   -5.8382 H   0  0  0  0  0  0  0  0  0  0  0  0
    3.6042   -4.4140   -7.3921 H   0  0  0  0  0  0  0  0  0  0  0  0
    4.9082   -3.1786   -7.3921 H   0  0  0  0  0  0  0  0  0  0  0  0
    2.2675   -2.6574   -5.9730 H   0  0  0  0  0  0  0  0  0  0  0  0
    3.4579   -1.4774   -6.5871 H   0  0  0  0  0  0  0  0  0  0  0  0
    4.0011   -1.9536  -10.1279 H   0  0  0  0  0  0  0  0  0  0  0  0
    4.0941    0.1929  -11.3993 H   0  0  0  0  0  0  0  0  0  0  0  0
   -0.1280    3.8210  -12.2580 H   0  0  0  0  0  0  0  0  0  0  0  0
   -0.9720    5.0320  -11.4250 H   0  0  0  0  0  0  0  0  0  0  0  0
    0.8638   -0.3587   -7.6114 H   0  0  0  0  0  0  0  0  0  0  0  0
  1  2  1  0
  2  3  1  0
  3  4  1  0
  4  5  2  0
  5  6  1  0
  6  7  2  0
  7  8  1  0
  8  9  2  0
  9 10  1  0
 10 11  1  0
 10 12  2  0
 10 13  2  0
  9 14  1  0
 14 15  1  0
 15 16  2  0
 16  4  1  0
 15  7  1  0
  1 17  1  0
  1 18  1  0
  1 19  1  0
  2 20  1  0
  2 21  1  0
  5 22  1  0
  6 23  1  0
 11 24  1  0
 11 25  1  0
 16 26  1  0
M  END
>  <meeko>  (5) 
{"is_sidechain": [false], "free_energy": -4.661, "intermolecular_energy": -5.613, "internal_energy": -0.243}

$$$$
3dd0_ligand
     RDKit          3D

 26 27  0  0  0  0  0  0  0  0999 V2000
    2.4970    2.3060   -5.5680 C   0  0  0  0  0  0  0  0  0  0  0  0
    1.6450    2.2640   -6.8240 C   0  0  0  0  0  0  0  0  0  0  0  0
    1.1020    0.9500   -6.9440 O   0  0  0  0  0  0  0  0  0  0  0  0
    1.6680    0.1190   -7.8730 C   0  0  0  0  0  0  0  0  0  0  0  0
    2.4430   -1.0040   -7.5960 C   0  0  0  0  0  0  0  0  0  0  0  0
    2.9710   -1.7810   -8.6370 C   0  0  0  0  0  0  0  0  0  0  0  0
    2.7210   -1.4280   -9.9770 C   0  0  0  0  0  0  0  0  0  0  0  0
    3.1820   -2.1040  -11.0930 N   0  0  0  0  0  0  0  0  0  0  0  0
    2.7430   -1.4970  -12.1780 C   0  0  0  0  0  0  0  0  0  0  0  0
    3.0790   -1.9690  -13.8590 S   0  0  0  0  0  0  0  0  0  0  0  0
    4.7190   -1.7110  -14.1810 N   0  0  0  0  0  0  0  0  0  0  0  0
    2.3640   -1.0520  -14.7180 O   0  0  0  0  0  0  0  0  0  0  0  0
    2.9050   -3.4010  -13.9520 O   0  0  0  0  0  0  0  0  0  0  0  0
    1.7960   -0.0940  -11.9410 S   0  0  0  0  0  0  0  0  0  0  0  0
    1.9430   -0.2980  -10.2360 C   0  0  0  0  0  0  0  0  0  0  0  0
    1.4100    0.4850   -9.2000 C   0  0  0  0  0  0  0  0  0  0  0  0
    1.8459    2.2739   -4.6820 H   0  0  0  0  0  0  0  0  0  0  0  0
    3.1754    1.4402   -5.5560 H   0  0  0  0  0  0  0  0  0  0  0  0
    3.0870    3.2343   -5.5560 H   0  0  0  0  0  0  0  0  0  0  0  0
    0.8303    2.9991   -6.7473 H   0  0  0  0  0  0  0  0  0  0  0  0
    2.2535    2.5084   -7.7072 H   0  0  0  0  0  0  0  0  0  0  0  0
    2.6429   -1.2842   -6.5512 H   0  0  0  0  0  0  0  0  0  0  0  0
    3.5809   -2.6669   -8.4067 H   0  0  0  0  0  0  0  0  0  0  0  0
    5.0940   -2.5520  -14.6240 H   0  0  0  0  0  0  0  0  0  0  0  0
    4.8070   -0.8900  -14.7820 H   0  0  0  0  0  0  0  0  0  0  0  0
    0.7996    1.3716   -9.4267 H   0  0  0  0  0  0  0  0  0  0  0  0
  1  2  1  0
  2  3  1  0
  3  4  1  0
  4  5  2  0
  5  6  1  0
  6  7  2  0
  7  8  1  0
  8  9  2  0
  9 10  1  0
 10 11  1  0
 10 12  2  0
 10 13  2  0
  9 14  1  0
 14 15  1  0
 15 16  2  0
 16  4  1  0
 15  7  1  0
  1 17  1  0
  1 18  1  0
  1 19  1  0
  2 20  1  0
  2 21  1  0
  5 22  1  0
  6 23  1  0
 11 24  1  0
 11 25  1  0
 16 26  1  0
M  END
>  <meeko>  (6) 
{"is_sidechain": [false], "free_energy": -4.651, "intermolecular_energy": -5.581, "internal_energy": -0.264}

$$$$
3dd0_ligand
     RDKit          3D

 26 27  0  0  0  0  0  0  0  0999 V2000
    1.7740    3.1310   -3.4280 C   0  0  0  0  0  0  0  0  0  0  0  0
    2.2540    2.7070   -4.8050 C   0  0  0  0  0  0  0  0  0  0  0  0
    1.1170    2.6260   -5.6620 O   0  0  0  0  0  0  0  0  0  0  0  0
    1.3460    2.3810   -6.9890 C   0  0  0  0  0  0  0  0  0  0  0  0
    1.3970    3.3400   -7.9970 C   0  0  0  0  0  0  0  0  0  0  0  0
    1.6400    2.9660   -9.3260 C   0  0  0  0  0  0  0  0  0  0  0  0
    1.8340    1.6100   -9.6530 C   0  0  0  0  0  0  0  0  0  0  0  0
    2.0790    1.1070  -10.9180 N   0  0  0  0  0  0  0  0  0  0  0  0
    2.2200   -0.2010  -10.8440 C   0  0  0  0  0  0  0  0  0  0  0  0
    2.5280   -1.3060  -12.2020 S   0  0  0  0  0  0  0  0  0  0  0  0
    1.0490   -1.8970  -12.7710 N   0  0  0  0  0  0  0  0  0  0  0  0
    3.2310   -2.4550  -11.6760 O   0  0  0  0  0  0  0  0  0  0  0  0
    3.0550   -0.5190  -13.2940 O   0  0  0  0  0  0  0  0  0  0  0  0
    2.0450   -0.9040   -9.2960 S   0  0  0  0  0  0  0  0  0  0  0  0
    1.7790    0.6620   -8.6290 C   0  0  0  0  0  0  0  0  0  0  0  0
    1.5360    1.0280   -7.2950 C   0  0  0  0  0  0  0  0  0  0  0  0
    2.3629    2.6108   -2.6582 H   0  0  0  0  0  0  0  0  0  0  0  0
    1.9003    4.2178   -3.3142 H   0  0  0  0  0  0  0  0  0  0  0  0
    0.7111    2.8715   -3.3142 H   0  0  0  0  0  0  0  0  0  0  0  0
    2.9652    3.4489   -5.1973 H   0  0  0  0  0  0  0  0  0  0  0  0
    2.7613    1.7325   -4.7497 H   0  0  0  0  0  0  0  0  0  0  0  0
    1.2452    4.4007   -7.7483 H   0  0  0  0  0  0  0  0  0  0  0  0
    1.6792    3.7324  -10.1141 H   0  0  0  0  0  0  0  0  0  0  0  0
    0.7750   -2.6890  -12.1860 H   0  0  0  0  0  0  0  0  0  0  0  0
    0.3630   -1.1410  -12.7400 H   0  0  0  0  0  0  0  0  0  0  0  0
    1.4956    0.2646   -6.5040 H   0  0  0  0  0  0  0  0  0  0  0  0
  1  2  1  0
  2  3  1  0
  3  4  1  0
  4  5  2  0
  5  6  1  0
  6  7  2  0
  7  8  1  0
  8  9  2  0
  9 10  1  0
 10 11  1  0
 10 12  2  0
 10 13  2  0
  9 14  1  0
 14 15  1  0
 15 16  2  0
 16  4  1  0
 15  7  1  0
  1 17  1  0
  1 18  1  0
  1 19  1  0
  2 20  1  0
  2 21  1  0
  5 22  1  0
  6 23  1  0
 11 24  1  0
 11 25  1  0
 16 26  1  0
M  END
>  <meeko>  (7) 
{"is_sidechain": [false], "free_energy": -4.528, "intermolecular_energy": -5.498, "internal_energy": -0.198}

$$$$
3dd0_ligand
     RDKit          3D

 26 27  0  0  0  0  0  0  0  0999 V2000
    4.1980   -3.6540   -6.8450 C   0  0  0  0  0  0  0  0  0  0  0  0
    3.2100   -2.6130   -6.3480 C   0  0  0  0  0  0  0  0  0  0  0  0
    2.1410   -2.5370   -7.2900 O   0  0  0  0  0  0  0  0  0  0  0  0
    2.0190   -1.3780   -8.0100 C   0  0  0  0  0  0  0  0  0  0  0  0
    1.4300   -0.1990   -7.5610 C   0  0  0  0  0  0  0  0  0  0  0  0
    1.3630    0.9270   -8.3930 C   0  0  0  0  0  0  0  0  0  0  0  0
    1.8930    0.8740   -9.6960 C   0  0  0  0  0  0  0  0  0  0  0  0
    1.8910    1.9070  -10.6160 N   0  0  0  0  0  0  0  0  0  0  0  0
    2.4820    1.5020  -11.7230 C   0  0  0  0  0  0  0  0  0  0  0  0
    2.7110    2.4570  -13.2050 S   0  0  0  0  0  0  0  0  0  0  0  0
    4.3350    2.3660  -13.6680 N   0  0  0  0  0  0  0  0  0  0  0  0
    2.4790    3.8440  -12.8670 O   0  0  0  0  0  0  0  0  0  0  0  0
    1.9870    1.7950  -14.2660 O   0  0  0  0  0  0  0  0  0  0  0  0
    3.0410   -0.1120  -11.7460 S   0  0  0  0  0  0  0  0  0  0  0  0
    2.4800   -0.3170  -10.1300 C   0  0  0  0  0  0  0  0  0  0  0  0
    2.5510   -1.4500   -9.3030 C   0  0  0  0  0  0  0  0  0  0  0  0
    4.6701   -4.1515   -5.9850 H   0  0  0  0  0  0  0  0  0  0  0  0
    3.6683   -4.4005   -7.4550 H   0  0  0  0  0  0  0  0  0  0  0  0
    4.9712   -3.1640   -7.4550 H   0  0  0  0  0  0  0  0  0  0  0  0
    2.8197   -2.9086   -5.3630 H   0  0  0  0  0  0  0  0  0  0  0  0
    3.7026   -1.6345   -6.2481 H   0  0  0  0  0  0  0  0  0  0  0  0
    1.0135   -0.1508   -6.5441 H   0  0  0  0  0  0  0  0  0  0  0  0
    0.8957    1.8532   -8.0273 H   0  0  0  0  0  0  0  0  0  0  0  0
    4.6150    1.3830  -13.6580 H   0  0  0  0  0  0  0  0  0  0  0  0
    4.4320    2.7830  -14.5950 H   0  0  0  0  0  0  0  0  0  0  0  0
    3.0168   -2.3784   -9.6652 H   0  0  0  0  0  0  0  0  0  0  0  0
  1  2  1  0
  2  3  1  0
  3  4  1  0
  4  5  2  0
  5  6  1  0
  6  7  2  0
  7  8  1  0
  8  9  2  0
  9 10  1  0
 10 11  1  0
 10 12  2  0
 10 13  2  0
  9 14  1  0
 14 15  1  0
 15 16  2  0
 16  4  1  0
 15  7  1  0
  1 17  1  0
  1 18  1  0
  1 19  1  0
  2 20  1  0
  2 21  1  0
  5 22  1  0
  6 23  1  0
 11 24  1  0
 11 25  1  0
 16 26  1  0
M  END
>  <meeko>  (8) 
{"is_sidechain": [false], "free_energy": -4.528, "intermolecular_energy": -5.473, "internal_energy": -0.223}

$$$$
3dd0_ligand
     RDKit          3D

 26 27  0  0  0  0  0  0  0  0999 V2000
    4.1850   -3.5800   -6.9250 C   0  0  0  0  0  0  0  0  0  0  0  0
    2.8500   -3.2610   -7.5750 C   0  0  0  0  0  0  0  0  0  0  0  0
    3.0860   -2.3290   -8.6290 O   0  0  0  0  0  0  0  0  0  0  0  0
    2.4890   -1.1010   -8.5270 C   0  0  0  0  0  0  0  0  0  0  0  0
    1.7990   -0.6200   -7.4170 C   0  0  0  0  0  0  0  0  0  0  0  0
    1.2280    0.6600   -7.4300 C   0  0  0  0  0  0  0  0  0  0  0  0
    1.3480    1.4730   -8.5730 C   0  0  0  0  0  0  0  0  0  0  0  0
    0.8330    2.7490   -8.7190 N   0  0  0  0  0  0  0  0  0  0  0  0
    1.1490    3.2100   -9.9130 C   0  0  0  0  0  0  0  0  0  0  0  0
    0.7000    4.7940  -10.5830 S   0  0  0  0  0  0  0  0  0  0  0  0
    2.0470    5.4580  -11.3620 N   0  0  0  0  0  0  0  0  0  0  0  0
    0.4210    5.6720   -9.4700 O   0  0  0  0  0  0  0  0  0  0  0  0
   -0.2600    4.5640  -11.6390 O   0  0  0  0  0  0  0  0  0  0  0  0
    2.0380    2.1610  -10.9270 S   0  0  0  0  0  0  0  0  0  0  0  0
    2.0420    0.9750   -9.6780 C   0  0  0  0  0  0  0  0  0  0  0  0
    2.6180   -0.3060   -9.6730 C   0  0  0  0  0  0  0  0  0  0  0  0
    4.0756   -3.5539   -5.8308 H   0  0  0  0  0  0  0  0  0  0  0  0
    4.5144   -4.5821   -7.2367 H   0  0  0  0  0  0  0  0  0  0  0  0
    4.9319   -2.8350   -7.2367 H   0  0  0  0  0  0  0  0  0  0  0  0
    2.4036   -4.1802   -7.9821 H   0  0  0  0  0  0  0  0  0  0  0  0
    2.1563   -2.8348   -6.8353 H   0  0  0  0  0  0  0  0  0  0  0  0
    1.7012   -1.2509   -6.5212 H   0  0  0  0  0  0  0  0  0  0  0  0
    0.6860    1.0293   -6.5469 H   0  0  0  0  0  0  0  0  0  0  0  0
    2.4410    4.7470  -11.9810 H   0  0  0  0  0  0  0  0  0  0  0  0
    1.7480    6.2890  -11.8750 H   0  0  0  0  0  0  0  0  0  0  0  0
    3.1611   -0.6786  -10.5540 H   0  0  0  0  0  0  0  0  0  0  0  0
  1  2  1  0
  2  3  1  0
  3  4  1  0
  4  5  2  0
  5  6  1  0
  6  7  2  0
  7  8  1  0
  8  9  2  0
  9 10  1  0
 10 11  1  0
 10 12  2  0
 10 13  2  0
  9 14  1  0
 14 15  1  0
 15 16  2  0
 16  4  1  0
 15  7  1  0
  1 17  1  0
  1 18  1  0
  1 19  1  0
  2 20  1  0
  2 21  1  0
  5 22  1  0
  6 23  1  0
 11 24  1  0
 11 25  1  0
 16 26  1  0
M  END
>  <meeko>  (9) 
{"is_sidechain": [false], "free_energy": -4.51, "intermolecular_energy": -5.436, "internal_energy": -0.238}

$$$$
