4ty7_ligand
     RDKit          3D

 67 71  0  0  0  0  0  0  0  0999 V2000
    3.4070    8.4300    0.5080 N   0  0  0  0  0  0  0  0  0  0  0  0
    4.3410    8.9700   -0.3400 C   0  0  0  0  0  0  0  0  0  0  0  0
    5.3290    9.8970    0.0370 N   0  0  0  0  0  0  0  0  0  0  0  0
    6.1390   10.2290   -1.1900 N   0  0  0  0  0  0  0  0  0  0  0  0
    5.6050    9.4840   -2.2510 C   0  0  0  0  0  0  0  0  0  0  0  0
    5.9800    9.4150   -3.5830 C   0  0  0  0  0  0  0  0  0  0  0  0
    5.2560    8.5560   -4.4330 C   0  0  0  0  0  0  0  0  0  0  0  0
    5.6470    8.4450   -5.8400 C   0  0  0  0  0  0  0  0  0  0  0  0
    4.8590    7.8470   -6.8010 N   0  0  0  0  0  0  0  0  0  0  0  0
    5.5240    7.8880   -8.0020 C   0  0  0  0  0  0  0  0  0  0  0  0
    4.9530    7.3030   -9.2670 C   0  0  2  0  0  0  0  0  0  0  0  0
    3.6020    7.9490   -9.6390 C   0  0  0  0  0  0  0  0  0  0  0  0
    2.9760    7.3560  -10.8810 C   0  0  0  0  0  0  0  0  0  0  0  0
    1.5930    7.1350  -10.9450 C   0  0  0  0  0  0  0  0  0  0  0  0
    1.0230    6.5580  -12.0800 C   0  0  0  0  0  0  0  0  0  0  0  0
    1.8250    6.2020  -13.1620 C   0  0  0  0  0  0  0  0  0  0  0  0
    3.2000    6.4280  -13.1130 C   0  0  0  0  0  0  0  0  0  0  0  0
    3.7740    7.0010  -11.9790 C   0  0  0  0  0  0  0  0  0  0  0  0
    4.8030    5.8730   -9.0250 N   0  0  0  0  0  0  0  0  0  0  0  0
    5.5710    4.9370   -9.6650 C   0  0  0  0  0  0  0  0  0  0  0  0
    6.3840    5.2310  -10.5350 O   0  0  0  0  0  0  0  0  0  0  0  0
    5.2780    3.4950   -9.2440 C   0  0  2  0  0  0  0  0  0  0  0  0
    6.0710    2.4660  -10.0710 C   0  0  0  0  0  0  0  0  0  0  0  0
    5.2490    1.7520  -11.1510 C   0  0  0  0  0  0  0  0  0  0  0  0
    4.2140    2.6830  -11.7890 C   0  0  1  0  0  0  0  0  0  0  0  0
    3.5310    2.0850  -13.0250 C   0  0  0  0  0  0  0  0  0  0  0  0
    2.1070    2.4800  -13.1320 N   0  0  0  0  0  0  0  0  0  0  0  0
    3.2130    3.1960  -10.7360 C   0  0  0  0  0  0  0  0  0  0  0  0
    3.7700    3.2240   -9.3050 C   0  0  0  0  0  0  0  0  0  0  0  0
    6.6820    8.5060   -7.8700 N   0  0  0  0  0  0  0  0  0  0  0  0
    6.7750    8.8460   -6.5410 C   0  0  0  0  0  0  0  0  0  0  0  0
    8.1580    9.6290   -5.9250 Cl  0  0  0  0  0  0  0  0  0  0  0  0
    4.1600    7.7890   -3.9540 C   0  0  0  0  0  0  0  0  0  0  0  0
    3.7210    7.8150   -2.6190 C   0  0  0  0  0  0  0  0  0  0  0  0
    4.4570    8.6660   -1.7730 C   0  0  0  0  0  0  0  0  0  0  0  0
    3.5980    8.2360    1.4910 H   0  0  0  0  0  0  0  0  0  0  0  0
    2.4430    8.1940    0.2800 H   0  0  0  0  0  0  0  0  0  0  0  0
    5.4830   10.2820    0.9680 H   0  0  0  0  0  0  0  0  0  0  0  0
    6.9300   10.8730   -1.2090 H   0  0  0  0  0  0  0  0  0  0  0  0
    6.8193   10.0140   -3.9660 H   0  0  0  0  0  0  0  0  0  0  0  0
    3.9560    7.4150   -6.6480 H   0  0  0  0  0  0  0  0  0  0  0  0
    5.6209    7.4966  -10.1193 H   0  0  0  0  0  0  0  0  0  0  0  0
    2.9063    7.8117   -8.7981 H   0  0  0  0  0  0  0  0  0  0  0  0
    3.7961    9.0114   -9.8481 H   0  0  0  0  0  0  0  0  0  0  0  0
    0.9539    7.4181  -10.0956 H   0  0  0  0  0  0  0  0  0  0  0  0
   -0.0623    6.3837  -12.1207 H   0  0  0  0  0  0  0  0  0  0  0  0
    1.3740    5.7431  -14.0541 H   0  0  0  0  0  0  0  0  0  0  0  0
    3.8327    6.1539  -13.9701 H   0  0  0  0  0  0  0  0  0  0  0  0
    4.8595    7.1759  -11.9449 H   0  0  0  0  0  0  0  0  0  0  0  0
    4.1850    5.6120   -8.2610 H   0  0  0  0  0  0  0  0  0  0  0  0
    5.6163    3.3763   -8.2041 H   0  0  0  0  0  0  0  0  0  0  0  0
    6.9046    2.9888  -10.5627 H   0  0  0  0  0  0  0  0  0  0  0  0
    6.4066    1.6897   -9.3676 H   0  0  0  0  0  0  0  0  0  0  0  0
    5.9304    1.3879  -11.9340 H   0  0  0  0  0  0  0  0  0  0  0  0
    4.7109    0.9189  -10.6751 H   0  0  0  0  0  0  0  0  0  0  0  0
    4.7634    3.5545  -12.1744 H   0  0  0  0  0  0  0  0  0  0  0  0
    4.0619    2.4315  -13.9239 H   0  0  0  0  0  0  0  0  0  0  0  0
    3.5683    0.9897  -12.9309 H   0  0  0  0  0  0  0  0  0  0  0  0
    1.4980    1.6760  -13.3290 H   0  0  0  0  0  0  0  0  0  0  0  0
    1.7600    2.9400  -12.2820 H   0  0  0  0  0  0  0  0  0  0  0  0
    1.9760    3.1460  -13.9060 H   0  0  0  0  0  0  0  0  0  0  0  0
    2.9153    4.2186  -11.0112 H   0  0  0  0  0  0  0  0  0  0  0  0
    2.3661    2.4940  -10.7338 H   0  0  0  0  0  0  0  0  0  0  0  0
    3.2506    4.0149   -8.7440 H   0  0  0  0  0  0  0  0  0  0  0  0
    3.6012    2.2274   -8.8712 H   0  0  0  0  0  0  0  0  0  0  0  0
    3.6271    7.1408   -4.6653 H   0  0  0  0  0  0  0  0  0  0  0  0
    2.8690    7.2171   -2.2631 H   0  0  0  0  0  0  0  0  0  0  0  0
  1  2  1  0
  2  3  2  0
  3  4  1  0
  4  5  1  0
  5  6  2  0
  6  7  1  0
  7  8  1  0
  8  9  1  0
  9 10  1  0
 10 11  1  0
 11 12  1  0
 12 13  1  0
 13 14  2  0
 14 15  1  0
 15 16  2  0
 16 17  1  0
 17 18  2  0
 11 19  1  0
 19 20  1  0
 20 21  2  0
 20 22  1  0
 22 23  1  0
 23 24  1  0
 24 25  1  0
 25 26  1  0
 26 27  1  0
 25 28  1  0
 28 29  1  0
 10 30  2  0
 30 31  1  0
 31 32  1  0
  7 33  2  0
 33 34  1  0
 34 35  2  0
 35  2  1  0
 35  5  1  0
 31  8  2  0
 18 13  1  0
 29 22  1  0
  1 36  1  0
  1 37  1  0
  3 38  1  0
  4 39  1  0
  6 40  1  0
  9 41  1  0
 11 42  1  6
 12 43  1  0
 12 44  1  0
 14 45  1  0
 15 46  1  0
 16 47  1  0
 17 48  1  0
 18 49  1  0
 19 50  1  0
 22 51  1  6
 23 52  1  0
 23 53  1  0
 24 54  1  0
 24 55  1  0
 25 56  1  1
 26 57  1  0
 26 58  1  0
 27 59  1  0
 27 60  1  0
 27 61  1  0
 28 62  1  0
 28 63  1  0
 29 64  1  0
 29 65  1  0
 33 66  1  0
 34 67  1  0
M  CHG  2   3   1  27   1
M  END
>  <meeko>  (1) 
{"is_sidechain": [false], "free_energy": -9.448, "intermolecular_energy": -13.866, "internal_energy": -1.776}

$$$$
4ty7_ligand
     RDKit          3D

 67 71  0  0  0  0  0  0  0  0999 V2000
    3.7040    8.5070    0.9650 N   0  0  0  0  0  0  0  0  0  0  0  0
    4.3790    9.1240   -0.0580 C   0  0  0  0  0  0  0  0  0  0  0  0
    5.1950   10.2600    0.0870 N   0  0  0  0  0  0  0  0  0  0  0  0
    5.7420   10.6090   -1.2740 N   0  0  0  0  0  0  0  0  0  0  0  0
    5.2340    9.6640   -2.1770 C   0  0  0  0  0  0  0  0  0  0  0  0
    5.4290    9.5260   -3.5420 C   0  0  0  0  0  0  0  0  0  0  0  0
    4.7900    8.4570   -4.1990 C   0  0  0  0  0  0  0  0  0  0  0  0
    4.9980    8.2730   -5.6370 C   0  0  0  0  0  0  0  0  0  0  0  0
    4.1070    7.6090   -6.4530 N   0  0  0  0  0  0  0  0  0  0  0  0
    4.6100    7.5930   -7.7310 C   0  0  0  0  0  0  0  0  0  0  0  0
    3.8940    6.9290   -8.8780 C   0  0  2  0  0  0  0  0  0  0  0  0
    4.8620    6.1230   -9.7680 C   0  0  0  0  0  0  0  0  0  0  0  0
    4.2430    4.8670  -10.3420 C   0  0  0  0  0  0  0  0  0  0  0  0
    4.2370    3.6760   -9.6030 C   0  0  0  0  0  0  0  0  0  0  0  0
    3.6940    2.5110  -10.1480 C   0  0  0  0  0  0  0  0  0  0  0  0
    3.1480    2.5270  -11.4300 C   0  0  0  0  0  0  0  0  0  0  0  0
    3.1400    3.7100  -12.1680 C   0  0  0  0  0  0  0  0  0  0  0  0
    3.6850    4.8750  -11.6280 C   0  0  0  0  0  0  0  0  0  0  0  0
    3.2510    7.9970   -9.6320 N   0  0  0  0  0  0  0  0  0  0  0  0
    2.0350    8.5190   -9.2740 C   0  0  0  0  0  0  0  0  0  0  0  0
    1.3750    8.0760   -8.3410 O   0  0  0  0  0  0  0  0  0  0  0  0
    1.5530    9.6550  -10.1800 C   0  0  2  0  0  0  0  0  0  0  0  0
    0.0420    9.9160  -10.0430 C   0  0  0  0  0  0  0  0  0  0  0  0
   -0.8050    9.3580  -11.1940 C   0  0  0  0  0  0  0  0  0  0  0  0
   -0.2540    8.0270  -11.7130 C   0  0  1  0  0  0  0  0  0  0  0  0
   -1.1910    7.3200  -12.7000 C   0  0  0  0  0  0  0  0  0  0  0  0
   -2.5560    7.8950  -12.6960 N   0  0  0  0  0  0  0  0  0  0  0  0
    1.1770    8.1980  -12.2570 C   0  0  0  0  0  0  0  0  0  0  0  0
    1.9460    9.3730  -11.6340 C   0  0  0  0  0  0  0  0  0  0  0  0
    5.7610    8.2350   -7.7840 N   0  0  0  0  0  0  0  0  0  0  0  0
    6.0170    8.6510   -6.4990 C   0  0  0  0  0  0  0  0  0  0  0  0
    7.4500    9.4890   -6.1110 Cl  0  0  0  0  0  0  0  0  0  0  0  0
    3.9540    7.5480   -3.4970 C   0  0  0  0  0  0  0  0  0  0  0  0
    3.7060    7.6310   -2.1150 C   0  0  0  0  0  0  0  0  0  0  0  0
    4.3580    8.6950   -1.4630 C   0  0  0  0  0  0  0  0  0  0  0  0
    3.9940    7.6130    1.3610 H   0  0  0  0  0  0  0  0  0  0  0  0
    2.8840    8.8620    1.4540 H   0  0  0  0  0  0  0  0  0  0  0  0
    5.3910   10.7660    0.9500 H   0  0  0  0  0  0  0  0  0  0  0  0
    6.3710   11.3890   -1.4660 H   0  0  0  0  0  0  0  0  0  0  0  0
    6.0650   10.2316   -4.0966 H   0  0  0  0  0  0  0  0  0  0  0  0
    3.2410    7.1730   -6.1620 H   0  0  0  0  0  0  0  0  0  0  0  0
    3.1562    6.2027   -8.5065 H   0  0  0  0  0  0  0  0  0  0  0  0
    5.1864    6.7643  -10.6008 H   0  0  0  0  0  0  0  0  0  0  0  0
    5.7040    5.8101   -9.1331 H   0  0  0  0  0  0  0  0  0  0  0  0
    4.6622    3.6592   -8.5886 H   0  0  0  0  0  0  0  0  0  0  0  0
    3.6972    1.5786   -9.5643 H   0  0  0  0  0  0  0  0  0  0  0  0
    2.7238    1.6074  -11.8593 H   0  0  0  0  0  0  0  0  0  0  0  0
    2.7033    3.7246  -13.1775 H   0  0  0  0  0  0  0  0  0  0  0  0
    3.6769    5.8054  -12.2147 H   0  0  0  0  0  0  0  0  0  0  0  0
    3.8100    8.4240  -10.3670 H   0  0  0  0  0  0  0  0  0  0  0  0
    2.0536   10.5783   -9.8529 H   0  0  0  0  0  0  0  0  0  0  0  0
   -0.3033    9.4539   -9.1064 H   0  0  0  0  0  0  0  0  0  0  0  0
   -0.0902   11.0079  -10.0570 H   0  0  0  0  0  0  0  0  0  0  0  0
   -1.8334    9.2022  -10.8361 H   0  0  0  0  0  0  0  0  0  0  0  0
   -0.7793   10.0838  -12.0202 H   0  0  0  0  0  0  0  0  0  0  0  0
   -0.1991    7.3463  -10.8507 H   0  0  0  0  0  0  0  0  0  0  0  0
   -0.7719    7.4129  -13.7128 H   0  0  0  0  0  0  0  0  0  0  0  0
   -1.2704    6.2674  -12.3906 H   0  0  0  0  0  0  0  0  0  0  0  0
   -3.0520    7.7170  -13.5790 H   0  0  0  0  0  0  0  0  0  0  0  0
   -3.1360    7.5310  -11.9300 H   0  0  0  0  0  0  0  0  0  0  0  0
   -2.5170    8.9170  -12.5810 H   0  0  0  0  0  0  0  0  0  0  0  0
    1.7366    7.2727  -12.0554 H   0  0  0  0  0  0  0  0  0  0  0  0
    1.0854    8.4119  -13.3321 H   0  0  0  0  0  0  0  0  0  0  0  0
    3.0211    9.1423  -11.6661 H   0  0  0  0  0  0  0  0  0  0  0  0
    1.6958   10.2710  -12.2180 H   0  0  0  0  0  0  0  0  0  0  0  0
    3.4752    6.7362   -4.0643 H   0  0  0  0  0  0  0  0  0  0  0  0
    3.0541    6.9207   -1.5854 H   0  0  0  0  0  0  0  0  0  0  0  0
  1  2  1  0
  2  3  2  0
  3  4  1  0
  4  5  1  0
  5  6  2  0
  6  7  1  0
  7  8  1  0
  8  9  1  0
  9 10  1  0
 10 11  1  0
 11 12  1  0
 12 13  1  0
 13 14  2  0
 14 15  1  0
 15 16  2  0
 16 17  1  0
 17 18  2  0
 11 19  1  0
 19 20  1  0
 20 21  2  0
 20 22  1  0
 22 23  1  0
 23 24  1  0
 24 25  1  0
 25 26  1  0
 26 27  1  0
 25 28  1  0
 28 29  1  0
 10 30  2  0
 30 31  1  0
 31 32  1  0
  7 33  2  0
 33 34  1  0
 34 35  2  0
 35  2  1  0
 35  5  1  0
 31  8  2  0
 18 13  1  0
 29 22  1  0
  1 36  1  0
  1 37  1  0
  3 38  1  0
  4 39  1  0
  6 40  1  0
  9 41  1  0
 11 42  1  1
 12 43  1  0
 12 44  1  0
 14 45  1  0
 15 46  1  0
 16 47  1  0
 17 48  1  0
 18 49  1  0
 19 50  1  0
 22 51  1  6
 23 52  1  0
 23 53  1  0
 24 54  1  0
 24 55  1  0
 25 56  1  6
 26 57  1  0
 26 58  1  0
 27 59  1  0
 27 60  1  0
 27 61  1  0
 28 62  1  0
 28 63  1  0
 29 64  1  0
 29 65  1  0
 33 66  1  0
 34 67  1  0
M  CHG  2   3   1  27   1
M  END
>  <meeko>  (2) 
{"is_sidechain": [false], "free_energy": -8.789, "intermolecular_energy": -13.364, "internal_energy": -1.312}

$$$$
4ty7_ligand
     RDKit          3D

 67 71  0  0  0  0  0  0  0  0999 V2000
    3.2580    8.3630    0.2340 N   0  0  0  0  0  0  0  0  0  0  0  0
    4.2880    8.9440   -0.4610 C   0  0  0  0  0  0  0  0  0  0  0  0
    5.2450    9.8120    0.0950 N   0  0  0  0  0  0  0  0  0  0  0  0
    6.1910   10.2180   -1.0070 N   0  0  0  0  0  0  0  0  0  0  0  0
    5.7640    9.5730   -2.1760 C   0  0  0  0  0  0  0  0  0  0  0  0
    6.2820    9.5990   -3.4610 C   0  0  0  0  0  0  0  0  0  0  0  0
    5.6410    8.8290   -4.4510 C   0  0  0  0  0  0  0  0  0  0  0  0
    6.1820    8.8190   -5.8120 C   0  0  0  0  0  0  0  0  0  0  0  0
    5.6960    8.0070   -6.8150 N   0  0  0  0  0  0  0  0  0  0  0  0
    6.4350    8.2250   -7.9520 C   0  0  0  0  0  0  0  0  0  0  0  0
    6.1810    7.4850   -9.2390 C   0  0  2  0  0  0  0  0  0  0  0  0
    5.0260    8.1160  -10.0450 C   0  0  0  0  0  0  0  0  0  0  0  0
    3.8880    8.6050   -9.1770 C   0  0  0  0  0  0  0  0  0  0  0  0
    2.8940    7.7170   -8.7410 C   0  0  0  0  0  0  0  0  0  0  0  0
    1.8280    8.1770   -7.9670 C   0  0  0  0  0  0  0  0  0  0  0  0
    1.7470    9.5240   -7.6180 C   0  0  0  0  0  0  0  0  0  0  0  0
    2.7360   10.4130   -8.0390 C   0  0  0  0  0  0  0  0  0  0  0  0
    3.8010    9.9570   -8.8150 C   0  0  0  0  0  0  0  0  0  0  0  0
    5.8730    6.1100   -8.8670 N   0  0  0  0  0  0  0  0  0  0  0  0
    6.0570    5.0580   -9.7260 C   0  0  0  0  0  0  0  0  0  0  0  0
    6.4240    5.2100  -10.8870 O   0  0  0  0  0  0  0  0  0  0  0  0
    5.7040    3.6950   -9.1280 C   0  0  2  0  0  0  0  0  0  0  0  0
    6.3520    2.5280   -9.8970 C   0  0  0  0  0  0  0  0  0  0  0  0
    5.3940    1.7710  -10.8250 C   0  0  0  0  0  0  0  0  0  0  0  0
    4.3730    2.7070  -11.4780 C   0  0  1  0  0  0  0  0  0  0  0  0
    3.5480    2.0390  -12.5840 C   0  0  0  0  0  0  0  0  0  0  0  0
    2.2240    2.6790  -12.7690 N   0  0  0  0  0  0  0  0  0  0  0  0
    3.5030    3.4020  -10.4130 C   0  0  0  0  0  0  0  0  0  0  0  0
    4.1820    3.5350   -9.0410 C   0  0  0  0  0  0  0  0  0  0  0  0
    7.3490    9.1520   -7.7410 N   0  0  0  0  0  0  0  0  0  0  0  0
    7.2110    9.5200   -6.4240 C   0  0  0  0  0  0  0  0  0  0  0  0
    8.2450   10.6760   -5.7170 Cl  0  0  0  0  0  0  0  0  0  0  0  0
    4.4860    8.0560   -4.1570 C   0  0  0  0  0  0  0  0  0  0  0  0
    3.9020    7.9890   -2.8800 C   0  0  0  0  0  0  0  0  0  0  0  0
    4.5560    8.7500   -1.8930 C   0  0  0  0  0  0  0  0  0  0  0  0
    2.5660    7.7560   -0.2050 H   0  0  0  0  0  0  0  0  0  0  0  0
    3.0810    8.4380    1.2340 H   0  0  0  0  0  0  0  0  0  0  0  0
    5.3020   10.1180    1.0650 H   0  0  0  0  0  0  0  0  0  0  0  0
    6.9900   10.8400   -0.8870 H   0  0  0  0  0  0  0  0  0  0  0  0
    7.1688   10.2039   -3.7011 H   0  0  0  0  0  0  0  0  0  0  0  0
    4.9440    7.3350   -6.7280 H   0  0  0  0  0  0  0  0  0  0  0  0
    7.0633    7.5333   -9.8942 H   0  0  0  0  0  0  0  0  0  0  0  0
    5.4229    8.9697  -10.6139 H   0  0  0  0  0  0  0  0  0  0  0  0
    4.6210    7.3323  -10.7021 H   0  0  0  0  0  0  0  0  0  0  0  0
    2.9550    6.6523   -9.0106 H   0  0  0  0  0  0  0  0  0  0  0  0
    1.0501    7.4753   -7.6316 H   0  0  0  0  0  0  0  0  0  0  0  0
    0.9039    9.8857   -7.0111 H   0  0  0  0  0  0  0  0  0  0  0  0
    2.6757   11.4749   -7.7585 H   0  0  0  0  0  0  0  0  0  0  0  0
    4.5778   10.6623   -9.1453 H   0  0  0  0  0  0  0  0  0  0  0  0
    5.6330    5.9540   -7.8910 H   0  0  0  0  0  0  0  0  0  0  0  0
    6.1209    3.6595   -8.1107 H   0  0  0  0  0  0  0  0  0  0  0  0
    7.1739    2.9319  -10.5064 H   0  0  0  0  0  0  0  0  0  0  0  0
    6.6934    1.8053   -9.1413 H   0  0  0  0  0  0  0  0  0  0  0  0
    5.9796    1.2772  -11.6144 H   0  0  0  0  0  0  0  0  0  0  0  0
    4.8439    1.0350  -10.2202 H   0  0  0  0  0  0  0  0  0  0  0  0
    4.9454    3.4893  -11.9980 H   0  0  0  0  0  0  0  0  0  0  0  0
    4.1067    2.1044  -13.5293 H   0  0  0  0  0  0  0  0  0  0  0  0
    3.3757    0.9937  -12.2878 H   0  0  0  0  0  0  0  0  0  0  0  0
    1.6650    2.6640  -11.9080 H   0  0  0  0  0  0  0  0  0  0  0  0
    2.2980    3.6560  -13.0810 H   0  0  0  0  0  0  0  0  0  0  0  0
    1.6780    2.1790  -13.4840 H   0  0  0  0  0  0  0  0  0  0  0  0
    3.2533    4.4104  -10.7746 H   0  0  0  0  0  0  0  0  0  0  0  0
    2.6132    2.7717  -10.2680 H   0  0  0  0  0  0  0  0  0  0  0  0
    3.7673    4.4168   -8.5307 H   0  0  0  0  0  0  0  0  0  0  0  0
    3.9843    2.6041   -8.4892 H   0  0  0  0  0  0  0  0  0  0  0  0
    4.0241    7.4792   -4.9718 H   0  0  0  0  0  0  0  0  0  0  0  0
    3.0045    7.3890   -2.6688 H   0  0  0  0  0  0  0  0  0  0  0  0
  1  2  1  0
  2  3  2  0
  3  4  1  0
  4  5  1  0
  5  6  2  0
  6  7  1  0
  7  8  1  0
  8  9  1  0
  9 10  1  0
 10 11  1  0
 11 12  1  0
 12 13  1  0
 13 14  2  0
 14 15  1  0
 15 16  2  0
 16 17  1  0
 17 18  2  0
 11 19  1  0
 19 20  1  0
 20 21  2  0
 20 22  1  0
 22 23  1  0
 23 24  1  0
 24 25  1  0
 25 26  1  0
 26 27  1  0
 25 28  1  0
 28 29  1  0
 10 30  2  0
 30 31  1  0
 31 32  1  0
  7 33  2  0
 33 34  1  0
 34 35  2  0
 35  2  1  0
 35  5  1  0
 31  8  2  0
 18 13  1  0
 29 22  1  0
  1 36  1  0
  1 37  1  0
  3 38  1  0
  4 39  1  0
  6 40  1  0
  9 41  1  0
 11 42  1  6
 12 43  1  0
 12 44  1  0
 14 45  1  0
 15 46  1  0
 16 47  1  0
 17 48  1  0
 18 49  1  0
 19 50  1  0
 22 51  1  6
 23 52  1  0
 23 53  1  0
 24 54  1  0
 24 55  1  0
 25 56  1  1
 26 57  1  0
 26 58  1  0
 27 59  1  0
 27 60  1  0
 27 61  1  0
 28 62  1  0
 28 63  1  0
 29 64  1  0
 29 65  1  0
 33 66  1  0
 34 67  1  0
M  CHG  2   3   1  27   1
M  END
>  <meeko>  (3) 
{"is_sidechain": [false], "free_energy": -8.787, "intermolecular_energy": -13.965, "internal_energy": -0.707}

$$$$
4ty7_ligand
     RDKit          3D

 67 71  0  0  0  0  0  0  0  0999 V2000
    3.6260    9.0440    0.4530 N   0  0  0  0  0  0  0  0  0  0  0  0
    4.5610    9.3490   -0.5040 C   0  0  0  0  0  0  0  0  0  0  0  0
    5.6270   10.2490   -0.3270 N   0  0  0  0  0  0  0  0  0  0  0  0
    6.4090   10.2910   -1.6150 N   0  0  0  0  0  0  0  0  0  0  0  0
    5.7810    9.4120   -2.5090 C   0  0  0  0  0  0  0  0  0  0  0  0
    6.0960    9.0770   -3.8160 C   0  0  0  0  0  0  0  0  0  0  0  0
    5.2780    8.1390   -4.4760 C   0  0  0  0  0  0  0  0  0  0  0  0
    5.6030    7.7480   -5.8500 C   0  0  0  0  0  0  0  0  0  0  0  0
    5.1040    6.6130   -6.4530 N   0  0  0  0  0  0  0  0  0  0  0  0
    5.6190    6.5270   -7.7230 C   0  0  0  0  0  0  0  0  0  0  0  0
    5.2930    5.3920   -8.6570 C   0  0  2  0  0  0  0  0  0  0  0  0
    6.4550    4.3810   -8.7590 C   0  0  0  0  0  0  0  0  0  0  0  0
    6.3120    3.4190   -9.9170 C   0  0  0  0  0  0  0  0  0  0  0  0
    7.3210    3.3170  -10.8850 C   0  0  0  0  0  0  0  0  0  0  0  0
    7.1720    2.4510  -11.9700 C   0  0  0  0  0  0  0  0  0  0  0  0
    6.0200    1.6780  -12.0940 C   0  0  0  0  0  0  0  0  0  0  0  0
    5.0150    1.7640  -11.1310 C   0  0  0  0  0  0  0  0  0  0  0  0
    5.1600    2.6310  -10.0470 C   0  0  0  0  0  0  0  0  0  0  0  0
    5.0070    5.9970   -9.9520 N   0  0  0  0  0  0  0  0  0  0  0  0
    3.8340    6.6550  -10.2100 C   0  0  0  0  0  0  0  0  0  0  0  0
    2.9180    6.7170   -9.3970 O   0  0  0  0  0  0  0  0  0  0  0  0
    3.7470    7.2450  -11.6200 C   0  0  2  0  0  0  0  0  0  0  0  0
    2.3590    7.0460  -12.2580 C   0  0  0  0  0  0  0  0  0  0  0  0
    2.2960    5.9250  -13.3020 C   0  0  0  0  0  0  0  0  0  0  0  0
    3.1940    4.7430  -12.9250 C   0  0  1  0  0  0  0  0  0  0  0  0
    2.9890    3.5100  -13.8130 C   0  0  0  0  0  0  0  0  0  0  0  0
    1.8720    2.6550  -13.3460 N   0  0  0  0  0  0  0  0  0  0  0  0
    4.6690    5.1800  -12.8300 C   0  0  0  0  0  0  0  0  0  0  0  0
    4.8590    6.6690  -12.5030 C   0  0  0  0  0  0  0  0  0  0  0  0
    6.3990    7.5600   -7.9770 N   0  0  0  0  0  0  0  0  0  0  0  0
    6.4050    8.3160   -6.8290 C   0  0  0  0  0  0  0  0  0  0  0  0
    7.3410    9.7360   -6.7110 Cl  0  0  0  0  0  0  0  0  0  0  0  0
    4.1500    7.5580   -3.8370 C   0  0  0  0  0  0  0  0  0  0  0  0
    3.7680    7.8570   -2.5180 C   0  0  0  0  0  0  0  0  0  0  0  0
    4.5970    8.7850   -1.8600 C   0  0  0  0  0  0  0  0  0  0  0  0
    3.4450    9.6400    1.2610 H   0  0  0  0  0  0  0  0  0  0  0  0
    3.0030    8.2380    0.4600 H   0  0  0  0  0  0  0  0  0  0  0  0
    5.8460   10.7810    0.5140 H   0  0  0  0  0  0  0  0  0  0  0  0
    7.2430   10.8580   -1.7720 H   0  0  0  0  0  0  0  0  0  0  0  0
    6.9600    9.5305   -4.3237 H   0  0  0  0  0  0  0  0  0  0  0  0
    4.4880    5.9320   -6.0260 H   0  0  0  0  0  0  0  0  0  0  0  0
    4.4311    4.8190   -8.2845 H   0  0  0  0  0  0  0  0  0  0  0  0
    7.3941    4.9401   -8.8837 H   0  0  0  0  0  0  0  0  0  0  0  0
    6.4478    3.7826   -7.8360 H   0  0  0  0  0  0  0  0  0  0  0  0
    8.2345    3.9222  -10.7892 H   0  0  0  0  0  0  0  0  0  0  0  0
    7.9657    2.3791  -12.7282 H   0  0  0  0  0  0  0  0  0  0  0  0
    5.9029    0.9995  -12.9518 H   0  0  0  0  0  0  0  0  0  0  0  0
    4.1082    1.1486  -11.2258 H   0  0  0  0  0  0  0  0  0  0  0  0
    4.3650    2.6964   -9.2896 H   0  0  0  0  0  0  0  0  0  0  0  0
    5.7780    6.0160  -10.6160 H   0  0  0  0  0  0  0  0  0  0  0  0
    3.8916    8.3322  -11.5353 H   0  0  0  0  0  0  0  0  0  0  0  0
    1.6428    6.8106  -11.4569 H   0  0  0  0  0  0  0  0  0  0  0  0
    2.1198    7.9806  -12.7865 H   0  0  0  0  0  0  0  0  0  0  0  0
    1.2575    5.5714  -13.3820 H   0  0  0  0  0  0  0  0  0  0  0  0
    2.6513    6.3312  -14.2605 H   0  0  0  0  0  0  0  0  0  0  0  0
    2.8830    4.4134  -11.9227 H   0  0  0  0  0  0  0  0  0  0  0  0
    2.7722    3.8453  -14.8380 H   0  0  0  0  0  0  0  0  0  0  0  0
    3.9101    2.9101  -13.7707 H   0  0  0  0  0  0  0  0  0  0  0  0
    1.9710    2.3980  -12.3560 H   0  0  0  0  0  0  0  0  0  0  0  0
    0.9550    3.1040  -13.4660 H   0  0  0  0  0  0  0  0  0  0  0  0
    1.8450    1.7750  -13.8780 H   0  0  0  0  0  0  0  0  0  0  0  0
    5.1553    4.5876  -12.0409 H   0  0  0  0  0  0  0  0  0  0  0  0
    5.1155    5.0120  -13.8212 H   0  0  0  0  0  0  0  0  0  0  0  0
    5.8186    6.7913  -11.9793 H   0  0  0  0  0  0  0  0  0  0  0  0
    4.8329    7.2167  -13.4566 H   0  0  0  0  0  0  0  0  0  0  0  0
    3.5439    6.8363   -4.4043 H   0  0  0  0  0  0  0  0  0  0  0  0
    2.8897    7.4014   -2.0373 H   0  0  0  0  0  0  0  0  0  0  0  0
  1  2  1  0
  2  3  2  0
  3  4  1  0
  4  5  1  0
  5  6  2  0
  6  7  1  0
  7  8  1  0
  8  9  1  0
  9 10  1  0
 10 11  1  0
 11 12  1  0
 12 13  1  0
 13 14  2  0
 14 15  1  0
 15 16  2  0
 16 17  1  0
 17 18  2  0
 11 19  1  0
 19 20  1  0
 20 21  2  0
 20 22  1  0
 22 23  1  0
 23 24  1  0
 24 25  1  0
 25 26  1  0
 26 27  1  0
 25 28  1  0
 28 29  1  0
 10 30  2  0
 30 31  1  0
 31 32  1  0
  7 33  2  0
 33 34  1  0
 34 35  2  0
 35  2  1  0
 35  5  1  0
 31  8  2  0
 18 13  1  0
 29 22  1  0
  1 36  1  0
  1 37  1  0
  3 38  1  0
  4 39  1  0
  6 40  1  0
  9 41  1  0
 11 42  1  1
 12 43  1  0
 12 44  1  0
 14 45  1  0
 15 46  1  0
 16 47  1  0
 17 48  1  0
 18 49  1  0
 19 50  1  0
 22 51  1  6
 23 52  1  0
 23 53  1  0
 24 54  1  0
 24 55  1  0
 25 56  1  6
 26 57  1  0
 26 58  1  0
 27 59  1  0
 27 60  1  0
 27 61  1  0
 28 62  1  0
 28 63  1  0
 29 64  1  0
 29 65  1  0
 33 66  1  0
 34 67  1  0
M  CHG  2   3   1  27   1
M  END
>  <meeko>  (4) 
{"is_sidechain": [false], "free_energy": -8.78, "intermolecular_energy": -13.19, "internal_energy": -1.472}

$$$$
4ty7_ligand
     RDKit          3D

 67 71  0  0  0  0  0  0  0  0999 V2000
    3.9580    8.6170    0.6920 N   0  0  0  0  0  0  0  0  0  0  0  0
    4.5610    9.2660   -0.3550 C   0  0  0  0  0  0  0  0  0  0  0  0
    5.3250   10.4420   -0.2410 N   0  0  0  0  0  0  0  0  0  0  0  0
    5.8000   10.8150   -1.6220 N   0  0  0  0  0  0  0  0  0  0  0  0
    5.3060    9.8460   -2.5050 C   0  0  0  0  0  0  0  0  0  0  0  0
    5.4550    9.7160   -3.8770 C   0  0  0  0  0  0  0  0  0  0  0  0
    4.8450    8.6150   -4.5100 C   0  0  0  0  0  0  0  0  0  0  0  0
    5.0070    8.4400   -5.9550 C   0  0  0  0  0  0  0  0  0  0  0  0
    4.0360    7.8880   -6.7650 N   0  0  0  0  0  0  0  0  0  0  0  0
    4.5110    7.8460   -8.0520 C   0  0  0  0  0  0  0  0  0  0  0  0
    3.7090    7.2830   -9.1960 C   0  0  2  0  0  0  0  0  0  0  0  0
    4.5980    6.5100  -10.1930 C   0  0  0  0  0  0  0  0  0  0  0  0
    5.0450    5.1600   -9.6750 C   0  0  0  0  0  0  0  0  0  0  0  0
    4.1070    4.1500   -9.4220 C   0  0  0  0  0  0  0  0  0  0  0  0
    4.5180    2.9170   -8.9140 C   0  0  0  0  0  0  0  0  0  0  0  0
    5.8680    2.6800   -8.6610 C   0  0  0  0  0  0  0  0  0  0  0  0
    6.8100    3.6750   -8.9200 C   0  0  0  0  0  0  0  0  0  0  0  0
    6.4010    4.9100   -9.4250 C   0  0  0  0  0  0  0  0  0  0  0  0
    3.0610    8.4180   -9.8400 N   0  0  0  0  0  0  0  0  0  0  0  0
    1.7610    8.7650   -9.5780 C   0  0  0  0  0  0  0  0  0  0  0  0
    1.0360    8.1040   -8.8430 O   0  0  0  0  0  0  0  0  0  0  0  0
    1.2840   10.0070  -10.3330 C   0  0  2  0  0  0  0  0  0  0  0  0
   -0.2160   10.2870  -10.1190 C   0  0  0  0  0  0  0  0  0  0  0  0
   -1.1110    9.8840  -11.2970 C   0  0  0  0  0  0  0  0  0  0  0  0
   -0.6120    8.6080  -11.9810 C   0  0  1  0  0  0  0  0  0  0  0  0
   -1.5970    8.0400  -13.0100 C   0  0  0  0  0  0  0  0  0  0  0  0
   -1.7950    6.5790  -12.8590 N   0  0  0  0  0  0  0  0  0  0  0  0
    0.8060    8.8060  -12.5490 C   0  0  0  0  0  0  0  0  0  0  0  0
    1.6250    9.8840  -11.8220 C   0  0  0  0  0  0  0  0  0  0  0  0
    5.7210    8.3670   -8.1170 N   0  0  0  0  0  0  0  0  0  0  0  0
    6.0420    8.7290   -6.8310 C   0  0  0  0  0  0  0  0  0  0  0  0
    7.5610    9.4060   -6.4570 Cl  0  0  0  0  0  0  0  0  0  0  0  0
    4.0830    7.6660   -3.7760 C   0  0  0  0  0  0  0  0  0  0  0  0
    3.8850    7.7390   -2.3860 C   0  0  0  0  0  0  0  0  0  0  0  0
    4.5080    8.8350   -1.7590 C   0  0  0  0  0  0  0  0  0  0  0  0
    4.4820    8.1080    1.4050 H   0  0  0  0  0  0  0  0  0  0  0  0
    2.9610    8.5890    0.8970 H   0  0  0  0  0  0  0  0  0  0  0  0
    5.5290   10.9570    0.6140 H   0  0  0  0  0  0  0  0  0  0  0  0
    6.3820   11.6260   -1.8380 H   0  0  0  0  0  0  0  0  0  0  0  0
    6.0332   10.4517   -4.4552 H   0  0  0  0  0  0  0  0  0  0  0  0
    3.1350    7.5370   -6.4630 H   0  0  0  0  0  0  0  0  0  0  0  0
    2.9690    6.5562   -8.8297 H   0  0  0  0  0  0  0  0  0  0  0  0
    4.0290    6.3565  -11.1218 H   0  0  0  0  0  0  0  0  0  0  0  0
    5.5038    7.1123  -10.3564 H   0  0  0  0  0  0  0  0  0  0  0  0
    3.0410    4.3301   -9.6250 H   0  0  0  0  0  0  0  0  0  0  0  0
    3.7754    2.1308   -8.7129 H   0  0  0  0  0  0  0  0  0  0  0  0
    6.1901    1.7088   -8.2573 H   0  0  0  0  0  0  0  0  0  0  0  0
    7.8762    3.4863   -8.7261 H   0  0  0  0  0  0  0  0  0  0  0  0
    7.1475    5.6919   -9.6280 H   0  0  0  0  0  0  0  0  0  0  0  0
    3.6620    9.0180  -10.3990 H   0  0  0  0  0  0  0  0  0  0  0  0
    1.8199   10.8739   -9.9191 H   0  0  0  0  0  0  0  0  0  0  0  0
   -0.5463    9.7299   -9.2299 H   0  0  0  0  0  0  0  0  0  0  0  0
   -0.3185   11.3763  -10.0058 H   0  0  0  0  0  0  0  0  0  0  0  0
   -2.1322    9.7128  -10.9258 H   0  0  0  0  0  0  0  0  0  0  0  0
   -1.0899   10.6984  -12.0362 H   0  0  0  0  0  0  0  0  0  0  0  0
   -0.5496    7.8325  -11.2033 H   0  0  0  0  0  0  0  0  0  0  0  0
   -2.5674    8.5425  -12.8843 H   0  0  0  0  0  0  0  0  0  0  0  0
   -1.1759    8.2188  -14.0103 H   0  0  0  0  0  0  0  0  0  0  0  0
   -0.9060    6.0650  -12.8860 H   0  0  0  0  0  0  0  0  0  0  0  0
   -2.2750    6.3340  -11.9830 H   0  0  0  0  0  0  0  0  0  0  0  0
   -2.3720    6.2120  -13.6280 H   0  0  0  0  0  0  0  0  0  0  0  0
    1.3460    7.8507  -12.4722 H   0  0  0  0  0  0  0  0  0  0  0  0
    0.6881    9.1432  -13.5894 H   0  0  0  0  0  0  0  0  0  0  0  0
    2.6920    9.6335  -11.9157 H   0  0  0  0  0  0  0  0  0  0  0  0
    1.3813   10.8484  -12.2915 H   0  0  0  0  0  0  0  0  0  0  0  0
    3.6239    6.8303   -4.3244 H   0  0  0  0  0  0  0  0  0  0  0  0
    3.2901    6.9981   -1.8318 H   0  0  0  0  0  0  0  0  0  0  0  0
  1  2  1  0
  2  3  2  0
  3  4  1  0
  4  5  1  0
  5  6  2  0
  6  7  1  0
  7  8  1  0
  8  9  1  0
  9 10  1  0
 10 11  1  0
 11 12  1  0
 12 13  1  0
 13 14  2  0
 14 15  1  0
 15 16  2  0
 16 17  1  0
 17 18  2  0
 11 19  1  0
 19 20  1  0
 20 21  2  0
 20 22  1  0
 22 23  1  0
 23 24  1  0
 24 25  1  0
 25 26  1  0
 26 27  1  0
 25 28  1  0
 28 29  1  0
 10 30  2  0
 30 31  1  0
 31 32  1  0
  7 33  2  0
 33 34  1  0
 34 35  2  0
 35  2  1  0
 35  5  1  0
 31  8  2  0
 18 13  1  0
 29 22  1  0
  1 36  1  0
  1 37  1  0
  3 38  1  0
  4 39  1  0
  6 40  1  0
  9 41  1  0
 11 42  1  1
 12 43  1  0
 12 44  1  0
 14 45  1  0
 15 46  1  0
 16 47  1  0
 17 48  1  0
 18 49  1  0
 19 50  1  0
 22 51  1  6
 23 52  1  0
 23 53  1  0
 24 54  1  0
 24 55  1  0
 25 56  1  6
 26 57  1  0
 26 58  1  0
 27 59  1  0
 27 60  1  0
 27 61  1  0
 28 62  1  0
 28 63  1  0
 29 64  1  0
 29 65  1  0
 33 66  1  0
 34 67  1  0
M  CHG  2   3   1  27   1
M  END
>  <meeko>  (5) 
{"is_sidechain": [false], "free_energy": -8.77, "intermolecular_energy": -13.264, "internal_energy": -1.383}

$$$$
4ty7_ligand
     RDKit          3D

 67 71  0  0  0  0  0  0  0  0999 V2000
    3.4590    8.6140    0.6710 N   0  0  0  0  0  0  0  0  0  0  0  0
    4.3940    9.1050   -0.2040 C   0  0  0  0  0  0  0  0  0  0  0  0
    5.4060   10.0240    0.1310 N   0  0  0  0  0  0  0  0  0  0  0  0
    6.2090   10.2960   -1.1150 N   0  0  0  0  0  0  0  0  0  0  0  0
    5.6490    9.5260   -2.1440 C   0  0  0  0  0  0  0  0  0  0  0  0
    6.0090    9.4030   -3.4770 C   0  0  0  0  0  0  0  0  0  0  0  0
    5.2580    8.5310   -4.2890 C   0  0  0  0  0  0  0  0  0  0  0  0
    5.6310    8.3630   -5.6960 C   0  0  0  0  0  0  0  0  0  0  0  0
    4.8530    7.6870   -6.6110 N   0  0  0  0  0  0  0  0  0  0  0  0
    5.4970    7.6920   -7.8240 C   0  0  0  0  0  0  0  0  0  0  0  0
    4.9300    7.0220   -9.0480 C   0  0  2  0  0  0  0  0  0  0  0  0
    6.0410    6.5140   -9.9890 C   0  0  0  0  0  0  0  0  0  0  0  0
    6.0840    5.0060  -10.1070 C   0  0  0  0  0  0  0  0  0  0  0  0
    6.6690    4.2300   -9.0960 C   0  0  0  0  0  0  0  0  0  0  0  0
    6.7360    2.8420   -9.2220 C   0  0  0  0  0  0  0  0  0  0  0  0
    6.2150    2.2170  -10.3530 C   0  0  0  0  0  0  0  0  0  0  0  0
    5.6220    2.9780  -11.3590 C   0  0  0  0  0  0  0  0  0  0  0  0
    5.5560    4.3660  -11.2370 C   0  0  0  0  0  0  0  0  0  0  0  0
    4.0940    8.0160   -9.7080 N   0  0  0  0  0  0  0  0  0  0  0  0
    2.8200    8.2980   -9.2900 C   0  0  0  0  0  0  0  0  0  0  0  0
    2.2720    7.6840   -8.3810 O   0  0  0  0  0  0  0  0  0  0  0  0
    2.1270    9.3960  -10.0990 C   0  0  2  0  0  0  0  0  0  0  0  0
    3.1230   10.4150  -10.6850 C   0  0  0  0  0  0  0  0  0  0  0  0
    3.1810   11.7490   -9.9310 C   0  0  0  0  0  0  0  0  0  0  0  0
    3.0050   11.5600   -8.4220 C   0  0  1  0  0  0  0  0  0  0  0  0
    3.2850   12.8290   -7.6080 C   0  0  0  0  0  0  0  0  0  0  0  0
    2.3190   13.0160   -6.5000 N   0  0  0  0  0  0  0  0  0  0  0  0
    1.6350   10.9290   -8.1030 C   0  0  0  0  0  0  0  0  0  0  0  0
    1.0550   10.0840   -9.2470 C   0  0  0  0  0  0  0  0  0  0  0  0
    6.6320    8.3590   -7.7430 N   0  0  0  0  0  0  0  0  0  0  0  0
    6.7320    8.7700   -6.4350 C   0  0  0  0  0  0  0  0  0  0  0  0
    8.0930    9.6350   -5.8830 Cl  0  0  0  0  0  0  0  0  0  0  0  0
    4.1520    7.8040   -3.7730 C   0  0  0  0  0  0  0  0  0  0  0  0
    3.7270    7.8850   -2.4350 C   0  0  0  0  0  0  0  0  0  0  0  0
    4.4890    8.7490   -1.6270 C   0  0  0  0  0  0  0  0  0  0  0  0
    2.9490    9.2060    1.3270 H   0  0  0  0  0  0  0  0  0  0  0  0
    3.1500    7.6480    0.7510 H   0  0  0  0  0  0  0  0  0  0  0  0
    5.5770   10.4370    1.0460 H   0  0  0  0  0  0  0  0  0  0  0  0
    7.0130   10.9230   -1.1650 H   0  0  0  0  0  0  0  0  0  0  0  0
    6.8568    9.9701   -3.8888 H   0  0  0  0  0  0  0  0  0  0  0  0
    3.9690    7.2300   -6.4220 H   0  0  0  0  0  0  0  0  0  0  0  0
    4.3466    6.1323   -8.7685 H   0  0  0  0  0  0  0  0  0  0  0  0
    5.8712    6.9376  -10.9899 H   0  0  0  0  0  0  0  0  0  0  0  0
    7.0020    6.8342   -9.5602 H   0  0  0  0  0  0  0  0  0  0  0  0
    7.0773    4.7182   -8.1988 H   0  0  0  0  0  0  0  0  0  0  0  0
    7.2009    2.2403   -8.4271 H   0  0  0  0  0  0  0  0  0  0  0  0
    6.2717    1.1229  -10.4520 H   0  0  0  0  0  0  0  0  0  0  0  0
    5.2059    2.4839  -12.2494 H   0  0  0  0  0  0  0  0  0  0  0  0
    5.0864    4.9625  -12.0330 H   0  0  0  0  0  0  0  0  0  0  0  0
    4.5510    8.5830  -10.4190 H   0  0  0  0  0  0  0  0  0  0  0  0
    1.6383    8.9162  -10.9598 H   0  0  0  0  0  0  0  0  0  0  0  0
    4.1266    9.9652  -10.6662 H   0  0  0  0  0  0  0  0  0  0  0  0
    2.7752   10.6444  -11.7030 H   0  0  0  0  0  0  0  0  0  0  0  0
    4.1564   12.2215  -10.1188 H   0  0  0  0  0  0  0  0  0  0  0  0
    2.3574   12.3816  -10.2937 H   0  0  0  0  0  0  0  0  0  0  0  0
    3.7797   10.8499   -8.0971 H   0  0  0  0  0  0  0  0  0  0  0  0
    4.2982   12.7607   -7.1852 H   0  0  0  0  0  0  0  0  0  0  0  0
    3.1874   13.6898   -8.2859 H   0  0  0  0  0  0  0  0  0  0  0  0
    1.3700   12.7240   -6.7630 H   0  0  0  0  0  0  0  0  0  0  0  0
    2.5860   12.4990   -5.6530 H   0  0  0  0  0  0  0  0  0  0  0  0
    2.2600   14.0090   -6.2370 H   0  0  0  0  0  0  0  0  0  0  0  0
    1.7487   10.2836   -7.2195 H   0  0  0  0  0  0  0  0  0  0  0  0
    0.9338   11.7594   -7.9335 H   0  0  0  0  0  0  0  0  0  0  0  0
    0.4042    9.3102   -8.8137 H   0  0  0  0  0  0  0  0  0  0  0  0
    0.5036   10.7680   -9.9088 H   0  0  0  0  0  0  0  0  0  0  0  0
    3.5988    7.1428   -4.4562 H   0  0  0  0  0  0  0  0  0  0  0  0
    2.8667    7.3177   -2.0503 H   0  0  0  0  0  0  0  0  0  0  0  0
  1  2  1  0
  2  3  2  0
  3  4  1  0
  4  5  1  0
  5  6  2  0
  6  7  1  0
  7  8  1  0
  8  9  1  0
  9 10  1  0
 10 11  1  0
 11 12  1  0
 12 13  1  0
 13 14  2  0
 14 15  1  0
 15 16  2  0
 16 17  1  0
 17 18  2  0
 11 19  1  0
 19 20  1  0
 20 21  2  0
 20 22  1  0
 22 23  1  0
 23 24  1  0
 24 25  1  0
 25 26  1  0
 26 27  1  0
 25 28  1  0
 28 29  1  0
 10 30  2  0
 30 31  1  0
 31 32  1  0
  7 33  2  0
 33 34  1  0
 34 35  2  0
 35  2  1  0
 35  5  1  0
 31  8  2  0
 18 13  1  0
 29 22  1  0
  1 36  1  0
  1 37  1  0
  3 38  1  0
  4 39  1  0
  6 40  1  0
  9 41  1  0
 11 42  1  1
 12 43  1  0
 12 44  1  0
 14 45  1  0
 15 46  1  0
 16 47  1  0
 17 48  1  0
 18 49  1  0
 19 50  1  0
 22 51  1  1
 23 52  1  0
 23 53  1  0
 24 54  1  0
 24 55  1  0
 25 56  1  6
 26 57  1  0
 26 58  1  0
 27 59  1  0
 27 60  1  0
 27 61  1  0
 28 62  1  0
 28 63  1  0
 29 64  1  0
 29 65  1  0
 33 66  1  0
 34 67  1  0
M  CHG  2   3   1  27   1
M  END
>  <meeko>  (6) 
{"is_sidechain": [false], "free_energy": -8.716, "intermolecular_energy": -13.286, "internal_energy": -1.283}

$$$$
4ty7_ligand
     RDKit          3D

 67 71  0  0  0  0  0  0  0  0999 V2000
    3.1850    8.3390    0.1850 N   0  0  0  0  0  0  0  0  0  0  0  0
    4.2090    8.9890   -0.4550 C   0  0  0  0  0  0  0  0  0  0  0  0
    5.1200    9.8620    0.1660 N   0  0  0  0  0  0  0  0  0  0  0  0
    6.0760   10.3560   -0.8900 N   0  0  0  0  0  0  0  0  0  0  0  0
    5.7000    9.7540   -2.0990 C   0  0  0  0  0  0  0  0  0  0  0  0
    6.2470    9.8630   -3.3680 C   0  0  0  0  0  0  0  0  0  0  0  0
    5.6580    9.1210   -4.4110 C   0  0  0  0  0  0  0  0  0  0  0  0
    6.2310    9.1970   -5.7560 C   0  0  0  0  0  0  0  0  0  0  0  0
    6.8680   10.3170   -6.2470 N   0  0  0  0  0  0  0  0  0  0  0  0
    7.2620   10.0680   -7.5380 C   0  0  0  0  0  0  0  0  0  0  0  0
    7.9750   11.0920   -8.3820 C   0  0  2  0  0  0  0  0  0  0  0  0
    9.1100   11.7880   -7.6020 C   0  0  0  0  0  0  0  0  0  0  0  0
   10.3920   10.9850   -7.5670 C   0  0  0  0  0  0  0  0  0  0  0  0
   10.7550   10.2750   -6.4140 C   0  0  0  0  0  0  0  0  0  0  0  0
   11.9540    9.5620   -6.3730 C   0  0  0  0  0  0  0  0  0  0  0  0
   12.7950    9.5450   -7.4830 C   0  0  0  0  0  0  0  0  0  0  0  0
   12.4380   10.2390   -8.6380 C   0  0  0  0  0  0  0  0  0  0  0  0
   11.2420   10.9560   -8.6810 C   0  0  0  0  0  0  0  0  0  0  0  0
    6.9620   12.0510   -8.8040 N   0  0  0  0  0  0  0  0  0  0  0  0
    6.3200   11.9570  -10.0110 C   0  0  0  0  0  0  0  0  0  0  0  0
    6.6050   11.1050  -10.8470 O   0  0  0  0  0  0  0  0  0  0  0  0
    5.2690   13.0440  -10.2450 C   0  0  2  0  0  0  0  0  0  0  0  0
    5.1990   14.0560   -9.0860 C   0  0  0  0  0  0  0  0  0  0  0  0
    4.0070   13.8570   -8.1420 C   0  0  0  0  0  0  0  0  0  0  0  0
    3.6740   12.3740   -7.9490 C   0  0  1  0  0  0  0  0  0  0  0  0
    2.6450   12.1170   -6.8420 C   0  0  0  0  0  0  0  0  0  0  0  0
    2.0110   13.3650   -6.3570 N   0  0  0  0  0  0  0  0  0  0  0  0
    3.2940   11.7160   -9.2900 C   0  0  0  0  0  0  0  0  0  0  0  0
    3.9030   12.4080  -10.5190 C   0  0  0  0  0  0  0  0  0  0  0  0
    6.9390    8.8390   -7.8930 N   0  0  0  0  0  0  0  0  0  0  0  0
    6.2950    8.2940   -6.8070 C   0  0  0  0  0  0  0  0  0  0  0  0
    5.6610    6.7130   -6.8590 Cl  0  0  0  0  0  0  0  0  0  0  0  0
    4.5260    8.2930   -4.1840 C   0  0  0  0  0  0  0  0  0  0  0  0
    3.9160    8.1410   -2.9260 C   0  0  0  0  0  0  0  0  0  0  0  0
    4.5170    8.8760   -1.8870 C   0  0  0  0  0  0  0  0  0  0  0  0
    2.2030    8.5690    0.0350 H   0  0  0  0  0  0  0  0  0  0  0  0
    3.2720    7.5610    0.8360 H   0  0  0  0  0  0  0  0  0  0  0  0
    5.1430   10.1220    1.1520 H   0  0  0  0  0  0  0  0  0  0  0  0
    6.8490   11.0000   -0.7210 H   0  0  0  0  0  0  0  0  0  0  0  0
    7.1163   10.5104   -3.5555 H   0  0  0  0  0  0  0  0  0  0  0  0
    6.9960   11.1940   -5.7570 H   0  0  0  0  0  0  0  0  0  0  0  0
    8.4574   10.6135   -9.2471 H   0  0  0  0  0  0  0  0  0  0  0  0
    9.3180   12.7572   -8.0788 H   0  0  0  0  0  0  0  0  0  0  0  0
    8.7686   11.9022   -6.5626 H   0  0  0  0  0  0  0  0  0  0  0  0
   10.0912   10.2799   -5.5369 H   0  0  0  0  0  0  0  0  0  0  0  0
   12.2353    9.0126   -5.4625 H   0  0  0  0  0  0  0  0  0  0  0  0
   13.7406    8.9841   -7.4483 H   0  0  0  0  0  0  0  0  0  0  0  0
   13.0999   10.2213   -9.5164 H   0  0  0  0  0  0  0  0  0  0  0  0
   10.9644   11.5019   -9.5948 H   0  0  0  0  0  0  0  0  0  0  0  0
    6.6630   12.7230   -8.1010 H   0  0  0  0  0  0  0  0  0  0  0  0
    5.5751   13.6168  -11.1328 H   0  0  0  0  0  0  0  0  0  0  0  0
    6.1233   13.9680   -8.4962 H   0  0  0  0  0  0  0  0  0  0  0  0
    5.0748   15.0487   -9.5433 H   0  0  0  0  0  0  0  0  0  0  0  0
    4.2504   14.2973   -7.1638 H   0  0  0  0  0  0  0  0  0  0  0  0
    3.1308   14.3482   -8.5903 H   0  0  0  0  0  0  0  0  0  0  0  0
    4.5916   11.8848   -7.5901 H   0  0  0  0  0  0  0  0  0  0  0  0
    1.8614   11.4530   -7.2358 H   0  0  0  0  0  0  0  0  0  0  0  0
    3.1739   11.6587   -5.9933 H   0  0  0  0  0  0  0  0  0  0  0  0
    1.2930   13.1810   -5.6440 H   0  0  0  0  0  0  0  0  0  0  0  0
    2.6900   14.0250   -5.9580 H   0  0  0  0  0  0  0  0  0  0  0  0
    1.5390   13.8540   -7.1300 H   0  0  0  0  0  0  0  0  0  0  0  0
    3.6402   10.6720   -9.2736 H   0  0  0  0  0  0  0  0  0  0  0  0
    2.2013   11.7978   -9.3869 H   0  0  0  0  0  0  0  0  0  0  0  0
    4.0204   11.6605  -11.3174 H   0  0  0  0  0  0  0  0  0  0  0  0
    3.2188   13.2200  -10.8065 H   0  0  0  0  0  0  0  0  0  0  0  0
    4.1044    7.7417   -5.0374 H   0  0  0  0  0  0  0  0  0  0  0  0
    3.0379    7.4980   -2.7665 H   0  0  0  0  0  0  0  0  0  0  0  0
  1  2  1  0
  2  3  2  0
  3  4  1  0
  4  5  1  0
  5  6  2  0
  6  7  1  0
  7  8  1  0
  8  9  1  0
  9 10  1  0
 10 11  1  0
 11 12  1  0
 12 13  1  0
 13 14  2  0
 14 15  1  0
 15 16  2  0
 16 17  1  0
 17 18  2  0
 11 19  1  0
 19 20  1  0
 20 21  2  0
 20 22  1  0
 22 23  1  0
 23 24  1  0
 24 25  1  0
 25 26  1  0
 26 27  1  0
 25 28  1  0
 28 29  1  0
 10 30  2  0
 30 31  1  0
 31 32  1  0
  7 33  2  0
 33 34  1  0
 34 35  2  0
 35  2  1  0
 35  5  1  0
 31  8  2  0
 18 13  1  0
 29 22  1  0
  1 36  1  0
  1 37  1  0
  3 38  1  0
  4 39  1  0
  6 40  1  0
  9 41  1  0
 11 42  1  6
 12 43  1  0
 12 44  1  0
 14 45  1  0
 15 46  1  0
 16 47  1  0
 17 48  1  0
 18 49  1  0
 19 50  1  0
 22 51  1  1
 23 52  1  0
 23 53  1  0
 24 54  1  0
 24 55  1  0
 25 56  1  6
 26 57  1  0
 26 58  1  0
 27 59  1  0
 27 60  1  0
 27 61  1  0
 28 62  1  0
 28 63  1  0
 29 64  1  0
 29 65  1  0
 33 66  1  0
 34 67  1  0
M  CHG  2   3   1  27   1
M  END
>  <meeko>  (7) 
{"is_sidechain": [false], "free_energy": -8.714, "intermolecular_energy": -13.043, "internal_energy": -1.522}

$$$$
4ty7_ligand
     RDKit          3D

 67 71  0  0  0  0  0  0  0  0999 V2000
    4.9250    9.0700    0.1070 N   0  0  0  0  0  0  0  0  0  0  0  0
    5.0910    9.6150   -1.1410 C   0  0  0  0  0  0  0  0  0  0  0  0
    5.6860   10.8620   -1.4010 N   0  0  0  0  0  0  0  0  0  0  0  0
    5.6690   11.0770   -2.8930 N   0  0  0  0  0  0  0  0  0  0  0  0
    5.0680    9.9470   -3.4650 C   0  0  0  0  0  0  0  0  0  0  0  0
    4.8130    9.6350   -4.7910 C   0  0  0  0  0  0  0  0  0  0  0  0
    4.1960    8.4010   -5.0760 C   0  0  0  0  0  0  0  0  0  0  0  0
    3.9370    8.0350   -6.4700 C   0  0  0  0  0  0  0  0  0  0  0  0
    4.5230    6.9520   -7.0920 N   0  0  0  0  0  0  0  0  0  0  0  0
    4.0880    6.9050   -8.3930 C   0  0  0  0  0  0  0  0  0  0  0  0
    4.5490    5.8510   -9.3660 C   0  0  2  0  0  0  0  0  0  0  0  0
    6.0770    5.6440   -9.3050 C   0  0  0  0  0  0  0  0  0  0  0  0
    6.5110    4.2570   -9.7230 C   0  0  0  0  0  0  0  0  0  0  0  0
    6.8100    3.2840   -8.7570 C   0  0  0  0  0  0  0  0  0  0  0  0
    7.2400    2.0150   -9.1450 C   0  0  0  0  0  0  0  0  0  0  0  0
    7.3700    1.7040  -10.4970 C   0  0  0  0  0  0  0  0  0  0  0  0
    7.0650    2.6600  -11.4650 C   0  0  0  0  0  0  0  0  0  0  0  0
    6.6380    3.9310  -11.0800 C   0  0  0  0  0  0  0  0  0  0  0  0
    4.1320    6.3030  -10.6870 N   0  0  0  0  0  0  0  0  0  0  0  0
    3.3700    5.5270  -11.5210 C   0  0  0  0  0  0  0  0  0  0  0  0
    3.0500    4.3760  -11.2430 O   0  0  0  0  0  0  0  0  0  0  0  0
    3.0140    6.2010  -12.8480 C   0  0  2  0  0  0  0  0  0  0  0  0
    3.2890    7.7160  -12.8310 C   0  0  0  0  0  0  0  0  0  0  0  0
    2.0360    8.5860  -12.6680 C   0  0  0  0  0  0  0  0  0  0  0  0
    1.0080    7.9360  -11.7370 C   0  0  1  0  0  0  0  0  0  0  0  0
   -0.1530    8.8650  -11.3620 C   0  0  0  0  0  0  0  0  0  0  0  0
    0.0760    9.5670  -10.0770 N   0  0  0  0  0  0  0  0  0  0  0  0
    0.5380    6.5790  -12.2980 C   0  0  0  0  0  0  0  0  0  0  0  0
    1.5590    5.8970  -13.2200 C   0  0  0  0  0  0  0  0  0  0  0  0
    3.2340    7.8810   -8.6330 N   0  0  0  0  0  0  0  0  0  0  0  0
    3.1380    8.5900   -7.4590 C   0  0  0  0  0  0  0  0  0  0  0  0
    2.1620    9.9830   -7.3460 Cl  0  0  0  0  0  0  0  0  0  0  0  0
    3.8270    7.4990   -4.0420 C   0  0  0  0  0  0  0  0  0  0  0  0
    4.0480    7.7530   -2.6770 C   0  0  0  0  0  0  0  0  0  0  0  0
    4.6760    8.9830   -2.4010 C   0  0  0  0  0  0  0  0  0  0  0  0
    4.6150    8.1100    0.2560 H   0  0  0  0  0  0  0  0  0  0  0  0
    5.1110    9.5250    0.9990 H   0  0  0  0  0  0  0  0  0  0  0  0
    6.0670   11.5140   -0.7150 H   0  0  0  0  0  0  0  0  0  0  0  0
    6.0420   11.8990   -3.3680 H   0  0  0  0  0  0  0  0  0  0  0  0
    5.0847   10.3312   -5.5981 H   0  0  0  0  0  0  0  0  0  0  0  0
    5.1900    6.3140   -6.6750 H   0  0  0  0  0  0  0  0  0  0  0  0
    4.1054    4.8751   -9.1194 H   0  0  0  0  0  0  0  0  0  0  0  0
    6.5551    6.3754   -9.9731 H   0  0  0  0  0  0  0  0  0  0  0  0
    6.3819    5.7781   -8.2566 H   0  0  0  0  0  0  0  0  0  0  0  0
    6.7048    3.5232   -7.6885 H   0  0  0  0  0  0  0  0  0  0  0  0
    7.4769    1.2585   -8.3823 H   0  0  0  0  0  0  0  0  0  0  0  0
    7.7133    0.7041  -10.8007 H   0  0  0  0  0  0  0  0  0  0  0  0
    7.1611    2.4120  -12.5324 H   0  0  0  0  0  0  0  0  0  0  0  0
    6.3993    4.6826  -11.8469 H   0  0  0  0  0  0  0  0  0  0  0  0
    4.3290    7.2760  -10.9090 H   0  0  0  0  0  0  0  0  0  0  0  0
    3.6709    5.7800  -13.6233 H   0  0  0  0  0  0  0  0  0  0  0  0
    3.9695    7.9327  -11.9943 H   0  0  0  0  0  0  0  0  0  0  0  0
    3.7204    7.9676  -13.8111 H   0  0  0  0  0  0  0  0  0  0  0  0
    2.3307    9.5593  -12.2486 H   0  0  0  0  0  0  0  0  0  0  0  0
    1.5722    8.7057  -13.6583 H   0  0  0  0  0  0  0  0  0  0  0  0
    1.5203    7.7393  -10.7837 H   0  0  0  0  0  0  0  0  0  0  0  0
   -0.2759    9.6152  -12.1571 H   0  0  0  0  0  0  0  0  0  0  0  0
   -1.0547    8.2452  -11.2489 H   0  0  0  0  0  0  0  0  0  0  0  0
   -0.8050    9.7830   -9.5940 H   0  0  0  0  0  0  0  0  0  0  0  0
    0.6660    9.0270   -9.4320 H   0  0  0  0  0  0  0  0  0  0  0  0
    0.5530   10.4650  -10.2370 H   0  0  0  0  0  0  0  0  0  0  0  0
    0.3333    5.9070  -11.4516 H   0  0  0  0  0  0  0  0  0  0  0  0
   -0.3565    6.7787  -12.9063 H   0  0  0  0  0  0  0  0  0  0  0  0
    1.4054    4.8091  -13.1659 H   0  0  0  0  0  0  0  0  0  0  0  0
    1.3943    6.2906  -14.2339 H   0  0  0  0  0  0  0  0  0  0  0  0
    3.3431    6.5524   -4.3243 H   0  0  0  0  0  0  0  0  0  0  0  0
    3.7536    7.0467   -1.8868 H   0  0  0  0  0  0  0  0  0  0  0  0
  1  2  1  0
  2  3  2  0
  3  4  1  0
  4  5  1  0
  5  6  2  0
  6  7  1  0
  7  8  1  0
  8  9  1  0
  9 10  1  0
 10 11  1  0
 11 12  1  0
 12 13  1  0
 13 14  2  0
 14 15  1  0
 15 16  2  0
 16 17  1  0
 17 18  2  0
 11 19  1  0
 19 20  1  0
 20 21  2  0
 20 22  1  0
 22 23  1  0
 23 24  1  0
 24 25  1  0
 25 26  1  0
 26 27  1  0
 25 28  1  0
 28 29  1  0
 10 30  2  0
 30 31  1  0
 31 32  1  0
  7 33  2  0
 33 34  1  0
 34 35  2  0
 35  2  1  0
 35  5  1  0
 31  8  2  0
 18 13  1  0
 29 22  1  0
  1 36  1  0
  1 37  1  0
  3 38  1  0
  4 39  1  0
  6 40  1  0
  9 41  1  0
 11 42  1  1
 12 43  1  0
 12 44  1  0
 14 45  1  0
 15 46  1  0
 16 47  1  0
 17 48  1  0
 18 49  1  0
 19 50  1  0
 22 51  1  1
 23 52  1  0
 23 53  1  0
 24 54  1  0
 24 55  1  0
 25 56  1  6
 26 57  1  0
 26 58  1  0
 27 59  1  0
 27 60  1  0
 27 61  1  0
 28 62  1  0
 28 63  1  0
 29 64  1  0
 29 65  1  0
 33 66  1  0
 34 67  1  0
M  CHG  2   3   1  27   1
M  END
>  <meeko>  (8) 
{"is_sidechain": [false], "free_energy": -8.586, "intermolecular_energy": -12.799, "internal_energy": -1.578}

$$$$
4ty7_ligand
     RDKit          3D

 67 71  0  0  0  0  0  0  0  0999 V2000
    4.9270    8.5700   -0.9260 N   0  0  0  0  0  0  0  0  0  0  0  0
    5.1710    9.3130   -2.0530 C   0  0  0  0  0  0  0  0  0  0  0  0
    5.6920   10.6200   -2.0570 N   0  0  0  0  0  0  0  0  0  0  0  0
    5.8030   11.0640   -3.4940 N   0  0  0  0  0  0  0  0  0  0  0  0
    5.3480   10.0040   -4.2900 C   0  0  0  0  0  0  0  0  0  0  0  0
    5.2470    9.8900   -5.6670 C   0  0  0  0  0  0  0  0  0  0  0  0
    4.7570    8.6810   -6.1990 C   0  0  0  0  0  0  0  0  0  0  0  0
    4.6630    8.5240   -7.6520 C   0  0  0  0  0  0  0  0  0  0  0  0
    3.5110    8.1280   -8.2990 N   0  0  0  0  0  0  0  0  0  0  0  0
    3.7660    8.0570   -9.6460 C   0  0  0  0  0  0  0  0  0  0  0  0
    2.7250    7.6350  -10.6490 C   0  0  2  0  0  0  0  0  0  0  0  0
    1.2940    7.8470  -10.1130 C   0  0  0  0  0  0  0  0  0  0  0  0
    0.2690    8.0550  -11.2070 C   0  0  0  0  0  0  0  0  0  0  0  0
   -0.6790    9.0830  -11.1060 C   0  0  0  0  0  0  0  0  0  0  0  0
   -1.6430    9.2520  -12.1010 C   0  0  0  0  0  0  0  0  0  0  0  0
   -1.6650    8.4030  -13.2050 C   0  0  0  0  0  0  0  0  0  0  0  0
   -0.7200    7.3840  -13.3190 C   0  0  0  0  0  0  0  0  0  0  0  0
    0.2430    7.2100  -12.3250 C   0  0  0  0  0  0  0  0  0  0  0  0
    2.9770    6.2280  -10.9340 N   0  0  0  0  0  0  0  0  0  0  0  0
    3.6420    5.8150  -12.0580 C   0  0  0  0  0  0  0  0  0  0  0  0
    4.0070    6.5920  -12.9340 O   0  0  0  0  0  0  0  0  0  0  0  0
    3.8300    4.2990  -12.1500 C   0  0  2  0  0  0  0  0  0  0  0  0
    3.2280    3.5560  -10.9420 C   0  0  0  0  0  0  0  0  0  0  0  0
    4.2600    3.0840   -9.9100 C   0  0  0  0  0  0  0  0  0  0  0  0
    5.4130    4.0800   -9.7590 C   0  0  1  0  0  0  0  0  0  0  0  0
    6.3430    3.7660   -8.5810 C   0  0  0  0  0  0  0  0  0  0  0  0
    5.9930    4.5350   -7.3630 N   0  0  0  0  0  0  0  0  0  0  0  0
    6.1670    4.2550  -11.0920 C   0  0  0  0  0  0  0  0  0  0  0  0
    5.3140    3.9610  -12.3350 C   0  0  0  0  0  0  0  0  0  0  0  0
    5.0100    8.4130   -9.9020 N   0  0  0  0  0  0  0  0  0  0  0  0
    5.5770    8.6950   -8.6810 C   0  0  0  0  0  0  0  0  0  0  0  0
    7.2130    9.1540   -8.5520 Cl  0  0  0  0  0  0  0  0  0  0  0  0
    4.3590    7.6080   -5.3570 C   0  0  0  0  0  0  0  0  0  0  0  0
    4.4270    7.6570   -3.9540 C   0  0  0  0  0  0  0  0  0  0  0  0
    4.9300    8.8630   -3.4310 C   0  0  0  0  0  0  0  0  0  0  0  0
    5.4370    7.7150   -0.7050 H   0  0  0  0  0  0  0  0  0  0  0  0
    4.2590    8.7850   -0.1890 H   0  0  0  0  0  0  0  0  0  0  0  0
    5.9530   11.1770   -1.2450 H   0  0  0  0  0  0  0  0  0  0  0  0
    6.1570   11.9720   -3.7970 H   0  0  0  0  0  0  0  0  0  0  0  0
    5.5411   10.7200   -6.3263 H   0  0  0  0  0  0  0  0  0  0  0  0
    2.6300    7.8920   -7.8590 H   0  0  0  0  0  0  0  0  0  0  0  0
    2.7957    8.2458  -11.5611 H   0  0  0  0  0  0  0  0  0  0  0  0
    1.0055    6.9611   -9.5283 H   0  0  0  0  0  0  0  0  0  0  0  0
    1.3075    8.7613   -9.5015 H   0  0  0  0  0  0  0  0  0  0  0  0
   -0.6629    9.7594  -10.2387 H   0  0  0  0  0  0  0  0  0  0  0  0
   -2.3870   10.0574  -12.0132 H   0  0  0  0  0  0  0  0  0  0  0  0
   -2.4275    8.5363  -13.9866 H   0  0  0  0  0  0  0  0  0  0  0  0
   -0.7340    6.7168  -14.1935 H   0  0  0  0  0  0  0  0  0  0  0  0
    0.9865    6.4048  -12.4191 H   0  0  0  0  0  0  0  0  0  0  0  0
    2.7440    5.5730  -10.1910 H   0  0  0  0  0  0  0  0  0  0  0  0
    3.2757    3.9477  -13.0328 H   0  0  0  0  0  0  0  0  0  0  0  0
    2.5226    4.2332  -10.4382 H   0  0  0  0  0  0  0  0  0  0  0  0
    2.7445    2.6512  -11.3390 H   0  0  0  0  0  0  0  0  0  0  0  0
    3.7615    2.9668   -8.9365 H   0  0  0  0  0  0  0  0  0  0  0  0
    4.6785    2.1284  -10.2588 H   0  0  0  0  0  0  0  0  0  0  0  0
    4.9644    5.0513   -9.5035 H   0  0  0  0  0  0  0  0  0  0  0  0
    6.2735    2.6922   -8.3527 H   0  0  0  0  0  0  0  0  0  0  0  0
    7.3640    4.0508   -8.8751 H   0  0  0  0  0  0  0  0  0  0  0  0
    6.4100    4.1270   -6.5170 H   0  0  0  0  0  0  0  0  0  0  0  0
    6.2880    5.5180   -7.4190 H   0  0  0  0  0  0  0  0  0  0  0  0
    4.9740    4.5370   -7.2180 H   0  0  0  0  0  0  0  0  0  0  0  0
    6.5228    5.2940  -11.1544 H   0  0  0  0  0  0  0  0  0  0  0  0
    6.9899    3.5251  -11.0906 H   0  0  0  0  0  0  0  0  0  0  0  0
    5.7047    4.5550  -13.1743 H   0  0  0  0  0  0  0  0  0  0  0  0
    5.3791    2.8794  -12.5247 H   0  0  0  0  0  0  0  0  0  0  0  0
    3.9774    6.6902   -5.8282 H   0  0  0  0  0  0  0  0  0  0  0  0
    4.1119    6.8189   -3.3151 H   0  0  0  0  0  0  0  0  0  0  0  0
  1  2  1  0
  2  3  2  0
  3  4  1  0
  4  5  1  0
  5  6  2  0
  6  7  1  0
  7  8  1  0
  8  9  1  0
  9 10  1  0
 10 11  1  0
 11 12  1  0
 12 13  1  0
 13 14  2  0
 14 15  1  0
 15 16  2  0
 16 17  1  0
 17 18  2  0
 11 19  1  0
 19 20  1  0
 20 21  2  0
 20 22  1  0
 22 23  1  0
 23 24  1  0
 24 25  1  0
 25 26  1  0
 26 27  1  0
 25 28  1  0
 28 29  1  0
 10 30  2  0
 30 31  1  0
 31 32  1  0
  7 33  2  0
 33 34  1  0
 34 35  2  0
 35  2  1  0
 35  5  1  0
 31  8  2  0
 18 13  1  0
 29 22  1  0
  1 36  1  0
  1 37  1  0
  3 38  1  0
  4 39  1  0
  6 40  1  0
  9 41  1  0
 11 42  1  6
 12 43  1  0
 12 44  1  0
 14 45  1  0
 15 46  1  0
 16 47  1  0
 17 48  1  0
 18 49  1  0
 19 50  1  0
 22 51  1  1
 23 52  1  0
 23 53  1  0
 24 54  1  0
 24 55  1  0
 25 56  1  6
 26 57  1  0
 26 58  1  0
 27 59  1  0
 27 60  1  0
 27 61  1  0
 28 62  1  0
 28 63  1  0
 29 64  1  0
 29 65  1  0
 33 66  1  0
 34 67  1  0
M  CHG  2   3   1  27   1
M  END
>  <meeko>  (9) 
{"is_sidechain": [false], "free_energy": -8.315, "intermolecular_energy": -12.616, "internal_energy": -1.363}

$$$$
