1qf1_ligand
     RDKit          3D

 53 53  0  0  0  0  0  0  0  0999 V2000
    2.9200   -5.6850   10.4920 C   0  0  0  0  0  0  0  0  0  0  0  0
    3.2350   -4.6760    9.3980 C   0  0  0  0  0  0  0  0  0  0  0  0
    4.7320   -4.5230    9.1160 C   0  0  0  0  0  0  0  0  0  0  0  0
    5.1720   -3.0630    8.9650 C   0  0  0  0  0  0  0  0  0  0  0  0
    6.2060   -2.8510    7.8510 C   0  0  0  0  0  0  0  0  0  0  0  0
    6.8710   -1.4690    7.7930 C   0  0  2  0  0  0  0  0  0  0  0  0
    7.3600   -0.9890    6.0960 S   0  0  0  0  0  0  0  0  0  0  0  0
    8.1070   -1.4750    8.7030 C   0  0  0  0  0  0  0  0  0  0  0  0
    9.2060   -1.8840    8.3350 O   0  0  0  0  0  0  0  0  0  0  0  0
    7.8530   -1.0090    9.9770 N   0  0  0  0  0  0  0  0  0  0  0  0
    8.8080   -1.2360   11.0720 C   0  0  1  0  0  0  0  0  0  0  0  0
    8.8280   -0.0570   12.0560 C   0  0  0  0  0  0  0  0  0  0  0  0
    9.9520    0.9170   11.7820 C   0  0  0  0  0  0  0  0  0  0  0  0
   10.3610    1.8330   12.7580 C   0  0  0  0  0  0  0  0  0  0  0  0
   11.3870    2.7410   12.4900 C   0  0  0  0  0  0  0  0  0  0  0  0
   12.0110    2.7420   11.2440 C   0  0  0  0  0  0  0  0  0  0  0  0
   11.6080    1.8370   10.2640 C   0  0  0  0  0  0  0  0  0  0  0  0
   10.5820    0.9290   10.5290 C   0  0  0  0  0  0  0  0  0  0  0  0
    8.3150   -2.4970   11.8070 C   0  0  0  0  0  0  0  0  0  0  0  0
    8.5790   -3.6280   11.3930 O   0  0  0  0  0  0  0  0  0  0  0  0
    7.5440   -2.2440   12.9070 N   0  0  0  0  0  0  0  0  0  0  0  0
    6.7620   -3.2580   13.6390 C   0  0  1  0  0  0  0  0  0  0  0  0
    6.2470   -2.6950   14.9540 C   0  0  0  0  0  0  0  0  0  0  0  0
    5.5590   -3.7600   12.7710 C   0  0  0  0  0  0  0  0  0  0  0  0
    5.6610   -4.9830   12.4270 O   0  0  0  0  0  0  0  0  0  0  0  0
    4.6460   -2.9250   12.5320 O   0  0  0  0  0  0  0  0  0  0  0  0
    3.0663   -5.2163   11.4763 H   0  0  0  0  0  0  0  0  0  0  0  0
    1.8756   -6.0165   10.3954 H   0  0  0  0  0  0  0  0  0  0  0  0
    3.5903   -6.5518   10.3954 H   0  0  0  0  0  0  0  0  0  0  0  0
    2.7384   -5.0012    8.4719 H   0  0  0  0  0  0  0  0  0  0  0  0
    2.8716   -3.6983    9.7474 H   0  0  0  0  0  0  0  0  0  0  0  0
    5.2923   -4.9726    9.9490 H   0  0  0  0  0  0  0  0  0  0  0  0
    4.9376   -5.0268    8.1600 H   0  0  0  0  0  0  0  0  0  0  0  0
    4.2851   -2.4530    8.7384 H   0  0  0  0  0  0  0  0  0  0  0  0
    5.6486   -2.7676    9.9114 H   0  0  0  0  0  0  0  0  0  0  0  0
    7.0007   -3.5997    7.9847 H   0  0  0  0  0  0  0  0  0  0  0  0
    5.6455   -2.9460    6.9093 H   0  0  0  0  0  0  0  0  0  0  0  0
    6.1335   -0.7281    8.1352 H   0  0  0  0  0  0  0  0  0  0  0  0
    7.0920    0.3200    6.2580 H   0  0  0  0  0  0  0  0  0  0  0  0
    6.8870   -1.0540   10.2850 H   0  0  0  0  0  0  0  0  0  0  0  0
    9.8276   -1.3464   10.6742 H   0  0  0  0  0  0  0  0  0  0  0  0
    7.8712    0.4803   11.9800 H   0  0  0  0  0  0  0  0  0  0  0  0
    8.9859   -0.4695   13.0634 H   0  0  0  0  0  0  0  0  0  0  0  0
    9.8708    1.8375   13.7427 H   0  0  0  0  0  0  0  0  0  0  0  0
   11.7032    3.4565   13.2633 H   0  0  0  0  0  0  0  0  0  0  0  0
   12.8208    3.4564   11.0343 H   0  0  0  0  0  0  0  0  0  0  0  0
   12.0994    1.8384    9.2799 H   0  0  0  0  0  0  0  0  0  0  0  0
   10.2656    0.2188    9.7509 H   0  0  0  0  0  0  0  0  0  0  0  0
    7.1780   -1.3090   13.0960 H   0  0  0  0  0  0  0  0  0  0  0  0
    7.4268   -4.1079   13.8529 H   0  0  0  0  0  0  0  0  0  0  0  0
    6.7282   -3.2211   15.7916 H   0  0  0  0  0  0  0  0  0  0  0  0
    6.4828   -1.6221   15.0109 H   0  0  0  0  0  0  0  0  0  0  0  0
    5.1574   -2.8345   15.0109 H   0  0  0  0  0  0  0  0  0  0  0  0
  1  2  1  0
  2  3  1  0
  3  4  1  0
  4  5  1  0
  5  6  1  0
  6  7  1  0
  6  8  1  0
  8  9  2  0
  8 10  1  0
 10 11  1  0
 11 12  1  0
 12 13  1  0
 13 14  2  0
 14 15  1  0
 15 16  2  0
 16 17  1  0
 17 18  2  0
 11 19  1  0
 19 20  2  0
 19 21  1  0
 21 22  1  0
 22 23  1  0
 22 24  1  0
 24 25  2  0
 24 26  1  0
 18 13  1  0
  1 27  1  0
  1 28  1  0
  1 29  1  0
  2 30  1  0
  2 31  1  0
  3 32  1  0
  3 33  1  0
  4 34  1  0
  4 35  1  0
  5 36  1  0
  5 37  1  0
  6 38  1  1
  7 39  1  0
 10 40  1  0
 11 41  1  6
 12 42  1  0
 12 43  1  0
 14 44  1  0
 15 45  1  0
 16 46  1  0
 17 47  1  0
 18 48  1  0
 21 49  1  0
 22 50  1  1
 23 51  1  0
 23 52  1  0
 23 53  1  0
M  CHG  1  26  -1
M  END
>  <meeko>  (1) 
{"is_sidechain": [false], "free_energy": -6.438, "intermolecular_energy": -10.766, "internal_energy": -1.32}

$$$$
1qf1_ligand
     RDKit          3D

 53 53  0  0  0  0  0  0  0  0999 V2000
   11.5150    1.6790    9.6330 C   0  0  0  0  0  0  0  0  0  0  0  0
   11.3710    2.2560   11.0330 C   0  0  0  0  0  0  0  0  0  0  0  0
   10.5110    1.3980   11.9660 C   0  0  0  0  0  0  0  0  0  0  0  0
   10.0250    0.1000   11.3160 C   0  0  0  0  0  0  0  0  0  0  0  0
    8.5310   -0.1710   11.5400 C   0  0  0  0  0  0  0  0  0  0  0  0
    8.1810   -1.3550   12.4530 C   0  0  2  0  0  0  0  0  0  0  0  0
    9.5780   -1.8610   13.5220 S   0  0  0  0  0  0  0  0  0  0  0  0
    7.7420   -2.5400   11.5820 C   0  0  0  0  0  0  0  0  0  0  0  0
    8.0440   -3.7030   11.8350 O   0  0  0  0  0  0  0  0  0  0  0  0
    7.0080   -2.1650   10.4750 N   0  0  0  0  0  0  0  0  0  0  0  0
    6.7770   -3.1010    9.3660 C   0  0  1  0  0  0  0  0  0  0  0  0
    5.2800   -3.2460    9.0530 C   0  0  0  0  0  0  0  0  0  0  0  0
    4.6560   -4.4520    9.7180 C   0  0  0  0  0  0  0  0  0  0  0  0
    5.4500   -5.4030   10.3690 C   0  0  0  0  0  0  0  0  0  0  0  0
    4.8670   -6.5240   10.9640 C   0  0  0  0  0  0  0  0  0  0  0  0
    3.4860   -6.7030   10.9130 C   0  0  0  0  0  0  0  0  0  0  0  0
    2.6880   -5.7630   10.2630 C   0  0  0  0  0  0  0  0  0  0  0  0
    3.2680   -4.6440    9.6660 C   0  0  0  0  0  0  0  0  0  0  0  0
    7.4890   -2.4910    8.1430 C   0  0  0  0  0  0  0  0  0  0  0  0
    6.9280   -2.4020    7.0490 O   0  0  0  0  0  0  0  0  0  0  0  0
    8.7810   -2.1100    8.3760 N   0  0  0  0  0  0  0  0  0  0  0  0
    9.7460   -1.7240    7.3290 C   0  0  1  0  0  0  0  0  0  0  0  0
    9.6650   -0.2320    7.0460 C   0  0  0  0  0  0  0  0  0  0  0  0
   11.2050   -2.1030    7.7550 C   0  0  0  0  0  0  0  0  0  0  0  0
   12.0860   -1.7500    6.9060 O   0  0  0  0  0  0  0  0  0  0  0  0
   11.3360   -2.6840    8.8660 O   0  0  0  0  0  0  0  0  0  0  0  0
   11.7808    0.6138    9.7010 H   0  0  0  0  0  0  0  0  0  0  0  0
   10.5627    1.7855    9.0928 H   0  0  0  0  0  0  0  0  0  0  0  0
   12.3056    2.2205    9.0928 H   0  0  0  0  0  0  0  0  0  0  0  0
   12.3740    2.3511   11.4745 H   0  0  0  0  0  0  0  0  0  0  0  0
   10.8644    3.2270   10.9305 H   0  0  0  0  0  0  0  0  0  0  0  0
   11.1075    1.1420   12.8541 H   0  0  0  0  0  0  0  0  0  0  0  0
    9.6191    1.9884   12.2228 H   0  0  0  0  0  0  0  0  0  0  0  0
   10.2098    0.1616   10.2334 H   0  0  0  0  0  0  0  0  0  0  0  0
   10.5791   -0.7260   11.7858 H   0  0  0  0  0  0  0  0  0  0  0  0
    8.0893    0.7343   11.9819 H   0  0  0  0  0  0  0  0  0  0  0  0
    8.1308   -0.4369   10.5505 H   0  0  0  0  0  0  0  0  0  0  0  0
    7.3672   -1.0347   13.1202 H   0  0  0  0  0  0  0  0  0  0  0  0
    9.3540   -3.1820   13.3970 H   0  0  0  0  0  0  0  0  0  0  0  0
    7.1300   -1.2070   10.1600 H   0  0  0  0  0  0  0  0  0  0  0  0
    7.1555   -4.1009    9.6246 H   0  0  0  0  0  0  0  0  0  0  0  0
    4.7588   -2.3428    9.4030 H   0  0  0  0  0  0  0  0  0  0  0  0
    5.1806   -3.3792    7.9656 H   0  0  0  0  0  0  0  0  0  0  0  0
    6.5407   -5.2666   10.4123 H   0  0  0  0  0  0  0  0  0  0  0  0
    5.4987   -7.2665   11.4735 H   0  0  0  0  0  0  0  0  0  0  0  0
    3.0266   -7.5842   11.3847 H   0  0  0  0  0  0  0  0  0  0  0  0
    1.5979   -5.9042   10.2208 H   0  0  0  0  0  0  0  0  0  0  0  0
    2.6330   -3.9078    9.1514 H   0  0  0  0  0  0  0  0  0  0  0  0
    9.2730   -2.3880    9.2260 H   0  0  0  0  0  0  0  0  0  0  0  0
    9.4878   -2.2743    6.4122 H   0  0  0  0  0  0  0  0  0  0  0  0
    9.6350    0.3204    7.9967 H   0  0  0  0  0  0  0  0  0  0  0  0
   10.5475    0.0801    6.4683 H   0  0  0  0  0  0  0  0  0  0  0  0
    8.7539   -0.0173    6.4683 H   0  0  0  0  0  0  0  0  0  0  0  0
  1  2  1  0
  2  3  1  0
  3  4  1  0
  4  5  1  0
  5  6  1  0
  6  7  1  0
  6  8  1  0
  8  9  2  0
  8 10  1  0
 10 11  1  0
 11 12  1  0
 12 13  1  0
 13 14  2  0
 14 15  1  0
 15 16  2  0
 16 17  1  0
 17 18  2  0
 11 19  1  0
 19 20  2  0
 19 21  1  0
 21 22  1  0
 22 23  1  0
 22 24  1  0
 24 25  2  0
 24 26  1  0
 18 13  1  0
  1 27  1  0
  1 28  1  0
  1 29  1  0
  2 30  1  0
  2 31  1  0
  3 32  1  0
  3 33  1  0
  4 34  1  0
  4 35  1  0
  5 36  1  0
  5 37  1  0
  6 38  1  1
  7 39  1  0
 10 40  1  0
 11 41  1  1
 12 42  1  0
 12 43  1  0
 14 44  1  0
 15 45  1  0
 16 46  1  0
 17 47  1  0
 18 48  1  0
 21 49  1  0
 22 50  1  6
 23 51  1  0
 23 52  1  0
 23 53  1  0
M  CHG  1  26  -1
M  END
>  <meeko>  (2) 
{"is_sidechain": [false], "free_energy": -6.406, "intermolecular_energy": -10.719, "internal_energy": -1.314}

$$$$
1qf1_ligand
     RDKit          3D

 53 53  0  0  0  0  0  0  0  0999 V2000
    3.2270   -4.8890    9.7750 C   0  0  0  0  0  0  0  0  0  0  0  0
    4.6330   -5.4300    9.9880 C   0  0  0  0  0  0  0  0  0  0  0  0
    5.7310   -4.3820    9.7900 C   0  0  0  0  0  0  0  0  0  0  0  0
    5.2870   -3.1950    8.9310 C   0  0  0  0  0  0  0  0  0  0  0  0
    6.2360   -2.9030    7.7600 C   0  0  0  0  0  0  0  0  0  0  0  0
    6.9050   -1.5210    7.7530 C   0  0  2  0  0  0  0  0  0  0  0  0
    7.3760   -0.9700    6.0730 S   0  0  0  0  0  0  0  0  0  0  0  0
    8.1510   -1.5690    8.6480 C   0  0  0  0  0  0  0  0  0  0  0  0
    9.2260   -2.0310    8.2720 O   0  0  0  0  0  0  0  0  0  0  0  0
    7.9340   -1.0760    9.9180 N   0  0  0  0  0  0  0  0  0  0  0  0
    8.8920   -1.3300   11.0040 C   0  0  1  0  0  0  0  0  0  0  0  0
    8.8880   -0.1930   12.0370 C   0  0  0  0  0  0  0  0  0  0  0  0
    9.9430    0.8550   11.7590 C   0  0  0  0  0  0  0  0  0  0  0  0
   10.6000    0.9020   10.5240 C   0  0  0  0  0  0  0  0  0  0  0  0
   11.5860    1.8610   10.2830 C   0  0  0  0  0  0  0  0  0  0  0  0
   11.9230    2.7800   11.2750 C   0  0  0  0  0  0  0  0  0  0  0  0
   11.2780    2.7380   12.5090 C   0  0  0  0  0  0  0  0  0  0  0  0
   10.2940    1.7800   12.7530 C   0  0  0  0  0  0  0  0  0  0  0  0
    8.4230   -2.6300   11.6860 C   0  0  0  0  0  0  0  0  0  0  0  0
    8.8650   -3.7290   11.3470 O   0  0  0  0  0  0  0  0  0  0  0  0
    7.4660   -2.4500   12.6450 N   0  0  0  0  0  0  0  0  0  0  0  0
    6.6880   -3.5360   13.2720 C   0  0  1  0  0  0  0  0  0  0  0  0
    7.3950   -4.0570   14.5130 C   0  0  0  0  0  0  0  0  0  0  0  0
    5.2520   -3.0380   13.6500 C   0  0  0  0  0  0  0  0  0  0  0  0
    5.0910   -2.8670   14.9020 O   0  0  0  0  0  0  0  0  0  0  0  0
    4.4470   -2.8550   12.6970 O   0  0  0  0  0  0  0  0  0  0  0  0
    2.7527   -4.7065   10.7505 H   0  0  0  0  0  0  0  0  0  0  0  0
    3.2784   -3.9465    9.2102 H   0  0  0  0  0  0  0  0  0  0  0  0
    2.6334   -5.6229    9.2102 H   0  0  0  0  0  0  0  0  0  0  0  0
    4.7041   -5.8181   11.0148 H   0  0  0  0  0  0  0  0  0  0  0  0
    4.7948   -6.2125    9.2320 H   0  0  0  0  0  0  0  0  0  0  0  0
    6.0352   -4.0042   10.7773 H   0  0  0  0  0  0  0  0  0  0  0  0
    6.5603   -4.8747    9.2614 H   0  0  0  0  0  0  0  0  0  0  0  0
    4.2881   -3.4125    8.5248 H   0  0  0  0  0  0  0  0  0  0  0  0
    5.2869   -2.3063    9.5792 H   0  0  0  0  0  0  0  0  0  0  0  0
    7.0331   -3.6608    7.7780 H   0  0  0  0  0  0  0  0  0  0  0  0
    5.6053   -2.9274    6.8591 H   0  0  0  0  0  0  0  0  0  0  0  0
    6.1736   -0.7934    8.1346 H   0  0  0  0  0  0  0  0  0  0  0  0
    7.9890    0.1560    6.4810 H   0  0  0  0  0  0  0  0  0  0  0  0
    6.9710   -1.0740   10.2390 H   0  0  0  0  0  0  0  0  0  0  0  0
    9.9136   -1.4039   10.6029 H   0  0  0  0  0  0  0  0  0  0  0  0
    7.9001    0.2906   12.0236 H   0  0  0  0  0  0  0  0  0  0  0  0
    9.1119   -0.6363   13.0185 H   0  0  0  0  0  0  0  0  0  0  0  0
   10.3378    0.1786    9.7379 H   0  0  0  0  0  0  0  0  0  0  0  0
   12.0971    1.8911    9.3094 H   0  0  0  0  0  0  0  0  0  0  0  0
   12.6973    3.5376   11.0838 H   0  0  0  0  0  0  0  0  0  0  0  0
   11.5453    3.4620   13.2928 H   0  0  0  0  0  0  0  0  0  0  0  0
    9.7905    1.7498   13.7305 H   0  0  0  0  0  0  0  0  0  0  0  0
    6.9790   -1.5580   12.7510 H   0  0  0  0  0  0  0  0  0  0  0  0
    6.6012   -4.3552   12.5431 H   0  0  0  0  0  0  0  0  0  0  0  0
    6.8840   -3.6804   15.4114 H   0  0  0  0  0  0  0  0  0  0  0  0
    7.3734   -5.1568   14.5128 H   0  0  0  0  0  0  0  0  0  0  0  0
    8.4391   -3.7107   14.5128 H   0  0  0  0  0  0  0  0  0  0  0  0
  1  2  1  0
  2  3  1  0
  3  4  1  0
  4  5  1  0
  5  6  1  0
  6  7  1  0
  6  8  1  0
  8  9  2  0
  8 10  1  0
 10 11  1  0
 11 12  1  0
 12 13  1  0
 13 14  2  0
 14 15  1  0
 15 16  2  0
 16 17  1  0
 17 18  2  0
 11 19  1  0
 19 20  2  0
 19 21  1  0
 21 22  1  0
 22 23  1  0
 22 24  1  0
 24 25  2  0
 24 26  1  0
 18 13  1  0
  1 27  1  0
  1 28  1  0
  1 29  1  0
  2 30  1  0
  2 31  1  0
  3 32  1  0
  3 33  1  0
  4 34  1  0
  4 35  1  0
  5 36  1  0
  5 37  1  0
  6 38  1  1
  7 39  1  0
 10 40  1  0
 11 41  1  6
 12 42  1  0
 12 43  1  0
 14 44  1  0
 15 45  1  0
 16 46  1  0
 17 47  1  0
 18 48  1  0
 21 49  1  0
 22 50  1  6
 23 51  1  0
 23 52  1  0
 23 53  1  0
M  CHG  1  26  -1
M  END
>  <meeko>  (3) 
{"is_sidechain": [false], "free_energy": -6.382, "intermolecular_energy": -10.611, "internal_energy": -1.382}

$$$$
1qf1_ligand
     RDKit          3D

 53 53  0  0  0  0  0  0  0  0999 V2000
    7.1890    1.1220    0.3900 C   0  0  0  0  0  0  0  0  0  0  0  0
    8.5410    0.7270    0.9670 C   0  0  0  0  0  0  0  0  0  0  0  0
    8.5420    0.5890    2.4920 C   0  0  0  0  0  0  0  0  0  0  0  0
    8.5590   -0.8660    2.9680 C   0  0  0  0  0  0  0  0  0  0  0  0
    7.7810   -1.0900    4.2720 C   0  0  0  0  0  0  0  0  0  0  0  0
    8.3280   -0.3860    5.5220 C   0  0  2  0  0  0  0  0  0  0  0  0
   10.1420   -0.5620    5.6970 S   0  0  0  0  0  0  0  0  0  0  0  0
    7.6320   -0.9650    6.7610 C   0  0  0  0  0  0  0  0  0  0  0  0
    6.4110   -0.9720    6.9000 O   0  0  0  0  0  0  0  0  0  0  0  0
    8.5120   -1.4430    7.7110 N   0  0  0  0  0  0  0  0  0  0  0  0
    8.0650   -1.7330    9.0810 C   0  0  1  0  0  0  0  0  0  0  0  0
    8.1590   -3.2330    9.4000 C   0  0  0  0  0  0  0  0  0  0  0  0
    6.8130   -3.8550    9.6960 C   0  0  0  0  0  0  0  0  0  0  0  0
    5.7080   -3.5970    8.8760 C   0  0  0  0  0  0  0  0  0  0  0  0
    4.4640   -4.1610    9.1680 C   0  0  0  0  0  0  0  0  0  0  0  0
    4.3150   -4.9860   10.2810 C   0  0  0  0  0  0  0  0  0  0  0  0
    5.4080   -5.2460   11.1050 C   0  0  0  0  0  0  0  0  0  0  0  0
    6.6520   -4.6820   10.8160 C   0  0  0  0  0  0  0  0  0  0  0  0
    9.0210   -0.9600   10.0100 C   0  0  0  0  0  0  0  0  0  0  0  0
    8.5960   -0.1790   10.8630 O   0  0  0  0  0  0  0  0  0  0  0  0
   10.3470   -1.1900    9.7720 N   0  0  0  0  0  0  0  0  0  0  0  0
   11.4540   -0.4070   10.3530 C   0  0  1  0  0  0  0  0  0  0  0  0
   12.6220   -1.3120   10.7130 C   0  0  0  0  0  0  0  0  0  0  0  0
   11.9320    0.7000    9.3530 C   0  0  0  0  0  0  0  0  0  0  0  0
   12.9140    0.3360    8.6290 O   0  0  0  0  0  0  0  0  0  0  0  0
   11.2960    1.7890    9.3690 O   0  0  0  0  0  0  0  0  0  0  0  0
    6.4860    1.3274    1.2107 H   0  0  0  0  0  0  0  0  0  0  0  0
    7.3039    2.0241   -0.2288 H   0  0  0  0  0  0  0  0  0  0  0  0
    6.8001    0.2999   -0.2288 H   0  0  0  0  0  0  0  0  0  0  0  0
    8.8363   -0.2386    0.5306 H   0  0  0  0  0  0  0  0  0  0  0  0
    9.2458    1.5335    0.7164 H   0  0  0  0  0  0  0  0  0  0  0  0
    9.4340    1.0964    2.8880 H   0  0  0  0  0  0  0  0  0  0  0  0
    7.6098    1.0418    2.8609 H   0  0  0  0  0  0  0  0  0  0  0  0
    8.1128   -1.4948    2.1834 H   0  0  0  0  0  0  0  0  0  0  0  0
    9.6081   -1.1305    3.1663 H   0  0  0  0  0  0  0  0  0  0  0  0
    6.7515   -0.7370    4.1125 H   0  0  0  0  0  0  0  0  0  0  0  0
    7.8657   -2.1665    4.4819 H   0  0  0  0  0  0  0  0  0  0  0  0
    8.1193    0.6891    5.4195 H   0  0  0  0  0  0  0  0  0  0  0  0
   10.1320   -0.5920    7.0420 H   0  0  0  0  0  0  0  0  0  0  0  0
    9.4540   -1.0650    7.6790 H   0  0  0  0  0  0  0  0  0  0  0  0
    7.0135   -1.4371    9.2106 H   0  0  0  0  0  0  0  0  0  0  0  0
    8.6020   -3.7490    8.5354 H   0  0  0  0  0  0  0  0  0  0  0  0
    8.7792   -3.3413   10.3020 H   0  0  0  0  0  0  0  0  0  0  0  0
    5.8202   -2.9461    7.9964 H   0  0  0  0  0  0  0  0  0  0  0  0
    3.6008   -3.9536    8.5185 H   0  0  0  0  0  0  0  0  0  0  0  0
    3.3354   -5.4316   10.5089 H   0  0  0  0  0  0  0  0  0  0  0  0
    5.2906   -5.8964   11.9843 H   0  0  0  0  0  0  0  0  0  0  0  0
    7.5111   -4.8880   11.4714 H   0  0  0  0  0  0  0  0  0  0  0  0
   10.6600   -1.6770    8.9300 H   0  0  0  0  0  0  0  0  0  0  0  0
   11.0824    0.0757   11.2689 H   0  0  0  0  0  0  0  0  0  0  0  0
   12.7095   -1.3798   11.8074 H   0  0  0  0  0  0  0  0  0  0  0  0
   12.4505   -2.3153   10.2960 H   0  0  0  0  0  0  0  0  0  0  0  0
   13.5507   -0.8954   10.2960 H   0  0  0  0  0  0  0  0  0  0  0  0
  1  2  1  0
  2  3  1  0
  3  4  1  0
  4  5  1  0
  5  6  1  0
  6  7  1  0
  6  8  1  0
  8  9  2  0
  8 10  1  0
 10 11  1  0
 11 12  1  0
 12 13  1  0
 13 14  2  0
 14 15  1  0
 15 16  2  0
 16 17  1  0
 17 18  2  0
 11 19  1  0
 19 20  2  0
 19 21  1  0
 21 22  1  0
 22 23  1  0
 22 24  1  0
 24 25  2  0
 24 26  1  0
 18 13  1  0
  1 27  1  0
  1 28  1  0
  1 29  1  0
  2 30  1  0
  2 31  1  0
  3 32  1  0
  3 33  1  0
  4 34  1  0
  4 35  1  0
  5 36  1  0
  5 37  1  0
  6 38  1  6
  7 39  1  0
 10 40  1  0
 11 41  1  6
 12 42  1  0
 12 43  1  0
 14 44  1  0
 15 45  1  0
 16 46  1  0
 17 47  1  0
 18 48  1  0
 21 49  1  0
 22 50  1  1
 23 51  1  0
 23 52  1  0
 23 53  1  0
M  CHG  1  26  -1
M  END
>  <meeko>  (4) 
{"is_sidechain": [false], "free_energy": -6.236, "intermolecular_energy": -10.683, "internal_energy": -1.066}

$$$$
1qf1_ligand
     RDKit          3D

 53 53  0  0  0  0  0  0  0  0999 V2000
   13.3200   -3.4850   -2.7640 C   0  0  0  0  0  0  0  0  0  0  0  0
   12.9670   -2.0220   -2.5450 C   0  0  0  0  0  0  0  0  0  0  0  0
   12.6050   -1.6870   -1.0960 C   0  0  0  0  0  0  0  0  0  0  0  0
   13.7380   -0.9890   -0.3360 C   0  0  0  0  0  0  0  0  0  0  0  0
   13.6920   -1.2280    1.1790 C   0  0  0  0  0  0  0  0  0  0  0  0
   13.4790    0.0120    2.0590 C   0  0  2  0  0  0  0  0  0  0  0  0
   13.7020   -0.3380    3.8420 S   0  0  0  0  0  0  0  0  0  0  0  0
   12.0660    0.5580    1.8130 C   0  0  0  0  0  0  0  0  0  0  0  0
   11.8520    1.6320    1.2560 O   0  0  0  0  0  0  0  0  0  0  0  0
   11.0690   -0.2580    2.3080 N   0  0  0  0  0  0  0  0  0  0  0  0
    9.6920    0.2340    2.4590 C   0  0  1  0  0  0  0  0  0  0  0  0
    8.8100   -0.1850    1.2740 C   0  0  0  0  0  0  0  0  0  0  0  0
    8.3680    0.9890    0.4290 C   0  0  0  0  0  0  0  0  0  0  0  0
    7.3950    0.8300   -0.5650 C   0  0  0  0  0  0  0  0  0  0  0  0
    7.0060    1.9150   -1.3540 C   0  0  0  0  0  0  0  0  0  0  0  0
    7.5880    3.1660   -1.1560 C   0  0  0  0  0  0  0  0  0  0  0  0
    8.5600    3.3330   -0.1720 C   0  0  0  0  0  0  0  0  0  0  0  0
    8.9510    2.2500    0.6160 C   0  0  0  0  0  0  0  0  0  0  0  0
    9.1500   -0.4190    3.7450 C   0  0  0  0  0  0  0  0  0  0  0  0
    8.2810   -1.2920    3.7060 O   0  0  0  0  0  0  0  0  0  0  0  0
    9.6820    0.0830    4.9000 N   0  0  0  0  0  0  0  0  0  0  0  0
    9.1690   -0.1970    6.2550 C   0  0  1  0  0  0  0  0  0  0  0  0
    7.6900   -0.5490    6.2080 C   0  0  0  0  0  0  0  0  0  0  0  0
    9.9710   -1.3670    6.9190 C   0  0  0  0  0  0  0  0  0  0  0  0
    9.3060   -1.9940    7.8060 O   0  0  0  0  0  0  0  0  0  0  0  0
   11.1440   -1.5580    6.4990 O   0  0  0  0  0  0  0  0  0  0  0  0
   13.4401   -3.9829   -1.7905 H   0  0  0  0  0  0  0  0  0  0  0  0
   12.5145   -3.9758   -3.3299 H   0  0  0  0  0  0  0  0  0  0  0  0
   14.2607   -3.5545   -3.3299 H   0  0  0  0  0  0  0  0  0  0  0  0
   13.8318   -1.4084   -2.8377 H   0  0  0  0  0  0  0  0  0  0  0  0
   12.0769   -1.8110   -3.1559 H   0  0  0  0  0  0  0  0  0  0  0  0
   11.7266   -1.0249   -1.0993 H   0  0  0  0  0  0  0  0  0  0  0  0
   12.4039   -2.6381   -0.5813 H   0  0  0  0  0  0  0  0  0  0  0  0
   14.6983   -1.3644   -0.7194 H   0  0  0  0  0  0  0  0  0  0  0  0
   13.6203    0.0926   -0.4982 H   0  0  0  0  0  0  0  0  0  0  0  0
   12.8686   -1.9284    1.3826 H   0  0  0  0  0  0  0  0  0  0  0  0
   14.6893   -1.6080    1.4455 H   0  0  0  0  0  0  0  0  0  0  0  0
   14.2414    0.7546    1.7812 H   0  0  0  0  0  0  0  0  0  0  0  0
   13.4930   -1.6630    3.7320 H   0  0  0  0  0  0  0  0  0  0  0  0
   11.3400   -0.8970    3.0490 H   0  0  0  0  0  0  0  0  0  0  0  0
    9.6808    1.3331    2.5014 H   0  0  0  0  0  0  0  0  0  0  0  0
    9.3802   -0.8797    0.6398 H   0  0  0  0  0  0  0  0  0  0  0  0
    7.9053   -0.6569    1.6848 H   0  0  0  0  0  0  0  0  0  0  0  0
    6.9339   -0.1557   -0.7257 H   0  0  0  0  0  0  0  0  0  0  0  0
    6.2399    1.7821   -2.1321 H   0  0  0  0  0  0  0  0  0  0  0  0
    7.2801    4.0207   -1.7762 H   0  0  0  0  0  0  0  0  0  0  0  0
    9.0198    4.3200   -0.0161 H   0  0  0  0  0  0  0  0  0  0  0  0
    9.7217    2.3866    1.3889 H   0  0  0  0  0  0  0  0  0  0  0  0
   10.2380    0.9390    4.9010 H   0  0  0  0  0  0  0  0  0  0  0  0
    9.2989    0.7122    6.8604 H   0  0  0  0  0  0  0  0  0  0  0  0
    7.3023   -0.6413    7.2333 H   0  0  0  0  0  0  0  0  0  0  0  0
    7.1411    0.2436    5.6784 H   0  0  0  0  0  0  0  0  0  0  0  0
    7.5570   -1.5039    5.6784 H   0  0  0  0  0  0  0  0  0  0  0  0
  1  2  1  0
  2  3  1  0
  3  4  1  0
  4  5  1  0
  5  6  1  0
  6  7  1  0
  6  8  1  0
  8  9  2  0
  8 10  1  0
 10 11  1  0
 11 12  1  0
 12 13  1  0
 13 14  2  0
 14 15  1  0
 15 16  2  0
 16 17  1  0
 17 18  2  0
 11 19  1  0
 19 20  2  0
 19 21  1  0
 21 22  1  0
 22 23  1  0
 22 24  1  0
 24 25  2  0
 24 26  1  0
 18 13  1  0
  1 27  1  0
  1 28  1  0
  1 29  1  0
  2 30  1  0
  2 31  1  0
  3 32  1  0
  3 33  1  0
  4 34  1  0
  4 35  1  0
  5 36  1  0
  5 37  1  0
  6 38  1  6
  7 39  1  0
 10 40  1  0
 11 41  1  1
 12 42  1  0
 12 43  1  0
 14 44  1  0
 15 45  1  0
 16 46  1  0
 17 47  1  0
 18 48  1  0
 21 49  1  0
 22 50  1  1
 23 51  1  0
 23 52  1  0
 23 53  1  0
M  CHG  1  26  -1
M  END
>  <meeko>  (5) 
{"is_sidechain": [false], "free_energy": -6.156, "intermolecular_energy": -11.249, "internal_energy": -0.364}

$$$$
1qf1_ligand
     RDKit          3D

 53 53  0  0  0  0  0  0  0  0999 V2000
   11.4760    2.1350   10.7340 C   0  0  0  0  0  0  0  0  0  0  0  0
   11.3340    2.7410   12.1220 C   0  0  0  0  0  0  0  0  0  0  0  0
   10.3970    1.9560   13.0440 C   0  0  0  0  0  0  0  0  0  0  0  0
    9.9630    0.6090   12.4590 C   0  0  0  0  0  0  0  0  0  0  0  0
    8.4590    0.3390   12.6040 C   0  0  0  0  0  0  0  0  0  0  0  0
    8.0650   -1.0000   13.2450 C   0  0  2  0  0  0  0  0  0  0  0  0
    9.0680   -1.3990   14.7230 S   0  0  0  0  0  0  0  0  0  0  0  0
    8.2200   -2.1140   12.2010 C   0  0  0  0  0  0  0  0  0  0  0  0
    8.7850   -3.1790   12.4380 O   0  0  0  0  0  0  0  0  0  0  0  0
    7.6930   -1.7870   10.9680 N   0  0  0  0  0  0  0  0  0  0  0  0
    8.0220   -2.5720    9.7700 C   0  0  1  0  0  0  0  0  0  0  0  0
    6.7760   -2.8450    8.9140 C   0  0  0  0  0  0  0  0  0  0  0  0
    5.8420   -3.8550    9.5420 C   0  0  0  0  0  0  0  0  0  0  0  0
    6.3170   -4.7910   10.4680 C   0  0  0  0  0  0  0  0  0  0  0  0
    5.4520   -5.7330   11.0290 C   0  0  0  0  0  0  0  0  0  0  0  0
    4.1060   -5.7470   10.6670 C   0  0  0  0  0  0  0  0  0  0  0  0
    3.6250   -4.8210    9.7430 C   0  0  0  0  0  0  0  0  0  0  0  0
    4.4880   -3.8810    9.1810 C   0  0  0  0  0  0  0  0  0  0  0  0
    9.0110   -1.7120    8.9600 C   0  0  0  0  0  0  0  0  0  0  0  0
    9.9140   -1.0800    9.5100 O   0  0  0  0  0  0  0  0  0  0  0  0
    8.7670   -1.6880    7.6150 N   0  0  0  0  0  0  0  0  0  0  0  0
    9.4100   -0.7670    6.6590 C   0  0  1  0  0  0  0  0  0  0  0  0
   10.7790   -1.2860    6.2490 C   0  0  0  0  0  0  0  0  0  0  0  0
    8.5140   -0.5760    5.3890 C   0  0  0  0  0  0  0  0  0  0  0  0
    9.1810   -0.3110    4.3360 O   0  0  0  0  0  0  0  0  0  0  0  0
    7.2720   -0.7180    5.5460 O   0  0  0  0  0  0  0  0  0  0  0  0
   11.7261    1.0676   10.8238 H   0  0  0  0  0  0  0  0  0  0  0  0
   10.5278    2.2447   10.1873 H   0  0  0  0  0  0  0  0  0  0  0  0
   12.2767    2.6545   10.1873 H   0  0  0  0  0  0  0  0  0  0  0  0
   12.3296    2.7776   12.5884 H   0  0  0  0  0  0  0  0  0  0  0  0
   10.8939    3.7408   11.9925 H   0  0  0  0  0  0  0  0  0  0  0  0
   10.9165    1.7724   13.9960 H   0  0  0  0  0  0  0  0  0  0  0  0
    9.4886    2.5615   13.1786 H   0  0  0  0  0  0  0  0  0  0  0  0
   10.2185    0.5946   11.3892 H   0  0  0  0  0  0  0  0  0  0  0  0
   10.4900   -0.1752   13.0223 H   0  0  0  0  0  0  0  0  0  0  0  0
    8.0323    1.1438   13.2206 H   0  0  0  0  0  0  0  0  0  0  0  0
    8.0688    0.2974   11.5764 H   0  0  0  0  0  0  0  0  0  0  0  0
    7.0204   -0.9168   13.5796 H   0  0  0  0  0  0  0  0  0  0  0  0
    9.8000   -0.2710   14.6820 H   0  0  0  0  0  0  0  0  0  0  0  0
    7.5960   -0.7950   10.7720 H   0  0  0  0  0  0  0  0  0  0  0  0
    8.4414   -3.5479   10.0557 H   0  0  0  0  0  0  0  0  0  0  0  0
    6.2303   -1.8999    8.7766 H   0  0  0  0  0  0  0  0  0  0  0  0
    7.1182   -3.2623    7.9555 H   0  0  0  0  0  0  0  0  0  0  0  0
    7.3787   -4.7846   10.7558 H   0  0  0  0  0  0  0  0  0  0  0  0
    5.8331   -6.4643   11.7570 H   0  0  0  0  0  0  0  0  0  0  0  0
    3.4243   -6.4879   11.1100 H   0  0  0  0  0  0  0  0  0  0  0  0
    2.5630   -4.8318    9.4567 H   0  0  0  0  0  0  0  0  0  0  0  0
    4.1036   -3.1550    8.4494 H   0  0  0  0  0  0  0  0  0  0  0  0
    7.8950   -2.0510    7.2260 H   0  0  0  0  0  0  0  0  0  0  0  0
    9.5341    0.2056    7.1576 H   0  0  0  0  0  0  0  0  0  0  0  0
   11.3707   -1.5103    7.1488 H   0  0  0  0  0  0  0  0  0  0  0  0
   10.6600   -2.2014    5.6508 H   0  0  0  0  0  0  0  0  0  0  0  0
   11.2968   -0.5218    5.6508 H   0  0  0  0  0  0  0  0  0  0  0  0
  1  2  1  0
  2  3  1  0
  3  4  1  0
  4  5  1  0
  5  6  1  0
  6  7  1  0
  6  8  1  0
  8  9  2  0
  8 10  1  0
 10 11  1  0
 11 12  1  0
 12 13  1  0
 13 14  2  0
 14 15  1  0
 15 16  2  0
 16 17  1  0
 17 18  2  0
 11 19  1  0
 19 20  2  0
 19 21  1  0
 21 22  1  0
 22 23  1  0
 22 24  1  0
 24 25  2  0
 24 26  1  0
 18 13  1  0
  1 27  1  0
  1 28  1  0
  1 29  1  0
  2 30  1  0
  2 31  1  0
  3 32  1  0
  3 33  1  0
  4 34  1  0
  4 35  1  0
  5 36  1  0
  5 37  1  0
  6 38  1  1
  7 39  1  0
 10 40  1  0
 11 41  1  1
 12 42  1  0
 12 43  1  0
 14 44  1  0
 15 45  1  0
 16 46  1  0
 17 47  1  0
 18 48  1  0
 21 49  1  0
 22 50  1  1
 23 51  1  0
 23 52  1  0
 23 53  1  0
M  CHG  1  26  -1
M  END
>  <meeko>  (6) 
{"is_sidechain": [false], "free_energy": -6.129, "intermolecular_energy": -10.45, "internal_energy": -1.119}

$$$$
1qf1_ligand
     RDKit          3D

 53 53  0  0  0  0  0  0  0  0999 V2000
    7.3800    1.3450    0.8570 C   0  0  0  0  0  0  0  0  0  0  0  0
    8.3510    0.2080    0.5750 C   0  0  0  0  0  0  0  0  0  0  0  0
    8.6320   -0.6780    1.7910 C   0  0  0  0  0  0  0  0  0  0  0  0
    8.6760    0.1010    3.1090 C   0  0  0  0  0  0  0  0  0  0  0  0
    8.1280   -0.6910    4.3040 C   0  0  0  0  0  0  0  0  0  0  0  0
    8.6580   -0.2920    5.6880 C   0  0  2  0  0  0  0  0  0  0  0  0
   10.4400   -0.6560    5.8960 S   0  0  0  0  0  0  0  0  0  0  0  0
    7.8510   -1.0350    6.7610 C   0  0  0  0  0  0  0  0  0  0  0  0
    6.6590   -1.3040    6.6350 O   0  0  0  0  0  0  0  0  0  0  0  0
    8.5870   -1.3390    7.8880 N   0  0  0  0  0  0  0  0  0  0  0  0
    7.9290   -1.7520    9.1360 C   0  0  1  0  0  0  0  0  0  0  0  0
    8.0310   -3.2680    9.3540 C   0  0  0  0  0  0  0  0  0  0  0  0
    6.6980   -3.9070    9.6720 C   0  0  0  0  0  0  0  0  0  0  0  0
    6.5480   -4.7360   10.7900 C   0  0  0  0  0  0  0  0  0  0  0  0
    5.3180   -5.3370   11.0650 C   0  0  0  0  0  0  0  0  0  0  0  0
    4.2290   -5.1150   10.2250 C   0  0  0  0  0  0  0  0  0  0  0  0
    4.3690   -4.2940    9.1070 C   0  0  0  0  0  0  0  0  0  0  0  0
    5.5980   -3.6940    8.8300 C   0  0  0  0  0  0  0  0  0  0  0  0
    8.6810   -1.0280   10.2700 C   0  0  0  0  0  0  0  0  0  0  0  0
    9.7480   -0.4470   10.0650 O   0  0  0  0  0  0  0  0  0  0  0  0
    8.0860   -1.1300   11.4960 N   0  0  0  0  0  0  0  0  0  0  0  0
    8.7130   -0.7370   12.7720 C   0  0  1  0  0  0  0  0  0  0  0  0
    8.4510    0.7310   13.0710 C   0  0  0  0  0  0  0  0  0  0  0  0
    8.1760   -1.6210   13.9480 C   0  0  0  0  0  0  0  0  0  0  0  0
    6.9430   -1.4280   14.2010 O   0  0  0  0  0  0  0  0  0  0  0  0
    8.9990   -2.4120   14.4830 O   0  0  0  0  0  0  0  0  0  0  0  0
    7.2708    1.4728    1.9441 H   0  0  0  0  0  0  0  0  0  0  0  0
    7.7666    2.2753    0.4154 H   0  0  0  0  0  0  0  0  0  0  0  0
    6.4006    1.1088    0.4154 H   0  0  0  0  0  0  0  0  0  0  0  0
    7.9273   -0.4206   -0.2221 H   0  0  0  0  0  0  0  0  0  0  0  0
    9.3074    0.6671    0.2843 H   0  0  0  0  0  0  0  0  0  0  0  0
    7.8395   -1.4377    1.8604 H   0  0  0  0  0  0  0  0  0  0  0  0
    9.6249   -1.1282    1.6445 H   0  0  0  0  0  0  0  0  0  0  0  0
    9.7213    0.3711    3.3196 H   0  0  0  0  0  0  0  0  0  0  0  0
    8.0347    0.9860    2.9846 H   0  0  0  0  0  0  0  0  0  0  0  0
    7.0352   -0.5662    4.3154 H   0  0  0  0  0  0  0  0  0  0  0  0
    8.4667   -1.7260    4.1487 H   0  0  0  0  0  0  0  0  0  0  0  0
    8.5400    0.7968    5.7906 H   0  0  0  0  0  0  0  0  0  0  0  0
   10.7010   -0.7390    4.5790 H   0  0  0  0  0  0  0  0  0  0  0  0
    9.4120   -0.7700    8.0510 H   0  0  0  0  0  0  0  0  0  0  0  0
    6.8589   -1.4989    9.1052 H   0  0  0  0  0  0  0  0  0  0  0  0
    8.4315   -3.7282    8.4387 H   0  0  0  0  0  0  0  0  0  0  0  0
    8.6914   -3.4339   10.2179 H   0  0  0  0  0  0  0  0  0  0  0  0
    7.4047   -4.9151   11.4563 H   0  0  0  0  0  0  0  0  0  0  0  0
    5.2088   -5.9866   11.9460 H   0  0  0  0  0  0  0  0  0  0  0  0
    3.2598   -5.5870   10.4436 H   0  0  0  0  0  0  0  0  0  0  0  0
    3.5099   -4.1190    8.4427 H   0  0  0  0  0  0  0  0  0  0  0  0
    5.7042   -3.0496    7.9449 H   0  0  0  0  0  0  0  0  0  0  0  0
    7.3220   -1.7870   11.6640 H   0  0  0  0  0  0  0  0  0  0  0  0
    9.7979   -0.8920   12.6769 H   0  0  0  0  0  0  0  0  0  0  0  0
    8.4237    0.8842   14.1599 H   0  0  0  0  0  0  0  0  0  0  0  0
    9.2541    1.3431   12.6347 H   0  0  0  0  0  0  0  0  0  0  0  0
    7.4857    1.0275   12.6347 H   0  0  0  0  0  0  0  0  0  0  0  0
  1  2  1  0
  2  3  1  0
  3  4  1  0
  4  5  1  0
  5  6  1  0
  6  7  1  0
  6  8  1  0
  8  9  2  0
  8 10  1  0
 10 11  1  0
 11 12  1  0
 12 13  1  0
 13 14  2  0
 14 15  1  0
 15 16  2  0
 16 17  1  0
 17 18  2  0
 11 19  1  0
 19 20  2  0
 19 21  1  0
 21 22  1  0
 22 23  1  0
 22 24  1  0
 24 25  2  0
 24 26  1  0
 18 13  1  0
  1 27  1  0
  1 28  1  0
  1 29  1  0
  2 30  1  0
  2 31  1  0
  3 32  1  0
  3 33  1  0
  4 34  1  0
  4 35  1  0
  5 36  1  0
  5 37  1  0
  6 38  1  1
  7 39  1  0
 10 40  1  0
 11 41  1  6
 12 42  1  0
 12 43  1  0
 14 44  1  0
 15 45  1  0
 16 46  1  0
 17 47  1  0
 18 48  1  0
 21 49  1  0
 22 50  1  6
 23 51  1  0
 23 52  1  0
 23 53  1  0
M  CHG  1  26  -1
M  END
>  <meeko>  (7) 
{"is_sidechain": [false], "free_energy": -6.126, "intermolecular_energy": -10.598, "internal_energy": -0.966}

$$$$
1qf1_ligand
     RDKit          3D

 53 53  0  0  0  0  0  0  0  0999 V2000
    3.0860   -5.5580   10.9600 C   0  0  0  0  0  0  0  0  0  0  0  0
    3.1080   -4.8370    9.6210 C   0  0  0  0  0  0  0  0  0  0  0  0
    4.4990   -4.7610    8.9860 C   0  0  0  0  0  0  0  0  0  0  0  0
    5.1880   -3.4100    9.1970 C   0  0  0  0  0  0  0  0  0  0  0  0
    5.9470   -2.9130    7.9590 C   0  0  0  0  0  0  0  0  0  0  0  0
    6.7230   -1.5980    8.1160 C   0  0  2  0  0  0  0  0  0  0  0  0
    7.4010   -0.9820    6.5320 S   0  0  0  0  0  0  0  0  0  0  0  0
    7.8660   -1.8140    9.1170 C   0  0  0  0  0  0  0  0  0  0  0  0
    8.7540   -2.6460    8.9490 O   0  0  0  0  0  0  0  0  0  0  0  0
    7.7770   -1.0070   10.2330 N   0  0  0  0  0  0  0  0  0  0  0  0
    8.5770   -1.2840   11.4350 C   0  0  1  0  0  0  0  0  0  0  0  0
    8.6960   -0.0420   12.3320 C   0  0  0  0  0  0  0  0  0  0  0  0
    9.8100    0.8860   11.9030 C   0  0  0  0  0  0  0  0  0  0  0  0
   10.3970    0.7660   10.6370 C   0  0  0  0  0  0  0  0  0  0  0  0
   11.4380    1.6150   10.2570 C   0  0  0  0  0  0  0  0  0  0  0  0
   11.9010    2.5900   11.1380 C   0  0  0  0  0  0  0  0  0  0  0  0
   11.3270    2.7150   12.4010 C   0  0  0  0  0  0  0  0  0  0  0  0
   10.2880    1.8660   12.7840 C   0  0  0  0  0  0  0  0  0  0  0  0
    7.8200   -2.3860   12.2010 C   0  0  0  0  0  0  0  0  0  0  0  0
    6.9290   -2.1140   13.0070 O   0  0  0  0  0  0  0  0  0  0  0  0
    8.2530   -3.6550   11.9360 N   0  0  0  0  0  0  0  0  0  0  0  0
    7.8650   -4.8550   12.7030 C   0  0  1  0  0  0  0  0  0  0  0  0
    6.7040   -5.5700   12.0300 C   0  0  0  0  0  0  0  0  0  0  0  0
    9.0780   -5.8340   12.8480 C   0  0  0  0  0  0  0  0  0  0  0  0
    8.7290   -7.0520   12.9880 O   0  0  0  0  0  0  0  0  0  0  0  0
   10.2280   -5.3220   12.7940 O   0  0  0  0  0  0  0  0  0  0  0  0
    3.1085   -4.8192   11.7747 H   0  0  0  0  0  0  0  0  0  0  0  0
    2.1690   -6.1607   11.0369 H   0  0  0  0  0  0  0  0  0  0  0  0
    3.9645   -6.2155   11.0369 H   0  0  0  0  0  0  0  0  0  0  0  0
    2.4389   -5.3692    8.9289 H   0  0  0  0  0  0  0  0  0  0  0  0
    2.7826   -3.8029    9.8072 H   0  0  0  0  0  0  0  0  0  0  0  0
    5.1284   -5.5469    9.4289 H   0  0  0  0  0  0  0  0  0  0  0  0
    4.3700   -4.8952    7.9019 H   0  0  0  0  0  0  0  0  0  0  0  0
    4.4221   -2.6651    9.4588 H   0  0  0  0  0  0  0  0  0  0  0  0
    5.9283   -3.5448    9.9994 H   0  0  0  0  0  0  0  0  0  0  0  0
    6.6666   -3.6939    7.6719 H   0  0  0  0  0  0  0  0  0  0  0  0
    5.1729   -2.7070    7.2051 H   0  0  0  0  0  0  0  0  0  0  0  0
    6.0191   -0.8352    8.4804 H   0  0  0  0  0  0  0  0  0  0  0  0
    6.7310   -1.8600    5.7630 H   0  0  0  0  0  0  0  0  0  0  0  0
    6.8530   -0.6460   10.4530 H   0  0  0  0  0  0  0  0  0  0  0  0
    9.5975   -1.5838   11.1545 H   0  0  0  0  0  0  0  0  0  0  0  0
    7.7452    0.5100   12.2959 H   0  0  0  0  0  0  0  0  0  0  0  0
    8.9278   -0.3894   13.3496 H   0  0  0  0  0  0  0  0  0  0  0  0
   10.0354   -0.0022    9.9376 H   0  0  0  0  0  0  0  0  0  0  0  0
   11.8933    1.5141    9.2607 H   0  0  0  0  0  0  0  0  0  0  0  0
   12.7192    3.2605   10.8364 H   0  0  0  0  0  0  0  0  0  0  0  0
   11.6932    3.4839   13.0972 H   0  0  0  0  0  0  0  0  0  0  0  0
    9.8410    1.9664   13.7840 H   0  0  0  0  0  0  0  0  0  0  0  0
    9.1230   -3.8260   11.4280 H   0  0  0  0  0  0  0  0  0  0  0  0
    7.5491   -4.5293   13.7051 H   0  0  0  0  0  0  0  0  0  0  0  0
    6.0332   -5.9831   12.7977 H   0  0  0  0  0  0  0  0  0  0  0  0
    6.1485   -4.8573   11.4027 H   0  0  0  0  0  0  0  0  0  0  0  0
    7.0904   -6.3868   11.4027 H   0  0  0  0  0  0  0  0  0  0  0  0
  1  2  1  0
  2  3  1  0
  3  4  1  0
  4  5  1  0
  5  6  1  0
  6  7  1  0
  6  8  1  0
  8  9  2  0
  8 10  1  0
 10 11  1  0
 11 12  1  0
 12 13  1  0
 13 14  2  0
 14 15  1  0
 15 16  2  0
 16 17  1  0
 17 18  2  0
 11 19  1  0
 19 20  2  0
 19 21  1  0
 21 22  1  0
 22 23  1  0
 22 24  1  0
 24 25  2  0
 24 26  1  0
 18 13  1  0
  1 27  1  0
  1 28  1  0
  1 29  1  0
  2 30  1  0
  2 31  1  0
  3 32  1  0
  3 33  1  0
  4 34  1  0
  4 35  1  0
  5 36  1  0
  5 37  1  0
  6 38  1  1
  7 39  1  0
 10 40  1  0
 11 41  1  6
 12 42  1  0
 12 43  1  0
 14 44  1  0
 15 45  1  0
 16 46  1  0
 17 47  1  0
 18 48  1  0
 21 49  1  0
 22 50  1  1
 23 51  1  0
 23 52  1  0
 23 53  1  0
M  CHG  1  26  -1
M  END
>  <meeko>  (8) 
{"is_sidechain": [false], "free_energy": -6.091, "intermolecular_energy": -10.316, "internal_energy": -1.189}

$$$$
1qf1_ligand
     RDKit          3D

 53 53  0  0  0  0  0  0  0  0999 V2000
   11.2460    1.2930    9.5230 C   0  0  0  0  0  0  0  0  0  0  0  0
   11.7790    1.3120   10.9480 C   0  0  0  0  0  0  0  0  0  0  0  0
   11.1480    2.3960   11.8260 C   0  0  0  0  0  0  0  0  0  0  0  0
   10.3770    1.8320   13.0220 C   0  0  0  0  0  0  0  0  0  0  0  0
   10.4920    0.3070   13.1570 C   0  0  0  0  0  0  0  0  0  0  0  0
    9.1780   -0.4600   13.3650 C   0  0  2  0  0  0  0  0  0  0  0  0
    9.3870   -1.9510   14.4060 S   0  0  0  0  0  0  0  0  0  0  0  0
    8.6160   -0.8620   11.9950 C   0  0  0  0  0  0  0  0  0  0  0  0
    8.4210   -0.0550   11.0890 O   0  0  0  0  0  0  0  0  0  0  0  0
    8.3230   -2.2070   11.8960 N   0  0  0  0  0  0  0  0  0  0  0  0
    7.4900   -2.7230   10.8000 C   0  0  1  0  0  0  0  0  0  0  0  0
    8.3470   -3.2550    9.6420 C   0  0  0  0  0  0  0  0  0  0  0  0
    8.3030   -2.3630    8.4220 C   0  0  0  0  0  0  0  0  0  0  0  0
    9.4660   -1.7530    7.9380 C   0  0  0  0  0  0  0  0  0  0  0  0
    9.4130   -0.9150    6.8220 C   0  0  0  0  0  0  0  0  0  0  0  0
    8.1970   -0.6800    6.1820 C   0  0  0  0  0  0  0  0  0  0  0  0
    7.0340   -1.2810    6.6590 C   0  0  0  0  0  0  0  0  0  0  0  0
    7.0840   -2.1160    7.7740 C   0  0  0  0  0  0  0  0  0  0  0  0
    6.6760   -3.8860   11.4000 C   0  0  0  0  0  0  0  0  0  0  0  0
    7.2220   -4.7950   12.0300 O   0  0  0  0  0  0  0  0  0  0  0  0
    5.3370   -3.8340   11.1350 N   0  0  0  0  0  0  0  0  0  0  0  0
    4.3850   -4.9320   11.3860 C   0  0  1  0  0  0  0  0  0  0  0  0
    3.5100   -4.6210   12.5900 C   0  0  0  0  0  0  0  0  0  0  0  0
    3.4850   -5.1820   10.1290 C   0  0  0  0  0  0  0  0  0  0  0  0
    3.8970   -4.5790    9.0850 O   0  0  0  0  0  0  0  0  0  0  0  0
    2.4920   -5.9430   10.2860 O   0  0  0  0  0  0  0  0  0  0  0  0
   10.1469    1.2538    9.5431 H   0  0  0  0  0  0  0  0  0  0  0  0
   11.5709    2.2033    8.9978 H   0  0  0  0  0  0  0  0  0  0  0  0
   11.6349    0.4081    8.9978 H   0  0  0  0  0  0  0  0  0  0  0  0
   11.5783    0.3327   11.4070 H   0  0  0  0  0  0  0  0  0  0  0  0
   12.8547    1.5337   10.8863 H   0  0  0  0  0  0  0  0  0  0  0  0
   11.9482    3.0498   12.2031 H   0  0  0  0  0  0  0  0  0  0  0  0
   10.4265    2.9430   11.2012 H   0  0  0  0  0  0  0  0  0  0  0  0
   10.7702    2.2940   13.9396 H   0  0  0  0  0  0  0  0  0  0  0  0
    9.3139    2.0647   12.8621 H   0  0  0  0  0  0  0  0  0  0  0  0
   10.9616   -0.0760   12.2390 H   0  0  0  0  0  0  0  0  0  0  0  0
   11.0779    0.1376   14.0725 H   0  0  0  0  0  0  0  0  0  0  0  0
    8.4814    0.2060   13.8954 H   0  0  0  0  0  0  0  0  0  0  0  0
   10.2150   -1.3670   15.2910 H   0  0  0  0  0  0  0  0  0  0  0  0
    8.1650   -2.6970   12.7710 H   0  0  0  0  0  0  0  0  0  0  0  0
    6.8537   -1.9229   10.3938 H   0  0  0  0  0  0  0  0  0  0  0  0
    9.3898   -3.3323    9.9833 H   0  0  0  0  0  0  0  0  0  0  0  0
    7.9390   -4.2342    9.3510 H   0  0  0  0  0  0  0  0  0  0  0  0
   10.4279   -1.9348    8.4398 H   0  0  0  0  0  0  0  0  0  0  0  0
   10.3317   -0.4399    6.4476 H   0  0  0  0  0  0  0  0  0  0  0  0
    8.1558   -0.0213    5.3020 H   0  0  0  0  0  0  0  0  0  0  0  0
    6.0742   -1.0961    6.1545 H   0  0  0  0  0  0  0  0  0  0  0  0
    6.1615   -2.5842    8.1480 H   0  0  0  0  0  0  0  0  0  0  0  0
    4.9570   -3.1870   10.4410 H   0  0  0  0  0  0  0  0  0  0  0  0
    4.9667   -5.8420   11.5947 H   0  0  0  0  0  0  0  0  0  0  0  0
    4.0728   -4.8210   13.5137 H   0  0  0  0  0  0  0  0  0  0  0  0
    3.2129   -3.5622   12.5636 H   0  0  0  0  0  0  0  0  0  0  0  0
    2.6113   -5.2548   12.5636 H   0  0  0  0  0  0  0  0  0  0  0  0
  1  2  1  0
  2  3  1  0
  3  4  1  0
  4  5  1  0
  5  6  1  0
  6  7  1  0
  6  8  1  0
  8  9  2  0
  8 10  1  0
 10 11  1  0
 11 12  1  0
 12 13  1  0
 13 14  2  0
 14 15  1  0
 15 16  2  0
 16 17  1  0
 17 18  2  0
 11 19  1  0
 19 20  2  0
 19 21  1  0
 21 22  1  0
 22 23  1  0
 22 24  1  0
 24 25  2  0
 24 26  1  0
 18 13  1  0
  1 27  1  0
  1 28  1  0
  1 29  1  0
  2 30  1  0
  2 31  1  0
  3 32  1  0
  3 33  1  0
  4 34  1  0
  4 35  1  0
  5 36  1  0
  5 37  1  0
  6 38  1  1
  7 39  1  0
 10 40  1  0
 11 41  1  6
 12 42  1  0
 12 43  1  0
 14 44  1  0
 15 45  1  0
 16 46  1  0
 17 47  1  0
 18 48  1  0
 21 49  1  0
 22 50  1  1
 23 51  1  0
 23 52  1  0
 23 53  1  0
M  CHG  1  26  -1
M  END
>  <meeko>  (9) 
{"is_sidechain": [false], "free_energy": -5.965, "intermolecular_energy": -9.833, "internal_energy": -1.462}

$$$$
