3rr4_ligand
     RDKit          3D

 32 34  0  0  0  0  0  0  0  0999 V2000
    2.9790   14.4680   12.8630 C   0  0  0  0  0  0  0  0  0  0  0  0
    2.0990   15.6170   12.7020 N   0  0  0  0  0  0  0  0  0  0  0  0
    1.7990   16.4360   13.7160 C   0  0  0  0  0  0  0  0  0  0  0  0
    2.1210   17.7160   13.8430 N   0  0  0  0  0  0  0  0  0  0  0  0
    1.6360   18.2270   15.0270 C   0  0  0  0  0  0  0  0  0  0  0  0
    1.7190   19.4990   15.5930 C   0  0  0  0  0  0  0  0  0  0  0  0
    1.0900   19.6560   16.8420 C   0  0  0  0  0  0  0  0  0  0  0  0
    1.1400   20.9330   17.4670 N   0  0  0  0  0  0  0  0  0  0  0  0
    0.5490   21.1420   18.6760 C   0  0  0  0  0  0  0  0  0  0  0  0
    0.5890   22.3460   19.2820 N   0  0  0  0  0  0  0  0  0  0  0  0
    1.5880   23.3850   19.0200 C   0  0  0  0  0  0  0  0  0  0  0  0
   -0.0840   20.1250   19.2730 N   0  0  0  0  0  0  0  0  0  0  0  0
   -0.2020   18.8250   18.7580 C   0  0  0  0  0  0  0  0  0  0  0  0
   -0.7980   17.9660   19.3770 O   0  0  0  0  0  0  0  0  0  0  0  0
    0.4260   18.5750   17.4580 C   0  0  0  0  0  0  0  0  0  0  0  0
    0.3470   17.2910   16.8790 C   0  0  0  0  0  0  0  0  0  0  0  0
    0.9760   17.1640   15.6480 C   0  0  0  0  0  0  0  0  0  0  0  0
    1.1110   16.0920   14.7950 N   0  0  0  0  0  0  0  0  0  0  0  0
    3.1309   14.2697   13.9343 H   0  0  0  0  0  0  0  0  0  0  0  0
    2.5224   13.5871   12.3882 H   0  0  0  0  0  0  0  0  0  0  0  0
    3.9485   14.6793   12.3882 H   0  0  0  0  0  0  0  0  0  0  0  0
    1.6940   15.8120   11.7930 H   0  0  0  0  0  0  0  0  0  0  0  0
    2.6540   18.2280   13.1490 H   0  0  0  0  0  0  0  0  0  0  0  0
    2.2433   20.3275   15.0943 H   0  0  0  0  0  0  0  0  0  0  0  0
    1.6170   21.7130   17.0250 H   0  0  0  0  0  0  0  0  0  0  0  0
   -0.1240   22.5580   19.9730 H   0  0  0  0  0  0  0  0  0  0  0  0
    1.9666   23.7787   19.9748 H   0  0  0  0  0  0  0  0  0  0  0  0
    2.4212   22.9557   18.4442 H   0  0  0  0  0  0  0  0  0  0  0  0
    1.1263   24.2007   18.4442 H   0  0  0  0  0  0  0  0  0  0  0  0
   -0.5290   20.2610   20.1710 H   0  0  0  0  0  0  0  0  0  0  0  0
   -0.1738   16.4535   17.3663 H   0  0  0  0  0  0  0  0  0  0  0  0
    0.7380   15.1630   14.9610 H   0  0  0  0  0  0  0  0  0  0  0  0
  1  2  1  0
  2  3  1  0
  3  4  1  0
  4  5  1  0
  5  6  2  0
  6  7  1  0
  7  8  1  0
  8  9  2  0
  9 10  1  0
 10 11  1  0
  9 12  1  0
 12 13  1  0
 13 14  2  0
 13 15  1  0
 15 16  1  0
 16 17  2  0
 17 18  1  0
 18  3  2  0
 17  5  1  0
 15  7  2  0
  1 19  1  0
  1 20  1  0
  1 21  1  0
  2 22  1  0
  4 23  1  0
  6 24  1  0
  8 25  1  0
 10 26  1  0
 11 27  1  0
 11 28  1  0
 11 29  1  0
 12 30  1  0
 16 31  1  0
 18 32  1  0
M  CHG  2   8   1  18   1
M  END
>  <meeko>  (1) 
{"is_sidechain": [false], "free_energy": -7.487, "intermolecular_energy": -8.362, "internal_energy": -0.082}

$$$$
3rr4_ligand
     RDKit          3D

 32 34  0  0  0  0  0  0  0  0999 V2000
    1.5980   22.6220   18.6720 C   0  0  0  0  0  0  0  0  0  0  0  0
    0.2000   22.2510   18.8370 N   0  0  0  0  0  0  0  0  0  0  0  0
   -0.2160   20.9820   18.7660 C   0  0  0  0  0  0  0  0  0  0  0  0
   -1.3830   20.4910   19.1630 N   0  0  0  0  0  0  0  0  0  0  0  0
   -1.4480   19.1350   18.9280 C   0  0  0  0  0  0  0  0  0  0  0  0
   -2.4510   18.1970   19.1700 C   0  0  0  0  0  0  0  0  0  0  0  0
   -2.1590   16.8750   18.7890 C   0  0  0  0  0  0  0  0  0  0  0  0
   -3.1460   15.8740   19.0110 N   0  0  0  0  0  0  0  0  0  0  0  0
   -2.9170   14.5780   18.6630 C   0  0  0  0  0  0  0  0  0  0  0  0
   -3.8420   13.6180   18.8680 N   0  0  0  0  0  0  0  0  0  0  0  0
   -5.1660   13.5820   18.2420 C   0  0  0  0  0  0  0  0  0  0  0  0
   -1.7440   14.2540   18.1050 N   0  0  0  0  0  0  0  0  0  0  0  0
   -0.6960   15.1470   17.8370 C   0  0  0  0  0  0  0  0  0  0  0  0
    0.3350   14.7560   17.3270 O   0  0  0  0  0  0  0  0  0  0  0  0
   -0.9190   16.5490   18.2030 C   0  0  0  0  0  0  0  0  0  0  0  0
    0.0910   17.5030   17.9620 C   0  0  0  0  0  0  0  0  0  0  0  0
   -0.2230   18.7990   18.3470 C   0  0  0  0  0  0  0  0  0  0  0  0
    0.4900   19.9740   18.2730 N   0  0  0  0  0  0  0  0  0  0  0  0
    2.0637   22.7456   19.6609 H   0  0  0  0  0  0  0  0  0  0  0  0
    2.1237   21.8323   18.1152 H   0  0  0  0  0  0  0  0  0  0  0  0
    1.6629   23.5685   18.1152 H   0  0  0  0  0  0  0  0  0  0  0  0
   -0.4910   22.9720   19.0130 H   0  0  0  0  0  0  0  0  0  0  0  0
   -2.1130   21.0570   19.5810 H   0  0  0  0  0  0  0  0  0  0  0  0
   -3.4110   18.4738   19.6303 H   0  0  0  0  0  0  0  0  0  0  0  0
   -4.0400   16.1070   19.4330 H   0  0  0  0  0  0  0  0  0  0  0  0
   -3.6130   12.8590   19.5010 H   0  0  0  0  0  0  0  0  0  0  0  0
   -5.9404   13.5609   19.0230 H   0  0  0  0  0  0  0  0  0  0  0  0
   -5.3003   14.4768   17.6165 H   0  0  0  0  0  0  0  0  0  0  0  0
   -5.2515   12.6812   17.6165 H   0  0  0  0  0  0  0  0  0  0  0  0
   -1.5550   13.2960   17.8400 H   0  0  0  0  0  0  0  0  0  0  0  0
    1.0555   17.2398   17.5032 H   0  0  0  0  0  0  0  0  0  0  0  0
    1.4270   20.0670   17.8960 H   0  0  0  0  0  0  0  0  0  0  0  0
  1  2  1  0
  2  3  1  0
  3  4  1  0
  4  5  1  0
  5  6  2  0
  6  7  1  0
  7  8  1  0
  8  9  2  0
  9 10  1  0
 10 11  1  0
  9 12  1  0
 12 13  1  0
 13 14  2  0
 13 15  1  0
 15 16  1  0
 16 17  2  0
 17 18  1  0
 18  3  2  0
 17  5  1  0
 15  7  2  0
  1 19  1  0
  1 20  1  0
  1 21  1  0
  2 22  1  0
  4 23  1  0
  6 24  1  0
  8 25  1  0
 10 26  1  0
 11 27  1  0
 11 28  1  0
 11 29  1  0
 12 30  1  0
 16 31  1  0
 18 32  1  0
M  CHG  2   8   1  18   1
M  END
>  <meeko>  (2) 
{"is_sidechain": [false], "free_energy": -7.072, "intermolecular_energy": -7.9, "internal_energy": -0.081}

$$$$
3rr4_ligand
     RDKit          3D

 32 34  0  0  0  0  0  0  0  0999 V2000
   -4.7390   13.4050   17.8990 C   0  0  0  0  0  0  0  0  0  0  0  0
   -3.4700   13.6260   18.5770 N   0  0  0  0  0  0  0  0  0  0  0  0
   -2.8200   14.7940   18.5140 C   0  0  0  0  0  0  0  0  0  0  0  0
   -3.1030   15.9120   19.1690 N   0  0  0  0  0  0  0  0  0  0  0  0
   -2.2070   16.9080   18.8450 C   0  0  0  0  0  0  0  0  0  0  0  0
   -2.0980   18.2320   19.2690 C   0  0  0  0  0  0  0  0  0  0  0  0
   -1.0340   18.9670   18.7140 C   0  0  0  0  0  0  0  0  0  0  0  0
   -0.8720   20.3240   19.1090 N   0  0  0  0  0  0  0  0  0  0  0  0
    0.1390   21.0820   18.6030 C   0  0  0  0  0  0  0  0  0  0  0  0
    0.3060   22.3700   18.9680 N   0  0  0  0  0  0  0  0  0  0  0  0
    1.5820   23.0890   18.9520 C   0  0  0  0  0  0  0  0  0  0  0  0
    0.9850   20.5320   17.7250 N   0  0  0  0  0  0  0  0  0  0  0  0
    0.9300   19.2100   17.2590 C   0  0  0  0  0  0  0  0  0  0  0  0
    1.7450   18.8010   16.4570 O   0  0  0  0  0  0  0  0  0  0  0  0
   -0.1510   18.3730   17.7880 C   0  0  0  0  0  0  0  0  0  0  0  0
   -0.2680   17.0330   17.3650 C   0  0  0  0  0  0  0  0  0  0  0  0
   -1.3260   16.3310   17.9280 C   0  0  0  0  0  0  0  0  0  0  0  0
   -1.7530   15.0330   17.7650 N   0  0  0  0  0  0  0  0  0  0  0  0
   -5.5345   13.2665   18.6459 H   0  0  0  0  0  0  0  0  0  0  0  0
   -4.9748   14.2756   17.2694 H   0  0  0  0  0  0  0  0  0  0  0  0
   -4.6666   12.5059   17.2694 H   0  0  0  0  0  0  0  0  0  0  0  0
   -3.0550   12.8760   19.1180 H   0  0  0  0  0  0  0  0  0  0  0  0
   -3.8800   15.9990   19.8140 H   0  0  0  0  0  0  0  0  0  0  0  0
   -2.7996   18.6740   19.9918 H   0  0  0  0  0  0  0  0  0  0  0  0
   -1.5070   20.7530   19.7750 H   0  0  0  0  0  0  0  0  0  0  0  0
   -0.5100   22.8890   19.2780 H   0  0  0  0  0  0  0  0  0  0  0  0
    1.9113   23.2745   19.9850 H   0  0  0  0  0  0  0  0  0  0  0  0
    2.3374   22.4837   18.4295 H   0  0  0  0  0  0  0  0  0  0  0  0
    1.4556   24.0487   18.4295 H   0  0  0  0  0  0  0  0  0  0  0  0
    1.7430   21.0800   17.3380 H   0  0  0  0  0  0  0  0  0  0  0  0
    0.4264   16.5779   16.6434 H   0  0  0  0  0  0  0  0  0  0  0  0
   -1.3190   14.3470   17.1570 H   0  0  0  0  0  0  0  0  0  0  0  0
  1  2  1  0
  2  3  1  0
  3  4  1  0
  4  5  1  0
  5  6  2  0
  6  7  1  0
  7  8  1  0
  8  9  2  0
  9 10  1  0
 10 11  1  0
  9 12  1  0
 12 13  1  0
 13 14  2  0
 13 15  1  0
 15 16  1  0
 16 17  2  0
 17 18  1  0
 18  3  2  0
 17  5  1  0
 15  7  2  0
  1 19  1  0
  1 20  1  0
  1 21  1  0
  2 22  1  0
  4 23  1  0
  6 24  1  0
  8 25  1  0
 10 26  1  0
 11 27  1  0
 11 28  1  0
 11 29  1  0
 12 30  1  0
 16 31  1  0
 18 32  1  0
M  CHG  2   8   1  18   1
M  END
>  <meeko>  (3) 
{"is_sidechain": [false], "free_energy": -6.976, "intermolecular_energy": -7.798, "internal_energy": -0.075}

$$$$
3rr4_ligand
     RDKit          3D

 32 34  0  0  0  0  0  0  0  0999 V2000
    1.5480   23.4150   18.9440 C   0  0  0  0  0  0  0  0  0  0  0  0
    0.6800   22.2800   19.2190 N   0  0  0  0  0  0  0  0  0  0  0  0
    0.7260   21.1530   18.4990 C   0  0  0  0  0  0  0  0  0  0  0  0
    1.2980   20.9730   17.3170 N   0  0  0  0  0  0  0  0  0  0  0  0
    1.1380   19.6730   16.8890 C   0  0  0  0  0  0  0  0  0  0  0  0
    1.5560   19.0190   15.7310 C   0  0  0  0  0  0  0  0  0  0  0  0
    1.2040   17.6590   15.6340 C   0  0  0  0  0  0  0  0  0  0  0  0
    1.6040   16.9390   14.4740 N   0  0  0  0  0  0  0  0  0  0  0  0
    1.2900   15.6220   14.3280 C   0  0  0  0  0  0  0  0  0  0  0  0
    1.6610   14.9260   13.2340 N   0  0  0  0  0  0  0  0  0  0  0  0
    3.0140   14.4240   12.9780 C   0  0  0  0  0  0  0  0  0  0  0  0
    0.5970   15.0090   15.2940 N   0  0  0  0  0  0  0  0  0  0  0  0
    0.1480   15.6100   16.4800 C   0  0  0  0  0  0  0  0  0  0  0  0
   -0.4770   14.9690   17.3010 O   0  0  0  0  0  0  0  0  0  0  0  0
    0.4730   17.0280   16.6610 C   0  0  0  0  0  0  0  0  0  0  0  0
    0.0540   17.6970   17.8300 C   0  0  0  0  0  0  0  0  0  0  0  0
    0.4140   19.0360   17.8990 C   0  0  0  0  0  0  0  0  0  0  0  0
    0.1910   19.9950   18.8600 N   0  0  0  0  0  0  0  0  0  0  0  0
    1.8858   23.8567   19.8931 H   0  0  0  0  0  0  0  0  0  0  0  0
    2.4206   23.0776   18.3655 H   0  0  0  0  0  0  0  0  0  0  0  0
    0.9938   24.1688   18.3655 H   0  0  0  0  0  0  0  0  0  0  0  0
    0.0130   22.3340   19.9810 H   0  0  0  0  0  0  0  0  0  0  0  0
    1.7820   21.7090   16.8140 H   0  0  0  0  0  0  0  0  0  0  0  0
    2.1251   19.5331   14.9425 H   0  0  0  0  0  0  0  0  0  0  0  0
    2.1300   17.3920   13.7330 H   0  0  0  0  0  0  0  0  0  0  0  0
    0.9580   14.7300   12.5290 H   0  0  0  0  0  0  0  0  0  0  0  0
    3.5223   14.2354   13.9351 H   0  0  0  0  0  0  0  0  0  0  0  0
    2.9551   13.4879   12.4034 H   0  0  0  0  0  0  0  0  0  0  0  0
    3.5800   15.1720   12.4034 H   0  0  0  0  0  0  0  0  0  0  0  0
    0.3550   14.0310   15.2040 H   0  0  0  0  0  0  0  0  0  0  0  0
   -0.5150   17.1956   18.6268 H   0  0  0  0  0  0  0  0  0  0  0  0
   -0.3120   19.8470   19.7280 H   0  0  0  0  0  0  0  0  0  0  0  0
  1  2  1  0
  2  3  1  0
  3  4  1  0
  4  5  1  0
  5  6  2  0
  6  7  1  0
  7  8  1  0
  8  9  2  0
  9 10  1  0
 10 11  1  0
  9 12  1  0
 12 13  1  0
 13 14  2  0
 13 15  1  0
 15 16  1  0
 16 17  2  0
 17 18  1  0
 18  3  2  0
 17  5  1  0
 15  7  2  0
  1 19  1  0
  1 20  1  0
  1 21  1  0
  2 22  1  0
  4 23  1  0
  6 24  1  0
  8 25  1  0
 10 26  1  0
 11 27  1  0
 11 28  1  0
 11 29  1  0
 12 30  1  0
 16 31  1  0
 18 32  1  0
M  CHG  2   8   1  18   1
M  END
>  <meeko>  (4) 
{"is_sidechain": [false], "free_energy": -6.911, "intermolecular_energy": -7.728, "internal_energy": -0.074}

$$$$
3rr4_ligand
     RDKit          3D

 32 34  0  0  0  0  0  0  0  0999 V2000
   -1.6980   14.4570   22.7370 C   0  0  0  0  0  0  0  0  0  0  0  0
   -2.2960   14.5420   21.4120 N   0  0  0  0  0  0  0  0  0  0  0  0
   -1.7290   15.2300   20.4140 C   0  0  0  0  0  0  0  0  0  0  0  0
   -1.2170   14.7470   19.2900 N   0  0  0  0  0  0  0  0  0  0  0  0
   -0.7200   15.7630   18.5030 C   0  0  0  0  0  0  0  0  0  0  0  0
   -0.0980   15.7530   17.2560 C   0  0  0  0  0  0  0  0  0  0  0  0
    0.2810   17.0090   16.7490 C   0  0  0  0  0  0  0  0  0  0  0  0
    0.9200   17.0610   15.4780 N   0  0  0  0  0  0  0  0  0  0  0  0
    1.3090   18.2500   14.9410 C   0  0  0  0  0  0  0  0  0  0  0  0
    1.9160   18.3140   13.7380 N   0  0  0  0  0  0  0  0  0  0  0  0
    2.3650   17.1560   12.9610 C   0  0  0  0  0  0  0  0  0  0  0  0
    1.0810   19.3770   15.6250 N   0  0  0  0  0  0  0  0  0  0  0  0
    0.4620   19.4550   16.8810 C   0  0  0  0  0  0  0  0  0  0  0  0
    0.3000   20.5290   17.4260 O   0  0  0  0  0  0  0  0  0  0  0  0
    0.0350   18.1880   17.4820 C   0  0  0  0  0  0  0  0  0  0  0  0
   -0.5950   18.1910   18.7440 C   0  0  0  0  0  0  0  0  0  0  0  0
   -0.9590   16.9380   19.2200 C   0  0  0  0  0  0  0  0  0  0  0  0
   -1.5800   16.5460   20.3840 N   0  0  0  0  0  0  0  0  0  0  0  0
   -2.4817   14.5684   23.5008 H   0  0  0  0  0  0  0  0  0  0  0  0
   -1.2067   13.4800   22.8555 H   0  0  0  0  0  0  0  0  0  0  0  0
   -0.9539   15.2584   22.8555 H   0  0  0  0  0  0  0  0  0  0  0  0
   -3.1730   14.0680   21.2290 H   0  0  0  0  0  0  0  0  0  0  0  0
   -1.2020   13.7590   19.0630 H   0  0  0  0  0  0  0  0  0  0  0  0
    0.0853   14.8203   16.7023 H   0  0  0  0  0  0  0  0  0  0  0  0
    1.0980   16.2130   14.9490 H   0  0  0  0  0  0  0  0  0  0  0  0
    2.0770   19.2300   13.3320 H   0  0  0  0  0  0  0  0  0  0  0  0
    2.6762   16.3533   13.6457 H   0  0  0  0  0  0  0  0  0  0  0  0
    1.5406   16.7979   12.3269 H   0  0  0  0  0  0  0  0  0  0  0  0
    3.2154   17.4473   12.3269 H   0  0  0  0  0  0  0  0  0  0  0  0
    1.3630   20.2700   15.2410 H   0  0  0  0  0  0  0  0  0  0  0  0
   -0.7838   19.1160   19.3086 H   0  0  0  0  0  0  0  0  0  0  0  0
   -1.8850   17.1710   21.1230 H   0  0  0  0  0  0  0  0  0  0  0  0
  1  2  1  0
  2  3  1  0
  3  4  1  0
  4  5  1  0
  5  6  2  0
  6  7  1  0
  7  8  1  0
  8  9  2  0
  9 10  1  0
 10 11  1  0
  9 12  1  0
 12 13  1  0
 13 14  2  0
 13 15  1  0
 15 16  1  0
 16 17  2  0
 17 18  1  0
 18  3  2  0
 17  5  1  0
 15  7  2  0
  1 19  1  0
  1 20  1  0
  1 21  1  0
  2 22  1  0
  4 23  1  0
  6 24  1  0
  8 25  1  0
 10 26  1  0
 11 27  1  0
 11 28  1  0
 11 29  1  0
 12 30  1  0
 16 31  1  0
 18 32  1  0
M  CHG  2   8   1  18   1
M  END
>  <meeko>  (5) 
{"is_sidechain": [false], "free_energy": -6.666, "intermolecular_energy": -7.445, "internal_energy": -0.083}

$$$$
3rr4_ligand
     RDKit          3D

 32 34  0  0  0  0  0  0  0  0999 V2000
    1.7200   23.1180   18.9750 C   0  0  0  0  0  0  0  0  0  0  0  0
    0.4990   22.3250   18.9600 N   0  0  0  0  0  0  0  0  0  0  0  0
    0.4680   21.0690   18.5000 C   0  0  0  0  0  0  0  0  0  0  0  0
   -0.0830   20.0110   19.0780 N   0  0  0  0  0  0  0  0  0  0  0  0
    0.0880   18.8850   18.3010 C   0  0  0  0  0  0  0  0  0  0  0  0
   -0.3080   17.5610   18.4850 C   0  0  0  0  0  0  0  0  0  0  0  0
    0.0500   16.6660   17.4600 C   0  0  0  0  0  0  0  0  0  0  0  0
   -0.3280   15.3000   17.5930 N   0  0  0  0  0  0  0  0  0  0  0  0
   -0.0080   14.3910   16.6310 C   0  0  0  0  0  0  0  0  0  0  0  0
   -0.3590   13.0940   16.7430 N   0  0  0  0  0  0  0  0  0  0  0  0
   -1.5540   12.6040   17.4340 C   0  0  0  0  0  0  0  0  0  0  0  0
    0.6700   14.7990   15.5530 N   0  0  0  0  0  0  0  0  0  0  0  0
    1.0970   16.1130   15.3080 C   0  0  0  0  0  0  0  0  0  0  0  0
    1.7100   16.3870   14.2970 O   0  0  0  0  0  0  0  0  0  0  0  0
    0.7650   17.1110   16.3290 C   0  0  0  0  0  0  0  0  0  0  0  0
    1.1620   18.4530   16.1510 C   0  0  0  0  0  0  0  0  0  0  0  0
    0.7970   19.3140   17.1770 C   0  0  0  0  0  0  0  0  0  0  0  0
    1.0010   20.6630   17.3560 N   0  0  0  0  0  0  0  0  0  0  0  0
    2.0185   23.3119   20.0158 H   0  0  0  0  0  0  0  0  0  0  0  0
    2.5212   22.5674   18.4603 H   0  0  0  0  0  0  0  0  0  0  0  0
    1.5428   24.0738   18.4603 H   0  0  0  0  0  0  0  0  0  0  0  0
   -0.3630   22.7280   19.3080 H   0  0  0  0  0  0  0  0  0  0  0  0
   -0.5600   20.0490   19.9710 H   0  0  0  0  0  0  0  0  0  0  0  0
   -0.8655   17.2363   19.3759 H   0  0  0  0  0  0  0  0  0  0  0  0
   -0.8440   14.9780   18.4060 H   0  0  0  0  0  0  0  0  0  0  0  0
    0.2440   12.3960   16.3180 H   0  0  0  0  0  0  0  0  0  0  0  0
   -1.4005   12.6670   18.5214 H   0  0  0  0  0  0  0  0  0  0  0  0
   -2.4202   13.2195   17.1498 H   0  0  0  0  0  0  0  0  0  0  0  0
   -1.7387   11.5575   17.1498 H   0  0  0  0  0  0  0  0  0  0  0  0
    0.9170   14.1380   14.8270 H   0  0  0  0  0  0  0  0  0  0  0  0
    1.7193   18.7919   15.2652 H   0  0  0  0  0  0  0  0  0  0  0  0
    1.4900   21.2710   16.7080 H   0  0  0  0  0  0  0  0  0  0  0  0
  1  2  1  0
  2  3  1  0
  3  4  1  0
  4  5  1  0
  5  6  2  0
  6  7  1  0
  7  8  1  0
  8  9  2  0
  9 10  1  0
 10 11  1  0
  9 12  1  0
 12 13  1  0
 13 14  2  0
 13 15  1  0
 15 16  1  0
 16 17  2  0
 17 18  1  0
 18  3  2  0
 17  5  1  0
 15  7  2  0
  1 19  1  0
  1 20  1  0
  1 21  1  0
  2 22  1  0
  4 23  1  0
  6 24  1  0
  8 25  1  0
 10 26  1  0
 11 27  1  0
 11 28  1  0
 11 29  1  0
 12 30  1  0
 16 31  1  0
 18 32  1  0
M  CHG  2   8   1  18   1
M  END
>  <meeko>  (6) 
{"is_sidechain": [false], "free_energy": -6.604, "intermolecular_energy": -7.375, "internal_energy": -0.083}

$$$$
3rr4_ligand
     RDKit          3D

 32 34  0  0  0  0  0  0  0  0999 V2000
   -2.8480   13.3950   16.9320 C   0  0  0  0  0  0  0  0  0  0  0  0
   -1.4650   13.8090   16.7480 N   0  0  0  0  0  0  0  0  0  0  0  0
   -1.0410   15.0410   17.0510 C   0  0  0  0  0  0  0  0  0  0  0  0
   -0.1070   15.7500   16.4310 N   0  0  0  0  0  0  0  0  0  0  0  0
    0.0560   16.9780   17.0350 C   0  0  0  0  0  0  0  0  0  0  0  0
    0.9030   18.0480   16.7490 C   0  0  0  0  0  0  0  0  0  0  0  0
    0.7880   19.1640   17.5980 C   0  0  0  0  0  0  0  0  0  0  0  0
    1.6270   20.2870   17.3550 N   0  0  0  0  0  0  0  0  0  0  0  0
    1.5590   21.3940   18.1450 C   0  0  0  0  0  0  0  0  0  0  0  0
    2.3480   22.4660   17.9270 N   0  0  0  0  0  0  0  0  0  0  0  0
    3.7560   22.4050   17.5280 C   0  0  0  0  0  0  0  0  0  0  0  0
    0.6880   21.4130   19.1610 N   0  0  0  0  0  0  0  0  0  0  0  0
   -0.1890   20.3720   19.5000 C   0  0  0  0  0  0  0  0  0  0  0  0
   -0.9460   20.4830   20.4440 O   0  0  0  0  0  0  0  0  0  0  0  0
   -0.1350   19.1690   18.6650 C   0  0  0  0  0  0  0  0  0  0  0  0
   -0.9880   18.0820   18.9470 C   0  0  0  0  0  0  0  0  0  0  0  0
   -0.8540   16.9950   18.0950 C   0  0  0  0  0  0  0  0  0  0  0  0
   -1.4980   15.7790   18.0530 N   0  0  0  0  0  0  0  0  0  0  0  0
   -3.0708   13.3283   18.0071 H   0  0  0  0  0  0  0  0  0  0  0  0
   -3.5168   14.1323   16.4640 H   0  0  0  0  0  0  0  0  0  0  0  0
   -3.0017   12.4115   16.4640 H   0  0  0  0  0  0  0  0  0  0  0  0
   -0.7900   13.1490   16.3760 H   0  0  0  0  0  0  0  0  0  0  0  0
    0.4060   15.4120   15.6250 H   0  0  0  0  0  0  0  0  0  0  0  0
    1.6164   18.0213   15.9121 H   0  0  0  0  0  0  0  0  0  0  0  0
    2.2920   20.2860   16.5870 H   0  0  0  0  0  0  0  0  0  0  0  0
    1.9430   23.3900   18.0450 H   0  0  0  0  0  0  0  0  0  0  0  0
    4.3907   22.3775   18.4260 H   0  0  0  0  0  0  0  0  0  0  0  0
    3.9285   21.4985   16.9292 H   0  0  0  0  0  0  0  0  0  0  0  0
    4.0062   23.2931   16.9292 H   0  0  0  0  0  0  0  0  0  0  0  0
    0.6220   22.2260   19.7590 H   0  0  0  0  0  0  0  0  0  0  0  0
   -1.7060   18.0949   19.7802 H   0  0  0  0  0  0  0  0  0  0  0  0
   -2.2230   15.4800   18.6960 H   0  0  0  0  0  0  0  0  0  0  0  0
  1  2  1  0
  2  3  1  0
  3  4  1  0
  4  5  1  0
  5  6  2  0
  6  7  1  0
  7  8  1  0
  8  9  2  0
  9 10  1  0
 10 11  1  0
  9 12  1  0
 12 13  1  0
 13 14  2  0
 13 15  1  0
 15 16  1  0
 16 17  2  0
 17 18  1  0
 18  3  2  0
 17  5  1  0
 15  7  2  0
  1 19  1  0
  1 20  1  0
  1 21  1  0
  2 22  1  0
  4 23  1  0
  6 24  1  0
  8 25  1  0
 10 26  1  0
 11 27  1  0
 11 28  1  0
 11 29  1  0
 12 30  1  0
 16 31  1  0
 18 32  1  0
M  CHG  2   8   1  18   1
M  END
>  <meeko>  (7) 
{"is_sidechain": [false], "free_energy": -6.486, "intermolecular_energy": -7.244, "internal_energy": -0.082}

$$$$
3rr4_ligand
     RDKit          3D

 32 34  0  0  0  0  0  0  0  0999 V2000
   -3.2970   13.6620   20.2130 C   0  0  0  0  0  0  0  0  0  0  0  0
   -3.4590   14.4920   19.0280 N   0  0  0  0  0  0  0  0  0  0  0  0
   -2.6480   15.5210   18.7590 C   0  0  0  0  0  0  0  0  0  0  0  0
   -1.5310   15.5040   18.0450 N   0  0  0  0  0  0  0  0  0  0  0  0
   -0.9670   16.7600   17.9890 C   0  0  0  0  0  0  0  0  0  0  0  0
    0.1890   17.2320   17.3680 C   0  0  0  0  0  0  0  0  0  0  0  0
    0.4540   18.6050   17.5290 C   0  0  0  0  0  0  0  0  0  0  0  0
    1.6200   19.1440   16.9170 N   0  0  0  0  0  0  0  0  0  0  0  0
    1.9250   20.4650   17.0410 C   0  0  0  0  0  0  0  0  0  0  0  0
    3.0270   20.9910   16.4670 N   0  0  0  0  0  0  0  0  0  0  0  0
    3.8530   22.0510   17.0500 C   0  0  0  0  0  0  0  0  0  0  0  0
    1.1110   21.2560   17.7480 N   0  0  0  0  0  0  0  0  0  0  0  0
   -0.0640   20.8440   18.3960 C   0  0  0  0  0  0  0  0  0  0  0  0
   -0.7400   21.6380   19.0180 O   0  0  0  0  0  0  0  0  0  0  0  0
   -0.4140   19.4250   18.2790 C   0  0  0  0  0  0  0  0  0  0  0  0
   -1.5820   18.9400   18.9030 C   0  0  0  0  0  0  0  0  0  0  0  0
   -1.8190   17.5830   18.7290 C   0  0  0  0  0  0  0  0  0  0  0  0
   -2.8320   16.7660   19.1760 N   0  0  0  0  0  0  0  0  0  0  0  0
   -3.4179   14.2815   21.1139 H   0  0  0  0  0  0  0  0  0  0  0  0
   -4.0569   12.8666   20.2102 H   0  0  0  0  0  0  0  0  0  0  0  0
   -2.2938   13.2107   20.2102 H   0  0  0  0  0  0  0  0  0  0  0  0
   -4.2100   14.2920   18.3770 H   0  0  0  0  0  0  0  0  0  0  0  0
   -1.1610   14.6670   17.6090 H   0  0  0  0  0  0  0  0  0  0  0  0
    0.8521   16.5727   16.7887 H   0  0  0  0  0  0  0  0  0  0  0  0
    2.2460   18.5550   16.3770 H   0  0  0  0  0  0  0  0  0  0  0  0
    3.3150   20.6300   15.5630 H   0  0  0  0  0  0  0  0  0  0  0  0
    3.8060   21.9907   18.1473 H   0  0  0  0  0  0  0  0  0  0  0  0
    4.8951   21.9271   16.7202 H   0  0  0  0  0  0  0  0  0  0  0  0
    3.4782   23.0312   16.7202 H   0  0  0  0  0  0  0  0  0  0  0  0
    1.3210   22.2400   17.8510 H   0  0  0  0  0  0  0  0  0  0  0  0
   -2.2547   19.5881   19.4839 H   0  0  0  0  0  0  0  0  0  0  0  0
   -3.6160   17.0650   19.7460 H   0  0  0  0  0  0  0  0  0  0  0  0
  1  2  1  0
  2  3  1  0
  3  4  1  0
  4  5  1  0
  5  6  2  0
  6  7  1  0
  7  8  1  0
  8  9  2  0
  9 10  1  0
 10 11  1  0
  9 12  1  0
 12 13  1  0
 13 14  2  0
 13 15  1  0
 15 16  1  0
 16 17  2  0
 17 18  1  0
 18  3  2  0
 17  5  1  0
 15  7  2  0
  1 19  1  0
  1 20  1  0
  1 21  1  0
  2 22  1  0
  4 23  1  0
  6 24  1  0
  8 25  1  0
 10 26  1  0
 11 27  1  0
 11 28  1  0
 11 29  1  0
 12 30  1  0
 16 31  1  0
 18 32  1  0
M  CHG  2   8   1  18   1
M  END
>  <meeko>  (8) 
{"is_sidechain": [false], "free_energy": -6.362, "intermolecular_energy": -7.113, "internal_energy": -0.074}

$$$$
3rr4_ligand
     RDKit          3D

 32 34  0  0  0  0  0  0  0  0999 V2000
   -3.5900   12.3540   17.2710 C   0  0  0  0  0  0  0  0  0  0  0  0
   -2.1860   12.5630   17.5920 N   0  0  0  0  0  0  0  0  0  0  0  0
   -1.5930   13.7550   17.4650 C   0  0  0  0  0  0  0  0  0  0  0  0
   -1.6100   14.7620   18.3280 N   0  0  0  0  0  0  0  0  0  0  0  0
   -0.8840   15.8300   17.8480 C   0  0  0  0  0  0  0  0  0  0  0  0
   -0.6170   17.0880   18.3850 C   0  0  0  0  0  0  0  0  0  0  0  0
    0.1790   17.9370   17.5940 C   0  0  0  0  0  0  0  0  0  0  0  0
    0.4850   19.2340   18.0920 N   0  0  0  0  0  0  0  0  0  0  0  0
    1.2510   20.0970   17.3680 C   0  0  0  0  0  0  0  0  0  0  0  0
    1.5490   21.3300   17.8260 N   0  0  0  0  0  0  0  0  0  0  0  0
    0.6330   22.1900   18.5800 C   0  0  0  0  0  0  0  0  0  0  0  0
    1.7150   19.7070   16.1750 N   0  0  0  0  0  0  0  0  0  0  0  0
    1.4830   18.4580   15.5800 C   0  0  0  0  0  0  0  0  0  0  0  0
    1.9490   18.1970   14.4890 O   0  0  0  0  0  0  0  0  0  0  0  0
    0.6610   17.5120   16.3390 C   0  0  0  0  0  0  0  0  0  0  0  0
    0.3870   16.2370   15.8020 C   0  0  0  0  0  0  0  0  0  0  0  0
   -0.4010   15.4210   16.6030 C   0  0  0  0  0  0  0  0  0  0  0  0
   -0.8690   14.1390   16.4230 N   0  0  0  0  0  0  0  0  0  0  0  0
   -4.1700   12.2677   18.2017 H   0  0  0  0  0  0  0  0  0  0  0  0
   -3.9629   13.2065   16.6843 H   0  0  0  0  0  0  0  0  0  0  0  0
   -3.6984   11.4298   16.6843 H   0  0  0  0  0  0  0  0  0  0  0  0
   -1.6290   11.7840   17.9250 H   0  0  0  0  0  0  0  0  0  0  0  0
   -2.0990   14.7270   19.2160 H   0  0  0  0  0  0  0  0  0  0  0  0
   -1.0046   17.3981   19.3666 H   0  0  0  0  0  0  0  0  0  0  0  0
    0.1390   19.5420   18.9960 H   0  0  0  0  0  0  0  0  0  0  0  0
    2.4760   21.6980   17.6400 H   0  0  0  0  0  0  0  0  0  0  0  0
    0.7928   22.0399   19.6579 H   0  0  0  0  0  0  0  0  0  0  0  0
    0.8240   23.2426   18.3240 H   0  0  0  0  0  0  0  0  0  0  0  0
   -0.4055   21.9330   18.3240 H   0  0  0  0  0  0  0  0  0  0  0  0
    2.2860   20.3340   15.6230 H   0  0  0  0  0  0  0  0  0  0  0  0
    0.7687   15.9133   14.8225 H   0  0  0  0  0  0  0  0  0  0  0  0
   -0.6900   13.5600   15.6100 H   0  0  0  0  0  0  0  0  0  0  0  0
  1  2  1  0
  2  3  1  0
  3  4  1  0
  4  5  1  0
  5  6  2  0
  6  7  1  0
  7  8  1  0
  8  9  2  0
  9 10  1  0
 10 11  1  0
  9 12  1  0
 12 13  1  0
 13 14  2  0
 13 15  1  0
 15 16  1  0
 16 17  2  0
 17 18  1  0
 18  3  2  0
 17  5  1  0
 15  7  2  0
  1 19  1  0
  1 20  1  0
  1 21  1  0
  2 22  1  0
  4 23  1  0
  6 24  1  0
  8 25  1  0
 10 26  1  0
 11 27  1  0
 11 28  1  0
 11 29  1  0
 12 30  1  0
 16 31  1  0
 18 32  1  0
M  CHG  2   8   1  18   1
M  END
>  <meeko>  (9) 
{"is_sidechain": [false], "free_energy": -6.072, "intermolecular_energy": -6.789, "internal_energy": -0.075}

$$$$
