4ivb_ligand
     RDKit          3D

 42 45  0  0  0  0  0  0  0  0999 V2000
   -0.5850   -0.8850   10.9210 C   0  0  0  0  0  0  0  0  0  0  0  0
   -0.9960   -0.0560    9.7080 C   0  0  1  0  0  0  0  0  0  0  0  0
   -1.5740   -0.9260    8.7390 O   0  0  0  0  0  0  0  0  0  0  0  0
   -2.0160    0.9980   10.0340 C   0  0  0  0  0  0  0  0  0  0  0  0
   -3.0510    0.7770   10.8320 N   0  0  0  0  0  0  0  0  0  0  0  0
   -3.7760    1.9330   10.8500 C   0  0  0  0  0  0  0  0  0  0  0  0
   -4.9710    2.2690   11.5130 C   0  0  0  0  0  0  0  0  0  0  0  0
   -5.5690    3.4910   11.3830 N   0  0  0  0  0  0  0  0  0  0  0  0
   -4.9330    4.3440   10.5620 C   0  0  0  0  0  0  0  0  0  0  0  0
   -5.3190    5.6140   10.2400 N   0  0  0  0  0  0  0  0  0  0  0  0
   -4.4170    6.1590    9.3520 C   0  0  0  0  0  0  0  0  0  0  0  0
   -3.4240    5.2240    9.1010 C   0  0  0  0  0  0  0  0  0  0  0  0
   -3.7620    4.0910    9.8810 C   0  0  0  0  0  0  0  0  0  0  0  0
   -3.1680    2.8710   10.0410 C   0  0  0  0  0  0  0  0  0  0  0  0
   -2.0320    2.3110    9.5490 N   0  0  0  0  0  0  0  0  0  0  0  0
   -1.0570    2.9510    8.6690 C   0  0  2  0  0  0  0  0  0  0  0  0
   -1.0580    2.3340    7.2570 C   0  0  0  0  0  0  0  0  0  0  0  0
    0.2630    2.5360    6.5020 C   0  0  0  0  0  0  0  0  0  0  0  0
    0.9350    3.8840    6.8000 C   0  0  1  0  0  0  0  0  0  0  0  0
    0.1250    4.9920    6.2540 C   0  0  0  0  0  0  0  0  0  0  0  0
   -0.5330    5.8540    5.8440 N   0  0  0  0  0  0  0  0  0  0  0  0
    1.1840    4.0810    8.3090 C   0  0  0  0  0  0  0  0  0  0  0  0
    0.3720    3.1300    9.2030 C   0  0  0  0  0  0  0  0  0  0  0  0
   -0.8525   -0.3455   11.8415 H   0  0  0  0  0  0  0  0  0  0  0  0
   -1.1078   -1.8526   10.8980 H   0  0  0  0  0  0  0  0  0  0  0  0
    0.5016   -1.0547   10.8980 H   0  0  0  0  0  0  0  0  0  0  0  0
   -0.0900    0.4470    9.3391 H   0  0  0  0  0  0  0  0  0  0  0  0
   -1.5940   -1.8100    9.1500 H   0  0  0  0  0  0  0  0  0  0  0  0
   -5.4431    1.5172   12.1625 H   0  0  0  0  0  0  0  0  0  0  0  0
   -6.1500    6.0590   10.6020 H   0  0  0  0  0  0  0  0  0  0  0  0
   -4.4750    7.1670    8.9154 H   0  0  0  0  0  0  0  0  0  0  0  0
   -2.5557    5.3383    8.4355 H   0  0  0  0  0  0  0  0  0  0  0  0
   -1.4324    3.9839    8.6209 H   0  0  0  0  0  0  0  0  0  0  0  0
   -1.2455    1.2540    7.3487 H   0  0  0  0  0  0  0  0  0  0  0  0
   -1.8429    2.8450    6.6801 H   0  0  0  0  0  0  0  0  0  0  0  0
    0.9551    1.7304    6.7883 H   0  0  0  0  0  0  0  0  0  0  0  0
    0.0288    2.5201    5.4273 H   0  0  0  0  0  0  0  0  0  0  0  0
    1.9176    3.8841    6.3056 H   0  0  0  0  0  0  0  0  0  0  0  0
    2.2531    3.9155    8.5082 H   0  0  0  0  0  0  0  0  0  0  0  0
    0.8622    5.1037    8.5551 H   0  0  0  0  0  0  0  0  0  0  0  0
    0.8704    2.1498    9.2301 H   0  0  0  0  0  0  0  0  0  0  0  0
    0.3151    3.5640   10.2122 H   0  0  0  0  0  0  0  0  0  0  0  0
  1  2  1  0
  2  3  1  0
  2  4  1  0
  4  5  2  0
  5  6  1  0
  6  7  2  0
  7  8  1  0
  8  9  2  0
  9 10  1  0
 10 11  1  0
 11 12  2  0
 12 13  1  0
 13 14  2  0
 14 15  1  0
 15 16  1  0
 16 17  1  0
 17 18  1  0
 18 19  1  0
 19 20  1  0
 20 21  3  0
 19 22  1  0
 22 23  1  0
 15  4  1  0
 23 16  1  0
 14  6  1  0
 13  9  1  0
  1 24  1  0
  1 25  1  0
  1 26  1  0
  2 27  1  6
  3 28  1  0
  7 29  1  0
 10 30  1  0
 11 31  1  0
 12 32  1  0
 16 33  1  1
 17 34  1  0
 17 35  1  0
 18 36  1  0
 18 37  1  0
 19 38  1  1
 22 39  1  0
 22 40  1  0
 23 41  1  0
 23 42  1  0
M  END
>  <meeko>  (1) 
{"is_sidechain": [false], "free_energy": -8.364, "intermolecular_energy": -9.587, "internal_energy": -0.662}

$$$$
4ivb_ligand
     RDKit          3D

 42 45  0  0  0  0  0  0  0  0999 V2000
   -5.1640    0.9760   12.4900 C   0  0  0  0  0  0  0  0  0  0  0  0
   -4.1190    1.0090   11.3780 C   0  0  1  0  0  0  0  0  0  0  0  0
   -4.5490    0.1480   10.3270 O   0  0  0  0  0  0  0  0  0  0  0  0
   -3.9270    2.3780   10.7910 C   0  0  0  0  0  0  0  0  0  0  0  0
   -4.8680    3.3110   10.8140 N   0  0  0  0  0  0  0  0  0  0  0  0
   -4.3580    4.3890   10.1510 C   0  0  0  0  0  0  0  0  0  0  0  0
   -4.9130    5.6480    9.8590 C   0  0  0  0  0  0  0  0  0  0  0  0
   -4.2440    6.6030    9.1470 N   0  0  0  0  0  0  0  0  0  0  0  0
   -3.0170    6.2420    8.7350 C   0  0  0  0  0  0  0  0  0  0  0  0
   -2.1460    6.9900    7.9950 N   0  0  0  0  0  0  0  0  0  0  0  0
   -1.0010    6.2630    7.7570 C   0  0  0  0  0  0  0  0  0  0  0  0
   -1.1310    5.0220    8.3600 C   0  0  0  0  0  0  0  0  0  0  0  0
   -2.4050    5.0320    8.9810 C   0  0  0  0  0  0  0  0  0  0  0  0
   -3.0810    4.0970    9.7130 C   0  0  0  0  0  0  0  0  0  0  0  0
   -2.7770    2.8460   10.1440 N   0  0  0  0  0  0  0  0  0  0  0  0
   -1.5170    2.1370    9.9380 C   0  0  2  0  0  0  0  0  0  0  0  0
   -1.5970    1.1420    8.7640 C   0  0  0  0  0  0  0  0  0  0  0  0
   -0.5700    0.0050    8.8560 C   0  0  0  0  0  0  0  0  0  0  0  0
    0.7720    0.4440    9.4600 C   0  0  1  0  0  0  0  0  0  0  0  0
    1.4640    1.3770    8.5470 C   0  0  0  0  0  0  0  0  0  0  0  0
    1.9850    2.1280    7.8340 N   0  0  0  0  0  0  0  0  0  0  0  0
    0.5950    1.0750   10.8550 C   0  0  0  0  0  0  0  0  0  0  0  0
   -0.8480    1.5020   11.1660 C   0  0  0  0  0  0  0  0  0  0  0  0
   -4.6598    0.9919   13.4675 H   0  0  0  0  0  0  0  0  0  0  0  0
   -5.8210    1.8538   12.4019 H   0  0  0  0  0  0  0  0  0  0  0  0
   -5.7643    0.0585   12.4019 H   0  0  0  0  0  0  0  0  0  0  0  0
   -3.1643    0.6913   11.8226 H   0  0  0  0  0  0  0  0  0  0  0  0
   -3.8600    0.1980    9.6400 H   0  0  0  0  0  0  0  0  0  0  0  0
   -5.9278    5.8730   10.2188 H   0  0  0  0  0  0  0  0  0  0  0  0
   -2.3410    7.9280    7.6740 H   0  0  0  0  0  0  0  0  0  0  0  0
   -0.1285    6.6096    7.1837 H   0  0  0  0  0  0  0  0  0  0  0  0
   -0.3988    4.2011    8.3572 H   0  0  0  0  0  0  0  0  0  0  0  0
   -0.8312    2.9581    9.6821 H   0  0  0  0  0  0  0  0  0  0  0  0
   -2.6046    0.7010    8.7490 H   0  0  0  0  0  0  0  0  0  0  0  0
   -1.3754    1.7056    7.8457 H   0  0  0  0  0  0  0  0  0  0  0  0
   -0.9901   -0.7947    9.4837 H   0  0  0  0  0  0  0  0  0  0  0  0
   -0.3688   -0.3353    7.8295 H   0  0  0  0  0  0  0  0  0  0  0  0
    1.3920   -0.4557    9.5865 H   0  0  0  0  0  0  0  0  0  0  0  0
    0.9091    0.3396   11.6103 H   0  0  0  0  0  0  0  0  0  0  0  0
    1.2092    1.9874   10.8733 H   0  0  0  0  0  0  0  0  0  0  0  0
   -1.4258    0.6174   11.4719 H   0  0  0  0  0  0  0  0  0  0  0  0
   -0.8237    2.2482   11.9738 H   0  0  0  0  0  0  0  0  0  0  0  0
  1  2  1  0
  2  3  1  0
  2  4  1  0
  4  5  2  0
  5  6  1  0
  6  7  2  0
  7  8  1  0
  8  9  2  0
  9 10  1  0
 10 11  1  0
 11 12  2  0
 12 13  1  0
 13 14  2  0
 14 15  1  0
 15 16  1  0
 16 17  1  0
 17 18  1  0
 18 19  1  0
 19 20  1  0
 20 21  3  0
 19 22  1  0
 22 23  1  0
 15  4  1  0
 23 16  1  0
 14  6  1  0
 13  9  1  0
  1 24  1  0
  1 25  1  0
  1 26  1  0
  2 27  1  1
  3 28  1  0
  7 29  1  0
 10 30  1  0
 11 31  1  0
 12 32  1  0
 16 33  1  1
 17 34  1  0
 17 35  1  0
 18 36  1  0
 18 37  1  0
 19 38  1  6
 22 39  1  0
 22 40  1  0
 23 41  1  0
 23 42  1  0
M  END
>  <meeko>  (2) 
{"is_sidechain": [false], "free_energy": -8.223, "intermolecular_energy": -9.454, "internal_energy": -0.633}

$$$$
4ivb_ligand
     RDKit          3D

 42 45  0  0  0  0  0  0  0  0999 V2000
   -1.4190   -1.5710   11.7420 C   0  0  0  0  0  0  0  0  0  0  0  0
   -1.8390   -1.1530   10.3360 C   0  0  1  0  0  0  0  0  0  0  0  0
   -2.8690   -2.0310    9.8900 O   0  0  0  0  0  0  0  0  0  0  0  0
   -2.3810    0.2460   10.2750 C   0  0  0  0  0  0  0  0  0  0  0  0
   -3.6460    0.5410   10.5380 N   0  0  0  0  0  0  0  0  0  0  0  0
   -3.7790    1.8840   10.3340 C   0  0  0  0  0  0  0  0  0  0  0  0
   -4.8930    2.7350   10.4490 C   0  0  0  0  0  0  0  0  0  0  0  0
   -4.8350    4.0710   10.1680 N   0  0  0  0  0  0  0  0  0  0  0  0
   -3.6300    4.5080    9.7620 C   0  0  0  0  0  0  0  0  0  0  0  0
   -3.2990    5.7830    9.4030 N   0  0  0  0  0  0  0  0  0  0  0  0
   -1.9740    5.8260    9.0260 C   0  0  0  0  0  0  0  0  0  0  0  0
   -1.4370    4.5550    9.1510 C   0  0  0  0  0  0  0  0  0  0  0  0
   -2.4940    3.7400    9.6270 C   0  0  0  0  0  0  0  0  0  0  0  0
   -2.5680    2.4100    9.9320 C   0  0  0  0  0  0  0  0  0  0  0  0
   -1.6630    1.3970    9.9290 N   0  0  0  0  0  0  0  0  0  0  0  0
   -0.2440    1.4990    9.5980 C   0  0  2  0  0  0  0  0  0  0  0  0
    0.0630    0.9560    8.1890 C   0  0  0  0  0  0  0  0  0  0  0  0
    1.5200    0.5090    8.0110 C   0  0  0  0  0  0  0  0  0  0  0  0
    2.5230    1.3780    8.7830 C   0  0  1  0  0  0  0  0  0  0  0  0
    2.5720    2.7380    8.2080 C   0  0  0  0  0  0  0  0  0  0  0  0
    2.5820    3.8090    7.7630 N   0  0  0  0  0  0  0  0  0  0  0  0
    2.1950    1.4330   10.2890 C   0  0  0  0  0  0  0  0  0  0  0  0
    0.7670    0.9800   10.6310 C   0  0  0  0  0  0  0  0  0  0  0  0
   -1.9955   -0.9973   12.4827 H   0  0  0  0  0  0  0  0  0  0  0  0
   -1.6129   -2.6451   11.8785 H   0  0  0  0  0  0  0  0  0  0  0  0
   -0.3458   -1.3719   11.8785 H   0  0  0  0  0  0  0  0  0  0  0  0
   -0.9397   -1.1993    9.7043 H   0  0  0  0  0  0  0  0  0  0  0  0
   -2.6410   -2.9120   10.2420 H   0  0  0  0  0  0  0  0  0  0  0  0
   -5.8511    2.3071   10.7790 H   0  0  0  0  0  0  0  0  0  0  0  0
   -3.9480    6.5580    9.4090 H   0  0  0  0  0  0  0  0  0  0  0  0
   -1.4331    6.7203    8.6831 H   0  0  0  0  0  0  0  0  0  0  0  0
   -0.4059    4.2437    8.9275 H   0  0  0  0  0  0  0  0  0  0  0  0
   -0.0810    2.5866    9.6197 H   0  0  0  0  0  0  0  0  0  0  0  0
   -0.5920    0.0932    7.9977 H   0  0  0  0  0  0  0  0  0  0  0  0
   -0.1130    1.7779    7.4794 H   0  0  0  0  0  0  0  0  0  0  0  0
    1.6123   -0.5283    8.3653 H   0  0  0  0  0  0  0  0  0  0  0  0
    1.7613    0.6063    6.9422 H   0  0  0  0  0  0  0  0  0  0  0  0
    3.5149    0.9132    8.6824 H   0  0  0  0  0  0  0  0  0  0  0  0
    2.9025    0.7806   10.8218 H   0  0  0  0  0  0  0  0  0  0  0  0
    2.2787    2.4859   10.5963 H   0  0  0  0  0  0  0  0  0  0  0  0
    0.7332   -0.1194   10.6448 H   0  0  0  0  0  0  0  0  0  0  0  0
    0.4988    1.3893   11.6162 H   0  0  0  0  0  0  0  0  0  0  0  0
  1  2  1  0
  2  3  1  0
  2  4  1  0
  4  5  2  0
  5  6  1  0
  6  7  2  0
  7  8  1  0
  8  9  2  0
  9 10  1  0
 10 11  1  0
 11 12  2  0
 12 13  1  0
 13 14  2  0
 14 15  1  0
 15 16  1  0
 16 17  1  0
 17 18  1  0
 18 19  1  0
 19 20  1  0
 20 21  3  0
 19 22  1  0
 22 23  1  0
 15  4  1  0
 23 16  1  0
 14  6  1  0
 13  9  1  0
  1 24  1  0
  1 25  1  0
  1 26  1  0
  2 27  1  6
  3 28  1  0
  7 29  1  0
 10 30  1  0
 11 31  1  0
 12 32  1  0
 16 33  1  1
 17 34  1  0
 17 35  1  0
 18 36  1  0
 18 37  1  0
 19 38  1  6
 22 39  1  0
 22 40  1  0
 23 41  1  0
 23 42  1  0
M  END
>  <meeko>  (3) 
{"is_sidechain": [false], "free_energy": -8.204, "intermolecular_energy": -9.435, "internal_energy": -0.63}

$$$$
4ivb_ligand
     RDKit          3D

 42 45  0  0  0  0  0  0  0  0999 V2000
    0.6120    5.0880    6.4550 C   0  0  0  0  0  0  0  0  0  0  0  0
    0.5460    4.6450    7.9140 C   0  0  1  0  0  0  0  0  0  0  0  0
    1.3580    5.5210    8.6910 O   0  0  0  0  0  0  0  0  0  0  0  0
   -0.8430    4.6950    8.4820 C   0  0  0  0  0  0  0  0  0  0  0  0
   -1.6200    5.7650    8.3940 N   0  0  0  0  0  0  0  0  0  0  0  0
   -2.7720    5.4600    9.0600 C   0  0  0  0  0  0  0  0  0  0  0  0
   -3.9350    6.2150    9.2980 C   0  0  0  0  0  0  0  0  0  0  0  0
   -4.9900    5.7380   10.0230 N   0  0  0  0  0  0  0  0  0  0  0  0
   -4.8270    4.4930   10.5020 C   0  0  0  0  0  0  0  0  0  0  0  0
   -5.7100    3.7860   11.2670 N   0  0  0  0  0  0  0  0  0  0  0  0
   -5.1700    2.5570   11.5760 C   0  0  0  0  0  0  0  0  0  0  0  0
   -3.9160    2.4640   10.9920 C   0  0  0  0  0  0  0  0  0  0  0  0
   -3.7220    3.6910   10.3100 C   0  0  0  0  0  0  0  0  0  0  0  0
   -2.6860    4.1780    9.5650 C   0  0  0  0  0  0  0  0  0  0  0  0
   -1.4910    3.6640    9.1750 N   0  0  0  0  0  0  0  0  0  0  0  0
   -0.9870    2.3230    9.4570 C   0  0  2  0  0  0  0  0  0  0  0  0
   -0.0920    2.2920   10.7110 C   0  0  0  0  0  0  0  0  0  0  0  0
    0.8920    1.1140   10.7290 C   0  0  0  0  0  0  0  0  0  0  0  0
    0.3210   -0.1680   10.1070 C   0  0  1  0  0  0  0  0  0  0  0  0
   -0.7740   -0.7000   10.9450 C   0  0  0  0  0  0  0  0  0  0  0  0
   -1.6480   -1.0930   11.5970 N   0  0  0  0  0  0  0  0  0  0  0  0
   -0.1610    0.0620    8.6600 C   0  0  0  0  0  0  0  0  0  0  0  0
   -0.3530    1.5420    8.2950 C   0  0  0  0  0  0  0  0  0  0  0  0
    0.7740    6.1750    6.4088 H   0  0  0  0  0  0  0  0  0  0  0  0
    1.4431    4.5718    5.9523 H   0  0  0  0  0  0  0  0  0  0  0  0
   -0.3335    4.8365    5.9523 H   0  0  0  0  0  0  0  0  0  0  0  0
    0.8929    3.6017    7.9500 H   0  0  0  0  0  0  0  0  0  0  0  0
    2.2480    5.1230    8.7020 H   0  0  0  0  0  0  0  0  0  0  0  0
   -3.9974    7.2318    8.8830 H   0  0  0  0  0  0  0  0  0  0  0  0
   -6.6100    4.1390   11.5600 H   0  0  0  0  0  0  0  0  0  0  0  0
   -5.6533    1.7788   12.1849 H   0  0  0  0  0  0  0  0  0  0  0  0
   -3.2180    1.6156   11.0466 H   0  0  0  0  0  0  0  0  0  0  0  0
   -1.9147    1.7645    9.6508 H   0  0  0  0  0  0  0  0  0  0  0  0
    0.4842    3.2282   10.7513 H   0  0  0  0  0  0  0  0  0  0  0  0
   -0.7554    2.1741   11.5805 H   0  0  0  0  0  0  0  0  0  0  0  0
    1.7921    1.4032   10.1668 H   0  0  0  0  0  0  0  0  0  0  0  0
    1.1132    0.8922   11.7835 H   0  0  0  0  0  0  0  0  0  0  0  0
    1.1315   -0.9106   10.0665 H   0  0  0  0  0  0  0  0  0  0  0  0
    0.5829   -0.3700    7.9745 H   0  0  0  0  0  0  0  0  0  0  0  0
   -1.1464   -0.4188    8.5718 H   0  0  0  0  0  0  0  0  0  0  0  0
    0.6264    1.9832    8.0582 H   0  0  0  0  0  0  0  0  0  0  0  0
   -1.0256    1.6023    7.4266 H   0  0  0  0  0  0  0  0  0  0  0  0
  1  2  1  0
  2  3  1  0
  2  4  1  0
  4  5  2  0
  5  6  1  0
  6  7  2  0
  7  8  1  0
  8  9  2  0
  9 10  1  0
 10 11  1  0
 11 12  2  0
 12 13  1  0
 13 14  2  0
 14 15  1  0
 15 16  1  0
 16 17  1  0
 17 18  1  0
 18 19  1  0
 19 20  1  0
 20 21  3  0
 19 22  1  0
 22 23  1  0
 15  4  1  0
 23 16  1  0
 14  6  1  0
 13  9  1  0
  1 24  1  0
  1 25  1  0
  1 26  1  0
  2 27  1  6
  3 28  1  0
  7 29  1  0
 10 30  1  0
 11 31  1  0
 12 32  1  0
 16 33  1  6
 17 34  1  0
 17 35  1  0
 18 36  1  0
 18 37  1  0
 19 38  1  1
 22 39  1  0
 22 40  1  0
 23 41  1  0
 23 42  1  0
M  END
>  <meeko>  (4) 
{"is_sidechain": [false], "free_energy": -8.096, "intermolecular_energy": -9.355, "internal_energy": -0.586}

$$$$
4ivb_ligand
     RDKit          3D

 42 45  0  0  0  0  0  0  0  0999 V2000
   -3.8190    0.4400    9.8920 C   0  0  0  0  0  0  0  0  0  0  0  0
   -2.7470    1.5000    9.6520 C   0  0  1  0  0  0  0  0  0  0  0  0
   -2.9440    2.5610   10.5830 O   0  0  0  0  0  0  0  0  0  0  0  0
   -1.3510    0.9810    9.8480 C   0  0  0  0  0  0  0  0  0  0  0  0
   -1.0710   -0.0600   10.6180 N   0  0  0  0  0  0  0  0  0  0  0  0
    0.2860   -0.2040   10.5920 C   0  0  0  0  0  0  0  0  0  0  0  0
    1.1350   -1.1270   11.2300 C   0  0  0  0  0  0  0  0  0  0  0  0
    2.4950   -1.0920   11.1010 N   0  0  0  0  0  0  0  0  0  0  0  0
    2.9610   -0.0980   10.3250 C   0  0  0  0  0  0  0  0  0  0  0  0
    4.2680    0.1790   10.0430 N   0  0  0  0  0  0  0  0  0  0  0  0
    4.3400    1.2890    9.2310 C   0  0  0  0  0  0  0  0  0  0  0  0
    3.0520    1.7360    8.9770 C   0  0  0  0  0  0  0  0  0  0  0  0
    2.1960    0.8410    9.6670 C   0  0  0  0  0  0  0  0  0  0  0  0
    0.8370    0.7770    9.7920 C   0  0  0  0  0  0  0  0  0  0  0  0
   -0.1860    1.5090    9.2800 N   0  0  0  0  0  0  0  0  0  0  0  0
   -0.0730    2.6340    8.3560 C   0  0  2  0  0  0  0  0  0  0  0  0
   -0.2990    3.9870    9.0590 C   0  0  0  0  0  0  0  0  0  0  0  0
   -0.7560    5.1010    8.1070 C   0  0  0  0  0  0  0  0  0  0  0  0
   -0.1260    5.0060    6.7100 C   0  0  1  0  0  0  0  0  0  0  0  0
    1.3250    5.2750    6.7830 C   0  0  0  0  0  0  0  0  0  0  0  0
    2.4670    5.4620    6.8580 N   0  0  0  0  0  0  0  0  0  0  0  0
   -0.3960    3.6390    6.0500 C   0  0  0  0  0  0  0  0  0  0  0  0
   -0.8530    2.5510    7.0350 C   0  0  0  0  0  0  0  0  0  0  0  0
   -3.9605    0.3000   10.9738 H   0  0  0  0  0  0  0  0  0  0  0  0
   -4.7660    0.7667    9.4375 H   0  0  0  0  0  0  0  0  0  0  0  0
   -3.5030   -0.5106    9.4375 H   0  0  0  0  0  0  0  0  0  0  0  0
   -2.8457    1.8282    8.6067 H   0  0  0  0  0  0  0  0  0  0  0  0
   -2.8220    2.1690   11.4670 H   0  0  0  0  0  0  0  0  0  0  0  0
    0.6852   -1.9094   11.8589 H   0  0  0  0  0  0  0  0  0  0  0  0
    5.0470   -0.3580   10.3990 H   0  0  0  0  0  0  0  0  0  0  0  0
    5.2648    1.7450    8.8478 H   0  0  0  0  0  0  0  0  0  0  0  0
    2.7566    2.6031    8.3680 H   0  0  0  0  0  0  0  0  0  0  0  0
    0.9742    2.5577    8.0282 H   0  0  0  0  0  0  0  0  0  0  0  0
   -1.0685    3.8530    9.8335 H   0  0  0  0  0  0  0  0  0  0  0  0
    0.6676    4.2981    9.4819 H   0  0  0  0  0  0  0  0  0  0  0  0
   -1.8493    5.0424    8.0011 H   0  0  0  0  0  0  0  0  0  0  0  0
   -0.4312    6.0562    8.5453 H   0  0  0  0  0  0  0  0  0  0  0  0
   -0.5985    5.7717    6.0772 H   0  0  0  0  0  0  0  0  0  0  0  0
   -1.1807    3.7702    5.2904 H   0  0  0  0  0  0  0  0  0  0  0  0
    0.5570    3.2991    5.6185 H   0  0  0  0  0  0  0  0  0  0  0  0
   -1.9252    2.6825    7.2426 H   0  0  0  0  0  0  0  0  0  0  0  0
   -0.6636    1.5676    6.5800 H   0  0  0  0  0  0  0  0  0  0  0  0
  1  2  1  0
  2  3  1  0
  2  4  1  0
  4  5  2  0
  5  6  1  0
  6  7  2  0
  7  8  1  0
  8  9  2  0
  9 10  1  0
 10 11  1  0
 11 12  2  0
 12 13  1  0
 13 14  2  0
 14 15  1  0
 15 16  1  0
 16 17  1  0
 17 18  1  0
 18 19  1  0
 19 20  1  0
 20 21  3  0
 19 22  1  0
 22 23  1  0
 15  4  1  0
 23 16  1  0
 14  6  1  0
 13  9  1  0
  1 24  1  0
  1 25  1  0
  1 26  1  0
  2 27  1  6
  3 28  1  0
  7 29  1  0
 10 30  1  0
 11 31  1  0
 12 32  1  0
 16 33  1  1
 17 34  1  0
 17 35  1  0
 18 36  1  0
 18 37  1  0
 19 38  1  1
 22 39  1  0
 22 40  1  0
 23 41  1  0
 23 42  1  0
M  END
>  <meeko>  (5) 
{"is_sidechain": [false], "free_energy": -7.755, "intermolecular_energy": -8.927, "internal_energy": -0.624}

$$$$
4ivb_ligand
     RDKit          3D

 42 45  0  0  0  0  0  0  0  0999 V2000
    2.4250    1.6600    9.4350 C   0  0  0  0  0  0  0  0  0  0  0  0
    1.8580    2.3770    8.2130 C   0  0  1  0  0  0  0  0  0  0  0  0
    1.5990    1.4090    7.2000 O   0  0  0  0  0  0  0  0  0  0  0  0
    0.5660    3.0900    8.4960 C   0  0  0  0  0  0  0  0  0  0  0  0
    0.3730    4.3700    8.2130 N   0  0  0  0  0  0  0  0  0  0  0  0
   -0.8830    4.6750    8.6520 C   0  0  0  0  0  0  0  0  0  0  0  0
   -1.6090    5.8810    8.6270 C   0  0  0  0  0  0  0  0  0  0  0  0
   -2.8650    5.9980    9.1510 N   0  0  0  0  0  0  0  0  0  0  0  0
   -3.3510    4.8740    9.7040 C   0  0  0  0  0  0  0  0  0  0  0  0
   -4.5640    4.7160   10.3110 N   0  0  0  0  0  0  0  0  0  0  0  0
   -4.6850    3.4230   10.7710 C   0  0  0  0  0  0  0  0  0  0  0  0
   -3.5300    2.7280   10.4480 C   0  0  0  0  0  0  0  0  0  0  0  0
   -2.7050    3.6580    9.7660 C   0  0  0  0  0  0  0  0  0  0  0  0
   -1.4580    3.5550    9.2180 C   0  0  0  0  0  0  0  0  0  0  0  0
   -0.5720    2.5330    9.0910 N   0  0  0  0  0  0  0  0  0  0  0  0
   -0.7700    1.1510    9.5220 C   0  0  2  0  0  0  0  0  0  0  0  0
   -1.8830    0.4480    8.7210 C   0  0  0  0  0  0  0  0  0  0  0  0
   -2.5160   -0.7360    9.4660 C   0  0  0  0  0  0  0  0  0  0  0  0
   -1.5150   -1.5190   10.3270 C   0  0  1  0  0  0  0  0  0  0  0  0
   -0.5350   -2.2160    9.4680 C   0  0  0  0  0  0  0  0  0  0  0  0
    0.2430   -2.7370    8.7840 N   0  0  0  0  0  0  0  0  0  0  0  0
   -0.7990   -0.6100   11.3460 C   0  0  0  0  0  0  0  0  0  0  0  0
   -0.9120    0.8900   11.0290 C   0  0  0  0  0  0  0  0  0  0  0  0
    2.0461    2.1391   10.3498 H   0  0  0  0  0  0  0  0  0  0  0  0
    2.1143    0.6049    9.4180 H   0  0  0  0  0  0  0  0  0  0  0  0
    3.5233    1.7191    9.4180 H   0  0  0  0  0  0  0  0  0  0  0  0
    2.6020    3.1261    7.9042 H   0  0  0  0  0  0  0  0  0  0  0  0
    2.3390    1.4770    6.5680 H   0  0  0  0  0  0  0  0  0  0  0  0
   -1.1455    6.7658    8.1663 H   0  0  0  0  0  0  0  0  0  0  0  0
   -5.2470    5.4550   10.4070 H   0  0  0  0  0  0  0  0  0  0  0  0
   -5.5535    3.0108   11.3056 H   0  0  0  0  0  0  0  0  0  0  0  0
   -3.3014    1.6759   10.6734 H   0  0  0  0  0  0  0  0  0  0  0  0
    0.2017    0.6936    9.2840 H   0  0  0  0  0  0  0  0  0  0  0  0
   -2.6713    1.1829    8.5007 H   0  0  0  0  0  0  0  0  0  0  0  0
   -1.4211    0.0468    7.8068 H   0  0  0  0  0  0  0  0  0  0  0  0
   -3.3124   -0.3511   10.1200 H   0  0  0  0  0  0  0  0  0  0  0  0
   -2.9025   -1.4298    8.7049 H   0  0  0  0  0  0  0  0  0  0  0  0
   -2.0816   -2.2674   10.9005 H   0  0  0  0  0  0  0  0  0  0  0  0
   -1.2387   -0.7885   12.3384 H   0  0  0  0  0  0  0  0  0  0  0  0
    0.2702   -0.8654   11.3060 H   0  0  0  0  0  0  0  0  0  0  0  0
   -1.8936    1.2550   11.3655 H   0  0  0  0  0  0  0  0  0  0  0  0
   -0.1016    1.4188   11.5522 H   0  0  0  0  0  0  0  0  0  0  0  0
  1  2  1  0
  2  3  1  0
  2  4  1  0
  4  5  2  0
  5  6  1  0
  6  7  2  0
  7  8  1  0
  8  9  2  0
  9 10  1  0
 10 11  1  0
 11 12  2  0
 12 13  1  0
 13 14  2  0
 14 15  1  0
 15 16  1  0
 16 17  1  0
 17 18  1  0
 18 19  1  0
 19 20  1  0
 20 21  3  0
 19 22  1  0
 22 23  1  0
 15  4  1  0
 23 16  1  0
 14  6  1  0
 13  9  1  0
  1 24  1  0
  1 25  1  0
  1 26  1  0
  2 27  1  6
  3 28  1  0
  7 29  1  0
 10 30  1  0
 11 31  1  0
 12 32  1  0
 16 33  1  1
 17 34  1  0
 17 35  1  0
 18 36  1  0
 18 37  1  0
 19 38  1  6
 22 39  1  0
 22 40  1  0
 23 41  1  0
 23 42  1  0
M  END
>  <meeko>  (6) 
{"is_sidechain": [false], "free_energy": -7.624, "intermolecular_energy": -9.301, "internal_energy": -0.098}

$$$$
4ivb_ligand
     RDKit          3D

 42 45  0  0  0  0  0  0  0  0999 V2000
   -0.6840    5.4680    7.9900 C   0  0  0  0  0  0  0  0  0  0  0  0
   -0.1260    4.3420    7.1260 C   0  0  1  0  0  0  0  0  0  0  0  0
    0.6640    4.9160    6.0880 O   0  0  0  0  0  0  0  0  0  0  0  0
    0.7530    3.3940    7.8900 C   0  0  0  0  0  0  0  0  0  0  0  0
    2.0750    3.3950    7.7870 N   0  0  0  0  0  0  0  0  0  0  0  0
    2.5230    2.3760    8.5770 C   0  0  0  0  0  0  0  0  0  0  0  0
    3.8230    1.9080    8.8420 C   0  0  0  0  0  0  0  0  0  0  0  0
    4.0720    0.8380    9.6540 N   0  0  0  0  0  0  0  0  0  0  0  0
    2.9770    0.2580   10.1730 C   0  0  0  0  0  0  0  0  0  0  0  0
    2.9360   -0.8320   10.9950 N   0  0  0  0  0  0  0  0  0  0  0  0
    1.6260   -1.1350   11.2940 C   0  0  0  0  0  0  0  0  0  0  0  0
    0.8030   -0.2200   10.6580 C   0  0  0  0  0  0  0  0  0  0  0  0
    1.6740    0.6570    9.9640 C   0  0  0  0  0  0  0  0  0  0  0  0
    1.4460    1.7430    9.1650 C   0  0  0  0  0  0  0  0  0  0  0  0
    0.3230    2.3980    8.7750 N   0  0  0  0  0  0  0  0  0  0  0  0
   -1.0480    2.0930    9.1780 C   0  0  2  0  0  0  0  0  0  0  0  0
   -1.3340    2.5240   10.6300 C   0  0  0  0  0  0  0  0  0  0  0  0
   -2.4900    1.7500   11.2790 C   0  0  0  0  0  0  0  0  0  0  0  0
   -3.6170    1.4000   10.2970 C   0  0  1  0  0  0  0  0  0  0  0  0
   -4.3120    2.6280    9.8560 C   0  0  0  0  0  0  0  0  0  0  0  0
   -4.8310    3.6000    9.4980 N   0  0  0  0  0  0  0  0  0  0  0  0
   -3.0960    0.6010    9.0850 C   0  0  0  0  0  0  0  0  0  0  0  0
   -1.5730    0.6760    8.8990 C   0  0  0  0  0  0  0  0  0  0  0  0
   -0.5573    5.2123    9.0523 H   0  0  0  0  0  0  0  0  0  0  0  0
   -0.1439    6.4008    7.7704 H   0  0  0  0  0  0  0  0  0  0  0  0
   -1.7534    5.6032    7.7704 H   0  0  0  0  0  0  0  0  0  0  0  0
   -0.9862    3.7752    6.7403 H   0  0  0  0  0  0  0  0  0  0  0  0
    1.1160    5.6820    6.4870 H   0  0  0  0  0  0  0  0  0  0  0  0
    4.6746    2.4253    8.3759 H   0  0  0  0  0  0  0  0  0  0  0  0
    3.7570   -1.3290   11.3120 H   0  0  0  0  0  0  0  0  0  0  0  0
    1.2893   -1.9655   11.9318 H   0  0  0  0  0  0  0  0  0  0  0  0
   -0.2960   -0.1820   10.6857 H   0  0  0  0  0  0  0  0  0  0  0  0
   -1.6357    2.7131    8.4851 H   0  0  0  0  0  0  0  0  0  0  0  0
   -0.4254    2.3599   11.2279 H   0  0  0  0  0  0  0  0  0  0  0  0
   -1.6277    3.5837   10.6024 H   0  0  0  0  0  0  0  0  0  0  0  0
   -2.0910    0.8151   11.6993 H   0  0  0  0  0  0  0  0  0  0  0  0
   -2.9236    2.4018   12.0518 H   0  0  0  0  0  0  0  0  0  0  0  0
   -4.3342    0.7557   10.8267 H   0  0  0  0  0  0  0  0  0  0  0  0
   -3.3772   -0.4540    9.2187 H   0  0  0  0  0  0  0  0  0  0  0  0
   -3.5499    1.0483    8.1884 H   0  0  0  0  0  0  0  0  0  0  0  0
   -1.0916   -0.0282    9.5936 H   0  0  0  0  0  0  0  0  0  0  0  0
   -1.3362    0.4159    7.8568 H   0  0  0  0  0  0  0  0  0  0  0  0
  1  2  1  0
  2  3  1  0
  2  4  1  0
  4  5  2  0
  5  6  1  0
  6  7  2  0
  7  8  1  0
  8  9  2  0
  9 10  1  0
 10 11  1  0
 11 12  2  0
 12 13  1  0
 13 14  2  0
 14 15  1  0
 15 16  1  0
 16 17  1  0
 17 18  1  0
 18 19  1  0
 19 20  1  0
 20 21  3  0
 19 22  1  0
 22 23  1  0
 15  4  1  0
 23 16  1  0
 14  6  1  0
 13  9  1  0
  1 24  1  0
  1 25  1  0
  1 26  1  0
  2 27  1  6
  3 28  1  0
  7 29  1  0
 10 30  1  0
 11 31  1  0
 12 32  1  0
 16 33  1  1
 17 34  1  0
 17 35  1  0
 18 36  1  0
 18 37  1  0
 19 38  1  6
 22 39  1  0
 22 40  1  0
 23 41  1  0
 23 42  1  0
M  END
>  <meeko>  (7) 
{"is_sidechain": [false], "free_energy": -7.425, "intermolecular_energy": -8.901, "internal_energy": -0.271}

$$$$
4ivb_ligand
     RDKit          3D

 42 45  0  0  0  0  0  0  0  0999 V2000
   -1.9520   -3.7010    9.4460 C   0  0  0  0  0  0  0  0  0  0  0  0
   -1.7070   -2.2120    9.6750 C   0  0  1  0  0  0  0  0  0  0  0  0
   -1.9480   -1.9190   11.0490 O   0  0  0  0  0  0  0  0  0  0  0  0
   -0.2990   -1.7920    9.3640 C   0  0  0  0  0  0  0  0  0  0  0  0
    0.6570   -2.6540    9.0480 N   0  0  0  0  0  0  0  0  0  0  0  0
    1.7970   -1.9220    8.8860 C   0  0  0  0  0  0  0  0  0  0  0  0
    3.1100   -2.3080    8.5610 C   0  0  0  0  0  0  0  0  0  0  0  0
    4.1410   -1.4160    8.4700 N   0  0  0  0  0  0  0  0  0  0  0  0
    3.8060   -0.1400    8.7280 C   0  0  0  0  0  0  0  0  0  0  0  0
    4.6380    0.9440    8.7260 N   0  0  0  0  0  0  0  0  0  0  0  0
    3.9230    2.0730    9.0600 C   0  0  0  0  0  0  0  0  0  0  0  0
    2.6020    1.7140    9.2750 C   0  0  0  0  0  0  0  0  0  0  0  0
    2.5460    0.3160    9.0500 C   0  0  0  0  0  0  0  0  0  0  0  0
    1.5240   -0.5880    9.1150 C   0  0  0  0  0  0  0  0  0  0  0  0
    0.1950   -0.4820    9.3780 N   0  0  0  0  0  0  0  0  0  0  0  0
   -0.5430    0.7480    9.6510 C   0  0  2  0  0  0  0  0  0  0  0  0
   -0.8080    1.5610    8.3680 C   0  0  0  0  0  0  0  0  0  0  0  0
   -1.0390    3.0560    8.6300 C   0  0  0  0  0  0  0  0  0  0  0  0
   -1.7890    3.3360    9.9400 C   0  0  1  0  0  0  0  0  0  0  0  0
   -3.1800    2.8470    9.8490 C   0  0  0  0  0  0  0  0  0  0  0  0
   -4.2610    2.4340    9.7730 N   0  0  0  0  0  0  0  0  0  0  0  0
   -1.0710    2.7180   11.1570 C   0  0  0  0  0  0  0  0  0  0  0  0
   -0.0340    1.6460   10.7890 C   0  0  0  0  0  0  0  0  0  0  0  0
   -2.0361   -4.2122   10.4163 H   0  0  0  0  0  0  0  0  0  0  0  0
   -2.8845   -3.8361    8.8783 H   0  0  0  0  0  0  0  0  0  0  0  0
   -1.1120   -4.1278    8.8783 H   0  0  0  0  0  0  0  0  0  0  0  0
   -2.3831   -1.6666    9.0001 H   0  0  0  0  0  0  0  0  0  0  0  0
   -2.7660   -1.3890   11.0710 H   0  0  0  0  0  0  0  0  0  0  0  0
    3.3153   -3.3721    8.3723 H   0  0  0  0  0  0  0  0  0  0  0  0
    5.6250    0.8950    8.5210 H   0  0  0  0  0  0  0  0  0  0  0  0
    4.3326    3.0906    9.1424 H   0  0  0  0  0  0  0  0  0  0  0  0
    1.7709    2.3756    9.5605 H   0  0  0  0  0  0  0  0  0  0  0  0
   -1.4934    0.3629   10.0490 H   0  0  0  0  0  0  0  0  0  0  0  0
    0.0607    1.4540    7.7018 H   0  0  0  0  0  0  0  0  0  0  0  0
   -1.7295    1.1643    7.9169 H   0  0  0  0  0  0  0  0  0  0  0  0
   -0.0610    3.5576    8.6739 H   0  0  0  0  0  0  0  0  0  0  0  0
   -1.6648    3.4369    7.8094 H   0  0  0  0  0  0  0  0  0  0  0  0
   -1.8039    4.4256   10.0899 H   0  0  0  0  0  0  0  0  0  0  0  0
   -0.5578    3.5237   11.7024 H   0  0  0  0  0  0  0  0  0  0  0  0
   -1.8419    2.2215   11.7646 H   0  0  0  0  0  0  0  0  0  0  0  0
    0.8947    2.1404   10.4679 H   0  0  0  0  0  0  0  0  0  0  0  0
    0.1468    1.0181   11.6739 H   0  0  0  0  0  0  0  0  0  0  0  0
  1  2  1  0
  2  3  1  0
  2  4  1  0
  4  5  2  0
  5  6  1  0
  6  7  2  0
  7  8  1  0
  8  9  2  0
  9 10  1  0
 10 11  1  0
 11 12  2  0
 12 13  1  0
 13 14  2  0
 14 15  1  0
 15 16  1  0
 16 17  1  0
 17 18  1  0
 18 19  1  0
 19 20  1  0
 20 21  3  0
 19 22  1  0
 22 23  1  0
 15  4  1  0
 23 16  1  0
 14  6  1  0
 13  9  1  0
  1 24  1  0
  1 25  1  0
  1 26  1  0
  2 27  1  6
  3 28  1  0
  7 29  1  0
 10 30  1  0
 11 31  1  0
 12 32  1  0
 16 33  1  6
 17 34  1  0
 17 35  1  0
 18 36  1  0
 18 37  1  0
 19 38  1  6
 22 39  1  0
 22 40  1  0
 23 41  1  0
 23 42  1  0
M  END
>  <meeko>  (8) 
{"is_sidechain": [false], "free_energy": -7.391, "intermolecular_energy": -9.0, "internal_energy": -0.133}

$$$$
4ivb_ligand
     RDKit          3D

 42 45  0  0  0  0  0  0  0  0999 V2000
   -4.9890    1.5320   12.2230 C   0  0  0  0  0  0  0  0  0  0  0  0
   -3.9280    0.9630   11.2850 C   0  0  1  0  0  0  0  0  0  0  0  0
   -4.5840    0.2690   10.2270 O   0  0  0  0  0  0  0  0  0  0  0  0
   -3.0640    2.0210   10.6620 C   0  0  0  0  0  0  0  0  0  0  0  0
   -3.4330    3.2910   10.5690 N   0  0  0  0  0  0  0  0  0  0  0  0
   -2.4280    3.9360    9.9090 C   0  0  0  0  0  0  0  0  0  0  0  0
   -2.2840    5.2820    9.5230 C   0  0  0  0  0  0  0  0  0  0  0  0
   -1.1990    5.7400    8.8310 N   0  0  0  0  0  0  0  0  0  0  0  0
   -0.2810    4.8020    8.5380 C   0  0  0  0  0  0  0  0  0  0  0  0
    0.8820    4.9810    7.8450 N   0  0  0  0  0  0  0  0  0  0  0  0
    1.5410    3.7760    7.7320 C   0  0  0  0  0  0  0  0  0  0  0  0
    0.7920    2.8000    8.3710 C   0  0  0  0  0  0  0  0  0  0  0  0
   -0.3480    3.4690    8.8820 C   0  0  0  0  0  0  0  0  0  0  0  0
   -1.4320    3.0340    9.5910 C   0  0  0  0  0  0  0  0  0  0  0  0
   -1.7980    1.8270   10.0950 N   0  0  0  0  0  0  0  0  0  0  0  0
   -1.0320    0.5860   10.0230 C   0  0  2  0  0  0  0  0  0  0  0  0
   -1.6520   -0.4210    9.0350 C   0  0  0  0  0  0  0  0  0  0  0  0
   -1.2690   -1.8780    9.3280 C   0  0  0  0  0  0  0  0  0  0  0  0
    0.1620   -2.0370    9.8590 C   0  0  1  0  0  0  0  0  0  0  0  0
    1.1410   -1.6940    8.8060 C   0  0  0  0  0  0  0  0  0  0  0  0
    1.8980   -1.3960    7.9800 N   0  0  0  0  0  0  0  0  0  0  0  0
    0.4030   -1.1910   11.1250 C   0  0  0  0  0  0  0  0  0  0  0  0
   -0.6480   -0.0910   11.3470 C   0  0  0  0  0  0  0  0  0  0  0  0
   -4.6822    1.3675   13.2665 H   0  0  0  0  0  0  0  0  0  0  0  0
   -5.1003    2.6108   12.0393 H   0  0  0  0  0  0  0  0  0  0  0  0
   -5.9492    1.0278   12.0393 H   0  0  0  0  0  0  0  0  0  0  0  0
   -3.2835    0.3066   11.8881 H   0  0  0  0  0  0  0  0  0  0  0  0
   -5.4420   -0.0230   10.5880 H   0  0  0  0  0  0  0  0  0  0  0  0
   -3.0783    5.9947    9.7897 H   0  0  0  0  0  0  0  0  0  0  0  0
    1.1840    5.8700    7.4710 H   0  0  0  0  0  0  0  0  0  0  0  0
    2.5013    3.6153    7.2201 H   0  0  0  0  0  0  0  0  0  0  0  0
    1.0322    1.7304    8.4623 H   0  0  0  0  0  0  0  0  0  0  0  0
   -0.0634    0.9357    9.6363 H   0  0  0  0  0  0  0  0  0  0  0  0
   -2.7471   -0.3312    9.0871 H   0  0  0  0  0  0  0  0  0  0  0  0
   -1.2616   -0.1776    8.0358 H   0  0  0  0  0  0  0  0  0  0  0  0
   -1.9661   -2.2774   10.0793 H   0  0  0  0  0  0  0  0  0  0  0  0
   -1.3249   -2.4262    8.3760 H   0  0  0  0  0  0  0  0  0  0  0  0
    0.2977   -3.0913   10.1417 H   0  0  0  0  0  0  0  0  0  0  0  0
    0.3926   -1.8614   11.9970 H   0  0  0  0  0  0  0  0  0  0  0  0
    1.3714   -0.6862   10.9928 H   0  0  0  0  0  0  0  0  0  0  0  0
   -1.5472   -0.5391   11.7948 H   0  0  0  0  0  0  0  0  0  0  0  0
   -0.2196    0.6700   12.0158 H   0  0  0  0  0  0  0  0  0  0  0  0
  1  2  1  0
  2  3  1  0
  2  4  1  0
  4  5  2  0
  5  6  1  0
  6  7  2  0
  7  8  1  0
  8  9  2  0
  9 10  1  0
 10 11  1  0
 11 12  2  0
 12 13  1  0
 13 14  2  0
 14 15  1  0
 15 16  1  0
 16 17  1  0
 17 18  1  0
 18 19  1  0
 19 20  1  0
 20 21  3  0
 19 22  1  0
 22 23  1  0
 15  4  1  0
 23 16  1  0
 14  6  1  0
 13  9  1  0
  1 24  1  0
  1 25  1  0
  1 26  1  0
  2 27  1  1
  3 28  1  0
  7 29  1  0
 10 30  1  0
 11 31  1  0
 12 32  1  0
 16 33  1  1
 17 34  1  0
 17 35  1  0
 18 36  1  0
 18 37  1  0
 19 38  1  6
 22 39  1  0
 22 40  1  0
 23 41  1  0
 23 42  1  0
M  END
>  <meeko>  (9) 
{"is_sidechain": [false], "free_energy": -7.362, "intermolecular_energy": -8.542, "internal_energy": -0.558}

$$$$
