
     RDKit          3D

 18 20  0  0  0  0  0  0  0  0999 V2000
    2.6430   12.8490   -0.2180 O   0  0  0  0  0  0  0  0  0  0  0  0
    2.2940   11.8950   -0.9330 C   0  0  0  0  0  0  0  0  0  0  0  0
    1.0950   11.9300   -1.5550 N   0  0  0  0  0  0  0  0  0  0  0  0
    0.6740   10.9060   -2.3350 C   0  0  0  0  0  0  0  0  0  0  0  0
    1.4370    9.7940   -2.5400 C   0  0  0  0  0  0  0  0  0  0  0  0
    2.7000    9.6860   -1.9380 C   0  0  0  0  0  0  0  0  0  0  0  0
    3.5820    8.5760   -2.0860 C   0  0  0  0  0  0  0  0  0  0  0  0
    3.2420    7.5010   -2.8490 N   0  0  0  0  0  0  0  0  0  0  0  0
    4.1030    6.3480   -3.0510 C   0  0  1  0  0  0  0  0  0  0  0  0
    3.7220    5.2440   -2.0650 C   0  0  0  0  0  0  0  0  0  0  0  0
    4.5890    4.0190   -2.2770 C   0  0  0  0  0  0  0  0  0  0  0  0
    4.4470    3.4940   -3.6990 C   0  0  0  0  0  0  0  0  0  0  0  0
    4.8340    4.5870   -4.6790 C   0  0  0  0  0  0  0  0  0  0  0  0
    3.9650    5.8240   -4.4690 C   0  0  0  0  0  0  0  0  0  0  0  0
    4.7770    8.5770   -1.4640 N   0  0  0  0  0  0  0  0  0  0  0  0
    5.1330    9.6210   -0.7000 C   0  0  0  0  0  0  0  0  0  0  0  0
    4.3680   10.6950   -0.5130 N   0  0  0  0  0  0  0  0  0  0  0  0
    3.1420   10.7510   -1.1200 C   0  0  0  0  0  0  0  0  0  0  0  0
  2  1  2  0
  3  2  1  0
  4  3  1  0
  5  4  2  0
  6  5  1  0
  7  6  2  0
  8  7  1  0
  9  8  1  6
 10  9  1  0
 11 10  1  0
 12 11  1  0
 13 12  1  0
 14 13  1  0
 14  9  1  0
 15  7  1  0
 16 15  2  0
 17 16  1  0
 18 17  2  0
 18  6  1  0
 18  2  1  0
M  END
$$$$
