1o5b_ligand
     RDKit          3D

 21 22  0  0  0  0  0  0  0  0999 V2000
   -4.3900   -7.1760   -6.9320 N   0  0  0  0  0  0  0  0  0  0  0  0
   -4.7080   -6.7830   -8.1450 C   0  0  0  0  0  0  0  0  0  0  0  0
   -4.8940   -7.6380   -9.1230 N   0  0  0  0  0  0  0  0  0  0  0  0
   -4.8640   -5.3660   -8.4250 C   0  0  0  0  0  0  0  0  0  0  0  0
   -5.1500   -4.8250   -9.6590 C   0  0  0  0  0  0  0  0  0  0  0  0
   -5.2440   -3.3820   -9.6450 C   0  0  0  0  0  0  0  0  0  0  0  0
   -5.5090   -2.4360  -10.6720 C   0  0  0  0  0  0  0  0  0  0  0  0
   -5.8480   -3.0400  -12.6500 I   0  0  0  0  0  0  0  0  0  0  0  0
   -5.5490   -1.0650  -10.3920 C   0  0  0  0  0  0  0  0  0  0  0  0
   -5.3300   -0.6110   -9.1000 C   0  0  0  0  0  0  0  0  0  0  0  0
   -5.0690   -1.5110   -8.0660 C   0  0  0  0  0  0  0  0  0  0  0  0
   -5.0310   -2.8900   -8.3530 C   0  0  0  0  0  0  0  0  0  0  0  0
   -4.7360   -4.1600   -7.2290 S   0  0  0  0  0  0  0  0  0  0  0  0
   -4.2920   -6.5060   -6.1760 H   0  0  0  0  0  0  0  0  0  0  0  0
   -4.2680   -8.1510   -6.6970 H   0  0  0  0  0  0  0  0  0  0  0  0
   -5.1440   -7.2930  -10.0460 H   0  0  0  0  0  0  0  0  0  0  0  0
   -4.8050   -8.6380   -9.0050 H   0  0  0  0  0  0  0  0  0  0  0  0
   -5.2928   -5.4309  -10.5659 H   0  0  0  0  0  0  0  0  0  0  0  0
   -5.7546   -0.3460  -11.1987 H   0  0  0  0  0  0  0  0  0  0  0  0
   -5.3623    0.4680   -8.8885 H   0  0  0  0  0  0  0  0  0  0  0  0
   -4.8955   -1.1492   -7.0418 H   0  0  0  0  0  0  0  0  0  0  0  0
  1  2  1  0
  2  3  2  0
  2  4  1  0
  4  5  2  0
  5  6  1  0
  6  7  2  0
  7  8  1  0
  7  9  1  0
  9 10  2  0
 10 11  1  0
 11 12  2  0
 12 13  1  0
 13  4  1  0
 12  6  1  0
  1 14  1  0
  1 15  1  0
  3 16  1  0
  3 17  1  0
  5 18  1  0
  9 19  1  0
 10 20  1  0
 11 21  1  0
M  CHG  1   3   1
M  END
>  <meeko>  (1) 
{"is_sidechain": [false], "free_energy": -5.688, "intermolecular_energy": -6.021, "internal_energy": -0.064}

$$$$
1o5b_ligand
     RDKit          3D

 21 22  0  0  0  0  0  0  0  0999 V2000
   -5.2920   -6.8450   -8.3110 N   0  0  0  0  0  0  0  0  0  0  0  0
   -4.4090   -5.8910   -8.1180 C   0  0  0  0  0  0  0  0  0  0  0  0
   -3.2630   -6.1190   -7.5180 N   0  0  0  0  0  0  0  0  0  0  0  0
   -4.6920   -4.5430   -8.5790 C   0  0  0  0  0  0  0  0  0  0  0  0
   -5.0270   -4.1960   -9.8700 C   0  0  0  0  0  0  0  0  0  0  0  0
   -5.2500   -2.7780  -10.0430 C   0  0  0  0  0  0  0  0  0  0  0  0
   -5.6000   -2.0020  -11.1810 C   0  0  0  0  0  0  0  0  0  0  0  0
   -5.8870   -2.8880  -13.0580 I   0  0  0  0  0  0  0  0  0  0  0  0
   -5.7610   -0.6150  -11.0810 C   0  0  0  0  0  0  0  0  0  0  0  0
   -5.5820    0.0230   -9.8630 C   0  0  0  0  0  0  0  0  0  0  0  0
   -5.2390   -0.7080   -8.7250 C   0  0  0  0  0  0  0  0  0  0  0  0
   -5.0780   -2.1030   -8.8290 C   0  0  0  0  0  0  0  0  0  0  0  0
   -4.6690   -3.1830   -7.5530 S   0  0  0  0  0  0  0  0  0  0  0  0
   -6.1530   -6.6620   -8.8160 H   0  0  0  0  0  0  0  0  0  0  0  0
   -5.1340   -7.7940   -8.0030 H   0  0  0  0  0  0  0  0  0  0  0  0
   -2.6050   -5.3540   -7.3940 H   0  0  0  0  0  0  0  0  0  0  0  0
   -2.9950   -7.0300   -7.1730 H   0  0  0  0  0  0  0  0  0  0  0  0
   -5.1160   -4.9259  -10.6881 H   0  0  0  0  0  0  0  0  0  0  0  0
   -6.0305   -0.0290  -11.9721 H   0  0  0  0  0  0  0  0  0  0  0  0
   -5.7113    1.1132   -9.7934 H   0  0  0  0  0  0  0  0  0  0  0  0
   -5.0962   -0.2011   -7.7592 H   0  0  0  0  0  0  0  0  0  0  0  0
  1  2  1  0
  2  3  2  0
  2  4  1  0
  4  5  2  0
  5  6  1  0
  6  7  2  0
  7  8  1  0
  7  9  1  0
  9 10  2  0
 10 11  1  0
 11 12  2  0
 12 13  1  0
 13  4  1  0
 12  6  1  0
  1 14  1  0
  1 15  1  0
  3 16  1  0
  3 17  1  0
  5 18  1  0
  9 19  1  0
 10 20  1  0
 11 21  1  0
M  CHG  1   3   1
M  END
>  <meeko>  (2) 
{"is_sidechain": [false], "free_energy": -5.566, "intermolecular_energy": -5.894, "internal_energy": -0.062}

$$$$
1o5b_ligand
     RDKit          3D

 21 22  0  0  0  0  0  0  0  0999 V2000
   -4.9030   -3.5170   -6.1380 N   0  0  0  0  0  0  0  0  0  0  0  0
   -4.8500   -4.2100   -7.2530 C   0  0  0  0  0  0  0  0  0  0  0  0
   -4.5500   -5.4890   -7.2600 N   0  0  0  0  0  0  0  0  0  0  0  0
   -5.1310   -3.5590   -8.5200 C   0  0  0  0  0  0  0  0  0  0  0  0
   -5.2520   -2.1990   -8.7090 C   0  0  0  0  0  0  0  0  0  0  0  0
   -5.5410   -1.8330  -10.0770 C   0  0  0  0  0  0  0  0  0  0  0  0
   -5.7460   -0.5730  -10.7010 C   0  0  0  0  0  0  0  0  0  0  0  0
   -5.6640    1.2120   -9.6070 I   0  0  0  0  0  0  0  0  0  0  0  0
   -6.0140   -0.4870  -12.0720 C   0  0  0  0  0  0  0  0  0  0  0  0
   -6.0800   -1.6370  -12.8440 C   0  0  0  0  0  0  0  0  0  0  0  0
   -5.8820   -2.8910  -12.2650 C   0  0  0  0  0  0  0  0  0  0  0  0
   -5.6120   -2.9730  -10.8850 C   0  0  0  0  0  0  0  0  0  0  0  0
   -5.3310   -4.4110   -9.9820 S   0  0  0  0  0  0  0  0  0  0  0  0
   -5.1790   -2.5410   -6.1450 H   0  0  0  0  0  0  0  0  0  0  0  0
   -4.7100   -3.9320   -5.2370 H   0  0  0  0  0  0  0  0  0  0  0  0
   -4.5250   -5.9900   -8.1440 H   0  0  0  0  0  0  0  0  0  0  0  0
   -4.3440   -6.0100   -6.4200 H   0  0  0  0  0  0  0  0  0  0  0  0
   -5.1396   -1.4642   -7.8981 H   0  0  0  0  0  0  0  0  0  0  0  0
   -6.1728    0.4963  -12.5388 H   0  0  0  0  0  0  0  0  0  0  0  0
   -6.2900   -1.5601  -13.9210 H   0  0  0  0  0  0  0  0  0  0  0  0
   -5.9360   -3.8029  -12.8778 H   0  0  0  0  0  0  0  0  0  0  0  0
  1  2  1  0
  2  3  2  0
  2  4  1  0
  4  5  2  0
  5  6  1  0
  6  7  2  0
  7  8  1  0
  7  9  1  0
  9 10  2  0
 10 11  1  0
 11 12  2  0
 12 13  1  0
 13  4  1  0
 12  6  1  0
  1 14  1  0
  1 15  1  0
  3 16  1  0
  3 17  1  0
  5 18  1  0
  9 19  1  0
 10 20  1  0
 11 21  1  0
M  CHG  1   3   1
M  END
>  <meeko>  (3) 
{"is_sidechain": [false], "free_energy": -5.251, "intermolecular_energy": -5.559, "internal_energy": -0.064}

$$$$
1o5b_ligand
     RDKit          3D

 21 22  0  0  0  0  0  0  0  0999 V2000
   -4.8940   -3.8100   -6.5320 N   0  0  0  0  0  0  0  0  0  0  0  0
   -4.2640   -4.2510   -7.5970 C   0  0  0  0  0  0  0  0  0  0  0  0
   -3.3760   -5.2170   -7.5260 N   0  0  0  0  0  0  0  0  0  0  0  0
   -4.5480   -3.6680   -8.8960 C   0  0  0  0  0  0  0  0  0  0  0  0
   -4.0110   -2.4930   -9.3780 C   0  0  0  0  0  0  0  0  0  0  0  0
   -4.4770   -2.1500  -10.7030 C   0  0  0  0  0  0  0  0  0  0  0  0
   -4.1930   -1.0500  -11.5550 C   0  0  0  0  0  0  0  0  0  0  0  0
   -2.8820    0.4750  -10.9670 I   0  0  0  0  0  0  0  0  0  0  0  0
   -4.7860   -0.9500  -12.8200 C   0  0  0  0  0  0  0  0  0  0  0  0
   -5.6630   -1.9310  -13.2590 C   0  0  0  0  0  0  0  0  0  0  0  0
   -5.9630   -3.0260  -12.4490 C   0  0  0  0  0  0  0  0  0  0  0  0
   -5.3640   -3.1230  -11.1780 C   0  0  0  0  0  0  0  0  0  0  0  0
   -5.5920   -4.3890  -10.0330 S   0  0  0  0  0  0  0  0  0  0  0  0
   -5.6090   -3.0940   -6.6100 H   0  0  0  0  0  0  0  0  0  0  0  0
   -4.7220   -4.1870   -5.6100 H   0  0  0  0  0  0  0  0  0  0  0  0
   -2.9150   -5.5320   -8.3750 H   0  0  0  0  0  0  0  0  0  0  0  0
   -3.1270   -5.6720   -6.6600 H   0  0  0  0  0  0  0  0  0  0  0  0
   -3.2981   -1.8771   -8.8102 H   0  0  0  0  0  0  0  0  0  0  0  0
   -4.5556   -0.0910  -13.4673 H   0  0  0  0  0  0  0  0  0  0  0  0
   -6.1253   -1.8446  -14.2534 H   0  0  0  0  0  0  0  0  0  0  0  0
   -6.6583   -3.8036  -12.7982 H   0  0  0  0  0  0  0  0  0  0  0  0
  1  2  1  0
  2  3  2  0
  2  4  1  0
  4  5  2  0
  5  6  1  0
  6  7  2  0
  7  8  1  0
  7  9  1  0
  9 10  2  0
 10 11  1  0
 11 12  2  0
 12 13  1  0
 13  4  1  0
 12  6  1  0
  1 14  1  0
  1 15  1  0
  3 16  1  0
  3 17  1  0
  5 18  1  0
  9 19  1  0
 10 20  1  0
 11 21  1  0
M  CHG  1   3   1
M  END
>  <meeko>  (4) 
{"is_sidechain": [false], "free_energy": -5.1, "intermolecular_energy": -5.402, "internal_energy": -0.061}

$$$$
1o5b_ligand
     RDKit          3D

 21 22  0  0  0  0  0  0  0  0999 V2000
   -5.7480    2.7250   -7.2610 N   0  0  0  0  0  0  0  0  0  0  0  0
   -6.2840    2.2380   -8.3580 C   0  0  0  0  0  0  0  0  0  0  0  0
   -7.4980    2.5640   -8.7390 N   0  0  0  0  0  0  0  0  0  0  0  0
   -5.5240    1.3160   -9.1820 C   0  0  0  0  0  0  0  0  0  0  0  0
   -5.7070   -0.0500   -9.2280 C   0  0  0  0  0  0  0  0  0  0  0  0
   -4.8040   -0.7200  -10.1360 C   0  0  0  0  0  0  0  0  0  0  0  0
   -4.6430   -2.0890  -10.4790 C   0  0  0  0  0  0  0  0  0  0  0  0
   -5.8380   -3.5770   -9.6140 I   0  0  0  0  0  0  0  0  0  0  0  0
   -3.6750   -2.4870  -11.4090 C   0  0  0  0  0  0  0  0  0  0  0  0
   -2.8560   -1.5430  -12.0110 C   0  0  0  0  0  0  0  0  0  0  0  0
   -2.9870   -0.1890  -11.6990 C   0  0  0  0  0  0  0  0  0  0  0  0
   -3.9630    0.2060  -10.7630 C   0  0  0  0  0  0  0  0  0  0  0  0
   -4.2920    1.8150  -10.2470 S   0  0  0  0  0  0  0  0  0  0  0  0
   -4.7930    2.4980   -7.0030 H   0  0  0  0  0  0  0  0  0  0  0  0
   -6.2450    3.3670   -6.6590 H   0  0  0  0  0  0  0  0  0  0  0  0
   -7.8730    2.1690   -9.5970 H   0  0  0  0  0  0  0  0  0  0  0  0
   -8.0850    3.2010   -8.2200 H   0  0  0  0  0  0  0  0  0  0  0  0
   -6.4659   -0.5780   -8.6320 H   0  0  0  0  0  0  0  0  0  0  0  0
   -3.5636   -3.5514  -11.6630 H   0  0  0  0  0  0  0  0  0  0  0  0
   -2.0974   -1.8641  -12.7400 H   0  0  0  0  0  0  0  0  0  0  0  0
   -2.3375    0.5590  -12.1771 H   0  0  0  0  0  0  0  0  0  0  0  0
  1  2  1  0
  2  3  2  0
  2  4  1  0
  4  5  2  0
  5  6  1  0
  6  7  2  0
  7  8  1  0
  7  9  1  0
  9 10  2  0
 10 11  1  0
 11 12  2  0
 12 13  1  0
 13  4  1  0
 12  6  1  0
  1 14  1  0
  1 15  1  0
  3 16  1  0
  3 17  1  0
  5 18  1  0
  9 19  1  0
 10 20  1  0
 11 21  1  0
M  CHG  1   3   1
M  END
>  <meeko>  (5) 
{"is_sidechain": [false], "free_energy": -4.981, "intermolecular_energy": -5.275, "internal_energy": -0.061}

$$$$
1o5b_ligand
     RDKit          3D

 21 22  0  0  0  0  0  0  0  0999 V2000
   -1.4470   -1.4290  -14.3550 N   0  0  0  0  0  0  0  0  0  0  0  0
   -2.0730   -2.1970  -13.4930 C   0  0  0  0  0  0  0  0  0  0  0  0
   -1.9350   -3.5030  -13.5020 N   0  0  0  0  0  0  0  0  0  0  0  0
   -2.9420   -1.6010  -12.4940 C   0  0  0  0  0  0  0  0  0  0  0  0
   -3.2750   -2.1700  -11.2840 C   0  0  0  0  0  0  0  0  0  0  0  0
   -4.1640   -1.3520  -10.4900 C   0  0  0  0  0  0  0  0  0  0  0  0
   -4.7510   -1.5510   -9.2110 C   0  0  0  0  0  0  0  0  0  0  0  0
   -4.3930   -3.2940   -8.1060 I   0  0  0  0  0  0  0  0  0  0  0  0
   -5.5920   -0.5820   -8.6500 C   0  0  0  0  0  0  0  0  0  0  0  0
   -5.8640    0.5900   -9.3390 C   0  0  0  0  0  0  0  0  0  0  0  0
   -5.3030    0.8190  -10.5960 C   0  0  0  0  0  0  0  0  0  0  0  0
   -4.4570   -0.1570  -11.1570 C   0  0  0  0  0  0  0  0  0  0  0  0
   -3.6620   -0.0680  -12.6810 S   0  0  0  0  0  0  0  0  0  0  0  0
   -1.5290   -0.4190  -14.3070 H   0  0  0  0  0  0  0  0  0  0  0  0
   -0.8370   -1.8050  -15.0680 H   0  0  0  0  0  0  0  0  0  0  0  0
   -2.4340   -4.0620  -12.8130 H   0  0  0  0  0  0  0  0  0  0  0  0
   -1.3480   -3.9900  -14.1640 H   0  0  0  0  0  0  0  0  0  0  0  0
   -2.9010   -3.1506  -10.9545 H   0  0  0  0  0  0  0  0  0  0  0  0
   -6.0385   -0.7513   -7.6590 H   0  0  0  0  0  0  0  0  0  0  0  0
   -6.5270    1.3450   -8.8914 H   0  0  0  0  0  0  0  0  0  0  0  0
   -5.5188    1.7496  -11.1414 H   0  0  0  0  0  0  0  0  0  0  0  0
  1  2  1  0
  2  3  2  0
  2  4  1  0
  4  5  2  0
  5  6  1  0
  6  7  2  0
  7  8  1  0
  7  9  1  0
  9 10  2  0
 10 11  1  0
 11 12  2  0
 12 13  1  0
 13  4  1  0
 12  6  1  0
  1 14  1  0
  1 15  1  0
  3 16  1  0
  3 17  1  0
  5 18  1  0
  9 19  1  0
 10 20  1  0
 11 21  1  0
M  CHG  1   3   1
M  END
>  <meeko>  (6) 
{"is_sidechain": [false], "free_energy": -4.888, "intermolecular_energy": -5.174, "internal_energy": -0.064}

$$$$
1o5b_ligand
     RDKit          3D

 21 22  0  0  0  0  0  0  0  0999 V2000
   -3.2300   -2.9150  -12.1920 N   0  0  0  0  0  0  0  0  0  0  0  0
   -3.9660   -2.7720  -11.1130 C   0  0  0  0  0  0  0  0  0  0  0  0
   -4.3680   -3.8030  -10.4070 N   0  0  0  0  0  0  0  0  0  0  0  0
   -4.3490   -1.4420  -10.6740 C   0  0  0  0  0  0  0  0  0  0  0  0
   -3.8940   -0.2600  -11.2180 C   0  0  0  0  0  0  0  0  0  0  0  0
   -4.4410    0.9150  -10.5780 C   0  0  0  0  0  0  0  0  0  0  0  0
   -4.2430    2.3030  -10.8100 C   0  0  0  0  0  0  0  0  0  0  0  0
   -2.9500    2.9840  -12.3120 I   0  0  0  0  0  0  0  0  0  0  0  0
   -4.9070    3.2610  -10.0350 C   0  0  0  0  0  0  0  0  0  0  0  0
   -5.7740    2.8650   -9.0270 C   0  0  0  0  0  0  0  0  0  0  0  0
   -5.9930    1.5110   -8.7730 C   0  0  0  0  0  0  0  0  0  0  0  0
   -5.3220    0.5500   -9.5550 C   0  0  0  0  0  0  0  0  0  0  0  0
   -5.4580   -1.1600   -9.4120 S   0  0  0  0  0  0  0  0  0  0  0  0
   -2.8900   -2.1060  -12.7010 H   0  0  0  0  0  0  0  0  0  0  0  0
   -2.9450   -3.8230  -12.5320 H   0  0  0  0  0  0  0  0  0  0  0  0
   -4.9320   -3.6480   -9.5750 H   0  0  0  0  0  0  0  0  0  0  0  0
   -4.1400   -4.7570  -10.6470 H   0  0  0  0  0  0  0  0  0  0  0  0
   -3.1841   -0.2153  -12.0571 H   0  0  0  0  0  0  0  0  0  0  0  0
   -4.7408    4.3315  -10.2259 H   0  0  0  0  0  0  0  0  0  0  0  0
   -6.2927    3.6245   -8.4235 H   0  0  0  0  0  0  0  0  0  0  0  0
   -6.6801    1.1978   -7.9732 H   0  0  0  0  0  0  0  0  0  0  0  0
  1  2  1  0
  2  3  2  0
  2  4  1  0
  4  5  2  0
  5  6  1  0
  6  7  2  0
  7  8  1  0
  7  9  1  0
  9 10  2  0
 10 11  1  0
 11 12  2  0
 12 13  1  0
 13  4  1  0
 12  6  1  0
  1 14  1  0
  1 15  1  0
  3 16  1  0
  3 17  1  0
  5 18  1  0
  9 19  1  0
 10 20  1  0
 11 21  1  0
M  CHG  1   3   1
M  END
>  <meeko>  (7) 
{"is_sidechain": [false], "free_energy": -4.83, "intermolecular_energy": -5.113, "internal_energy": -0.064}

$$$$
1o5b_ligand
     RDKit          3D

 21 22  0  0  0  0  0  0  0  0999 V2000
   -4.7540   -2.7700   -7.2480 N   0  0  0  0  0  0  0  0  0  0  0  0
   -4.9160   -1.6660   -7.9420 C   0  0  0  0  0  0  0  0  0  0  0  0
   -5.5040   -0.6080   -7.4330 N   0  0  0  0  0  0  0  0  0  0  0  0
   -4.4340   -1.5990   -9.3100 C   0  0  0  0  0  0  0  0  0  0  0  0
   -4.1380   -0.4400   -9.9950 C   0  0  0  0  0  0  0  0  0  0  0  0
   -3.6820   -0.6730  -11.3470 C   0  0  0  0  0  0  0  0  0  0  0  0
   -3.2850    0.2150  -12.3830 C   0  0  0  0  0  0  0  0  0  0  0  0
   -3.2960    2.2910  -12.1030 I   0  0  0  0  0  0  0  0  0  0  0  0
   -2.8750   -0.2740  -13.6290 C   0  0  0  0  0  0  0  0  0  0  0  0
   -2.8500   -1.6400  -13.8690 C   0  0  0  0  0  0  0  0  0  0  0  0
   -3.2310   -2.5410  -12.8740 C   0  0  0  0  0  0  0  0  0  0  0  0
   -3.6430   -2.0450  -11.6220 C   0  0  0  0  0  0  0  0  0  0  0  0
   -4.1420   -2.9790  -10.2650 S   0  0  0  0  0  0  0  0  0  0  0  0
   -4.2590   -3.5640   -7.6410 H   0  0  0  0  0  0  0  0  0  0  0  0
   -5.0780   -2.8590   -6.2950 H   0  0  0  0  0  0  0  0  0  0  0  0
   -5.6040    0.2280   -8.0020 H   0  0  0  0  0  0  0  0  0  0  0  0
   -5.8620   -0.5790   -6.4890 H   0  0  0  0  0  0  0  0  0  0  0  0
   -4.2388    0.5636   -9.5561 H   0  0  0  0  0  0  0  0  0  0  0  0
   -2.5717    0.4273  -14.4203 H   0  0  0  0  0  0  0  0  0  0  0  0
   -2.5274   -2.0158  -14.8512 H   0  0  0  0  0  0  0  0  0  0  0  0
   -3.2098   -3.6241  -13.0650 H   0  0  0  0  0  0  0  0  0  0  0  0
  1  2  1  0
  2  3  2  0
  2  4  1  0
  4  5  2  0
  5  6  1  0
  6  7  2  0
  7  8  1  0
  7  9  1  0
  9 10  2  0
 10 11  1  0
 11 12  2  0
 12 13  1  0
 13  4  1  0
 12  6  1  0
  1 14  1  0
  1 15  1  0
  3 16  1  0
  3 17  1  0
  5 18  1  0
  9 19  1  0
 10 20  1  0
 11 21  1  0
M  CHG  1   3   1
M  END
>  <meeko>  (8) 
{"is_sidechain": [false], "free_energy": -4.805, "intermolecular_energy": -5.086, "internal_energy": -0.064}

$$$$
1o5b_ligand
     RDKit          3D

 21 22  0  0  0  0  0  0  0  0999 V2000
   -6.6520   -3.9360   -9.2280 N   0  0  0  0  0  0  0  0  0  0  0  0
   -5.6380   -3.3100   -8.6750 C   0  0  0  0  0  0  0  0  0  0  0  0
   -5.1180   -3.7060   -7.5350 N   0  0  0  0  0  0  0  0  0  0  0  0
   -5.0630   -2.1500   -9.3320 C   0  0  0  0  0  0  0  0  0  0  0  0
   -5.4030   -0.8390   -9.0770 C   0  0  0  0  0  0  0  0  0  0  0  0
   -4.6720    0.1110   -9.8840 C   0  0  0  0  0  0  0  0  0  0  0  0
   -4.7100    1.5300   -9.9520 C   0  0  0  0  0  0  0  0  0  0  0  0
   -6.0060    2.6450   -8.7410 I   0  0  0  0  0  0  0  0  0  0  0  0
   -3.8800    2.2290  -10.8370 C   0  0  0  0  0  0  0  0  0  0  0  0
   -3.0030    1.5400  -11.6620 C   0  0  0  0  0  0  0  0  0  0  0  0
   -2.9380    0.1470  -11.6210 C   0  0  0  0  0  0  0  0  0  0  0  0
   -3.7750   -0.5520  -10.7290 C   0  0  0  0  0  0  0  0  0  0  0  0
   -3.8440   -2.2580  -10.5170 S   0  0  0  0  0  0  0  0  0  0  0  0
   -7.0140   -3.6450  -10.1300 H   0  0  0  0  0  0  0  0  0  0  0  0
   -7.0830   -4.7450   -8.8010 H   0  0  0  0  0  0  0  0  0  0  0  0
   -4.3300   -3.1960   -7.1440 H   0  0  0  0  0  0  0  0  0  0  0  0
   -5.4620   -4.5040   -7.0210 H   0  0  0  0  0  0  0  0  0  0  0  0
   -6.1570   -0.5446   -8.3321 H   0  0  0  0  0  0  0  0  0  0  0  0
   -3.9235    3.3274  -10.8782 H   0  0  0  0  0  0  0  0  0  0  0  0
   -2.3537    2.0964  -12.3540 H   0  0  0  0  0  0  0  0  0  0  0  0
   -2.2427   -0.3982  -12.2762 H   0  0  0  0  0  0  0  0  0  0  0  0
  1  2  1  0
  2  3  2  0
  2  4  1  0
  4  5  2  0
  5  6  1  0
  6  7  2  0
  7  8  1  0
  7  9  1  0
  9 10  2  0
 10 11  1  0
 11 12  2  0
 12 13  1  0
 13  4  1  0
 12  6  1  0
  1 14  1  0
  1 15  1  0
  3 16  1  0
  3 17  1  0
  5 18  1  0
  9 19  1  0
 10 20  1  0
 11 21  1  0
M  CHG  1   3   1
M  END
>  <meeko>  (9) 
{"is_sidechain": [false], "free_energy": -4.725, "intermolecular_energy": -5.005, "internal_energy": -0.061}

$$$$
