3f3e_ligand
     RDKit          3D

 22 21  0  0  0  0  0  0  0  0999 V2000
   -3.3140   -4.1180    3.6340 C   0  0  0  0  0  0  0  0  0  0  0  0
   -1.9170   -4.1220    3.0170 C   0  0  0  0  0  0  0  0  0  0  0  0
   -1.0960   -2.9740    3.6170 C   0  0  0  0  0  0  0  0  0  0  0  0
   -1.9110   -4.0020    1.4760 C   0  0  0  0  0  0  0  0  0  0  0  0
   -3.0610   -3.2360    0.8220 C   0  0  2  0  0  0  0  0  0  0  0  0
   -3.7150   -4.0820   -0.2610 N   0  0  0  0  0  0  0  0  0  0  0  0
   -2.6890   -1.8500    0.2190 C   0  0  0  0  0  0  0  0  0  0  0  0
   -2.1860   -1.0000    0.9800 O   0  0  0  0  0  0  0  0  0  0  0  0
   -2.9960   -1.8430   -1.0200 O   0  0  0  0  0  0  0  0  0  0  0  0
   -3.2304   -4.1182    4.7308 H   0  0  0  0  0  0  0  0  0  0  0  0
   -3.8563   -3.2183    3.3078 H   0  0  0  0  0  0  0  0  0  0  0  0
   -3.8615   -5.0146    3.3078 H   0  0  0  0  0  0  0  0  0  0  0  0
   -1.4738   -5.1002    3.2551 H   0  0  0  0  0  0  0  0  0  0  0  0
   -1.1357   -3.0296    4.7149 H   0  0  0  0  0  0  0  0  0  0  0  0
   -0.0511   -3.0570    3.2832 H   0  0  0  0  0  0  0  0  0  0  0  0
   -1.5122   -2.0121    3.2832 H   0  0  0  0  0  0  0  0  0  0  0  0
   -0.9754   -3.4999    1.1885 H   0  0  0  0  0  0  0  0  0  0  0  0
   -2.0218   -5.0350    1.1146 H   0  0  0  0  0  0  0  0  0  0  0  0
   -3.7544   -3.0304    1.6508 H   0  0  0  0  0  0  0  0  0  0  0  0
   -3.6270   -3.7310   -1.2120 H   0  0  0  0  0  0  0  0  0  0  0  0
   -4.7260   -3.9820    0.0260 H   0  0  0  0  0  0  0  0  0  0  0  0
   -3.5050   -5.0760   -0.1650 H   0  0  0  0  0  0  0  0  0  0  0  0
  1  2  1  0
  2  3  1  0
  2  4  1  0
  4  5  1  0
  5  6  1  0
  5  7  1  0
  7  8  2  0
  7  9  1  0
  1 10  1  0
  1 11  1  0
  1 12  1  0
  2 13  1  0
  3 14  1  0
  3 15  1  0
  3 16  1  0
  4 17  1  0
  4 18  1  0
  5 19  1  1
  6 20  1  0
  6 21  1  0
  6 22  1  0
M  CHG  2   6   1   9  -1
M  END
>  <meeko>  (1) 
{"is_sidechain": [false], "free_energy": -5.3, "intermolecular_energy": -6.384, "internal_energy": -0.16}

$$$$
3f3e_ligand
     RDKit          3D

 22 21  0  0  0  0  0  0  0  0999 V2000
    2.3670   -0.6800    6.2180 C   0  0  0  0  0  0  0  0  0  0  0  0
    1.1870   -0.0060    5.5210 C   0  0  0  0  0  0  0  0  0  0  0  0
    0.3580   -1.0680    4.7890 C   0  0  0  0  0  0  0  0  0  0  0  0
    1.5960    1.1000    4.5230 C   0  0  0  0  0  0  0  0  0  0  0  0
    2.9710    0.9850    3.8640 C   0  0  2  0  0  0  0  0  0  0  0  0
    3.7350    2.2930    3.9970 N   0  0  0  0  0  0  0  0  0  0  0  0
    2.9650    0.5580    2.3680 C   0  0  0  0  0  0  0  0  0  0  0  0
    2.4290   -0.5290    2.0740 O   0  0  0  0  0  0  0  0  0  0  0  0
    3.5570    1.4560    1.6790 O   0  0  0  0  0  0  0  0  0  0  0  0
    2.2393   -0.6071    7.3081 H   0  0  0  0  0  0  0  0  0  0  0  0
    2.4103   -1.7391    5.9239 H   0  0  0  0  0  0  0  0  0  0  0  0
    3.3013   -0.1793    5.9239 H   0  0  0  0  0  0  0  0  0  0  0  0
    0.6000    0.4880    6.3093 H   0  0  0  0  0  0  0  0  0  0  0  0
   -0.1449   -1.7123    5.5252 H   0  0  0  0  0  0  0  0  0  0  0  0
   -0.3959   -0.5742    4.1583 H   0  0  0  0  0  0  0  0  0  0  0  0
    1.0201   -1.6795    4.1583 H   0  0  0  0  0  0  0  0  0  0  0  0
    0.8455    1.1117    3.7189 H   0  0  0  0  0  0  0  0  0  0  0  0
    1.6521    2.0164    5.1288 H   0  0  0  0  0  0  0  0  0  0  0  0
    3.4657    0.1690    4.4112 H   0  0  0  0  0  0  0  0  0  0  0  0
    4.2890    2.4010    4.8430 H   0  0  0  0  0  0  0  0  0  0  0  0
    2.9230    2.9650    4.0580 H   0  0  0  0  0  0  0  0  0  0  0  0
    4.2310    2.5480    3.1430 H   0  0  0  0  0  0  0  0  0  0  0  0
  1  2  1  0
  2  3  1  0
  2  4  1  0
  4  5  1  0
  5  6  1  0
  5  7  1  0
  7  8  2  0
  7  9  1  0
  1 10  1  0
  1 11  1  0
  1 12  1  0
  2 13  1  0
  3 14  1  0
  3 15  1  0
  3 16  1  0
  4 17  1  0
  4 18  1  0
  5 19  1  1
  6 20  1  0
  6 21  1  0
  6 22  1  0
M  CHG  2   6   1   9  -1
M  END
>  <meeko>  (2) 
{"is_sidechain": [false], "free_energy": -5.261, "intermolecular_energy": -6.335, "internal_energy": -0.162}

$$$$
3f3e_ligand
     RDKit          3D

 22 21  0  0  0  0  0  0  0  0999 V2000
   -0.8920   -1.0760    3.6640 C   0  0  0  0  0  0  0  0  0  0  0  0
   -0.7300   -2.5930    3.7360 C   0  0  0  0  0  0  0  0  0  0  0  0
    0.4480   -3.0190    2.8510 C   0  0  0  0  0  0  0  0  0  0  0  0
   -1.9920   -3.3800    3.3180 C   0  0  0  0  0  0  0  0  0  0  0  0
   -2.9850   -2.6820    2.3880 C   0  0  2  0  0  0  0  0  0  0  0  0
   -4.4120   -3.0580    2.7550 N   0  0  0  0  0  0  0  0  0  0  0  0
   -2.7750   -2.9370    0.8670 C   0  0  0  0  0  0  0  0  0  0  0  0
   -2.1970   -2.0550    0.2030 O   0  0  0  0  0  0  0  0  0  0  0  0
   -3.2740   -4.0730    0.5660 O   0  0  0  0  0  0  0  0  0  0  0  0
   -0.9361   -0.6632    4.6827 H   0  0  0  0  0  0  0  0  0  0  0  0
   -0.0352   -0.6407    3.1287 H   0  0  0  0  0  0  0  0  0  0  0  0
   -1.8214   -0.8315    3.1287 H   0  0  0  0  0  0  0  0  0  0  0  0
   -0.5470   -2.8364    4.7930 H   0  0  0  0  0  0  0  0  0  0  0  0
    1.2924   -3.3243    3.4865 H   0  0  0  0  0  0  0  0  0  0  0  0
    0.1428   -3.8637    2.2159 H   0  0  0  0  0  0  0  0  0  0  0  0
    0.7537   -2.1745    2.2159 H   0  0  0  0  0  0  0  0  0  0  0  0
   -1.6556   -4.2969    2.8120 H   0  0  0  0  0  0  0  0  0  0  0  0
   -2.5477   -3.5353    4.2545 H   0  0  0  0  0  0  0  0  0  0  0  0
   -2.7946   -1.6101    2.5457 H   0  0  0  0  0  0  0  0  0  0  0  0
   -4.8640   -3.7360    2.1470 H   0  0  0  0  0  0  0  0  0  0  0  0
   -4.8840   -2.1260    2.6030 H   0  0  0  0  0  0  0  0  0  0  0  0
   -4.5240   -3.2560    3.7500 H   0  0  0  0  0  0  0  0  0  0  0  0
  1  2  1  0
  2  3  1  0
  2  4  1  0
  4  5  1  0
  5  6  1  0
  5  7  1  0
  7  8  2  0
  7  9  1  0
  1 10  1  0
  1 11  1  0
  1 12  1  0
  2 13  1  0
  3 14  1  0
  3 15  1  0
  3 16  1  0
  4 17  1  0
  4 18  1  0
  5 19  1  6
  6 20  1  0
  6 21  1  0
  6 22  1  0
M  CHG  2   6   1   9  -1
M  END
>  <meeko>  (3) 
{"is_sidechain": [false], "free_energy": -5.067, "intermolecular_energy": -6.076, "internal_energy": -0.188}

$$$$
3f3e_ligand
     RDKit          3D

 22 21  0  0  0  0  0  0  0  0999 V2000
   -1.4890   -3.3380    3.5840 C   0  0  0  0  0  0  0  0  0  0  0  0
   -0.7940   -2.0310    3.2060 C   0  0  0  0  0  0  0  0  0  0  0  0
   -0.0750   -1.4660    4.4380 C   0  0  0  0  0  0  0  0  0  0  0  0
   -1.7450   -0.9560    2.6340 C   0  0  0  0  0  0  0  0  0  0  0  0
   -1.5970   -0.5940    1.1560 C   0  0  2  0  0  0  0  0  0  0  0  0
   -1.8210    0.8950    0.9480 N   0  0  0  0  0  0  0  0  0  0  0  0
   -2.5150   -1.3810    0.1770 C   0  0  0  0  0  0  0  0  0  0  0  0
   -3.1590   -2.3480    0.6310 O   0  0  0  0  0  0  0  0  0  0  0  0
   -2.4230   -0.8600   -0.9850 O   0  0  0  0  0  0  0  0  0  0  0  0
   -1.5353   -3.4251    4.6796 H   0  0  0  0  0  0  0  0  0  0  0  0
   -2.5090   -3.3433    3.1723 H   0  0  0  0  0  0  0  0  0  0  0  0
   -0.9230   -4.1866    3.1723 H   0  0  0  0  0  0  0  0  0  0  0  0
   -0.0836   -2.2772    2.4031 H   0  0  0  0  0  0  0  0  0  0  0  0
   -0.5580   -1.8455    5.3505 H   0  0  0  0  0  0  0  0  0  0  0  0
    0.9792   -1.7799    4.4234 H   0  0  0  0  0  0  0  0  0  0  0  0
   -0.1307   -0.3675    4.4234 H   0  0  0  0  0  0  0  0  0  0  0  0
   -2.7743   -1.3140    2.7836 H   0  0  0  0  0  0  0  0  0  0  0  0
   -1.4826   -0.0347    3.1748 H   0  0  0  0  0  0  0  0  0  0  0  0
   -0.5661   -0.8868    0.9081 H   0  0  0  0  0  0  0  0  0  0  0  0
   -2.3620    1.1530    0.1260 H   0  0  0  0  0  0  0  0  0  0  0  0
   -0.8240    1.2010    0.7840 H   0  0  0  0  0  0  0  0  0  0  0  0
   -2.1120    1.3740    1.8010 H   0  0  0  0  0  0  0  0  0  0  0  0
  1  2  1  0
  2  3  1  0
  2  4  1  0
  4  5  1  0
  5  6  1  0
  5  7  1  0
  7  8  2  0
  7  9  1  0
  1 10  1  0
  1 11  1  0
  1 12  1  0
  2 13  1  0
  3 14  1  0
  3 15  1  0
  3 16  1  0
  4 17  1  0
  4 18  1  0
  5 19  1  6
  6 20  1  0
  6 21  1  0
  6 22  1  0
M  CHG  2   6   1   9  -1
M  END
>  <meeko>  (4) 
{"is_sidechain": [false], "free_energy": -5.049, "intermolecular_energy": -6.132, "internal_energy": -0.109}

$$$$
3f3e_ligand
     RDKit          3D

 22 21  0  0  0  0  0  0  0  0999 V2000
    0.3780   -1.1000    4.7300 C   0  0  0  0  0  0  0  0  0  0  0  0
    1.8080   -0.6250    4.9830 C   0  0  0  0  0  0  0  0  0  0  0  0
    2.0930   -0.6600    6.4890 C   0  0  0  0  0  0  0  0  0  0  0  0
    2.1040    0.7920    4.4410 C   0  0  0  0  0  0  0  0  0  0  0  0
    3.3270    0.9620    3.5390 C   0  0  2  0  0  0  0  0  0  0  0  0
    4.0000    2.3000    3.8030 N   0  0  0  0  0  0  0  0  0  0  0  0
    3.0590    0.8280    2.0120 C   0  0  0  0  0  0  0  0  0  0  0  0
    2.2730   -0.0630    1.6340 O   0  0  0  0  0  0  0  0  0  0  0  0
    3.7460    1.7090    1.3930 O   0  0  0  0  0  0  0  0  0  0  0  0
   -0.1281   -1.2681    5.6921 H   0  0  0  0  0  0  0  0  0  0  0  0
   -0.1668   -0.3346    4.1579 H   0  0  0  0  0  0  0  0  0  0  0  0
    0.3994   -2.0393    4.1579 H   0  0  0  0  0  0  0  0  0  0  0  0
    2.4670   -1.3129    4.4331 H   0  0  0  0  0  0  0  0  0  0  0  0
    1.1500   -0.5442    7.0434 H   0  0  0  0  0  0  0  0  0  0  0  0
    2.5573   -1.6219    6.7521 H   0  0  0  0  0  0  0  0  0  0  0  0
    2.7762    0.1610    6.7521 H   0  0  0  0  0  0  0  0  0  0  0  0
    1.2235    1.1155    3.8665 H   0  0  0  0  0  0  0  0  0  0  0  0
    2.3296    1.3923    5.3348 H   0  0  0  0  0  0  0  0  0  0  0  0
    3.9808    0.1193    3.8080 H   0  0  0  0  0  0  0  0  0  0  0  0
    3.4020    3.0320    4.1800 H   0  0  0  0  0  0  0  0  0  0  0  0
    4.2490    2.5690    2.8130 H   0  0  0  0  0  0  0  0  0  0  0  0
    4.8920    2.2040    4.2880 H   0  0  0  0  0  0  0  0  0  0  0  0
  1  2  1  0
  2  3  1  0
  2  4  1  0
  4  5  1  0
  5  6  1  0
  5  7  1  0
  7  8  2  0
  7  9  1  0
  1 10  1  0
  1 11  1  0
  1 12  1  0
  2 13  1  0
  3 14  1  0
  3 15  1  0
  3 16  1  0
  4 17  1  0
  4 18  1  0
  5 19  1  1
  6 20  1  0
  6 21  1  0
  6 22  1  0
M  CHG  2   6   1   9  -1
M  END
>  <meeko>  (5) 
{"is_sidechain": [false], "free_energy": -5.041, "intermolecular_energy": -6.154, "internal_energy": -0.078}

$$$$
3f3e_ligand
     RDKit          3D

 22 21  0  0  0  0  0  0  0  0999 V2000
   -0.7380   -2.6090    3.7720 C   0  0  0  0  0  0  0  0  0  0  0  0
   -2.1650   -2.8410    3.2800 C   0  0  0  0  0  0  0  0  0  0  0  0
   -2.5760   -4.2880    3.5800 C   0  0  0  0  0  0  0  0  0  0  0  0
   -2.3650   -2.5570    1.7740 C   0  0  0  0  0  0  0  0  0  0  0  0
   -2.9370   -3.6820    0.9120 C   0  0  2  0  0  0  0  0  0  0  0  0
   -1.8620   -4.2520   -0.0010 N   0  0  0  0  0  0  0  0  0  0  0  0
   -4.1770   -3.3040    0.0510 C   0  0  0  0  0  0  0  0  0  0  0  0
   -5.3070   -3.5590    0.5130 O   0  0  0  0  0  0  0  0  0  0  0  0
   -3.7770   -2.7770   -1.0410 O   0  0  0  0  0  0  0  0  0  0  0  0
   -0.7252   -2.6069    4.8719 H   0  0  0  0  0  0  0  0  0  0  0  0
   -0.0864   -3.4130    3.3992 H   0  0  0  0  0  0  0  0  0  0  0  0
   -0.3746   -1.6400    3.3992 H   0  0  0  0  0  0  0  0  0  0  0  0
   -2.7997   -2.1228    3.8197 H   0  0  0  0  0  0  0  0  0  0  0  0
   -2.6188   -4.4388    4.6688 H   0  0  0  0  0  0  0  0  0  0  0  0
   -3.5659   -4.4861    3.1432 H   0  0  0  0  0  0  0  0  0  0  0  0
   -1.8380   -4.9769    3.1432 H   0  0  0  0  0  0  0  0  0  0  0  0
   -3.0467   -1.6979    1.6887 H   0  0  0  0  0  0  0  0  0  0  0  0
   -1.3498   -2.3940    1.3831 H   0  0  0  0  0  0  0  0  0  0  0  0
   -3.2879   -4.4283    1.6400 H   0  0  0  0  0  0  0  0  0  0  0  0
   -1.8160   -5.2670   -0.0540 H   0  0  0  0  0  0  0  0  0  0  0  0
   -1.0020   -3.9190    0.5120 H   0  0  0  0  0  0  0  0  0  0  0  0
   -1.8300   -3.7890   -0.9090 H   0  0  0  0  0  0  0  0  0  0  0  0
  1  2  1  0
  2  3  1  0
  2  4  1  0
  4  5  1  0
  5  6  1  0
  5  7  1  0
  7  8  2  0
  7  9  1  0
  1 10  1  0
  1 11  1  0
  1 12  1  0
  2 13  1  0
  3 14  1  0
  3 15  1  0
  3 16  1  0
  4 17  1  0
  4 18  1  0
  5 19  1  1
  6 20  1  0
  6 21  1  0
  6 22  1  0
M  CHG  2   6   1   9  -1
M  END
>  <meeko>  (6) 
{"is_sidechain": [false], "free_energy": -5.038, "intermolecular_energy": -6.118, "internal_energy": -0.111}

$$$$
3f3e_ligand
     RDKit          3D

 22 21  0  0  0  0  0  0  0  0999 V2000
   -0.7960   -2.6660    3.6500 C   0  0  0  0  0  0  0  0  0  0  0  0
   -2.0930   -3.4300    3.3890 C   0  0  0  0  0  0  0  0  0  0  0  0
   -1.7570   -4.8420    2.8950 C   0  0  0  0  0  0  0  0  0  0  0  0
   -3.0330   -2.7440    2.3730 C   0  0  0  0  0  0  0  0  0  0  0  0
   -4.0120   -3.6320    1.6050 C   0  0  2  0  0  0  0  0  0  0  0  0
   -4.0460   -3.2400    0.1360 N   0  0  0  0  0  0  0  0  0  0  0  0
   -5.4690   -3.6550    2.1510 C   0  0  0  0  0  0  0  0  0  0  0  0
   -5.6290   -3.8090    3.3780 O   0  0  0  0  0  0  0  0  0  0  0  0
   -6.2790   -3.5110    1.1740 O   0  0  0  0  0  0  0  0  0  0  0  0
   -0.6374   -2.5726    4.7345 H   0  0  0  0  0  0  0  0  0  0  0  0
    0.0475   -3.2115    3.2017 H   0  0  0  0  0  0  0  0  0  0  0  0
   -0.8642   -1.6638    3.2017 H   0  0  0  0  0  0  0  0  0  0  0  0
   -2.6362   -3.4574    4.3451 H   0  0  0  0  0  0  0  0  0  0  0  0
   -1.5993   -5.5048    3.7586 H   0  0  0  0  0  0  0  0  0  0  0  0
   -2.5891   -5.2251    2.2860 H   0  0  0  0  0  0  0  0  0  0  0  0
   -0.8416   -4.8092    2.2860 H   0  0  0  0  0  0  0  0  0  0  0  0
   -3.6263   -1.9994    2.9239 H   0  0  0  0  0  0  0  0  0  0  0  0
   -2.3623   -2.3354    1.6028 H   0  0  0  0  0  0  0  0  0  0  0  0
   -3.6188   -4.6499    1.7442 H   0  0  0  0  0  0  0  0  0  0  0  0
   -3.1860   -3.3930   -0.3850 H   0  0  0  0  0  0  0  0  0  0  0  0
   -4.1780   -2.1970    0.2360 H   0  0  0  0  0  0  0  0  0  0  0  0
   -4.8830   -3.5720   -0.3420 H   0  0  0  0  0  0  0  0  0  0  0  0
  1  2  1  0
  2  3  1  0
  2  4  1  0
  4  5  1  0
  5  6  1  0
  5  7  1  0
  7  8  2  0
  7  9  1  0
  1 10  1  0
  1 11  1  0
  1 12  1  0
  2 13  1  0
  3 14  1  0
  3 15  1  0
  3 16  1  0
  4 17  1  0
  4 18  1  0
  5 19  1  6
  6 20  1  0
  6 21  1  0
  6 22  1  0
M  CHG  2   6   1   9  -1
M  END
>  <meeko>  (7) 
{"is_sidechain": [false], "free_energy": -5.025, "intermolecular_energy": -6.081, "internal_energy": -0.131}

$$$$
3f3e_ligand
     RDKit          3D

 22 21  0  0  0  0  0  0  0  0999 V2000
    0.0130   -2.5420    3.3310 C   0  0  0  0  0  0  0  0  0  0  0  0
   -0.2510   -1.4250    4.3390 C   0  0  0  0  0  0  0  0  0  0  0  0
   -1.1200   -0.3460    3.6810 C   0  0  0  0  0  0  0  0  0  0  0  0
    1.0300   -0.7730    4.9050 C   0  0  0  0  0  0  0  0  0  0  0  0
    2.2680   -0.7510    4.0080 C   0  0  2  0  0  0  0  0  0  0  0  0
    3.5350   -0.7770    4.8480 N   0  0  0  0  0  0  0  0  0  0  0  0
    2.3530    0.4420    3.0110 C   0  0  0  0  0  0  0  0  0  0  0  0
    2.1720    1.5910    3.4600 O   0  0  0  0  0  0  0  0  0  0  0  0
    2.6000   -0.0130    1.8430 O   0  0  0  0  0  0  0  0  0  0  0  0
    0.2338   -3.4761    3.8683 H   0  0  0  0  0  0  0  0  0  0  0  0
   -0.8764   -2.6837    2.6994 H   0  0  0  0  0  0  0  0  0  0  0  0
    0.8717   -2.2705    2.6994 H   0  0  0  0  0  0  0  0  0  0  0  0
   -0.7654   -1.8908    5.1925 H   0  0  0  0  0  0  0  0  0  0  0  0
   -1.6068    0.2585    4.4605 H   0  0  0  0  0  0  0  0  0  0  0  0
   -0.4887    0.3021    3.0553 H   0  0  0  0  0  0  0  0  0  0  0  0
   -1.8877   -0.8247    3.0553 H   0  0  0  0  0  0  0  0  0  0  0  0
    0.7858    0.2701    5.1547 H   0  0  0  0  0  0  0  0  0  0  0  0
    1.3136   -1.4077    5.7575 H   0  0  0  0  0  0  0  0  0  0  0  0
    2.1715   -1.6575    3.3925 H   0  0  0  0  0  0  0  0  0  0  0  0
    4.1790   -1.5420    4.6590 H   0  0  0  0  0  0  0  0  0  0  0  0
    3.1100   -0.9450    5.8000 H   0  0  0  0  0  0  0  0  0  0  0  0
    3.9850    0.1360    4.9120 H   0  0  0  0  0  0  0  0  0  0  0  0
  1  2  1  0
  2  3  1  0
  2  4  1  0
  4  5  1  0
  5  6  1  0
  5  7  1  0
  7  8  2  0
  7  9  1  0
  1 10  1  0
  1 11  1  0
  1 12  1  0
  2 13  1  0
  3 14  1  0
  3 15  1  0
  3 16  1  0
  4 17  1  0
  4 18  1  0
  5 19  1  6
  6 20  1  0
  6 21  1  0
  6 22  1  0
M  CHG  2   6   1   9  -1
M  END
>  <meeko>  (8) 
{"is_sidechain": [false], "free_energy": -4.996, "intermolecular_energy": -6.013, "internal_energy": -0.165}

$$$$
3f3e_ligand
     RDKit          3D

 22 21  0  0  0  0  0  0  0  0999 V2000
   -2.9600   -4.0920    3.3600 C   0  0  0  0  0  0  0  0  0  0  0  0
   -4.0120   -3.3730    2.5180 C   0  0  0  0  0  0  0  0  0  0  0  0
   -5.4100   -3.7620    3.0140 C   0  0  0  0  0  0  0  0  0  0  0  0
   -3.9090   -3.6600    1.0040 C   0  0  0  0  0  0  0  0  0  0  0  0
   -3.4120   -2.5310    0.1010 C   0  0  2  0  0  0  0  0  0  0  0  0
   -3.3580   -2.9920   -1.3470 N   0  0  0  0  0  0  0  0  0  0  0  0
   -2.0320   -1.9220    0.4850 C   0  0  0  0  0  0  0  0  0  0  0  0
   -1.0700   -2.7030    0.6270 O   0  0  0  0  0  0  0  0  0  0  0  0
   -2.1550   -0.6560    0.5980 O   0  0  0  0  0  0  0  0  0  0  0  0
   -3.1795   -3.9420    4.4274 H   0  0  0  0  0  0  0  0  0  0  0  0
   -2.9782   -5.1674    3.1295 H   0  0  0  0  0  0  0  0  0  0  0  0
   -1.9646   -3.6844    3.1295 H   0  0  0  0  0  0  0  0  0  0  0  0
   -3.8273   -2.2958    2.6429 H   0  0  0  0  0  0  0  0  0  0  0  0
   -5.4211   -3.7651    4.1139 H   0  0  0  0  0  0  0  0  0  0  0  0
   -6.1466   -3.0347    2.6419 H   0  0  0  0  0  0  0  0  0  0  0  0
   -5.6651   -4.7652    2.6419 H   0  0  0  0  0  0  0  0  0  0  0  0
   -3.2224   -4.5098    0.8763 H   0  0  0  0  0  0  0  0  0  0  0  0
   -4.9458   -3.8383    0.6827 H   0  0  0  0  0  0  0  0  0  0  0  0
   -4.1496   -1.7274    0.2429 H   0  0  0  0  0  0  0  0  0  0  0  0
   -4.2480   -3.2550   -1.7640 H   0  0  0  0  0  0  0  0  0  0  0  0
   -2.7870   -3.8710   -1.2300 H   0  0  0  0  0  0  0  0  0  0  0  0
   -2.7920   -2.3790   -1.9350 H   0  0  0  0  0  0  0  0  0  0  0  0
  1  2  1  0
  2  3  1  0
  2  4  1  0
  4  5  1  0
  5  6  1  0
  5  7  1  0
  7  8  2  0
  7  9  1  0
  1 10  1  0
  1 11  1  0
  1 12  1  0
  2 13  1  0
  3 14  1  0
  3 15  1  0
  3 16  1  0
  4 17  1  0
  4 18  1  0
  5 19  1  6
  6 20  1  0
  6 21  1  0
  6 22  1  0
M  CHG  2   6   1   9  -1
M  END
>  <meeko>  (9) 
{"is_sidechain": [false], "free_energy": -4.964, "intermolecular_energy": -5.99, "internal_energy": -0.149}

$$$$
