3bgz_ligand
     RDKit          3D

 38 41  0  0  0  0  0  0  0  0999 V2000
   -1.1790   -3.1550  -11.2350 O   0  0  0  0  0  0  0  0  0  0  0  0
   -1.9750   -3.0390  -10.2450 C   0  0  0  0  0  0  0  0  0  0  0  0
   -2.4720   -1.9530   -9.8120 O   0  0  0  0  0  0  0  0  0  0  0  0
   -2.3600   -4.3130   -9.5270 C   0  0  0  0  0  0  0  0  0  0  0  0
   -1.4290   -5.3090   -9.1870 C   0  0  0  0  0  0  0  0  0  0  0  0
   -1.8120   -6.4700   -8.5120 C   0  0  0  0  0  0  0  0  0  0  0  0
   -3.1500   -6.6790   -8.1530 C   0  0  0  0  0  0  0  0  0  0  0  0
   -4.1160   -5.7070   -8.4850 C   0  0  0  0  0  0  0  0  0  0  0  0
   -5.5320   -5.5730   -8.2810 C   0  0  0  0  0  0  0  0  0  0  0  0
   -6.4210   -6.5070   -7.6060 C   0  0  0  0  0  0  0  0  0  0  0  0
   -6.0400   -7.0730   -6.3820 C   0  0  0  0  0  0  0  0  0  0  0  0
   -6.8900   -7.9650   -5.7250 C   0  0  0  0  0  0  0  0  0  0  0  0
   -8.1250   -8.2930   -6.2840 C   0  0  0  0  0  0  0  0  0  0  0  0
   -8.5120   -7.7300   -7.4990 C   0  0  0  0  0  0  0  0  0  0  0  0
   -7.6640   -6.8370   -8.1580 C   0  0  0  0  0  0  0  0  0  0  0  0
   -5.9370   -4.3550   -8.8290 C   0  0  0  0  0  0  0  0  0  0  0  0
   -7.2400   -3.6930   -8.9380 C   0  0  0  0  0  0  0  0  0  0  0  0
   -7.6110   -2.7010   -8.0190 C   0  0  0  0  0  0  0  0  0  0  0  0
   -8.8500   -2.0630   -8.1180 C   0  0  0  0  0  0  0  0  0  0  0  0
   -9.7320   -2.4070   -9.1400 C   0  0  0  0  0  0  0  0  0  0  0  0
   -9.3750   -3.3880  -10.0630 C   0  0  0  0  0  0  0  0  0  0  0  0
   -8.1350   -4.0240   -9.9640 C   0  0  0  0  0  0  0  0  0  0  0  0
   -4.8010   -3.7760   -9.3510 N   0  0  0  0  0  0  0  0  0  0  0  0
   -3.6930   -4.5660   -9.1520 C   0  0  0  0  0  0  0  0  0  0  0  0
   -0.3722   -5.1708   -9.4593 H   0  0  0  0  0  0  0  0  0  0  0  0
   -1.0557   -7.2279   -8.2597 H   0  0  0  0  0  0  0  0  0  0  0  0
   -3.4443   -7.5933   -7.6169 H   0  0  0  0  0  0  0  0  0  0  0  0
   -5.0679   -6.8137   -5.9372 H   0  0  0  0  0  0  0  0  0  0  0  0
   -6.5854   -8.4093   -4.7659 H   0  0  0  0  0  0  0  0  0  0  0  0
   -8.7938   -8.9961   -5.7659 H   0  0  0  0  0  0  0  0  0  0  0  0
   -9.4862   -7.9892   -7.9392 H   0  0  0  0  0  0  0  0  0  0  0  0
   -7.9743   -6.3913   -9.1146 H   0  0  0  0  0  0  0  0  0  0  0  0
   -6.9187   -2.4220   -7.2110 H   0  0  0  0  0  0  0  0  0  0  0  0
   -9.1293   -1.2885   -7.3885 H   0  0  0  0  0  0  0  0  0  0  0  0
  -10.7079   -1.9054   -9.2182 H   0  0  0  0  0  0  0  0  0  0  0  0
  -10.0701   -3.6619  -10.8703 H   0  0  0  0  0  0  0  0  0  0  0  0
   -7.8582   -4.7933  -10.6999 H   0  0  0  0  0  0  0  0  0  0  0  0
   -4.7240   -2.8870   -9.8400 H   0  0  0  0  0  0  0  0  0  0  0  0
  1  2  2  0
  2  3  1  0
  2  4  1  0
  4  5  2  0
  5  6  1  0
  6  7  2  0
  7  8  1  0
  8  9  1  0
  9 10  1  0
 10 11  2  0
 11 12  1  0
 12 13  2  0
 13 14  1  0
 14 15  2  0
  9 16  2  0
 16 17  1  0
 17 18  2  0
 18 19  1  0
 19 20  2  0
 20 21  1  0
 21 22  2  0
 16 23  1  0
 23 24  1  0
 24  4  1  0
 24  8  2  0
 15 10  1  0
 22 17  1  0
  5 25  1  0
  6 26  1  0
  7 27  1  0
 11 28  1  0
 12 29  1  0
 13 30  1  0
 14 31  1  0
 15 32  1  0
 18 33  1  0
 19 34  1  0
 20 35  1  0
 21 36  1  0
 22 37  1  0
 23 38  1  0
M  CHG  1   3  -1
M  END
>  <meeko>  (1) 
{"is_sidechain": [false], "free_energy": -9.2, "intermolecular_energy": -10.813, "internal_energy": -1.013}

$$$$
3bgz_ligand
     RDKit          3D

 38 41  0  0  0  0  0  0  0  0999 V2000
  -11.1960   -6.3310   -8.4610 O   0  0  0  0  0  0  0  0  0  0  0  0
  -10.2790   -5.6620   -7.8780 C   0  0  0  0  0  0  0  0  0  0  0  0
  -10.2710   -4.4030   -7.7060 O   0  0  0  0  0  0  0  0  0  0  0  0
   -9.1000   -6.4430   -7.3430 C   0  0  0  0  0  0  0  0  0  0  0  0
   -9.2430   -7.5660   -6.5100 C   0  0  0  0  0  0  0  0  0  0  0  0
   -8.1360   -8.2760   -6.0420 C   0  0  0  0  0  0  0  0  0  0  0  0
   -6.8370   -7.8850   -6.3900 C   0  0  0  0  0  0  0  0  0  0  0  0
   -6.6520   -6.7580   -7.2180 C   0  0  0  0  0  0  0  0  0  0  0  0
   -5.5110   -6.0850   -7.7740 C   0  0  0  0  0  0  0  0  0  0  0  0
   -4.1080   -6.4360   -7.6090 C   0  0  0  0  0  0  0  0  0  0  0  0
   -3.6220   -6.7940   -6.3450 C   0  0  0  0  0  0  0  0  0  0  0  0
   -2.2790   -7.1380   -6.1790 C   0  0  0  0  0  0  0  0  0  0  0  0
   -1.4160   -7.1300   -7.2750 C   0  0  0  0  0  0  0  0  0  0  0  0
   -1.8940   -6.7800   -8.5370 C   0  0  0  0  0  0  0  0  0  0  0  0
   -3.2380   -6.4360   -8.7050 C   0  0  0  0  0  0  0  0  0  0  0  0
   -5.9700   -5.0160   -8.5460 C   0  0  0  0  0  0  0  0  0  0  0  0
   -5.2870   -3.9820   -9.3270 C   0  0  0  0  0  0  0  0  0  0  0  0
   -5.2940   -4.0300  -10.7290 C   0  0  0  0  0  0  0  0  0  0  0  0
   -4.6470   -3.0460  -11.4810 C   0  0  0  0  0  0  0  0  0  0  0  0
   -3.9870   -2.0000  -10.8400 C   0  0  0  0  0  0  0  0  0  0  0  0
   -3.9740   -1.9370   -9.4480 C   0  0  0  0  0  0  0  0  0  0  0  0
   -4.6240   -2.9200   -8.6970 C   0  0  0  0  0  0  0  0  0  0  0  0
   -7.3450   -5.0420   -8.4520 N   0  0  0  0  0  0  0  0  0  0  0  0
   -7.7780   -6.0820   -7.6650 C   0  0  0  0  0  0  0  0  0  0  0  0
  -10.2522   -7.8935   -6.2197 H   0  0  0  0  0  0  0  0  0  0  0  0
   -8.2855   -9.1516   -5.3932 H   0  0  0  0  0  0  0  0  0  0  0  0
   -5.9691   -8.4514   -6.0211 H   0  0  0  0  0  0  0  0  0  0  0  0
   -4.3011   -6.8042   -5.4797 H   0  0  0  0  0  0  0  0  0  0  0  0
   -1.9014   -7.4154   -5.1838 H   0  0  0  0  0  0  0  0  0  0  0  0
   -0.3578   -7.4000   -7.1434 H   0  0  0  0  0  0  0  0  0  0  0  0
   -1.2130   -6.7746   -9.4008 H   0  0  0  0  0  0  0  0  0  0  0  0
   -3.6134   -6.1642   -9.7026 H   0  0  0  0  0  0  0  0  0  0  0  0
   -5.8148   -4.8518  -11.2422 H   0  0  0  0  0  0  0  0  0  0  0  0
   -4.6588   -3.0973  -12.5797 H   0  0  0  0  0  0  0  0  0  0  0  0
   -3.4771   -1.2253  -11.4315 H   0  0  0  0  0  0  0  0  0  0  0  0
   -3.4517   -1.1129   -8.9400 H   0  0  0  0  0  0  0  0  0  0  0  0
   -4.6152   -2.8596   -7.5987 H   0  0  0  0  0  0  0  0  0  0  0  0
   -8.0090   -4.4010   -8.8780 H   0  0  0  0  0  0  0  0  0  0  0  0
  1  2  2  0
  2  3  1  0
  2  4  1  0
  4  5  2  0
  5  6  1  0
  6  7  2  0
  7  8  1  0
  8  9  1  0
  9 10  1  0
 10 11  2  0
 11 12  1  0
 12 13  2  0
 13 14  1  0
 14 15  2  0
  9 16  2  0
 16 17  1  0
 17 18  2  0
 18 19  1  0
 19 20  2  0
 20 21  1  0
 21 22  2  0
 16 23  1  0
 23 24  1  0
 24  4  1  0
 24  8  2  0
 15 10  1  0
 22 17  1  0
  5 25  1  0
  6 26  1  0
  7 27  1  0
 11 28  1  0
 12 29  1  0
 13 30  1  0
 14 31  1  0
 15 32  1  0
 18 33  1  0
 19 34  1  0
 20 35  1  0
 21 36  1  0
 22 37  1  0
 23 38  1  0
M  CHG  1   3  -1
M  END
>  <meeko>  (2) 
{"is_sidechain": [false], "free_energy": -9.026, "intermolecular_energy": -10.469, "internal_energy": -1.152}

$$$$
3bgz_ligand
     RDKit          3D

 38 41  0  0  0  0  0  0  0  0999 V2000
  -10.1150   -7.1200   -6.5950 O   0  0  0  0  0  0  0  0  0  0  0  0
  -10.7820   -6.7890   -7.6310 C   0  0  0  0  0  0  0  0  0  0  0  0
  -11.8720   -7.3170   -8.0150 O   0  0  0  0  0  0  0  0  0  0  0  0
  -10.2220   -5.6650   -8.4730 C   0  0  0  0  0  0  0  0  0  0  0  0
  -11.0280   -4.8250   -9.2600 C   0  0  0  0  0  0  0  0  0  0  0  0
  -10.4830   -3.7860  -10.0170 C   0  0  0  0  0  0  0  0  0  0  0  0
   -9.1020   -3.5490  -10.0160 C   0  0  0  0  0  0  0  0  0  0  0  0
   -8.2590   -4.3760   -9.2450 C   0  0  0  0  0  0  0  0  0  0  0  0
   -6.8450   -4.4310   -8.9960 C   0  0  0  0  0  0  0  0  0  0  0  0
   -5.8170   -3.5510   -9.5310 C   0  0  0  0  0  0  0  0  0  0  0  0
   -5.3080   -3.7720  -10.8170 C   0  0  0  0  0  0  0  0  0  0  0  0
   -4.3250   -2.9290  -11.3400 C   0  0  0  0  0  0  0  0  0  0  0  0
   -3.8490   -1.8590  -10.5830 C   0  0  0  0  0  0  0  0  0  0  0  0
   -4.3540   -1.6300   -9.3040 C   0  0  0  0  0  0  0  0  0  0  0  0
   -5.3380   -2.4710   -8.7790 C   0  0  0  0  0  0  0  0  0  0  0  0
   -6.6000   -5.4810   -8.1100 C   0  0  0  0  0  0  0  0  0  0  0  0
   -5.3740   -6.0220   -7.5150 C   0  0  0  0  0  0  0  0  0  0  0  0
   -5.4400   -6.8710   -6.4010 C   0  0  0  0  0  0  0  0  0  0  0  0
   -4.2760   -7.3930   -5.8310 C   0  0  0  0  0  0  0  0  0  0  0  0
   -3.0320   -7.0740   -6.3700 C   0  0  0  0  0  0  0  0  0  0  0  0
   -2.9510   -6.2350   -7.4800 C   0  0  0  0  0  0  0  0  0  0  0  0
   -4.1160   -5.7160   -8.0500 C   0  0  0  0  0  0  0  0  0  0  0  0
   -7.8280   -6.0450   -7.8380 N   0  0  0  0  0  0  0  0  0  0  0  0
   -8.8400   -5.3950   -8.5040 C   0  0  0  0  0  0  0  0  0  0  0  0
  -12.1154   -4.9901   -9.2802 H   0  0  0  0  0  0  0  0  0  0  0  0
  -11.1446   -3.1470  -10.6203 H   0  0  0  0  0  0  0  0  0  0  0  0
   -8.6794   -2.7258  -10.6108 H   0  0  0  0  0  0  0  0  0  0  0  0
   -5.6841   -4.6132  -11.4177 H   0  0  0  0  0  0  0  0  0  0  0  0
   -3.9262   -3.1091  -12.3492 H   0  0  0  0  0  0  0  0  0  0  0  0
   -3.0747   -1.1953  -10.9953 H   0  0  0  0  0  0  0  0  0  0  0  0
   -3.9772   -0.7861   -8.7075 H   0  0  0  0  0  0  0  0  0  0  0  0
   -5.7380   -2.2844   -7.7715 H   0  0  0  0  0  0  0  0  0  0  0  0
   -6.4191   -7.1290   -5.9710 H   0  0  0  0  0  0  0  0  0  0  0  0
   -4.3422   -8.0563   -4.9560 H   0  0  0  0  0  0  0  0  0  0  0  0
   -2.1153   -7.4834   -5.9206 H   0  0  0  0  0  0  0  0  0  0  0  0
   -1.9696   -5.9815   -7.9073 H   0  0  0  0  0  0  0  0  0  0  0  0
   -4.0447   -5.0592   -8.9295 H   0  0  0  0  0  0  0  0  0  0  0  0
   -8.0280   -6.8430   -7.2400 H   0  0  0  0  0  0  0  0  0  0  0  0
  1  2  2  0
  2  3  1  0
  2  4  1  0
  4  5  2  0
  5  6  1  0
  6  7  2  0
  7  8  1  0
  8  9  1  0
  9 10  1  0
 10 11  2  0
 11 12  1  0
 12 13  2  0
 13 14  1  0
 14 15  2  0
  9 16  2  0
 16 17  1  0
 17 18  2  0
 18 19  1  0
 19 20  2  0
 20 21  1  0
 21 22  2  0
 16 23  1  0
 23 24  1  0
 24  4  1  0
 24  8  2  0
 15 10  1  0
 22 17  1  0
  5 25  1  0
  6 26  1  0
  7 27  1  0
 11 28  1  0
 12 29  1  0
 13 30  1  0
 14 31  1  0
 15 32  1  0
 18 33  1  0
 19 34  1  0
 20 35  1  0
 21 36  1  0
 22 37  1  0
 23 38  1  0
M  CHG  1   3  -1
M  END
>  <meeko>  (3) 
{"is_sidechain": [false], "free_energy": -8.827, "intermolecular_energy": -10.288, "internal_energy": -1.1}

$$$$
3bgz_ligand
     RDKit          3D

 38 41  0  0  0  0  0  0  0  0999 V2000
  -14.0160   -7.5060   -9.0590 O   0  0  0  0  0  0  0  0  0  0  0  0
  -13.0290   -7.0500   -8.3910 C   0  0  0  0  0  0  0  0  0  0  0  0
  -12.6410   -7.4680   -7.2550 O   0  0  0  0  0  0  0  0  0  0  0  0
  -12.2530   -5.9110   -9.0120 C   0  0  0  0  0  0  0  0  0  0  0  0
  -12.8610   -4.9010   -9.7780 C   0  0  0  0  0  0  0  0  0  0  0  0
  -12.1200   -3.8540  -10.3290 C   0  0  0  0  0  0  0  0  0  0  0  0
  -10.7350   -3.7790  -10.1360 C   0  0  0  0  0  0  0  0  0  0  0  0
  -10.0860   -4.7790   -9.3810 C   0  0  0  0  0  0  0  0  0  0  0  0
   -8.7300   -5.0240   -8.9780 C   0  0  0  0  0  0  0  0  0  0  0  0
   -7.5580   -4.2150   -9.2740 C   0  0  0  0  0  0  0  0  0  0  0  0
   -6.9090   -4.3500  -10.5080 C   0  0  0  0  0  0  0  0  0  0  0  0
   -5.7870   -3.5730  -10.8030 C   0  0  0  0  0  0  0  0  0  0  0  0
   -5.3090   -2.6540   -9.8680 C   0  0  0  0  0  0  0  0  0  0  0  0
   -5.9520   -2.5110   -8.6400 C   0  0  0  0  0  0  0  0  0  0  0  0
   -7.0760   -3.2870   -8.3430 C   0  0  0  0  0  0  0  0  0  0  0  0
   -8.7090   -6.1890   -8.2080 C   0  0  0  0  0  0  0  0  0  0  0  0
   -7.6320   -6.9310   -7.5470 C   0  0  0  0  0  0  0  0  0  0  0  0
   -6.3260   -6.8890   -8.0550 C   0  0  0  0  0  0  0  0  0  0  0  0
   -5.2930   -7.5920   -7.4290 C   0  0  0  0  0  0  0  0  0  0  0  0
   -5.5540   -8.3430   -6.2850 C   0  0  0  0  0  0  0  0  0  0  0  0
   -6.8460   -8.3900   -5.7660 C   0  0  0  0  0  0  0  0  0  0  0  0
   -7.8780   -7.6850   -6.3920 C   0  0  0  0  0  0  0  0  0  0  0  0
  -10.0130   -6.6330   -8.1550 N   0  0  0  0  0  0  0  0  0  0  0  0
  -10.8590   -5.8000   -8.8470 C   0  0  0  0  0  0  0  0  0  0  0  0
  -13.9473   -4.9366   -9.9473 H   0  0  0  0  0  0  0  0  0  0  0  0
  -12.6295   -3.0796  -10.9211 H   0  0  0  0  0  0  0  0  0  0  0  0
  -10.1584   -2.9483  -10.5689 H   0  0  0  0  0  0  0  0  0  0  0  0
   -7.2851   -5.0716  -11.2482 H   0  0  0  0  0  0  0  0  0  0  0  0
   -5.2798   -3.6853  -11.7726 H   0  0  0  0  0  0  0  0  0  0  0  0
   -4.4247   -2.0425  -10.1003 H   0  0  0  0  0  0  0  0  0  0  0  0
   -5.5745   -1.7865   -7.9034 H   0  0  0  0  0  0  0  0  0  0  0  0
   -7.5837   -3.1682   -7.3744 H   0  0  0  0  0  0  0  0  0  0  0  0
   -6.1119   -6.2961   -8.9564 H   0  0  0  0  0  0  0  0  0  0  0  0
   -4.2733   -7.5523   -7.8398 H   0  0  0  0  0  0  0  0  0  0  0  0
   -4.7417   -8.8977   -5.7926 H   0  0  0  0  0  0  0  0  0  0  0  0
   -7.0542   -8.9824   -4.8628 H   0  0  0  0  0  0  0  0  0  0  0  0
   -8.8945   -7.7226   -5.9732 H   0  0  0  0  0  0  0  0  0  0  0  0
  -10.3680   -7.4650   -7.6890 H   0  0  0  0  0  0  0  0  0  0  0  0
  1  2  2  0
  2  3  1  0
  2  4  1  0
  4  5  2  0
  5  6  1  0
  6  7  2  0
  7  8  1  0
  8  9  1  0
  9 10  1  0
 10 11  2  0
 11 12  1  0
 12 13  2  0
 13 14  1  0
 14 15  2  0
  9 16  2  0
 16 17  1  0
 17 18  2  0
 18 19  1  0
 19 20  2  0
 20 21  1  0
 21 22  2  0
 16 23  1  0
 23 24  1  0
 24  4  1  0
 24  8  2  0
 15 10  1  0
 22 17  1  0
  5 25  1  0
  6 26  1  0
  7 27  1  0
 11 28  1  0
 12 29  1  0
 13 30  1  0
 14 31  1  0
 15 32  1  0
 18 33  1  0
 19 34  1  0
 20 35  1  0
 21 36  1  0
 22 37  1  0
 23 38  1  0
M  CHG  1   3  -1
M  END
>  <meeko>  (4) 
{"is_sidechain": [false], "free_energy": -8.754, "intermolecular_energy": -10.089, "internal_energy": -1.213}

$$$$
3bgz_ligand
     RDKit          3D

 38 41  0  0  0  0  0  0  0  0999 V2000
   -0.0800   -4.1730  -11.1300 O   0  0  0  0  0  0  0  0  0  0  0  0
   -1.0700   -4.4260  -10.3650 C   0  0  0  0  0  0  0  0  0  0  0  0
   -1.0890   -5.2860   -9.4310 O   0  0  0  0  0  0  0  0  0  0  0  0
   -2.3310   -3.6240  -10.5950 C   0  0  0  0  0  0  0  0  0  0  0  0
   -2.3810   -2.5090  -11.4500 C   0  0  0  0  0  0  0  0  0  0  0  0
   -3.5630   -1.7950  -11.6530 C   0  0  0  0  0  0  0  0  0  0  0  0
   -4.7460   -2.1710  -11.0030 C   0  0  0  0  0  0  0  0  0  0  0  0
   -4.7340   -3.2790  -10.1310 C   0  0  0  0  0  0  0  0  0  0  0  0
   -5.7190   -3.9450   -9.3240 C   0  0  0  0  0  0  0  0  0  0  0  0
   -7.1280   -3.6090   -9.1910 C   0  0  0  0  0  0  0  0  0  0  0  0
   -7.5580   -2.8090   -8.1240 C   0  0  0  0  0  0  0  0  0  0  0  0
   -8.9080   -2.4770   -7.9920 C   0  0  0  0  0  0  0  0  0  0  0  0
   -9.8350   -2.9390   -8.9270 C   0  0  0  0  0  0  0  0  0  0  0  0
   -9.4130   -3.7320   -9.9930 C   0  0  0  0  0  0  0  0  0  0  0  0
   -8.0630   -4.0640  -10.1270 C   0  0  0  0  0  0  0  0  0  0  0  0
   -5.1000   -5.0180   -8.6800 C   0  0  0  0  0  0  0  0  0  0  0  0
   -5.5820   -6.0280   -7.7350 C   0  0  0  0  0  0  0  0  0  0  0  0
   -4.7310   -6.5350   -6.7420 C   0  0  0  0  0  0  0  0  0  0  0  0
   -5.1850   -7.4970   -5.8350 C   0  0  0  0  0  0  0  0  0  0  0  0
   -6.4960   -7.9620   -5.9090 C   0  0  0  0  0  0  0  0  0  0  0  0
   -7.3540   -7.4640   -6.8870 C   0  0  0  0  0  0  0  0  0  0  0  0
   -6.9000   -6.5010   -7.7920 C   0  0  0  0  0  0  0  0  0  0  0  0
   -3.7820   -4.9950   -9.0840 N   0  0  0  0  0  0  0  0  0  0  0  0
   -3.5390   -3.9640   -9.9600 C   0  0  0  0  0  0  0  0  0  0  0  0
   -1.4661   -2.1916  -11.9718 H   0  0  0  0  0  0  0  0  0  0  0  0
   -3.5659   -0.9282  -12.3302 H   0  0  0  0  0  0  0  0  0  0  0  0
   -5.6753   -1.6071  -11.1714 H   0  0  0  0  0  0  0  0  0  0  0  0
   -6.8290   -2.4409   -7.3871 H   0  0  0  0  0  0  0  0  0  0  0  0
   -9.2407   -1.8512   -7.1508 H   0  0  0  0  0  0  0  0  0  0  0  0
  -10.8984   -2.6776   -8.8230 H   0  0  0  0  0  0  0  0  0  0  0  0
  -10.1441   -4.0967  -10.7295 H   0  0  0  0  0  0  0  0  0  0  0  0
   -7.7334   -4.6860  -10.9723 H   0  0  0  0  0  0  0  0  0  0  0  0
   -3.6948   -6.1716   -6.6762 H   0  0  0  0  0  0  0  0  0  0  0  0
   -4.5064   -7.8871   -5.0622 H   0  0  0  0  0  0  0  0  0  0  0  0
   -6.8529   -8.7206   -5.1969 H   0  0  0  0  0  0  0  0  0  0  0  0
   -8.3899   -7.8292   -6.9469 H   0  0  0  0  0  0  0  0  0  0  0  0
   -7.5852   -6.1095   -8.5583 H   0  0  0  0  0  0  0  0  0  0  0  0
   -3.0350   -5.6250   -8.8020 H   0  0  0  0  0  0  0  0  0  0  0  0
  1  2  2  0
  2  3  1  0
  2  4  1  0
  4  5  2  0
  5  6  1  0
  6  7  2  0
  7  8  1  0
  8  9  1  0
  9 10  1  0
 10 11  2  0
 11 12  1  0
 12 13  2  0
 13 14  1  0
 14 15  2  0
  9 16  2  0
 16 17  1  0
 17 18  2  0
 18 19  1  0
 19 20  2  0
 20 21  1  0
 21 22  2  0
 16 23  1  0
 23 24  1  0
 24  4  1  0
 24  8  2  0
 15 10  1  0
 22 17  1  0
  5 25  1  0
  6 26  1  0
  7 27  1  0
 11 28  1  0
 12 29  1  0
 13 30  1  0
 14 31  1  0
 15 32  1  0
 18 33  1  0
 19 34  1  0
 20 35  1  0
 21 36  1  0
 22 37  1  0
 23 38  1  0
M  CHG  1   3  -1
M  END
>  <meeko>  (5) 
{"is_sidechain": [false], "free_energy": -8.632, "intermolecular_energy": -10.034, "internal_energy": -1.125}

$$$$
3bgz_ligand
     RDKit          3D

 38 41  0  0  0  0  0  0  0  0999 V2000
   -3.9950   -6.5320   -7.5490 O   0  0  0  0  0  0  0  0  0  0  0  0
   -4.5840   -7.0780   -6.5560 C   0  0  0  0  0  0  0  0  0  0  0  0
   -4.0180   -7.5460   -5.5200 O   0  0  0  0  0  0  0  0  0  0  0  0
   -6.0910   -7.1700   -6.6250 C   0  0  0  0  0  0  0  0  0  0  0  0
   -6.8110   -8.2790   -6.1480 C   0  0  0  0  0  0  0  0  0  0  0  0
   -8.2050   -8.3300   -6.2130 C   0  0  0  0  0  0  0  0  0  0  0  0
   -8.9340   -7.2690   -6.7650 C   0  0  0  0  0  0  0  0  0  0  0  0
   -8.2470   -6.1420   -7.2630 C   0  0  0  0  0  0  0  0  0  0  0  0
   -8.6410   -4.9010   -7.8710 C   0  0  0  0  0  0  0  0  0  0  0  0
   -9.9940   -4.4440   -8.1520 C   0  0  0  0  0  0  0  0  0  0  0  0
  -10.7180   -5.0130   -9.2070 C   0  0  0  0  0  0  0  0  0  0  0  0
  -12.0190   -4.5830   -9.4800 C   0  0  0  0  0  0  0  0  0  0  0  0
  -12.6030   -3.5860   -8.6980 C   0  0  0  0  0  0  0  0  0  0  0  0
  -11.8890   -3.0190   -7.6440 C   0  0  0  0  0  0  0  0  0  0  0  0
  -10.5890   -3.4470   -7.3690 C   0  0  0  0  0  0  0  0  0  0  0  0
   -7.4880   -4.1630   -8.1380 C   0  0  0  0  0  0  0  0  0  0  0  0
   -7.2610   -2.8530   -8.7550 C   0  0  0  0  0  0  0  0  0  0  0  0
   -7.3700   -2.6930  -10.1440 C   0  0  0  0  0  0  0  0  0  0  0  0
   -7.1580   -1.4460  -10.7380 C   0  0  0  0  0  0  0  0  0  0  0  0
   -6.8350   -0.3430   -9.9500 C   0  0  0  0  0  0  0  0  0  0  0  0
   -6.7270   -0.4860   -8.5680 C   0  0  0  0  0  0  0  0  0  0  0  0
   -6.9420   -1.7330   -7.9750 C   0  0  0  0  0  0  0  0  0  0  0  0
   -6.4310   -4.9380   -7.7100 N   0  0  0  0  0  0  0  0  0  0  0  0
   -6.8620   -6.1290   -7.1750 C   0  0  0  0  0  0  0  0  0  0  0  0
   -6.2629   -9.1276   -5.7128 H   0  0  0  0  0  0  0  0  0  0  0  0
   -8.7360   -9.2125   -5.8267 H   0  0  0  0  0  0  0  0  0  0  0  0
  -10.0322   -7.3141   -6.8098 H   0  0  0  0  0  0  0  0  0  0  0  0
  -10.2608   -5.8013   -9.8230 H   0  0  0  0  0  0  0  0  0  0  0  0
  -12.5830   -5.0306  -10.3116 H   0  0  0  0  0  0  0  0  0  0  0  0
  -13.6272   -3.2474   -8.9134 H   0  0  0  0  0  0  0  0  0  0  0  0
  -12.3504   -2.2332   -7.0279 H   0  0  0  0  0  0  0  0  0  0  0  0
  -10.0299   -2.9994   -6.5341 H   0  0  0  0  0  0  0  0  0  0  0  0
   -7.6252   -3.5587  -10.7729 H   0  0  0  0  0  0  0  0  0  0  0  0
   -7.2462   -1.3350  -11.8288 H   0  0  0  0  0  0  0  0  0  0  0  0
   -6.6657    0.6381  -10.4177 H   0  0  0  0  0  0  0  0  0  0  0  0
   -6.4724    0.3831   -7.9436 H   0  0  0  0  0  0  0  0  0  0  0  0
   -6.8599   -1.8368   -6.8830 H   0  0  0  0  0  0  0  0  0  0  0  0
   -5.4390   -4.7200   -7.7610 H   0  0  0  0  0  0  0  0  0  0  0  0
  1  2  2  0
  2  3  1  0
  2  4  1  0
  4  5  2  0
  5  6  1  0
  6  7  2  0
  7  8  1  0
  8  9  1  0
  9 10  1  0
 10 11  2  0
 11 12  1  0
 12 13  2  0
 13 14  1  0
 14 15  2  0
  9 16  2  0
 16 17  1  0
 17 18  2  0
 18 19  1  0
 19 20  2  0
 20 21  1  0
 21 22  2  0
 16 23  1  0
 23 24  1  0
 24  4  1  0
 24  8  2  0
 15 10  1  0
 22 17  1  0
  5 25  1  0
  6 26  1  0
  7 27  1  0
 11 28  1  0
 12 29  1  0
 13 30  1  0
 14 31  1  0
 15 32  1  0
 18 33  1  0
 19 34  1  0
 20 35  1  0
 21 36  1  0
 22 37  1  0
 23 38  1  0
M  CHG  1   3  -1
M  END
>  <meeko>  (6) 
{"is_sidechain": [false], "free_energy": -8.629, "intermolecular_energy": -9.664, "internal_energy": -1.492}

$$$$
3bgz_ligand
     RDKit          3D

 38 41  0  0  0  0  0  0  0  0999 V2000
   -2.4100   -7.8690   -8.8850 O   0  0  0  0  0  0  0  0  0  0  0  0
   -1.8800   -6.7930   -8.4470 C   0  0  0  0  0  0  0  0  0  0  0  0
   -0.8320   -6.7160   -7.7330 O   0  0  0  0  0  0  0  0  0  0  0  0
   -2.5650   -5.4970   -8.8170 C   0  0  0  0  0  0  0  0  0  0  0  0
   -1.8840   -4.4120   -9.3960 C   0  0  0  0  0  0  0  0  0  0  0  0
   -2.5460   -3.2320   -9.7400 C   0  0  0  0  0  0  0  0  0  0  0  0
   -3.9210   -3.0920   -9.5130 C   0  0  0  0  0  0  0  0  0  0  0  0
   -4.6380   -4.1550   -8.9260 C   0  0  0  0  0  0  0  0  0  0  0  0
   -6.0110   -4.3740   -8.5620 C   0  0  0  0  0  0  0  0  0  0  0  0
   -7.1270   -3.4560   -8.7280 C   0  0  0  0  0  0  0  0  0  0  0  0
   -7.3800   -2.4800   -7.7560 C   0  0  0  0  0  0  0  0  0  0  0  0
   -8.4460   -1.5920   -7.9100 C   0  0  0  0  0  0  0  0  0  0  0  0
   -9.2630   -1.6710   -9.0390 C   0  0  0  0  0  0  0  0  0  0  0  0
   -9.0150   -2.6370  -10.0120 C   0  0  0  0  0  0  0  0  0  0  0  0
   -7.9480   -3.5260   -9.8600 C   0  0  0  0  0  0  0  0  0  0  0  0
   -6.1190   -5.6580   -8.0270 C   0  0  0  0  0  0  0  0  0  0  0  0
   -7.2440   -6.4200   -7.4770 C   0  0  0  0  0  0  0  0  0  0  0  0
   -8.5550   -6.1520   -7.8960 C   0  0  0  0  0  0  0  0  0  0  0  0
   -9.6320   -6.8770   -7.3790 C   0  0  0  0  0  0  0  0  0  0  0  0
   -9.4110   -7.8790   -6.4370 C   0  0  0  0  0  0  0  0  0  0  0  0
   -8.1130   -8.1590   -6.0150 C   0  0  0  0  0  0  0  0  0  0  0  0
   -7.0360   -7.4360   -6.5350 C   0  0  0  0  0  0  0  0  0  0  0  0
   -4.8490   -6.1940   -8.0620 N   0  0  0  0  0  0  0  0  0  0  0  0
   -3.9440   -5.3120   -8.6030 C   0  0  0  0  0  0  0  0  0  0  0  0
   -0.8031   -4.4948   -9.5826 H   0  0  0  0  0  0  0  0  0  0  0  0
   -1.9820   -2.4038  -10.1939 H   0  0  0  0  0  0  0  0  0  0  0  0
   -4.4371   -2.1610   -9.7902 H   0  0  0  0  0  0  0  0  0  0  0  0
   -6.7357   -2.4128   -6.8670 H   0  0  0  0  0  0  0  0  0  0  0  0
   -8.6422   -0.8298   -7.1415 H   0  0  0  0  0  0  0  0  0  0  0  0
  -10.1025   -0.9707   -9.1605 H   0  0  0  0  0  0  0  0  0  0  0  0
   -9.6600   -2.6998  -10.9008 H   0  0  0  0  0  0  0  0  0  0  0  0
   -7.7521   -4.2840  -10.6327 H   0  0  0  0  0  0  0  0  0  0  0  0
   -8.7377   -5.3624   -8.6398 H   0  0  0  0  0  0  0  0  0  0  0  0
  -10.6554   -6.6561   -7.7163 H   0  0  0  0  0  0  0  0  0  0  0  0
  -10.2589   -8.4476   -6.0274 H   0  0  0  0  0  0  0  0  0  0  0  0
   -7.9357   -8.9501   -5.2716 H   0  0  0  0  0  0  0  0  0  0  0  0
   -6.0137   -7.6672   -6.2010 H   0  0  0  0  0  0  0  0  0  0  0  0
   -4.5520   -7.1110   -7.7390 H   0  0  0  0  0  0  0  0  0  0  0  0
  1  2  2  0
  2  3  1  0
  2  4  1  0
  4  5  2  0
  5  6  1  0
  6  7  2  0
  7  8  1  0
  8  9  1  0
  9 10  1  0
 10 11  2  0
 11 12  1  0
 12 13  2  0
 13 14  1  0
 14 15  2  0
  9 16  2  0
 16 17  1  0
 17 18  2  0
 18 19  1  0
 19 20  2  0
 20 21  1  0
 21 22  2  0
 16 23  1  0
 23 24  1  0
 24  4  1  0
 24  8  2  0
 15 10  1  0
 22 17  1  0
  5 25  1  0
  6 26  1  0
  7 27  1  0
 11 28  1  0
 12 29  1  0
 13 30  1  0
 14 31  1  0
 15 32  1  0
 18 33  1  0
 19 34  1  0
 20 35  1  0
 21 36  1  0
 22 37  1  0
 23 38  1  0
M  CHG  1   3  -1
M  END
>  <meeko>  (7) 
{"is_sidechain": [false], "free_energy": -8.45, "intermolecular_energy": -9.873, "internal_energy": -1.072}

$$$$
3bgz_ligand
     RDKit          3D

 38 41  0  0  0  0  0  0  0  0999 V2000
   -2.5810   -6.9480   -6.1760 O   0  0  0  0  0  0  0  0  0  0  0  0
   -3.3400   -6.5350   -7.1150 C   0  0  0  0  0  0  0  0  0  0  0  0
   -2.9670   -5.8990   -8.1500 O   0  0  0  0  0  0  0  0  0  0  0  0
   -4.8160   -6.8360   -6.9800 C   0  0  0  0  0  0  0  0  0  0  0  0
   -5.3040   -8.0010   -6.3620 C   0  0  0  0  0  0  0  0  0  0  0  0
   -6.6730   -8.2450   -6.2400 C   0  0  0  0  0  0  0  0  0  0  0  0
   -7.6100   -7.3300   -6.7360 C   0  0  0  0  0  0  0  0  0  0  0  0
   -7.1590   -6.1530   -7.3700 C   0  0  0  0  0  0  0  0  0  0  0  0
   -7.8000   -5.0170   -7.9740 C   0  0  0  0  0  0  0  0  0  0  0  0
   -9.2280   -4.7670   -8.0930 C   0  0  0  0  0  0  0  0  0  0  0  0
  -10.0260   -5.6220   -8.8630 C   0  0  0  0  0  0  0  0  0  0  0  0
  -11.3980   -5.3920   -8.9790 C   0  0  0  0  0  0  0  0  0  0  0  0
  -11.9810   -4.3080   -8.3220 C   0  0  0  0  0  0  0  0  0  0  0  0
  -11.1940   -3.4550   -7.5510 C   0  0  0  0  0  0  0  0  0  0  0  0
   -9.8210   -3.6840   -7.4330 C   0  0  0  0  0  0  0  0  0  0  0  0
   -6.8060   -4.1470   -8.4250 C   0  0  0  0  0  0  0  0  0  0  0  0
   -6.8480   -2.8590   -9.1230 C   0  0  0  0  0  0  0  0  0  0  0  0
   -6.6470   -1.6630   -8.4180 C   0  0  0  0  0  0  0  0  0  0  0  0
   -6.6820   -0.4310   -9.0780 C   0  0  0  0  0  0  0  0  0  0  0  0
   -6.9170   -0.3810  -10.4500 C   0  0  0  0  0  0  0  0  0  0  0  0
   -7.1130   -1.5610  -11.1630 C   0  0  0  0  0  0  0  0  0  0  0  0
   -7.0760   -2.7920  -10.5030 C   0  0  0  0  0  0  0  0  0  0  0  0
   -5.6050   -4.7430   -8.1070 N   0  0  0  0  0  0  0  0  0  0  0  0
   -5.7910   -5.9460   -7.4680 C   0  0  0  0  0  0  0  0  0  0  0  0
   -4.5899   -8.7377   -5.9652 H   0  0  0  0  0  0  0  0  0  0  0  0
   -7.0196   -9.1662   -5.7488 H   0  0  0  0  0  0  0  0  0  0  0  0
   -8.6872   -7.5270   -6.6323 H   0  0  0  0  0  0  0  0  0  0  0  0
   -9.5694   -6.4794   -9.3792 H   0  0  0  0  0  0  0  0  0  0  0  0
  -12.0192   -6.0651   -9.5881 H   0  0  0  0  0  0  0  0  0  0  0  0
  -13.0622   -4.1267   -8.4127 H   0  0  0  0  0  0  0  0  0  0  0  0
  -11.6545   -2.6000   -7.0345 H   0  0  0  0  0  0  0  0  0  0  0  0
   -9.2038   -3.0112   -6.8195 H   0  0  0  0  0  0  0  0  0  0  0  0
   -6.4599   -1.6948   -7.3345 H   0  0  0  0  0  0  0  0  0  0  0  0
   -6.5238    0.4996   -8.5133 H   0  0  0  0  0  0  0  0  0  0  0  0
   -6.9477    0.5883  -10.9691 H   0  0  0  0  0  0  0  0  0  0  0  0
   -7.2971   -1.5240  -12.2468 H   0  0  0  0  0  0  0  0  0  0  0  0
   -7.2278   -3.7196  -11.0743 H   0  0  0  0  0  0  0  0  0  0  0  0
   -4.6680   -4.3950   -8.2990 H   0  0  0  0  0  0  0  0  0  0  0  0
  1  2  2  0
  2  3  1  0
  2  4  1  0
  4  5  2  0
  5  6  1  0
  6  7  2  0
  7  8  1  0
  8  9  1  0
  9 10  1  0
 10 11  2  0
 11 12  1  0
 12 13  2  0
 13 14  1  0
 14 15  2  0
  9 16  2  0
 16 17  1  0
 17 18  2  0
 18 19  1  0
 19 20  2  0
 20 21  1  0
 21 22  2  0
 16 23  1  0
 23 24  1  0
 24  4  1  0
 24  8  2  0
 15 10  1  0
 22 17  1  0
  5 25  1  0
  6 26  1  0
  7 27  1  0
 11 28  1  0
 12 29  1  0
 13 30  1  0
 14 31  1  0
 15 32  1  0
 18 33  1  0
 19 34  1  0
 20 35  1  0
 21 36  1  0
 22 37  1  0
 23 38  1  0
M  CHG  1   3  -1
M  END
>  <meeko>  (8) 
{"is_sidechain": [false], "free_energy": -8.342, "intermolecular_energy": -9.406, "internal_energy": -1.412}

$$$$
3bgz_ligand
     RDKit          3D

 38 41  0  0  0  0  0  0  0  0999 V2000
   -1.3230   -7.5340   -5.9910 O   0  0  0  0  0  0  0  0  0  0  0  0
   -1.9030   -6.9760   -6.9810 C   0  0  0  0  0  0  0  0  0  0  0  0
   -1.3380   -6.5680   -8.0430 O   0  0  0  0  0  0  0  0  0  0  0  0
   -3.4000   -6.7880   -6.8760 C   0  0  0  0  0  0  0  0  0  0  0  0
   -4.2120   -7.5790   -6.0440 C   0  0  0  0  0  0  0  0  0  0  0  0
   -5.5900   -7.3740   -5.9570 C   0  0  0  0  0  0  0  0  0  0  0  0
   -6.2110   -6.3660   -6.7060 C   0  0  0  0  0  0  0  0  0  0  0  0
   -5.4320   -5.5570   -7.5590 C   0  0  0  0  0  0  0  0  0  0  0  0
   -5.7050   -4.4580   -8.4430 C   0  0  0  0  0  0  0  0  0  0  0  0
   -6.9920   -3.8330   -8.7060 C   0  0  0  0  0  0  0  0  0  0  0  0
   -7.3980   -2.7240   -7.9530 C   0  0  0  0  0  0  0  0  0  0  0  0
   -8.6290   -2.1140   -8.2030 C   0  0  0  0  0  0  0  0  0  0  0  0
   -9.4590   -2.6070   -9.2090 C   0  0  0  0  0  0  0  0  0  0  0  0
   -9.0600   -3.7070   -9.9660 C   0  0  0  0  0  0  0  0  0  0  0  0
   -7.8290   -4.3180   -9.7180 C   0  0  0  0  0  0  0  0  0  0  0  0
   -4.4980   -4.0490   -9.0130 C   0  0  0  0  0  0  0  0  0  0  0  0
   -4.1550   -3.0070   -9.9850 C   0  0  0  0  0  0  0  0  0  0  0  0
   -3.7360   -3.3520  -11.2780 C   0  0  0  0  0  0  0  0  0  0  0  0
   -3.4100   -2.3630  -12.2110 C   0  0  0  0  0  0  0  0  0  0  0  0
   -3.5010   -1.0180  -11.8620 C   0  0  0  0  0  0  0  0  0  0  0  0
   -3.9200   -0.6600  -10.5820 C   0  0  0  0  0  0  0  0  0  0  0  0
   -4.2480   -1.6490   -9.6510 C   0  0  0  0  0  0  0  0  0  0  0  0
   -3.5300   -4.8800   -8.4930 N   0  0  0  0  0  0  0  0  0  0  0  0
   -4.0650   -5.7910   -7.6130 C   0  0  0  0  0  0  0  0  0  0  0  0
   -3.7499   -8.3790   -5.4470 H   0  0  0  0  0  0  0  0  0  0  0  0
   -6.1944   -8.0103   -5.2937 H   0  0  0  0  0  0  0  0  0  0  0  0
   -7.2967   -6.2069   -6.6294 H   0  0  0  0  0  0  0  0  0  0  0  0
   -6.7438   -2.3315   -7.1606 H   0  0  0  0  0  0  0  0  0  0  0  0
   -8.9437   -1.2450   -7.6066 H   0  0  0  0  0  0  0  0  0  0  0  0
  -10.4293   -2.1274   -9.4053 H   0  0  0  0  0  0  0  0  0  0  0  0
   -9.7155   -4.0944  -10.7598 H   0  0  0  0  0  0  0  0  0  0  0  0
   -7.5158   -5.1837  -10.3201 H   0  0  0  0  0  0  0  0  0  0  0  0
   -3.6630   -4.4124  -11.5613 H   0  0  0  0  0  0  0  0  0  0  0  0
   -3.0814   -2.6476  -13.2215 H   0  0  0  0  0  0  0  0  0  0  0  0
   -3.2427   -0.2397  -12.5952 H   0  0  0  0  0  0  0  0  0  0  0  0
   -3.9926    0.4019  -10.3044 H   0  0  0  0  0  0  0  0  0  0  0  0
   -4.5831   -1.3584   -8.6444 H   0  0  0  0  0  0  0  0  0  0  0  0
   -2.5340   -4.8790   -8.6980 H   0  0  0  0  0  0  0  0  0  0  0  0
  1  2  2  0
  2  3  1  0
  2  4  1  0
  4  5  2  0
  5  6  1  0
  6  7  2  0
  7  8  1  0
  8  9  1  0
  9 10  1  0
 10 11  2  0
 11 12  1  0
 12 13  2  0
 13 14  1  0
 14 15  2  0
  9 16  2  0
 16 17  1  0
 17 18  2  0
 18 19  1  0
 19 20  2  0
 20 21  1  0
 21 22  2  0
 16 23  1  0
 23 24  1  0
 24  4  1  0
 24  8  2  0
 15 10  1  0
 22 17  1  0
  5 25  1  0
  6 26  1  0
  7 27  1  0
 11 28  1  0
 12 29  1  0
 13 30  1  0
 14 31  1  0
 15 32  1  0
 18 33  1  0
 19 34  1  0
 20 35  1  0
 21 36  1  0
 22 37  1  0
 23 38  1  0
M  CHG  1   3  -1
M  END
>  <meeko>  (9) 
{"is_sidechain": [false], "free_energy": -8.207, "intermolecular_energy": -9.206, "internal_energy": -1.454}

$$$$
