
     RDKit          3D

 51 55  0  0  0  0  0  0  0  0999 V2000
    4.2810   -3.3790    8.6800 C   0  0  0  0  0  0  0  0  0  0  0  0
    3.6660   -2.5860    7.5560 C   0  0  0  0  0  0  0  0  0  0  0  0
    2.4350   -2.0070    7.7150 C   0  0  0  0  0  0  0  0  0  0  0  0
    1.8650   -1.2910    6.6940 N   0  0  0  0  0  0  0  0  0  0  0  0
    0.5470   -0.6940    6.8370 C   0  0  1  0  0  0  0  0  0  0  0  0
   -0.5050   -1.7670    6.9360 C   0  0  0  0  0  0  0  0  0  0  0  0
   -1.6180   -1.0400    7.6060 C   0  0  2  0  0  0  0  0  0  0  0  0
   -2.2920   -0.2510    6.6360 O   0  0  0  0  0  0  0  0  0  0  0  0
   -3.4810   -0.8740    5.7710 P   0  0  0  0  0  0  0  0  0  0  0  0
   -3.8680    0.1040    4.7360 O   0  0  0  0  0  0  0  0  0  0  0  0
   -3.1630   -2.2180    5.2150 O   0  0  0  0  0  0  0  0  0  0  0  0
   -4.5790   -1.0960    6.8600 O   0  0  0  0  0  0  0  0  0  0  0  0
   -5.4540    0.0480    7.5370 P   0  0  0  0  0  0  0  0  0  0  0  0
   -5.6110    1.1890    6.6430 O   0  0  0  0  0  0  0  0  0  0  0  0
   -4.8770    0.3320    8.8740 O   0  0  0  0  0  0  0  0  0  0  0  0
   -6.8100   -0.7540    7.7040 O   0  0  0  0  0  0  0  0  0  0  0  0
   -7.3200   -1.4650    6.6480 C   0  0  0  0  0  0  0  0  0  0  0  0
   -8.4310   -2.4170    7.0640 C   0  0  1  0  0  0  0  0  0  0  0  0
   -7.9000   -3.7470    7.0080 O   0  0  0  0  0  0  0  0  0  0  0  0
   -8.4830   -4.4780    8.0740 C   0  0  1  0  0  0  0  0  0  0  0  0
   -7.7180   -5.6720    8.3100 N   0  0  0  0  0  0  0  0  0  0  0  0
   -6.6060   -5.8410    9.0420 C   0  0  0  0  0  0  0  0  0  0  0  0
   -6.2040   -7.0760    9.0050 N   0  0  0  0  0  0  0  0  0  0  0  0
   -7.0920   -7.7480    8.2360 C   0  0  0  0  0  0  0  0  0  0  0  0
   -7.2170   -9.0770    7.8210 C   0  0  0  0  0  0  0  0  0  0  0  0
   -6.3180  -10.0220    8.1970 N   0  0  0  0  0  0  0  0  0  0  0  0
   -8.2530   -9.4240    7.0210 N   0  0  0  0  0  0  0  0  0  0  0  0
   -9.1440   -8.4860    6.6450 C   0  0  0  0  0  0  0  0  0  0  0  0
   -9.0980   -7.1950    6.9930 N   0  0  0  0  0  0  0  0  0  0  0  0
   -8.0570   -6.8560    7.7900 C   0  0  0  0  0  0  0  0  0  0  0  0
   -8.5180   -3.5050    9.2000 C   0  0  2  0  0  0  0  0  0  0  0  0
   -9.4260   -3.8930   10.2030 O   0  0  0  0  0  0  0  0  0  0  0  0
   -8.9520   -2.2470    8.4720 C   0  0  2  0  0  0  0  0  0  0  0  0
  -10.3730   -2.2070    8.4330 O   0  0  0  0  0  0  0  0  0  0  0  0
  -11.1850   -0.9160    8.9420 P   0  0  0  0  0  0  0  0  0  0  0  0
  -10.5680    0.2730    8.2980 O   0  0  0  0  0  0  0  0  0  0  0  0
  -11.0400   -0.8960   10.4490 O   0  0  0  0  0  0  0  0  0  0  0  0
  -12.6070   -1.1150    8.5030 O   0  0  0  0  0  0  0  0  0  0  0  0
   -0.9050   -0.1160    8.5820 C   0  0  1  0  0  0  0  0  0  0  0  0
   -0.8390   -0.7020    9.9750 C   0  0  0  0  0  0  0  0  0  0  0  0
   -0.2000   -1.9670    9.9070 O   0  0  0  0  0  0  0  0  0  0  0  0
    0.1420   -2.7680   11.2670 P   0  0  0  0  0  0  0  0  0  0  0  0
    0.7420   -4.0740   10.8150 O   0  0  0  0  0  0  0  0  0  0  0  0
    1.1140   -1.9230   12.0550 O   0  0  0  0  0  0  0  0  0  0  0  0
   -1.1830   -2.9610   11.9870 O   0  0  0  0  0  0  0  0  0  0  0  0
    0.4350    0.0460    8.0540 O   0  0  0  0  0  0  0  0  0  0  0  0
    2.5130   -1.1490    5.4820 C   0  0  0  0  0  0  0  0  0  0  0  0
    1.9740   -0.5170    4.5630 O   0  0  0  0  0  0  0  0  0  0  0  0
    3.7320   -1.7040    5.3120 N   0  0  0  0  0  0  0  0  0  0  0  0
    4.3470   -2.4170    6.3080 C   0  0  0  0  0  0  0  0  0  0  0  0
    5.4720   -2.8970    6.1090 O   0  0  0  0  0  0  0  0  0  0  0  0
  2  1  1  0
  3  2  2  0
  4  3  1  0
  5  4  1  1
  6  5  1  0
  7  6  1  0
  7  8  1  6
  9  8  1  0
 10  9  2  0
 11  9  1  0
 12  9  1  0
 13 12  1  0
 14 13  2  0
 15 13  1  0
 16 13  1  0
 17 16  1  0
 18 17  1  1
 19 18  1  0
 20 19  1  0
 20 21  1  1
 22 21  1  0
 23 22  2  0
 24 23  1  0
 25 24  2  0
 26 25  1  0
 27 25  1  0
 28 27  2  0
 29 28  1  0
 30 29  2  0
 30 24  1  0
 30 21  1  0
 31 20  1  0
 31 32  1  1
 33 31  1  0
 33 18  1  0
 33 34  1  6
 35 34  1  0
 36 35  2  0
 37 35  1  0
 38 35  1  0
 39  7  1  0
 39 40  1  1
 41 40  1  0
 42 41  1  0
 43 42  2  0
 44 42  1  0
 45 42  1  0
 46 39  1  0
 46  5  1  0
 47  4  1  0
 48 47  2  0
 49 47  1  0
 50 49  1  0
 50  2  1  0
 51 50  2  0
M  CHG  6  11  -1  15  -1  37  -1  38  -1  44  -1  45  -1
M  END
$$$$
