2wer_ligand
     RDKit          3D

 42 44  0  0  0  0  0  0  0  0999 V2000
   -0.0220   12.5690   17.1440 C   0  0  0  0  0  0  0  0  0  0  0  0
    1.4810   12.8130   17.2580 C   0  0  2  0  0  0  0  0  0  0  0  0
    2.1840   11.6620   18.0120 C   0  0  0  0  0  0  0  0  0  0  0  0
    3.2870   11.0120   17.2290 C   0  0  1  0  0  0  0  0  0  0  0  0
    3.0220    9.7360   16.6400 O   0  0  0  0  0  0  0  0  0  0  0  0
    3.1000   10.8400   15.7280 C   0  0  2  0  0  0  0  0  0  0  0  0
    4.2660   11.2080   14.9140 C   0  0  0  0  0  0  0  0  0  0  0  0
    4.3840   12.3220   14.1690 C   0  0  0  0  0  0  0  0  0  0  0  0
    3.3180   13.2920   14.0400 C   0  0  0  0  0  0  0  0  0  0  0  0
    3.4790   14.5510   13.6140 C   0  0  0  0  0  0  0  0  0  0  0  0
    2.2710   15.4170   13.6520 C   0  0  0  0  0  0  0  0  0  0  0  0
    2.2080   16.3960   12.9060 O   0  0  0  0  0  0  0  0  0  0  0  0
    1.1280   15.0770   14.5920 C   0  0  0  0  0  0  0  0  0  0  0  0
    0.8050   16.1160   15.6480 C   0  0  0  0  0  0  0  0  0  0  0  0
   -0.0900   17.1760   15.3870 C   0  0  0  0  0  0  0  0  0  0  0  0
   -0.8560   17.3300   13.8370 Cl  0  0  0  0  0  0  0  0  0  0  0  0
   -0.3620   18.1450   16.3700 C   0  0  0  0  0  0  0  0  0  0  0  0
   -1.2300   19.1660   16.0910 O   0  0  0  0  0  0  0  0  0  0  0  0
    0.2470   18.0880   17.6210 C   0  0  0  0  0  0  0  0  0  0  0  0
    1.1410   17.0570   17.8890 C   0  0  0  0  0  0  0  0  0  0  0  0
    1.7450   16.9910   19.1160 O   0  0  0  0  0  0  0  0  0  0  0  0
    1.4290   16.0840   16.9170 C   0  0  0  0  0  0  0  0  0  0  0  0
    2.3830   15.0180   17.2820 C   0  0  0  0  0  0  0  0  0  0  0  0
    3.5670   15.0360   17.0040 O   0  0  0  0  0  0  0  0  0  0  0  0
    1.6990   14.0610   17.9500 O   0  0  0  0  0  0  0  0  0  0  0  0
   -0.4593   12.4980   18.1508 H   0  0  0  0  0  0  0  0  0  0  0  0
   -0.4886   13.4032   16.5995 H   0  0  0  0  0  0  0  0  0  0  0  0
   -0.2008   11.6301   16.5995 H   0  0  0  0  0  0  0  0  0  0  0  0
    1.9099   12.8585   16.2461 H   0  0  0  0  0  0  0  0  0  0  0  0
    2.6100   12.0656   18.9424 H   0  0  0  0  0  0  0  0  0  0  0  0
    1.4240   10.8890   18.1987 H   0  0  0  0  0  0  0  0  0  0  0  0
    4.0636   11.4379   17.8813 H   0  0  0  0  0  0  0  0  0  0  0  0
    2.4373   11.1523   14.9074 H   0  0  0  0  0  0  0  0  0  0  0  0
    5.1175   10.5116   14.9135 H   0  0  0  0  0  0  0  0  0  0  0  0
    5.3293   12.5028   13.6363 H   0  0  0  0  0  0  0  0  0  0  0  0
    2.3014   12.9716   14.3117 H   0  0  0  0  0  0  0  0  0  0  0  0
    4.4501   14.9237   13.2561 H   0  0  0  0  0  0  0  0  0  0  0  0
    0.2250   14.9244   13.9826 H   0  0  0  0  0  0  0  0  0  0  0  0
    1.4541   14.1836   15.1447 H   0  0  0  0  0  0  0  0  0  0  0  0
   -2.1480   18.8760   16.2260 H   0  0  0  0  0  0  0  0  0  0  0  0
    0.0243   18.8469   18.3855 H   0  0  0  0  0  0  0  0  0  0  0  0
    1.1490   16.5820   19.7660 H   0  0  0  0  0  0  0  0  0  0  0  0
  1  2  1  0
  2  3  1  0
  3  4  1  0
  4  5  1  0
  5  6  1  0
  6  7  1  0
  7  8  2  0
  8  9  1  0
  9 10  2  0
 10 11  1  0
 11 12  2  0
 11 13  1  0
 13 14  1  0
 14 15  2  0
 15 16  1  0
 15 17  1  0
 17 18  1  0
 17 19  2  0
 19 20  1  0
 20 21  1  0
 20 22  2  0
 22 23  1  0
 23 24  2  0
 23 25  1  0
 25  2  1  0
  6  4  1  0
 22 14  1  0
  1 26  1  0
  1 27  1  0
  1 28  1  0
  2 29  1  6
  3 30  1  0
  3 31  1  0
  4 32  1  6
  6 33  1  6
  7 34  1  0
  8 35  1  0
  9 36  1  0
 10 37  1  0
 13 38  1  0
 13 39  1  0
 18 40  1  0
 19 41  1  0
 21 42  1  0
M  END
>  <meeko>  (1) 
{"is_sidechain": [false], "free_energy": -5.73, "intermolecular_energy": -9.08, "internal_energy": -0.943}

$$$$
2wer_ligand
     RDKit          3D

 42 44  0  0  0  0  0  0  0  0999 V2000
    3.6950   14.4160   15.6780 C   0  0  0  0  0  0  0  0  0  0  0  0
    3.2000   13.8440   14.3520 C   0  0  2  0  0  0  0  0  0  0  0  0
    2.1700   14.7820   13.6940 C   0  0  0  0  0  0  0  0  0  0  0  0
    1.7470   15.9140   14.5840 C   0  0  1  0  0  0  0  0  0  0  0  0
    0.7060   16.7740   14.1140 O   0  0  0  0  0  0  0  0  0  0  0  0
    0.3450   15.8790   15.1740 C   0  0  2  0  0  0  0  0  0  0  0  0
    0.2670   16.2170   16.6020 C   0  0  0  0  0  0  0  0  0  0  0  0
    0.1370   15.3370   17.6110 C   0  0  0  0  0  0  0  0  0  0  0  0
    0.0020   13.9130   17.3940 C   0  0  0  0  0  0  0  0  0  0  0  0
    0.9650   13.0120   17.6190 C   0  0  0  0  0  0  0  0  0  0  0  0
    0.6580   11.6090   17.2350 C   0  0  0  0  0  0  0  0  0  0  0  0
   -0.5100   11.2880   17.0060 O   0  0  0  0  0  0  0  0  0  0  0  0
    1.7840   10.5970   17.1110 C   0  0  0  0  0  0  0  0  0  0  0  0
    1.8450    9.8280   15.8050 C   0  0  0  0  0  0  0  0  0  0  0  0
    1.1340    8.6210   15.6300 C   0  0  0  0  0  0  0  0  0  0  0  0
    0.1620    7.9680   16.9110 Cl  0  0  0  0  0  0  0  0  0  0  0  0
    1.2190    7.9080   14.4200 C   0  0  0  0  0  0  0  0  0  0  0  0
    0.5240    6.7370   14.2750 O   0  0  0  0  0  0  0  0  0  0  0  0
    2.0070    8.3690   13.3690 C   0  0  0  0  0  0  0  0  0  0  0  0
    2.7230    9.5510   13.5310 C   0  0  0  0  0  0  0  0  0  0  0  0
    3.5000   10.0140   12.5050 O   0  0  0  0  0  0  0  0  0  0  0  0
    2.6540   10.2720   14.7350 C   0  0  0  0  0  0  0  0  0  0  0  0
    3.4380   11.5210   14.8250 C   0  0  0  0  0  0  0  0  0  0  0  0
    4.6290   11.5640   15.0710 O   0  0  0  0  0  0  0  0  0  0  0  0
    2.5960   12.5560   14.5970 O   0  0  0  0  0  0  0  0  0  0  0  0
    3.2244   13.8722   16.5104 H   0  0  0  0  0  0  0  0  0  0  0  0
    4.7878   14.3062   15.7395 H   0  0  0  0  0  0  0  0  0  0  0  0
    3.4295   15.4817   15.7395 H   0  0  0  0  0  0  0  0  0  0  0  0
    4.0546   13.7417   13.6671 H   0  0  0  0  0  0  0  0  0  0  0  0
    2.6146   15.2032   12.7802 H   0  0  0  0  0  0  0  0  0  0  0  0
    1.2730   14.1827   13.4792 H   0  0  0  0  0  0  0  0  0  0  0  0
    2.7644   16.0447   14.9812 H   0  0  0  0  0  0  0  0  0  0  0  0
   -0.5159   15.2048   15.2935 H   0  0  0  0  0  0  0  0  0  0  0  0
    0.3195   17.2828   16.8691 H   0  0  0  0  0  0  0  0  0  0  0  0
    0.1332   15.7157   18.6437 H   0  0  0  0  0  0  0  0  0  0  0  0
   -0.9631   13.5441   17.0164 H   0  0  0  0  0  0  0  0  0  0  0  0
    1.9308   13.2938   18.0637 H   0  0  0  0  0  0  0  0  0  0  0  0
    2.7356   11.1360   17.2291 H   0  0  0  0  0  0  0  0  0  0  0  0
    1.5938    9.8442   17.8902 H   0  0  0  0  0  0  0  0  0  0  0  0
    1.0220    5.9970   14.6620 H   0  0  0  0  0  0  0  0  0  0  0  0
    2.0627    7.8074   12.4248 H   0  0  0  0  0  0  0  0  0  0  0  0
    3.5750   10.9820   12.5450 H   0  0  0  0  0  0  0  0  0  0  0  0
  1  2  1  0
  2  3  1  0
  3  4  1  0
  4  5  1  0
  5  6  1  0
  6  7  1  0
  7  8  2  0
  8  9  1  0
  9 10  2  0
 10 11  1  0
 11 12  2  0
 11 13  1  0
 13 14  1  0
 14 15  2  0
 15 16  1  0
 15 17  1  0
 17 18  1  0
 17 19  2  0
 19 20  1  0
 20 21  1  0
 20 22  2  0
 22 23  1  0
 23 24  2  0
 23 25  1  0
 25  2  1  0
  6  4  1  0
 22 14  1  0
  1 26  1  0
  1 27  1  0
  1 28  1  0
  2 29  1  6
  3 30  1  0
  3 31  1  0
  4 32  1  1
  6 33  1  6
  7 34  1  0
  8 35  1  0
  9 36  1  0
 10 37  1  0
 13 38  1  0
 13 39  1  0
 18 40  1  0
 19 41  1  0
 21 42  1  0
M  END
>  <meeko>  (2) 
{"is_sidechain": [false], "free_energy": -5.544, "intermolecular_energy": -8.676, "internal_energy": -1.052}

$$$$
2wer_ligand
     RDKit          3D

 42 44  0  0  0  0  0  0  0  0999 V2000
    3.7770   11.7900   13.6540 C   0  0  0  0  0  0  0  0  0  0  0  0
    3.9200   12.3860   15.0520 C   0  0  2  0  0  0  0  0  0  0  0  0
    3.8230   11.2980   16.1330 C   0  0  0  0  0  0  0  0  0  0  0  0
    2.5240   10.5480   16.1010 C   0  0  1  0  0  0  0  0  0  0  0  0
    2.3550    9.4710   17.0260 O   0  0  0  0  0  0  0  0  0  0  0  0
    1.6000   10.6570   17.3050 C   0  0  2  0  0  0  0  0  0  0  0  0
    0.1840   10.8760   16.9810 C   0  0  0  0  0  0  0  0  0  0  0  0
   -0.4890   12.0310   17.1400 C   0  0  0  0  0  0  0  0  0  0  0  0
    0.1140   13.2120   17.7180 C   0  0  0  0  0  0  0  0  0  0  0  0
   -0.2660   14.4690   17.4560 C   0  0  0  0  0  0  0  0  0  0  0  0
    0.5500   15.5460   18.0750 C   0  0  0  0  0  0  0  0  0  0  0  0
    0.3590   15.8450   19.2550 O   0  0  0  0  0  0  0  0  0  0  0  0
    1.6170   16.2500   17.2550 C   0  0  0  0  0  0  0  0  0  0  0  0
    1.3840   16.2900   15.7570 C   0  0  0  0  0  0  0  0  0  0  0  0
    0.3510   17.0720   15.1950 C   0  0  0  0  0  0  0  0  0  0  0  0
   -0.6970   18.0180   16.2040 Cl  0  0  0  0  0  0  0  0  0  0  0  0
    0.1330   17.0800   13.8050 C   0  0  0  0  0  0  0  0  0  0  0  0
   -0.8770   17.8430   13.2830 O   0  0  0  0  0  0  0  0  0  0  0  0
    0.9250   16.3170   12.9500 C   0  0  0  0  0  0  0  0  0  0  0  0
    1.9380   15.5320   13.4900 C   0  0  0  0  0  0  0  0  0  0  0  0
    2.7220   14.7790   12.6600 O   0  0  0  0  0  0  0  0  0  0  0  0
    2.1650   15.5070   14.8770 C   0  0  0  0  0  0  0  0  0  0  0  0
    3.2650   14.6550   15.3710 C   0  0  0  0  0  0  0  0  0  0  0  0
    4.3220   15.0820   15.7970 O   0  0  0  0  0  0  0  0  0  0  0  0
    2.8770   13.3650   15.2490 O   0  0  0  0  0  0  0  0  0  0  0  0
    3.5210   10.7232   13.7346 H   0  0  0  0  0  0  0  0  0  0  0  0
    2.9801   12.3182   13.1100 H   0  0  0  0  0  0  0  0  0  0  0  0
    4.7268   11.8991   13.1100 H   0  0  0  0  0  0  0  0  0  0  0  0
    4.9093   12.8592   15.1375 H   0  0  0  0  0  0  0  0  0  0  0  0
    4.6442   10.5817   15.9829 H   0  0  0  0  0  0  0  0  0  0  0  0
    3.8867   11.8004   17.1095 H   0  0  0  0  0  0  0  0  0  0  0  0
    2.4195   10.6833   15.0144 H   0  0  0  0  0  0  0  0  0  0  0  0
    1.4692   11.2336   18.2326 H   0  0  0  0  0  0  0  0  0  0  0  0
   -0.3754   10.0214   16.5727 H   0  0  0  0  0  0  0  0  0  0  0  0
   -1.5396   12.0786   16.8175 H   0  0  0  0  0  0  0  0  0  0  0  0
    0.9450   13.0670   18.4240 H   0  0  0  0  0  0  0  0  0  0  0  0
   -1.1339   14.6921   16.8181 H   0  0  0  0  0  0  0  0  0  0  0  0
    1.6866   17.2878   17.6128 H   0  0  0  0  0  0  0  0  0  0  0  0
    2.5364   15.6630   17.3971 H   0  0  0  0  0  0  0  0  0  0  0  0
   -0.5140   18.5520   12.7280 H   0  0  0  0  0  0  0  0  0  0  0  0
    0.7517   16.3351   11.8639 H   0  0  0  0  0  0  0  0  0  0  0  0
    3.6630   14.9390   12.8440 H   0  0  0  0  0  0  0  0  0  0  0  0
  1  2  1  0
  2  3  1  0
  3  4  1  0
  4  5  1  0
  5  6  1  0
  6  7  1  0
  7  8  2  0
  8  9  1  0
  9 10  2  0
 10 11  1  0
 11 12  2  0
 11 13  1  0
 13 14  1  0
 14 15  2  0
 15 16  1  0
 15 17  1  0
 17 18  1  0
 17 19  2  0
 19 20  1  0
 20 21  1  0
 20 22  2  0
 22 23  1  0
 23 24  2  0
 23 25  1  0
 25  2  1  0
  6  4  1  0
 22 14  1  0
  1 26  1  0
  1 27  1  0
  1 28  1  0
  2 29  1  6
  3 30  1  0
  3 31  1  0
  4 32  1  6
  6 33  1  1
  7 34  1  0
  8 35  1  0
  9 36  1  0
 10 37  1  0
 13 38  1  0
 13 39  1  0
 18 40  1  0
 19 41  1  0
 21 42  1  0
M  END
>  <meeko>  (3) 
{"is_sidechain": [false], "free_energy": -5.443, "intermolecular_energy": -8.197, "internal_energy": -1.371}

$$$$
2wer_ligand
     RDKit          3D

 42 44  0  0  0  0  0  0  0  0999 V2000
    6.5380   11.0930   13.7200 C   0  0  0  0  0  0  0  0  0  0  0  0
    5.8630   11.2550   15.0800 C   0  0  2  0  0  0  0  0  0  0  0  0
    6.8520   11.0550   16.2430 C   0  0  0  0  0  0  0  0  0  0  0  0
    7.6590    9.7950   16.1290 C   0  0  1  0  0  0  0  0  0  0  0  0
    8.8520    9.6970   16.9110 O   0  0  0  0  0  0  0  0  0  0  0  0
    7.7520    8.8880   17.3470 C   0  0  2  0  0  0  0  0  0  0  0  0
    7.5680    7.4580   17.0680 C   0  0  0  0  0  0  0  0  0  0  0  0
    6.4380    6.7560   17.2750 C   0  0  0  0  0  0  0  0  0  0  0  0
    5.2530    7.3400   17.8640 C   0  0  0  0  0  0  0  0  0  0  0  0
    4.1270    7.6190   17.1970 C   0  0  0  0  0  0  0  0  0  0  0  0
    3.0600    8.3120   17.9660 C   0  0  0  0  0  0  0  0  0  0  0  0
    3.0140    8.1770   19.1900 O   0  0  0  0  0  0  0  0  0  0  0  0
    2.0540    9.1890   17.2400 C   0  0  0  0  0  0  0  0  0  0  0  0
    1.8970    8.9290   15.7550 C   0  0  0  0  0  0  0  0  0  0  0  0
    1.0560    7.9020   15.2730 C   0  0  0  0  0  0  0  0  0  0  0  0
    0.1690    6.8920   16.3720 Cl  0  0  0  0  0  0  0  0  0  0  0  0
    0.9390    7.6590   13.8930 C   0  0  0  0  0  0  0  0  0  0  0  0
    0.1210    6.6540   13.4500 O   0  0  0  0  0  0  0  0  0  0  0  0
    1.6500    8.4180   12.9680 C   0  0  0  0  0  0  0  0  0  0  0  0
    2.4920    9.4250   13.4270 C   0  0  0  0  0  0  0  0  0  0  0  0
    3.1960   10.1780   12.5260 O   0  0  0  0  0  0  0  0  0  0  0  0
    2.6260    9.6780   14.8030 C   0  0  0  0  0  0  0  0  0  0  0  0
    3.5340   10.7700   15.2090 C   0  0  0  0  0  0  0  0  0  0  0  0
    3.1650   11.8930   15.4960 O   0  0  0  0  0  0  0  0  0  0  0  0
    4.7980   10.2870   15.1890 O   0  0  0  0  0  0  0  0  0  0  0  0
    7.5983   10.8385   13.8649 H   0  0  0  0  0  0  0  0  0  0  0  0
    6.0414   10.2885   13.1577 H   0  0  0  0  0  0  0  0  0  0  0  0
    6.4606   12.0352   13.1577 H   0  0  0  0  0  0  0  0  0  0  0  0
    5.4711   12.2806   15.1477 H   0  0  0  0  0  0  0  0  0  0  0  0
    7.5428   11.9108   16.2644 H   0  0  0  0  0  0  0  0  0  0  0  0
    6.2574   10.9775   17.1652 H   0  0  0  0  0  0  0  0  0  0  0  0
    7.3928    9.6648   15.0697 H   0  0  0  0  0  0  0  0  0  0  0  0
    7.3055    8.7445   18.3420 H   0  0  0  0  0  0  0  0  0  0  0  0
    8.4288    6.9127   16.6536 H   0  0  0  0  0  0  0  0  0  0  0  0
    6.4150    5.6953   16.9844 H   0  0  0  0  0  0  0  0  0  0  0  0
    5.2794    7.5718   18.9390 H   0  0  0  0  0  0  0  0  0  0  0  0
    3.9980    7.3504   16.1381 H   0  0  0  0  0  0  0  0  0  0  0  0
    1.0727    9.0388   17.7137 H   0  0  0  0  0  0  0  0  0  0  0  0
    2.4407   10.2155   17.3225 H   0  0  0  0  0  0  0  0  0  0  0  0
    0.1340    5.9070   14.0720 H   0  0  0  0  0  0  0  0  0  0  0  0
    1.5474    8.2242   11.8901 H   0  0  0  0  0  0  0  0  0  0  0  0
    2.6710   10.3220   11.7210 H   0  0  0  0  0  0  0  0  0  0  0  0
  1  2  1  0
  2  3  1  0
  3  4  1  0
  4  5  1  0
  5  6  1  0
  6  7  1  0
  7  8  2  0
  8  9  1  0
  9 10  2  0
 10 11  1  0
 11 12  2  0
 11 13  1  0
 13 14  1  0
 14 15  2  0
 15 16  1  0
 15 17  1  0
 17 18  1  0
 17 19  2  0
 19 20  1  0
 20 21  1  0
 20 22  2  0
 22 23  1  0
 23 24  2  0
 23 25  1  0
 25  2  1  0
  6  4  1  0
 22 14  1  0
  1 26  1  0
  1 27  1  0
  1 28  1  0
  2 29  1  6
  3 30  1  0
  3 31  1  0
  4 32  1  6
  6 33  1  1
  7 34  1  0
  8 35  1  0
  9 36  1  0
 10 37  1  0
 13 38  1  0
 13 39  1  0
 18 40  1  0
 19 41  1  0
 21 42  1  0
M  END
>  <meeko>  (4) 
{"is_sidechain": [false], "free_energy": -5.275, "intermolecular_energy": -7.89, "internal_energy": -1.412}

$$$$
2wer_ligand
     RDKit          3D

 42 44  0  0  0  0  0  0  0  0999 V2000
   -0.4000   15.2750   19.0570 C   0  0  0  0  0  0  0  0  0  0  0  0
    1.0850   15.4430   18.7440 C   0  0  2  0  0  0  0  0  0  0  0  0
    1.3960   16.8540   18.2160 C   0  0  0  0  0  0  0  0  0  0  0  0
    0.2390   17.4780   17.4930 C   0  0  1  0  0  0  0  0  0  0  0  0
    0.2650   18.8930   17.2930 O   0  0  0  0  0  0  0  0  0  0  0  0
    0.4920   18.0930   16.1250 C   0  0  2  0  0  0  0  0  0  0  0  0
   -0.5060   17.7560   15.1010 C   0  0  0  0  0  0  0  0  0  0  0  0
   -0.3310   16.8870   14.0890 C   0  0  0  0  0  0  0  0  0  0  0  0
    0.9220   16.2000   13.8570 C   0  0  0  0  0  0  0  0  0  0  0  0
    1.3600   15.1530   14.5650 C   0  0  0  0  0  0  0  0  0  0  0  0
    2.7220   14.6570   14.2320 C   0  0  0  0  0  0  0  0  0  0  0  0
    3.1690   14.8390   13.0990 O   0  0  0  0  0  0  0  0  0  0  0  0
    3.5480   13.9500   15.2930 C   0  0  0  0  0  0  0  0  0  0  0  0
    2.9910   12.6340   15.8000 C   0  0  0  0  0  0  0  0  0  0  0  0
    2.9230   11.4950   14.9690 C   0  0  0  0  0  0  0  0  0  0  0  0
    3.4750   11.5610   13.3240 Cl  0  0  0  0  0  0  0  0  0  0  0  0
    2.3820   10.2880   15.4480 C   0  0  0  0  0  0  0  0  0  0  0  0
    2.3230    9.1980   14.6210 O   0  0  0  0  0  0  0  0  0  0  0  0
    1.8970   10.1860   16.7490 C   0  0  0  0  0  0  0  0  0  0  0  0
    1.9460   11.3030   17.5770 C   0  0  0  0  0  0  0  0  0  0  0  0
    1.4730   11.2130   18.8580 O   0  0  0  0  0  0  0  0  0  0  0  0
    2.4770   12.5180   17.1120 C   0  0  0  0  0  0  0  0  0  0  0  0
    2.5000   13.6550   18.0550 C   0  0  0  0  0  0  0  0  0  0  0  0
    3.3240   13.7900   18.9400 O   0  0  0  0  0  0  0  0  0  0  0  0
    1.4640   14.4680   17.7490 O   0  0  0  0  0  0  0  0  0  0  0  0
   -0.5454   15.2586   20.1472 H   0  0  0  0  0  0  0  0  0  0  0  0
   -0.9632   16.1152   18.6246 H   0  0  0  0  0  0  0  0  0  0  0  0
   -0.7613   14.3303   18.6246 H   0  0  0  0  0  0  0  0  0  0  0  0
    1.6552   15.2950   19.6730 H   0  0  0  0  0  0  0  0  0  0  0  0
    1.6641   17.4959   19.0681 H   0  0  0  0  0  0  0  0  0  0  0  0
    2.2222   16.7609   17.4958 H   0  0  0  0  0  0  0  0  0  0  0  0
   -0.4728   16.7493   17.9081 H   0  0  0  0  0  0  0  0  0  0  0  0
    1.2637   18.1512   15.3433 H   0  0  0  0  0  0  0  0  0  0  0  0
   -1.4823   18.2584   15.1676 H   0  0  0  0  0  0  0  0  0  0  0  0
   -1.1741   16.6905   13.4104 H   0  0  0  0  0  0  0  0  0  0  0  0
    1.5603   16.5655   13.0391 H   0  0  0  0  0  0  0  0  0  0  0  0
    0.7472   14.6851   15.3495 H   0  0  0  0  0  0  0  0  0  0  0  0
    4.5437   13.7532   14.8689 H   0  0  0  0  0  0  0  0  0  0  0  0
    3.5549   14.6242   16.1622 H   0  0  0  0  0  0  0  0  0  0  0  0
    2.3720    9.4750   13.6910 H   0  0  0  0  0  0  0  0  0  0  0  0
    1.4812    9.2364   17.1168 H   0  0  0  0  0  0  0  0  0  0  0  0
    0.5010   11.2140   18.8610 H   0  0  0  0  0  0  0  0  0  0  0  0
  1  2  1  0
  2  3  1  0
  3  4  1  0
  4  5  1  0
  5  6  1  0
  6  7  1  0
  7  8  2  0
  8  9  1  0
  9 10  2  0
 10 11  1  0
 11 12  2  0
 11 13  1  0
 13 14  1  0
 14 15  2  0
 15 16  1  0
 15 17  1  0
 17 18  1  0
 17 19  2  0
 19 20  1  0
 20 21  1  0
 20 22  2  0
 22 23  1  0
 23 24  2  0
 23 25  1  0
 25  2  1  0
  6  4  1  0
 22 14  1  0
  1 26  1  0
  1 27  1  0
  1 28  1  0
  2 29  1  1
  3 30  1  0
  3 31  1  0
  4 32  1  6
  6 33  1  6
  7 34  1  0
  8 35  1  0
  9 36  1  0
 10 37  1  0
 13 38  1  0
 13 39  1  0
 18 40  1  0
 19 41  1  0
 21 42  1  0
M  END
>  <meeko>  (5) 
{"is_sidechain": [false], "free_energy": -5.006, "intermolecular_energy": -7.926, "internal_energy": -0.949}

$$$$
2wer_ligand
     RDKit          3D

 42 44  0  0  0  0  0  0  0  0999 V2000
    3.2510   11.9800   18.9090 C   0  0  0  0  0  0  0  0  0  0  0  0
    1.8460   12.0560   18.3140 C   0  0  2  0  0  0  0  0  0  0  0  0
    1.3650   10.6710   17.8060 C   0  0  0  0  0  0  0  0  0  0  0  0
    2.4670    9.6540   17.7370 C   0  0  1  0  0  0  0  0  0  0  0  0
    2.1950    8.4240   17.0600 O   0  0  0  0  0  0  0  0  0  0  0  0
    3.0660    9.3340   16.3750 C   0  0  2  0  0  0  0  0  0  0  0  0
    4.5330    9.2690   16.3460 C   0  0  0  0  0  0  0  0  0  0  0  0
    5.3490   10.1790   15.7830 C   0  0  0  0  0  0  0  0  0  0  0  0
    4.8540   11.3390   15.0750 C   0  0  0  0  0  0  0  0  0  0  0  0
    4.7800   12.5730   15.5880 C   0  0  0  0  0  0  0  0  0  0  0  0
    4.1460   13.6070   14.7280 C   0  0  0  0  0  0  0  0  0  0  0  0
    3.8820   13.3380   13.5550 O   0  0  0  0  0  0  0  0  0  0  0  0
    3.8140   14.9710   15.3090 C   0  0  0  0  0  0  0  0  0  0  0  0
    2.3530   15.3740   15.2670 C   0  0  0  0  0  0  0  0  0  0  0  0
    1.8250   16.1120   14.1850 C   0  0  0  0  0  0  0  0  0  0  0  0
    2.8370   16.5910   12.8590 Cl  0  0  0  0  0  0  0  0  0  0  0  0
    0.4730   16.4970   14.1720 C   0  0  0  0  0  0  0  0  0  0  0  0
   -0.0150   17.2170   13.1140 O   0  0  0  0  0  0  0  0  0  0  0  0
   -0.3780   16.1660   15.2230 C   0  0  0  0  0  0  0  0  0  0  0  0
    0.1300   15.4500   16.3010 C   0  0  0  0  0  0  0  0  0  0  0  0
   -0.6980   15.1180   17.3400 O   0  0  0  0  0  0  0  0  0  0  0  0
    1.4800   15.0620   16.3340 C   0  0  0  0  0  0  0  0  0  0  0  0
    1.9400   14.2970   17.5100 C   0  0  0  0  0  0  0  0  0  0  0  0
    2.3220   14.8040   18.5480 O   0  0  0  0  0  0  0  0  0  0  0  0
    1.8590   12.9810   17.2060 O   0  0  0  0  0  0  0  0  0  0  0  0
    3.1849   11.9836   20.0070 H   0  0  0  0  0  0  0  0  0  0  0  0
    3.7414   11.0540   18.5742 H   0  0  0  0  0  0  0  0  0  0  0  0
    3.8384   12.8477   18.5742 H   0  0  0  0  0  0  0  0  0  0  0  0
    1.1555   12.3925   19.1014 H   0  0  0  0  0  0  0  0  0  0  0  0
    0.5871   10.2985   18.4887 H   0  0  0  0  0  0  0  0  0  0  0  0
    0.9833   10.8109   16.7839 H   0  0  0  0  0  0  0  0  0  0  0  0
    2.8620    9.9464   18.7211 H   0  0  0  0  0  0  0  0  0  0  0  0
    3.0677    9.6940   15.3356 H   0  0  0  0  0  0  0  0  0  0  0  0
    5.0063    8.4001   16.8267 H   0  0  0  0  0  0  0  0  0  0  0  0
    6.4365   10.0348   15.8646 H   0  0  0  0  0  0  0  0  0  0  0  0
    4.5133   11.1966   14.0388 H   0  0  0  0  0  0  0  0  0  0  0  0
    5.1668   12.8091   16.5903 H   0  0  0  0  0  0  0  0  0  0  0  0
    4.1341   14.9754   16.3614 H   0  0  0  0  0  0  0  0  0  0  0  0
    4.3407   15.6994   14.6750 H   0  0  0  0  0  0  0  0  0  0  0  0
   -0.8810   16.8730   12.8400 H   0  0  0  0  0  0  0  0  0  0  0  0
   -1.4360   16.4664   15.2008 H   0  0  0  0  0  0  0  0  0  0  0  0
   -1.6050   15.4140   17.1580 H   0  0  0  0  0  0  0  0  0  0  0  0
  1  2  1  0
  2  3  1  0
  3  4  1  0
  4  5  1  0
  5  6  1  0
  6  7  1  0
  7  8  2  0
  8  9  1  0
  9 10  2  0
 10 11  1  0
 11 12  2  0
 11 13  1  0
 13 14  1  0
 14 15  2  0
 15 16  1  0
 15 17  1  0
 17 18  1  0
 17 19  2  0
 19 20  1  0
 20 21  1  0
 20 22  2  0
 22 23  1  0
 23 24  2  0
 23 25  1  0
 25  2  1  0
  6  4  1  0
 22 14  1  0
  1 26  1  0
  1 27  1  0
  1 28  1  0
  2 29  1  1
  3 30  1  0
  3 31  1  0
  4 32  1  1
  6 33  1  6
  7 34  1  0
  8 35  1  0
  9 36  1  0
 10 37  1  0
 13 38  1  0
 13 39  1  0
 18 40  1  0
 19 41  1  0
 21 42  1  0
M  END
>  <meeko>  (6) 
{"is_sidechain": [false], "free_energy": -4.87, "intermolecular_energy": -7.593, "internal_energy": -1.067}

$$$$
2wer_ligand
     RDKit          3D

 42 44  0  0  0  0  0  0  0  0999 V2000
    3.4140   15.4490   15.0810 C   0  0  0  0  0  0  0  0  0  0  0  0
    2.6240   14.6700   14.0310 C   0  0  2  0  0  0  0  0  0  0  0  0
    1.3600   15.4360   13.5920 C   0  0  0  0  0  0  0  0  0  0  0  0
    1.0670   16.6490   14.4260 C   0  0  1  0  0  0  0  0  0  0  0  0
   -0.1720   17.3250   14.2040 O   0  0  0  0  0  0  0  0  0  0  0  0
   -0.0790   16.5770   15.4240 C   0  0  2  0  0  0  0  0  0  0  0  0
    0.2220   17.1250   16.7530 C   0  0  0  0  0  0  0  0  0  0  0  0
    0.3790   16.4090   17.8810 C   0  0  0  0  0  0  0  0  0  0  0  0
    0.2100   14.9730   17.9240 C   0  0  0  0  0  0  0  0  0  0  0  0
    1.2050   14.0840   17.8160 C   0  0  0  0  0  0  0  0  0  0  0  0
    0.8080   12.6520   17.7820 C   0  0  0  0  0  0  0  0  0  0  0  0
   -0.1340   12.2700   18.4790 O   0  0  0  0  0  0  0  0  0  0  0  0
    1.5530   11.6830   16.8800 C   0  0  0  0  0  0  0  0  0  0  0  0
    3.0650   11.7970   16.8880 C   0  0  0  0  0  0  0  0  0  0  0  0
    3.8090   11.6060   18.0730 C   0  0  0  0  0  0  0  0  0  0  0  0
    3.0150   11.2360   19.5710 Cl  0  0  0  0  0  0  0  0  0  0  0  0
    5.2100   11.7380   18.0690 C   0  0  0  0  0  0  0  0  0  0  0  0
    5.9100   11.5530   19.2310 O   0  0  0  0  0  0  0  0  0  0  0  0
    5.8970   12.0620   16.9020 C   0  0  0  0  0  0  0  0  0  0  0  0
    5.1760   12.2650   15.7300 C   0  0  0  0  0  0  0  0  0  0  0  0
    5.8410   12.5840   14.5770 O   0  0  0  0  0  0  0  0  0  0  0  0
    3.7760   12.1440   15.7170 C   0  0  0  0  0  0  0  0  0  0  0  0
    3.0860   12.3670   14.4310 C   0  0  0  0  0  0  0  0  0  0  0  0
    3.2890   11.7140   13.4250 O   0  0  0  0  0  0  0  0  0  0  0  0
    2.2290   13.4010   14.5950 O   0  0  0  0  0  0  0  0  0  0  0  0
    3.0960   15.1355   16.0863 H   0  0  0  0  0  0  0  0  0  0  0  0
    4.4880   15.2467   14.9564 H   0  0  0  0  0  0  0  0  0  0  0  0
    3.2268   16.5258   14.9564 H   0  0  0  0  0  0  0  0  0  0  0  0
    3.2651   14.5278   13.1485 H   0  0  0  0  0  0  0  0  0  0  0  0
    1.4937   15.7567   12.5483 H   0  0  0  0  0  0  0  0  0  0  0  0
    0.5098   14.7491   13.7155 H   0  0  0  0  0  0  0  0  0  0  0  0
    2.1287   16.9338   14.4670 H   0  0  0  0  0  0  0  0  0  0  0  0
   -0.7657   15.8529   15.8866 H   0  0  0  0  0  0  0  0  0  0  0  0
    0.3284   18.2169   16.8330 H   0  0  0  0  0  0  0  0  0  0  0  0
    0.6467   16.9369   18.8082 H   0  0  0  0  0  0  0  0  0  0  0  0
   -0.8103   14.5832   18.0550 H   0  0  0  0  0  0  0  0  0  0  0  0
    2.2581   14.3960   17.7558 H   0  0  0  0  0  0  0  0  0  0  0  0
    1.2907   10.6618   17.1935 H   0  0  0  0  0  0  0  0  0  0  0  0
    1.2419   11.9327   15.8549 H   0  0  0  0  0  0  0  0  0  0  0  0
    6.8200   11.8770   19.1330 H   0  0  0  0  0  0  0  0  0  0  0  0
    6.9930   12.1560   16.9069 H   0  0  0  0  0  0  0  0  0  0  0  0
    6.4490   13.3260   14.7300 H   0  0  0  0  0  0  0  0  0  0  0  0
  1  2  1  0
  2  3  1  0
  3  4  1  0
  4  5  1  0
  5  6  1  0
  6  7  1  0
  7  8  2  0
  8  9  1  0
  9 10  2  0
 10 11  1  0
 11 12  2  0
 11 13  1  0
 13 14  1  0
 14 15  2  0
 15 16  1  0
 15 17  1  0
 17 18  1  0
 17 19  2  0
 19 20  1  0
 20 21  1  0
 20 22  2  0
 22 23  1  0
 23 24  2  0
 23 25  1  0
 25  2  1  0
  6  4  1  0
 22 14  1  0
  1 26  1  0
  1 27  1  0
  1 28  1  0
  2 29  1  6
  3 30  1  0
  3 31  1  0
  4 32  1  1
  6 33  1  1
  7 34  1  0
  8 35  1  0
  9 36  1  0
 10 37  1  0
 13 38  1  0
 13 39  1  0
 18 40  1  0
 19 41  1  0
 21 42  1  0
M  END
>  <meeko>  (7) 
{"is_sidechain": [false], "free_energy": -4.849, "intermolecular_energy": -7.64, "internal_energy": -0.987}

$$$$
2wer_ligand
     RDKit          3D

 42 44  0  0  0  0  0  0  0  0999 V2000
    3.6980    8.6580   18.6590 C   0  0  0  0  0  0  0  0  0  0  0  0
    3.7010    7.9470   17.3070 C   0  0  2  0  0  0  0  0  0  0  0  0
    4.9360    7.0260   17.1750 C   0  0  0  0  0  0  0  0  0  0  0  0
    6.1730    7.5940   17.8060 C   0  0  1  0  0  0  0  0  0  0  0  0
    7.3910    6.8600   17.6610 O   0  0  0  0  0  0  0  0  0  0  0  0
    7.2950    8.0670   16.8930 C   0  0  2  0  0  0  0  0  0  0  0  0
    7.8770    9.3670   17.2520 C   0  0  0  0  0  0  0  0  0  0  0  0
    7.7650   10.5020   16.5380 C   0  0  0  0  0  0  0  0  0  0  0  0
    7.0770   10.5600   15.2670 C   0  0  0  0  0  0  0  0  0  0  0  0
    5.8940   11.1520   15.0650 C   0  0  0  0  0  0  0  0  0  0  0  0
    5.3100   11.0110   13.7050 C   0  0  0  0  0  0  0  0  0  0  0  0
    6.0600   10.9730   12.7280 O   0  0  0  0  0  0  0  0  0  0  0  0
    3.8050   10.8970   13.5380 C   0  0  0  0  0  0  0  0  0  0  0  0
    2.9660   11.5050   14.6450 C   0  0  0  0  0  0  0  0  0  0  0  0
    2.7620   12.9000   14.7310 C   0  0  0  0  0  0  0  0  0  0  0  0
    3.4720   13.9750   13.5680 Cl  0  0  0  0  0  0  0  0  0  0  0  0
    2.0010   13.4500   15.7780 C   0  0  0  0  0  0  0  0  0  0  0  0
    1.8210   14.8060   15.8430 O   0  0  0  0  0  0  0  0  0  0  0  0
    1.4330   12.6380   16.7560 C   0  0  0  0  0  0  0  0  0  0  0  0
    1.6350   11.2630   16.6920 C   0  0  0  0  0  0  0  0  0  0  0  0
    1.0810   10.4550   17.6470 O   0  0  0  0  0  0  0  0  0  0  0  0
    2.3990   10.6970   15.6570 C   0  0  0  0  0  0  0  0  0  0  0  0
    2.5600    9.2290   15.6540 C   0  0  0  0  0  0  0  0  0  0  0  0
    1.7480    8.4540   15.1850 O   0  0  0  0  0  0  0  0  0  0  0  0
    3.7350    8.9400   16.2600 O   0  0  0  0  0  0  0  0  0  0  0  0
    3.7012    7.9108   19.4662 H   0  0  0  0  0  0  0  0  0  0  0  0
    4.5935    9.2914   18.7422 H   0  0  0  0  0  0  0  0  0  0  0  0
    2.7972    9.2838   18.7422 H   0  0  0  0  0  0  0  0  0  0  0  0
    2.7939    7.3302   17.2248 H   0  0  0  0  0  0  0  0  0  0  0  0
    4.7076    6.0649   17.6589 H   0  0  0  0  0  0  0  0  0  0  0  0
    5.1426    6.9118   16.1006 H   0  0  0  0  0  0  0  0  0  0  0  0
    5.6034    8.0269   18.6416 H   0  0  0  0  0  0  0  0  0  0  0  0
    7.5055    8.2725   15.8331 H   0  0  0  0  0  0  0  0  0  0  0  0
    8.4551    9.4171   18.1865 H   0  0  0  0  0  0  0  0  0  0  0  0
    8.2149   11.4231   16.9371 H   0  0  0  0  0  0  0  0  0  0  0  0
    7.5619   10.0823   14.4029 H   0  0  0  0  0  0  0  0  0  0  0  0
    5.3819   11.7121   15.8613 H   0  0  0  0  0  0  0  0  0  0  0  0
    3.5321   11.3955   12.5962 H   0  0  0  0  0  0  0  0  0  0  0  0
    3.5851    9.8194   13.5567 H   0  0  0  0  0  0  0  0  0  0  0  0
    2.4430   15.2000   16.4770 H   0  0  0  0  0  0  0  0  0  0  0  0
    0.8335   13.0770   17.5671 H   0  0  0  0  0  0  0  0  0  0  0  0
    0.7350    9.6410   17.2450 H   0  0  0  0  0  0  0  0  0  0  0  0
  1  2  1  0
  2  3  1  0
  3  4  1  0
  4  5  1  0
  5  6  1  0
  6  7  1  0
  7  8  2  0
  8  9  1  0
  9 10  2  0
 10 11  1  0
 11 12  2  0
 11 13  1  0
 13 14  1  0
 14 15  2  0
 15 16  1  0
 15 17  1  0
 17 18  1  0
 17 19  2  0
 19 20  1  0
 20 21  1  0
 20 22  2  0
 22 23  1  0
 23 24  2  0
 23 25  1  0
 25  2  1  0
  6  4  1  0
 22 14  1  0
  1 26  1  0
  1 27  1  0
  1 28  1  0
  2 29  1  6
  3 30  1  0
  3 31  1  0
  4 32  1  1
  6 33  1  6
  7 34  1  0
  8 35  1  0
  9 36  1  0
 10 37  1  0
 13 38  1  0
 13 39  1  0
 18 40  1  0
 19 41  1  0
 21 42  1  0
M  END
>  <meeko>  (8) 
{"is_sidechain": [false], "free_energy": -4.807, "intermolecular_energy": -7.159, "internal_energy": -1.401}

$$$$
2wer_ligand
     RDKit          3D

 42 44  0  0  0  0  0  0  0  0999 V2000
    4.1850   14.3880   16.1040 C   0  0  0  0  0  0  0  0  0  0  0  0
    3.4570   13.8740   14.8640 C   0  0  2  0  0  0  0  0  0  0  0  0
    2.1970   14.7150   14.5600 C   0  0  0  0  0  0  0  0  0  0  0  0
    1.3930   15.0560   15.7790 C   0  0  1  0  0  0  0  0  0  0  0  0
    0.0270   15.4360   15.5900 O   0  0  0  0  0  0  0  0  0  0  0  0
    0.2410   14.1380   16.1620 C   0  0  2  0  0  0  0  0  0  0  0  0
    0.1680   13.8010   17.5890 C   0  0  0  0  0  0  0  0  0  0  0  0
    0.1840   12.5580   18.1050 C   0  0  0  0  0  0  0  0  0  0  0  0
    0.2260   11.3710   17.2790 C   0  0  0  0  0  0  0  0  0  0  0  0
    1.1870   10.4400   17.3280 C   0  0  0  0  0  0  0  0  0  0  0  0
    1.0970    9.3480   16.3230 C   0  0  0  0  0  0  0  0  0  0  0  0
    0.1180    8.6010   16.3300 O   0  0  0  0  0  0  0  0  0  0  0  0
    2.2000    9.1790   15.2920 C   0  0  0  0  0  0  0  0  0  0  0  0
    3.6100    9.4550   15.7770 C   0  0  0  0  0  0  0  0  0  0  0  0
    4.2480    8.6030   16.7040 C   0  0  0  0  0  0  0  0  0  0  0  0
    3.4360    7.2020   17.3290 Cl  0  0  0  0  0  0  0  0  0  0  0  0
    5.5480    8.8860   17.1620 C   0  0  0  0  0  0  0  0  0  0  0  0
    6.1440    8.0470   18.0640 O   0  0  0  0  0  0  0  0  0  0  0  0
    6.2360   10.0120   16.7170 C   0  0  0  0  0  0  0  0  0  0  0  0
    5.6150   10.8680   15.8130 C   0  0  0  0  0  0  0  0  0  0  0  0
    6.2820   11.9770   15.3690 O   0  0  0  0  0  0  0  0  0  0  0  0
    4.3150   10.6040   15.3510 C   0  0  0  0  0  0  0  0  0  0  0  0
    3.7290   11.5560   14.3860 C   0  0  0  0  0  0  0  0  0  0  0  0
    3.8540   11.4680   13.1790 O   0  0  0  0  0  0  0  0  0  0  0  0
    3.0660   12.5030   15.0890 O   0  0  0  0  0  0  0  0  0  0  0  0
    3.6718   14.0257   17.0070 H   0  0  0  0  0  0  0  0  0  0  0  0
    5.2218   14.0206   16.0991 H   0  0  0  0  0  0  0  0  0  0  0  0
    4.1858   15.4880   16.0991 H   0  0  0  0  0  0  0  0  0  0  0  0
    4.1375   13.9510   14.0032 H   0  0  0  0  0  0  0  0  0  0  0  0
    2.5126   15.6523   14.0784 H   0  0  0  0  0  0  0  0  0  0  0  0
    1.5525   14.1059   13.9091 H   0  0  0  0  0  0  0  0  0  0  0  0
    2.2685   15.4766   16.2953 H   0  0  0  0  0  0  0  0  0  0  0  0
   -0.1878   13.1556   15.9148 H   0  0  0  0  0  0  0  0  0  0  0  0
    0.0937   14.6379   18.2989 H   0  0  0  0  0  0  0  0  0  0  0  0
    0.1644   12.4399   19.1985 H   0  0  0  0  0  0  0  0  0  0  0  0
   -0.5914   11.2225   16.5580 H   0  0  0  0  0  0  0  0  0  0  0  0
    1.9978   10.4808   18.0703 H   0  0  0  0  0  0  0  0  0  0  0  0
    2.1658    8.1411   14.9293 H   0  0  0  0  0  0  0  0  0  0  0  0
    1.9998    9.9331   14.5166 H   0  0  0  0  0  0  0  0  0  0  0  0
    6.6960    7.3920   17.6050 H   0  0  0  0  0  0  0  0  0  0  0  0
    7.2549   10.2214   17.0748 H   0  0  0  0  0  0  0  0  0  0  0  0
    5.8220   12.7850   15.6510 H   0  0  0  0  0  0  0  0  0  0  0  0
  1  2  1  0
  2  3  1  0
  3  4  1  0
  4  5  1  0
  5  6  1  0
  6  7  1  0
  7  8  2  0
  8  9  1  0
  9 10  2  0
 10 11  1  0
 11 12  2  0
 11 13  1  0
 13 14  1  0
 14 15  2  0
 15 16  1  0
 15 17  1  0
 17 18  1  0
 17 19  2  0
 19 20  1  0
 20 21  1  0
 20 22  2  0
 22 23  1  0
 23 24  2  0
 23 25  1  0
 25  2  1  0
  6  4  1  0
 22 14  1  0
  1 26  1  0
  1 27  1  0
  1 28  1  0
  2 29  1  6
  3 30  1  0
  3 31  1  0
  4 32  1  1
  6 33  1  6
  7 34  1  0
  8 35  1  0
  9 36  1  0
 10 37  1  0
 13 38  1  0
 13 39  1  0
 18 40  1  0
 19 41  1  0
 21 42  1  0
M  END
>  <meeko>  (9) 
{"is_sidechain": [false], "free_energy": -4.787, "intermolecular_energy": -7.158, "internal_energy": -1.371}

$$$$
