
     RDKit          3D

 21 24  0  0  0  0  0  0  0  0999 V2000
   -1.8430   10.1240   19.6110 N   0  0  0  0  0  0  0  0  0  0  0  0
   -0.9620    9.0590   19.6640 C   0  0  0  0  0  0  0  0  0  0  0  0
    0.3040    9.1670   19.0810 C   0  0  0  0  0  0  0  0  0  0  0  0
    1.1850    8.1290   19.1350 C   0  0  0  0  0  0  0  0  0  0  0  0
    0.8430    6.9240   19.7560 C   0  0  0  0  0  0  0  0  0  0  0  0
    1.7140    5.7900   19.8370 C   0  0  0  0  0  0  0  0  0  0  0  0
    2.9740    5.8430   19.3050 N   0  0  0  0  0  0  0  0  0  0  0  0
    3.9290    4.7470   19.4690 C   0  0  1  0  0  0  0  0  0  0  0  0
    5.3500    5.0740   19.2110 C   0  0  0  0  0  0  0  0  0  0  0  0
    4.8590    4.8660   20.6500 C   0  0  0  0  0  0  0  0  0  0  0  0
    1.2800    4.6600   20.4400 N   0  0  0  0  0  0  0  0  0  0  0  0
    0.0290    4.5820   20.9800 C   0  0  0  0  0  0  0  0  0  0  0  0
   -0.4090    3.3090   21.5820 C   0  0  0  0  0  0  0  0  0  0  0  0
   -1.6300    3.2300   22.2410 C   0  0  0  0  0  0  0  0  0  0  0  0
   -2.0670    2.0170   22.7960 C   0  0  0  0  0  0  0  0  0  0  0  0
   -1.2830    0.8880   22.6800 C   0  0  0  0  0  0  0  0  0  0  0  0
   -0.0690    0.9500   22.0220 C   0  0  0  0  0  0  0  0  0  0  0  0
    0.3640    2.1650   21.4700 C   0  0  0  0  0  0  0  0  0  0  0  0
   -0.8100    5.6260   20.9450 N   0  0  0  0  0  0  0  0  0  0  0  0
   -0.4320    6.7880   20.3440 C   0  0  0  0  0  0  0  0  0  0  0  0
   -1.3340    7.8690   20.2950 C   0  0  0  0  0  0  0  0  0  0  0  0
  2  1  1  0
  3  2  2  0
  4  3  1  0
  5  4  2  0
  6  5  1  0
  7  6  1  0
  8  7  1  1
  9  8  1  0
 10  9  1  0
 10  8  1  0
 11  6  2  0
 12 11  1  0
 13 12  1  0
 14 13  2  0
 15 14  1  0
 16 15  2  0
 17 16  1  0
 18 13  1  0
 18 17  2  0
 19 12  2  0
 20 19  1  0
 20  5  1  0
 21 20  2  0
 21  2  1  0
M  CHG  1  19   1
M  END
$$$$
