
     RDKit          3D

 25 28  0  0  0  0  0  0  0  0999 V2000
    7.4790    0.2370  -10.3420 C   0  0  0  0  0  0  0  0  0  0  0  0
    7.9530   -0.5740   -9.2380 N   0  0  0  0  0  0  0  0  0  0  0  0
    8.7550    0.0740   -8.2480 C   0  0  0  0  0  0  0  0  0  0  0  0
    7.6560   -1.9240   -9.1710 C   0  0  0  0  0  0  0  0  0  0  0  0
    6.8470   -2.5420  -10.1080 C   0  0  0  0  0  0  0  0  0  0  0  0
    6.5950   -3.9030  -10.0070 C   0  0  0  0  0  0  0  0  0  0  0  0
    5.7280   -4.5450  -11.0170 C   0  0  0  0  0  0  0  0  0  0  0  0
    4.7130   -5.3920  -10.6510 C   0  0  0  0  0  0  0  0  0  0  0  0
    3.8950   -5.9790  -11.6070 C   0  0  0  0  0  0  0  0  0  0  0  0
    4.0770   -5.7060  -12.9260 N   0  0  0  0  0  0  0  0  0  0  0  0
    5.0660   -4.8650  -13.3140 C   0  0  0  0  0  0  0  0  0  0  0  0
    5.8960   -4.2690  -12.3770 C   0  0  0  0  0  0  0  0  0  0  0  0
    7.1940   -4.5800   -8.9250 C   0  0  0  0  0  0  0  0  0  0  0  0
    7.0740   -6.0130   -8.7170 C   0  0  0  0  0  0  0  0  0  0  0  0
    7.6470   -6.8950   -9.6230 C   0  0  0  0  0  0  0  0  0  0  0  0
    7.5810   -8.2690   -9.4130 C   0  0  0  0  0  0  0  0  0  0  0  0
    6.9500   -8.7870   -8.2760 C   0  0  0  0  0  0  0  0  0  0  0  0
    6.8740  -10.1750   -8.0520 C   0  0  0  0  0  0  0  0  0  0  0  0
    6.2440  -10.6600   -6.9310 C   0  0  0  0  0  0  0  0  0  0  0  0
    5.6590   -9.7880   -6.0170 C   0  0  0  0  0  0  0  0  0  0  0  0
    5.7190   -8.4150   -6.2240 C   0  0  0  0  0  0  0  0  0  0  0  0
    6.3620   -7.8850   -7.3470 C   0  0  0  0  0  0  0  0  0  0  0  0
    6.4300   -6.4920   -7.5710 C   0  0  0  0  0  0  0  0  0  0  0  0
    7.9460   -3.9310   -8.0580 N   0  0  0  0  0  0  0  0  0  0  0  0
    8.1800   -2.6240   -8.1690 N   0  0  0  0  0  0  0  0  0  0  0  0
  2  1  1  0
  3  2  1  0
  4  2  1  0
  5  4  2  0
  6  5  1  0
  7  6  1  0
  8  7  2  0
  9  8  1  0
 10  9  2  0
 11 10  1  0
 12 11  2  0
 12  7  1  0
 13  6  2  0
 14 13  1  0
 15 14  2  0
 16 15  1  0
 17 16  2  0
 18 17  1  0
 19 18  2  0
 20 19  1  0
 21 20  2  0
 22 21  1  0
 22 17  1  0
 23 22  2  0
 23 14  1  0
 24 13  1  0
 25 24  2  0
 25  4  1  0
M  END
$$$$
