4e5w_ligand
     RDKit          3D

 57 61  0  0  0  0  0  0  0  0999 V2000
   -3.3600  -18.2610    1.4960 C   0  0  0  0  0  0  0  0  0  0  0  0
   -3.9740  -19.2400    0.5010 C   0  0  0  0  0  0  0  0  0  0  0  0
   -5.4810  -19.0400    0.3620 C   0  0  0  0  0  0  0  0  0  0  0  0
   -3.6950  -20.6770    0.8760 N   0  0  2  0  0  0  0  0  0  0  0  0
   -4.7690  -21.4700    1.5740 C   0  0  0  0  0  0  0  0  0  0  0  0
   -4.1960  -21.7330    2.9490 C   0  0  0  0  0  0  0  0  0  0  0  0
   -2.7200  -21.9570    2.6830 C   0  0  0  0  0  0  0  0  0  0  0  0
   -2.3550  -20.9070    1.6410 C   0  0  1  0  0  0  0  0  0  0  0  0
   -1.2930  -21.4000    0.6390 C   0  0  0  0  0  0  0  0  0  0  0  0
   -0.5910  -20.5330    0.1010 O   0  0  0  0  0  0  0  0  0  0  0  0
   -1.1660  -22.7490    0.3690 N   0  0  0  0  0  0  0  0  0  0  0  0
   -1.8940  -23.8150    1.0620 C   0  0  0  0  0  0  0  0  0  0  0  0
   -1.0990  -25.1150    1.1130 C   0  0  0  0  0  0  0  0  0  0  0  0
   -0.6730  -25.6100   -0.2870 C   0  0  0  0  0  0  0  0  0  0  0  0
   -1.4690  -26.7210   -0.8030 N   0  0  0  0  0  0  0  0  0  0  0  0
   -2.6500  -26.5820   -1.5010 C   0  0  0  0  0  0  0  0  0  0  0  0
   -3.1810  -27.7390   -1.8310 N   0  0  0  0  0  0  0  0  0  0  0  0
   -2.3010  -28.6800   -1.3610 C   0  0  0  0  0  0  0  0  0  0  0  0
   -2.3100  -30.0860   -1.4160 C   0  0  0  0  0  0  0  0  0  0  0  0
   -1.3040  -30.8530   -0.8940 N   0  0  0  0  0  0  0  0  0  0  0  0
   -0.2990  -30.1640   -0.3290 C   0  0  0  0  0  0  0  0  0  0  0  0
    0.8290  -30.6720    0.2520 N   0  0  0  0  0  0  0  0  0  0  0  0
    1.6230  -29.6340    0.6970 C   0  0  0  0  0  0  0  0  0  0  0  0
    0.9940  -28.4340    0.4050 C   0  0  0  0  0  0  0  0  0  0  0  0
   -0.2170  -28.7930   -0.2310 C   0  0  0  0  0  0  0  0  0  0  0  0
   -1.2350  -28.0470   -0.7430 C   0  0  0  0  0  0  0  0  0  0  0  0
   -0.6120  -24.4730   -1.3170 C   0  0  0  0  0  0  0  0  0  0  0  0
   -0.2110  -23.1580   -0.6670 C   0  0  0  0  0  0  0  0  0  0  0  0
   -3.5719  -18.5989    2.5212 H   0  0  0  0  0  0  0  0  0  0  0  0
   -2.2717  -18.2162    1.3423 H   0  0  0  0  0  0  0  0  0  0  0  0
   -3.7935  -17.2618    1.3423 H   0  0  0  0  0  0  0  0  0  0  0  0
   -3.4960  -19.0273   -0.4666 H   0  0  0  0  0  0  0  0  0  0  0  0
   -5.9366  -18.9795    1.3614 H   0  0  0  0  0  0  0  0  0  0  0  0
   -5.6780  -18.1078   -0.1878 H   0  0  0  0  0  0  0  0  0  0  0  0
   -5.9143  -19.8885   -0.1878 H   0  0  0  0  0  0  0  0  0  0  0  0
   -3.5090  -21.1540   -0.0290 H   0  0  0  0  0  0  0  0  0  0  0  0
   -5.7007  -20.8895    1.6434 H   0  0  0  0  0  0  0  0  0  0  0  0
   -5.0264  -22.3960    1.0389 H   0  0  0  0  0  0  0  0  0  0  0  0
   -4.3490  -20.8675    3.6104 H   0  0  0  0  0  0  0  0  0  0  0  0
   -4.6733  -22.5850    3.4553 H   0  0  0  0  0  0  0  0  0  0  0  0
   -2.1332  -21.8126    3.6022 H   0  0  0  0  0  0  0  0  0  0  0  0
   -2.5083  -22.9796    2.3374 H   0  0  0  0  0  0  0  0  0  0  0  0
   -1.9292  -20.0108    2.1160 H   0  0  0  0  0  0  0  0  0  0  0  0
   -2.1059  -23.4886    2.0908 H   0  0  0  0  0  0  0  0  0  0  0  0
   -2.8224  -24.0081    0.5045 H   0  0  0  0  0  0  0  0  0  0  0  0
   -0.1952  -24.9510    1.7181 H   0  0  0  0  0  0  0  0  0  0  0  0
   -1.7498  -25.8848    1.5532 H   0  0  0  0  0  0  0  0  0  0  0  0
    0.3436  -26.0012   -0.1336 H   0  0  0  0  0  0  0  0  0  0  0  0
   -3.0987  -25.6101   -1.7540 H   0  0  0  0  0  0  0  0  0  0  0  0
   -3.1608  -30.5894   -1.8985 H   0  0  0  0  0  0  0  0  0  0  0  0
    1.0300  -31.6600    0.3230 H   0  0  0  0  0  0  0  0  0  0  0  0
    2.5950  -29.7416    1.2005 H   0  0  0  0  0  0  0  0  0  0  0  0
    1.3588  -27.4191    0.6217 H   0  0  0  0  0  0  0  0  0  0  0  0
    0.1265  -24.7299   -2.0907 H   0  0  0  0  0  0  0  0  0  0  0  0
   -1.6122  -24.3508   -1.7582 H   0  0  0  0  0  0  0  0  0  0  0  0
    0.7823  -23.2754   -0.2093 H   0  0  0  0  0  0  0  0  0  0  0  0
   -0.1980  -22.3814   -1.4460 H   0  0  0  0  0  0  0  0  0  0  0  0
  1  2  1  0
  2  3  1  0
  2  4  1  0
  4  5  1  0
  5  6  1  0
  6  7  1  0
  7  8  1  0
  8  9  1  0
  9 10  2  0
  9 11  1  0
 11 12  1  0
 12 13  1  0
 13 14  1  0
 14 15  1  0
 15 16  1  0
 16 17  2  0
 17 18  1  0
 18 19  2  0
 19 20  1  0
 20 21  2  0
 21 22  1  0
 22 23  1  0
 23 24  2  0
 24 25  1  0
 25 26  2  0
 14 27  1  0
 27 28  1  0
  8  4  1  0
 28 11  1  0
 26 15  1  0
 26 18  1  0
 25 21  1  0
  1 29  1  0
  1 30  1  0
  1 31  1  0
  2 32  1  0
  3 33  1  0
  3 34  1  0
  3 35  1  0
  4 36  1  6
  5 37  1  0
  5 38  1  0
  6 39  1  0
  6 40  1  0
  7 41  1  0
  7 42  1  0
  8 43  1  1
 12 44  1  0
 12 45  1  0
 13 46  1  0
 13 47  1  0
 14 48  1  0
 16 49  1  0
 19 50  1  0
 22 51  1  0
 23 52  1  0
 24 53  1  0
 27 54  1  0
 27 55  1  0
 28 56  1  0
 28 57  1  0
M  CHG  1   4   1
M  END
>  <meeko>  (1) 
{"is_sidechain": [false], "free_energy": -9.517, "intermolecular_energy": -11.186, "internal_energy": -0.062}

$$$$
4e5w_ligand
     RDKit          3D

 57 61  0  0  0  0  0  0  0  0999 V2000
   -1.6690  -21.6890    3.1130 C   0  0  0  0  0  0  0  0  0  0  0  0
   -2.0050  -20.4280    2.3220 C   0  0  0  0  0  0  0  0  0  0  0  0
   -3.1950  -20.6420    1.3900 C   0  0  0  0  0  0  0  0  0  0  0  0
   -0.8250  -19.9340    1.5180 N   0  0  2  0  0  0  0  0  0  0  0  0
   -0.5700  -18.4520    1.4350 C   0  0  0  0  0  0  0  0  0  0  0  0
   -0.8090  -18.1200   -0.0220 C   0  0  0  0  0  0  0  0  0  0  0  0
   -0.2650  -19.3300   -0.7570 C   0  0  0  0  0  0  0  0  0  0  0  0
   -0.7230  -20.5200    0.0760 C   0  0  1  0  0  0  0  0  0  0  0  0
    0.2990  -21.6740    0.0850 C   0  0  0  0  0  0  0  0  0  0  0  0
    1.4960  -21.3590    0.0410 O   0  0  0  0  0  0  0  0  0  0  0  0
   -0.1330  -22.9860    0.1290 N   0  0  0  0  0  0  0  0  0  0  0  0
   -1.5280  -23.4020    0.2950 C   0  0  0  0  0  0  0  0  0  0  0  0
   -1.6460  -24.7450    1.0110 C   0  0  0  0  0  0  0  0  0  0  0  0
   -0.8540  -25.8690    0.3060 C   0  0  0  0  0  0  0  0  0  0  0  0
   -1.6780  -26.7940   -0.4670 N   0  0  0  0  0  0  0  0  0  0  0  0
   -2.8080  -26.4360   -1.1720 C   0  0  0  0  0  0  0  0  0  0  0  0
   -3.3810  -27.4620   -1.7630 N   0  0  0  0  0  0  0  0  0  0  0  0
   -2.5810  -28.5360   -1.4630 C   0  0  0  0  0  0  0  0  0  0  0  0
   -2.6630  -29.8960   -1.8140 C   0  0  0  0  0  0  0  0  0  0  0  0
   -1.7320  -30.8190   -1.4210 N   0  0  0  0  0  0  0  0  0  0  0  0
   -0.7250  -30.3280   -0.6780 C   0  0  0  0  0  0  0  0  0  0  0  0
    0.3390  -31.0180   -0.1680 N   0  0  0  0  0  0  0  0  0  0  0  0
    1.1610  -30.1490    0.5210 C   0  0  0  0  0  0  0  0  0  0  0  0
    0.6160  -28.8770    0.4610 C   0  0  0  0  0  0  0  0  0  0  0  0
   -0.5750  -29.0160   -0.2910 C   0  0  0  0  0  0  0  0  0  0  0  0
   -1.5200  -28.1160   -0.6780 C   0  0  0  0  0  0  0  0  0  0  0  0
    0.2930  -25.3250   -0.5580 C   0  0  0  0  0  0  0  0  0  0  0  0
    0.8730  -24.0480    0.0320 C   0  0  0  0  0  0  0  0  0  0  0  0
   -1.7267  -21.4725    4.1899 H   0  0  0  0  0  0  0  0  0  0  0  0
   -2.3869  -22.4830    2.8596 H   0  0  0  0  0  0  0  0  0  0  0  0
   -0.6512  -22.0205    2.8596 H   0  0  0  0  0  0  0  0  0  0  0  0
   -2.2698  -19.6640    3.0678 H   0  0  0  0  0  0  0  0  0  0  0  0
   -4.1040  -20.8055    1.9875 H   0  0  0  0  0  0  0  0  0  0  0  0
   -3.3282  -19.7534    0.7555 H   0  0  0  0  0  0  0  0  0  0  0  0
   -3.0103  -21.5213    0.7555 H   0  0  0  0  0  0  0  0  0  0  0  0
    0.0040  -20.3570    1.9810 H   0  0  0  0  0  0  0  0  0  0  0  0
   -1.2670  -17.8986    2.0815 H   0  0  0  0  0  0  0  0  0  0  0  0
    0.4405  -18.1770    1.7715 H   0  0  0  0  0  0  0  0  0  0  0  0
   -1.8822  -17.9876   -0.2238 H   0  0  0  0  0  0  0  0  0  0  0  0
   -0.3280  -17.1802   -0.3309 H   0  0  0  0  0  0  0  0  0  0  0  0
   -0.6790  -19.3853   -1.7746 H   0  0  0  0  0  0  0  0  0  0  0  0
    0.8287  -19.2943   -0.8694 H   0  0  0  0  0  0  0  0  0  0  0  0
   -1.6564  -20.9443   -0.3223 H   0  0  0  0  0  0  0  0  0  0  0  0
   -2.0580  -22.6386    0.8835 H   0  0  0  0  0  0  0  0  0  0  0  0
   -1.9698  -23.5123   -0.7063 H   0  0  0  0  0  0  0  0  0  0  0  0
   -1.2610  -24.6326    2.0353 H   0  0  0  0  0  0  0  0  0  0  0  0
   -2.7077  -25.0326    1.0044 H   0  0  0  0  0  0  0  0  0  0  0  0
   -0.4245  -26.4525    1.1337 H   0  0  0  0  0  0  0  0  0  0  0  0
   -3.1883  -25.4057   -1.2333 H   0  0  0  0  0  0  0  0  0  0  0  0
   -3.5105  -30.2314   -2.4298 H   0  0  0  0  0  0  0  0  0  0  0  0
    0.4820  -32.0100   -0.2980 H   0  0  0  0  0  0  0  0  0  0  0  0
    2.0953  -30.4218    1.0335 H   0  0  0  0  0  0  0  0  0  0  0  0
    1.0222  -27.9554    0.9034 H   0  0  0  0  0  0  0  0  0  0  0  0
    1.0867  -26.0842   -0.6189 H   0  0  0  0  0  0  0  0  0  0  0  0
   -0.1044  -25.0959   -1.5578 H   0  0  0  0  0  0  0  0  0  0  0  0
    1.2598  -24.2648    1.0387 H   0  0  0  0  0  0  0  0  0  0  0  0
    1.6757  -23.6982   -0.6337 H   0  0  0  0  0  0  0  0  0  0  0  0
  1  2  1  0
  2  3  1  0
  2  4  1  0
  4  5  1  0
  5  6  1  0
  6  7  1  0
  7  8  1  0
  8  9  1  0
  9 10  2  0
  9 11  1  0
 11 12  1  0
 12 13  1  0
 13 14  1  0
 14 15  1  0
 15 16  1  0
 16 17  2  0
 17 18  1  0
 18 19  2  0
 19 20  1  0
 20 21  2  0
 21 22  1  0
 22 23  1  0
 23 24  2  0
 24 25  1  0
 25 26  2  0
 14 27  1  0
 27 28  1  0
  8  4  1  0
 28 11  1  0
 26 15  1  0
 26 18  1  0
 25 21  1  0
  1 29  1  0
  1 30  1  0
  1 31  1  0
  2 32  1  0
  3 33  1  0
  3 34  1  0
  3 35  1  0
  4 36  1  1
  5 37  1  0
  5 38  1  0
  6 39  1  0
  6 40  1  0
  7 41  1  0
  7 42  1  0
  8 43  1  6
 12 44  1  0
 12 45  1  0
 13 46  1  0
 13 47  1  0
 14 48  1  0
 16 49  1  0
 19 50  1  0
 22 51  1  0
 23 52  1  0
 24 53  1  0
 27 54  1  0
 27 55  1  0
 28 56  1  0
 28 57  1  0
M  CHG  1   4   1
M  END
>  <meeko>  (2) 
{"is_sidechain": [false], "free_energy": -9.418, "intermolecular_energy": -10.294, "internal_energy": -0.838}

$$$$
4e5w_ligand
     RDKit          3D

 57 61  0  0  0  0  0  0  0  0999 V2000
   -4.0130  -16.0780   -0.8360 C   0  0  0  0  0  0  0  0  0  0  0  0
   -4.1290  -17.5410   -0.4220 C   0  0  0  0  0  0  0  0  0  0  0  0
   -5.5820  -18.0090   -0.3900 C   0  0  0  0  0  0  0  0  0  0  0  0
   -3.4940  -17.7990    0.9250 N   0  0  2  0  0  0  0  0  0  0  0  0
   -3.0490  -16.6270    1.7590 C   0  0  0  0  0  0  0  0  0  0  0  0
   -1.5420  -16.7610    1.8050 C   0  0  0  0  0  0  0  0  0  0  0  0
   -1.3200  -18.2590    1.8830 C   0  0  0  0  0  0  0  0  0  0  0  0
   -2.3390  -18.8470    0.9140 C   0  0  1  0  0  0  0  0  0  0  0  0
   -2.8990  -20.2040    1.3840 C   0  0  0  0  0  0  0  0  0  0  0  0
   -3.8900  -20.1710    2.1240 O   0  0  0  0  0  0  0  0  0  0  0  0
   -2.2910  -21.3810    0.9890 N   0  0  0  0  0  0  0  0  0  0  0  0
   -1.1890  -21.4730    0.0280 C   0  0  0  0  0  0  0  0  0  0  0  0
   -1.2070  -22.7900   -0.7430 C   0  0  0  0  0  0  0  0  0  0  0  0
   -1.1850  -24.0250    0.1840 C   0  0  0  0  0  0  0  0  0  0  0  0
    0.1110  -24.6910    0.2720 N   0  0  0  0  0  0  0  0  0  0  0  0
    1.3090  -24.0480    0.5070 C   0  0  0  0  0  0  0  0  0  0  0  0
    2.3330  -24.8730    0.5150 N   0  0  0  0  0  0  0  0  0  0  0  0
    1.7880  -26.1160    0.3080 C   0  0  0  0  0  0  0  0  0  0  0  0
    2.3690  -27.3940    0.2250 C   0  0  0  0  0  0  0  0  0  0  0  0
    1.6310  -28.5310    0.0320 N   0  0  0  0  0  0  0  0  0  0  0  0
    0.3050  -28.3370   -0.0660 C   0  0  0  0  0  0  0  0  0  0  0  0
   -0.6600  -29.2880   -0.2450 N   0  0  0  0  0  0  0  0  0  0  0  0
   -1.9000  -28.6840   -0.2750 C   0  0  0  0  0  0  0  0  0  0  0  0
   -1.7350  -27.3170   -0.1200 C   0  0  0  0  0  0  0  0  0  0  0  0
   -0.3390  -27.1220    0.0010 C   0  0  0  0  0  0  0  0  0  0  0  0
    0.4140  -26.0010    0.1780 C   0  0  0  0  0  0  0  0  0  0  0  0
   -1.7220  -23.7130    1.5890 C   0  0  0  0  0  0  0  0  0  0  0  0
   -2.7990  -22.6390    1.5440 C   0  0  0  0  0  0  0  0  0  0  0  0
   -3.9629  -15.4455    0.0626 H   0  0  0  0  0  0  0  0  0  0  0  0
   -3.1009  -15.9375   -1.4346 H   0  0  0  0  0  0  0  0  0  0  0  0
   -4.8916  -15.7956   -1.4346 H   0  0  0  0  0  0  0  0  0  0  0  0
   -3.5858  -18.1162   -1.1863 H   0  0  0  0  0  0  0  0  0  0  0  0
   -5.9102  -18.1147    0.6545 H   0  0  0  0  0  0  0  0  0  0  0  0
   -6.2166  -17.2698   -0.9007 H   0  0  0  0  0  0  0  0  0  0  0  0
   -5.6659  -18.9796   -0.9007 H   0  0  0  0  0  0  0  0  0  0  0  0
   -4.2280  -18.2950    1.4710 H   0  0  0  0  0  0  0  0  0  0  0  0
   -3.3428  -15.6776    1.2875 H   0  0  0  0  0  0  0  0  0  0  0  0
   -3.5043  -16.6230    2.7603 H   0  0  0  0  0  0  0  0  0  0  0  0
   -1.0825  -16.3425    0.8974 H   0  0  0  0  0  0  0  0  0  0  0  0
   -1.0898  -16.2172    2.6475 H   0  0  0  0  0  0  0  0  0  0  0  0
   -0.2962  -18.5169    1.5743 H   0  0  0  0  0  0  0  0  0  0  0  0
   -1.4423  -18.6472    2.9049 H   0  0  0  0  0  0  0  0  0  0  0  0
   -1.8864  -19.0314   -0.0715 H   0  0  0  0  0  0  0  0  0  0  0  0
   -1.2725  -20.6419   -0.6878 H   0  0  0  0  0  0  0  0  0  0  0  0
   -0.2448  -21.4228    0.5901 H   0  0  0  0  0  0  0  0  0  0  0  0
   -2.1198  -22.8264   -1.3557 H   0  0  0  0  0  0  0  0  0  0  0  0
   -0.2988  -22.8241   -1.3627 H   0  0  0  0  0  0  0  0  0  0  0  0
   -1.8673  -24.7367   -0.3038 H   0  0  0  0  0  0  0  0  0  0  0  0
    1.3978  -22.9638    0.6699 H   0  0  0  0  0  0  0  0  0  0  0  0
    3.4613  -27.4839    0.3190 H   0  0  0  0  0  0  0  0  0  0  0  0
   -0.4670  -30.2770   -0.3300 H   0  0  0  0  0  0  0  0  0  0  0  0
   -2.8619  -29.2025   -0.4013 H   0  0  0  0  0  0  0  0  0  0  0  0
   -2.5212  -26.5480   -0.0961 H   0  0  0  0  0  0  0  0  0  0  0  0
   -2.1486  -24.6302    2.0213 H   0  0  0  0  0  0  0  0  0  0  0  0
   -0.8888  -23.3432    2.2047 H   0  0  0  0  0  0  0  0  0  0  0  0
   -3.6303  -22.9945    0.9175 H   0  0  0  0  0  0  0  0  0  0  0  0
   -3.1339  -22.4475    2.5741 H   0  0  0  0  0  0  0  0  0  0  0  0
  1  2  1  0
  2  3  1  0
  2  4  1  0
  4  5  1  0
  5  6  1  0
  6  7  1  0
  7  8  1  0
  8  9  1  0
  9 10  2  0
  9 11  1  0
 11 12  1  0
 12 13  1  0
 13 14  1  0
 14 15  1  0
 15 16  1  0
 16 17  2  0
 17 18  1  0
 18 19  2  0
 19 20  1  0
 20 21  2  0
 21 22  1  0
 22 23  1  0
 23 24  2  0
 24 25  1  0
 25 26  2  0
 14 27  1  0
 27 28  1  0
  8  4  1  0
 28 11  1  0
 26 15  1  0
 26 18  1  0
 25 21  1  0
  1 29  1  0
  1 30  1  0
  1 31  1  0
  2 32  1  0
  3 33  1  0
  3 34  1  0
  3 35  1  0
  4 36  1  1
  5 37  1  0
  5 38  1  0
  6 39  1  0
  6 40  1  0
  7 41  1  0
  7 42  1  0
  8 43  1  6
 12 44  1  0
 12 45  1  0
 13 46  1  0
 13 47  1  0
 14 48  1  0
 16 49  1  0
 19 50  1  0
 22 51  1  0
 23 52  1  0
 24 53  1  0
 27 54  1  0
 27 55  1  0
 28 56  1  0
 28 57  1  0
M  CHG  1   4   1
M  END
>  <meeko>  (3) 
{"is_sidechain": [false], "free_energy": -9.369, "intermolecular_energy": -10.112, "internal_energy": -0.962}

$$$$
4e5w_ligand
     RDKit          3D

 57 61  0  0  0  0  0  0  0  0999 V2000
    1.2440  -20.6320   -0.0520 C   0  0  0  0  0  0  0  0  0  0  0  0
    2.2140  -20.3090    1.0800 C   0  0  0  0  0  0  0  0  0  0  0  0
    3.4320  -21.2300    1.0660 C   0  0  0  0  0  0  0  0  0  0  0  0
    1.5480  -20.3870    2.4350 N   0  0  2  0  0  0  0  0  0  0  0  0
    1.9760  -19.4280    3.5140 C   0  0  0  0  0  0  0  0  0  0  0  0
    2.6200  -20.3140    4.5580 C   0  0  0  0  0  0  0  0  0  0  0  0
    1.7680  -21.5680    4.5350 C   0  0  0  0  0  0  0  0  0  0  0  0
    1.4920  -21.8160    3.0570 C   0  0  1  0  0  0  0  0  0  0  0  0
    0.0940  -22.4120    2.7990 C   0  0  0  0  0  0  0  0  0  0  0  0
   -0.8670  -21.8120    3.2970 O   0  0  0  0  0  0  0  0  0  0  0  0
   -0.0420  -23.5680    2.0550 N   0  0  0  0  0  0  0  0  0  0  0  0
    1.0520  -24.2480    1.3560 C   0  0  0  0  0  0  0  0  0  0  0  0
    0.5680  -24.9820    0.1080 C   0  0  0  0  0  0  0  0  0  0  0  0
   -0.5580  -25.9960    0.4110 C   0  0  0  0  0  0  0  0  0  0  0  0
   -0.1240  -27.3900    0.4340 N   0  0  0  0  0  0  0  0  0  0  0  0
    0.9630  -27.8620    1.1400 C   0  0  0  0  0  0  0  0  0  0  0  0
    1.1530  -29.1530    0.9720 N   0  0  0  0  0  0  0  0  0  0  0  0
    0.1340  -29.5570    0.1480 C   0  0  0  0  0  0  0  0  0  0  0  0
   -0.2060  -30.8170   -0.3780 C   0  0  0  0  0  0  0  0  0  0  0  0
   -1.2980  -31.0130   -1.1800 N   0  0  0  0  0  0  0  0  0  0  0  0
   -2.0290  -29.9130   -1.4230 C   0  0  0  0  0  0  0  0  0  0  0  0
   -3.1690  -29.8260   -2.1730 N   0  0  0  0  0  0  0  0  0  0  0  0
   -3.6270  -28.5240   -2.1610 C   0  0  0  0  0  0  0  0  0  0  0  0
   -2.7650  -27.7540   -1.3960 C   0  0  0  0  0  0  0  0  0  0  0  0
   -1.7630  -28.6480   -0.9500 C   0  0  0  0  0  0  0  0  0  0  0  0
   -0.6640  -28.4690   -0.1670 C   0  0  0  0  0  0  0  0  0  0  0  0
   -1.3240  -25.6540    1.6970 C   0  0  0  0  0  0  0  0  0  0  0  0
   -1.3810  -24.1510    1.9250 C   0  0  0  0  0  0  0  0  0  0  0  0
    0.2806  -20.9528    0.3710 H   0  0  0  0  0  0  0  0  0  0  0  0
    1.0922  -19.7359   -0.6717 H   0  0  0  0  0  0  0  0  0  0  0  0
    1.6597  -21.4402   -0.6717 H   0  0  0  0  0  0  0  0  0  0  0  0
    2.5468  -19.2749    0.9070 H   0  0  0  0  0  0  0  0  0  0  0  0
    3.7320  -21.4569    2.0997 H   0  0  0  0  0  0  0  0  0  0  0  0
    3.1790  -22.1647    0.5441 H   0  0  0  0  0  0  0  0  0  0  0  0
    4.2624  -20.7319    0.5441 H   0  0  0  0  0  0  0  0  0  0  0  0
    0.5430  -20.1960    2.2450 H   0  0  0  0  0  0  0  0  0  0  0  0
    2.6983  -18.6965    3.1227 H   0  0  0  0  0  0  0  0  0  0  0  0
    1.1366  -18.8417    3.9162 H   0  0  0  0  0  0  0  0  0  0  0  0
    3.6623  -20.5423    4.2907 H   0  0  0  0  0  0  0  0  0  0  0  0
    2.6618  -19.8435    5.5514 H   0  0  0  0  0  0  0  0  0  0  0  0
    2.3124  -22.4159    4.9763 H   0  0  0  0  0  0  0  0  0  0  0  0
    0.8431  -21.4555    5.1197 H   0  0  0  0  0  0  0  0  0  0  0  0
    2.2096  -22.5362    2.6371 H   0  0  0  0  0  0  0  0  0  0  0  0
    1.8022  -23.5003    1.0591 H   0  0  0  0  0  0  0  0  0  0  0  0
    1.4809  -24.9932    2.0422 H   0  0  0  0  0  0  0  0  0  0  0  0
    0.1898  -24.2409   -0.6116 H   0  0  0  0  0  0  0  0  0  0  0  0
    1.4214  -25.5449   -0.2980 H   0  0  0  0  0  0  0  0  0  0  0  0
   -1.2434  -25.8975   -0.4437 H   0  0  0  0  0  0  0  0  0  0  0  0
    1.6009  -27.2286    1.7739 H   0  0  0  0  0  0  0  0  0  0  0  0
    0.4317  -31.6797   -0.1349 H   0  0  0  0  0  0  0  0  0  0  0  0
   -3.5950  -30.6120   -2.6450 H   0  0  0  0  0  0  0  0  0  0  0  0
   -4.5282  -28.1576   -2.6743 H   0  0  0  0  0  0  0  0  0  0  0  0
   -2.8432  -26.6780   -1.1815 H   0  0  0  0  0  0  0  0  0  0  0  0
   -2.3497  -26.0432    1.6170 H   0  0  0  0  0  0  0  0  0  0  0  0
   -0.7977  -26.1137    2.5465 H   0  0  0  0  0  0  0  0  0  0  0  0
   -1.8926  -23.6808    1.0723 H   0  0  0  0  0  0  0  0  0  0  0  0
   -1.9256  -23.9683    2.8631 H   0  0  0  0  0  0  0  0  0  0  0  0
  1  2  1  0
  2  3  1  0
  2  4  1  0
  4  5  1  0
  5  6  1  0
  6  7  1  0
  7  8  1  0
  8  9  1  0
  9 10  2  0
  9 11  1  0
 11 12  1  0
 12 13  1  0
 13 14  1  0
 14 15  1  0
 15 16  1  0
 16 17  2  0
 17 18  1  0
 18 19  2  0
 19 20  1  0
 20 21  2  0
 21 22  1  0
 22 23  1  0
 23 24  2  0
 24 25  1  0
 25 26  2  0
 14 27  1  0
 27 28  1  0
  8  4  1  0
 28 11  1  0
 26 15  1  0
 26 18  1  0
 25 21  1  0
  1 29  1  0
  1 30  1  0
  1 31  1  0
  2 32  1  0
  3 33  1  0
  3 34  1  0
  3 35  1  0
  4 36  1  6
  5 37  1  0
  5 38  1  0
  6 39  1  0
  6 40  1  0
  7 41  1  0
  7 42  1  0
  8 43  1  6
 12 44  1  0
 12 45  1  0
 13 46  1  0
 13 47  1  0
 14 48  1  0
 16 49  1  0
 19 50  1  0
 22 51  1  0
 23 52  1  0
 24 53  1  0
 27 54  1  0
 27 55  1  0
 28 56  1  0
 28 57  1  0
M  CHG  1   4   1
M  END
>  <meeko>  (4) 
{"is_sidechain": [false], "free_energy": -9.305, "intermolecular_energy": -9.846, "internal_energy": -1.152}

$$$$
4e5w_ligand
     RDKit          3D

 57 61  0  0  0  0  0  0  0  0999 V2000
   -3.2110  -16.2250    0.3880 C   0  0  0  0  0  0  0  0  0  0  0  0
   -3.7100  -17.2650   -0.6100 C   0  0  0  0  0  0  0  0  0  0  0  0
   -5.0460  -16.8620   -1.2300 C   0  0  0  0  0  0  0  0  0  0  0  0
   -3.8460  -18.6330    0.0190 N   0  0  2  0  0  0  0  0  0  0  0  0
   -5.2180  -19.1350    0.3830 C   0  0  0  0  0  0  0  0  0  0  0  0
   -5.1910  -19.2140    1.8940 C   0  0  0  0  0  0  0  0  0  0  0  0
   -3.7800  -19.6760    2.2010 C   0  0  0  0  0  0  0  0  0  0  0  0
   -2.9020  -18.8930    1.2330 C   0  0  1  0  0  0  0  0  0  0  0  0
   -1.6810  -19.6970    0.7450 C   0  0  0  0  0  0  0  0  0  0  0  0
   -0.6610  -19.0500    0.4720 O   0  0  0  0  0  0  0  0  0  0  0  0
   -1.7590  -21.0710    0.6190 N   0  0  0  0  0  0  0  0  0  0  0  0
   -2.9030  -21.8860    1.0340 C   0  0  0  0  0  0  0  0  0  0  0  0
   -2.4840  -23.2910    1.4590 C   0  0  0  0  0  0  0  0  0  0  0  0
   -1.6940  -24.0360    0.3590 C   0  0  0  0  0  0  0  0  0  0  0  0
   -2.4670  -25.0430   -0.3620 N   0  0  0  0  0  0  0  0  0  0  0  0
   -3.6020  -24.7810   -1.1000 C   0  0  0  0  0  0  0  0  0  0  0  0
   -4.1220  -25.8670   -1.6300 N   0  0  0  0  0  0  0  0  0  0  0  0
   -3.2810  -26.8830   -1.2540 C   0  0  0  0  0  0  0  0  0  0  0  0
   -3.3000  -28.2650   -1.5180 C   0  0  0  0  0  0  0  0  0  0  0  0
   -2.3340  -29.1190   -1.0570 N   0  0  0  0  0  0  0  0  0  0  0  0
   -1.3600  -28.5390   -0.3370 C   0  0  0  0  0  0  0  0  0  0  0  0
   -0.2730  -29.1470    0.2270 N   0  0  0  0  0  0  0  0  0  0  0  0
    0.5010  -28.2010    0.8670 C   0  0  0  0  0  0  0  0  0  0  0  0
   -0.0970  -26.9600    0.7210 C   0  0  0  0  0  0  0  0  0  0  0  0
   -1.2710  -27.1990   -0.0320 C   0  0  0  0  0  0  0  0  0  0  0  0
   -2.2490  -26.3680   -0.4860 C   0  0  0  0  0  0  0  0  0  0  0  0
   -1.0160  -23.0750   -0.6280 C   0  0  0  0  0  0  0  0  0  0  0  0
   -0.6060  -21.7790    0.0540 C   0  0  0  0  0  0  0  0  0  0  0  0
   -3.3846  -16.5868    1.4122 H   0  0  0  0  0  0  0  0  0  0  0  0
   -2.1345  -16.0576    0.2358 H   0  0  0  0  0  0  0  0  0  0  0  0
   -3.7540  -15.2806    0.2358 H   0  0  0  0  0  0  0  0  0  0  0  0
   -2.9490  -17.3138   -1.4028 H   0  0  0  0  0  0  0  0  0  0  0  0
   -5.7699  -16.6436   -0.4311 H   0  0  0  0  0  0  0  0  0  0  0  0
   -4.9059  -15.9662   -1.8528 H   0  0  0  0  0  0  0  0  0  0  0  0
   -5.4246  -17.6859   -1.8528 H   0  0  0  0  0  0  0  0  0  0  0  0
   -3.4650  -19.2880   -0.6930 H   0  0  0  0  0  0  0  0  0  0  0  0
   -5.9939  -18.4338    0.0421 H   0  0  0  0  0  0  0  0  0  0  0  0
   -5.4533  -20.1013   -0.0870 H   0  0  0  0  0  0  0  0  0  0  0  0
   -5.3882  -18.2291    2.3425 H   0  0  0  0  0  0  0  0  0  0  0  0
   -5.9596  -19.8876    2.3009 H   0  0  0  0  0  0  0  0  0  0  0  0
   -3.5130  -19.4439    3.2426 H   0  0  0  0  0  0  0  0  0  0  0  0
   -3.6621  -20.7636    2.0859 H   0  0  0  0  0  0  0  0  0  0  0  0
   -2.4969  -17.9890    1.7112 H   0  0  0  0  0  0  0  0  0  0  0  0
   -3.4007  -21.3927    1.8819 H   0  0  0  0  0  0  0  0  0  0  0  0
   -3.5810  -21.9810    0.1730 H   0  0  0  0  0  0  0  0  0  0  0  0
   -1.8513  -23.2135    2.3555 H   0  0  0  0  0  0  0  0  0  0  0  0
   -3.4009  -23.8657    1.6568 H   0  0  0  0  0  0  0  0  0  0  0  0
   -0.9144  -24.5802    0.9122 H   0  0  0  0  0  0  0  0  0  0  0  0
   -4.0260  -23.7745   -1.2311 H   0  0  0  0  0  0  0  0  0  0  0  0
   -4.1244  -28.6760   -2.1192 H   0  0  0  0  0  0  0  0  0  0  0  0
   -0.0850  -30.1380    0.1620 H   0  0  0  0  0  0  0  0  0  0  0  0
    1.4395  -28.3997    1.4052 H   0  0  0  0  0  0  0  0  0  0  0  0
    0.2635  -25.9954    1.1076 H   0  0  0  0  0  0  0  0  0  0  0  0
   -0.1202  -23.5605   -1.0424 H   0  0  0  0  0  0  0  0  0  0  0  0
   -1.7337  -22.8347   -1.4263 H   0  0  0  0  0  0  0  0  0  0  0  0
    0.1008  -22.0114    0.8642 H   0  0  0  0  0  0  0  0  0  0  0  0
   -0.1422  -21.1277   -0.7014 H   0  0  0  0  0  0  0  0  0  0  0  0
  1  2  1  0
  2  3  1  0
  2  4  1  0
  4  5  1  0
  5  6  1  0
  6  7  1  0
  7  8  1  0
  8  9  1  0
  9 10  2  0
  9 11  1  0
 11 12  1  0
 12 13  1  0
 13 14  1  0
 14 15  1  0
 15 16  1  0
 16 17  2  0
 17 18  1  0
 18 19  2  0
 19 20  1  0
 20 21  2  0
 21 22  1  0
 22 23  1  0
 23 24  2  0
 24 25  1  0
 25 26  2  0
 14 27  1  0
 27 28  1  0
  8  4  1  0
 28 11  1  0
 26 15  1  0
 26 18  1  0
 25 21  1  0
  1 29  1  0
  1 30  1  0
  1 31  1  0
  2 32  1  0
  3 33  1  0
  3 34  1  0
  3 35  1  0
  4 36  1  6
  5 37  1  0
  5 38  1  0
  6 39  1  0
  6 40  1  0
  7 41  1  0
  7 42  1  0
  8 43  1  1
 12 44  1  0
 12 45  1  0
 13 46  1  0
 13 47  1  0
 14 48  1  0
 16 49  1  0
 19 50  1  0
 22 51  1  0
 23 52  1  0
 24 53  1  0
 27 54  1  0
 27 55  1  0
 28 56  1  0
 28 57  1  0
M  CHG  1   4   1
M  END
>  <meeko>  (5) 
{"is_sidechain": [false], "free_energy": -9.156, "intermolecular_energy": -10.744, "internal_energy": -0.08}

$$$$
4e5w_ligand
     RDKit          3D

 57 61  0  0  0  0  0  0  0  0999 V2000
   -0.0370  -30.0570   -1.2940 C   0  0  0  0  0  0  0  0  0  0  0  0
    0.0430  -28.7740   -0.4730 C   0  0  0  0  0  0  0  0  0  0  0  0
    0.8720  -28.9620    0.7950 C   0  0  0  0  0  0  0  0  0  0  0  0
   -1.3260  -28.2540   -0.1010 N   0  0  2  0  0  0  0  0  0  0  0  0
   -2.5440  -29.0050   -0.5710 C   0  0  0  0  0  0  0  0  0  0  0  0
   -3.2130  -28.0520   -1.5370 C   0  0  0  0  0  0  0  0  0  0  0  0
   -2.9880  -26.6910   -0.9070 C   0  0  0  0  0  0  0  0  0  0  0  0
   -1.5530  -26.7390   -0.3960 C   0  0  1  0  0  0  0  0  0  0  0  0
   -1.3560  -25.9480    0.9120 C   0  0  0  0  0  0  0  0  0  0  0  0
   -1.0080  -26.5960    1.9080 O   0  0  0  0  0  0  0  0  0  0  0  0
   -1.5770  -24.5840    0.9390 N   0  0  0  0  0  0  0  0  0  0  0  0
   -1.8790  -23.7610   -0.2350 C   0  0  0  0  0  0  0  0  0  0  0  0
   -1.3710  -22.3300   -0.0800 C   0  0  0  0  0  0  0  0  0  0  0  0
   -1.9170  -21.6370    1.1890 C   0  0  0  0  0  0  0  0  0  0  0  0
   -2.9910  -20.6800    0.9380 N   0  0  0  0  0  0  0  0  0  0  0  0
   -4.3330  -20.9970    0.9100 C   0  0  0  0  0  0  0  0  0  0  0  0
   -5.0920  -19.9570    0.6400 N   0  0  0  0  0  0  0  0  0  0  0  0
   -4.2210  -18.9040    0.5160 C   0  0  0  0  0  0  0  0  0  0  0  0
   -4.4290  -17.5400    0.2440 C   0  0  0  0  0  0  0  0  0  0  0  0
   -3.4040  -16.6340    0.1840 N   0  0  0  0  0  0  0  0  0  0  0  0
   -2.1820  -17.1430    0.4110 C   0  0  0  0  0  0  0  0  0  0  0  0
   -0.9940  -16.4670    0.4260 N   0  0  0  0  0  0  0  0  0  0  0  0
    0.0300  -17.3460    0.7160 C   0  0  0  0  0  0  0  0  0  0  0  0
   -0.5040  -18.6130    0.8850 C   0  0  0  0  0  0  0  0  0  0  0  0
   -1.8950  -18.4620    0.6800 C   0  0  0  0  0  0  0  0  0  0  0  0
   -2.9260  -19.3510    0.7200 C   0  0  0  0  0  0  0  0  0  0  0  0
   -2.3380  -22.6420    2.2710 C   0  0  0  0  0  0  0  0  0  0  0  0
   -1.4750  -23.8940    2.2290 C   0  0  0  0  0  0  0  0  0  0  0  0
   -0.0910  -30.9226   -0.6173 H   0  0  0  0  0  0  0  0  0  0  0  0
   -0.9353  -30.0310   -1.9284 H   0  0  0  0  0  0  0  0  0  0  0  0
    0.8575  -30.1427   -1.9284 H   0  0  0  0  0  0  0  0  0  0  0  0
    0.5395  -28.0329   -1.1166 H   0  0  0  0  0  0  0  0  0  0  0  0
    0.2310  -28.8166    1.6770 H   0  0  0  0  0  0  0  0  0  0  0  0
    1.2925  -29.9783    0.8108 H   0  0  0  0  0  0  0  0  0  0  0  0
    1.6898  -28.2265    0.8108 H   0  0  0  0  0  0  0  0  0  0  0  0
   -1.3410  -28.2750    0.9380 H   0  0  0  0  0  0  0  0  0  0  0  0
   -2.2564  -29.9377   -1.0783 H   0  0  0  0  0  0  0  0  0  0  0  0
   -3.2046  -29.3002    0.2575 H   0  0  0  0  0  0  0  0  0  0  0  0
   -2.7449  -28.1071   -2.5309 H   0  0  0  0  0  0  0  0  0  0  0  0
   -4.2776  -28.2798   -1.6945 H   0  0  0  0  0  0  0  0  0  0  0  0
   -3.1082  -25.8923   -1.6538 H   0  0  0  0  0  0  0  0  0  0  0  0
   -3.7103  -26.4768   -0.1055 H   0  0  0  0  0  0  0  0  0  0  0  0
   -0.8590  -26.2962   -1.1256 H   0  0  0  0  0  0  0  0  0  0  0  0
   -1.4019  -24.2130   -1.1171 H   0  0  0  0  0  0  0  0  0  0  0  0
   -2.9724  -23.7215   -0.3484 H   0  0  0  0  0  0  0  0  0  0  0  0
   -0.2726  -22.3506   -0.0246 H   0  0  0  0  0  0  0  0  0  0  0  0
   -1.7240  -21.7563   -0.9496 H   0  0  0  0  0  0  0  0  0  0  0  0
   -1.0627  -21.0545    1.5643 H   0  0  0  0  0  0  0  0  0  0  0  0
   -4.7255  -22.0081    1.0933 H   0  0  0  0  0  0  0  0  0  0  0  0
   -5.4565  -17.1867    0.0725 H   0  0  0  0  0  0  0  0  0  0  0  0
   -0.9080  -15.4740    0.2570 H   0  0  0  0  0  0  0  0  0  0  0  0
    1.0950  -17.0836    0.7992 H   0  0  0  0  0  0  0  0  0  0  0  0
    0.0383  -19.5389    1.1270 H   0  0  0  0  0  0  0  0  0  0  0  0
   -2.2352  -22.1690    3.2588 H   0  0  0  0  0  0  0  0  0  0  0  0
   -3.3823  -22.9340    2.0859 H   0  0  0  0  0  0  0  0  0  0  0  0
   -0.4261  -23.6090    2.3982 H   0  0  0  0  0  0  0  0  0  0  0  0
   -1.8302  -24.5800    3.0121 H   0  0  0  0  0  0  0  0  0  0  0  0
  1  2  1  0
  2  3  1  0
  2  4  1  0
  4  5  1  0
  5  6  1  0
  6  7  1  0
  7  8  1  0
  8  9  1  0
  9 10  2  0
  9 11  1  0
 11 12  1  0
 12 13  1  0
 13 14  1  0
 14 15  1  0
 15 16  1  0
 16 17  2  0
 17 18  1  0
 18 19  2  0
 19 20  1  0
 20 21  2  0
 21 22  1  0
 22 23  1  0
 23 24  2  0
 24 25  1  0
 25 26  2  0
 14 27  1  0
 27 28  1  0
  8  4  1  0
 28 11  1  0
 26 15  1  0
 26 18  1  0
 25 21  1  0
  1 29  1  0
  1 30  1  0
  1 31  1  0
  2 32  1  0
  3 33  1  0
  3 34  1  0
  3 35  1  0
  4 36  1  1
  5 37  1  0
  5 38  1  0
  6 39  1  0
  6 40  1  0
  7 41  1  0
  7 42  1  0
  8 43  1  6
 12 44  1  0
 12 45  1  0
 13 46  1  0
 13 47  1  0
 14 48  1  0
 16 49  1  0
 19 50  1  0
 22 51  1  0
 23 52  1  0
 24 53  1  0
 27 54  1  0
 27 55  1  0
 28 56  1  0
 28 57  1  0
M  CHG  1   4   1
M  END
>  <meeko>  (6) 
{"is_sidechain": [false], "free_energy": -9.052, "intermolecular_energy": -10.168, "internal_energy": -0.533}

$$$$
4e5w_ligand
     RDKit          3D

 57 61  0  0  0  0  0  0  0  0999 V2000
    4.1740  -22.8010    4.6590 C   0  0  0  0  0  0  0  0  0  0  0  0
    3.4460  -21.5960    4.0730 C   0  0  0  0  0  0  0  0  0  0  0  0
    1.9730  -21.5710    4.4740 C   0  0  0  0  0  0  0  0  0  0  0  0
    3.5530  -21.5480    2.5660 N   0  0  2  0  0  0  0  0  0  0  0  0
    3.9590  -20.2570    1.9050 C   0  0  0  0  0  0  0  0  0  0  0  0
    2.7270  -19.8380    1.1320 C   0  0  0  0  0  0  0  0  0  0  0  0
    2.1580  -21.1510    0.6290 C   0  0  0  0  0  0  0  0  0  0  0  0
    2.3140  -22.1090    1.8040 C   0  0  1  0  0  0  0  0  0  0  0  0
    2.6190  -23.5540    1.3620 C   0  0  0  0  0  0  0  0  0  0  0  0
    3.8130  -23.8600    1.2480 O   0  0  0  0  0  0  0  0  0  0  0  0
    1.5870  -24.4350    1.1040 N   0  0  0  0  0  0  0  0  0  0  0  0
    0.1670  -24.1520    1.3330 C   0  0  0  0  0  0  0  0  0  0  0  0
   -0.6240  -25.4140    1.6640 C   0  0  0  0  0  0  0  0  0  0  0  0
   -0.4850  -26.5070    0.5810 C   0  0  0  0  0  0  0  0  0  0  0  0
   -1.6440  -26.6350   -0.2990 N   0  0  0  0  0  0  0  0  0  0  0  0
   -2.4770  -25.5950   -0.6550 C   0  0  0  0  0  0  0  0  0  0  0  0
   -3.4600  -25.9800   -1.4390 N   0  0  0  0  0  0  0  0  0  0  0  0
   -3.2520  -27.3220   -1.6350 C   0  0  0  0  0  0  0  0  0  0  0  0
   -3.9560  -28.2820   -2.3840 C   0  0  0  0  0  0  0  0  0  0  0  0
   -3.5610  -29.5900   -2.4670 N   0  0  0  0  0  0  0  0  0  0  0  0
   -2.4430  -29.8900   -1.7850 C   0  0  0  0  0  0  0  0  0  0  0  0
   -1.8220  -31.1050   -1.7070 N   0  0  0  0  0  0  0  0  0  0  0  0
   -0.6910  -30.9930   -0.9230 C   0  0  0  0  0  0  0  0  0  0  0  0
   -0.5820  -29.6850   -0.4810 C   0  0  0  0  0  0  0  0  0  0  0  0
   -1.7000  -29.0120   -1.0290 C   0  0  0  0  0  0  0  0  0  0  0  0
   -2.1180  -27.7180   -0.9450 C   0  0  0  0  0  0  0  0  0  0  0  0
    0.8000  -26.3540   -0.2450 C   0  0  0  0  0  0  0  0  0  0  0  0
    1.9270  -25.7650    0.5880 C   0  0  0  0  0  0  0  0  0  0  0  0
    4.1430  -22.7496    5.7574 H   0  0  0  0  0  0  0  0  0  0  0  0
    3.6833  -23.7257    4.3212 H   0  0  0  0  0  0  0  0  0  0  0  0
    5.2208  -22.7969    4.3212 H   0  0  0  0  0  0  0  0  0  0  0  0
    3.9440  -20.7089    4.4915 H   0  0  0  0  0  0  0  0  0  0  0  0
    1.8916  -21.5696    5.5710 H   0  0  0  0  0  0  0  0  0  0  0  0
    1.4983  -20.6647    4.0700 H   0  0  0  0  0  0  0  0  0  0  0  0
    1.4678  -22.4607    4.0700 H   0  0  0  0  0  0  0  0  0  0  0  0
    4.2850  -22.2490    2.3320 H   0  0  0  0  0  0  0  0  0  0  0  0
    4.2251  -19.4996    2.6570 H   0  0  0  0  0  0  0  0  0  0  0  0
    4.8440  -20.3708    1.2617 H   0  0  0  0  0  0  0  0  0  0  0  0
    2.0083  -19.3238    1.7871 H   0  0  0  0  0  0  0  0  0  0  0  0
    2.9518  -19.1306    0.3202 H   0  0  0  0  0  0  0  0  0  0  0  0
    1.0980  -21.0371    0.3582 H   0  0  0  0  0  0  0  0  0  0  0  0
    2.6713  -21.5105   -0.2751 H   0  0  0  0  0  0  0  0  0  0  0  0
    1.3882  -22.1621    2.3957 H   0  0  0  0  0  0  0  0  0  0  0  0
    0.0768  -23.4466    2.1722 H   0  0  0  0  0  0  0  0  0  0  0  0
   -0.2469  -23.7260    0.4071 H   0  0  0  0  0  0  0  0  0  0  0  0
   -0.2587  -25.8175    2.6199 H   0  0  0  0  0  0  0  0  0  0  0  0
   -1.6865  -25.1348    1.7193 H   0  0  0  0  0  0  0  0  0  0  0  0
   -0.4246  -27.4444    1.1535 H   0  0  0  0  0  0  0  0  0  0  0  0
   -2.3346  -24.5570   -0.3198 H   0  0  0  0  0  0  0  0  0  0  0  0
   -4.8610  -27.9689   -2.9252 H   0  0  0  0  0  0  0  0  0  0  0  0
   -2.1560  -31.9390   -2.1700 H   0  0  0  0  0  0  0  0  0  0  0  0
    0.0086  -31.8087   -0.6880 H   0  0  0  0  0  0  0  0  0  0  0  0
    0.2052  -29.2600    0.1591 H   0  0  0  0  0  0  0  0  0  0  0  0
    1.1076  -27.3431   -0.6152 H   0  0  0  0  0  0  0  0  0  0  0  0
    0.5945  -25.6709   -1.0823 H   0  0  0  0  0  0  0  0  0  0  0  0
    2.1297  -26.4348    1.4367 H   0  0  0  0  0  0  0  0  0  0  0  0
    2.8120  -25.6646   -0.0575 H   0  0  0  0  0  0  0  0  0  0  0  0
  1  2  1  0
  2  3  1  0
  2  4  1  0
  4  5  1  0
  5  6  1  0
  6  7  1  0
  7  8  1  0
  8  9  1  0
  9 10  2  0
  9 11  1  0
 11 12  1  0
 12 13  1  0
 13 14  1  0
 14 15  1  0
 15 16  1  0
 16 17  2  0
 17 18  1  0
 18 19  2  0
 19 20  1  0
 20 21  2  0
 21 22  1  0
 22 23  1  0
 23 24  2  0
 24 25  1  0
 25 26  2  0
 14 27  1  0
 27 28  1  0
  8  4  1  0
 28 11  1  0
 26 15  1  0
 26 18  1  0
 25 21  1  0
  1 29  1  0
  1 30  1  0
  1 31  1  0
  2 32  1  0
  3 33  1  0
  3 34  1  0
  3 35  1  0
  4 36  1  1
  5 37  1  0
  5 38  1  0
  6 39  1  0
  6 40  1  0
  7 41  1  0
  7 42  1  0
  8 43  1  1
 12 44  1  0
 12 45  1  0
 13 46  1  0
 13 47  1  0
 14 48  1  0
 16 49  1  0
 19 50  1  0
 22 51  1  0
 23 52  1  0
 24 53  1  0
 27 54  1  0
 27 55  1  0
 28 56  1  0
 28 57  1  0
M  CHG  1   4   1
M  END
>  <meeko>  (7) 
{"is_sidechain": [false], "free_energy": -8.823, "intermolecular_energy": -9.436, "internal_energy": -0.996}

$$$$
4e5w_ligand
     RDKit          3D

 57 61  0  0  0  0  0  0  0  0999 V2000
    2.5060  -19.0740    4.8770 C   0  0  0  0  0  0  0  0  0  0  0  0
    2.3720  -20.4070    4.1480 C   0  0  0  0  0  0  0  0  0  0  0  0
    3.4340  -21.4090    4.5950 C   0  0  0  0  0  0  0  0  0  0  0  0
    2.4450  -20.2410    2.6470 N   0  0  2  0  0  0  0  0  0  0  0  0
    2.4890  -18.8510    2.0690 C   0  0  0  0  0  0  0  0  0  0  0  0
    1.1810  -18.7260    1.3170 C   0  0  0  0  0  0  0  0  0  0  0  0
    0.9730  -20.1100    0.7310 C   0  0  0  0  0  0  0  0  0  0  0  0
    1.3890  -21.0620    1.8450 C   0  0  1  0  0  0  0  0  0  0  0  0
    2.0600  -22.3460    1.3180 C   0  0  0  0  0  0  0  0  0  0  0  0
    3.2790  -22.2910    1.1080 O   0  0  0  0  0  0  0  0  0  0  0  0
    1.3060  -23.4810    1.0900 N   0  0  0  0  0  0  0  0  0  0  0  0
   -0.1120  -23.6260    1.4280 C   0  0  0  0  0  0  0  0  0  0  0  0
   -0.4810  -25.0700    1.7540 C   0  0  0  0  0  0  0  0  0  0  0  0
   -0.1210  -26.0500    0.6150 C   0  0  0  0  0  0  0  0  0  0  0  0
   -1.2600  -26.4850   -0.1890 N   0  0  0  0  0  0  0  0  0  0  0  0
   -2.2590  -25.6520   -0.6500 C   0  0  0  0  0  0  0  0  0  0  0  0
   -3.1810  -26.2980   -1.3300 N   0  0  0  0  0  0  0  0  0  0  0  0
   -2.7600  -27.6030   -1.3480 C   0  0  0  0  0  0  0  0  0  0  0  0
   -3.3120  -28.7610   -1.9260 C   0  0  0  0  0  0  0  0  0  0  0  0
   -2.7100  -29.9880   -1.8440 N   0  0  0  0  0  0  0  0  0  0  0  0
   -1.5450  -30.0050   -1.1760 C   0  0  0  0  0  0  0  0  0  0  0  0
   -0.7320  -31.0820   -0.9570 N   0  0  0  0  0  0  0  0  0  0  0  0
    0.3800  -30.6800   -0.2440 C   0  0  0  0  0  0  0  0  0  0  0  0
    0.2820  -29.3210    0.0070 C   0  0  0  0  0  0  0  0  0  0  0  0
   -0.9410  -28.9210   -0.5800 C   0  0  0  0  0  0  0  0  0  0  0  0
   -1.5630  -27.7120   -0.6590 C   0  0  0  0  0  0  0  0  0  0  0  0
    0.9970  -25.5120   -0.2900 C   0  0  0  0  0  0  0  0  0  0  0  0
    1.9710  -24.6430    0.4910 C   0  0  0  0  0  0  0  0  0  0  0  0
    2.4886  -19.2468    5.9632 H   0  0  0  0  0  0  0  0  0  0  0  0
    3.4566  -18.5968    4.5968 H   0  0  0  0  0  0  0  0  0  0  0  0
    1.6694  -18.4171    4.5968 H   0  0  0  0  0  0  0  0  0  0  0  0
    1.3787  -20.7982    4.4132 H   0  0  0  0  0  0  0  0  0  0  0  0
    3.4682  -21.4413    5.6940 H   0  0  0  0  0  0  0  0  0  0  0  0
    3.1831  -22.4071    4.2065 H   0  0  0  0  0  0  0  0  0  0  0  0
    4.4158  -21.1005    4.2065 H   0  0  0  0  0  0  0  0  0  0  0  0
    3.3330  -20.7090    2.3740 H   0  0  0  0  0  0  0  0  0  0  0  0
    2.5546  -18.0973    2.8675 H   0  0  0  0  0  0  0  0  0  0  0  0
    3.3654  -18.6878    1.4245 H   0  0  0  0  0  0  0  0  0  0  0  0
    0.3597  -18.4607    1.9989 H   0  0  0  0  0  0  0  0  0  0  0  0
    1.2017  -17.9363    0.5515 H   0  0  0  0  0  0  0  0  0  0  0  0
   -0.0825  -20.2638    0.4620 H   0  0  0  0  0  0  0  0  0  0  0  0
    1.5529  -20.2656   -0.1907 H   0  0  0  0  0  0  0  0  0  0  0  0
    0.5160  -21.3933    2.4264 H   0  0  0  0  0  0  0  0  0  0  0  0
   -0.3339  -22.9973    2.3029 H   0  0  0  0  0  0  0  0  0  0  0  0
   -0.7017  -23.3157    0.5528 H   0  0  0  0  0  0  0  0  0  0  0  0
    0.0582  -25.3741    2.6633 H   0  0  0  0  0  0  0  0  0  0  0  0
   -1.5713  -25.1104    1.8944 H   0  0  0  0  0  0  0  0  0  0  0  0
    0.2496  -26.9434    1.1388 H   0  0  0  0  0  0  0  0  0  0  0  0
   -2.2817  -24.5673   -0.4687 H   0  0  0  0  0  0  0  0  0  0  0  0
   -4.2666  -28.6771   -2.4661 H   0  0  0  0  0  0  0  0  0  0  0  0
   -0.9340  -32.0160   -1.2850 H   0  0  0  0  0  0  0  0  0  0  0  0
    1.2077  -31.3317    0.0727 H   0  0  0  0  0  0  0  0  0  0  0  0
    1.0016  -28.6883    0.5473 H   0  0  0  0  0  0  0  0  0  0  0  0
    1.5444  -26.3606   -0.7261 H   0  0  0  0  0  0  0  0  0  0  0  0
    0.5391  -24.8971   -1.0788 H   0  0  0  0  0  0  0  0  0  0  0  0
    2.4229  -25.2465    1.2920 H   0  0  0  0  0  0  0  0  0  0  0  0
    2.7369  -24.2755   -0.2079 H   0  0  0  0  0  0  0  0  0  0  0  0
  1  2  1  0
  2  3  1  0
  2  4  1  0
  4  5  1  0
  5  6  1  0
  6  7  1  0
  7  8  1  0
  8  9  1  0
  9 10  2  0
  9 11  1  0
 11 12  1  0
 12 13  1  0
 13 14  1  0
 14 15  1  0
 15 16  1  0
 16 17  2  0
 17 18  1  0
 18 19  2  0
 19 20  1  0
 20 21  2  0
 21 22  1  0
 22 23  1  0
 23 24  2  0
 24 25  1  0
 25 26  2  0
 14 27  1  0
 27 28  1  0
  8  4  1  0
 28 11  1  0
 26 15  1  0
 26 18  1  0
 25 21  1  0
  1 29  1  0
  1 30  1  0
  1 31  1  0
  2 32  1  0
  3 33  1  0
  3 34  1  0
  3 35  1  0
  4 36  1  6
  5 37  1  0
  5 38  1  0
  6 39  1  0
  6 40  1  0
  7 41  1  0
  7 42  1  0
  8 43  1  1
 12 44  1  0
 12 45  1  0
 13 46  1  0
 13 47  1  0
 14 48  1  0
 16 49  1  0
 19 50  1  0
 22 51  1  0
 23 52  1  0
 24 53  1  0
 27 54  1  0
 27 55  1  0
 28 56  1  0
 28 57  1  0
M  CHG  1   4   1
M  END
>  <meeko>  (8) 
{"is_sidechain": [false], "free_energy": -8.786, "intermolecular_energy": -9.433, "internal_energy": -0.955}

$$$$
4e5w_ligand
     RDKit          3D

 57 61  0  0  0  0  0  0  0  0999 V2000
    1.7730  -23.1420    0.4020 C   0  0  0  0  0  0  0  0  0  0  0  0
    1.6960  -24.4290    1.2170 C   0  0  0  0  0  0  0  0  0  0  0  0
    2.7470  -25.4450    0.7760 C   0  0  0  0  0  0  0  0  0  0  0  0
    0.3270  -25.0650    1.1430 N   0  0  2  0  0  0  0  0  0  0  0  0
    0.1960  -26.4460    0.5570 C   0  0  0  0  0  0  0  0  0  0  0  0
   -0.6040  -26.2320   -0.7090 C   0  0  0  0  0  0  0  0  0  0  0  0
   -1.5930  -25.1470   -0.3280 C   0  0  0  0  0  0  0  0  0  0  0  0
   -0.7790  -24.1670    0.5080 C   0  0  1  0  0  0  0  0  0  0  0  0
   -1.6000  -23.5200    1.6410 C   0  0  0  0  0  0  0  0  0  0  0  0
   -1.7840  -24.2050    2.6560 O   0  0  0  0  0  0  0  0  0  0  0  0
   -2.1010  -22.2400    1.4940 N   0  0  0  0  0  0  0  0  0  0  0  0
   -1.8150  -21.3550    0.3620 C   0  0  0  0  0  0  0  0  0  0  0  0
   -1.8520  -19.8820    0.7610 C   0  0  0  0  0  0  0  0  0  0  0  0
   -3.1930  -19.4730    1.4090 C   0  0  0  0  0  0  0  0  0  0  0  0
   -4.0850  -18.7230    0.5290 N   0  0  0  0  0  0  0  0  0  0  0  0
   -5.3300  -19.1550    0.1200 C   0  0  0  0  0  0  0  0  0  0  0  0
   -5.9190  -18.3030   -0.6910 N   0  0  0  0  0  0  0  0  0  0  0  0
   -5.0440  -17.2520   -0.7990 C   0  0  0  0  0  0  0  0  0  0  0  0
   -5.1130  -16.0410   -1.5100 C   0  0  0  0  0  0  0  0  0  0  0  0
   -4.1210  -15.0990   -1.4660 N   0  0  0  0  0  0  0  0  0  0  0  0
   -3.0750  -15.4130   -0.6830 C   0  0  0  0  0  0  0  0  0  0  0  0
   -1.9620  -14.6560   -0.4450 N   0  0  0  0  0  0  0  0  0  0  0  0
   -1.1310  -15.3240    0.4300 C   0  0  0  0  0  0  0  0  0  0  0  0
   -1.7120  -16.5370    0.7600 C   0  0  0  0  0  0  0  0  0  0  0  0
   -2.9300  -16.5750    0.0410 C   0  0  0  0  0  0  0  0  0  0  0  0
   -3.9210  -17.5070   -0.0290 C   0  0  0  0  0  0  0  0  0  0  0  0
   -3.9340  -20.6670    2.0280 C   0  0  0  0  0  0  0  0  0  0  0  0
   -2.9600  -21.7090    2.5560 C   0  0  0  0  0  0  0  0  0  0  0  0
    1.8246  -22.2795    1.0827 H   0  0  0  0  0  0  0  0  0  0  0  0
    2.6715  -23.1628   -0.2322 H   0  0  0  0  0  0  0  0  0  0  0  0
    0.8784  -23.0556   -0.2322 H   0  0  0  0  0  0  0  0  0  0  0  0
    1.8956  -24.1392    2.2592 H   0  0  0  0  0  0  0  0  0  0  0  0
    3.2147  -25.8972    1.6630 H   0  0  0  0  0  0  0  0  0  0  0  0
    2.2675  -26.2306    0.1737 H   0  0  0  0  0  0  0  0  0  0  0  0
    3.5160  -24.9391    0.1737 H   0  0  0  0  0  0  0  0  0  0  0  0
    0.0120  -25.1260    2.1320 H   0  0  0  0  0  0  0  0  0  0  0  0
    1.1852  -26.8689    0.3276 H   0  0  0  0  0  0  0  0  0  0  0  0
   -0.2850  -27.1548    1.2470 H   0  0  0  0  0  0  0  0  0  0  0  0
    0.0454  -25.8997   -1.5323 H   0  0  0  0  0  0  0  0  0  0  0  0
   -1.0938  -27.1504   -1.0650 H   0  0  0  0  0  0  0  0  0  0  0  0
   -1.9938  -24.6533   -1.2256 H   0  0  0  0  0  0  0  0  0  0  0  0
   -2.4605  -25.5445    0.2193 H   0  0  0  0  0  0  0  0  0  0  0  0
   -0.4070  -23.3359   -0.1092 H   0  0  0  0  0  0  0  0  0  0  0  0
   -0.8145  -21.5915   -0.0291 H   0  0  0  0  0  0  0  0  0  0  0  0
   -2.5907  -21.5190   -0.4005 H   0  0  0  0  0  0  0  0  0  0  0  0
   -1.0414  -19.6918    1.4798 H   0  0  0  0  0  0  0  0  0  0  0  0
   -1.7310  -19.2865   -0.1559 H   0  0  0  0  0  0  0  0  0  0  0  0
   -2.8998  -18.7844    2.2151 H   0  0  0  0  0  0  0  0  0  0  0  0
   -5.7805  -20.1071    0.4372 H   0  0  0  0  0  0  0  0  0  0  0  0
   -6.0014  -15.8423   -2.1275 H   0  0  0  0  0  0  0  0  0  0  0  0
   -1.8020  -13.7450   -0.8550 H   0  0  0  0  0  0  0  0  0  0  0  0
   -0.1651  -14.9539    0.8043 H   0  0  0  0  0  0  0  0  0  0  0  0
   -1.3120  -17.3066    1.4366 H   0  0  0  0  0  0  0  0  0  0  0  0
   -4.5602  -20.3086    2.8584 H   0  0  0  0  0  0  0  0  0  0  0  0
   -4.5524  -21.1341    1.2474 H   0  0  0  0  0  0  0  0  0  0  0  0
   -2.3272  -21.2460    3.3274 H   0  0  0  0  0  0  0  0  0  0  0  0
   -3.5444  -22.5431    2.9716 H   0  0  0  0  0  0  0  0  0  0  0  0
  1  2  1  0
  2  3  1  0
  2  4  1  0
  4  5  1  0
  5  6  1  0
  6  7  1  0
  7  8  1  0
  8  9  1  0
  9 10  2  0
  9 11  1  0
 11 12  1  0
 12 13  1  0
 13 14  1  0
 14 15  1  0
 15 16  1  0
 16 17  2  0
 17 18  1  0
 18 19  2  0
 19 20  1  0
 20 21  2  0
 21 22  1  0
 22 23  1  0
 23 24  2  0
 24 25  1  0
 25 26  2  0
 14 27  1  0
 27 28  1  0
  8  4  1  0
 28 11  1  0
 26 15  1  0
 26 18  1  0
 25 21  1  0
  1 29  1  0
  1 30  1  0
  1 31  1  0
  2 32  1  0
  3 33  1  0
  3 34  1  0
  3 35  1  0
  4 36  1  1
  5 37  1  0
  5 38  1  0
  6 39  1  0
  6 40  1  0
  7 41  1  0
  7 42  1  0
  8 43  1  6
 12 44  1  0
 12 45  1  0
 13 46  1  0
 13 47  1  0
 14 48  1  0
 16 49  1  0
 19 50  1  0
 22 51  1  0
 23 52  1  0
 24 53  1  0
 27 54  1  0
 27 55  1  0
 28 56  1  0
 28 57  1  0
M  CHG  1   4   1
M  END
>  <meeko>  (9) 
{"is_sidechain": [false], "free_energy": -8.753, "intermolecular_energy": -9.503, "internal_energy": -0.848}

$$$$
