
     RDKit          3D

 22 23  0  0  0  0  0  0  0  0999 V2000
  -19.1370  -25.5040   -2.8330 C   0  0  0  0  0  0  0  0  0  0  0  0
  -18.4130  -24.6130   -2.0280 O   0  0  0  0  0  0  0  0  0  0  0  0
  -17.3990  -23.8480   -2.6210 C   0  0  0  0  0  0  0  0  0  0  0  0
  -17.4450  -23.5220   -3.9710 C   0  0  0  0  0  0  0  0  0  0  0  0
  -16.4180  -22.7610   -4.5230 C   0  0  0  0  0  0  0  0  0  0  0  0
  -15.3590  -22.3280   -3.7420 C   0  0  0  0  0  0  0  0  0  0  0  0
  -14.2420  -21.5580   -4.3850 C   0  0  0  0  0  0  0  0  0  0  0  0
  -14.2800  -20.0130   -4.1410 C   0  0  1  0  0  0  0  0  0  0  0  0
  -13.7130  -19.6440   -2.7780 C   0  0  0  0  0  0  0  0  0  0  0  0
  -13.5970  -20.4580   -1.8560 O   0  0  0  0  0  0  0  0  0  0  0  0
  -13.3770  -18.2110   -2.4910 C   0  0  1  0  0  0  0  0  0  0  0  0
  -12.5930  -18.0650   -1.2980 O   0  0  0  0  0  0  0  0  0  0  0  0
  -12.6170  -17.5570   -3.6530 C   0  0  2  0  0  0  0  0  0  0  0  0
  -12.5600  -16.1600   -3.4330 O   0  0  0  0  0  0  0  0  0  0  0  0
  -13.2480  -17.8210   -5.0020 C   0  0  0  0  0  0  0  0  0  0  0  0
  -13.4550  -19.3310   -5.2610 C   0  0  1  0  0  0  0  0  0  0  0  0
  -12.1570  -19.9190   -5.3570 O   0  0  0  0  0  0  0  0  0  0  0  0
  -14.1490  -19.5210   -6.6080 C   0  0  0  0  0  0  0  0  0  0  0  0
  -15.1700  -18.9220   -6.8280 O   0  0  0  0  0  0  0  0  0  0  0  0
  -13.6540  -20.3340   -7.4020 O   0  0  0  0  0  0  0  0  0  0  0  0
  -15.3210  -22.6660   -2.3970 C   0  0  0  0  0  0  0  0  0  0  0  0
  -16.3430  -23.4190   -1.8370 C   0  0  0  0  0  0  0  0  0  0  0  0
  2  1  1  0
  3  2  1  0
  4  3  2  0
  5  4  1  0
  6  5  2  0
  7  6  1  0
  8  7  1  6
  9  8  1  0
 10  9  2  0
 11  9  1  0
 11 12  1  1
 13 11  1  0
 13 14  1  1
 15 13  1  0
 16 15  1  0
 16  8  1  0
 16 17  1  6
 18 16  1  0
 19 18  2  0
 20 18  1  0
 21  6  1  0
 22  3  1  0
 22 21  2  0
M  CHG  1  20  -1
M  END
$$$$
