1bcu_ligand
     RDKit          3D

 28 30  0  0  0  0  0  0  0  0999 V2000
   -3.2410   -8.1270    4.9510 N   0  0  0  0  0  0  0  0  0  0  0  0
   -4.5610   -8.3830    5.3210 C   0  0  0  0  0  0  0  0  0  0  0  0
   -4.8870   -9.5720    5.9780 C   0  0  0  0  0  0  0  0  0  0  0  0
   -6.1760   -9.7950    6.4730 C   0  0  0  0  0  0  0  0  0  0  0  0
   -7.1540   -8.8000    6.3590 C   0  0  0  0  0  0  0  0  0  0  0  0
   -8.4550   -8.9750    6.8430 C   0  0  0  0  0  0  0  0  0  0  0  0
   -9.3930   -7.9430    6.7250 C   0  0  0  0  0  0  0  0  0  0  0  0
  -10.7120   -8.0760    7.1740 C   0  0  0  0  0  0  0  0  0  0  0  0
  -11.6130   -7.0170    7.0290 C   0  0  0  0  0  0  0  0  0  0  0  0
  -11.2110   -5.7950    6.4840 C   0  0  0  0  0  0  0  0  0  0  0  0
  -12.1530   -4.8000    6.2290 N   0  0  0  0  0  0  0  0  0  0  0  0
   -9.9110   -5.6750    5.9900 C   0  0  0  0  0  0  0  0  0  0  0  0
   -8.9990   -6.7300    6.1200 C   0  0  0  0  0  0  0  0  0  0  0  0
   -7.7410   -6.6070    5.6620 N   0  0  0  0  0  0  0  0  0  0  0  0
   -6.8120   -7.5760    5.7480 C   0  0  0  0  0  0  0  0  0  0  0  0
   -5.5200   -7.3700    5.2480 C   0  0  0  0  0  0  0  0  0  0  0  0
   -2.8530   -8.7650    4.2590 H   0  0  0  0  0  0  0  0  0  0  0  0
   -3.0010   -7.1620    4.7440 H   0  0  0  0  0  0  0  0  0  0  0  0
   -4.1166  -10.3463    6.1083 H   0  0  0  0  0  0  0  0  0  0  0  0
   -6.4216  -10.7539    6.9527 H   0  0  0  0  0  0  0  0  0  0  0  0
   -8.7412   -9.9254    7.3171 H   0  0  0  0  0  0  0  0  0  0  0  0
  -11.0403   -9.0158    7.6420 H   0  0  0  0  0  0  0  0  0  0  0  0
  -12.6570   -7.1482    7.3497 H   0  0  0  0  0  0  0  0  0  0  0  0
  -12.1750   -4.0390    6.9060 H   0  0  0  0  0  0  0  0  0  0  0  0
  -12.2060   -4.4510    5.2770 H   0  0  0  0  0  0  0  0  0  0  0  0
   -9.6001   -4.7436    5.4942 H   0  0  0  0  0  0  0  0  0  0  0  0
   -7.4760   -5.7290    5.2230 H   0  0  0  0  0  0  0  0  0  0  0  0
   -5.2584   -6.4027    4.7942 H   0  0  0  0  0  0  0  0  0  0  0  0
  1  2  1  0
  2  3  2  0
  3  4  1  0
  4  5  2  0
  5  6  1  0
  6  7  2  0
  7  8  1  0
  8  9  2  0
  9 10  1  0
 10 11  1  0
 10 12  2  0
 12 13  1  0
 13 14  2  0
 14 15  1  0
 15 16  2  0
 16  2  1  0
 15  5  1  0
 13  7  1  0
  1 17  1  0
  1 18  1  0
  3 19  1  0
  4 20  1  0
  6 21  1  0
  8 22  1  0
  9 23  1  0
 11 24  1  0
 11 25  1  0
 12 26  1  0
 14 27  1  0
 16 28  1  0
M  CHG  1  14   1
M  END
>  <meeko>  (1) 
{"is_sidechain": [false], "free_energy": -7.162, "intermolecular_energy": -7.58, "internal_energy": 0.0}

$$$$
1bcu_ligand
     RDKit          3D

 28 30  0  0  0  0  0  0  0  0999 V2000
  -12.1700   -4.8110    6.1880 N   0  0  0  0  0  0  0  0  0  0  0  0
  -11.2300   -5.8060    6.4580 C   0  0  0  0  0  0  0  0  0  0  0  0
  -11.6360   -7.0210    7.0140 C   0  0  0  0  0  0  0  0  0  0  0  0
  -10.7370   -8.0800    7.1730 C   0  0  0  0  0  0  0  0  0  0  0  0
   -9.4160   -7.9530    6.7290 C   0  0  0  0  0  0  0  0  0  0  0  0
   -8.4810   -8.9860    6.8630 C   0  0  0  0  0  0  0  0  0  0  0  0
   -7.1770   -8.8180    6.3830 C   0  0  0  0  0  0  0  0  0  0  0  0
   -6.2000   -9.8120    6.5120 C   0  0  0  0  0  0  0  0  0  0  0  0
   -4.9090   -9.5960    6.0210 C   0  0  0  0  0  0  0  0  0  0  0  0
   -4.5780   -8.4150    5.3520 C   0  0  0  0  0  0  0  0  0  0  0  0
   -3.2570   -8.1640    4.9870 N   0  0  0  0  0  0  0  0  0  0  0  0
   -5.5350   -7.4010    5.2660 C   0  0  0  0  0  0  0  0  0  0  0  0
   -6.8300   -7.6000    5.7620 C   0  0  0  0  0  0  0  0  0  0  0  0
   -7.7570   -6.6310    5.6610 N   0  0  0  0  0  0  0  0  0  0  0  0
   -9.0180   -6.7470    6.1140 C   0  0  0  0  0  0  0  0  0  0  0  0
   -9.9270   -5.6910    5.9700 C   0  0  0  0  0  0  0  0  0  0  0  0
  -13.0950   -4.9700    6.5820 H   0  0  0  0  0  0  0  0  0  0  0  0
  -11.8700   -3.8490    6.3160 H   0  0  0  0  0  0  0  0  0  0  0  0
  -12.6813   -7.1471    7.3324 H   0  0  0  0  0  0  0  0  0  0  0  0
  -11.0688   -9.0150    7.6481 H   0  0  0  0  0  0  0  0  0  0  0  0
   -8.7713   -9.9307    7.3460 H   0  0  0  0  0  0  0  0  0  0  0  0
   -6.4486  -10.7655    7.0009 H   0  0  0  0  0  0  0  0  0  0  0  0
   -4.1402  -10.3696    6.1639 H   0  0  0  0  0  0  0  0  0  0  0  0
   -2.9790   -8.5380    4.0810 H   0  0  0  0  0  0  0  0  0  0  0  0
   -2.9160   -7.2170    5.1180 H   0  0  0  0  0  0  0  0  0  0  0  0
   -5.2695   -6.4382    4.8050 H   0  0  0  0  0  0  0  0  0  0  0  0
   -7.4880   -5.7570    5.2140 H   0  0  0  0  0  0  0  0  0  0  0  0
   -9.6118   -4.7640    5.4686 H   0  0  0  0  0  0  0  0  0  0  0  0
  1  2  1  0
  2  3  2  0
  3  4  1  0
  4  5  2  0
  5  6  1  0
  6  7  2  0
  7  8  1  0
  8  9  2  0
  9 10  1  0
 10 11  1  0
 10 12  2  0
 12 13  1  0
 13 14  2  0
 14 15  1  0
 15 16  2  0
 16  2  1  0
 15  5  1  0
 13  7  1  0
  1 17  1  0
  1 18  1  0
  3 19  1  0
  4 20  1  0
  6 21  1  0
  8 22  1  0
  9 23  1  0
 11 24  1  0
 11 25  1  0
 12 26  1  0
 14 27  1  0
 16 28  1  0
M  CHG  1  14   1
M  END
>  <meeko>  (2) 
{"is_sidechain": [false], "free_energy": -7.149, "intermolecular_energy": -7.567, "internal_energy": 0.0}

$$$$
1bcu_ligand
     RDKit          3D

 28 30  0  0  0  0  0  0  0  0999 V2000
   -3.8380  -10.7160    5.7770 N   0  0  0  0  0  0  0  0  0  0  0  0
   -4.7660   -9.6890    5.9370 C   0  0  0  0  0  0  0  0  0  0  0  0
   -4.3860   -8.3610    5.7260 C   0  0  0  0  0  0  0  0  0  0  0  0
   -5.3270   -7.3260    5.7520 C   0  0  0  0  0  0  0  0  0  0  0  0
   -6.6830   -7.6140    5.9450 C   0  0  0  0  0  0  0  0  0  0  0  0
   -7.6610   -6.6140    5.9750 C   0  0  0  0  0  0  0  0  0  0  0  0
   -9.0070   -6.9540    6.1500 C   0  0  0  0  0  0  0  0  0  0  0  0
  -10.0200   -5.9900    6.2080 C   0  0  0  0  0  0  0  0  0  0  0  0
  -11.3510   -6.3790    6.3880 C   0  0  0  0  0  0  0  0  0  0  0  0
  -11.7060   -7.7280    6.4640 C   0  0  0  0  0  0  0  0  0  0  0  0
  -13.0150   -8.0900    6.7740 N   0  0  0  0  0  0  0  0  0  0  0  0
  -10.6940   -8.6900    6.4560 C   0  0  0  0  0  0  0  0  0  0  0  0
   -9.3550   -8.3150    6.2860 C   0  0  0  0  0  0  0  0  0  0  0  0
   -8.3830   -9.2430    6.2590 N   0  0  0  0  0  0  0  0  0  0  0  0
   -7.0780   -8.9600    6.1010 C   0  0  0  0  0  0  0  0  0  0  0  0
   -6.1240   -9.9850    6.0820 C   0  0  0  0  0  0  0  0  0  0  0  0
   -4.1440  -11.6320    6.1010 H   0  0  0  0  0  0  0  0  0  0  0  0
   -3.3690  -10.7760    4.8790 H   0  0  0  0  0  0  0  0  0  0  0  0
   -3.3285   -8.1252    5.5361 H   0  0  0  0  0  0  0  0  0  0  0  0
   -5.0005   -6.2838    5.6205 H   0  0  0  0  0  0  0  0  0  0  0  0
   -7.3714   -5.5590    5.8609 H   0  0  0  0  0  0  0  0  0  0  0  0
   -9.7684   -4.9235    6.1117 H   0  0  0  0  0  0  0  0  0  0  0  0
  -12.1323   -5.6092    6.4712 H   0  0  0  0  0  0  0  0  0  0  0  0
  -13.2610   -8.0260    7.7610 H   0  0  0  0  0  0  0  0  0  0  0  0
  -13.7490   -7.7130    6.1830 H   0  0  0  0  0  0  0  0  0  0  0  0
  -10.9505   -9.7519    6.5843 H   0  0  0  0  0  0  0  0  0  0  0  0
   -8.6510  -10.2190    6.3630 H   0  0  0  0  0  0  0  0  0  0  0  0
   -6.4463  -11.0319    6.1821 H   0  0  0  0  0  0  0  0  0  0  0  0
  1  2  1  0
  2  3  2  0
  3  4  1  0
  4  5  2  0
  5  6  1  0
  6  7  2  0
  7  8  1  0
  8  9  2  0
  9 10  1  0
 10 11  1  0
 10 12  2  0
 12 13  1  0
 13 14  2  0
 14 15  1  0
 15 16  2  0
 16  2  1  0
 15  5  1  0
 13  7  1  0
  1 17  1  0
  1 18  1  0
  3 19  1  0
  4 20  1  0
  6 21  1  0
  8 22  1  0
  9 23  1  0
 11 24  1  0
 11 25  1  0
 12 26  1  0
 14 27  1  0
 16 28  1  0
M  CHG  1  14   1
M  END
>  <meeko>  (3) 
{"is_sidechain": [false], "free_energy": -6.85, "intermolecular_energy": -7.25, "internal_energy": 0.0}

$$$$
1bcu_ligand
     RDKit          3D

 28 30  0  0  0  0  0  0  0  0999 V2000
  -13.0020   -8.0200    6.8590 N   0  0  0  0  0  0  0  0  0  0  0  0
  -11.6880   -7.6690    6.5490 C   0  0  0  0  0  0  0  0  0  0  0  0
  -11.3160   -6.3240    6.4960 C   0  0  0  0  0  0  0  0  0  0  0  0
   -9.9810   -5.9490    6.3160 C   0  0  0  0  0  0  0  0  0  0  0  0
   -8.9820   -6.9260    6.2350 C   0  0  0  0  0  0  0  0  0  0  0  0
   -7.6320   -6.6000    6.0610 C   0  0  0  0  0  0  0  0  0  0  0  0
   -6.6670   -7.6120    6.0070 C   0  0  0  0  0  0  0  0  0  0  0  0
   -5.3080   -7.3400    5.8130 C   0  0  0  0  0  0  0  0  0  0  0  0
   -4.3820   -8.3860    5.7630 C   0  0  0  0  0  0  0  0  0  0  0  0
   -4.7780   -9.7120    5.9530 C   0  0  0  0  0  0  0  0  0  0  0  0
   -3.8650  -10.7480    5.7690 N   0  0  0  0  0  0  0  0  0  0  0  0
   -6.1390   -9.9930    6.0970 C   0  0  0  0  0  0  0  0  0  0  0  0
   -7.0790   -8.9550    6.1400 C   0  0  0  0  0  0  0  0  0  0  0  0
   -8.3870   -9.2240    6.2990 N   0  0  0  0  0  0  0  0  0  0  0  0
   -9.3470   -8.2840    6.3480 C   0  0  0  0  0  0  0  0  0  0  0  0
  -10.6900   -8.6450    6.5180 C   0  0  0  0  0  0  0  0  0  0  0  0
  -13.6710   -7.2530    6.8420 H   0  0  0  0  0  0  0  0  0  0  0  0
  -13.3750   -8.8490    6.4060 H   0  0  0  0  0  0  0  0  0  0  0  0
  -12.0868   -5.5458    6.5976 H   0  0  0  0  0  0  0  0  0  0  0  0
   -9.7155   -4.8844    6.2379 H   0  0  0  0  0  0  0  0  0  0  0  0
   -7.3291   -5.5467    5.9666 H   0  0  0  0  0  0  0  0  0  0  0  0
   -4.9675   -6.3002    5.6995 H   0  0  0  0  0  0  0  0  0  0  0  0
   -3.3226   -8.1609    5.5706 H   0  0  0  0  0  0  0  0  0  0  0  0
   -2.8870  -10.4920    5.8960 H   0  0  0  0  0  0  0  0  0  0  0  0
   -4.0780  -11.6330    6.2170 H   0  0  0  0  0  0  0  0  0  0  0  0
   -6.4751  -11.0373    6.1772 H   0  0  0  0  0  0  0  0  0  0  0  0
   -8.6670  -10.1980    6.3880 H   0  0  0  0  0  0  0  0  0  0  0  0
  -10.9603   -9.7056    6.6279 H   0  0  0  0  0  0  0  0  0  0  0  0
  1  2  1  0
  2  3  2  0
  3  4  1  0
  4  5  2  0
  5  6  1  0
  6  7  2  0
  7  8  1  0
  8  9  2  0
  9 10  1  0
 10 11  1  0
 10 12  2  0
 12 13  1  0
 13 14  2  0
 14 15  1  0
 15 16  2  0
 16  2  1  0
 15  5  1  0
 13  7  1  0
  1 17  1  0
  1 18  1  0
  3 19  1  0
  4 20  1  0
  6 21  1  0
  8 22  1  0
  9 23  1  0
 11 24  1  0
 11 25  1  0
 12 26  1  0
 14 27  1  0
 16 28  1  0
M  CHG  1  14   1
M  END
>  <meeko>  (4) 
{"is_sidechain": [false], "free_energy": -6.825, "intermolecular_energy": -7.224, "internal_energy": 0.0}

$$$$
1bcu_ligand
     RDKit          3D

 28 30  0  0  0  0  0  0  0  0999 V2000
   -9.3820   -9.4960   10.5250 N   0  0  0  0  0  0  0  0  0  0  0  0
   -8.7990   -9.0000    9.3600 C   0  0  0  0  0  0  0  0  0  0  0  0
   -8.9740   -7.6610    9.0030 C   0  0  0  0  0  0  0  0  0  0  0  0
   -8.2960   -7.1090    7.9110 C   0  0  0  0  0  0  0  0  0  0  0  0
   -7.3850   -7.8840    7.1840 C   0  0  0  0  0  0  0  0  0  0  0  0
   -6.6800   -7.3750    6.0880 C   0  0  0  0  0  0  0  0  0  0  0  0
   -5.7640   -8.1830    5.4060 C   0  0  0  0  0  0  0  0  0  0  0  0
   -5.0500   -7.7280    4.2920 C   0  0  0  0  0  0  0  0  0  0  0  0
   -4.1480   -8.5750    3.6400 C   0  0  0  0  0  0  0  0  0  0  0  0
   -3.9030   -9.8680    4.1100 C   0  0  0  0  0  0  0  0  0  0  0  0
   -3.1030  -10.7390    3.3730 N   0  0  0  0  0  0  0  0  0  0  0  0
   -4.6500  -10.3430    5.1900 C   0  0  0  0  0  0  0  0  0  0  0  0
   -5.5630   -9.5080    5.8470 C   0  0  0  0  0  0  0  0  0  0  0  0
   -6.2670   -9.9600    6.8990 N   0  0  0  0  0  0  0  0  0  0  0  0
   -7.1620   -9.2200    7.5780 C   0  0  0  0  0  0  0  0  0  0  0  0
   -7.8560   -9.7630    8.6670 C   0  0  0  0  0  0  0  0  0  0  0  0
   -8.7310   -9.8890   11.2020 H   0  0  0  0  0  0  0  0  0  0  0  0
  -10.0790   -8.9100   10.9750 H   0  0  0  0  0  0  0  0  0  0  0  0
   -9.6567   -7.0297    9.5907 H   0  0  0  0  0  0  0  0  0  0  0  0
   -8.4793   -6.0633    7.6230 H   0  0  0  0  0  0  0  0  0  0  0  0
   -6.8462   -6.3377    5.7620 H   0  0  0  0  0  0  0  0  0  0  0  0
   -5.1986   -6.7007    3.9278 H   0  0  0  0  0  0  0  0  0  0  0  0
   -3.6226   -8.2174    2.7422 H   0  0  0  0  0  0  0  0  0  0  0  0
   -2.1730  -10.3900    3.1490 H   0  0  0  0  0  0  0  0  0  0  0  0
   -3.0730  -11.7060    3.6810 H   0  0  0  0  0  0  0  0  0  0  0  0
   -4.5204  -11.3818    5.5278 H   0  0  0  0  0  0  0  0  0  0  0  0
   -6.1140  -10.9200    7.2010 H   0  0  0  0  0  0  0  0  0  0  0  0
   -7.6568  -10.7988    8.9791 H   0  0  0  0  0  0  0  0  0  0  0  0
  1  2  1  0
  2  3  2  0
  3  4  1  0
  4  5  2  0
  5  6  1  0
  6  7  2  0
  7  8  1  0
  8  9  2  0
  9 10  1  0
 10 11  1  0
 10 12  2  0
 12 13  1  0
 13 14  2  0
 14 15  1  0
 15 16  2  0
 16  2  1  0
 15  5  1  0
 13  7  1  0
  1 17  1  0
  1 18  1  0
  3 19  1  0
  4 20  1  0
  6 21  1  0
  8 22  1  0
  9 23  1  0
 11 24  1  0
 11 25  1  0
 12 26  1  0
 14 27  1  0
 16 28  1  0
M  CHG  1  14   1
M  END
>  <meeko>  (5) 
{"is_sidechain": [false], "free_energy": -6.799, "intermolecular_energy": -7.197, "internal_energy": 0.0}

$$$$
1bcu_ligand
     RDKit          3D

 28 30  0  0  0  0  0  0  0  0999 V2000
   -3.1800  -10.7330    3.2820 N   0  0  0  0  0  0  0  0  0  0  0  0
   -3.9590   -9.8700    4.0520 C   0  0  0  0  0  0  0  0  0  0  0  0
   -4.1630   -8.5520    3.6380 C   0  0  0  0  0  0  0  0  0  0  0  0
   -5.0430   -7.7060    4.3220 C   0  0  0  0  0  0  0  0  0  0  0  0
   -5.7750   -8.1880    5.4130 C   0  0  0  0  0  0  0  0  0  0  0  0
   -6.6700   -7.3820    6.1250 C   0  0  0  0  0  0  0  0  0  0  0  0
   -7.3960   -7.9170    7.1960 C   0  0  0  0  0  0  0  0  0  0  0  0
   -8.2870   -7.1470    7.9530 C   0  0  0  0  0  0  0  0  0  0  0  0
   -8.9860   -7.7250    9.0170 C   0  0  0  0  0  0  0  0  0  0  0  0
   -8.8520   -9.0830    9.3170 C   0  0  0  0  0  0  0  0  0  0  0  0
   -9.4540   -9.6100   10.4580 N   0  0  0  0  0  0  0  0  0  0  0  0
   -7.9280   -9.8420    8.5970 C   0  0  0  0  0  0  0  0  0  0  0  0
   -7.2130   -9.2740    7.5340 C   0  0  0  0  0  0  0  0  0  0  0  0
   -6.3380  -10.0110    6.8280 N   0  0  0  0  0  0  0  0  0  0  0  0
   -5.6160   -9.5360    5.7980 C   0  0  0  0  0  0  0  0  0  0  0  0
   -4.7230  -10.3690    5.1100 C   0  0  0  0  0  0  0  0  0  0  0  0
   -2.3330  -10.3230    2.8950 H   0  0  0  0  0  0  0  0  0  0  0  0
   -3.0060  -11.6580    3.6640 H   0  0  0  0  0  0  0  0  0  0  0  0
   -3.6223   -8.1721    2.7586 H   0  0  0  0  0  0  0  0  0  0  0  0
   -5.1596   -6.6602    4.0016 H   0  0  0  0  0  0  0  0  0  0  0  0
   -6.8034   -6.3271    5.8431 H   0  0  0  0  0  0  0  0  0  0  0  0
   -8.4375   -6.0848    7.7101 H   0  0  0  0  0  0  0  0  0  0  0  0
   -9.6531   -7.0997    9.6286 H   0  0  0  0  0  0  0  0  0  0  0  0
   -8.9640   -9.4250   11.3320 H   0  0  0  0  0  0  0  0  0  0  0  0
  -10.4540   -9.4690   10.5570 H   0  0  0  0  0  0  0  0  0  0  0  0
   -7.7596  -10.8951    8.8663 H   0  0  0  0  0  0  0  0  0  0  0  0
   -6.2150  -10.9870    7.0880 H   0  0  0  0  0  0  0  0  0  0  0  0
   -4.6229  -11.4239    5.4054 H   0  0  0  0  0  0  0  0  0  0  0  0
  1  2  1  0
  2  3  2  0
  3  4  1  0
  4  5  2  0
  5  6  1  0
  6  7  2  0
  7  8  1  0
  8  9  2  0
  9 10  1  0
 10 11  1  0
 10 12  2  0
 12 13  1  0
 13 14  2  0
 14 15  1  0
 15 16  2  0
 16  2  1  0
 15  5  1  0
 13  7  1  0
  1 17  1  0
  1 18  1  0
  3 19  1  0
  4 20  1  0
  6 21  1  0
  8 22  1  0
  9 23  1  0
 11 24  1  0
 11 25  1  0
 12 26  1  0
 14 27  1  0
 16 28  1  0
M  CHG  1  14   1
M  END
>  <meeko>  (6) 
{"is_sidechain": [false], "free_energy": -6.791, "intermolecular_energy": -7.188, "internal_energy": 0.0}

$$$$
1bcu_ligand
     RDKit          3D

 28 30  0  0  0  0  0  0  0  0999 V2000
   -6.1370   -1.8020   10.9170 N   0  0  0  0  0  0  0  0  0  0  0  0
   -6.8740   -2.8010   10.2830 C   0  0  0  0  0  0  0  0  0  0  0  0
   -8.2340   -2.6140   10.0260 C   0  0  0  0  0  0  0  0  0  0  0  0
   -8.9640   -3.5430    9.2780 C   0  0  0  0  0  0  0  0  0  0  0  0
   -8.3250   -4.6610    8.7290 C   0  0  0  0  0  0  0  0  0  0  0  0
   -9.0120   -5.6150    7.9700 C   0  0  0  0  0  0  0  0  0  0  0  0
   -8.3240   -6.7040    7.4240 C   0  0  0  0  0  0  0  0  0  0  0  0
   -8.9690   -7.6960    6.6760 C   0  0  0  0  0  0  0  0  0  0  0  0
   -8.2390   -8.7680    6.1540 C   0  0  0  0  0  0  0  0  0  0  0  0
   -6.8550   -8.8500    6.3220 C   0  0  0  0  0  0  0  0  0  0  0  0
   -6.1660   -9.9890    5.9100 N   0  0  0  0  0  0  0  0  0  0  0  0
   -6.2150   -7.8900    7.1090 C   0  0  0  0  0  0  0  0  0  0  0  0
   -6.9350   -6.8150    7.6460 C   0  0  0  0  0  0  0  0  0  0  0  0
   -6.3160   -5.8800    8.3880 N   0  0  0  0  0  0  0  0  0  0  0  0
   -6.9390   -4.8220    8.9370 C   0  0  0  0  0  0  0  0  0  0  0  0
   -6.2230   -3.8890    9.6970 C   0  0  0  0  0  0  0  0  0  0  0  0
   -5.3830   -1.4010   10.3630 H   0  0  0  0  0  0  0  0  0  0  0  0
   -6.6630   -1.0840   11.4060 H   0  0  0  0  0  0  0  0  0  0  0  0
   -8.7400   -1.7199   10.4191 H   0  0  0  0  0  0  0  0  0  0  0  0
  -10.0426   -3.3950    9.1207 H   0  0  0  0  0  0  0  0  0  0  0  0
  -10.0940   -5.5086    7.8025 H   0  0  0  0  0  0  0  0  0  0  0  0
  -10.0527   -7.6319    6.4985 H   0  0  0  0  0  0  0  0  0  0  0  0
   -8.7640   -9.5609    5.6012 H   0  0  0  0  0  0  0  0  0  0  0  0
   -6.6290  -10.5380    5.1870 H   0  0  0  0  0  0  0  0  0  0  0  0
   -5.1750   -9.8830    5.7180 H   0  0  0  0  0  0  0  0  0  0  0  0
   -5.1369   -7.9787    7.3088 H   0  0  0  0  0  0  0  0  0  0  0  0
   -5.3150   -5.9780    8.5430 H   0  0  0  0  0  0  0  0  0  0  0  0
   -5.1387   -4.0140    9.8337 H   0  0  0  0  0  0  0  0  0  0  0  0
  1  2  1  0
  2  3  2  0
  3  4  1  0
  4  5  2  0
  5  6  1  0
  6  7  2  0
  7  8  1  0
  8  9  2  0
  9 10  1  0
 10 11  1  0
 10 12  2  0
 12 13  1  0
 13 14  2  0
 14 15  1  0
 15 16  2  0
 16  2  1  0
 15  5  1  0
 13  7  1  0
  1 17  1  0
  1 18  1  0
  3 19  1  0
  4 20  1  0
  6 21  1  0
  8 22  1  0
  9 23  1  0
 11 24  1  0
 11 25  1  0
 12 26  1  0
 14 27  1  0
 16 28  1  0
M  CHG  1  14   1
M  END
>  <meeko>  (7) 
{"is_sidechain": [false], "free_energy": -6.193, "intermolecular_energy": -6.555, "internal_energy": 0.0}

$$$$
1bcu_ligand
     RDKit          3D

 28 30  0  0  0  0  0  0  0  0999 V2000
  -13.7620  -10.1140    4.4230 N   0  0  0  0  0  0  0  0  0  0  0  0
  -12.8180   -9.2600    4.9930 C   0  0  0  0  0  0  0  0  0  0  0  0
  -13.2320   -8.1380    5.7140 C   0  0  0  0  0  0  0  0  0  0  0  0
  -12.3120   -7.3400    6.4020 C   0  0  0  0  0  0  0  0  0  0  0  0
  -10.9550   -7.6870    6.4190 C   0  0  0  0  0  0  0  0  0  0  0  0
   -9.9990   -6.9230    7.0970 C   0  0  0  0  0  0  0  0  0  0  0  0
   -8.6570   -7.3220    7.1020 C   0  0  0  0  0  0  0  0  0  0  0  0
   -7.6600   -6.5820    7.7470 C   0  0  0  0  0  0  0  0  0  0  0  0
   -6.3320   -7.0200    7.7200 C   0  0  0  0  0  0  0  0  0  0  0  0
   -5.9790   -8.2200    7.0980 C   0  0  0  0  0  0  0  0  0  0  0  0
   -4.6370   -8.5720    6.9680 N   0  0  0  0  0  0  0  0  0  0  0  0
   -6.9620   -8.9350    6.4110 C   0  0  0  0  0  0  0  0  0  0  0  0
   -8.2950   -8.5040    6.4210 C   0  0  0  0  0  0  0  0  0  0  0  0
   -9.2450   -9.2040    5.7760 N   0  0  0  0  0  0  0  0  0  0  0  0
  -10.5420   -8.8520    5.7400 C   0  0  0  0  0  0  0  0  0  0  0  0
  -11.4730   -9.6360    5.0460 C   0  0  0  0  0  0  0  0  0  0  0  0
  -14.2780  -10.6920    5.0840 H   0  0  0  0  0  0  0  0  0  0  0  0
  -14.3750   -9.7150    3.7180 H   0  0  0  0  0  0  0  0  0  0  0  0
  -14.3003   -7.8772    5.7414 H   0  0  0  0  0  0  0  0  0  0  0  0
  -12.6548   -6.4383    6.9307 H   0  0  0  0  0  0  0  0  0  0  0  0
  -10.3020   -6.0078    7.6267 H   0  0  0  0  0  0  0  0  0  0  0  0
   -7.9212   -5.6538    8.2764 H   0  0  0  0  0  0  0  0  0  0  0  0
   -5.5517   -6.4088    8.1970 H   0  0  0  0  0  0  0  0  0  0  0  0
   -4.2500   -8.4700    6.0320 H   0  0  0  0  0  0  0  0  0  0  0  0
   -3.9990   -8.2190    7.6740 H   0  0  0  0  0  0  0  0  0  0  0  0
   -6.6874   -9.8448    5.8570 H   0  0  0  0  0  0  0  0  0  0  0  0
   -8.9650  -10.0500    5.2870 H   0  0  0  0  0  0  0  0  0  0  0  0
  -11.1427  -10.5546    4.5389 H   0  0  0  0  0  0  0  0  0  0  0  0
  1  2  1  0
  2  3  2  0
  3  4  1  0
  4  5  2  0
  5  6  1  0
  6  7  2  0
  7  8  1  0
  8  9  2  0
  9 10  1  0
 10 11  1  0
 10 12  2  0
 12 13  1  0
 13 14  2  0
 14 15  1  0
 15 16  2  0
 16  2  1  0
 15  5  1  0
 13  7  1  0
  1 17  1  0
  1 18  1  0
  3 19  1  0
  4 20  1  0
  6 21  1  0
  8 22  1  0
  9 23  1  0
 11 24  1  0
 11 25  1  0
 12 26  1  0
 14 27  1  0
 16 28  1  0
M  CHG  1  14   1
M  END
>  <meeko>  (8) 
{"is_sidechain": [false], "free_energy": -6.189, "intermolecular_energy": -6.551, "internal_energy": 0.0}

$$$$
1bcu_ligand
     RDKit          3D

 28 30  0  0  0  0  0  0  0  0999 V2000
   -4.5830   -8.6190    6.8460 N   0  0  0  0  0  0  0  0  0  0  0  0
   -5.9210   -8.2610    7.0060 C   0  0  0  0  0  0  0  0  0  0  0  0
   -6.2540   -7.0600    7.6370 C   0  0  0  0  0  0  0  0  0  0  0  0
   -7.5790   -6.6170    7.6950 C   0  0  0  0  0  0  0  0  0  0  0  0
   -8.5950   -7.3540    7.0740 C   0  0  0  0  0  0  0  0  0  0  0  0
   -9.9340   -6.9500    7.1020 C   0  0  0  0  0  0  0  0  0  0  0  0
  -10.9100   -7.7090    6.4470 C   0  0  0  0  0  0  0  0  0  0  0  0
  -12.2650   -7.3590    6.4630 C   0  0  0  0  0  0  0  0  0  0  0  0
  -13.2040   -8.1530    5.7980 C   0  0  0  0  0  0  0  0  0  0  0  0
  -12.8120   -9.2770    5.0670 C   0  0  0  0  0  0  0  0  0  0  0  0
  -13.7720  -10.1270    4.5210 N   0  0  0  0  0  0  0  0  0  0  0  0
  -11.4690   -9.6580    5.0890 C   0  0  0  0  0  0  0  0  0  0  0  0
  -10.5180   -8.8770    5.7600 C   0  0  0  0  0  0  0  0  0  0  0  0
   -9.2210   -9.2340    5.7650 N   0  0  0  0  0  0  0  0  0  0  0  0
   -8.2530   -8.5380    6.3860 C   0  0  0  0  0  0  0  0  0  0  0  0
   -6.9230   -8.9750    6.3450 C   0  0  0  0  0  0  0  0  0  0  0  0
   -4.3130   -9.4970    7.2850 H   0  0  0  0  0  0  0  0  0  0  0  0
   -4.1940   -8.5360    5.9110 H   0  0  0  0  0  0  0  0  0  0  0  0
   -5.4603   -6.4524    8.0961 H   0  0  0  0  0  0  0  0  0  0  0  0
   -7.8238   -5.6874    8.2297 H   0  0  0  0  0  0  0  0  0  0  0  0
  -10.2201   -6.0341    7.6399 H   0  0  0  0  0  0  0  0  0  0  0  0
  -12.5921   -6.4566    7.0003 H   0  0  0  0  0  0  0  0  0  0  0  0
  -14.2703   -7.8880    5.8513 H   0  0  0  0  0  0  0  0  0  0  0  0
  -14.7110  -10.0220    4.9030 H   0  0  0  0  0  0  0  0  0  0  0  0
  -13.7900  -10.2120    3.5110 H   0  0  0  0  0  0  0  0  0  0  0  0
  -11.1547  -10.5786    4.5755 H   0  0  0  0  0  0  0  0  0  0  0  0
   -8.9570  -10.0820    5.2690 H   0  0  0  0  0  0  0  0  0  0  0  0
   -6.6655   -9.8878    5.7878 H   0  0  0  0  0  0  0  0  0  0  0  0
  1  2  1  0
  2  3  2  0
  3  4  1  0
  4  5  2  0
  5  6  1  0
  6  7  2  0
  7  8  1  0
  8  9  2  0
  9 10  1  0
 10 11  1  0
 10 12  2  0
 12 13  1  0
 13 14  2  0
 14 15  1  0
 15 16  2  0
 16  2  1  0
 15  5  1  0
 13  7  1  0
  1 17  1  0
  1 18  1  0
  3 19  1  0
  4 20  1  0
  6 21  1  0
  8 22  1  0
  9 23  1  0
 11 24  1  0
 11 25  1  0
 12 26  1  0
 14 27  1  0
 16 28  1  0
M  CHG  1  14   1
M  END
>  <meeko>  (9) 
{"is_sidechain": [false], "free_energy": -6.169, "intermolecular_energy": -6.53, "internal_energy": 0.0}

$$$$
