3gnw_ligand
     RDKit          3D

 76 81  0  0  0  0  0  0  0  0999 V2000
    2.6780   -6.1410   -4.1440 C   0  0  0  0  0  0  0  0  0  0  0  0
    4.1470   -6.4330   -4.2150 C   0  0  0  0  0  0  0  0  0  0  0  0
    4.7320   -7.3090   -3.3050 C   0  0  0  0  0  0  0  0  0  0  0  0
    6.0960   -7.5720   -3.3970 C   0  0  0  0  0  0  0  0  0  0  0  0
    6.8420   -6.9550   -4.3940 C   0  0  0  0  0  0  0  0  0  0  0  0
    6.1840   -6.0880   -5.2580 C   0  0  0  0  0  0  0  0  0  0  0  0
    6.9410   -5.4080   -6.3550 C   0  0  0  0  0  0  0  0  0  0  0  0
    7.1480   -6.0320   -7.3950 O   0  0  0  0  0  0  0  0  0  0  0  0
    7.4620   -4.1280   -6.0990 N   0  0  0  0  0  0  0  0  0  0  0  0
    8.0540   -3.3270   -7.1230 C   0  0  0  0  0  0  0  0  0  0  0  0
    8.8910   -3.9360   -8.0790 C   0  0  0  0  0  0  0  0  0  0  0  0
    9.4760   -3.1930   -9.1060 C   0  0  0  0  0  0  0  0  0  0  0  0
    9.2300   -1.8290   -9.2000 C   0  0  0  0  0  0  0  0  0  0  0  0
    8.4040   -1.2250   -8.2570 C   0  0  0  0  0  0  0  0  0  0  0  0
    8.1340    0.1220   -8.3360 O   0  0  0  0  0  0  0  0  0  0  0  0
    7.8120   -1.9480   -7.1980 C   0  0  0  0  0  0  0  0  0  0  0  0
    6.9440   -1.2380   -6.3400 N   0  0  0  0  0  0  0  0  0  0  0  0
    6.5750   -1.5110   -5.0380 C   0  0  0  0  0  0  0  0  0  0  0  0
    6.9650   -2.5710   -4.2940 C   0  0  0  0  0  0  0  0  0  0  0  0
    7.7780   -3.7720   -4.6980 C   0  0  2  0  0  0  0  0  0  0  0  0
    9.2860   -3.7550   -4.4420 C   0  0  0  0  0  0  0  0  0  0  0  0
   10.0160   -2.5980   -4.7740 C   0  0  0  0  0  0  0  0  0  0  0  0
   11.3920   -2.5100   -4.5350 C   0  0  0  0  0  0  0  0  0  0  0  0
   12.0740   -3.5800   -3.9620 C   0  0  0  0  0  0  0  0  0  0  0  0
   13.4080   -3.6260   -3.6670 O   0  0  0  0  0  0  0  0  0  0  0  0
   14.1790   -4.7200   -4.1740 C   0  0  0  0  0  0  0  0  0  0  0  0
   15.5890   -4.3290   -4.5580 C   0  0  0  0  0  0  0  0  0  0  0  0
   16.3320   -5.0930   -5.4700 C   0  0  0  0  0  0  0  0  0  0  0  0
   17.6210   -4.7050   -5.8360 C   0  0  0  0  0  0  0  0  0  0  0  0
   18.1780   -3.5430   -5.3060 C   0  0  0  0  0  0  0  0  0  0  0  0
   17.4450   -2.7660   -4.4120 C   0  0  0  0  0  0  0  0  0  0  0  0
   16.1540   -3.1530   -4.0440 C   0  0  0  0  0  0  0  0  0  0  0  0
   11.3630   -4.7290   -3.6210 C   0  0  0  0  0  0  0  0  0  0  0  0
    9.9910   -4.8110   -3.8610 C   0  0  0  0  0  0  0  0  0  0  0  0
    9.3730   -5.9490   -3.5190 F   0  0  0  0  0  0  0  0  0  0  0  0
    6.4430   -2.5910   -2.6270 S   0  0  0  0  0  0  0  0  0  0  0  0
    7.3200   -3.4310   -1.8340 O   0  0  0  0  0  0  0  0  0  0  0  0
    5.0060   -2.7870   -2.5660 O   0  0  0  0  0  0  0  0  0  0  0  0
    6.7850   -0.9110   -2.1480 C   0  0  0  0  0  0  0  0  0  0  0  0
    6.1620    0.1440   -3.0860 C   0  0  0  0  0  0  0  0  0  0  0  0
    4.9680    0.8170   -2.3800 C   0  0  0  0  0  0  0  0  0  0  0  0
    7.2160    1.2320   -3.3760 C   0  0  0  0  0  0  0  0  0  0  0  0
    5.6590   -0.4540   -4.4240 C   0  0  0  0  0  0  0  0  0  0  0  0
    4.8540   -5.8160   -5.1910 N   0  0  0  0  0  0  0  0  0  0  0  0
    2.3669   -6.0792   -3.0907 H   0  0  0  0  0  0  0  0  0  0  0  0
    2.4698   -5.1839   -4.6446 H   0  0  0  0  0  0  0  0  0  0  0  0
    2.1196   -6.9457   -4.6446 H   0  0  0  0  0  0  0  0  0  0  0  0
    4.1241   -7.7875   -2.5230 H   0  0  0  0  0  0  0  0  0  0  0  0
    6.5782   -8.2610   -2.6879 H   0  0  0  0  0  0  0  0  0  0  0  0
    7.9203   -7.1470   -4.4961 H   0  0  0  0  0  0  0  0  0  0  0  0
    9.0870   -5.0165   -8.0150 H   0  0  0  0  0  0  0  0  0  0  0  0
   10.1305   -3.6867   -9.8394 H   0  0  0  0  0  0  0  0  0  0  0  0
    9.6816   -1.2350  -10.0082 H   0  0  0  0  0  0  0  0  0  0  0  0
    8.4020    0.5370   -7.5000 H   0  0  0  0  0  0  0  0  0  0  0  0
    6.9510   -0.2470   -6.5940 H   0  0  0  0  0  0  0  0  0  0  0  0
    7.4582   -4.5545   -3.9941 H   0  0  0  0  0  0  0  0  0  0  0  0
    9.4935   -1.7447   -5.2311 H   0  0  0  0  0  0  0  0  0  0  0  0
   11.9368   -1.5921   -4.8008 H   0  0  0  0  0  0  0  0  0  0  0  0
   14.2311   -5.4994   -3.3995 H   0  0  0  0  0  0  0  0  0  0  0  0
   13.6790   -5.0766   -5.0866 H   0  0  0  0  0  0  0  0  0  0  0  0
   15.8945   -6.0059   -5.9003 H   0  0  0  0  0  0  0  0  0  0  0  0
   18.1986   -5.3174   -6.5441 H   0  0  0  0  0  0  0  0  0  0  0  0
   19.1955   -3.2395   -5.5933 H   0  0  0  0  0  0  0  0  0  0  0  0
   17.8830   -1.8470   -3.9954 H   0  0  0  0  0  0  0  0  0  0  0  0
   15.5761   -2.5302   -3.3454 H   0  0  0  0  0  0  0  0  0  0  0  0
   11.8877   -5.5782   -3.1589 H   0  0  0  0  0  0  0  0  0  0  0  0
    6.3877   -0.7517   -1.1347 H   0  0  0  0  0  0  0  0  0  0  0  0
    7.8760   -0.7796   -2.1984 H   0  0  0  0  0  0  0  0  0  0  0  0
    5.0978    0.7439   -1.2901 H   0  0  0  0  0  0  0  0  0  0  0  0
    4.9182    1.8761   -2.6731 H   0  0  0  0  0  0  0  0  0  0  0  0
    4.0362    0.3112   -2.6731 H   0  0  0  0  0  0  0  0  0  0  0  0
    7.6023    1.6307   -2.4263 H   0  0  0  0  0  0  0  0  0  0  0  0
    8.0438    0.7957   -3.9542 H   0  0  0  0  0  0  0  0  0  0  0  0
    6.7537    2.0456   -3.9542 H   0  0  0  0  0  0  0  0  0  0  0  0
    4.6765   -0.9151   -4.2448 H   0  0  0  0  0  0  0  0  0  0  0  0
    5.6233    0.3791   -5.1414 H   0  0  0  0  0  0  0  0  0  0  0  0
  1  2  1  0
  2  3  2  0
  3  4  1  0
  4  5  2  0
  5  6  1  0
  6  7  1  0
  7  8  2  0
  7  9  1  0
  9 10  1  0
 10 11  2  0
 11 12  1  0
 12 13  2  0
 13 14  1  0
 14 15  1  0
 14 16  2  0
 16 17  1  0
 17 18  1  0
 18 19  2  0
 19 20  1  0
 20 21  1  0
 21 22  2  0
 22 23  1  0
 23 24  2  0
 24 25  1  0
 25 26  1  0
 26 27  1  0
 27 28  2  0
 28 29  1  0
 29 30  2  0
 30 31  1  0
 31 32  2  0
 24 33  1  0
 33 34  2  0
 34 35  1  0
 19 36  1  0
 36 37  2  0
 36 38  2  0
 36 39  1  0
 39 40  1  0
 40 41  1  0
 40 42  1  0
 40 43  1  0
  6 44  2  0
 44  2  1  0
 20  9  1  0
 34 21  1  0
 16 10  1  0
 43 18  1  0
 32 27  1  0
  1 45  1  0
  1 46  1  0
  1 47  1  0
  3 48  1  0
  4 49  1  0
  5 50  1  0
 11 51  1  0
 12 52  1  0
 13 53  1  0
 15 54  1  0
 17 55  1  0
 20 56  1  1
 22 57  1  0
 23 58  1  0
 26 59  1  0
 26 60  1  0
 28 61  1  0
 29 62  1  0
 30 63  1  0
 31 64  1  0
 32 65  1  0
 33 66  1  0
 39 67  1  0
 39 68  1  0
 41 69  1  0
 41 70  1  0
 41 71  1  0
 42 72  1  0
 42 73  1  0
 42 74  1  0
 43 75  1  0
 43 76  1  0
M  END
>  <meeko>  (1) 
{"is_sidechain": [false], "free_energy": -8.408, "intermolecular_energy": -13.569, "internal_energy": -0.129}

$$$$
3gnw_ligand
     RDKit          3D

 76 81  0  0  0  0  0  0  0  0999 V2000
    2.7950   -6.1910   -4.2650 C   0  0  0  0  0  0  0  0  0  0  0  0
    4.2710   -6.4440   -4.3390 C   0  0  0  0  0  0  0  0  0  0  0  0
    4.8750   -7.3260   -3.4470 C   0  0  0  0  0  0  0  0  0  0  0  0
    6.2460   -7.5530   -3.5420 C   0  0  0  0  0  0  0  0  0  0  0  0
    6.9770   -6.8960   -4.5230 C   0  0  0  0  0  0  0  0  0  0  0  0
    6.3000   -6.0250   -5.3690 C   0  0  0  0  0  0  0  0  0  0  0  0
    7.0420   -5.3010   -6.4470 C   0  0  0  0  0  0  0  0  0  0  0  0
    7.3140   -5.9130   -7.4800 O   0  0  0  0  0  0  0  0  0  0  0  0
    7.4760   -3.9910   -6.1820 N   0  0  0  0  0  0  0  0  0  0  0  0
    8.0410   -3.1560   -7.1940 C   0  0  0  0  0  0  0  0  0  0  0  0
    8.9290   -3.7140   -8.1350 C   0  0  0  0  0  0  0  0  0  0  0  0
    9.4890   -2.9360   -9.1500 C   0  0  0  0  0  0  0  0  0  0  0  0
    9.1680   -1.5880   -9.2460 C   0  0  0  0  0  0  0  0  0  0  0  0
    8.2920   -1.0340   -8.3170 C   0  0  0  0  0  0  0  0  0  0  0  0
    7.9480    0.2960   -8.4000 O   0  0  0  0  0  0  0  0  0  0  0  0
    7.7230   -1.7920   -7.2710 C   0  0  0  0  0  0  0  0  0  0  0  0
    6.8000   -1.1340   -6.4280 N   0  0  0  0  0  0  0  0  0  0  0  0
    6.4470   -1.4120   -5.1240 C   0  0  0  0  0  0  0  0  0  0  0  0
    6.8750   -2.4540   -4.3750 C   0  0  0  0  0  0  0  0  0  0  0  0
    7.7370   -3.6150   -4.7750 C   0  0  2  0  0  0  0  0  0  0  0  0
    9.2340   -3.5620   -4.4690 C   0  0  0  0  0  0  0  0  0  0  0  0
    9.8800   -4.7370   -4.0400 C   0  0  0  0  0  0  0  0  0  0  0  0
   11.2540   -4.7590   -3.7740 C   0  0  0  0  0  0  0  0  0  0  0  0
   12.0170   -3.6040   -3.9260 C   0  0  0  0  0  0  0  0  0  0  0  0
   13.3610   -3.4860   -3.7110 O   0  0  0  0  0  0  0  0  0  0  0  0
   14.1780   -4.6520   -3.8580 C   0  0  0  0  0  0  0  0  0  0  0  0
   15.5750   -4.3440   -4.3490 C   0  0  0  0  0  0  0  0  0  0  0  0
   16.1460   -5.0590   -5.4110 C   0  0  0  0  0  0  0  0  0  0  0  0
   17.4250   -4.7450   -5.8720 C   0  0  0  0  0  0  0  0  0  0  0  0
   18.1430   -3.7060   -5.2850 C   0  0  0  0  0  0  0  0  0  0  0  0
   17.5810   -2.9760   -4.2400 C   0  0  0  0  0  0  0  0  0  0  0  0
   16.3010   -3.2890   -3.7780 C   0  0  0  0  0  0  0  0  0  0  0  0
   11.3920   -2.4350   -4.3580 C   0  0  0  0  0  0  0  0  0  0  0  0
   10.0220   -2.4190   -4.6210 C   0  0  0  0  0  0  0  0  0  0  0  0
    9.4850   -1.2580   -5.0210 F   0  0  0  0  0  0  0  0  0  0  0  0
    6.3620   -2.4820   -2.7050 S   0  0  0  0  0  0  0  0  0  0  0  0
    7.2710   -3.2880   -1.9120 O   0  0  0  0  0  0  0  0  0  0  0  0
    4.9330   -2.7260   -2.6360 O   0  0  0  0  0  0  0  0  0  0  0  0
    6.6510   -0.7890   -2.2370 C   0  0  0  0  0  0  0  0  0  0  0  0
    5.9880    0.2390   -3.1780 C   0  0  0  0  0  0  0  0  0  0  0  0
    4.7760    0.8760   -2.4700 C   0  0  0  0  0  0  0  0  0  0  0  0
    7.0040    1.3600   -3.4800 C   0  0  0  0  0  0  0  0  0  0  0  0
    5.5000   -0.3830   -4.5110 C   0  0  0  0  0  0  0  0  0  0  0  0
    4.9630   -5.7870   -5.2980 N   0  0  0  0  0  0  0  0  0  0  0  0
    2.4845   -6.1378   -3.2111 H   0  0  0  0  0  0  0  0  0  0  0  0
    2.5606   -5.2396   -4.7648 H   0  0  0  0  0  0  0  0  0  0  0  0
    2.2571   -7.0100   -4.7648 H   0  0  0  0  0  0  0  0  0  0  0  0
    4.2775   -7.8368   -2.6775 H   0  0  0  0  0  0  0  0  0  0  0  0
    6.7443   -8.2453   -2.8474 H   0  0  0  0  0  0  0  0  0  0  0  0
    8.0597   -7.0599   -4.6276 H   0  0  0  0  0  0  0  0  0  0  0  0
    9.1856   -4.7816   -8.0687 H   0  0  0  0  0  0  0  0  0  0  0  0
   10.1833   -3.3898   -9.8725 H   0  0  0  0  0  0  0  0  0  0  0  0
    9.5999   -0.9672  -10.0448 H   0  0  0  0  0  0  0  0  0  0  0  0
    8.7630    0.8160   -8.4970 H   0  0  0  0  0  0  0  0  0  0  0  0
    6.7350   -0.1500   -6.6990 H   0  0  0  0  0  0  0  0  0  0  0  0
    7.4113   -4.4063   -4.0839 H   0  0  0  0  0  0  0  0  0  0  0  0
    9.2922   -5.6578   -3.9111 H   0  0  0  0  0  0  0  0  0  0  0  0
   11.7331   -5.6924   -3.4435 H   0  0  0  0  0  0  0  0  0  0  0  0
   14.2533   -5.1513   -2.8808 H   0  0  0  0  0  0  0  0  0  0  0  0
   13.7000   -5.2922   -4.6141 H   0  0  0  0  0  0  0  0  0  0  0  0
   15.5807   -5.8749   -5.8851 H   0  0  0  0  0  0  0  0  0  0  0  0
   17.8667   -5.3188   -6.7000 H   0  0  0  0  0  0  0  0  0  0  0  0
   19.1530   -3.4620   -5.6462 H   0  0  0  0  0  0  0  0  0  0  0  0
   18.1459   -2.1526   -3.7786 H   0  0  0  0  0  0  0  0  0  0  0  0
   15.8584   -2.7029   -2.9591 H   0  0  0  0  0  0  0  0  0  0  0  0
   11.9840   -1.5177   -4.4926 H   0  0  0  0  0  0  0  0  0  0  0  0
    6.2541   -0.6370   -1.2224 H   0  0  0  0  0  0  0  0  0  0  0  0
    7.7367   -0.6217   -2.2936 H   0  0  0  0  0  0  0  0  0  0  0  0
    4.9094    0.8059   -1.3804 H   0  0  0  0  0  0  0  0  0  0  0  0
    4.6947    1.9334   -2.7622 H   0  0  0  0  0  0  0  0  0  0  0  0
    3.8590    0.3433   -2.7622 H   0  0  0  0  0  0  0  0  0  0  0  0
    7.3818    1.7768   -2.5347 H   0  0  0  0  0  0  0  0  0  0  0  0
    7.8428    0.9481   -4.0603 H   0  0  0  0  0  0  0  0  0  0  0  0
    6.5118    2.1544   -4.0603 H   0  0  0  0  0  0  0  0  0  0  0  0
    4.5341   -0.8754   -4.3251 H   0  0  0  0  0  0  0  0  0  0  0  0
    5.4345    0.4448   -5.2324 H   0  0  0  0  0  0  0  0  0  0  0  0
  1  2  1  0
  2  3  2  0
  3  4  1  0
  4  5  2  0
  5  6  1  0
  6  7  1  0
  7  8  2  0
  7  9  1  0
  9 10  1  0
 10 11  2  0
 11 12  1  0
 12 13  2  0
 13 14  1  0
 14 15  1  0
 14 16  2  0
 16 17  1  0
 17 18  1  0
 18 19  2  0
 19 20  1  0
 20 21  1  0
 21 22  2  0
 22 23  1  0
 23 24  2  0
 24 25  1  0
 25 26  1  0
 26 27  1  0
 27 28  2  0
 28 29  1  0
 29 30  2  0
 30 31  1  0
 31 32  2  0
 24 33  1  0
 33 34  2  0
 34 35  1  0
 19 36  1  0
 36 37  2  0
 36 38  2  0
 36 39  1  0
 39 40  1  0
 40 41  1  0
 40 42  1  0
 40 43  1  0
  6 44  2  0
 44  2  1  0
 20  9  1  0
 34 21  1  0
 16 10  1  0
 43 18  1  0
 32 27  1  0
  1 45  1  0
  1 46  1  0
  1 47  1  0
  3 48  1  0
  4 49  1  0
  5 50  1  0
 11 51  1  0
 12 52  1  0
 13 53  1  0
 15 54  1  0
 17 55  1  0
 20 56  1  1
 22 57  1  0
 23 58  1  0
 26 59  1  0
 26 60  1  0
 28 61  1  0
 29 62  1  0
 30 63  1  0
 31 64  1  0
 32 65  1  0
 33 66  1  0
 39 67  1  0
 39 68  1  0
 41 69  1  0
 41 70  1  0
 41 71  1  0
 42 72  1  0
 42 73  1  0
 42 74  1  0
 43 75  1  0
 43 76  1  0
M  END
>  <meeko>  (2) 
{"is_sidechain": [false], "free_energy": -8.278, "intermolecular_energy": -13.198, "internal_energy": -0.29}

$$$$
3gnw_ligand
     RDKit          3D

 76 81  0  0  0  0  0  0  0  0999 V2000
    8.8740    0.6020   -8.0760 C   0  0  0  0  0  0  0  0  0  0  0  0
    8.2280   -0.3470   -7.1120 C   0  0  0  0  0  0  0  0  0  0  0  0
    8.2530   -1.7180   -7.3570 C   0  0  0  0  0  0  0  0  0  0  0  0
    7.6550   -2.5810   -6.4430 C   0  0  0  0  0  0  0  0  0  0  0  0
    7.0490   -2.0570   -5.3080 C   0  0  0  0  0  0  0  0  0  0  0  0
    7.0610   -0.6760   -5.1420 C   0  0  0  0  0  0  0  0  0  0  0  0
    6.4310   -0.0640   -3.9310 C   0  0  0  0  0  0  0  0  0  0  0  0
    7.0670    0.7850   -3.3080 O   0  0  0  0  0  0  0  0  0  0  0  0
    5.1850   -0.5650   -3.5140 N   0  0  0  0  0  0  0  0  0  0  0  0
    3.9510    0.0190   -3.9330 C   0  0  0  0  0  0  0  0  0  0  0  0
    3.8400    1.4210   -4.0130 C   0  0  0  0  0  0  0  0  0  0  0  0
    2.6570    2.0300   -4.4350 C   0  0  0  0  0  0  0  0  0  0  0  0
    1.5640    1.2480   -4.7910 C   0  0  0  0  0  0  0  0  0  0  0  0
    1.6720   -0.1370   -4.7130 C   0  0  0  0  0  0  0  0  0  0  0  0
    0.6080   -0.9340   -5.0740 O   0  0  0  0  0  0  0  0  0  0  0  0
    2.8500   -0.7800   -4.2740 C   0  0  0  0  0  0  0  0  0  0  0  0
    2.8580   -2.1920   -4.2970 N   0  0  0  0  0  0  0  0  0  0  0  0
    3.5660   -3.0810   -3.5130 C   0  0  0  0  0  0  0  0  0  0  0  0
    4.5390   -2.7750   -2.6240 C   0  0  0  0  0  0  0  0  0  0  0  0
    5.1490   -1.4290   -2.3130 C   0  0  2  0  0  0  0  0  0  0  0  0
    4.6280   -0.6780   -1.0870 C   0  0  0  0  0  0  0  0  0  0  0  0
    5.4650    0.2690   -0.4680 C   0  0  0  0  0  0  0  0  0  0  0  0
    5.0350    1.0110    0.6390 C   0  0  0  0  0  0  0  0  0  0  0  0
    3.7560    0.8200    1.1570 C   0  0  0  0  0  0  0  0  0  0  0  0
    3.2060    1.4780    2.2200 O   0  0  0  0  0  0  0  0  0  0  0  0
    1.8620    1.9520    2.1050 C   0  0  0  0  0  0  0  0  0  0  0  0
    1.7740    3.4160    1.7340 C   0  0  0  0  0  0  0  0  0  0  0  0
    0.9040    4.2860    2.4060 C   0  0  0  0  0  0  0  0  0  0  0  0
    0.8550    5.6400    2.0720 C   0  0  0  0  0  0  0  0  0  0  0  0
    1.6830    6.1420    1.0700 C   0  0  0  0  0  0  0  0  0  0  0  0
    2.5630    5.2920    0.4050 C   0  0  0  0  0  0  0  0  0  0  0  0
    2.6140    3.9370    0.7390 C   0  0  0  0  0  0  0  0  0  0  0  0
    2.9140   -0.1090    0.5480 C   0  0  0  0  0  0  0  0  0  0  0  0
    3.3480   -0.8450   -0.5540 C   0  0  0  0  0  0  0  0  0  0  0  0
    2.4900   -1.7290   -1.0820 F   0  0  0  0  0  0  0  0  0  0  0  0
    5.1730   -4.0970   -1.6720 S   0  0  0  0  0  0  0  0  0  0  0  0
    5.7730   -3.5960   -0.4510 O   0  0  0  0  0  0  0  0  0  0  0  0
    5.9210   -5.0000   -2.5270 O   0  0  0  0  0  0  0  0  0  0  0  0
    3.6680   -4.9170   -1.1940 C   0  0  0  0  0  0  0  0  0  0  0  0
    2.7420   -5.2620   -2.3810 C   0  0  0  0  0  0  0  0  0  0  0  0
    2.7830   -6.7810   -2.6390 C   0  0  0  0  0  0  0  0  0  0  0  0
    1.2940   -4.8850   -2.0030 C   0  0  0  0  0  0  0  0  0  0  0  0
    3.1370   -4.5350   -3.6900 C   0  0  0  0  0  0  0  0  0  0  0  0
    7.6390    0.1880   -6.0180 N   0  0  0  0  0  0  0  0  0  0  0  0
    9.4073    1.3854   -7.5176 H   0  0  0  0  0  0  0  0  0  0  0  0
    9.5868    0.0531   -8.7089 H   0  0  0  0  0  0  0  0  0  0  0  0
    8.1019    1.0639   -8.7089 H   0  0  0  0  0  0  0  0  0  0  0  0
    8.7390   -2.1136   -8.2610 H   0  0  0  0  0  0  0  0  0  0  0  0
    7.6622   -3.6670   -6.6177 H   0  0  0  0  0  0  0  0  0  0  0  0
    6.5745   -2.7136   -4.5639 H   0  0  0  0  0  0  0  0  0  0  0  0
    4.7014    2.0474   -3.7379 H   0  0  0  0  0  0  0  0  0  0  0  0
    2.5896    3.1268   -4.4858 H   0  0  0  0  0  0  0  0  0  0  0  0
    0.6282    1.7170   -5.1291 H   0  0  0  0  0  0  0  0  0  0  0  0
    0.5040   -0.8830   -6.0380 H   0  0  0  0  0  0  0  0  0  0  0  0
    1.9560   -2.5320   -4.6370 H   0  0  0  0  0  0  0  0  0  0  0  0
    6.1727   -1.6899   -2.0064 H   0  0  0  0  0  0  0  0  0  0  0  0
    6.4792    0.4299   -0.8624 H   0  0  0  0  0  0  0  0  0  0  0  0
    5.7093    1.7471    1.1011 H   0  0  0  0  0  0  0  0  0  0  0  0
    1.3494    1.3638    1.3296 H   0  0  0  0  0  0  0  0  0  0  0  0
    1.3901    1.8369    3.0919 H   0  0  0  0  0  0  0  0  0  0  0  0
    0.2540    3.8977    3.2039 H   0  0  0  0  0  0  0  0  0  0  0  0
    0.1622    6.3116    2.6002 H   0  0  0  0  0  0  0  0  0  0  0  0
    1.6415    7.2087    0.8046 H   0  0  0  0  0  0  0  0  0  0  0  0
    3.2187    5.6883   -0.3843 H   0  0  0  0  0  0  0  0  0  0  0  0
    3.3188    3.2728    0.2174 H   0  0  0  0  0  0  0  0  0  0  0  0
    1.8979   -0.2629    0.9403 H   0  0  0  0  0  0  0  0  0  0  0  0
    3.9314   -5.8513   -0.6766 H   0  0  0  0  0  0  0  0  0  0  0  0
    3.1145   -4.2197   -0.5480 H   0  0  0  0  0  0  0  0  0  0  0  0
    2.7974   -7.3159   -1.6779 H   0  0  0  0  0  0  0  0  0  0  0  0
    1.8926   -7.0798   -3.2116 H   0  0  0  0  0  0  0  0  0  0  0  0
    3.6882   -7.0314   -3.2116 H   0  0  0  0  0  0  0  0  0  0  0  0
    1.1958   -4.8594   -0.9077 H   0  0  0  0  0  0  0  0  0  0  0  0
    1.0534   -3.8943   -2.4159 H   0  0  0  0  0  0  0  0  0  0  0  0
    0.6008   -5.6326   -2.4159 H   0  0  0  0  0  0  0  0  0  0  0  0
    3.9729   -5.0847   -4.1473 H   0  0  0  0  0  0  0  0  0  0  0  0
    2.2335   -4.5160   -4.3172 H   0  0  0  0  0  0  0  0  0  0  0  0
  1  2  1  0
  2  3  2  0
  3  4  1  0
  4  5  2  0
  5  6  1  0
  6  7  1  0
  7  8  2  0
  7  9  1  0
  9 10  1  0
 10 11  2  0
 11 12  1  0
 12 13  2  0
 13 14  1  0
 14 15  1  0
 14 16  2  0
 16 17  1  0
 17 18  1  0
 18 19  2  0
 19 20  1  0
 20 21  1  0
 21 22  2  0
 22 23  1  0
 23 24  2  0
 24 25  1  0
 25 26  1  0
 26 27  1  0
 27 28  2  0
 28 29  1  0
 29 30  2  0
 30 31  1  0
 31 32  2  0
 24 33  1  0
 33 34  2  0
 34 35  1  0
 19 36  1  0
 36 37  2  0
 36 38  2  0
 36 39  1  0
 39 40  1  0
 40 41  1  0
 40 42  1  0
 40 43  1  0
  6 44  2  0
 44  2  1  0
 20  9  1  0
 34 21  1  0
 16 10  1  0
 43 18  1  0
 32 27  1  0
  1 45  1  0
  1 46  1  0
  1 47  1  0
  3 48  1  0
  4 49  1  0
  5 50  1  0
 11 51  1  0
 12 52  1  0
 13 53  1  0
 15 54  1  0
 17 55  1  0
 20 56  1  1
 22 57  1  0
 23 58  1  0
 26 59  1  0
 26 60  1  0
 28 61  1  0
 29 62  1  0
 30 63  1  0
 31 64  1  0
 32 65  1  0
 33 66  1  0
 39 67  1  0
 39 68  1  0
 41 69  1  0
 41 70  1  0
 41 71  1  0
 42 72  1  0
 42 73  1  0
 42 74  1  0
 43 75  1  0
 43 76  1  0
M  END
>  <meeko>  (3) 
{"is_sidechain": [false], "free_energy": -7.76, "intermolecular_energy": -11.472, "internal_energy": -1.181}

$$$$
3gnw_ligand
     RDKit          3D

 76 81  0  0  0  0  0  0  0  0999 V2000
    9.6450   -3.0880   -9.5870 C   0  0  0  0  0  0  0  0  0  0  0  0
    9.5250   -2.1200   -8.4490 C   0  0  0  0  0  0  0  0  0  0  0  0
   10.5840   -1.2720   -8.1360 C   0  0  0  0  0  0  0  0  0  0  0  0
   10.4450   -0.3740   -7.0810 C   0  0  0  0  0  0  0  0  0  0  0  0
    9.2550   -0.3440   -6.3650 C   0  0  0  0  0  0  0  0  0  0  0  0
    8.2490   -1.2290   -6.7360 C   0  0  0  0  0  0  0  0  0  0  0  0
    6.9450   -1.2290   -6.0020 C   0  0  0  0  0  0  0  0  0  0  0  0
    6.0850   -0.4170   -6.3420 O   0  0  0  0  0  0  0  0  0  0  0  0
    6.8110   -2.0890   -4.8980 N   0  0  0  0  0  0  0  0  0  0  0  0
    6.8760   -1.6150   -3.5520 C   0  0  0  0  0  0  0  0  0  0  0  0
    7.8310   -0.6380   -3.2080 C   0  0  0  0  0  0  0  0  0  0  0  0
    7.9160   -0.1370   -1.9080 C   0  0  0  0  0  0  0  0  0  0  0  0
    7.0440   -0.5990   -0.9290 C   0  0  0  0  0  0  0  0  0  0  0  0
    6.1010   -1.5640   -1.2670 C   0  0  0  0  0  0  0  0  0  0  0  0
    5.2170   -2.0280   -0.3190 O   0  0  0  0  0  0  0  0  0  0  0  0
    6.0020   -2.1010   -2.5690 C   0  0  0  0  0  0  0  0  0  0  0  0
    4.9640   -3.0300   -2.8050 N   0  0  0  0  0  0  0  0  0  0  0  0
    4.9100   -4.0800   -3.6990 C   0  0  0  0  0  0  0  0  0  0  0  0
    5.8010   -4.3530   -4.6790 C   0  0  0  0  0  0  0  0  0  0  0  0
    7.0210   -3.5370   -5.1140 C   0  0  2  0  0  0  0  0  0  0  0  0
    8.3910   -3.9950   -4.6140 C   0  0  0  0  0  0  0  0  0  0  0  0
    9.5450   -3.4160   -5.1750 C   0  0  0  0  0  0  0  0  0  0  0  0
   10.8270   -3.7700   -4.7380 C   0  0  0  0  0  0  0  0  0  0  0  0
   10.9860   -4.7170   -3.7300 C   0  0  0  0  0  0  0  0  0  0  0  0
   12.1710   -5.1470   -3.2030 O   0  0  0  0  0  0  0  0  0  0  0  0
   13.3840   -4.7820   -3.8680 C   0  0  0  0  0  0  0  0  0  0  0  0
   14.1530   -3.6930   -3.1540 C   0  0  0  0  0  0  0  0  0  0  0  0
   14.1380   -2.3700   -3.6160 C   0  0  0  0  0  0  0  0  0  0  0  0
   14.8300   -1.3700   -2.9310 C   0  0  0  0  0  0  0  0  0  0  0  0
   15.5340   -1.6790   -1.7700 C   0  0  0  0  0  0  0  0  0  0  0  0
   15.5450   -2.9870   -1.2900 C   0  0  0  0  0  0  0  0  0  0  0  0
   14.8530   -3.9890   -1.9750 C   0  0  0  0  0  0  0  0  0  0  0  0
    9.8520   -5.2920   -3.1580 C   0  0  0  0  0  0  0  0  0  0  0  0
    8.5780   -4.9350   -3.5980 C   0  0  0  0  0  0  0  0  0  0  0  0
    7.5330   -5.5370   -3.0130 F   0  0  0  0  0  0  0  0  0  0  0  0
    5.5470   -5.8300   -5.5790 S   0  0  0  0  0  0  0  0  0  0  0  0
    6.7880   -6.2690   -6.1870 O   0  0  0  0  0  0  0  0  0  0  0  0
    4.3490   -5.7090   -6.3880 O   0  0  0  0  0  0  0  0  0  0  0  0
    5.2020   -6.9720   -4.2580 C   0  0  0  0  0  0  0  0  0  0  0  0
    4.0790   -6.5040   -3.3070 C   0  0  0  0  0  0  0  0  0  0  0  0
    2.8100   -7.3420   -3.5610 C   0  0  0  0  0  0  0  0  0  0  0  0
    4.5280   -6.7530   -1.8520 C   0  0  0  0  0  0  0  0  0  0  0  0
    3.7170   -5.0090   -3.4840 C   0  0  0  0  0  0  0  0  0  0  0  0
    8.3590   -2.1140   -7.7620 N   0  0  0  0  0  0  0  0  0  0  0  0
    9.7712   -4.1062   -9.1905 H   0  0  0  0  0  0  0  0  0  0  0  0
    8.7346   -3.0446  -10.2029 H   0  0  0  0  0  0  0  0  0  0  0  0
   10.5172   -2.8236  -10.2029 H   0  0  0  0  0  0  0  0  0  0  0  0
   11.5186   -1.3110   -8.7148 H   0  0  0  0  0  0  0  0  0  0  0  0
   11.2693    0.3049   -6.8171 H   0  0  0  0  0  0  0  0  0  0  0  0
    9.1130    0.3582   -5.5303 H   0  0  0  0  0  0  0  0  0  0  0  0
    8.5219   -0.2634   -3.9776 H   0  0  0  0  0  0  0  0  0  0  0  0
    8.6719    0.6223   -1.6586 H   0  0  0  0  0  0  0  0  0  0  0  0
    7.0989   -0.2074    0.0975 H   0  0  0  0  0  0  0  0  0  0  0  0
    5.3740   -2.9780   -0.1950 H   0  0  0  0  0  0  0  0  0  0  0  0
    4.4200   -3.1550   -1.9490 H   0  0  0  0  0  0  0  0  0  0  0  0
    7.0818   -3.7454   -6.1924 H   0  0  0  0  0  0  0  0  0  0  0  0
    9.4370   -2.6686   -5.9748 H   0  0  0  0  0  0  0  0  0  0  0  0
   11.7110   -3.2987   -5.1923 H   0  0  0  0  0  0  0  0  0  0  0  0
   14.0251   -5.6731   -3.9390 H   0  0  0  0  0  0  0  0  0  0  0  0
   13.1077   -4.3904   -4.8581 H   0  0  0  0  0  0  0  0  0  0  0  0
   13.5756   -2.1173   -4.5270 H   0  0  0  0  0  0  0  0  0  0  0  0
   14.8192   -0.3369   -3.3086 H   0  0  0  0  0  0  0  0  0  0  0  0
   16.0812   -0.8908   -1.2321 H   0  0  0  0  0  0  0  0  0  0  0  0
   16.0987   -3.2309   -0.3714 H   0  0  0  0  0  0  0  0  0  0  0  0
   14.8571   -5.0182   -1.5867 H   0  0  0  0  0  0  0  0  0  0  0  0
    9.9633   -6.0334   -2.3530 H   0  0  0  0  0  0  0  0  0  0  0  0
    4.9035   -7.9339   -4.7002 H   0  0  0  0  0  0  0  0  0  0  0  0
    6.1191   -7.0520   -3.6559 H   0  0  0  0  0  0  0  0  0  0  0  0
    2.3656   -7.6354   -2.5985 H   0  0  0  0  0  0  0  0  0  0  0  0
    2.0846   -6.7447   -4.1329 H   0  0  0  0  0  0  0  0  0  0  0  0
    3.0744   -8.2437   -4.1329 H   0  0  0  0  0  0  0  0  0  0  0  0
    3.7794   -6.3379   -1.1611 H   0  0  0  0  0  0  0  0  0  0  0  0
    4.6268   -7.8348   -1.6788 H   0  0  0  0  0  0  0  0  0  0  0  0
    5.4979   -6.2639   -1.6788 H   0  0  0  0  0  0  0  0  0  0  0  0
    3.0524   -4.9192   -4.3559 H   0  0  0  0  0  0  0  0  0  0  0  0
    3.2448   -4.6922   -2.5424 H   0  0  0  0  0  0  0  0  0  0  0  0
  1  2  1  0
  2  3  2  0
  3  4  1  0
  4  5  2  0
  5  6  1  0
  6  7  1  0
  7  8  2  0
  7  9  1  0
  9 10  1  0
 10 11  2  0
 11 12  1  0
 12 13  2  0
 13 14  1  0
 14 15  1  0
 14 16  2  0
 16 17  1  0
 17 18  1  0
 18 19  2  0
 19 20  1  0
 20 21  1  0
 21 22  2  0
 22 23  1  0
 23 24  2  0
 24 25  1  0
 25 26  1  0
 26 27  1  0
 27 28  2  0
 28 29  1  0
 29 30  2  0
 30 31  1  0
 31 32  2  0
 24 33  1  0
 33 34  2  0
 34 35  1  0
 19 36  1  0
 36 37  2  0
 36 38  2  0
 36 39  1  0
 39 40  1  0
 40 41  1  0
 40 42  1  0
 40 43  1  0
  6 44  2  0
 44  2  1  0
 20  9  1  0
 34 21  1  0
 16 10  1  0
 43 18  1  0
 32 27  1  0
  1 45  1  0
  1 46  1  0
  1 47  1  0
  3 48  1  0
  4 49  1  0
  5 50  1  0
 11 51  1  0
 12 52  1  0
 13 53  1  0
 15 54  1  0
 17 55  1  0
 20 56  1  6
 22 57  1  0
 23 58  1  0
 26 59  1  0
 26 60  1  0
 28 61  1  0
 29 62  1  0
 30 63  1  0
 31 64  1  0
 32 65  1  0
 33 66  1  0
 39 67  1  0
 39 68  1  0
 41 69  1  0
 41 70  1  0
 41 71  1  0
 42 72  1  0
 42 73  1  0
 42 74  1  0
 43 75  1  0
 43 76  1  0
M  END
>  <meeko>  (4) 
{"is_sidechain": [false], "free_energy": -7.753, "intermolecular_energy": -12.502, "internal_energy": -0.14}

$$$$
3gnw_ligand
     RDKit          3D

 76 81  0  0  0  0  0  0  0  0999 V2000
    9.7100   -2.5870   -6.0620 C   0  0  0  0  0  0  0  0  0  0  0  0
    9.9080   -3.6970   -5.0740 C   0  0  0  0  0  0  0  0  0  0  0  0
   11.1490   -3.8840   -4.4700 C   0  0  0  0  0  0  0  0  0  0  0  0
   11.3060   -4.9160   -3.5490 C   0  0  0  0  0  0  0  0  0  0  0  0
   10.2230   -5.7340   -3.2530 C   0  0  0  0  0  0  0  0  0  0  0  0
    9.0210   -5.4860   -3.9050 C   0  0  0  0  0  0  0  0  0  0  0  0
    7.8230   -6.3330   -3.6130 C   0  0  0  0  0  0  0  0  0  0  0  0
    8.0040   -7.4660   -3.1670 O   0  0  0  0  0  0  0  0  0  0  0  0
    6.5580   -5.8260   -3.9580 N   0  0  0  0  0  0  0  0  0  0  0  0
    6.0800   -5.8260   -5.3040 C   0  0  0  0  0  0  0  0  0  0  0  0
    6.9660   -5.5100   -6.3530 C   0  0  0  0  0  0  0  0  0  0  0  0
    6.5420   -5.5150   -7.6830 C   0  0  0  0  0  0  0  0  0  0  0  0
    5.2260   -5.8420   -7.9900 C   0  0  0  0  0  0  0  0  0  0  0  0
    4.3500   -6.1530   -6.9550 C   0  0  0  0  0  0  0  0  0  0  0  0
    3.0450   -6.4940   -7.2340 O   0  0  0  0  0  0  0  0  0  0  0  0
    4.7450   -6.1400   -5.6000 C   0  0  0  0  0  0  0  0  0  0  0  0
    3.7830   -6.5350   -4.6440 N   0  0  0  0  0  0  0  0  0  0  0  0
    3.6680   -6.1850   -3.3150 C   0  0  0  0  0  0  0  0  0  0  0  0
    4.5420   -5.4420   -2.5970 C   0  0  0  0  0  0  0  0  0  0  0  0
    5.8900   -4.9130   -3.0050 C   0  0  2  0  0  0  0  0  0  0  0  0
    6.0060   -3.4520   -3.4400 C   0  0  0  0  0  0  0  0  0  0  0  0
    7.1740   -2.7380   -3.1110 C   0  0  0  0  0  0  0  0  0  0  0  0
    7.3530   -1.4080   -3.5080 C   0  0  0  0  0  0  0  0  0  0  0  0
    6.3640   -0.7560   -4.2400 C   0  0  0  0  0  0  0  0  0  0  0  0
    6.4110    0.5310   -4.6980 O   0  0  0  0  0  0  0  0  0  0  0  0
    6.1730    0.7670   -6.0890 C   0  0  0  0  0  0  0  0  0  0  0  0
    7.3930    0.5330   -6.9520 C   0  0  0  0  0  0  0  0  0  0  0  0
    7.3160   -0.2230   -8.1300 C   0  0  0  0  0  0  0  0  0  0  0  0
    8.4440   -0.4070   -8.9310 C   0  0  0  0  0  0  0  0  0  0  0  0
    9.6580    0.1720   -8.5700 C   0  0  0  0  0  0  0  0  0  0  0  0
    9.7450    0.9400   -7.4110 C   0  0  0  0  0  0  0  0  0  0  0  0
    8.6170    1.1250   -6.6080 C   0  0  0  0  0  0  0  0  0  0  0  0
    5.2060   -1.4530   -4.5800 C   0  0  0  0  0  0  0  0  0  0  0  0
    5.0330   -2.7790   -4.1820 C   0  0  0  0  0  0  0  0  0  0  0  0
    3.8910   -3.3830   -4.5330 F   0  0  0  0  0  0  0  0  0  0  0  0
    4.0730   -5.0460   -0.9610 S   0  0  0  0  0  0  0  0  0  0  0  0
    4.7810   -3.8650   -0.5050 O   0  0  0  0  0  0  0  0  0  0  0  0
    4.0740   -6.2470   -0.1470 O   0  0  0  0  0  0  0  0  0  0  0  0
    2.3800   -4.5550   -1.2070 C   0  0  0  0  0  0  0  0  0  0  0  0
    1.5330   -5.5970   -1.9680 C   0  0  0  0  0  0  0  0  0  0  0  0
    0.5640   -6.2860   -0.9860 C   0  0  0  0  0  0  0  0  0  0  0  0
    0.6890   -4.8660   -3.0320 C   0  0  0  0  0  0  0  0  0  0  0  0
    2.3880   -6.6920   -2.6530 C   0  0  0  0  0  0  0  0  0  0  0  0
    8.8410   -4.4850   -4.8070 N   0  0  0  0  0  0  0  0  0  0  0  0
    9.5415   -1.6427   -5.5236 H   0  0  0  0  0  0  0  0  0  0  0  0
   10.6058   -2.4942   -6.6937 H   0  0  0  0  0  0  0  0  0  0  0  0
    8.8374   -2.8097   -6.6937 H   0  0  0  0  0  0  0  0  0  0  0  0
   11.9941   -3.2248   -4.7175 H   0  0  0  0  0  0  0  0  0  0  0  0
   12.2776   -5.0820   -3.0607 H   0  0  0  0  0  0  0  0  0  0  0  0
   10.3140   -6.5532   -2.5246 H   0  0  0  0  0  0  0  0  0  0  0  0
    8.0103   -5.2548   -6.1198 H   0  0  0  0  0  0  0  0  0  0  0  0
    7.2482   -5.2606   -8.4871 H   0  0  0  0  0  0  0  0  0  0  0  0
    4.8828   -5.8546   -9.0350 H   0  0  0  0  0  0  0  0  0  0  0  0
    2.9950   -6.7690   -8.1640 H   0  0  0  0  0  0  0  0  0  0  0  0
    2.9020   -6.7480   -5.1180 H   0  0  0  0  0  0  0  0  0  0  0  0
    6.4277   -4.8938   -2.0456 H   0  0  0  0  0  0  0  0  0  0  0  0
    7.9632   -3.2365   -2.5291 H   0  0  0  0  0  0  0  0  0  0  0  0
    8.2780   -0.8759   -3.2409 H   0  0  0  0  0  0  0  0  0  0  0  0
    5.3723    0.0922   -6.4258 H   0  0  0  0  0  0  0  0  0  0  0  0
    5.8951    1.8258   -6.1973 H   0  0  0  0  0  0  0  0  0  0  0  0
    6.3579   -0.6753   -8.4257 H   0  0  0  0  0  0  0  0  0  0  0  0
    8.3741   -1.0100   -9.8484 H   0  0  0  0  0  0  0  0  0  0  0  0
   10.5476    0.0230   -9.1996 H   0  0  0  0  0  0  0  0  0  0  0  0
   10.7027    1.4011   -7.1279 H   0  0  0  0  0  0  0  0  0  0  0  0
    8.6893    1.7398   -5.6987 H   0  0  0  0  0  0  0  0  0  0  0  0
    4.4215   -0.9533   -5.1673 H   0  0  0  0  0  0  0  0  0  0  0  0
    1.9208   -4.3879   -0.2215 H   0  0  0  0  0  0  0  0  0  0  0  0
    2.3971   -3.6443   -1.8237 H   0  0  0  0  0  0  0  0  0  0  0  0
    0.8718   -6.0671    0.0471 H   0  0  0  0  0  0  0  0  0  0  0  0
   -0.4560   -5.9092   -1.1523 H   0  0  0  0  0  0  0  0  0  0  0  0
    0.5849   -7.3732   -1.1523 H   0  0  0  0  0  0  0  0  0  0  0  0
   -0.0525   -4.2238   -2.5342 H   0  0  0  0  0  0  0  0  0  0  0  0
    1.3468   -4.2475   -3.6603 H   0  0  0  0  0  0  0  0  0  0  0  0
    0.1707   -5.6053   -3.6603 H   0  0  0  0  0  0  0  0  0  0  0  0
    2.6678   -7.4343   -1.8909 H   0  0  0  0  0  0  0  0  0  0  0  0
    1.7673   -7.1102   -3.4591 H   0  0  0  0  0  0  0  0  0  0  0  0
  1  2  1  0
  2  3  2  0
  3  4  1  0
  4  5  2  0
  5  6  1  0
  6  7  1  0
  7  8  2  0
  7  9  1  0
  9 10  1  0
 10 11  2  0
 11 12  1  0
 12 13  2  0
 13 14  1  0
 14 15  1  0
 14 16  2  0
 16 17  1  0
 17 18  1  0
 18 19  2  0
 19 20  1  0
 20 21  1  0
 21 22  2  0
 22 23  1  0
 23 24  2  0
 24 25  1  0
 25 26  1  0
 26 27  1  0
 27 28  2  0
 28 29  1  0
 29 30  2  0
 30 31  1  0
 31 32  2  0
 24 33  1  0
 33 34  2  0
 34 35  1  0
 19 36  1  0
 36 37  2  0
 36 38  2  0
 36 39  1  0
 39 40  1  0
 40 41  1  0
 40 42  1  0
 40 43  1  0
  6 44  2  0
 44  2  1  0
 20  9  1  0
 34 21  1  0
 16 10  1  0
 43 18  1  0
 32 27  1  0
  1 45  1  0
  1 46  1  0
  1 47  1  0
  3 48  1  0
  4 49  1  0
  5 50  1  0
 11 51  1  0
 12 52  1  0
 13 53  1  0
 15 54  1  0
 17 55  1  0
 20 56  1  1
 22 57  1  0
 23 58  1  0
 26 59  1  0
 26 60  1  0
 28 61  1  0
 29 62  1  0
 30 63  1  0
 31 64  1  0
 32 65  1  0
 33 66  1  0
 39 67  1  0
 39 68  1  0
 41 69  1  0
 41 70  1  0
 41 71  1  0
 42 72  1  0
 42 73  1  0
 42 74  1  0
 43 75  1  0
 43 76  1  0
M  END
>  <meeko>  (5) 
{"is_sidechain": [false], "free_energy": -6.893, "intermolecular_energy": -10.989, "internal_energy": -0.264}

$$$$
3gnw_ligand
     RDKit          3D

 76 81  0  0  0  0  0  0  0  0999 V2000
   11.9870   -5.1630   -4.3010 C   0  0  0  0  0  0  0  0  0  0  0  0
   12.9720   -4.1170   -3.8750 C   0  0  0  0  0  0  0  0  0  0  0  0
   12.8240   -2.8000   -4.3030 C   0  0  0  0  0  0  0  0  0  0  0  0
   13.7460   -1.8430   -3.8860 C   0  0  0  0  0  0  0  0  0  0  0  0
   14.7900   -2.2240   -3.0520 C   0  0  0  0  0  0  0  0  0  0  0  0
   14.8710   -3.5600   -2.6770 C   0  0  0  0  0  0  0  0  0  0  0  0
   15.9730   -4.0160   -1.7720 C   0  0  0  0  0  0  0  0  0  0  0  0
   15.6690   -4.6140   -0.7400 O   0  0  0  0  0  0  0  0  0  0  0  0
   17.2890   -3.6500   -2.1010 N   0  0  0  0  0  0  0  0  0  0  0  0
   17.9460   -2.5400   -1.4880 C   0  0  0  0  0  0  0  0  0  0  0  0
   17.2240   -1.3530   -1.2500 C   0  0  0  0  0  0  0  0  0  0  0  0
   17.8250   -0.2520   -0.6370 C   0  0  0  0  0  0  0  0  0  0  0  0
   19.1560   -0.3190   -0.2450 C   0  0  0  0  0  0  0  0  0  0  0  0
   19.8710   -1.4890   -0.4790 C   0  0  0  0  0  0  0  0  0  0  0  0
   21.1880   -1.5840   -0.0880 O   0  0  0  0  0  0  0  0  0  0  0  0
   19.2950   -2.6130   -1.1120 C   0  0  0  0  0  0  0  0  0  0  0  0
   20.1030   -3.7640   -1.2380 N   0  0  0  0  0  0  0  0  0  0  0  0
   20.0600   -4.7700   -2.1820 C   0  0  0  0  0  0  0  0  0  0  0  0
   19.1280   -4.9310   -3.1490 C   0  0  0  0  0  0  0  0  0  0  0  0
   17.8520   -4.1460   -3.3760 C   0  0  2  0  0  0  0  0  0  0  0  0
   17.8570   -3.0630   -4.4550 C   0  0  0  0  0  0  0  0  0  0  0  0
   18.8940   -2.1110   -4.4540 C   0  0  0  0  0  0  0  0  0  0  0  0
   18.9720   -1.1140   -5.4340 C   0  0  0  0  0  0  0  0  0  0  0  0
   18.0090   -1.0410   -6.4370 C   0  0  0  0  0  0  0  0  0  0  0  0
   17.9670   -0.1300   -7.4550 O   0  0  0  0  0  0  0  0  0  0  0  0
   16.9190    0.8430   -7.4550 C   0  0  0  0  0  0  0  0  0  0  0  0
   15.7940    0.5100   -8.4100 C   0  0  0  0  0  0  0  0  0  0  0  0
   16.0000    0.4910   -9.7970 C   0  0  0  0  0  0  0  0  0  0  0  0
   14.9600    0.1550  -10.6650 C   0  0  0  0  0  0  0  0  0  0  0  0
   13.7070   -0.1780  -10.1560 C   0  0  0  0  0  0  0  0  0  0  0  0
   13.4930   -0.1790   -8.7800 C   0  0  0  0  0  0  0  0  0  0  0  0
   14.5320    0.1570   -7.9100 C   0  0  0  0  0  0  0  0  0  0  0  0
   16.9810   -1.9820   -6.4560 C   0  0  0  0  0  0  0  0  0  0  0  0
   16.9090   -2.9730   -5.4770 C   0  0  0  0  0  0  0  0  0  0  0  0
   15.8870   -3.8370   -5.5490 F   0  0  0  0  0  0  0  0  0  0  0  0
   19.3990   -6.2260   -4.2900 S   0  0  0  0  0  0  0  0  0  0  0  0
   18.6790   -5.9700   -5.5230 O   0  0  0  0  0  0  0  0  0  0  0  0
   19.2540   -7.5050   -3.6210 O   0  0  0  0  0  0  0  0  0  0  0  0
   21.1250   -5.9930   -4.6570 C   0  0  0  0  0  0  0  0  0  0  0  0
   22.0260   -5.9350   -3.4050 C   0  0  0  0  0  0  0  0  0  0  0  0
   22.8390   -7.2400   -3.2970 C   0  0  0  0  0  0  0  0  0  0  0  0
   23.0220   -4.7680   -3.5680 C   0  0  0  0  0  0  0  0  0  0  0  0
   21.2280   -5.7500   -2.0910 C   0  0  0  0  0  0  0  0  0  0  0  0
   13.9840   -4.5120   -3.0690 N   0  0  0  0  0  0  0  0  0  0  0  0
   11.5439   -5.6335   -3.4109 H   0  0  0  0  0  0  0  0  0  0  0  0
   11.1932   -4.6959   -4.9024 H   0  0  0  0  0  0  0  0  0  0  0  0
   12.5009   -5.9273   -4.9024 H   0  0  0  0  0  0  0  0  0  0  0  0
   11.9894   -2.5191   -4.9621 H   0  0  0  0  0  0  0  0  0  0  0  0
   13.6488   -0.7973   -4.2132 H   0  0  0  0  0  0  0  0  0  0  0  0
   15.5300   -1.4906   -2.6992 H   0  0  0  0  0  0  0  0  0  0  0  0
   16.1682   -1.2931   -1.5527 H   0  0  0  0  0  0  0  0  0  0  0  0
   17.2455    0.6670   -0.4647 H   0  0  0  0  0  0  0  0  0  0  0  0
   19.6377    0.5409    0.2435 H   0  0  0  0  0  0  0  0  0  0  0  0
   21.6200   -0.7320   -0.2620 H   0  0  0  0  0  0  0  0  0  0  0  0
   21.0270   -3.5770   -0.8410 H   0  0  0  0  0  0  0  0  0  0  0  0
   17.1840   -4.9014   -3.8155 H   0  0  0  0  0  0  0  0  0  0  0  0
   19.6601   -2.1513   -3.6657 H   0  0  0  0  0  0  0  0  0  0  0  0
   19.7965   -0.3862   -5.4114 H   0  0  0  0  0  0  0  0  0  0  0  0
   16.5053    0.9107   -6.4380 H   0  0  0  0  0  0  0  0  0  0  0  0
   17.3581    1.7951   -7.7878 H   0  0  0  0  0  0  0  0  0  0  0  0
   16.9901    0.7432  -10.2045 H   0  0  0  0  0  0  0  0  0  0  0  0
   15.1300    0.1532  -11.7518 H   0  0  0  0  0  0  0  0  0  0  0  0
   12.8869   -0.4401  -10.8406 H   0  0  0  0  0  0  0  0  0  0  0  0
   12.5042   -0.4448   -8.3780 H   0  0  0  0  0  0  0  0  0  0  0  0
   14.3595    0.1448   -6.8237 H   0  0  0  0  0  0  0  0  0  0  0  0
   16.2202   -1.9428   -7.2495 H   0  0  0  0  0  0  0  0  0  0  0  0
   21.4613   -6.8290   -5.2878 H   0  0  0  0  0  0  0  0  0  0  0  0
   21.2165   -5.0205   -5.1628 H   0  0  0  0  0  0  0  0  0  0  0  0
   22.9940   -7.4888   -2.2368 H   0  0  0  0  0  0  0  0  0  0  0  0
   22.2893   -8.0562   -3.7886 H   0  0  0  0  0  0  0  0  0  0  0  0
   23.8139   -7.1064   -3.7886 H   0  0  0  0  0  0  0  0  0  0  0  0
   23.3298   -4.4073   -2.5754 H   0  0  0  0  0  0  0  0  0  0  0  0
   23.9063   -5.1154   -4.1224 H   0  0  0  0  0  0  0  0  0  0  0  0
   22.5400   -3.9493   -4.1224 H   0  0  0  0  0  0  0  0  0  0  0  0
   20.8291   -6.7306   -1.7922 H   0  0  0  0  0  0  0  0  0  0  0  0
   21.9313   -5.3256   -1.3594 H   0  0  0  0  0  0  0  0  0  0  0  0
  1  2  1  0
  2  3  2  0
  3  4  1  0
  4  5  2  0
  5  6  1  0
  6  7  1  0
  7  8  2  0
  7  9  1  0
  9 10  1  0
 10 11  2  0
 11 12  1  0
 12 13  2  0
 13 14  1  0
 14 15  1  0
 14 16  2  0
 16 17  1  0
 17 18  1  0
 18 19  2  0
 19 20  1  0
 20 21  1  0
 21 22  2  0
 22 23  1  0
 23 24  2  0
 24 25  1  0
 25 26  1  0
 26 27  1  0
 27 28  2  0
 28 29  1  0
 29 30  2  0
 30 31  1  0
 31 32  2  0
 24 33  1  0
 33 34  2  0
 34 35  1  0
 19 36  1  0
 36 37  2  0
 36 38  2  0
 36 39  1  0
 39 40  1  0
 40 41  1  0
 40 42  1  0
 40 43  1  0
  6 44  2  0
 44  2  1  0
 20  9  1  0
 34 21  1  0
 16 10  1  0
 43 18  1  0
 32 27  1  0
  1 45  1  0
  1 46  1  0
  1 47  1  0
  3 48  1  0
  4 49  1  0
  5 50  1  0
 11 51  1  0
 12 52  1  0
 13 53  1  0
 15 54  1  0
 17 55  1  0
 20 56  1  6
 22 57  1  0
 23 58  1  0
 26 59  1  0
 26 60  1  0
 28 61  1  0
 29 62  1  0
 30 63  1  0
 31 64  1  0
 32 65  1  0
 33 66  1  0
 39 67  1  0
 39 68  1  0
 41 69  1  0
 41 70  1  0
 41 71  1  0
 42 72  1  0
 42 73  1  0
 42 74  1  0
 43 75  1  0
 43 76  1  0
M  END
>  <meeko>  (6) 
{"is_sidechain": [false], "free_energy": -6.71, "intermolecular_energy": -10.188, "internal_energy": -0.77}

$$$$
3gnw_ligand
     RDKit          3D

 76 81  0  0  0  0  0  0  0  0999 V2000
    5.4820   -4.0320   -4.0140 C   0  0  0  0  0  0  0  0  0  0  0  0
    4.5710   -4.2130   -2.8370 C   0  0  0  0  0  0  0  0  0  0  0  0
    4.6860   -5.3430   -2.0300 C   0  0  0  0  0  0  0  0  0  0  0  0
    3.8360   -5.4840   -0.9370 C   0  0  0  0  0  0  0  0  0  0  0  0
    2.8950   -4.4960   -0.6750 C   0  0  0  0  0  0  0  0  0  0  0  0
    2.8400   -3.4040   -1.5330 C   0  0  0  0  0  0  0  0  0  0  0  0
    1.8500   -2.3090   -1.2870 C   0  0  0  0  0  0  0  0  0  0  0  0
    0.7460   -2.6110   -0.8350 O   0  0  0  0  0  0  0  0  0  0  0  0
    2.2000   -1.0060   -1.6810 N   0  0  0  0  0  0  0  0  0  0  0  0
    1.8240   -0.4660   -2.9490 C   0  0  0  0  0  0  0  0  0  0  0  0
    1.8780   -1.2870   -4.0930 C   0  0  0  0  0  0  0  0  0  0  0  0
    1.5030   -0.8030   -5.3480 C   0  0  0  0  0  0  0  0  0  0  0  0
    1.0620    0.5080   -5.4810 C   0  0  0  0  0  0  0  0  0  0  0  0
    1.0080    1.3200   -4.3530 C   0  0  0  0  0  0  0  0  0  0  0  0
    0.5610    2.6180   -4.4560 O   0  0  0  0  0  0  0  0  0  0  0  0
    1.3970    0.8640   -3.0740 C   0  0  0  0  0  0  0  0  0  0  0  0
    1.2390    1.7610   -1.9950 N   0  0  0  0  0  0  0  0  0  0  0  0
    1.9080    1.8140   -0.7890 C   0  0  0  0  0  0  0  0  0  0  0  0
    2.8450    0.9440   -0.3470 C   0  0  0  0  0  0  0  0  0  0  0  0
    3.3090   -0.3360   -0.9650 C   0  0  2  0  0  0  0  0  0  0  0  0
    4.5890   -0.3070   -1.8000 C   0  0  0  0  0  0  0  0  0  0  0  0
    4.6790    0.6040   -2.8710 C   0  0  0  0  0  0  0  0  0  0  0  0
    5.8360    0.7000   -3.6520 C   0  0  0  0  0  0  0  0  0  0  0  0
    6.9320   -0.1160   -3.3860 C   0  0  0  0  0  0  0  0  0  0  0  0
    8.1210   -0.1210   -4.0590 O   0  0  0  0  0  0  0  0  0  0  0  0
    8.4370   -1.2550   -4.8730 C   0  0  0  0  0  0  0  0  0  0  0  0
    8.7060   -0.8970   -6.3180 C   0  0  0  0  0  0  0  0  0  0  0  0
    7.6880   -0.9450   -7.2800 C   0  0  0  0  0  0  0  0  0  0  0  0
    7.9440   -0.5850   -8.6040 C   0  0  0  0  0  0  0  0  0  0  0  0
    9.2170   -0.1620   -8.9780 C   0  0  0  0  0  0  0  0  0  0  0  0
   10.2340   -0.0940   -8.0280 C   0  0  0  0  0  0  0  0  0  0  0  0
    9.9800   -0.4540   -6.7030 C   0  0  0  0  0  0  0  0  0  0  0  0
    6.8600   -1.0160   -2.3240 C   0  0  0  0  0  0  0  0  0  0  0  0
    5.7050   -1.1080   -1.5480 C   0  0  0  0  0  0  0  0  0  0  0  0
    5.7010   -2.0030   -0.5520 F   0  0  0  0  0  0  0  0  0  0  0  0
    3.6210    1.3340    1.1690 S   0  0  0  0  0  0  0  0  0  0  0  0
    4.9080    0.6720    1.2610 O   0  0  0  0  0  0  0  0  0  0  0  0
    2.6660    1.2090    2.2540 O   0  0  0  0  0  0  0  0  0  0  0  0
    3.9610    3.0650    0.9370 C   0  0  0  0  0  0  0  0  0  0  0  0
    2.7250    3.8930    0.5260 C   0  0  0  0  0  0  0  0  0  0  0  0
    2.2660    4.7560    1.7180 C   0  0  0  0  0  0  0  0  0  0  0  0
    3.1260    4.8450   -0.6210 C   0  0  0  0  0  0  0  0  0  0  0  0
    1.5300    3.0170    0.0720 C   0  0  0  0  0  0  0  0  0  0  0  0
    3.6590   -3.2410   -2.6060 N   0  0  0  0  0  0  0  0  0  0  0  0
    6.5033   -3.8291   -3.6594 H   0  0  0  0  0  0  0  0  0  0  0  0
    5.4806   -4.9480   -4.6231 H   0  0  0  0  0  0  0  0  0  0  0  0
    5.1305   -3.1861   -4.6231 H   0  0  0  0  0  0  0  0  0  0  0  0
    5.4386   -6.1134   -2.2538 H   0  0  0  0  0  0  0  0  0  0  0  0
    3.9085   -6.3686   -0.2872 H   0  0  0  0  0  0  0  0  0  0  0  0
    2.2142   -4.5756    0.1853 H   0  0  0  0  0  0  0  0  0  0  0  0
    2.2216   -2.3274   -3.9957 H   0  0  0  0  0  0  0  0  0  0  0  0
    1.5566   -1.4584   -6.2298 H   0  0  0  0  0  0  0  0  0  0  0  0
    0.7600    0.8980   -6.4642 H   0  0  0  0  0  0  0  0  0  0  0  0
    1.1820    3.1930   -3.9790 H   0  0  0  0  0  0  0  0  0  0  0  0
    0.9010    2.6600   -2.3480 H   0  0  0  0  0  0  0  0  0  0  0  0
    3.6223   -0.9320   -0.0951 H   0  0  0  0  0  0  0  0  0  0  0  0
    3.8211    1.2539   -3.0981 H   0  0  0  0  0  0  0  0  0  0  0  0
    5.8797    1.4233   -4.4796 H   0  0  0  0  0  0  0  0  0  0  0  0
    9.3333   -1.7418   -4.4611 H   0  0  0  0  0  0  0  0  0  0  0  0
    7.5612   -1.9204   -4.8594 H   0  0  0  0  0  0  0  0  0  0  0  0
    6.6780   -1.2694   -6.9890 H   0  0  0  0  0  0  0  0  0  0  0  0
    7.1396   -0.6354   -9.3526 H   0  0  0  0  0  0  0  0  0  0  0  0
    9.4194    0.1181  -10.0223 H   0  0  0  0  0  0  0  0  0  0  0  0
   11.2386    0.2438   -8.3223 H   0  0  0  0  0  0  0  0  0  0  0  0
   10.7847   -0.3897   -5.9558 H   0  0  0  0  0  0  0  0  0  0  0  0
    7.7223   -1.6597   -2.0959 H   0  0  0  0  0  0  0  0  0  0  0  0
    4.3521    3.4712    1.8814 H   0  0  0  0  0  0  0  0  0  0  0  0
    4.6862    3.1415    0.1134 H   0  0  0  0  0  0  0  0  0  0  0  0
    2.5334    4.2532    2.6591 H   0  0  0  0  0  0  0  0  0  0  0  0
    2.7615    5.7370    1.6727 H   0  0  0  0  0  0  0  0  0  0  0  0
    1.1756    4.8935    1.6727 H   0  0  0  0  0  0  0  0  0  0  0  0
    3.5204    5.7813   -0.1994 H   0  0  0  0  0  0  0  0  0  0  0  0
    3.8994    4.3674   -1.2405 H   0  0  0  0  0  0  0  0  0  0  0  0
    2.2440    5.0647   -1.2405 H   0  0  0  0  0  0  0  0  0  0  0  0
    1.0165    2.6462    0.9713 H   0  0  0  0  0  0  0  0  0  0  0  0
    0.8959    3.6600   -0.5561 H   0  0  0  0  0  0  0  0  0  0  0  0
  1  2  1  0
  2  3  2  0
  3  4  1  0
  4  5  2  0
  5  6  1  0
  6  7  1  0
  7  8  2  0
  7  9  1  0
  9 10  1  0
 10 11  2  0
 11 12  1  0
 12 13  2  0
 13 14  1  0
 14 15  1  0
 14 16  2  0
 16 17  1  0
 17 18  1  0
 18 19  2  0
 19 20  1  0
 20 21  1  0
 21 22  2  0
 22 23  1  0
 23 24  2  0
 24 25  1  0
 25 26  1  0
 26 27  1  0
 27 28  2  0
 28 29  1  0
 29 30  2  0
 30 31  1  0
 31 32  2  0
 24 33  1  0
 33 34  2  0
 34 35  1  0
 19 36  1  0
 36 37  2  0
 36 38  2  0
 36 39  1  0
 39 40  1  0
 40 41  1  0
 40 42  1  0
 40 43  1  0
  6 44  2  0
 44  2  1  0
 20  9  1  0
 34 21  1  0
 16 10  1  0
 43 18  1  0
 32 27  1  0
  1 45  1  0
  1 46  1  0
  1 47  1  0
  3 48  1  0
  4 49  1  0
  5 50  1  0
 11 51  1  0
 12 52  1  0
 13 53  1  0
 15 54  1  0
 17 55  1  0
 20 56  1  1
 22 57  1  0
 23 58  1  0
 26 59  1  0
 26 60  1  0
 28 61  1  0
 29 62  1  0
 30 63  1  0
 31 64  1  0
 32 65  1  0
 33 66  1  0
 39 67  1  0
 39 68  1  0
 41 69  1  0
 41 70  1  0
 41 71  1  0
 42 72  1  0
 42 73  1  0
 42 74  1  0
 43 75  1  0
 43 76  1  0
M  END
>  <meeko>  (7) 
{"is_sidechain": [false], "free_energy": -6.454, "intermolecular_energy": -10.232, "internal_energy": -0.312}

$$$$
3gnw_ligand
     RDKit          3D

 76 81  0  0  0  0  0  0  0  0999 V2000
    3.7160   -6.5110   -3.3510 C   0  0  0  0  0  0  0  0  0  0  0  0
    2.7090   -5.5260   -2.8370 C   0  0  0  0  0  0  0  0  0  0  0  0
    2.1240   -5.7120   -1.5860 C   0  0  0  0  0  0  0  0  0  0  0  0
    1.2000   -4.7790   -1.1250 C   0  0  0  0  0  0  0  0  0  0  0  0
    0.8820   -3.6860   -1.9210 C   0  0  0  0  0  0  0  0  0  0  0  0
    1.5040   -3.5780   -3.1600 C   0  0  0  0  0  0  0  0  0  0  0  0
    1.2020   -2.4130   -4.0490 C   0  0  0  0  0  0  0  0  0  0  0  0
    0.6200   -2.6260   -5.1120 O   0  0  0  0  0  0  0  0  0  0  0  0
    1.6890   -1.1510   -3.6680 N   0  0  0  0  0  0  0  0  0  0  0  0
    1.4660    0.0210   -4.4540 C   0  0  0  0  0  0  0  0  0  0  0  0
    1.5610   -0.0590   -5.8570 C   0  0  0  0  0  0  0  0  0  0  0  0
    1.3330    1.0590   -6.6620 C   0  0  0  0  0  0  0  0  0  0  0  0
    0.9990    2.2750   -6.0790 C   0  0  0  0  0  0  0  0  0  0  0  0
    0.9050    2.3560   -4.6940 C   0  0  0  0  0  0  0  0  0  0  0  0
    0.5630    3.5470   -4.0930 O   0  0  0  0  0  0  0  0  0  0  0  0
    1.1470    1.2470   -3.8540 C   0  0  0  0  0  0  0  0  0  0  0  0
    0.9600    1.4380   -2.4670 N   0  0  0  0  0  0  0  0  0  0  0  0
    1.5640    0.8020   -1.4020 C   0  0  0  0  0  0  0  0  0  0  0  0
    2.3950   -0.2630   -1.4630 C   0  0  0  0  0  0  0  0  0  0  0  0
    2.7850   -1.0980   -2.6760 C   0  0  2  0  0  0  0  0  0  0  0  0
    4.1380   -0.8300   -3.3360 C   0  0  0  0  0  0  0  0  0  0  0  0
    4.7740   -1.8800   -4.0260 C   0  0  0  0  0  0  0  0  0  0  0  0
    5.9980   -1.6900   -4.6780 C   0  0  0  0  0  0  0  0  0  0  0  0
    6.6200   -0.4440   -4.6510 C   0  0  0  0  0  0  0  0  0  0  0  0
    7.8050   -0.1170   -5.2480 O   0  0  0  0  0  0  0  0  0  0  0  0
    7.8240    0.0660   -6.6670 C   0  0  0  0  0  0  0  0  0  0  0  0
    9.1090   -0.4030   -7.3130 C   0  0  0  0  0  0  0  0  0  0  0  0
   10.3490    0.1340   -6.9380 C   0  0  0  0  0  0  0  0  0  0  0  0
   11.5280   -0.3280   -7.5220 C   0  0  0  0  0  0  0  0  0  0  0  0
   11.4840   -1.3400   -8.4780 C   0  0  0  0  0  0  0  0  0  0  0  0
   10.2610   -1.8930   -8.8480 C   0  0  0  0  0  0  0  0  0  0  0  0
    9.0790   -1.4320   -8.2650 C   0  0  0  0  0  0  0  0  0  0  0  0
    5.9970    0.6070   -3.9790 C   0  0  0  0  0  0  0  0  0  0  0  0
    4.7770    0.4110   -3.3320 C   0  0  0  0  0  0  0  0  0  0  0  0
    4.2420    1.4610   -2.6960 F   0  0  0  0  0  0  0  0  0  0  0  0
    3.1200   -0.7790    0.0410 S   0  0  0  0  0  0  0  0  0  0  0  0
    4.3370   -1.5260   -0.2160 O   0  0  0  0  0  0  0  0  0  0  0  0
    2.1000   -1.3370    0.9090 O   0  0  0  0  0  0  0  0  0  0  0  0
    3.6240    0.7850    0.7240 C   0  0  0  0  0  0  0  0  0  0  0  0
    2.4900    1.8300    0.7910 C   0  0  0  0  0  0  0  0  0  0  0  0
    2.0450    2.0120    2.2550 C   0  0  0  0  0  0  0  0  0  0  0  0
    3.0350    3.1840    0.2900 C   0  0  0  0  0  0  0  0  0  0  0  0
    1.2490    1.4350   -0.0480 C   0  0  0  0  0  0  0  0  0  0  0  0
    2.4110   -4.4730   -3.6330 N   0  0  0  0  0  0  0  0  0  0  0  0
    4.2164   -7.0004   -2.5024 H   0  0  0  0  0  0  0  0  0  0  0  0
    3.2071   -7.2696   -3.9638 H   0  0  0  0  0  0  0  0  0  0  0  0
    4.4632   -5.9855   -3.9638 H   0  0  0  0  0  0  0  0  0  0  0  0
    2.3890   -6.5847   -0.9710 H   0  0  0  0  0  0  0  0  0  0  0  0
    0.7263   -4.9058   -0.1403 H   0  0  0  0  0  0  0  0  0  0  0  0
    0.1600   -2.9288   -1.5815 H   0  0  0  0  0  0  0  0  0  0  0  0
    1.8194   -1.0194   -6.3270 H   0  0  0  0  0  0  0  0  0  0  0  0
    1.4177    0.9770   -7.7557 H   0  0  0  0  0  0  0  0  0  0  0  0
    0.8117    3.1607   -6.7038 H   0  0  0  0  0  0  0  0  0  0  0  0
   -0.1180    3.9770   -4.6370 H   0  0  0  0  0  0  0  0  0  0  0  0
    0.6690    2.4030   -2.2930 H   0  0  0  0  0  0  0  0  0  0  0  0
    2.9470   -2.0920   -2.2336 H   0  0  0  0  0  0  0  0  0  0  0  0
    4.2984   -2.8715   -4.0532 H   0  0  0  0  0  0  0  0  0  0  0  0
    6.4700   -2.5271   -5.2132 H   0  0  0  0  0  0  0  0  0  0  0  0
    6.9872   -0.4992   -7.1033 H   0  0  0  0  0  0  0  0  0  0  0  0
    7.7384    1.1460   -6.8577 H   0  0  0  0  0  0  0  0  0  0  0  0
   10.3920    0.9266   -6.1765 H   0  0  0  0  0  0  0  0  0  0  0  0
   12.4942    0.1074   -7.2272 H   0  0  0  0  0  0  0  0  0  0  0  0
   12.4143   -1.7019   -8.9401 H   0  0  0  0  0  0  0  0  0  0  0  0
   10.2259   -2.6943   -9.6008 H   0  0  0  0  0  0  0  0  0  0  0  0
    8.1168   -1.8795   -8.5548 H   0  0  0  0  0  0  0  0  0  0  0  0
    6.4717    1.5991   -3.9590 H   0  0  0  0  0  0  0  0  0  0  0  0
    3.9983    0.6135    1.7441 H   0  0  0  0  0  0  0  0  0  0  0  0
    4.3963    1.1927    0.0551 H   0  0  0  0  0  0  0  0  0  0  0  0
    2.8511    1.6823    2.9269 H   0  0  0  0  0  0  0  0  0  0  0  0
    1.8231    3.0731    2.4416 H   0  0  0  0  0  0  0  0  0  0  0  0
    1.1431    1.4105    2.4416 H   0  0  0  0  0  0  0  0  0  0  0  0
    3.2902    3.8181    1.1519 H   0  0  0  0  0  0  0  0  0  0  0  0
    3.9348    3.0142   -0.3195 H   0  0  0  0  0  0  0  0  0  0  0  0
    2.2685    3.6849   -0.3195 H   0  0  0  0  0  0  0  0  0  0  0  0
    0.6563    0.7156    0.5361 H   0  0  0  0  0  0  0  0  0  0  0  0
    0.7105    2.3700   -0.2620 H   0  0  0  0  0  0  0  0  0  0  0  0
  1  2  1  0
  2  3  2  0
  3  4  1  0
  4  5  2  0
  5  6  1  0
  6  7  1  0
  7  8  2  0
  7  9  1  0
  9 10  1  0
 10 11  2  0
 11 12  1  0
 12 13  2  0
 13 14  1  0
 14 15  1  0
 14 16  2  0
 16 17  1  0
 17 18  1  0
 18 19  2  0
 19 20  1  0
 20 21  1  0
 21 22  2  0
 22 23  1  0
 23 24  2  0
 24 25  1  0
 25 26  1  0
 26 27  1  0
 27 28  2  0
 28 29  1  0
 29 30  2  0
 30 31  1  0
 31 32  2  0
 24 33  1  0
 33 34  2  0
 34 35  1  0
 19 36  1  0
 36 37  2  0
 36 38  2  0
 36 39  1  0
 39 40  1  0
 40 41  1  0
 40 42  1  0
 40 43  1  0
  6 44  2  0
 44  2  1  0
 20  9  1  0
 34 21  1  0
 16 10  1  0
 43 18  1  0
 32 27  1  0
  1 45  1  0
  1 46  1  0
  1 47  1  0
  3 48  1  0
  4 49  1  0
  5 50  1  0
 11 51  1  0
 12 52  1  0
 13 53  1  0
 15 54  1  0
 17 55  1  0
 20 56  1  1
 22 57  1  0
 23 58  1  0
 26 59  1  0
 26 60  1  0
 28 61  1  0
 29 62  1  0
 30 63  1  0
 31 64  1  0
 32 65  1  0
 33 66  1  0
 39 67  1  0
 39 68  1  0
 41 69  1  0
 41 70  1  0
 41 71  1  0
 42 72  1  0
 42 73  1  0
 42 74  1  0
 43 75  1  0
 43 76  1  0
M  END
>  <meeko>  (8) 
{"is_sidechain": [false], "free_energy": -6.137, "intermolecular_energy": -9.443, "internal_energy": -0.591}

$$$$
3gnw_ligand
     RDKit          3D

 76 81  0  0  0  0  0  0  0  0999 V2000
    3.2620   -8.0620   -3.1890 C   0  0  0  0  0  0  0  0  0  0  0  0
    2.7510   -6.8610   -2.4520 C   0  0  0  0  0  0  0  0  0  0  0  0
    1.4320   -6.8210   -2.0080 C   0  0  0  0  0  0  0  0  0  0  0  0
    0.9820   -5.6990   -1.3170 C   0  0  0  0  0  0  0  0  0  0  0  0
    1.8590   -4.6460   -1.0860 C   0  0  0  0  0  0  0  0  0  0  0  0
    3.1570   -4.7610   -1.5690 C   0  0  0  0  0  0  0  0  0  0  0  0
    4.1420   -3.6580   -1.3380 C   0  0  0  0  0  0  0  0  0  0  0  0
    5.0710   -3.8600   -0.5560 O   0  0  0  0  0  0  0  0  0  0  0  0
    3.8950   -2.4170   -1.9490 N   0  0  0  0  0  0  0  0  0  0  0  0
    3.1350   -2.2990   -3.1530 C   0  0  0  0  0  0  0  0  0  0  0  0
    3.3040   -3.2560   -4.1740 C   0  0  0  0  0  0  0  0  0  0  0  0
    2.5670   -3.1860   -5.3580 C   0  0  0  0  0  0  0  0  0  0  0  0
    1.6460   -2.1630   -5.5420 C   0  0  0  0  0  0  0  0  0  0  0  0
    1.4780   -1.2170   -4.5350 C   0  0  0  0  0  0  0  0  0  0  0  0
    0.5610   -0.2020   -4.6870 O   0  0  0  0  0  0  0  0  0  0  0  0
    2.2200   -1.2520   -3.3340 C   0  0  0  0  0  0  0  0  0  0  0  0
    1.9170   -0.2740   -2.3620 N   0  0  0  0  0  0  0  0  0  0  0  0
    2.7070    0.2390   -1.3530 C   0  0  0  0  0  0  0  0  0  0  0  0
    3.9630   -0.1510   -1.0340 C   0  0  0  0  0  0  0  0  0  0  0  0
    4.7660   -1.2770   -1.5870 C   0  0  2  0  0  0  0  0  0  0  0  0
    5.7820   -0.9660   -2.6860 C   0  0  0  0  0  0  0  0  0  0  0  0
    6.8530   -1.8570   -2.8890 C   0  0  0  0  0  0  0  0  0  0  0  0
    7.7990   -1.6450   -3.8990 C   0  0  0  0  0  0  0  0  0  0  0  0
    7.7000   -0.5310   -4.7290 C   0  0  0  0  0  0  0  0  0  0  0  0
    8.5430   -0.2070   -5.7540 O   0  0  0  0  0  0  0  0  0  0  0  0
    9.7500   -0.9590   -5.9060 C   0  0  0  0  0  0  0  0  0  0  0  0
    9.8270   -1.7090   -7.2180 C   0  0  0  0  0  0  0  0  0  0  0  0
   10.6390   -1.2560   -8.2670 C   0  0  0  0  0  0  0  0  0  0  0  0
   10.7200   -1.9720   -9.4620 C   0  0  0  0  0  0  0  0  0  0  0  0
   10.0020   -3.1560   -9.6160 C   0  0  0  0  0  0  0  0  0  0  0  0
    9.2040   -3.6260   -8.5760 C   0  0  0  0  0  0  0  0  0  0  0  0
    9.1210   -2.9100   -7.3800 C   0  0  0  0  0  0  0  0  0  0  0  0
    6.6400    0.3560   -4.5450 C   0  0  0  0  0  0  0  0  0  0  0  0
    5.7000    0.1380   -3.5370 C   0  0  0  0  0  0  0  0  0  0  0  0
    4.7150    1.0370   -3.4090 F   0  0  0  0  0  0  0  0  0  0  0  0
    4.7750    0.7680    0.2100 S   0  0  0  0  0  0  0  0  0  0  0  0
    6.2130    0.6220    0.0880 O   0  0  0  0  0  0  0  0  0  0  0  0
    4.1320    0.5340    1.4900 O   0  0  0  0  0  0  0  0  0  0  0  0
    4.3930    2.4310   -0.2970 C   0  0  0  0  0  0  0  0  0  0  0  0
    2.8860    2.6850   -0.5130 C   0  0  0  0  0  0  0  0  0  0  0  0
    2.3400    3.5490    0.6400 C   0  0  0  0  0  0  0  0  0  0  0  0
    2.7020    3.4750   -1.8260 C   0  0  0  0  0  0  0  0  0  0  0  0
    2.0530    1.3800   -0.5790 C   0  0  0  0  0  0  0  0  0  0  0  0
    3.6210   -5.8460   -2.2450 N   0  0  0  0  0  0  0  0  0  0  0  0
    3.5866   -8.8250   -2.4662 H   0  0  0  0  0  0  0  0  0  0  0  0
    2.4607   -8.4728   -3.8208 H   0  0  0  0  0  0  0  0  0  0  0  0
    4.1136   -7.7695   -3.8208 H   0  0  0  0  0  0  0  0  0  0  0  0
    0.7538   -7.6653   -2.2007 H   0  0  0  0  0  0  0  0  0  0  0  0
   -0.0564   -5.6467   -0.9579 H   0  0  0  0  0  0  0  0  0  0  0  0
    1.5357   -3.7489   -0.5376 H   0  0  0  0  0  0  0  0  0  0  0  0
    4.0288   -4.0718   -4.0357 H   0  0  0  0  0  0  0  0  0  0  0  0
    2.7158   -3.9406   -6.1444 H   0  0  0  0  0  0  0  0  0  0  0  0
    1.0581   -2.1013   -6.4697 H   0  0  0  0  0  0  0  0  0  0  0  0
    1.0180    0.6440   -4.5460 H   0  0  0  0  0  0  0  0  0  0  0  0
    1.2120    0.3670   -2.7330 H   0  0  0  0  0  0  0  0  0  0  0  0
    5.4231   -1.5451   -0.7466 H   0  0  0  0  0  0  0  0  0  0  0  0
    6.9486   -2.7396   -2.2394 H   0  0  0  0  0  0  0  0  0  0  0  0
    8.6230   -2.3605   -4.0375 H   0  0  0  0  0  0  0  0  0  0  0  0
   10.6025   -0.2661   -5.8494 H   0  0  0  0  0  0  0  0  0  0  0  0
    9.7705   -1.7082   -5.1009 H   0  0  0  0  0  0  0  0  0  0  0  0
   11.2174   -0.3280   -8.1471 H   0  0  0  0  0  0  0  0  0  0  0  0
   11.3512   -1.6013  -10.2831 H   0  0  0  0  0  0  0  0  0  0  0  0
   10.0654   -3.7193  -10.5587 H   0  0  0  0  0  0  0  0  0  0  0  0
    8.6387   -4.5619   -8.6967 H   0  0  0  0  0  0  0  0  0  0  0  0
    8.4968   -3.2910   -6.5583 H   0  0  0  0  0  0  0  0  0  0  0  0
    6.5440    1.2347   -5.1997 H   0  0  0  0  0  0  0  0  0  0  0  0
    4.7535    3.1219    0.4794 H   0  0  0  0  0  0  0  0  0  0  0  0
    4.8876    2.5924   -1.2662 H   0  0  0  0  0  0  0  0  0  0  0  0
    2.6247    3.0986    1.6023 H   0  0  0  0  0  0  0  0  0  0  0  0
    2.7620    4.5624    0.5704 H   0  0  0  0  0  0  0  0  0  0  0  0
    1.2435    3.6028    0.5704 H   0  0  0  0  0  0  0  0  0  0  0  0
    2.4581    4.5220   -1.5929 H   0  0  0  0  0  0  0  0  0  0  0  0
    3.6331    3.4368   -2.4105 H   0  0  0  0  0  0  0  0  0  0  0  0
    1.8836    3.0293   -2.4105 H   0  0  0  0  0  0  0  0  0  0  0  0
    1.8743    1.0362    0.4505 H   0  0  0  0  0  0  0  0  0  0  0  0
    1.1291    1.6307   -1.1208 H   0  0  0  0  0  0  0  0  0  0  0  0
  1  2  1  0
  2  3  2  0
  3  4  1  0
  4  5  2  0
  5  6  1  0
  6  7  1  0
  7  8  2  0
  7  9  1  0
  9 10  1  0
 10 11  2  0
 11 12  1  0
 12 13  2  0
 13 14  1  0
 14 15  1  0
 14 16  2  0
 16 17  1  0
 17 18  1  0
 18 19  2  0
 19 20  1  0
 20 21  1  0
 21 22  2  0
 22 23  1  0
 23 24  2  0
 24 25  1  0
 25 26  1  0
 26 27  1  0
 27 28  2  0
 28 29  1  0
 29 30  2  0
 30 31  1  0
 31 32  2  0
 24 33  1  0
 33 34  2  0
 34 35  1  0
 19 36  1  0
 36 37  2  0
 36 38  2  0
 36 39  1  0
 39 40  1  0
 40 41  1  0
 40 42  1  0
 40 43  1  0
  6 44  2  0
 44  2  1  0
 20  9  1  0
 34 21  1  0
 16 10  1  0
 43 18  1  0
 32 27  1  0
  1 45  1  0
  1 46  1  0
  1 47  1  0
  3 48  1  0
  4 49  1  0
  5 50  1  0
 11 51  1  0
 12 52  1  0
 13 53  1  0
 15 54  1  0
 17 55  1  0
 20 56  1  1
 22 57  1  0
 23 58  1  0
 26 59  1  0
 26 60  1  0
 28 61  1  0
 29 62  1  0
 30 63  1  0
 31 64  1  0
 32 65  1  0
 33 66  1  0
 39 67  1  0
 39 68  1  0
 41 69  1  0
 41 70  1  0
 41 71  1  0
 42 72  1  0
 42 73  1  0
 42 74  1  0
 43 75  1  0
 43 76  1  0
M  END
>  <meeko>  (9) 
{"is_sidechain": [false], "free_energy": -6.113, "intermolecular_energy": -9.56, "internal_energy": -0.435}

$$$$
