
     RDKit          3D

 34 38  0  0  0  0  0  0  0  0999 V2000
   -2.1150   10.2420   10.3290 O   0  0  0  0  0  0  0  0  0  0  0  0
   -2.0670    9.0020   10.3490 C   0  0  0  0  0  0  0  0  0  0  0  0
   -2.9620    8.3130   10.8900 O   0  0  0  0  0  0  0  0  0  0  0  0
   -0.8890    8.3220    9.7230 C   0  0  0  0  0  0  0  0  0  0  0  0
   -0.9490    6.9750    9.3830 C   0  0  0  0  0  0  0  0  0  0  0  0
    0.1560    6.3470    8.8140 C   0  0  0  0  0  0  0  0  0  0  0  0
    1.3190    7.0680    8.5900 C   0  0  0  0  0  0  0  0  0  0  0  0
    2.4800    6.5180    8.0440 N   0  0  0  0  0  0  0  0  0  0  0  0
    2.7700    5.2090    7.7770 C   0  0  0  0  0  0  0  0  0  0  0  0
    4.0340    4.9040    7.4520 N   0  0  0  0  0  0  0  0  0  0  0  0
    4.3520    3.6380    7.1980 C   0  0  0  0  0  0  0  0  0  0  0  0
    3.4040    2.6230    7.2260 C   0  0  0  0  0  0  0  0  0  0  0  0
    2.0800    2.9760    7.5320 C   0  0  0  0  0  0  0  0  0  0  0  0
    1.7940    4.2690    7.8310 N   0  0  0  0  0  0  0  0  0  0  0  0
    0.9630    2.0460    7.5630 C   0  0  0  0  0  0  0  0  0  0  0  0
   -0.0720    2.3670    8.4450 C   0  0  0  0  0  0  0  0  0  0  0  0
   -1.2030    1.5710    8.5410 C   0  0  0  0  0  0  0  0  0  0  0  0
   -1.3070    0.4420    7.7600 C   0  0  0  0  0  0  0  0  0  0  0  0
   -2.7460   -0.5500    7.9240 Cl  0  0  0  0  0  0  0  0  0  0  0  0
   -0.3050    0.0960    6.8820 C   0  0  0  0  0  0  0  0  0  0  0  0
    0.8450    0.8810    6.7540 C   0  0  0  0  0  0  0  0  0  0  0  0
    1.8390    0.4650    5.7470 C   0  0  0  0  0  0  0  0  0  0  0  0
    1.3040   -0.1850    4.5340 C   0  0  0  0  0  0  0  0  0  0  0  0
    0.4700    0.5360    3.6700 C   0  0  0  0  0  0  0  0  0  0  0  0
    0.1780    1.8390    3.9140 F   0  0  0  0  0  0  0  0  0  0  0  0
   -0.0390   -0.0770    2.5500 C   0  0  0  0  0  0  0  0  0  0  0  0
    0.2390   -1.4000    2.2920 C   0  0  0  0  0  0  0  0  0  0  0  0
    1.0550   -2.1320    3.1460 C   0  0  0  0  0  0  0  0  0  0  0  0
    1.5820   -1.5210    4.2810 C   0  0  0  0  0  0  0  0  0  0  0  0
    2.3810   -2.2290    5.1450 F   0  0  0  0  0  0  0  0  0  0  0  0
    3.1260    0.6230    5.8430 N   0  0  0  0  0  0  0  0  0  0  0  0
    3.8150    1.2120    6.9690 C   0  0  0  0  0  0  0  0  0  0  0  0
    1.3690    8.3920    8.9300 C   0  0  0  0  0  0  0  0  0  0  0  0
    0.2700    9.0310    9.4840 C   0  0  0  0  0  0  0  0  0  0  0  0
  2  1  2  0
  3  2  1  0
  4  2  1  0
  5  4  2  0
  6  5  1  0
  7  6  2  0
  8  7  1  0
  9  8  1  0
 10  9  2  0
 11 10  1  0
 12 11  2  0
 13 12  1  0
 14 13  2  0
 14  9  1  0
 15 13  1  0
 16 15  2  0
 17 16  1  0
 18 17  2  0
 19 18  1  0
 20 18  1  0
 21 20  2  0
 21 15  1  0
 22 21  1  0
 23 22  1  0
 24 23  2  0
 25 24  1  0
 26 24  1  0
 27 26  2  0
 28 27  1  0
 29 28  2  0
 29 23  1  0
 30 29  1  0
 31 22  2  0
 32 31  1  0
 32 12  1  0
 33  7  1  0
 34 33  2  0
 34  4  1  0
M  CHG  1   3  -1
M  END
$$$$
