
     RDKit          3D

 18 19  0  0  0  0  0  0  0  0999 V2000
    5.0320   -0.4270   -8.3670 C   0  0  0  0  0  0  0  0  0  0  0  0
    6.0430   -0.6250   -7.2160 C   0  0  1  0  0  0  0  0  0  0  0  0
    6.0340    0.5780   -6.3490 N   0  0  0  0  0  0  0  0  0  0  0  0
    5.8460   -1.9220   -6.4130 C   0  0  1  0  0  0  0  0  0  0  0  0
    4.3810   -2.2370   -6.0870 C   0  0  0  0  0  0  0  0  0  0  0  0
    4.2250   -3.5130   -5.2860 C   0  0  0  0  0  0  0  0  0  0  0  0
    4.8940   -4.7140   -5.9870 C   0  0  2  0  0  0  0  0  0  0  0  0
    4.7340   -6.0080   -5.1700 C   0  0  0  0  0  0  0  0  0  0  0  0
    5.1570   -6.0900   -4.0420 O   0  0  0  0  0  0  0  0  0  0  0  0
    4.0680   -7.0450   -5.8160 N   0  0  0  0  0  0  0  0  0  0  0  0
    3.7010   -8.3030   -5.2910 C   0  0  0  0  0  0  0  0  0  0  0  0
    4.0600   -8.7370   -3.9970 C   0  0  0  0  0  0  0  0  0  0  0  0
    3.6480   -9.9750   -3.5280 C   0  0  0  0  0  0  0  0  0  0  0  0
    2.8930  -10.7990   -4.3190 N   0  0  0  0  0  0  0  0  0  0  0  0
    2.5260  -10.4030   -5.5750 C   0  0  0  0  0  0  0  0  0  0  0  0
    2.9160   -9.1660   -6.0790 C   0  0  0  0  0  0  0  0  0  0  0  0
    6.3500   -4.3900   -6.2700 C   0  0  0  0  0  0  0  0  0  0  0  0
    6.4930   -3.1240   -7.0930 C   0  0  0  0  0  0  0  0  0  0  0  0
  2  1  1  6
  3  2  1  0
  4  2  1  0
  4  5  1  6
  6  5  1  0
  7  6  1  0
  7  8  1  1
  9  8  2  0
 10  8  1  0
 11 10  1  0
 12 11  2  0
 13 12  1  0
 14 13  2  0
 15 14  1  0
 16 15  2  0
 16 11  1  0
 17  7  1  0
 18 17  1  0
 18  4  1  0
M  CHG  1   3   1
M  END
$$$$
