
     RDKit          3D

 28 32  0  0  0  0  0  0  0  0999 V2000
   -4.1640   -9.2780   13.9680 C   0  0  0  0  0  0  0  0  0  0  0  0
   -5.0050   -9.8070   15.1070 C   0  0  1  0  0  0  0  0  0  0  0  0
   -6.4050   -9.2070   15.0010 C   0  0  0  0  0  0  0  0  0  0  0  0
   -5.0880  -11.2900   15.1200 N   0  0  0  0  0  0  0  0  0  0  0  0
   -3.7820  -11.9350   14.8360 C   0  0  0  0  0  0  0  0  0  0  0  0
   -3.8030  -13.2400   15.5660 C   0  0  0  0  0  0  0  0  0  0  0  0
   -4.6010  -12.9720   16.8070 C   0  0  0  0  0  0  0  0  0  0  0  0
   -5.5690  -11.8420   16.4520 C   0  0  2  0  0  0  0  0  0  0  0  0
   -7.0290  -12.3460   16.3430 C   0  0  0  0  0  0  0  0  0  0  0  0
   -7.4290  -12.8010   15.3040 O   0  0  0  0  0  0  0  0  0  0  0  0
   -7.9040  -12.2290   17.4300 N   0  0  0  0  0  0  0  0  0  0  0  0
   -7.5170  -12.0550   18.8520 C   0  0  0  0  0  0  0  0  0  0  0  0
   -8.2530  -13.0880   19.7780 C   0  0  0  0  0  0  0  0  0  0  0  0
   -9.7340  -12.9730   19.6130 C   0  0  2  0  0  0  0  0  0  0  0  0
  -10.6090  -13.8480   20.4860 N   0  0  0  0  0  0  0  0  0  0  0  0
  -11.7520  -14.3600   20.0250 C   0  0  0  0  0  0  0  0  0  0  0  0
  -12.4020  -15.0460   20.9560 N   0  0  0  0  0  0  0  0  0  0  0  0
  -11.6920  -14.9800   22.0730 C   0  0  0  0  0  0  0  0  0  0  0  0
  -11.9240  -15.5130   23.3370 C   0  0  0  0  0  0  0  0  0  0  0  0
  -11.0660  -15.3190   24.3490 N   0  0  0  0  0  0  0  0  0  0  0  0
   -9.9640  -14.6160   24.1210 C   0  0  0  0  0  0  0  0  0  0  0  0
   -8.9860  -14.3210   24.9650 N   0  0  0  0  0  0  0  0  0  0  0  0
   -8.0630  -13.6070   24.3050 C   0  0  0  0  0  0  0  0  0  0  0  0
   -8.4550  -13.4280   23.0050 C   0  0  0  0  0  0  0  0  0  0  0  0
   -9.6610  -14.0580   22.8610 C   0  0  0  0  0  0  0  0  0  0  0  0
  -10.5520  -14.2360   21.8070 C   0  0  0  0  0  0  0  0  0  0  0  0
  -10.0020  -13.2770   18.1200 C   0  0  0  0  0  0  0  0  0  0  0  0
   -9.3400  -12.2690   17.2340 C   0  0  0  0  0  0  0  0  0  0  0  0
  2  1  1  6
  3  2  1  0
  4  2  1  0
  5  4  1  0
  6  5  1  0
  7  6  1  0
  8  4  1  0
  8  7  1  0
  8  9  1  6
 10  9  2  0
 11  9  1  0
 12 11  1  0
 13 12  1  0
 14 13  1  0
 14 15  1  1
 16 15  1  0
 17 16  2  0
 18 17  1  0
 19 18  2  0
 20 19  1  0
 21 20  2  0
 22 21  1  0
 23 22  1  0
 24 23  2  0
 25 24  1  0
 25 21  1  0
 26 18  1  0
 26 15  1  0
 26 25  2  0
 27 14  1  0
 28 27  1  0
 28 11  1  0
M  CHG  1   4   1
M  END
$$$$
