3f3d_ligand
     RDKit          3D

 20 19  0  0  0  0  0  0  0  0999 V2000
   -6.8020   -4.5460    3.1540 C   0  0  0  0  0  0  0  0  0  0  0  0
   -5.2490   -3.6640    2.8580 S   0  0  0  0  0  0  0  0  0  0  0  0
   -5.4120   -3.4380    1.0530 C   0  0  0  0  0  0  0  0  0  0  0  0
   -4.0560   -3.6230    0.3670 C   0  0  0  0  0  0  0  0  0  0  0  0
   -3.5500   -2.3590   -0.3210 C   0  0  2  0  0  0  0  0  0  0  0  0
   -3.2400   -2.6930   -1.7770 N   0  0  0  0  0  0  0  0  0  0  0  0
   -2.2540   -1.7600    0.3090 C   0  0  0  0  0  0  0  0  0  0  0  0
   -1.8210   -0.6820   -0.1450 O   0  0  0  0  0  0  0  0  0  0  0  0
   -1.8760   -2.5070    1.2730 O   0  0  0  0  0  0  0  0  0  0  0  0
   -6.9691   -4.6409    4.2371 H   0  0  0  0  0  0  0  0  0  0  0  0
   -7.6338   -3.9855    2.7024 H   0  0  0  0  0  0  0  0  0  0  0  0
   -6.7467   -5.5475    2.7024 H   0  0  0  0  0  0  0  0  0  0  0  0
   -6.1222   -4.1792    0.6577 H   0  0  0  0  0  0  0  0  0  0  0  0
   -5.7771   -2.4199    0.8526 H   0  0  0  0  0  0  0  0  0  0  0  0
   -3.3195   -3.9262    1.1257 H   0  0  0  0  0  0  0  0  0  0  0  0
   -4.1871   -4.3879   -0.4126 H   0  0  0  0  0  0  0  0  0  0  0  0
   -4.3451   -1.6073   -0.2081 H   0  0  0  0  0  0  0  0  0  0  0  0
   -3.4310   -1.9390   -2.4330 H   0  0  0  0  0  0  0  0  0  0  0  0
   -3.6150   -3.6000   -2.0600 H   0  0  0  0  0  0  0  0  0  0  0  0
   -2.2020   -2.8530   -1.7130 H   0  0  0  0  0  0  0  0  0  0  0  0
  1  2  1  0
  2  3  1  0
  3  4  1  0
  4  5  1  0
  5  6  1  0
  5  7  1  0
  7  8  2  0
  7  9  1  0
  1 10  1  0
  1 11  1  0
  1 12  1  0
  3 13  1  0
  3 14  1  0
  4 15  1  0
  4 16  1  0
  5 17  1  6
  6 18  1  0
  6 19  1  0
  6 20  1  0
M  CHG  2   6   1   9  -1
M  END
>  <meeko>  (1) 
{"is_sidechain": [false], "free_energy": -4.42, "intermolecular_energy": -5.583, "internal_energy": -0.112}

$$$$
3f3d_ligand
     RDKit          3D

 20 19  0  0  0  0  0  0  0  0999 V2000
   -0.5130   -1.9040    1.3000 C   0  0  0  0  0  0  0  0  0  0  0  0
   -1.5930   -1.5580    2.7110 S   0  0  0  0  0  0  0  0  0  0  0  0
   -1.5490   -3.2100    3.4900 C   0  0  0  0  0  0  0  0  0  0  0  0
   -2.7680   -4.0330    3.0670 C   0  0  0  0  0  0  0  0  0  0  0  0
   -3.8460   -3.2040    2.3770 C   0  0  2  0  0  0  0  0  0  0  0  0
   -5.1080   -3.2440    3.2350 N   0  0  0  0  0  0  0  0  0  0  0  0
   -4.2320   -3.7100    0.9520 C   0  0  0  0  0  0  0  0  0  0  0  0
   -5.4190   -3.5980    0.5870 O   0  0  0  0  0  0  0  0  0  0  0  0
   -3.1800   -4.1270    0.3600 O   0  0  0  0  0  0  0  0  0  0  0  0
    0.4756   -2.2207    1.6639 H   0  0  0  0  0  0  0  0  0  0  0  0
   -0.9532   -2.7061    0.6893 H   0  0  0  0  0  0  0  0  0  0  0  0
   -0.4051   -0.9954    0.6893 H   0  0  0  0  0  0  0  0  0  0  0  0
   -0.6329   -3.7331    3.1785 H   0  0  0  0  0  0  0  0  0  0  0  0
   -1.5626   -3.0890    4.5832 H   0  0  0  0  0  0  0  0  0  0  0  0
   -2.4348   -4.8191    2.3735 H   0  0  0  0  0  0  0  0  0  0  0  0
   -3.2135   -4.4493    3.9826 H   0  0  0  0  0  0  0  0  0  0  0  0
   -3.4305   -2.1920    2.2622 H   0  0  0  0  0  0  0  0  0  0  0  0
   -4.9780   -2.9260    4.1920 H   0  0  0  0  0  0  0  0  0  0  0  0
   -5.6110   -4.1290    3.1510 H   0  0  0  0  0  0  0  0  0  0  0  0
   -5.7080   -2.5570    2.7110 H   0  0  0  0  0  0  0  0  0  0  0  0
  1  2  1  0
  2  3  1  0
  3  4  1  0
  4  5  1  0
  5  6  1  0
  5  7  1  0
  7  8  2  0
  7  9  1  0
  1 10  1  0
  1 11  1  0
  1 12  1  0
  3 13  1  0
  3 14  1  0
  4 15  1  0
  4 16  1  0
  5 17  1  6
  6 18  1  0
  6 19  1  0
  6 20  1  0
M  CHG  2   6   1   9  -1
M  END
>  <meeko>  (2) 
{"is_sidechain": [false], "free_energy": -4.347, "intermolecular_energy": -5.366, "internal_energy": -0.237}

$$$$
3f3d_ligand
     RDKit          3D

 20 19  0  0  0  0  0  0  0  0999 V2000
   -1.6910    0.4360   -3.8820 C   0  0  0  0  0  0  0  0  0  0  0  0
   -3.0190   -0.7140   -3.4450 S   0  0  0  0  0  0  0  0  0  0  0  0
   -2.8070   -0.6870   -1.6310 C   0  0  0  0  0  0  0  0  0  0  0  0
   -3.2990   -2.0000   -1.0160 C   0  0  0  0  0  0  0  0  0  0  0  0
   -2.3690   -2.5470    0.0610 C   0  0  2  0  0  0  0  0  0  0  0  0
   -2.3110   -4.0660   -0.0770 N   0  0  0  0  0  0  0  0  0  0  0  0
   -2.8170   -2.2250    1.5220 C   0  0  0  0  0  0  0  0  0  0  0  0
   -2.1730   -1.3690    2.1610 O   0  0  0  0  0  0  0  0  0  0  0  0
   -3.8610   -2.9060    1.7950 O   0  0  0  0  0  0  0  0  0  0  0  0
   -1.2328    0.8328   -2.9641 H   0  0  0  0  0  0  0  0  0  0  0  0
   -0.9287   -0.0920   -4.4737 H   0  0  0  0  0  0  0  0  0  0  0  0
   -2.1046    1.2659   -4.4737 H   0  0  0  0  0  0  0  0  0  0  0  0
   -1.7416   -0.5520   -1.3927 H   0  0  0  0  0  0  0  0  0  0  0  0
   -3.3958    0.1441   -1.2155 H   0  0  0  0  0  0  0  0  0  0  0  0
   -4.2884   -1.8265   -0.5677 H   0  0  0  0  0  0  0  0  0  0  0  0
   -3.3352   -2.7451   -1.8244 H   0  0  0  0  0  0  0  0  0  0  0  0
   -1.3955   -2.0595   -0.0961 H   0  0  0  0  0  0  0  0  0  0  0  0
   -1.6900   -4.5260    0.5850 H   0  0  0  0  0  0  0  0  0  0  0  0
   -2.1910   -4.3670   -1.0450 H   0  0  0  0  0  0  0  0  0  0  0  0
   -3.3100   -4.3090    0.1460 H   0  0  0  0  0  0  0  0  0  0  0  0
  1  2  1  0
  2  3  1  0
  3  4  1  0
  4  5  1  0
  5  6  1  0
  5  7  1  0
  7  8  2  0
  7  9  1  0
  1 10  1  0
  1 11  1  0
  1 12  1  0
  3 13  1  0
  3 14  1  0
  4 15  1  0
  4 16  1  0
  5 17  1  6
  6 18  1  0
  6 19  1  0
  6 20  1  0
M  CHG  2   6   1   9  -1
M  END
>  <meeko>  (3) 
{"is_sidechain": [false], "free_energy": -4.327, "intermolecular_energy": -5.508, "internal_energy": -0.069}

$$$$
3f3d_ligand
     RDKit          3D

 20 19  0  0  0  0  0  0  0  0999 V2000
    5.7100   -0.2860    7.1790 C   0  0  0  0  0  0  0  0  0  0  0  0
    5.0440    0.0270    5.5260 S   0  0  0  0  0  0  0  0  0  0  0  0
    3.3750   -0.6730    5.7760 C   0  0  0  0  0  0  0  0  0  0  0  0
    2.3300    0.1530    5.0200 C   0  0  0  0  0  0  0  0  0  0  0  0
    2.8990    0.8800    3.8060 C   0  0  2  0  0  0  0  0  0  0  0  0
    2.2280    2.2470    3.7040 N   0  0  0  0  0  0  0  0  0  0  0  0
    2.6690    0.1430    2.4490 C   0  0  0  0  0  0  0  0  0  0  0  0
    2.1060   -0.9700    2.4700 O   0  0  0  0  0  0  0  0  0  0  0  0
    3.0830    0.8860    1.4970 O   0  0  0  0  0  0  0  0  0  0  0  0
    4.9875    0.0536    7.9358 H   0  0  0  0  0  0  0  0  0  0  0  0
    5.8917   -1.3638    7.3031 H   0  0  0  0  0  0  0  0  0  0  0  0
    6.6557    0.2619    7.3031 H   0  0  0  0  0  0  0  0  0  0  0  0
    3.3568   -1.7081    5.4042 H   0  0  0  0  0  0  0  0  0  0  0  0
    3.1370   -0.6524    6.8497 H   0  0  0  0  0  0  0  0  0  0  0  0
    1.5308   -0.5220    4.6799 H   0  0  0  0  0  0  0  0  0  0  0  0
    1.9568    0.9205    5.7141 H   0  0  0  0  0  0  0  0  0  0  0  0
    3.9859    0.9401    3.9645 H   0  0  0  0  0  0  0  0  0  0  0  0
    1.9390    2.5060    2.7630 H   0  0  0  0  0  0  0  0  0  0  0  0
    2.7440    2.9750    4.2000 H   0  0  0  0  0  0  0  0  0  0  0  0
    1.3790    2.0800    4.3030 H   0  0  0  0  0  0  0  0  0  0  0  0
  1  2  1  0
  2  3  1  0
  3  4  1  0
  4  5  1  0
  5  6  1  0
  5  7  1  0
  7  8  2  0
  7  9  1  0
  1 10  1  0
  1 11  1  0
  1 12  1  0
  3 13  1  0
  3 14  1  0
  4 15  1  0
  4 16  1  0
  5 17  1  1
  6 18  1  0
  6 19  1  0
  6 20  1  0
M  CHG  2   6   1   9  -1
M  END
>  <meeko>  (4) 
{"is_sidechain": [false], "free_energy": -4.288, "intermolecular_energy": -5.391, "internal_energy": -0.136}

$$$$
3f3d_ligand
     RDKit          3D

 20 19  0  0  0  0  0  0  0  0999 V2000
   -1.1320   -2.5840    3.4790 C   0  0  0  0  0  0  0  0  0  0  0  0
   -1.6620   -1.0610    2.6570 S   0  0  0  0  0  0  0  0  0  0  0  0
   -2.2470   -1.7950    1.0900 C   0  0  0  0  0  0  0  0  0  0  0  0
   -2.1580   -3.3220    1.1480 C   0  0  0  0  0  0  0  0  0  0  0  0
   -3.4900   -4.0150    0.8820 C   0  0  2  0  0  0  0  0  0  0  0  0
   -3.8490   -3.8220   -0.5880 N   0  0  0  0  0  0  0  0  0  0  0  0
   -4.6790   -3.4690    1.7320 C   0  0  0  0  0  0  0  0  0  0  0  0
   -4.5510   -3.4320    2.9720 O   0  0  0  0  0  0  0  0  0  0  0  0
   -5.6100   -3.0860    0.9460 O   0  0  0  0  0  0  0  0  0  0  0  0
   -1.1794   -2.4477    4.5695 H   0  0  0  0  0  0  0  0  0  0  0  0
   -1.7955   -3.4101    3.1835 H   0  0  0  0  0  0  0  0  0  0  0  0
   -0.0990   -2.8198    3.1835 H   0  0  0  0  0  0  0  0  0  0  0  0
   -3.2928   -1.4994    0.9198 H   0  0  0  0  0  0  0  0  0  0  0  0
   -1.6123   -1.4323    0.2681 H   0  0  0  0  0  0  0  0  0  0  0  0
   -1.4326   -3.6583    0.3925 H   0  0  0  0  0  0  0  0  0  0  0  0
   -1.8490   -3.5915    2.1687 H   0  0  0  0  0  0  0  0  0  0  0  0
   -3.3496   -5.0702    1.1590 H   0  0  0  0  0  0  0  0  0  0  0  0
   -4.6800   -3.2570   -0.7490 H   0  0  0  0  0  0  0  0  0  0  0  0
   -3.8280   -4.6960   -1.1150 H   0  0  0  0  0  0  0  0  0  0  0  0
   -2.9970   -3.3020   -0.9190 H   0  0  0  0  0  0  0  0  0  0  0  0
  1  2  1  0
  2  3  1  0
  3  4  1  0
  4  5  1  0
  5  6  1  0
  5  7  1  0
  7  8  2  0
  7  9  1  0
  1 10  1  0
  1 11  1  0
  1 12  1  0
  3 13  1  0
  3 14  1  0
  4 15  1  0
  4 16  1  0
  5 17  1  6
  6 18  1  0
  6 19  1  0
  6 20  1  0
M  CHG  2   6   1   9  -1
M  END
>  <meeko>  (5) 
{"is_sidechain": [false], "free_energy": -4.285, "intermolecular_energy": -5.311, "internal_energy": -0.213}

$$$$
3f3d_ligand
     RDKit          3D

 20 19  0  0  0  0  0  0  0  0999 V2000
    1.4170   -2.0460    1.0090 C   0  0  0  0  0  0  0  0  0  0  0  0
    0.9780   -0.3340    1.3980 S   0  0  0  0  0  0  0  0  0  0  0  0
    2.6660    0.3450    1.5510 C   0  0  0  0  0  0  0  0  0  0  0  0
    3.3600    0.3660    0.1860 C   0  0  0  0  0  0  0  0  0  0  0  0
    4.2870    1.5620   -0.0020 C   0  0  2  0  0  0  0  0  0  0  0  0
    4.0820    2.5190    1.1690 N   0  0  0  0  0  0  0  0  0  0  0  0
    4.0380    2.3680   -1.3160 C   0  0  0  0  0  0  0  0  0  0  0  0
    4.8180    3.3010   -1.5920 O   0  0  0  0  0  0  0  0  0  0  0  0
    3.0450    1.8570   -1.9350 O   0  0  0  0  0  0  0  0  0  0  0  0
    1.5613   -2.6088    1.9430 H   0  0  0  0  0  0  0  0  0  0  0  0
    0.6083   -2.5080    0.4238 H   0  0  0  0  0  0  0  0  0  0  0  0
    2.3483   -2.0618    0.4238 H   0  0  0  0  0  0  0  0  0  0  0  0
    2.6096    1.3707    1.9445 H   0  0  0  0  0  0  0  0  0  0  0  0
    3.2455   -0.2918    2.2356 H   0  0  0  0  0  0  0  0  0  0  0  0
    3.9528   -0.5547    0.0817 H   0  0  0  0  0  0  0  0  0  0  0  0
    2.5725    0.4414   -0.5783 H   0  0  0  0  0  0  0  0  0  0  0  0
    5.3077    1.1557   -0.0576 H   0  0  0  0  0  0  0  0  0  0  0  0
    3.6050    2.1110    1.9690 H   0  0  0  0  0  0  0  0  0  0  0  0
    3.7110    3.4240    0.8750 H   0  0  0  0  0  0  0  0  0  0  0  0
    5.0850    2.7220    1.4180 H   0  0  0  0  0  0  0  0  0  0  0  0
  1  2  1  0
  2  3  1  0
  3  4  1  0
  4  5  1  0
  5  6  1  0
  5  7  1  0
  7  8  2  0
  7  9  1  0
  1 10  1  0
  1 11  1  0
  1 12  1  0
  3 13  1  0
  3 14  1  0
  4 15  1  0
  4 16  1  0
  5 17  1  6
  6 18  1  0
  6 19  1  0
  6 20  1  0
M  CHG  2   6   1   9  -1
M  END
>  <meeko>  (6) 
{"is_sidechain": [false], "free_energy": -4.269, "intermolecular_energy": -5.424, "internal_energy": -0.081}

$$$$
3f3d_ligand
     RDKit          3D

 20 19  0  0  0  0  0  0  0  0999 V2000
    0.3770   -0.1830    2.1920 C   0  0  0  0  0  0  0  0  0  0  0  0
    1.1000   -1.5370    3.1520 S   0  0  0  0  0  0  0  0  0  0  0  0
    0.5700   -0.9970    4.8140 C   0  0  0  0  0  0  0  0  0  0  0  0
    1.7550   -0.4180    5.5920 C   0  0  0  0  0  0  0  0  0  0  0  0
    3.0440   -0.3680    4.7780 C   0  0  2  0  0  0  0  0  0  0  0  0
    4.1330   -1.1040    5.5530 N   0  0  0  0  0  0  0  0  0  0  0  0
    3.5670    1.0740    4.4900 C   0  0  0  0  0  0  0  0  0  0  0  0
    4.7990    1.2540    4.4260 O   0  0  0  0  0  0  0  0  0  0  0  0
    2.5690    1.8500    4.3100 O   0  0  0  0  0  0  0  0  0  0  0  0
   -0.0285    0.5763    2.8769 H   0  0  0  0  0  0  0  0  0  0  0  0
    1.1524    0.2717    1.5579 H   0  0  0  0  0  0  0  0  0  0  0  0
   -0.4322   -0.5744    1.5579 H   0  0  0  0  0  0  0  0  0  0  0  0
   -0.2084   -0.2263    4.7133 H   0  0  0  0  0  0  0  0  0  0  0  0
    0.1747   -1.8654    5.3614 H   0  0  0  0  0  0  0  0  0  0  0  0
    1.5003    0.6050    5.9059 H   0  0  0  0  0  0  0  0  0  0  0  0
    1.9370   -1.0815    6.4503 H   0  0  0  0  0  0  0  0  0  0  0  0
    2.8132   -0.8310    3.8073 H   0  0  0  0  0  0  0  0  0  0  0  0
    3.9250   -2.0810    5.7490 H   0  0  0  0  0  0  0  0  0  0  0  0
    4.4650   -0.5760    6.3620 H   0  0  0  0  0  0  0  0  0  0  0  0
    4.9250   -1.0410    4.8630 H   0  0  0  0  0  0  0  0  0  0  0  0
  1  2  1  0
  2  3  1  0
  3  4  1  0
  4  5  1  0
  5  6  1  0
  5  7  1  0
  7  8  2  0
  7  9  1  0
  1 10  1  0
  1 11  1  0
  1 12  1  0
  3 13  1  0
  3 14  1  0
  4 15  1  0
  4 16  1  0
  5 17  1  6
  6 18  1  0
  6 19  1  0
  6 20  1  0
M  CHG  2   6   1   9  -1
M  END
>  <meeko>  (7) 
{"is_sidechain": [false], "free_energy": -4.231, "intermolecular_energy": -5.228, "internal_energy": -0.228}

$$$$
3f3d_ligand
     RDKit          3D

 20 19  0  0  0  0  0  0  0  0999 V2000
    0.0500   -0.2670    0.8830 C   0  0  0  0  0  0  0  0  0  0  0  0
   -1.4500   -0.9250    1.6520 S   0  0  0  0  0  0  0  0  0  0  0  0
   -2.3340   -1.4160    0.1310 C   0  0  0  0  0  0  0  0  0  0  0  0
   -2.2490   -0.3060   -0.9190 C   0  0  0  0  0  0  0  0  0  0  0  0
   -3.0350   -0.6140   -2.1890 C   0  0  2  0  0  0  0  0  0  0  0  0
   -3.2620   -2.1210   -2.2620 N   0  0  0  0  0  0  0  0  0  0  0  0
   -2.3190   -0.1840   -3.5080 C   0  0  0  0  0  0  0  0  0  0  0  0
   -2.8190   -0.5400   -4.5940 O   0  0  0  0  0  0  0  0  0  0  0  0
   -1.3130    0.5450   -3.2160 O   0  0  0  0  0  0  0  0  0  0  0  0
    0.7576    0.0434    1.6660 H   0  0  0  0  0  0  0  0  0  0  0  0
    0.5129   -1.0447    0.2578 H   0  0  0  0  0  0  0  0  0  0  0  0
   -0.2087    0.6003    0.2578 H   0  0  0  0  0  0  0  0  0  0  0  0
   -1.8786   -2.3322   -0.2729 H   0  0  0  0  0  0  0  0  0  0  0  0
   -3.3915   -1.5948    0.3755 H   0  0  0  0  0  0  0  0  0  0  0  0
   -2.6455    0.6212   -0.4795 H   0  0  0  0  0  0  0  0  0  0  0  0
   -1.1915   -0.2101   -1.2061 H   0  0  0  0  0  0  0  0  0  0  0  0
   -3.9688   -0.0366   -2.1212 H   0  0  0  0  0  0  0  0  0  0  0  0
   -3.8140   -2.4270   -3.0600 H   0  0  0  0  0  0  0  0  0  0  0  0
   -3.5620   -2.5160   -1.3690 H   0  0  0  0  0  0  0  0  0  0  0  0
   -2.2690   -2.4530   -2.3690 H   0  0  0  0  0  0  0  0  0  0  0  0
  1  2  1  0
  2  3  1  0
  3  4  1  0
  4  5  1  0
  5  6  1  0
  5  7  1  0
  7  8  2  0
  7  9  1  0
  1 10  1  0
  1 11  1  0
  1 12  1  0
  3 13  1  0
  3 14  1  0
  4 15  1  0
  4 16  1  0
  5 17  1  1
  6 18  1  0
  6 19  1  0
  6 20  1  0
M  CHG  2   6   1   9  -1
M  END
>  <meeko>  (8) 
{"is_sidechain": [false], "free_energy": -4.227, "intermolecular_energy": -5.386, "internal_energy": -0.064}

$$$$
3f3d_ligand
     RDKit          3D

 20 19  0  0  0  0  0  0  0  0999 V2000
   -6.7140   -4.5520    2.9840 C   0  0  0  0  0  0  0  0  0  0  0  0
   -5.4730   -3.6260    2.0470 S   0  0  0  0  0  0  0  0  0  0  0  0
   -4.0820   -3.7840    3.2200 C   0  0  0  0  0  0  0  0  0  0  0  0
   -2.7610   -3.9430    2.4650 C   0  0  0  0  0  0  0  0  0  0  0  0
   -2.7540   -3.2490    1.1070 C   0  0  2  0  0  0  0  0  0  0  0  0
   -1.9850   -4.1240    0.1210 N   0  0  0  0  0  0  0  0  0  0  0  0
   -2.0820   -1.8400    1.1080 C   0  0  0  0  0  0  0  0  0  0  0  0
   -1.3750   -1.5250    2.0860 O   0  0  0  0  0  0  0  0  0  0  0  0
   -2.3560   -1.2480    0.0100 O   0  0  0  0  0  0  0  0  0  0  0  0
   -6.5351   -4.4185    4.0611 H   0  0  0  0  0  0  0  0  0  0  0  0
   -7.7177   -4.1803    2.7302 H   0  0  0  0  0  0  0  0  0  0  0  0
   -6.6435   -5.6200    2.7302 H   0  0  0  0  0  0  0  0  0  0  0  0
   -4.0338   -2.8823    3.8482 H   0  0  0  0  0  0  0  0  0  0  0  0
   -4.2436   -4.6738    3.8462 H   0  0  0  0  0  0  0  0  0  0  0  0
   -1.9544   -3.5161    3.0792 H   0  0  0  0  0  0  0  0  0  0  0  0
   -2.6183   -5.0182    2.2817 H   0  0  0  0  0  0  0  0  0  0  0  0
   -3.8087   -3.1063    0.8291 H   0  0  0  0  0  0  0  0  0  0  0  0
   -2.4110   -4.1970   -0.8000 H   0  0  0  0  0  0  0  0  0  0  0  0
   -1.7050   -5.0180    0.5260 H   0  0  0  0  0  0  0  0  0  0  0  0
   -1.0860   -3.5800    0.0540 H   0  0  0  0  0  0  0  0  0  0  0  0
  1  2  1  0
  2  3  1  0
  3  4  1  0
  4  5  1  0
  5  6  1  0
  5  7  1  0
  7  8  2  0
  7  9  1  0
  1 10  1  0
  1 11  1  0
  1 12  1  0
  3 13  1  0
  3 14  1  0
  4 15  1  0
  4 16  1  0
  5 17  1  6
  6 18  1  0
  6 19  1  0
  6 20  1  0
M  CHG  2   6   1   9  -1
M  END
>  <meeko>  (9) 
{"is_sidechain": [false], "free_energy": -4.207, "intermolecular_energy": -5.29, "internal_energy": -0.136}

$$$$
