3uo4_ligand
     RDKit          3D

 46 49  0  0  0  0  0  0  0  0999 V2000
   -6.8030    6.4840   10.4360 O   0  0  0  0  0  0  0  0  0  0  0  0
   -6.0530    5.4800   10.6500 C   0  0  0  0  0  0  0  0  0  0  0  0
   -6.4240    4.3630   11.1340 O   0  0  0  0  0  0  0  0  0  0  0  0
   -4.5850    5.6230   10.2960 C   0  0  0  0  0  0  0  0  0  0  0  0
   -4.0930    6.7890    9.6910 C   0  0  0  0  0  0  0  0  0  0  0  0
   -2.7360    6.9210    9.3630 C   0  0  0  0  0  0  0  0  0  0  0  0
   -1.8250    5.8960    9.6260 C   0  0  0  0  0  0  0  0  0  0  0  0
   -0.4590    5.9630    9.3270 N   0  0  0  0  0  0  0  0  0  0  0  0
    0.4810    5.0520    8.8590 C   0  0  0  0  0  0  0  0  0  0  0  0
    0.5870    4.7350    7.5620 N   0  0  0  0  0  0  0  0  0  0  0  0
    1.5270    3.8430    7.2200 C   0  0  0  0  0  0  0  0  0  0  0  0
    2.3630    3.2470    8.1270 C   0  0  0  0  0  0  0  0  0  0  0  0
    2.1970    3.6160    9.4460 C   0  0  0  0  0  0  0  0  0  0  0  0
    3.0530    3.0170   10.4040 N   0  0  0  0  0  0  0  0  0  0  0  0
    3.4980    1.6690   10.4550 C   0  0  0  0  0  0  0  0  0  0  0  0
    2.6090    0.6270   10.7710 C   0  0  0  0  0  0  0  0  0  0  0  0
    3.0470   -0.6950   10.8840 C   0  0  0  0  0  0  0  0  0  0  0  0
    4.3900   -0.9990   10.7020 C   0  0  0  0  0  0  0  0  0  0  0  0
    5.2960    0.0190   10.4150 C   0  0  0  0  0  0  0  0  0  0  0  0
    4.8730    1.3570   10.2950 C   0  0  0  0  0  0  0  0  0  0  0  0
    5.8760    2.3870    9.9850 C   0  0  0  0  0  0  0  0  0  0  0  0
    6.2780    2.6210    8.6620 C   0  0  0  0  0  0  0  0  0  0  0  0
    7.2440    3.5870    8.3710 C   0  0  0  0  0  0  0  0  0  0  0  0
    7.8180    4.3300    9.4000 C   0  0  0  0  0  0  0  0  0  0  0  0
    7.4270    4.1110   10.7200 C   0  0  0  0  0  0  0  0  0  0  0  0
    6.4620    3.1460   11.0100 C   0  0  0  0  0  0  0  0  0  0  0  0
    1.2680    4.5170    9.8080 N   0  0  0  0  0  0  0  0  0  0  0  0
   -2.3180    4.7310   10.2340 C   0  0  0  0  0  0  0  0  0  0  0  0
   -3.6730    4.5950   10.5630 C   0  0  0  0  0  0  0  0  0  0  0  0
   -4.7846    7.6153    9.4697 H   0  0  0  0  0  0  0  0  0  0  0  0
   -2.3827    7.8491    8.8898 H   0  0  0  0  0  0  0  0  0  0  0  0
   -0.0030    6.8440    9.5110 H   0  0  0  0  0  0  0  0  0  0  0  0
    1.6325    3.5761    6.1581 H   0  0  0  0  0  0  0  0  0  0  0  0
    3.1245    2.5147    7.8206 H   0  0  0  0  0  0  0  0  0  0  0  0
    3.8010    3.6640   10.6320 H   0  0  0  0  0  0  0  0  0  0  0  0
    1.5456    0.8573   10.9328 H   0  0  0  0  0  0  0  0  0  0  0  0
    2.3285   -1.4947   11.1170 H   0  0  0  0  0  0  0  0  0  0  0  0
    4.7366   -2.0397   10.7842 H   0  0  0  0  0  0  0  0  0  0  0  0
    6.3598   -0.2261   10.2798 H   0  0  0  0  0  0  0  0  0  0  0  0
    5.8280    2.0378    7.8451 H   0  0  0  0  0  0  0  0  0  0  0  0
    7.5515    3.7610    7.3293 H   0  0  0  0  0  0  0  0  0  0  0  0
    8.5799    5.0896    9.1709 H   0  0  0  0  0  0  0  0  0  0  0  0
    7.8791    4.6987   11.5325 H   0  0  0  0  0  0  0  0  0  0  0  0
    6.1570    2.9781   12.0535 H   0  0  0  0  0  0  0  0  0  0  0  0
   -1.6250    3.9064   10.4572 H   0  0  0  0  0  0  0  0  0  0  0  0
   -4.0253    3.6674   11.0378 H   0  0  0  0  0  0  0  0  0  0  0  0
  1  2  2  0
  2  3  1  0
  2  4  1  0
  4  5  2  0
  5  6  1  0
  6  7  2  0
  7  8  1  0
  8  9  1  0
  9 10  2  0
 10 11  1  0
 11 12  2  0
 12 13  1  0
 13 14  1  0
 14 15  1  0
 15 16  2  0
 16 17  1  0
 17 18  2  0
 18 19  1  0
 19 20  2  0
 20 21  1  0
 21 22  2  0
 22 23  1  0
 23 24  2  0
 24 25  1  0
 25 26  2  0
 13 27  2  0
  7 28  1  0
 28 29  2  0
 29  4  1  0
 27  9  1  0
 20 15  1  0
 26 21  1  0
  5 30  1  0
  6 31  1  0
  8 32  1  0
 11 33  1  0
 12 34  1  0
 14 35  1  0
 16 36  1  0
 17 37  1  0
 18 38  1  0
 19 39  1  0
 22 40  1  0
 23 41  1  0
 24 42  1  0
 25 43  1  0
 26 44  1  0
 28 45  1  0
 29 46  1  0
M  CHG  1   3  -1
M  END
>  <meeko>  (1) 
{"is_sidechain": [false], "free_energy": -8.599, "intermolecular_energy": -11.615, "internal_energy": -1.238}

$$$$
3uo4_ligand
     RDKit          3D

 46 49  0  0  0  0  0  0  0  0999 V2000
   -5.0080    5.6790   11.2730 O   0  0  0  0  0  0  0  0  0  0  0  0
   -4.4740    6.1360   10.2140 C   0  0  0  0  0  0  0  0  0  0  0  0
   -4.9660    7.0370    9.4620 O   0  0  0  0  0  0  0  0  0  0  0  0
   -3.1310    5.5580    9.8090 C   0  0  0  0  0  0  0  0  0  0  0  0
   -2.0760    6.3860    9.4000 C   0  0  0  0  0  0  0  0  0  0  0  0
   -0.8350    5.8510    9.0250 C   0  0  0  0  0  0  0  0  0  0  0  0
   -0.6050    4.4740    9.0450 C   0  0  0  0  0  0  0  0  0  0  0  0
    0.6090    3.8750    8.6860 N   0  0  0  0  0  0  0  0  0  0  0  0
    1.7500    3.4960    9.3840 C   0  0  0  0  0  0  0  0  0  0  0  0
    1.8080    3.5060   10.7220 N   0  0  0  0  0  0  0  0  0  0  0  0
    2.9580    3.1230   11.2930 C   0  0  0  0  0  0  0  0  0  0  0  0
    4.0600    2.7360   10.5770 C   0  0  0  0  0  0  0  0  0  0  0  0
    3.9330    2.7530    9.2030 C   0  0  0  0  0  0  0  0  0  0  0  0
    5.0580    2.3530    8.4390 N   0  0  0  0  0  0  0  0  0  0  0  0
    6.0190    1.3560    8.7570 C   0  0  0  0  0  0  0  0  0  0  0  0
    5.6510    0.0030    8.8490 C   0  0  0  0  0  0  0  0  0  0  0  0
    6.5730   -0.9790    9.2210 C   0  0  0  0  0  0  0  0  0  0  0  0
    7.8810   -0.6230    9.5280 C   0  0  0  0  0  0  0  0  0  0  0  0
    8.2640    0.7150    9.4700 C   0  0  0  0  0  0  0  0  0  0  0  0
    7.3490    1.7180    9.0950 C   0  0  0  0  0  0  0  0  0  0  0  0
    7.8140    3.1130    9.0480 C   0  0  0  0  0  0  0  0  0  0  0  0
    8.5840    3.5760    7.9710 C   0  0  0  0  0  0  0  0  0  0  0  0
    9.0390    4.8950    7.9360 C   0  0  0  0  0  0  0  0  0  0  0  0
    8.7300    5.7670    8.9780 C   0  0  0  0  0  0  0  0  0  0  0  0
    7.9650    5.3220   10.0550 C   0  0  0  0  0  0  0  0  0  0  0  0
    7.5090    4.0040   10.0890 C   0  0  0  0  0  0  0  0  0  0  0  0
    2.7840    3.1230    8.6120 N   0  0  0  0  0  0  0  0  0  0  0  0
   -1.6610    3.6460    9.4580 C   0  0  0  0  0  0  0  0  0  0  0  0
   -2.9020    4.1770    9.8320 C   0  0  0  0  0  0  0  0  0  0  0  0
   -2.2244    7.4756    9.3727 H   0  0  0  0  0  0  0  0  0  0  0  0
   -0.0281    6.5287    8.7093 H   0  0  0  0  0  0  0  0  0  0  0  0
    0.7450    3.6900    7.7050 H   0  0  0  0  0  0  0  0  0  0  0  0
    3.0204    3.1191   12.3912 H   0  0  0  0  0  0  0  0  0  0  0  0
    4.9941    2.4288   11.0699 H   0  0  0  0  0  0  0  0  0  0  0  0
    4.7990    2.3180    7.4580 H   0  0  0  0  0  0  0  0  0  0  0  0
    4.6149   -0.2895    8.6233 H   0  0  0  0  0  0  0  0  0  0  0  0
    6.2637   -2.0334    9.2708 H   0  0  0  0  0  0  0  0  0  0  0  0
    8.6105   -1.3945    9.8155 H   0  0  0  0  0  0  0  0  0  0  0  0
    9.2982    0.9929    9.7212 H   0  0  0  0  0  0  0  0  0  0  0  0
    8.8318    2.8926    7.1455 H   0  0  0  0  0  0  0  0  0  0  0  0
    9.6417    5.2463    7.0855 H   0  0  0  0  0  0  0  0  0  0  0  0
    9.0896    6.8062    8.9507 H   0  0  0  0  0  0  0  0  0  0  0  0
    7.7209    6.0099   10.8779 H   0  0  0  0  0  0  0  0  0  0  0  0
    6.9040    3.6593   10.9406 H   0  0  0  0  0  0  0  0  0  0  0  0
   -1.5105    2.5568    9.4885 H   0  0  0  0  0  0  0  0  0  0  0  0
   -3.7084    3.4991   10.1484 H   0  0  0  0  0  0  0  0  0  0  0  0
  1  2  2  0
  2  3  1  0
  2  4  1  0
  4  5  2  0
  5  6  1  0
  6  7  2  0
  7  8  1  0
  8  9  1  0
  9 10  2  0
 10 11  1  0
 11 12  2  0
 12 13  1  0
 13 14  1  0
 14 15  1  0
 15 16  2  0
 16 17  1  0
 17 18  2  0
 18 19  1  0
 19 20  2  0
 20 21  1  0
 21 22  2  0
 22 23  1  0
 23 24  2  0
 24 25  1  0
 25 26  2  0
 13 27  2  0
  7 28  1  0
 28 29  2  0
 29  4  1  0
 27  9  1  0
 20 15  1  0
 26 21  1  0
  5 30  1  0
  6 31  1  0
  8 32  1  0
 11 33  1  0
 12 34  1  0
 14 35  1  0
 16 36  1  0
 17 37  1  0
 18 38  1  0
 19 39  1  0
 22 40  1  0
 23 41  1  0
 24 42  1  0
 25 43  1  0
 26 44  1  0
 28 45  1  0
 29 46  1  0
M  CHG  1   3  -1
M  END
>  <meeko>  (2) 
{"is_sidechain": [false], "free_energy": -8.528, "intermolecular_energy": -11.605, "internal_energy": -1.152}

$$$$
3uo4_ligand
     RDKit          3D

 46 49  0  0  0  0  0  0  0  0999 V2000
    0.4770    6.2840    8.7280 O   0  0  0  0  0  0  0  0  0  0  0  0
    0.1870    5.1670    9.2620 C   0  0  0  0  0  0  0  0  0  0  0  0
   -0.9720    4.8000    9.6370 O   0  0  0  0  0  0  0  0  0  0  0  0
    1.3230    4.1830    9.4690 C   0  0  0  0  0  0  0  0  0  0  0  0
    1.8050    3.3960    8.4140 C   0  0  0  0  0  0  0  0  0  0  0  0
    2.8540    2.4850    8.6060 C   0  0  0  0  0  0  0  0  0  0  0  0
    3.4560    2.3280    9.8560 C   0  0  0  0  0  0  0  0  0  0  0  0
    4.5080    1.4410   10.1160 N   0  0  0  0  0  0  0  0  0  0  0  0
    5.8190    1.3270    9.6660 C   0  0  0  0  0  0  0  0  0  0  0  0
    6.5520    0.2250    9.8680 N   0  0  0  0  0  0  0  0  0  0  0  0
    7.8050    0.2220    9.3940 C   0  0  0  0  0  0  0  0  0  0  0  0
    8.3600    1.2840    8.7310 C   0  0  0  0  0  0  0  0  0  0  0  0
    7.5510    2.3890    8.5610 C   0  0  0  0  0  0  0  0  0  0  0  0
    8.1000    3.5010    7.8740 N   0  0  0  0  0  0  0  0  0  0  0  0
    8.8780    4.5620    8.4110 C   0  0  0  0  0  0  0  0  0  0  0  0
    8.2720    5.6150    9.1160 C   0  0  0  0  0  0  0  0  0  0  0  0
    9.0180    6.6950    9.5950 C   0  0  0  0  0  0  0  0  0  0  0  0
   10.3860    6.7520    9.3620 C   0  0  0  0  0  0  0  0  0  0  0  0
   11.0070    5.7320    8.6420 C   0  0  0  0  0  0  0  0  0  0  0  0
   10.2720    4.6360    8.1530 C   0  0  0  0  0  0  0  0  0  0  0  0
   10.9840    3.5890    7.4040 C   0  0  0  0  0  0  0  0  0  0  0  0
   11.7380    2.6150    8.0760 C   0  0  0  0  0  0  0  0  0  0  0  0
   12.4280    1.6320    7.3620 C   0  0  0  0  0  0  0  0  0  0  0  0
   12.3710    1.6120    5.9700 C   0  0  0  0  0  0  0  0  0  0  0  0
   11.6240    2.5720    5.2890 C   0  0  0  0  0  0  0  0  0  0  0  0
   10.9350    3.5530    6.0020 C   0  0  0  0  0  0  0  0  0  0  0  0
    6.2880    2.4070    9.0190 N   0  0  0  0  0  0  0  0  0  0  0  0
    2.9750    3.1200   10.9110 C   0  0  0  0  0  0  0  0  0  0  0  0
    1.9270    4.0300   10.7230 C   0  0  0  0  0  0  0  0  0  0  0  0
    1.3519    3.4947    7.4165 H   0  0  0  0  0  0  0  0  0  0  0  0
    3.2089    1.8832    7.7563 H   0  0  0  0  0  0  0  0  0  0  0  0
    4.3040    0.6750   10.7380 H   0  0  0  0  0  0  0  0  0  0  0  0
    8.4186   -0.6784    9.5449 H   0  0  0  0  0  0  0  0  0  0  0  0
    9.3933    1.2577    8.3548 H   0  0  0  0  0  0  0  0  0  0  0  0
    8.4620    3.1920    6.9770 H   0  0  0  0  0  0  0  0  0  0  0  0
    7.1869    5.5888    9.2948 H   0  0  0  0  0  0  0  0  0  0  0  0
    8.5218    7.5002   10.1567 H   0  0  0  0  0  0  0  0  0  0  0  0
   10.9768    7.5978    9.7436 H   0  0  0  0  0  0  0  0  0  0  0  0
   12.0894    5.7849    8.4531 H   0  0  0  0  0  0  0  0  0  0  0  0
   11.7863    2.6254    9.1749 H   0  0  0  0  0  0  0  0  0  0  0  0
   13.0165    0.8736    7.8991 H   0  0  0  0  0  0  0  0  0  0  0  0
   12.9155    0.8386    5.4083 H   0  0  0  0  0  0  0  0  0  0  0  0
   11.5780    2.5559    4.1901 H   0  0  0  0  0  0  0  0  0  0  0  0
   10.3464    4.3072    5.4591 H   0  0  0  0  0  0  0  0  0  0  0  0
    3.4314    3.0236   11.9072 H   0  0  0  0  0  0  0  0  0  0  0  0
    1.5735    4.6330   11.5724 H   0  0  0  0  0  0  0  0  0  0  0  0
  1  2  2  0
  2  3  1  0
  2  4  1  0
  4  5  2  0
  5  6  1  0
  6  7  2  0
  7  8  1  0
  8  9  1  0
  9 10  2  0
 10 11  1  0
 11 12  2  0
 12 13  1  0
 13 14  1  0
 14 15  1  0
 15 16  2  0
 16 17  1  0
 17 18  2  0
 18 19  1  0
 19 20  2  0
 20 21  1  0
 21 22  2  0
 22 23  1  0
 23 24  2  0
 24 25  1  0
 25 26  2  0
 13 27  2  0
  7 28  1  0
 28 29  2  0
 29  4  1  0
 27  9  1  0
 20 15  1  0
 26 21  1  0
  5 30  1  0
  6 31  1  0
  8 32  1  0
 11 33  1  0
 12 34  1  0
 14 35  1  0
 16 36  1  0
 17 37  1  0
 18 38  1  0
 19 39  1  0
 22 40  1  0
 23 41  1  0
 24 42  1  0
 25 43  1  0
 26 44  1  0
 28 45  1  0
 29 46  1  0
M  CHG  1   3  -1
M  END
>  <meeko>  (3) 
{"is_sidechain": [false], "free_energy": -8.366, "intermolecular_energy": -11.254, "internal_energy": -1.284}

$$$$
3uo4_ligand
     RDKit          3D

 46 49  0  0  0  0  0  0  0  0999 V2000
   -4.3770    7.0750    9.0760 O   0  0  0  0  0  0  0  0  0  0  0  0
   -5.2520    6.6250    9.8820 C   0  0  0  0  0  0  0  0  0  0  0  0
   -6.3440    7.2000   10.1910 O   0  0  0  0  0  0  0  0  0  0  0  0
   -4.9710    5.2830   10.5320 C   0  0  0  0  0  0  0  0  0  0  0  0
   -3.9530    5.1370   11.4850 C   0  0  0  0  0  0  0  0  0  0  0  0
   -3.6930    3.8960   12.0860 C   0  0  0  0  0  0  0  0  0  0  0  0
   -4.4380    2.7620   11.7550 C   0  0  0  0  0  0  0  0  0  0  0  0
   -4.2330    1.4960   12.3170 N   0  0  0  0  0  0  0  0  0  0  0  0
   -3.1770    0.5910   12.3190 C   0  0  0  0  0  0  0  0  0  0  0  0
   -3.3670   -0.7300   12.4330 N   0  0  0  0  0  0  0  0  0  0  0  0
   -2.2790   -1.5120   12.4260 C   0  0  0  0  0  0  0  0  0  0  0  0
   -1.0040   -1.0240   12.3160 C   0  0  0  0  0  0  0  0  0  0  0  0
   -0.8800    0.3460   12.2060 C   0  0  0  0  0  0  0  0  0  0  0  0
    0.4290    0.8760   12.0860 N   0  0  0  0  0  0  0  0  0  0  0  0
    1.3830    0.6220   11.0650 C   0  0  0  0  0  0  0  0  0  0  0  0
    2.4340   -0.2890   11.2700 C   0  0  0  0  0  0  0  0  0  0  0  0
    3.4130   -0.5020   10.2960 C   0  0  0  0  0  0  0  0  0  0  0  0
    3.3720    0.2080    9.1030 C   0  0  0  0  0  0  0  0  0  0  0  0
    2.3550    1.1360    8.8860 C   0  0  0  0  0  0  0  0  0  0  0  0
    1.3580    1.3620    9.8550 C   0  0  0  0  0  0  0  0  0  0  0  0
    0.3080    2.3510    9.5660 C   0  0  0  0  0  0  0  0  0  0  0  0
   -0.8740    1.9710    8.9140 C   0  0  0  0  0  0  0  0  0  0  0  0
   -1.8620    2.9150    8.6250 C   0  0  0  0  0  0  0  0  0  0  0  0
   -1.6790    4.2490    8.9840 C   0  0  0  0  0  0  0  0  0  0  0  0
   -0.5100    4.6410    9.6340 C   0  0  0  0  0  0  0  0  0  0  0  0
    0.4770    3.6980    9.9230 C   0  0  0  0  0  0  0  0  0  0  0  0
   -1.9600    1.1460   12.2010 N   0  0  0  0  0  0  0  0  0  0  0  0
   -5.4590    2.9110   10.8030 C   0  0  0  0  0  0  0  0  0  0  0  0
   -5.7210    4.1490   10.2010 C   0  0  0  0  0  0  0  0  0  0  0  0
   -3.3473    6.0110   11.7666 H   0  0  0  0  0  0  0  0  0  0  0  0
   -2.8880    3.8148   12.8312 H   0  0  0  0  0  0  0  0  0  0  0  0
   -5.0140    1.0950   12.8130 H   0  0  0  0  0  0  0  0  0  0  0  0
   -2.4166   -2.5999   12.5129 H   0  0  0  0  0  0  0  0  0  0  0  0
   -0.1268   -1.6878   12.3154 H   0  0  0  0  0  0  0  0  0  0  0  0
    0.4160    1.8570   12.3460 H   0  0  0  0  0  0  0  0  0  0  0  0
    2.4867   -0.8459   12.2172 H   0  0  0  0  0  0  0  0  0  0  0  0
    4.2163   -1.2321   10.4741 H   0  0  0  0  0  0  0  0  0  0  0  0
    4.1388    0.0386    8.3328 H   0  0  0  0  0  0  0  0  0  0  0  0
    2.3305    1.7011    7.9426 H   0  0  0  0  0  0  0  0  0  0  0  0
   -1.0244    0.9197    8.6275 H   0  0  0  0  0  0  0  0  0  0  0  0
   -2.7853    2.6052    8.1136 H   0  0  0  0  0  0  0  0  0  0  0  0
   -2.4567    4.9923    8.7545 H   0  0  0  0  0  0  0  0  0  0  0  0
   -0.3656    5.6935    9.9191 H   0  0  0  0  0  0  0  0  0  0  0  0
    1.3974    4.0135   10.4361 H   0  0  0  0  0  0  0  0  0  0  0  0
   -6.0662    2.0374   10.5237 H   0  0  0  0  0  0  0  0  0  0  0  0
   -6.5277    4.2305    9.4577 H   0  0  0  0  0  0  0  0  0  0  0  0
  1  2  2  0
  2  3  1  0
  2  4  1  0
  4  5  2  0
  5  6  1  0
  6  7  2  0
  7  8  1  0
  8  9  1  0
  9 10  2  0
 10 11  1  0
 11 12  2  0
 12 13  1  0
 13 14  1  0
 14 15  1  0
 15 16  2  0
 16 17  1  0
 17 18  2  0
 18 19  1  0
 19 20  2  0
 20 21  1  0
 21 22  2  0
 22 23  1  0
 23 24  2  0
 24 25  1  0
 25 26  2  0
 13 27  2  0
  7 28  1  0
 28 29  2  0
 29  4  1  0
 27  9  1  0
 20 15  1  0
 26 21  1  0
  5 30  1  0
  6 31  1  0
  8 32  1  0
 11 33  1  0
 12 34  1  0
 14 35  1  0
 16 36  1  0
 17 37  1  0
 18 38  1  0
 19 39  1  0
 22 40  1  0
 23 41  1  0
 24 42  1  0
 25 43  1  0
 26 44  1  0
 28 45  1  0
 29 46  1  0
M  CHG  1   3  -1
M  END
>  <meeko>  (4) 
{"is_sidechain": [false], "free_energy": -8.359, "intermolecular_energy": -10.574, "internal_energy": -1.954}

$$$$
3uo4_ligand
     RDKit          3D

 46 49  0  0  0  0  0  0  0  0999 V2000
   -6.3910    4.2170   10.9270 O   0  0  0  0  0  0  0  0  0  0  0  0
   -6.0300    5.3890   10.5900 C   0  0  0  0  0  0  0  0  0  0  0  0
   -6.7880    6.4080   10.5150 O   0  0  0  0  0  0  0  0  0  0  0  0
   -4.5660    5.5910   10.2480 C   0  0  0  0  0  0  0  0  0  0  0  0
   -4.1150    6.7800    9.6570 C   0  0  0  0  0  0  0  0  0  0  0  0
   -2.7620    6.9660    9.3400 C   0  0  0  0  0  0  0  0  0  0  0  0
   -1.8140    5.9740    9.6000 C   0  0  0  0  0  0  0  0  0  0  0  0
   -0.4490    6.0960    9.3120 N   0  0  0  0  0  0  0  0  0  0  0  0
    0.5330    5.2200    8.8630 C   0  0  0  0  0  0  0  0  0  0  0  0
    0.7600    5.0060    7.5600 N   0  0  0  0  0  0  0  0  0  0  0  0
    1.7290    4.1390    7.2380 C   0  0  0  0  0  0  0  0  0  0  0  0
    2.4790    3.4690    8.1680 C   0  0  0  0  0  0  0  0  0  0  0  0
    2.1900    3.7340    9.4910 C   0  0  0  0  0  0  0  0  0  0  0  0
    2.9550    3.0580   10.4740 N   0  0  0  0  0  0  0  0  0  0  0  0
    3.4140    1.7130   10.4500 C   0  0  0  0  0  0  0  0  0  0  0  0
    4.7800    1.4200   10.2990 C   0  0  0  0  0  0  0  0  0  0  0  0
    5.2370    0.1020   10.2130 C   0  0  0  0  0  0  0  0  0  0  0  0
    4.3320   -0.9510   10.2570 C   0  0  0  0  0  0  0  0  0  0  0  0
    2.9700   -0.6860   10.3810 C   0  0  0  0  0  0  0  0  0  0  0  0
    2.4910    0.6350   10.4710 C   0  0  0  0  0  0  0  0  0  0  0  0
    1.0420    0.8510   10.6050 C   0  0  0  0  0  0  0  0  0  0  0  0
    0.4750    1.1570   11.8510 C   0  0  0  0  0  0  0  0  0  0  0  0
   -0.9030    1.3440   11.9790 C   0  0  0  0  0  0  0  0  0  0  0  0
   -1.7290    1.2270   10.8630 C   0  0  0  0  0  0  0  0  0  0  0  0
   -1.1800    0.9250    9.6180 C   0  0  0  0  0  0  0  0  0  0  0  0
    0.1960    0.7400    9.4900 C   0  0  0  0  0  0  0  0  0  0  0  0
    1.2290    4.6080    9.8350 N   0  0  0  0  0  0  0  0  0  0  0  0
   -2.2670    4.7860   10.1950 C   0  0  0  0  0  0  0  0  0  0  0  0
   -3.6180    4.5960   10.5130 C   0  0  0  0  0  0  0  0  0  0  0  0
   -4.8360    7.5814    9.4381 H   0  0  0  0  0  0  0  0  0  0  0  0
   -2.4411    7.9112    8.8778 H   0  0  0  0  0  0  0  0  0  0  0  0
   -0.0330    6.9970    9.4890 H   0  0  0  0  0  0  0  0  0  0  0  0
    1.9328    3.9558    6.1727 H   0  0  0  0  0  0  0  0  0  0  0  0
    3.2674    2.7595    7.8765 H   0  0  0  0  0  0  0  0  0  0  0  0
    3.6670    3.6860   10.8330 H   0  0  0  0  0  0  0  0  0  0  0  0
    5.5051    2.2456   10.2474 H   0  0  0  0  0  0  0  0  0  0  0  0
    6.3131   -0.1015   10.1105 H   0  0  0  0  0  0  0  0  0  0  0  0
    4.6893   -1.9895   10.1942 H   0  0  0  0  0  0  0  0  0  0  0  0
    2.2567   -1.5229   10.4091 H   0  0  0  0  0  0  0  0  0  0  0  0
    1.1220    1.2506   12.7357 H   0  0  0  0  0  0  0  0  0  0  0  0
   -1.3365    1.5837   12.9612 H   0  0  0  0  0  0  0  0  0  0  0  0
   -2.8145    1.3730   10.9645 H   0  0  0  0  0  0  0  0  0  0  0  0
   -1.8320    0.8327    8.7369 H   0  0  0  0  0  0  0  0  0  0  0  0
    0.6236    0.5044    8.5043 H   0  0  0  0  0  0  0  0  0  0  0  0
   -1.5449    3.9863   10.4165 H   0  0  0  0  0  0  0  0  0  0  0  0
   -3.9382    3.6517   10.9774 H   0  0  0  0  0  0  0  0  0  0  0  0
  1  2  2  0
  2  3  1  0
  2  4  1  0
  4  5  2  0
  5  6  1  0
  6  7  2  0
  7  8  1  0
  8  9  1  0
  9 10  2  0
 10 11  1  0
 11 12  2  0
 12 13  1  0
 13 14  1  0
 14 15  1  0
 15 16  2  0
 16 17  1  0
 17 18  2  0
 18 19  1  0
 19 20  2  0
 20 21  1  0
 21 22  2  0
 22 23  1  0
 23 24  2  0
 24 25  1  0
 25 26  2  0
 13 27  2  0
  7 28  1  0
 28 29  2  0
 29  4  1  0
 27  9  1  0
 20 15  1  0
 26 21  1  0
  5 30  1  0
  6 31  1  0
  8 32  1  0
 11 33  1  0
 12 34  1  0
 14 35  1  0
 16 36  1  0
 17 37  1  0
 18 38  1  0
 19 39  1  0
 22 40  1  0
 23 41  1  0
 24 42  1  0
 25 43  1  0
 26 44  1  0
 28 45  1  0
 29 46  1  0
M  CHG  1   3  -1
M  END
>  <meeko>  (5) 
{"is_sidechain": [false], "free_energy": -8.241, "intermolecular_energy": -10.777, "internal_energy": -1.592}

$$$$
3uo4_ligand
     RDKit          3D

 46 49  0  0  0  0  0  0  0  0999 V2000
    3.9900    2.3090    9.1040 O   0  0  0  0  0  0  0  0  0  0  0  0
    3.5580    1.1140    9.1440 C   0  0  0  0  0  0  0  0  0  0  0  0
    4.1570    0.0900    8.6850 O   0  0  0  0  0  0  0  0  0  0  0  0
    2.2080    0.8870    9.7990 C   0  0  0  0  0  0  0  0  0  0  0  0
    1.2500    0.0450    9.2170 C   0  0  0  0  0  0  0  0  0  0  0  0
    0.0020   -0.1640    9.8210 C   0  0  0  0  0  0  0  0  0  0  0  0
   -0.3330    0.4610   11.0250 C   0  0  0  0  0  0  0  0  0  0  0  0
   -1.5570    0.2950   11.6830 N   0  0  0  0  0  0  0  0  0  0  0  0
   -2.7460    1.0150   11.7240 C   0  0  0  0  0  0  0  0  0  0  0  0
   -3.9450    0.4190   11.7330 N   0  0  0  0  0  0  0  0  0  0  0  0
   -5.0260    1.2090   11.7720 C   0  0  0  0  0  0  0  0  0  0  0  0
   -4.9570    2.5770   11.7940 C   0  0  0  0  0  0  0  0  0  0  0  0
   -3.6910    3.1250   11.7790 C   0  0  0  0  0  0  0  0  0  0  0  0
   -3.5920    4.5390   11.8080 N   0  0  0  0  0  0  0  0  0  0  0  0
   -4.1460    5.4710   10.8890 C   0  0  0  0  0  0  0  0  0  0  0  0
   -5.4550    5.9550   11.0540 C   0  0  0  0  0  0  0  0  0  0  0  0
   -6.0320    6.8250   10.1250 C   0  0  0  0  0  0  0  0  0  0  0  0
   -5.3160    7.2130    8.9990 C   0  0  0  0  0  0  0  0  0  0  0  0
   -4.0260    6.7270    8.7990 C   0  0  0  0  0  0  0  0  0  0  0  0
   -3.4270    5.8510    9.7260 C   0  0  0  0  0  0  0  0  0  0  0  0
   -2.0600    5.3750    9.4620 C   0  0  0  0  0  0  0  0  0  0  0  0
   -1.8370    4.0960    8.9330 C   0  0  0  0  0  0  0  0  0  0  0  0
   -0.5380    3.6380    8.6990 C   0  0  0  0  0  0  0  0  0  0  0  0
    0.5520    4.4560    8.9930 C   0  0  0  0  0  0  0  0  0  0  0  0
    0.3450    5.7310    9.5180 C   0  0  0  0  0  0  0  0  0  0  0  0
   -0.9530    6.1870    9.7500 C   0  0  0  0  0  0  0  0  0  0  0  0
   -2.5940    2.3500   11.7520 N   0  0  0  0  0  0  0  0  0  0  0  0
    0.6290    1.3020   11.6080 C   0  0  0  0  0  0  0  0  0  0  0  0
    1.8760    1.5130   11.0060 C   0  0  0  0  0  0  0  0  0  0  0  0
    1.4818   -0.4614    8.2684 H   0  0  0  0  0  0  0  0  0  0  0  0
   -0.7265   -0.8320    9.3383 H   0  0  0  0  0  0  0  0  0  0  0  0
   -1.6270   -0.4950   12.3060 H   0  0  0  0  0  0  0  0  0  0  0  0
   -6.0188    0.7356   11.7871 H   0  0  0  0  0  0  0  0  0  0  0  0
   -5.8607    3.2036   11.8221 H   0  0  0  0  0  0  0  0  0  0  0  0
   -3.6880    4.8610   12.7650 H   0  0  0  0  0  0  0  0  0  0  0  0
   -6.0378    5.6424   11.9330 H   0  0  0  0  0  0  0  0  0  0  0  0
   -7.0527    7.2026   10.2850 H   0  0  0  0  0  0  0  0  0  0  0  0
   -5.7662    7.9012    8.2685 H   0  0  0  0  0  0  0  0  0  0  0  0
   -3.4658    7.0320    7.9028 H   0  0  0  0  0  0  0  0  0  0  0  0
   -2.6935    3.4464    8.6998 H   0  0  0  0  0  0  0  0  0  0  0  0
   -0.3754    2.6327    8.2831 H   0  0  0  0  0  0  0  0  0  0  0  0
    1.5752    4.0956    8.8108 H   0  0  0  0  0  0  0  0  0  0  0  0
    1.2047    6.3771    9.7492 H   0  0  0  0  0  0  0  0  0  0  0  0
   -1.1100    7.1943   10.1633 H   0  0  0  0  0  0  0  0  0  0  0  0
    0.3981    1.8060   12.5581 H   0  0  0  0  0  0  0  0  0  0  0  0
    2.6050    2.1804   11.4889 H   0  0  0  0  0  0  0  0  0  0  0  0
  1  2  2  0
  2  3  1  0
  2  4  1  0
  4  5  2  0
  5  6  1  0
  6  7  2  0
  7  8  1  0
  8  9  1  0
  9 10  2  0
 10 11  1  0
 11 12  2  0
 12 13  1  0
 13 14  1  0
 14 15  1  0
 15 16  2  0
 16 17  1  0
 17 18  2  0
 18 19  1  0
 19 20  2  0
 20 21  1  0
 21 22  2  0
 22 23  1  0
 23 24  2  0
 24 25  1  0
 25 26  2  0
 13 27  2  0
  7 28  1  0
 28 29  2  0
 29  4  1  0
 27  9  1  0
 20 15  1  0
 26 21  1  0
  5 30  1  0
  6 31  1  0
  8 32  1  0
 11 33  1  0
 12 34  1  0
 14 35  1  0
 16 36  1  0
 17 37  1  0
 18 38  1  0
 19 39  1  0
 22 40  1  0
 23 41  1  0
 24 42  1  0
 25 43  1  0
 26 44  1  0
 28 45  1  0
 29 46  1  0
M  CHG  1   3  -1
M  END
>  <meeko>  (6) 
{"is_sidechain": [false], "free_energy": -8.235, "intermolecular_energy": -10.547, "internal_energy": -1.814}

$$$$
3uo4_ligand
     RDKit          3D

 46 49  0  0  0  0  0  0  0  0999 V2000
    7.0540    0.1990    8.9640 O   0  0  0  0  0  0  0  0  0  0  0  0
    6.3690    1.2370    8.6980 C   0  0  0  0  0  0  0  0  0  0  0  0
    6.7250    2.1860    7.9280 O   0  0  0  0  0  0  0  0  0  0  0  0
    5.0070    1.3560    9.3540 C   0  0  0  0  0  0  0  0  0  0  0  0
    4.3480    0.2310    9.8700 C   0  0  0  0  0  0  0  0  0  0  0  0
    3.0880    0.3410   10.4760 C   0  0  0  0  0  0  0  0  0  0  0  0
    2.4430    1.5760   10.5860 C   0  0  0  0  0  0  0  0  0  0  0  0
    1.1890    1.7570   11.1810 N   0  0  0  0  0  0  0  0  0  0  0  0
   -0.1010    1.9460   10.6950 C   0  0  0  0  0  0  0  0  0  0  0  0
   -0.6400    1.1460    9.7670 N   0  0  0  0  0  0  0  0  0  0  0  0
   -1.8890    1.4200    9.3680 C   0  0  0  0  0  0  0  0  0  0  0  0
   -2.6210    2.4700    9.8560 C   0  0  0  0  0  0  0  0  0  0  0  0
   -2.0030    3.2560   10.8070 C   0  0  0  0  0  0  0  0  0  0  0  0
   -2.7410    4.3460   11.3320 N   0  0  0  0  0  0  0  0  0  0  0  0
   -3.4910    5.3180   10.6170 C   0  0  0  0  0  0  0  0  0  0  0  0
   -4.8390    5.5630   10.9310 C   0  0  0  0  0  0  0  0  0  0  0  0
   -5.6040    6.4720   10.1960 C   0  0  0  0  0  0  0  0  0  0  0  0
   -5.0410    7.1410    9.1160 C   0  0  0  0  0  0  0  0  0  0  0  0
   -3.7140    6.8960    8.7680 C   0  0  0  0  0  0  0  0  0  0  0  0
   -2.9270    5.9850    9.4990 C   0  0  0  0  0  0  0  0  0  0  0  0
   -1.5310    5.7720    9.0850 C   0  0  0  0  0  0  0  0  0  0  0  0
   -0.4730    6.3300    9.8180 C   0  0  0  0  0  0  0  0  0  0  0  0
    0.8500    6.1410    9.4150 C   0  0  0  0  0  0  0  0  0  0  0  0
    1.1310    5.3930    8.2730 C   0  0  0  0  0  0  0  0  0  0  0  0
    0.0900    4.8300    7.5360 C   0  0  0  0  0  0  0  0  0  0  0  0
   -1.2320    5.0180    7.9400 C   0  0  0  0  0  0  0  0  0  0  0  0
   -0.7550    2.9910   11.2290 N   0  0  0  0  0  0  0  0  0  0  0  0
    3.1060    2.7010   10.0720 C   0  0  0  0  0  0  0  0  0  0  0  0
    4.3650    2.5950    9.4660 C   0  0  0  0  0  0  0  0  0  0  0  0
    4.8282   -0.7561    9.7982 H   0  0  0  0  0  0  0  0  0  0  0  0
    2.5985   -0.5611   10.8719 H   0  0  0  0  0  0  0  0  0  0  0  0
    1.1730    1.8020   12.1880 H   0  0  0  0  0  0  0  0  0  0  0  0
   -2.3500    0.7692    8.6104 H   0  0  0  0  0  0  0  0  0  0  0  0
   -3.6445    2.6752    9.5091 H   0  0  0  0  0  0  0  0  0  0  0  0
   -3.2280    4.0460   12.1710 H   0  0  0  0  0  0  0  0  0  0  0  0
   -5.3014    5.0276   11.7734 H   0  0  0  0  0  0  0  0  0  0  0  0
   -6.6523    6.6582   10.4723 H   0  0  0  0  0  0  0  0  0  0  0  0
   -5.6399    7.8606    8.5385 H   0  0  0  0  0  0  0  0  0  0  0  0
   -3.2740    7.4227    7.9084 H   0  0  0  0  0  0  0  0  0  0  0  0
   -0.6882    6.9225   10.7195 H   0  0  0  0  0  0  0  0  0  0  0  0
    1.6711    6.5825    9.9989 H   0  0  0  0  0  0  0  0  0  0  0  0
    2.1734    5.2470    7.9534 H   0  0  0  0  0  0  0  0  0  0  0  0
    0.3111    4.2375    6.6359 H   0  0  0  0  0  0  0  0  0  0  0  0
   -2.0487    4.5704    7.3547 H   0  0  0  0  0  0  0  0  0  0  0  0
    2.6266    3.6882   10.1465 H   0  0  0  0  0  0  0  0  0  0  0  0
    4.8556    3.4977    9.0729 H   0  0  0  0  0  0  0  0  0  0  0  0
  1  2  2  0
  2  3  1  0
  2  4  1  0
  4  5  2  0
  5  6  1  0
  6  7  2  0
  7  8  1  0
  8  9  1  0
  9 10  2  0
 10 11  1  0
 11 12  2  0
 12 13  1  0
 13 14  1  0
 14 15  1  0
 15 16  2  0
 16 17  1  0
 17 18  2  0
 18 19  1  0
 19 20  2  0
 20 21  1  0
 21 22  2  0
 22 23  1  0
 23 24  2  0
 24 25  1  0
 25 26  2  0
 13 27  2  0
  7 28  1  0
 28 29  2  0
 29  4  1  0
 27  9  1  0
 20 15  1  0
 26 21  1  0
  5 30  1  0
  6 31  1  0
  8 32  1  0
 11 33  1  0
 12 34  1  0
 14 35  1  0
 16 36  1  0
 17 37  1  0
 18 38  1  0
 19 39  1  0
 22 40  1  0
 23 41  1  0
 24 42  1  0
 25 43  1  0
 26 44  1  0
 28 45  1  0
 29 46  1  0
M  CHG  1   3  -1
M  END
>  <meeko>  (7) 
{"is_sidechain": [false], "free_energy": -8.167, "intermolecular_energy": -11.166, "internal_energy": -1.104}

$$$$
3uo4_ligand
     RDKit          3D

 46 49  0  0  0  0  0  0  0  0999 V2000
   -6.7440    6.5770   10.5160 O   0  0  0  0  0  0  0  0  0  0  0  0
   -5.5940    6.4530    9.9880 C   0  0  0  0  0  0  0  0  0  0  0  0
   -5.1100    7.1970    9.0760 O   0  0  0  0  0  0  0  0  0  0  0  0
   -4.7210    5.3170   10.4870 C   0  0  0  0  0  0  0  0  0  0  0  0
   -3.3480    5.2770   10.2030 C   0  0  0  0  0  0  0  0  0  0  0  0
   -2.5410    4.2270   10.6640 C   0  0  0  0  0  0  0  0  0  0  0  0
   -3.0760    3.1820   11.4210 C   0  0  0  0  0  0  0  0  0  0  0  0
   -2.3280    2.1060   11.9130 N   0  0  0  0  0  0  0  0  0  0  0  0
   -1.7560    0.9740   11.3410 C   0  0  0  0  0  0  0  0  0  0  0  0
   -2.0760   -0.2660   11.7340 N   0  0  0  0  0  0  0  0  0  0  0  0
   -1.4640   -1.2850   11.1170 C   0  0  0  0  0  0  0  0  0  0  0  0
   -0.5350   -1.1140   10.1240 C   0  0  0  0  0  0  0  0  0  0  0  0
   -0.2500    0.1890    9.7720 C   0  0  0  0  0  0  0  0  0  0  0  0
    0.7040    0.3940    8.7430 N   0  0  0  0  0  0  0  0  0  0  0  0
    2.1070    0.5750    8.8770 C   0  0  0  0  0  0  0  0  0  0  0  0
    2.9580   -0.5230    9.0880 C   0  0  0  0  0  0  0  0  0  0  0  0
    4.3310   -0.3520    9.2820 C   0  0  0  0  0  0  0  0  0  0  0  0
    4.8790    0.9250    9.2880 C   0  0  0  0  0  0  0  0  0  0  0  0
    4.0520    2.0320    9.1080 C   0  0  0  0  0  0  0  0  0  0  0  0
    2.6660    1.8790    8.9090 C   0  0  0  0  0  0  0  0  0  0  0  0
    1.8450    3.0850    8.7190 C   0  0  0  0  0  0  0  0  0  0  0  0
    1.6030    3.9620    9.7860 C   0  0  0  0  0  0  0  0  0  0  0  0
    0.8100    5.0980    9.6080 C   0  0  0  0  0  0  0  0  0  0  0  0
    0.2490    5.3680    8.3610 C   0  0  0  0  0  0  0  0  0  0  0  0
    0.4820    4.5060    7.2910 C   0  0  0  0  0  0  0  0  0  0  0  0
    1.2760    3.3730    7.4690 C   0  0  0  0  0  0  0  0  0  0  0  0
   -0.8620    1.2250   10.3710 N   0  0  0  0  0  0  0  0  0  0  0  0
   -4.4500    3.2250   11.7060 C   0  0  0  0  0  0  0  0  0  0  0  0
   -5.2590    4.2720   11.2470 C   0  0  0  0  0  0  0  0  0  0  0  0
   -2.8960    6.0841    9.6077 H   0  0  0  0  0  0  0  0  0  0  0  0
   -1.4672    4.2262   10.4252 H   0  0  0  0  0  0  0  0  0  0  0  0
   -2.1730    2.0870   12.9100 H   0  0  0  0  0  0  0  0  0  0  0  0
   -1.7197   -2.3103   11.4225 H   0  0  0  0  0  0  0  0  0  0  0  0
   -0.0440   -1.9682    9.6349 H   0  0  0  0  0  0  0  0  0  0  0  0
    0.4810   -0.2090    7.9570 H   0  0  0  0  0  0  0  0  0  0  0  0
    2.5345   -1.5381    9.1007 H   0  0  0  0  0  0  0  0  0  0  0  0
    4.9786   -1.2287    9.4301 H   0  0  0  0  0  0  0  0  0  0  0  0
    5.9607    1.0614    9.4342 H   0  0  0  0  0  0  0  0  0  0  0  0
    4.4886    3.0416    9.1215 H   0  0  0  0  0  0  0  0  0  0  0  0
    2.0419    3.7533   10.7728 H   0  0  0  0  0  0  0  0  0  0  0  0
    0.6282    5.7796   10.4520 H   0  0  0  0  0  0  0  0  0  0  0  0
   -0.3775    6.2613    8.2214 H   0  0  0  0  0  0  0  0  0  0  0  0
    0.0400    4.7190    6.3065 H   0  0  0  0  0  0  0  0  0  0  0  0
    1.4581    2.6977    6.6200 H   0  0  0  0  0  0  0  0  0  0  0  0
   -4.9011    2.4186   12.3029 H   0  0  0  0  0  0  0  0  0  0  0  0
   -6.3325    4.2731   11.4872 H   0  0  0  0  0  0  0  0  0  0  0  0
  1  2  2  0
  2  3  1  0
  2  4  1  0
  4  5  2  0
  5  6  1  0
  6  7  2  0
  7  8  1  0
  8  9  1  0
  9 10  2  0
 10 11  1  0
 11 12  2  0
 12 13  1  0
 13 14  1  0
 14 15  1  0
 15 16  2  0
 16 17  1  0
 17 18  2  0
 18 19  1  0
 19 20  2  0
 20 21  1  0
 21 22  2  0
 22 23  1  0
 23 24  2  0
 24 25  1  0
 25 26  2  0
 13 27  2  0
  7 28  1  0
 28 29  2  0
 29  4  1  0
 27  9  1  0
 20 15  1  0
 26 21  1  0
  5 30  1  0
  6 31  1  0
  8 32  1  0
 11 33  1  0
 12 34  1  0
 14 35  1  0
 16 36  1  0
 17 37  1  0
 18 38  1  0
 19 39  1  0
 22 40  1  0
 23 41  1  0
 24 42  1  0
 25 43  1  0
 26 44  1  0
 28 45  1  0
 29 46  1  0
M  CHG  1   3  -1
M  END
>  <meeko>  (8) 
{"is_sidechain": [false], "free_energy": -8.094, "intermolecular_energy": -10.621, "internal_energy": -1.55}

$$$$
3uo4_ligand
     RDKit          3D

 46 49  0  0  0  0  0  0  0  0999 V2000
   11.4510    6.2360    8.0190 O   0  0  0  0  0  0  0  0  0  0  0  0
   10.5690    5.5770    7.3820 C   0  0  0  0  0  0  0  0  0  0  0  0
   10.5080    5.4450    6.1180 O   0  0  0  0  0  0  0  0  0  0  0  0
    9.4930    4.8870    8.2000 C   0  0  0  0  0  0  0  0  0  0  0  0
    8.8220    5.5590    9.2310 C   0  0  0  0  0  0  0  0  0  0  0  0
    7.8280    4.9200    9.9880 C   0  0  0  0  0  0  0  0  0  0  0  0
    7.4730    3.5920    9.7420 C   0  0  0  0  0  0  0  0  0  0  0  0
    6.4890    2.8970   10.4560 N   0  0  0  0  0  0  0  0  0  0  0  0
    5.2490    2.3580   10.1320 C   0  0  0  0  0  0  0  0  0  0  0  0
    5.1220    1.2350    9.4130 N   0  0  0  0  0  0  0  0  0  0  0  0
    3.8800    0.8040    9.1560 C   0  0  0  0  0  0  0  0  0  0  0  0
    2.7540    1.4580    9.5840 C   0  0  0  0  0  0  0  0  0  0  0  0
    2.9580    2.6100   10.3150 C   0  0  0  0  0  0  0  0  0  0  0  0
    1.8090    3.3030   10.7740 N   0  0  0  0  0  0  0  0  0  0  0  0
    0.8160    3.9570    9.9970 C   0  0  0  0  0  0  0  0  0  0  0  0
    1.0600    5.2190    9.4270 C   0  0  0  0  0  0  0  0  0  0  0  0
    0.0710    5.8990    8.7120 C   0  0  0  0  0  0  0  0  0  0  0  0
   -1.1920    5.3380    8.5690 C   0  0  0  0  0  0  0  0  0  0  0  0
   -1.4680    4.1000    9.1460 C   0  0  0  0  0  0  0  0  0  0  0  0
   -0.4830    3.3990    9.8690 C   0  0  0  0  0  0  0  0  0  0  0  0
   -0.8330    2.0940   10.4510 C   0  0  0  0  0  0  0  0  0  0  0  0
   -1.2190    1.9900   11.7950 C   0  0  0  0  0  0  0  0  0  0  0  0
   -1.5340    0.7480   12.3510 C   0  0  0  0  0  0  0  0  0  0  0  0
   -1.4660   -0.4030   11.5680 C   0  0  0  0  0  0  0  0  0  0  0  0
   -1.0860   -0.3150   10.2300 C   0  0  0  0  0  0  0  0  0  0  0  0
   -0.7720    0.9260    9.6750 C   0  0  0  0  0  0  0  0  0  0  0  0
    4.1960    3.0520   10.5930 N   0  0  0  0  0  0  0  0  0  0  0  0
    8.1440    2.9230    8.7060 C   0  0  0  0  0  0  0  0  0  0  0  0
    9.1370    3.5570    7.9490 C   0  0  0  0  0  0  0  0  0  0  0  0
    9.0791    6.6057    9.4506 H   0  0  0  0  0  0  0  0  0  0  0  0
    7.3192    5.4753   10.7897 H   0  0  0  0  0  0  0  0  0  0  0  0
    6.6610    2.7640   11.4410 H   0  0  0  0  0  0  0  0  0  0  0  0
    3.7577   -0.1205    8.5726 H   0  0  0  0  0  0  0  0  0  0  0  0
    1.7443    1.0852    9.3573 H   0  0  0  0  0  0  0  0  0  0  0  0
    1.3970    2.7900   11.5470 H   0  0  0  0  0  0  0  0  0  0  0  0
    2.0511    5.6809    9.5467 H   0  0  0  0  0  0  0  0  0  0  0  0
    0.2922    6.8783    8.2624 H   0  0  0  0  0  0  0  0  0  0  0  0
   -1.9711    5.8691    8.0025 H   0  0  0  0  0  0  0  0  0  0  0  0
   -2.4714    3.6630    9.0351 H   0  0  0  0  0  0  0  0  0  0  0  0
   -1.2743    2.8953   12.4175 H   0  0  0  0  0  0  0  0  0  0  0  0
   -1.8357    0.6783   13.4065 H   0  0  0  0  0  0  0  0  0  0  0  0
   -1.7124   -1.3814   12.0063 H   0  0  0  0  0  0  0  0  0  0  0  0
   -1.0337   -1.2234    9.6119 H   0  0  0  0  0  0  0  0  0  0  0  0
   -0.4735    0.9897    8.6182 H   0  0  0  0  0  0  0  0  0  0  0  0
    7.8839    1.8775    8.4840 H   0  0  0  0  0  0  0  0  0  0  0  0
    9.6442    3.0020    7.1460 H   0  0  0  0  0  0  0  0  0  0  0  0
  1  2  2  0
  2  3  1  0
  2  4  1  0
  4  5  2  0
  5  6  1  0
  6  7  2  0
  7  8  1  0
  8  9  1  0
  9 10  2  0
 10 11  1  0
 11 12  2  0
 12 13  1  0
 13 14  1  0
 14 15  1  0
 15 16  2  0
 16 17  1  0
 17 18  2  0
 18 19  1  0
 19 20  2  0
 20 21  1  0
 21 22  2  0
 22 23  1  0
 23 24  2  0
 24 25  1  0
 25 26  2  0
 13 27  2  0
  7 28  1  0
 28 29  2  0
 29  4  1  0
 27  9  1  0
 20 15  1  0
 26 21  1  0
  5 30  1  0
  6 31  1  0
  8 32  1  0
 11 33  1  0
 12 34  1  0
 14 35  1  0
 16 36  1  0
 17 37  1  0
 18 38  1  0
 19 39  1  0
 22 40  1  0
 23 41  1  0
 24 42  1  0
 25 43  1  0
 26 44  1  0
 28 45  1  0
 29 46  1  0
M  CHG  1   3  -1
M  END
>  <meeko>  (9) 
{"is_sidechain": [false], "free_energy": -8.031, "intermolecular_energy": -10.869, "internal_energy": -1.218}

$$$$
