3bv9_ligand
     RDKit          3D

 95 98  0  0  0  0  0  0  0  0999 V2000
   18.7510    8.5390   -3.4940 C   0  0  0  0  0  0  0  0  0  0  0  0
   17.7450    7.8760   -4.3890 C   0  0  0  0  0  0  0  0  0  0  0  0
   17.9380    7.8310   -5.6750 N   0  0  0  0  0  0  0  0  0  0  0  0
   16.9610    7.2080   -6.4200 C   0  0  0  0  0  0  0  0  0  0  0  0
   16.6660    6.0240   -6.2850 O   0  0  0  0  0  0  0  0  0  0  0  0
   16.2100    8.1040   -7.4370 C   0  0  2  0  0  0  0  0  0  0  0  0
   16.7030    9.5470   -7.3200 C   0  0  0  0  0  0  0  0  0  0  0  0
   15.7360   10.1720   -6.3190 C   0  0  0  0  0  0  0  0  0  0  0  0
   14.4090    9.5070   -6.6460 C   0  0  0  0  0  0  0  0  0  0  0  0
   14.7590    8.2220   -7.2280 N   0  0  0  0  0  0  0  0  0  0  0  0
   13.7810    7.3000   -7.5290 C   0  0  0  0  0  0  0  0  0  0  0  0
   14.0230    6.3170   -8.2410 O   0  0  0  0  0  0  0  0  0  0  0  0
   12.3630    7.5150   -6.9390 C   0  0  2  0  0  0  0  0  0  0  0  0
   11.9320    6.4170   -5.9720 C   0  0  0  0  0  0  0  0  0  0  0  0
   11.2000    5.3880   -6.8320 C   0  0  2  0  0  0  0  0  0  0  0  0
   12.1180    4.2530   -7.2940 C   0  0  0  0  0  0  0  0  0  0  0  0
   11.3880    3.2700   -8.2060 C   0  0  0  0  0  0  0  0  0  0  0  0
   10.3400    3.9360   -9.0940 C   0  0  0  0  0  0  0  0  0  0  0  0
   10.6210    5.4190   -9.3190 C   0  0  0  0  0  0  0  0  0  0  0  0
   10.6080    6.2060   -8.0020 C   0  0  2  0  0  0  0  0  0  0  0  0
   11.3620    7.4750   -8.0170 N   0  0  0  0  0  0  0  0  0  0  0  0
   11.2470    8.5840   -8.8190 C   0  0  0  0  0  0  0  0  0  0  0  0
   11.0470    9.7070   -8.3350 O   0  0  0  0  0  0  0  0  0  0  0  0
   11.3890    8.4860  -10.3470 C   0  0  2  0  0  0  0  0  0  0  0  0
   12.8080    8.1180  -10.7110 N   0  0  0  0  0  0  0  0  0  0  0  0
   10.9550    9.7720  -11.0800 C   0  0  0  0  0  0  0  0  0  0  0  0
    9.8340    9.7350  -12.0930 C   0  0  0  0  0  0  0  0  0  0  0  0
    9.7380    9.0530  -13.2410 C   0  0  0  0  0  0  0  0  0  0  0  0
   10.6920    8.2880  -13.8680 N   0  0  0  0  0  0  0  0  0  0  0  0
   11.7480    8.7450  -14.5970 C   0  0  0  0  0  0  0  0  0  0  0  0
   11.7970    9.9110  -15.1320 N   0  0  0  0  0  0  0  0  0  0  0  0
   12.7200    7.8220  -14.7460 N   0  0  0  0  0  0  0  0  0  0  0  0
   16.5380    7.2880   -3.6800 C   0  0  0  0  0  0  0  0  0  0  0  0
   15.5080    7.9390   -3.6440 O   0  0  0  0  0  0  0  0  0  0  0  0
   16.7580    6.0500   -3.1370 N   0  0  0  0  0  0  0  0  0  0  0  0
   15.7350    5.3740   -2.3440 C   0  0  1  0  0  0  0  0  0  0  0  0
   14.9680    4.3240   -3.1650 C   0  0  0  0  0  0  0  0  0  0  0  0
   13.4650    4.3620   -2.9960 C   0  0  0  0  0  0  0  0  0  0  0  0
   12.8780    5.3060   -2.1400 C   0  0  0  0  0  0  0  0  0  0  0  0
   11.4910    5.3530   -1.9780 C   0  0  0  0  0  0  0  0  0  0  0  0
   10.6660    4.4540   -2.6600 C   0  0  0  0  0  0  0  0  0  0  0  0
    9.1740    4.5300   -2.5170 C   0  0  0  0  0  0  0  0  0  0  0  0
   11.2480    3.5280   -3.5310 C   0  0  0  0  0  0  0  0  0  0  0  0
   12.6350    3.4820   -3.6970 C   0  0  0  0  0  0  0  0  0  0  0  0
   16.4620    4.6670   -1.1910 C   0  0  0  0  0  0  0  0  0  0  0  0
   17.7320    5.0880   -0.9270 N   0  0  0  0  0  0  0  0  0  0  0  0
   15.9230    3.8120   -0.4890 O   0  0  0  0  0  0  0  0  0  0  0  0
   18.4804    8.3607   -2.4428 H   0  0  0  0  0  0  0  0  0  0  0  0
   19.7492    8.1212   -3.6916 H   0  0  0  0  0  0  0  0  0  0  0  0
   18.7607    9.6211   -3.6916 H   0  0  0  0  0  0  0  0  0  0  0  0
   16.4079    7.6130   -8.4012 H   0  0  0  0  0  0  0  0  0  0  0  0
   17.7358    9.5806   -6.9429 H   0  0  0  0  0  0  0  0  0  0  0  0
   16.7211   10.0738   -8.2855 H   0  0  0  0  0  0  0  0  0  0  0  0
   16.0424    9.9514   -5.2858 H   0  0  0  0  0  0  0  0  0  0  0  0
   15.6949   11.2689   -6.3902 H   0  0  0  0  0  0  0  0  0  0  0  0
   13.8125    9.3669   -5.7325 H   0  0  0  0  0  0  0  0  0  0  0  0
   13.8018   10.1167   -7.3313 H   0  0  0  0  0  0  0  0  0  0  0  0
   12.4158    8.4815   -6.4163 H   0  0  0  0  0  0  0  0  0  0  0  0
   12.8096    5.9619   -5.4897 H   0  0  0  0  0  0  0  0  0  0  0  0
   11.2931    6.8074   -5.1662 H   0  0  0  0  0  0  0  0  0  0  0  0
   10.4120    4.8652   -6.2702 H   0  0  0  0  0  0  0  0  0  0  0  0
   12.9685    4.6837   -7.8427 H   0  0  0  0  0  0  0  0  0  0  0  0
   12.4593    3.7049   -6.4035 H   0  0  0  0  0  0  0  0  0  0  0  0
   12.1292    2.7755   -8.8511 H   0  0  0  0  0  0  0  0  0  0  0  0
   10.8599    2.5546   -7.5584 H   0  0  0  0  0  0  0  0  0  0  0  0
   10.3293    3.4272  -10.0692 H   0  0  0  0  0  0  0  0  0  0  0  0
    9.3689    3.8537   -8.5838 H   0  0  0  0  0  0  0  0  0  0  0  0
   11.6097    5.5271   -9.7889 H   0  0  0  0  0  0  0  0  0  0  0  0
    9.8296    5.8231   -9.9674 H   0  0  0  0  0  0  0  0  0  0  0  0
    9.5377    6.4226   -7.8697 H   0  0  0  0  0  0  0  0  0  0  0  0
   10.7036    7.6940  -10.6832 H   0  0  0  0  0  0  0  0  0  0  0  0
   13.1350    7.2430  -10.2930 H   0  0  0  0  0  0  0  0  0  0  0  0
   13.4560    8.8840  -10.4910 H   0  0  0  0  0  0  0  0  0  0  0  0
   12.8620    8.0040  -11.7410 H   0  0  0  0  0  0  0  0  0  0  0  0
   10.6551   10.4915  -10.3039 H   0  0  0  0  0  0  0  0  0  0  0  0
   11.8350   10.0170  -11.6929 H   0  0  0  0  0  0  0  0  0  0  0  0
    8.9649   10.3640  -11.8501 H   0  0  0  0  0  0  0  0  0  0  0  0
    8.7651    9.1130  -13.7507 H   0  0  0  0  0  0  0  0  0  0  0  0
   10.9000    7.4130  -13.3880 H   0  0  0  0  0  0  0  0  0  0  0  0
   12.6920   10.0440  -15.6070 H   0  0  0  0  0  0  0  0  0  0  0  0
   12.4350    6.8460  -14.7650 H   0  0  0  0  0  0  0  0  0  0  0  0
   13.4420    8.0280  -15.4250 H   0  0  0  0  0  0  0  0  0  0  0  0
   17.7140    5.7410   -2.9820 H   0  0  0  0  0  0  0  0  0  0  0  0
   15.0014    6.1131   -1.9898 H   0  0  0  0  0  0  0  0  0  0  0  0
   15.1972    4.4867   -4.2285 H   0  0  0  0  0  0  0  0  0  0  0  0
   15.2968    3.3412   -2.7961 H   0  0  0  0  0  0  0  0  0  0  0  0
   13.5153    6.0153   -1.5916 H   0  0  0  0  0  0  0  0  0  0  0  0
   11.0448    6.1032   -1.3086 H   0  0  0  0  0  0  0  0  0  0  0  0
    8.9082    4.5435   -1.4497 H   0  0  0  0  0  0  0  0  0  0  0  0
    8.8058    5.4481   -2.9982 H   0  0  0  0  0  0  0  0  0  0  0  0
    8.7144    3.6541   -2.9982 H   0  0  0  0  0  0  0  0  0  0  0  0
   10.6086    2.8294   -4.0906 H   0  0  0  0  0  0  0  0  0  0  0  0
   13.0775    2.7469   -4.3853 H   0  0  0  0  0  0  0  0  0  0  0  0
   18.2380    4.5680   -0.2190 H   0  0  0  0  0  0  0  0  0  0  0  0
   18.2890    5.5670   -1.6230 H   0  0  0  0  0  0  0  0  0  0  0  0
  1  2  1  0
  2  3  2  0
  3  4  1  0
  4  5  2  0
  4  6  1  0
  6  7  1  0
  7  8  1  0
  8  9  1  0
  9 10  1  0
 10 11  1  0
 11 12  2  0
 11 13  1  0
 13 14  1  0
 14 15  1  0
 15 16  1  0
 16 17  1  0
 17 18  1  0
 18 19  1  0
 19 20  1  0
 20 21  1  0
 21 22  1  0
 22 23  2  0
 22 24  1  0
 24 25  1  0
 24 26  1  0
 26 27  1  0
 27 28  2  0
 28 29  1  0
 29 30  1  0
 30 31  2  3
 30 32  1  0
  2 33  1  0
 33 34  2  0
 33 35  1  0
 35 36  1  0
 36 37  1  0
 37 38  1  0
 38 39  2  0
 39 40  1  0
 40 41  2  0
 41 42  1  0
 41 43  1  0
 43 44  2  0
 36 45  1  0
 45 46  1  0
 45 47  2  0
 10  6  1  0
 21 13  1  0
 44 38  1  0
 20 15  1  0
  1 48  1  0
  1 49  1  0
  1 50  1  0
  6 51  1  6
  7 52  1  0
  7 53  1  0
  8 54  1  0
  8 55  1  0
  9 56  1  0
  9 57  1  0
 13 58  1  1
 14 59  1  0
 14 60  1  0
 15 61  1  1
 16 62  1  0
 16 63  1  0
 17 64  1  0
 17 65  1  0
 18 66  1  0
 18 67  1  0
 19 68  1  0
 19 69  1  0
 20 70  1  1
 24 71  1  6
 25 72  1  0
 25 73  1  0
 25 74  1  0
 26 75  1  0
 26 76  1  0
 27 77  1  0
 28 78  1  0
 29 79  1  0
 31 80  1  0
 32 81  1  0
 32 82  1  0
 35 83  1  0
 36 84  1  1
 37 85  1  0
 37 86  1  0
 39 87  1  0
 40 88  1  0
 42 89  1  0
 42 90  1  0
 42 91  1  0
 43 92  1  0
 44 93  1  0
 46 94  1  0
 46 95  1  0
M  CHG  1  25   1
M  END
>  <meeko>  (1) 
{"is_sidechain": [false], "free_energy": -8.417, "intermolecular_energy": -15.551, "internal_energy": -3.542}

$$$$
3bv9_ligand
     RDKit          3D

 95 98  0  0  0  0  0  0  0  0999 V2000
   16.1670    5.9460   -1.1600 C   0  0  0  0  0  0  0  0  0  0  0  0
   15.5330    5.8680   -2.5180 C   0  0  0  0  0  0  0  0  0  0  0  0
   16.2710    5.7730   -3.5840 N   0  0  0  0  0  0  0  0  0  0  0  0
   15.6060    5.7130   -4.7890 C   0  0  0  0  0  0  0  0  0  0  0  0
   14.7560    4.8630   -5.0450 O   0  0  0  0  0  0  0  0  0  0  0  0
   15.9630    6.8150   -5.8170 C   0  0  2  0  0  0  0  0  0  0  0  0
   16.8650    7.8630   -5.1610 C   0  0  0  0  0  0  0  0  0  0  0  0
   15.8780    8.9060   -4.6450 C   0  0  0  0  0  0  0  0  0  0  0  0
   14.7960    8.9280   -5.7110 C   0  0  0  0  0  0  0  0  0  0  0  0
   14.8290    7.6080   -6.3180 N   0  0  0  0  0  0  0  0  0  0  0  0
   13.8840    7.2400   -7.2490 C   0  0  0  0  0  0  0  0  0  0  0  0
   14.1990    6.6320   -8.2790 O   0  0  0  0  0  0  0  0  0  0  0  0
   12.4010    7.5960   -6.9680 C   0  0  2  0  0  0  0  0  0  0  0  0
   11.6920    6.5900   -6.0670 C   0  0  0  0  0  0  0  0  0  0  0  0
   11.0600    5.5750   -7.0180 C   0  0  2  0  0  0  0  0  0  0  0  0
   11.9490    4.3480   -7.2400 C   0  0  0  0  0  0  0  0  0  0  0  0
   11.3330    3.3760   -8.2430 C   0  0  0  0  0  0  0  0  0  0  0  0
   10.5450    4.0710   -9.3500 C   0  0  0  0  0  0  0  0  0  0  0  0
   10.9920    5.5130   -9.5700 C   0  0  0  0  0  0  0  0  0  0  0  0
   10.7850    6.3700   -8.3140 C   0  0  2  0  0  0  0  0  0  0  0  0
   11.6350    7.5740   -8.2250 N   0  0  0  0  0  0  0  0  0  0  0  0
   11.7790    8.6430   -9.0750 C   0  0  0  0  0  0  0  0  0  0  0  0
   12.0850    9.7660   -8.6480 O   0  0  0  0  0  0  0  0  0  0  0  0
   11.5940    8.4890  -10.5940 C   0  0  2  0  0  0  0  0  0  0  0  0
   12.9350    8.5540  -11.2860 N   0  0  0  0  0  0  0  0  0  0  0  0
   10.6200    9.5240  -11.1940 C   0  0  0  0  0  0  0  0  0  0  0  0
    9.7070    9.1430  -12.3380 C   0  0  0  0  0  0  0  0  0  0  0  0
    9.9010    9.2430  -13.6590 C   0  0  0  0  0  0  0  0  0  0  0  0
   10.9440    9.8320  -14.3320 N   0  0  0  0  0  0  0  0  0  0  0  0
   12.0420    9.2040  -14.8380 C   0  0  0  0  0  0  0  0  0  0  0  0
   12.4600    8.0590  -14.4350 N   0  0  0  0  0  0  0  0  0  0  0  0
   12.6800    9.9360  -15.7740 N   0  0  0  0  0  0  0  0  0  0  0  0
   14.0150    5.9080   -2.5260 C   0  0  0  0  0  0  0  0  0  0  0  0
   13.4600    6.9850   -2.6580 O   0  0  0  0  0  0  0  0  0  0  0  0
   13.4240    4.6820   -2.3680 N   0  0  0  0  0  0  0  0  0  0  0  0
   11.9740    4.5440   -2.2640 C   0  0  1  0  0  0  0  0  0  0  0  0
   11.2350    5.7930   -2.7730 C   0  0  0  0  0  0  0  0  0  0  0  0
    9.9480    6.1080   -2.0450 C   0  0  0  0  0  0  0  0  0  0  0  0
    8.7580    5.4600   -2.4090 C   0  0  0  0  0  0  0  0  0  0  0  0
    7.5630    5.7410   -1.7420 C   0  0  0  0  0  0  0  0  0  0  0  0
    7.5310    6.6780   -0.7050 C   0  0  0  0  0  0  0  0  0  0  0  0
    6.2570    6.9500    0.0380 C   0  0  0  0  0  0  0  0  0  0  0  0
    8.7210    7.3070   -0.3260 C   0  0  0  0  0  0  0  0  0  0  0  0
    9.9180    7.0260   -0.9890 C   0  0  0  0  0  0  0  0  0  0  0  0
   11.5780    3.3450   -3.1380 C   0  0  0  0  0  0  0  0  0  0  0  0
   10.5640    2.5620   -2.6670 N   0  0  0  0  0  0  0  0  0  0  0  0
   12.0900    3.1220   -4.2340 O   0  0  0  0  0  0  0  0  0  0  0  0
   15.3905    5.8505   -0.3868 H   0  0  0  0  0  0  0  0  0  0  0  0
   16.8973    5.1309   -1.0489 H   0  0  0  0  0  0  0  0  0  0  0  0
   16.6779    6.9138   -1.0489 H   0  0  0  0  0  0  0  0  0  0  0  0
   16.4165    6.2509   -6.6453 H   0  0  0  0  0  0  0  0  0  0  0  0
   17.4417    7.4236   -4.3337 H   0  0  0  0  0  0  0  0  0  0  0  0
   17.6100    8.2822   -5.8533 H   0  0  0  0  0  0  0  0  0  0  0  0
   15.4640    8.6074   -3.6706 H   0  0  0  0  0  0  0  0  0  0  0  0
   16.3406    9.8908   -4.4836 H   0  0  0  0  0  0  0  0  0  0  0  0
   13.8122    9.1191   -5.2576 H   0  0  0  0  0  0  0  0  0  0  0  0
   14.9654    9.7241   -6.4510 H   0  0  0  0  0  0  0  0  0  0  0  0
   12.4325    8.5828   -6.4830 H   0  0  0  0  0  0  0  0  0  0  0  0
   12.4127    6.0957   -5.3990 H   0  0  0  0  0  0  0  0  0  0  0  0
   10.9417    7.0724   -5.4234 H   0  0  0  0  0  0  0  0  0  0  0  0
   10.1336    5.1464   -6.6080 H   0  0  0  0  0  0  0  0  0  0  0  0
   12.9262    4.6804   -7.6203 H   0  0  0  0  0  0  0  0  0  0  0  0
   12.0563    3.8248   -6.2783 H   0  0  0  0  0  0  0  0  0  0  0  0
   12.1421    2.7910   -8.7046 H   0  0  0  0  0  0  0  0  0  0  0  0
   10.6264    2.7403   -7.6894 H   0  0  0  0  0  0  0  0  0  0  0  0
   10.6849    3.5117  -10.2868 H   0  0  0  0  0  0  0  0  0  0  0  0
    9.4884    4.0920   -9.0448 H   0  0  0  0  0  0  0  0  0  0  0  0
   12.0600    5.5188   -9.8333 H   0  0  0  0  0  0  0  0  0  0  0  0
   10.3835    5.9405  -10.3805 H   0  0  0  0  0  0  0  0  0  0  0  0
    9.7325    6.6751   -8.4095 H   0  0  0  0  0  0  0  0  0  0  0  0
   11.1376    7.5028  -10.7643 H   0  0  0  0  0  0  0  0  0  0  0  0
   13.7040    8.1440  -10.7500 H   0  0  0  0  0  0  0  0  0  0  0  0
   13.1620    9.5170  -11.5600 H   0  0  0  0  0  0  0  0  0  0  0  0
   12.8680    8.0270  -12.1770 H   0  0  0  0  0  0  0  0  0  0  0  0
    9.9717    9.8609  -10.3717 H   0  0  0  0  0  0  0  0  0  0  0  0
   11.2941   10.2639  -11.6502 H   0  0  0  0  0  0  0  0  0  0  0  0
    8.7366    8.7196  -12.0395 H   0  0  0  0  0  0  0  0  0  0  0  0
    9.1205    8.7932  -14.2903 H   0  0  0  0  0  0  0  0  0  0  0  0
   10.6720   10.6450  -14.8840 H   0  0  0  0  0  0  0  0  0  0  0  0
   13.2810    7.7730  -14.9730 H   0  0  0  0  0  0  0  0  0  0  0  0
   12.6330   10.9480  -15.6830 H   0  0  0  0  0  0  0  0  0  0  0  0
   13.5980    9.6150  -16.0540 H   0  0  0  0  0  0  0  0  0  0  0  0
   13.9700    3.9160   -1.9860 H   0  0  0  0  0  0  0  0  0  0  0  0
   11.6973    4.4072   -1.2082 H   0  0  0  0  0  0  0  0  0  0  0  0
   11.9085    6.6562   -2.6668 H   0  0  0  0  0  0  0  0  0  0  0  0
   10.9577    5.5851   -3.8170 H   0  0  0  0  0  0  0  0  0  0  0  0
    8.7660    4.7243   -3.2267 H   0  0  0  0  0  0  0  0  0  0  0  0
    6.6394    5.2205   -2.0353 H   0  0  0  0  0  0  0  0  0  0  0  0
    6.4480    6.9092    1.1205 H   0  0  0  0  0  0  0  0  0  0  0  0
    5.8818    7.9485   -0.2308 H   0  0  0  0  0  0  0  0  0  0  0  0
    5.5067    6.1918   -0.2308 H   0  0  0  0  0  0  0  0  0  0  0  0
    8.7145    8.0304    0.5026 H   0  0  0  0  0  0  0  0  0  0  0  0
   10.8448    7.5305   -0.6785 H   0  0  0  0  0  0  0  0  0  0  0  0
   10.3580    1.7270   -3.2050 H   0  0  0  0  0  0  0  0  0  0  0  0
   10.3180    2.5430   -1.6870 H   0  0  0  0  0  0  0  0  0  0  0  0
  1  2  1  0
  2  3  2  0
  3  4  1  0
  4  5  2  0
  4  6  1  0
  6  7  1  0
  7  8  1  0
  8  9  1  0
  9 10  1  0
 10 11  1  0
 11 12  2  0
 11 13  1  0
 13 14  1  0
 14 15  1  0
 15 16  1  0
 16 17  1  0
 17 18  1  0
 18 19  1  0
 19 20  1  0
 20 21  1  0
 21 22  1  0
 22 23  2  0
 22 24  1  0
 24 25  1  0
 24 26  1  0
 26 27  1  0
 27 28  2  0
 28 29  1  0
 29 30  1  0
 30 31  2  3
 30 32  1  0
  2 33  1  0
 33 34  2  0
 33 35  1  0
 35 36  1  0
 36 37  1  0
 37 38  1  0
 38 39  2  0
 39 40  1  0
 40 41  2  0
 41 42  1  0
 41 43  1  0
 43 44  2  0
 36 45  1  0
 45 46  1  0
 45 47  2  0
 10  6  1  0
 21 13  1  0
 44 38  1  0
 20 15  1  0
  1 48  1  0
  1 49  1  0
  1 50  1  0
  6 51  1  6
  7 52  1  0
  7 53  1  0
  8 54  1  0
  8 55  1  0
  9 56  1  0
  9 57  1  0
 13 58  1  1
 14 59  1  0
 14 60  1  0
 15 61  1  1
 16 62  1  0
 16 63  1  0
 17 64  1  0
 17 65  1  0
 18 66  1  0
 18 67  1  0
 19 68  1  0
 19 69  1  0
 20 70  1  1
 24 71  1  1
 25 72  1  0
 25 73  1  0
 25 74  1  0
 26 75  1  0
 26 76  1  0
 27 77  1  0
 28 78  1  0
 29 79  1  0
 31 80  1  0
 32 81  1  0
 32 82  1  0
 35 83  1  0
 36 84  1  1
 37 85  1  0
 37 86  1  0
 39 87  1  0
 40 88  1  0
 42 89  1  0
 42 90  1  0
 42 91  1  0
 43 92  1  0
 44 93  1  0
 46 94  1  0
 46 95  1  0
M  CHG  1  25   1
M  END
>  <meeko>  (2) 
{"is_sidechain": [false], "free_energy": -8.402, "intermolecular_energy": -17.296, "internal_energy": -1.769}

$$$$
3bv9_ligand
     RDKit          3D

 95 98  0  0  0  0  0  0  0  0999 V2000
   17.2050    6.1630   -7.8570 C   0  0  0  0  0  0  0  0  0  0  0  0
   17.3530    7.1370   -6.7240 C   0  0  0  0  0  0  0  0  0  0  0  0
   17.7350    6.7270   -5.5500 N   0  0  0  0  0  0  0  0  0  0  0  0
   17.8390    7.6880   -4.5690 C   0  0  0  0  0  0  0  0  0  0  0  0
   18.5670    8.6720   -4.6670 O   0  0  0  0  0  0  0  0  0  0  0  0
   16.9450    7.4820   -3.3210 C   0  0  2  0  0  0  0  0  0  0  0  0
   17.8150    7.1480   -2.1080 C   0  0  0  0  0  0  0  0  0  0  0  0
   17.8610    5.6230   -2.1130 C   0  0  0  0  0  0  0  0  0  0  0  0
   16.4720    5.2290   -2.5860 C   0  0  0  0  0  0  0  0  0  0  0  0
   16.0090    6.3480   -3.3900 N   0  0  0  0  0  0  0  0  0  0  0  0
   14.8220    6.2700   -4.0830 C   0  0  0  0  0  0  0  0  0  0  0  0
   14.3480    7.2580   -4.6580 O   0  0  0  0  0  0  0  0  0  0  0  0
   14.0930    4.9020   -4.1380 C   0  0  2  0  0  0  0  0  0  0  0  0
   14.2490    4.1820   -5.4730 C   0  0  0  0  0  0  0  0  0  0  0  0
   13.0530    4.6270   -6.3130 C   0  0  2  0  0  0  0  0  0  0  0  0
   13.3840    5.8160   -7.2190 C   0  0  0  0  0  0  0  0  0  0  0  0
   12.1620    6.2900   -8.0000 C   0  0  0  0  0  0  0  0  0  0  0  0
   10.8560    6.1460   -7.2230 C   0  0  0  0  0  0  0  0  0  0  0  0
   11.0730    6.1240   -5.7130 C   0  0  0  0  0  0  0  0  0  0  0  0
   11.9450    4.9370   -5.2820 C   0  0  2  0  0  0  0  0  0  0  0  0
   12.6420    5.1030   -3.9910 N   0  0  0  0  0  0  0  0  0  0  0  0
   12.1610    5.3600   -2.7310 C   0  0  0  0  0  0  0  0  0  0  0  0
   12.1370    4.4780   -1.8610 O   0  0  0  0  0  0  0  0  0  0  0  0
   11.6580    6.7590   -2.3360 C   0  0  2  0  0  0  0  0  0  0  0  0
   12.8010    7.7460   -2.3650 N   0  0  0  0  0  0  0  0  0  0  0  0
   10.9510    6.7840   -0.9650 C   0  0  0  0  0  0  0  0  0  0  0  0
    9.4620    7.0290   -0.8750 C   0  0  0  0  0  0  0  0  0  0  0  0
    8.4500    6.1530   -0.8330 C   0  0  0  0  0  0  0  0  0  0  0  0
    8.4890    4.7870   -0.9790 N   0  0  0  0  0  0  0  0  0  0  0  0
    8.7700    4.1010   -2.1220 C   0  0  0  0  0  0  0  0  0  0  0  0
    8.6560    4.5970   -3.3000 N   0  0  0  0  0  0  0  0  0  0  0  0
    9.1300    2.8220   -1.8890 N   0  0  0  0  0  0  0  0  0  0  0  0
   17.0320    8.5810   -7.0680 C   0  0  0  0  0  0  0  0  0  0  0  0
   17.8040    9.1960   -7.7830 O   0  0  0  0  0  0  0  0  0  0  0  0
   15.8710    9.0430   -6.5060 N   0  0  0  0  0  0  0  0  0  0  0  0
   15.4530   10.4330   -6.6590 C   0  0  1  0  0  0  0  0  0  0  0  0
   13.9400   10.6090   -6.4490 C   0  0  0  0  0  0  0  0  0  0  0  0
   13.0870   10.2280   -7.6390 C   0  0  0  0  0  0  0  0  0  0  0  0
   11.7170    9.9800   -7.4710 C   0  0  0  0  0  0  0  0  0  0  0  0
   10.9190    9.6300   -8.5620 C   0  0  0  0  0  0  0  0  0  0  0  0
   11.4740    9.5140   -9.8400 C   0  0  0  0  0  0  0  0  0  0  0  0
   10.6090    9.1770  -11.0190 C   0  0  0  0  0  0  0  0  0  0  0  0
   12.8340    9.7840  -10.0140 C   0  0  0  0  0  0  0  0  0  0  0  0
   13.6340   10.1370   -8.9240 C   0  0  0  0  0  0  0  0  0  0  0  0
   16.1990   11.2420   -5.5880 C   0  0  0  0  0  0  0  0  0  0  0  0
   16.1310   10.7640   -4.3120 N   0  0  0  0  0  0  0  0  0  0  0  0
   16.8800   12.2320   -5.8550 O   0  0  0  0  0  0  0  0  0  0  0  0
   17.0513    5.1514   -7.4532 H   0  0  0  0  0  0  0  0  0  0  0  0
   16.3397    6.4469   -8.4739 H   0  0  0  0  0  0  0  0  0  0  0  0
   18.1156    6.1771   -8.4739 H   0  0  0  0  0  0  0  0  0  0  0  0
   16.3828    8.4252   -3.2553 H   0  0  0  0  0  0  0  0  0  0  0  0
   18.8238    7.5723   -2.2187 H   0  0  0  0  0  0  0  0  0  0  0  0
   17.4188    7.5620   -1.1691 H   0  0  0  0  0  0  0  0  0  0  0  0
   18.6317    5.2550   -2.8062 H   0  0  0  0  0  0  0  0  0  0  0  0
   18.1161    5.1984   -1.1309 H   0  0  0  0  0  0  0  0  0  0  0  0
   16.5169    4.3119   -3.1917 H   0  0  0  0  0  0  0  0  0  0  0  0
   15.7955    5.0213   -1.7439 H   0  0  0  0  0  0  0  0  0  0  0  0
   14.5438    4.3062   -3.3307 H   0  0  0  0  0  0  0  0  0  0  0  0
   15.1915    4.4730   -5.9599 H   0  0  0  0  0  0  0  0  0  0  0  0
   14.2792    3.0895   -5.3487 H   0  0  0  0  0  0  0  0  0  0  0  0
   12.7334    3.8492   -7.0222 H   0  0  0  0  0  0  0  0  0  0  0  0
   13.7533    6.6452   -6.5977 H   0  0  0  0  0  0  0  0  0  0  0  0
   14.1479    5.4932   -7.9417 H   0  0  0  0  0  0  0  0  0  0  0  0
   12.3010    7.3508   -8.2558 H   0  0  0  0  0  0  0  0  0  0  0  0
   12.0806    5.6552   -8.8947 H   0  0  0  0  0  0  0  0  0  0  0  0
   10.2017    6.9942   -7.4729 H   0  0  0  0  0  0  0  0  0  0  0  0
   10.4014    5.1860   -7.5090 H   0  0  0  0  0  0  0  0  0  0  0  0
   11.5681    7.0585   -5.4104 H   0  0  0  0  0  0  0  0  0  0  0  0
   10.0914    6.0226   -5.2270 H   0  0  0  0  0  0  0  0  0  0  0  0
   11.2086    4.1245   -5.1945 H   0  0  0  0  0  0  0  0  0  0  0  0
   10.9001    7.0496   -3.0784 H   0  0  0  0  0  0  0  0  0  0  0  0
   12.6310    8.5670   -2.9520 H   0  0  0  0  0  0  0  0  0  0  0  0
   13.6780    7.2870   -2.6350 H   0  0  0  0  0  0  0  0  0  0  0  0
   12.9600    8.0890   -1.3990 H   0  0  0  0  0  0  0  0  0  0  0  0
   11.1388    5.8071   -0.4955 H   0  0  0  0  0  0  0  0  0  0  0  0
   11.3784    7.6751   -0.4820 H   0  0  0  0  0  0  0  0  0  0  0  0
    9.1647    8.0874   -0.8385 H   0  0  0  0  0  0  0  0  0  0  0  0
    7.4535    6.5848   -0.6581 H   0  0  0  0  0  0  0  0  0  0  0  0
    8.7950    4.2920   -0.1420 H   0  0  0  0  0  0  0  0  0  0  0  0
    8.9450    3.9110   -4.0010 H   0  0  0  0  0  0  0  0  0  0  0  0
    8.7290    2.3680   -1.0720 H   0  0  0  0  0  0  0  0  0  0  0  0
    9.1720    2.2080   -2.6930 H   0  0  0  0  0  0  0  0  0  0  0  0
   15.4720    8.5450   -5.7150 H   0  0  0  0  0  0  0  0  0  0  0  0
   15.6833   10.7713   -7.6800 H   0  0  0  0  0  0  0  0  0  0  0  0
   13.6375    9.9832   -5.5965 H   0  0  0  0  0  0  0  0  0  0  0  0
   13.7733   11.6829   -6.2789 H   0  0  0  0  0  0  0  0  0  0  0  0
   11.2670   10.0619   -6.4706 H   0  0  0  0  0  0  0  0  0  0  0  0
    9.8449    9.4440   -8.4148 H   0  0  0  0  0  0  0  0  0  0  0  0
    9.6384    8.7989  -10.6655 H   0  0  0  0  0  0  0  0  0  0  0  0
   10.4512   10.0794  -11.6279 H   0  0  0  0  0  0  0  0  0  0  0  0
   11.1033    8.4057  -11.6279 H   0  0  0  0  0  0  0  0  0  0  0  0
   13.2788    9.7181  -11.0179 H   0  0  0  0  0  0  0  0  0  0  0  0
   14.7032   10.3452   -9.0773 H   0  0  0  0  0  0  0  0  0  0  0  0
   16.5570   11.3410   -3.5960 H   0  0  0  0  0  0  0  0  0  0  0  0
   15.3890   10.1450   -4.0150 H   0  0  0  0  0  0  0  0  0  0  0  0
  1  2  1  0
  2  3  2  0
  3  4  1  0
  4  5  2  0
  4  6  1  0
  6  7  1  0
  7  8  1  0
  8  9  1  0
  9 10  1  0
 10 11  1  0
 11 12  2  0
 11 13  1  0
 13 14  1  0
 14 15  1  0
 15 16  1  0
 16 17  1  0
 17 18  1  0
 18 19  1  0
 19 20  1  0
 20 21  1  0
 21 22  1  0
 22 23  2  0
 22 24  1  0
 24 25  1  0
 24 26  1  0
 26 27  1  0
 27 28  2  0
 28 29  1  0
 29 30  1  0
 30 31  2  3
 30 32  1  0
  2 33  1  0
 33 34  2  0
 33 35  1  0
 35 36  1  0
 36 37  1  0
 37 38  1  0
 38 39  2  0
 39 40  1  0
 40 41  2  0
 41 42  1  0
 41 43  1  0
 43 44  2  0
 36 45  1  0
 45 46  1  0
 45 47  2  0
 10  6  1  0
 21 13  1  0
 44 38  1  0
 20 15  1  0
  1 48  1  0
  1 49  1  0
  1 50  1  0
  6 51  1  1
  7 52  1  0
  7 53  1  0
  8 54  1  0
  8 55  1  0
  9 56  1  0
  9 57  1  0
 13 58  1  1
 14 59  1  0
 14 60  1  0
 15 61  1  6
 16 62  1  0
 16 63  1  0
 17 64  1  0
 17 65  1  0
 18 66  1  0
 18 67  1  0
 19 68  1  0
 19 69  1  0
 20 70  1  1
 24 71  1  6
 25 72  1  0
 25 73  1  0
 25 74  1  0
 26 75  1  0
 26 76  1  0
 27 77  1  0
 28 78  1  0
 29 79  1  0
 31 80  1  0
 32 81  1  0
 32 82  1  0
 35 83  1  0
 36 84  1  6
 37 85  1  0
 37 86  1  0
 39 87  1  0
 40 88  1  0
 42 89  1  0
 42 90  1  0
 42 91  1  0
 43 92  1  0
 44 93  1  0
 46 94  1  0
 46 95  1  0
M  CHG  1  25   1
M  END
>  <meeko>  (3) 
{"is_sidechain": [false], "free_energy": -8.353, "intermolecular_energy": -14.723, "internal_energy": -4.253}

$$$$
3bv9_ligand
     RDKit          3D

 95 98  0  0  0  0  0  0  0  0999 V2000
   15.9760    4.2150   -0.9420 C   0  0  0  0  0  0  0  0  0  0  0  0
   15.7080    4.8920   -2.2550 C   0  0  0  0  0  0  0  0  0  0  0  0
   16.5850    4.8380   -3.2140 N   0  0  0  0  0  0  0  0  0  0  0  0
   16.2580    5.4920   -4.3810 C   0  0  0  0  0  0  0  0  0  0  0  0
   15.2890    5.1880   -5.0720 O   0  0  0  0  0  0  0  0  0  0  0  0
   17.1720    6.6800   -4.7710 C   0  0  2  0  0  0  0  0  0  0  0  0
   18.3810    6.7330   -3.8350 C   0  0  0  0  0  0  0  0  0  0  0  0
   17.9270    7.6730   -2.7230 C   0  0  0  0  0  0  0  0  0  0  0  0
   17.0800    8.7020   -3.4520 C   0  0  0  0  0  0  0  0  0  0  0  0
   16.5730    8.0160   -4.6290 N   0  0  0  0  0  0  0  0  0  0  0  0
   15.6580    8.6270   -5.4570 C   0  0  0  0  0  0  0  0  0  0  0  0
   14.6970    9.2560   -4.9990 O   0  0  0  0  0  0  0  0  0  0  0  0
   15.8710    8.5200   -6.9900 C   0  0  2  0  0  0  0  0  0  0  0  0
   16.9670    9.4390   -7.5190 C   0  0  0  0  0  0  0  0  0  0  0  0
   16.2520   10.7320   -7.9110 C   0  0  2  0  0  0  0  0  0  0  0  0
   16.2830   11.7790   -6.7930 C   0  0  0  0  0  0  0  0  0  0  0  0
   15.5090   13.0370   -7.1750 C   0  0  0  0  0  0  0  0  0  0  0  0
   14.2880   12.7530   -8.0470 C   0  0  0  0  0  0  0  0  0  0  0  0
   13.7690   11.3280   -7.8800 C   0  0  0  0  0  0  0  0  0  0  0  0
   14.8220   10.2890   -8.2910 C   0  0  2  0  0  0  0  0  0  0  0  0
   14.6520    8.9500   -7.6950 N   0  0  0  0  0  0  0  0  0  0  0  0
   13.5980    8.0710   -7.7330 C   0  0  0  0  0  0  0  0  0  0  0  0
   12.5210    8.3350   -7.1770 O   0  0  0  0  0  0  0  0  0  0  0  0
   13.6940    6.7350   -8.4890 C   0  0  2  0  0  0  0  0  0  0  0  0
   13.2830    6.9270   -9.9300 N   0  0  0  0  0  0  0  0  0  0  0  0
   12.8720    5.6060   -7.8340 C   0  0  0  0  0  0  0  0  0  0  0  0
   11.8840    4.8060   -8.6510 C   0  0  0  0  0  0  0  0  0  0  0  0
   10.8910    4.0020   -8.2480 C   0  0  0  0  0  0  0  0  0  0  0  0
   10.5780    3.5960   -6.9730 N   0  0  0  0  0  0  0  0  0  0  0  0
   11.0790    2.5100   -6.3220 C   0  0  0  0  0  0  0  0  0  0  0  0
   11.6050    1.5000   -6.9140 N   0  0  0  0  0  0  0  0  0  0  0  0
   10.9170    2.5800   -4.9850 N   0  0  0  0  0  0  0  0  0  0  0  0
   14.3730    5.6100   -2.3500 C   0  0  0  0  0  0  0  0  0  0  0  0
   14.3200    6.7860   -2.0330 O   0  0  0  0  0  0  0  0  0  0  0  0
   13.3440    4.8200   -2.7890 N   0  0  0  0  0  0  0  0  0  0  0  0
   11.9750    5.3230   -2.8580 C   0  0  1  0  0  0  0  0  0  0  0  0
   11.6660    6.3190   -1.7290 C   0  0  0  0  0  0  0  0  0  0  0  0
   10.2020    6.4330   -1.3670 C   0  0  0  0  0  0  0  0  0  0  0  0
    9.7770    7.4090   -0.4540 C   0  0  0  0  0  0  0  0  0  0  0  0
    8.4270    7.5250   -0.1140 C   0  0  0  0  0  0  0  0  0  0  0  0
    7.4770    6.6650   -0.6740 C   0  0  0  0  0  0  0  0  0  0  0  0
    6.0220    6.8160   -0.3410 C   0  0  0  0  0  0  0  0  0  0  0  0
    7.8950    5.7080   -1.6020 C   0  0  0  0  0  0  0  0  0  0  0  0
    9.2450    5.5910   -1.9460 C   0  0  0  0  0  0  0  0  0  0  0  0
   11.8340    6.0430   -4.2070 C   0  0  0  0  0  0  0  0  0  0  0  0
   12.7950    6.9640   -4.5050 N   0  0  0  0  0  0  0  0  0  0  0  0
   10.9470    5.7730   -5.0160 O   0  0  0  0  0  0  0  0  0  0  0  0
   15.7076    4.8930   -0.1184 H   0  0  0  0  0  0  0  0  0  0  0  0
   15.3733    3.2974   -0.8728 H   0  0  0  0  0  0  0  0  0  0  0  0
   17.0435    3.9586   -0.8728 H   0  0  0  0  0  0  0  0  0  0  0  0
   17.4003    6.4862   -5.8294 H   0  0  0  0  0  0  0  0  0  0  0  0
   18.6137    5.7347   -3.4359 H   0  0  0  0  0  0  0  0  0  0  0  0
   19.2982    7.0740   -4.3375 H   0  0  0  0  0  0  0  0  0  0  0  0
   17.3310    7.1342   -1.9717 H   0  0  0  0  0  0  0  0  0  0  0  0
   18.7667    8.1220   -2.1722 H   0  0  0  0  0  0  0  0  0  0  0  0
   16.2493    9.0389   -2.8145 H   0  0  0  0  0  0  0  0  0  0  0  0
   17.6606    9.5978   -3.7174 H   0  0  0  0  0  0  0  0  0  0  0  0
   16.1401    7.4682   -7.1673 H   0  0  0  0  0  0  0  0  0  0  0  0
   17.7167    9.6344   -6.7381 H   0  0  0  0  0  0  0  0  0  0  0  0
   17.5033    8.9920   -8.3691 H   0  0  0  0  0  0  0  0  0  0  0  0
   16.7484   11.2413   -8.7501 H   0  0  0  0  0  0  0  0  0  0  0  0
   15.8343   11.3460   -5.8868 H   0  0  0  0  0  0  0  0  0  0  0  0
   17.3314   12.0620   -6.6178 H   0  0  0  0  0  0  0  0  0  0  0  0
   15.1718   13.5331   -6.2529 H   0  0  0  0  0  0  0  0  0  0  0  0
   16.1885   13.6720   -7.7624 H   0  0  0  0  0  0  0  0  0  0  0  0
   13.4869   13.4547   -7.7715 H   0  0  0  0  0  0  0  0  0  0  0  0
   14.5912   12.8772   -9.0971 H   0  0  0  0  0  0  0  0  0  0  0  0
   13.5020   11.1671   -6.8251 H   0  0  0  0  0  0  0  0  0  0  0  0
   12.8916   11.2037   -8.5317 H   0  0  0  0  0  0  0  0  0  0  0  0
   14.6740   10.2226   -9.3790 H   0  0  0  0  0  0  0  0  0  0  0  0
   14.7455    6.4152   -8.4433 H   0  0  0  0  0  0  0  0  0  0  0  0
   12.4140    7.4550  -10.0520 H   0  0  0  0  0  0  0  0  0  0  0  0
   13.2280    6.0280  -10.4210 H   0  0  0  0  0  0  0  0  0  0  0  0
   14.0320    7.4560  -10.4160 H   0  0  0  0  0  0  0  0  0  0  0  0
   13.5955    4.8873   -7.4216 H   0  0  0  0  0  0  0  0  0  0  0  0
   12.2277    6.1470   -7.1254 H   0  0  0  0  0  0  0  0  0  0  0  0
   11.9972    4.8976   -9.7413 H   0  0  0  0  0  0  0  0  0  0  0  0
   10.2387    3.6149   -9.0446 H   0  0  0  0  0  0  0  0  0  0  0  0
   10.3570    4.3630   -6.3390 H   0  0  0  0  0  0  0  0  0  0  0  0
   11.9340    0.8190   -6.2270 H   0  0  0  0  0  0  0  0  0  0  0  0
   10.1040    3.0870   -4.6420 H   0  0  0  0  0  0  0  0  0  0  0  0
   11.0960    1.7340   -4.4600 H   0  0  0  0  0  0  0  0  0  0  0  0
   13.4430    3.8100   -2.7460 H   0  0  0  0  0  0  0  0  0  0  0  0
   11.2734    4.4824   -2.7528 H   0  0  0  0  0  0  0  0  0  0  0  0
   12.2166    6.0006   -0.8315 H   0  0  0  0  0  0  0  0  0  0  0  0
   11.9720    7.3093   -2.0973 H   0  0  0  0  0  0  0  0  0  0  0  0
   10.5134    8.0894   -0.0015 H   0  0  0  0  0  0  0  0  0  0  0  0
    8.1087    8.2990    0.5999 H   0  0  0  0  0  0  0  0  0  0  0  0
    5.8954    6.8291    0.7516 H   0  0  0  0  0  0  0  0  0  0  0  0
    5.6446    7.7581   -0.7652 H   0  0  0  0  0  0  0  0  0  0  0  0
    5.4592    5.9714   -0.7652 H   0  0  0  0  0  0  0  0  0  0  0  0
    7.1547    5.0400   -2.0665 H   0  0  0  0  0  0  0  0  0  0  0  0
    9.5578    4.8313   -2.6774 H   0  0  0  0  0  0  0  0  0  0  0  0
   12.6570    7.4940   -5.3580 H   0  0  0  0  0  0  0  0  0  0  0  0
   13.3550    7.4000   -3.7840 H   0  0  0  0  0  0  0  0  0  0  0  0
  1  2  1  0
  2  3  2  0
  3  4  1  0
  4  5  2  0
  4  6  1  0
  6  7  1  0
  7  8  1  0
  8  9  1  0
  9 10  1  0
 10 11  1  0
 11 12  2  0
 11 13  1  0
 13 14  1  0
 14 15  1  0
 15 16  1  0
 16 17  1  0
 17 18  1  0
 18 19  1  0
 19 20  1  0
 20 21  1  0
 21 22  1  0
 22 23  2  0
 22 24  1  0
 24 25  1  0
 24 26  1  0
 26 27  1  0
 27 28  2  0
 28 29  1  0
 29 30  1  0
 30 31  2  3
 30 32  1  0
  2 33  1  0
 33 34  2  0
 33 35  1  0
 35 36  1  0
 36 37  1  0
 37 38  1  0
 38 39  2  0
 39 40  1  0
 40 41  2  0
 41 42  1  0
 41 43  1  0
 43 44  2  0
 36 45  1  0
 45 46  1  0
 45 47  2  0
 10  6  1  0
 21 13  1  0
 44 38  1  0
 20 15  1  0
  1 48  1  0
  1 49  1  0
  1 50  1  0
  6 51  1  6
  7 52  1  0
  7 53  1  0
  8 54  1  0
  8 55  1  0
  9 56  1  0
  9 57  1  0
 13 58  1  1
 14 59  1  0
 14 60  1  0
 15 61  1  6
 16 62  1  0
 16 63  1  0
 17 64  1  0
 17 65  1  0
 18 66  1  0
 18 67  1  0
 19 68  1  0
 19 69  1  0
 20 70  1  6
 24 71  1  6
 25 72  1  0
 25 73  1  0
 25 74  1  0
 26 75  1  0
 26 76  1  0
 27 77  1  0
 28 78  1  0
 29 79  1  0
 31 80  1  0
 32 81  1  0
 32 82  1  0
 35 83  1  0
 36 84  1  6
 37 85  1  0
 37 86  1  0
 39 87  1  0
 40 88  1  0
 42 89  1  0
 42 90  1  0
 42 91  1  0
 43 92  1  0
 44 93  1  0
 46 94  1  0
 46 95  1  0
M  CHG  1  25   1
M  END
>  <meeko>  (4) 
{"is_sidechain": [false], "free_energy": -8.067, "intermolecular_energy": -15.18, "internal_energy": -3.268}

$$$$
3bv9_ligand
     RDKit          3D

 95 98  0  0  0  0  0  0  0  0999 V2000
   13.0220    1.5060   -5.5820 C   0  0  0  0  0  0  0  0  0  0  0  0
   12.0400    2.6190   -5.3590 C   0  0  0  0  0  0  0  0  0  0  0  0
   11.3600    3.1050   -6.3550 N   0  0  0  0  0  0  0  0  0  0  0  0
   10.4850    4.1270   -6.0610 C   0  0  0  0  0  0  0  0  0  0  0  0
    9.7910    4.1460   -5.0470 O   0  0  0  0  0  0  0  0  0  0  0  0
   10.4450    5.2980   -7.0740 C   0  0  2  0  0  0  0  0  0  0  0  0
    9.5450    4.9300   -8.2560 C   0  0  0  0  0  0  0  0  0  0  0  0
   10.5150    4.3200   -9.2630 C   0  0  0  0  0  0  0  0  0  0  0  0
   11.7780    5.1450   -9.0830 C   0  0  0  0  0  0  0  0  0  0  0  0
   11.7280    5.6290   -7.7140 N   0  0  0  0  0  0  0  0  0  0  0  0
   12.7910    6.3160   -7.1730 C   0  0  0  0  0  0  0  0  0  0  0  0
   12.9120    6.4540   -5.9500 O   0  0  0  0  0  0  0  0  0  0  0  0
   13.8510    6.9070   -8.1400 C   0  0  2  0  0  0  0  0  0  0  0  0
   15.2860    6.7140   -7.6620 C   0  0  0  0  0  0  0  0  0  0  0  0
   15.6140    7.9690   -6.8560 C   0  0  2  0  0  0  0  0  0  0  0  0
   15.3720    7.7810   -5.3560 C   0  0  0  0  0  0  0  0  0  0  0  0
   15.6400    9.0640   -4.5730 C   0  0  0  0  0  0  0  0  0  0  0  0
   15.2740   10.3290   -5.3460 C   0  0  0  0  0  0  0  0  0  0  0  0
   14.2290   10.0720   -6.4280 C   0  0  0  0  0  0  0  0  0  0  0  0
   14.7350    9.0770   -7.4800 C   0  0  2  0  0  0  0  0  0  0  0  0
   13.6830    8.3660   -8.2340 N   0  0  0  0  0  0  0  0  0  0  0  0
   12.6490    8.8380   -9.0040 C   0  0  0  0  0  0  0  0  0  0  0  0
   12.6660    8.7280  -10.2390 O   0  0  0  0  0  0  0  0  0  0  0  0
   11.4130    9.4980   -8.3700 C   0  0  2  0  0  0  0  0  0  0  0  0
   11.2530    9.0290   -6.9430 N   0  0  0  0  0  0  0  0  0  0  0  0
   10.1170    9.2550   -9.1710 C   0  0  0  0  0  0  0  0  0  0  0  0
    9.6560   10.2590  -10.2030 C   0  0  0  0  0  0  0  0  0  0  0  0
    9.8000   10.2490  -11.5340 C   0  0  0  0  0  0  0  0  0  0  0  0
   10.5150    9.3720  -12.3140 N   0  0  0  0  0  0  0  0  0  0  0  0
   10.1200    8.8310  -13.5000 C   0  0  0  0  0  0  0  0  0  0  0  0
    8.8950    8.7440  -13.8720 N   0  0  0  0  0  0  0  0  0  0  0  0
   11.1490    8.3440  -14.2230 N   0  0  0  0  0  0  0  0  0  0  0  0
   11.9210    3.0980   -3.9230 C   0  0  0  0  0  0  0  0  0  0  0  0
   11.3180    2.4020   -3.1230 O   0  0  0  0  0  0  0  0  0  0  0  0
   12.5220    4.3050   -3.6860 N   0  0  0  0  0  0  0  0  0  0  0  0
   12.4310    4.9580   -2.3820 C   0  0  1  0  0  0  0  0  0  0  0  0
   13.3550    6.1830   -2.2830 C   0  0  0  0  0  0  0  0  0  0  0  0
   14.8310    5.8730   -2.3890 C   0  0  0  0  0  0  0  0  0  0  0  0
   15.2810    4.8900   -3.2820 C   0  0  0  0  0  0  0  0  0  0  0  0
   16.6430    4.5970   -3.3910 C   0  0  0  0  0  0  0  0  0  0  0  0
   17.5800    5.2750   -2.6060 C   0  0  0  0  0  0  0  0  0  0  0  0
   19.0450    4.9890   -2.7520 C   0  0  0  0  0  0  0  0  0  0  0  0
   17.1360    6.2720   -1.7330 C   0  0  0  0  0  0  0  0  0  0  0  0
   15.7750    6.5680   -1.6240 C   0  0  0  0  0  0  0  0  0  0  0  0
   10.9760    5.4190   -2.2170 C   0  0  0  0  0  0  0  0  0  0  0  0
   10.2030    4.6880   -1.3640 N   0  0  0  0  0  0  0  0  0  0  0  0
   10.5320    6.4290   -2.7620 O   0  0  0  0  0  0  0  0  0  0  0  0
   13.3638    1.1186   -4.6109 H   0  0  0  0  0  0  0  0  0  0  0  0
   12.5374    0.6977   -6.1493 H   0  0  0  0  0  0  0  0  0  0  0  0
   13.8844    1.8861   -6.1493 H   0  0  0  0  0  0  0  0  0  0  0  0
   10.1038    6.1479   -6.4646 H   0  0  0  0  0  0  0  0  0  0  0  0
    8.7792    4.1999   -7.9552 H   0  0  0  0  0  0  0  0  0  0  0  0
    8.9927    5.7915   -8.6595 H   0  0  0  0  0  0  0  0  0  0  0  0
   10.7021    3.2600   -9.0364 H   0  0  0  0  0  0  0  0  0  0  0  0
   10.1322    4.3417  -10.2940 H   0  0  0  0  0  0  0  0  0  0  0  0
   12.6708    4.5217   -9.2389 H   0  0  0  0  0  0  0  0  0  0  0  0
   11.8355    5.9704   -9.8079 H   0  0  0  0  0  0  0  0  0  0  0  0
   13.6940    6.3790   -9.0922 H   0  0  0  0  0  0  0  0  0  0  0  0
   15.3640    5.8180   -7.0287 H   0  0  0  0  0  0  0  0  0  0  0  0
   15.9825    6.5718   -8.5015 H   0  0  0  0  0  0  0  0  0  0  0  0
   16.6818    8.2274   -6.9108 H   0  0  0  0  0  0  0  0  0  0  0  0
   14.3256    7.4802   -5.1992 H   0  0  0  0  0  0  0  0  0  0  0  0
   16.0646    7.0076   -4.9923 H   0  0  0  0  0  0  0  0  0  0  0  0
   15.0486    9.0376   -3.6459 H   0  0  0  0  0  0  0  0  0  0  0  0
   16.7209    9.1048   -4.3731 H   0  0  0  0  0  0  0  0  0  0  0  0
   14.8744   11.0710   -4.6391 H   0  0  0  0  0  0  0  0  0  0  0  0
   16.1859   10.6926   -5.8422 H   0  0  0  0  0  0  0  0  0  0  0  0
   13.3222    9.6636   -5.9580 H   0  0  0  0  0  0  0  0  0  0  0  0
   14.0159   11.0259   -6.9326 H   0  0  0  0  0  0  0  0  0  0  0  0
   15.2963    9.7283   -8.1661 H   0  0  0  0  0  0  0  0  0  0  0  0
   11.5853   10.5843   -8.3860 H   0  0  0  0  0  0  0  0  0  0  0  0
   10.7450    9.6830   -6.3410 H   0  0  0  0  0  0  0  0  0  0  0  0
   12.1620    8.7920   -6.5280 H   0  0  0  0  0  0  0  0  0  0  0  0
   10.7170    8.1410   -6.9490 H   0  0  0  0  0  0  0  0  0  0  0  0
   10.2461    8.2978   -9.6975 H   0  0  0  0  0  0  0  0  0  0  0  0
    9.3341    9.3132   -8.4005 H   0  0  0  0  0  0  0  0  0  0  0  0
    9.1206   11.1307   -9.7986 H   0  0  0  0  0  0  0  0  0  0  0  0
    9.2758   11.0500  -12.0759 H   0  0  0  0  0  0  0  0  0  0  0  0
   11.5250    9.5060  -12.2640 H   0  0  0  0  0  0  0  0  0  0  0  0
    8.8380    8.3290  -14.8050 H   0  0  0  0  0  0  0  0  0  0  0  0
   11.9500    7.9860  -13.7080 H   0  0  0  0  0  0  0  0  0  0  0  0
   10.9120    7.7680  -15.0200 H   0  0  0  0  0  0  0  0  0  0  0  0
   12.7360    4.9140   -4.4710 H   0  0  0  0  0  0  0  0  0  0  0  0
   12.7405    4.2509   -1.5983 H   0  0  0  0  0  0  0  0  0  0  0  0
   13.0917    6.8769   -3.0949 H   0  0  0  0  0  0  0  0  0  0  0  0
   13.1988    6.6090   -1.2809 H   0  0  0  0  0  0  0  0  0  0  0  0
   14.5550    4.3443   -3.9026 H   0  0  0  0  0  0  0  0  0  0  0  0
   16.9804    3.8268   -4.1001 H   0  0  0  0  0  0  0  0  0  0  0  0
   19.5022    4.8997   -1.7555 H   0  0  0  0  0  0  0  0  0  0  0  0
   19.1815    4.0472   -3.3038 H   0  0  0  0  0  0  0  0  0  0  0  0
   19.5257    5.8103   -3.3038 H   0  0  0  0  0  0  0  0  0  0  0  0
   17.8650    6.8289   -1.1260 H   0  0  0  0  0  0  0  0  0  0  0  0
   15.4422    7.3544   -0.9306 H   0  0  0  0  0  0  0  0  0  0  0  0
    9.2230    4.9450   -1.3170 H   0  0  0  0  0  0  0  0  0  0  0  0
   10.4330    3.7330   -1.1230 H   0  0  0  0  0  0  0  0  0  0  0  0
  1  2  1  0
  2  3  2  0
  3  4  1  0
  4  5  2  0
  4  6  1  0
  6  7  1  0
  7  8  1  0
  8  9  1  0
  9 10  1  0
 10 11  1  0
 11 12  2  0
 11 13  1  0
 13 14  1  0
 14 15  1  0
 15 16  1  0
 16 17  1  0
 17 18  1  0
 18 19  1  0
 19 20  1  0
 20 21  1  0
 21 22  1  0
 22 23  2  0
 22 24  1  0
 24 25  1  0
 24 26  1  0
 26 27  1  0
 27 28  2  0
 28 29  1  0
 29 30  1  0
 30 31  2  3
 30 32  1  0
  2 33  1  0
 33 34  2  0
 33 35  1  0
 35 36  1  0
 36 37  1  0
 37 38  1  0
 38 39  2  0
 39 40  1  0
 40 41  2  0
 41 42  1  0
 41 43  1  0
 43 44  2  0
 36 45  1  0
 45 46  1  0
 45 47  2  0
 10  6  1  0
 21 13  1  0
 44 38  1  0
 20 15  1  0
  1 48  1  0
  1 49  1  0
  1 50  1  0
  6 51  1  1
  7 52  1  0
  7 53  1  0
  8 54  1  0
  8 55  1  0
  9 56  1  0
  9 57  1  0
 13 58  1  6
 14 59  1  0
 14 60  1  0
 15 61  1  1
 16 62  1  0
 16 63  1  0
 17 64  1  0
 17 65  1  0
 18 66  1  0
 18 67  1  0
 19 68  1  0
 19 69  1  0
 20 70  1  6
 24 71  1  1
 25 72  1  0
 25 73  1  0
 25 74  1  0
 26 75  1  0
 26 76  1  0
 27 77  1  0
 28 78  1  0
 29 79  1  0
 31 80  1  0
 32 81  1  0
 32 82  1  0
 35 83  1  0
 36 84  1  1
 37 85  1  0
 37 86  1  0
 39 87  1  0
 40 88  1  0
 42 89  1  0
 42 90  1  0
 42 91  1  0
 43 92  1  0
 44 93  1  0
 46 94  1  0
 46 95  1  0
M  CHG  1  25   1
M  END
>  <meeko>  (5) 
{"is_sidechain": [false], "free_energy": -8.057, "intermolecular_energy": -16.261, "internal_energy": -2.168}

$$$$
3bv9_ligand
     RDKit          3D

 95 98  0  0  0  0  0  0  0  0999 V2000
   16.6690    7.7600   -6.4290 C   0  0  0  0  0  0  0  0  0  0  0  0
   15.4020    7.0280   -6.0950 C   0  0  0  0  0  0  0  0  0  0  0  0
   14.7020    6.4640   -7.0340 N   0  0  0  0  0  0  0  0  0  0  0  0
   13.5510    5.8180   -6.6380 C   0  0  0  0  0  0  0  0  0  0  0  0
   13.5250    4.6360   -6.3060 O   0  0  0  0  0  0  0  0  0  0  0  0
   12.2670    6.6840   -6.5960 C   0  0  2  0  0  0  0  0  0  0  0  0
   11.1700    5.9480   -5.8250 C   0  0  0  0  0  0  0  0  0  0  0  0
   10.4160    5.1930   -6.9150 C   0  0  0  0  0  0  0  0  0  0  0  0
   10.4510    6.1480   -8.0960 C   0  0  0  0  0  0  0  0  0  0  0  0
   11.6420    6.9560   -7.9000 N   0  0  0  0  0  0  0  0  0  0  0  0
   12.0490    7.8520   -8.8640 C   0  0  0  0  0  0  0  0  0  0  0  0
   12.7810    7.5020   -9.7980 O   0  0  0  0  0  0  0  0  0  0  0  0
   11.5540    9.3180   -8.7590 C   0  0  2  0  0  0  0  0  0  0  0  0
   10.2100    9.5570   -9.4400 C   0  0  0  0  0  0  0  0  0  0  0  0
   10.5520    9.9860  -10.8650 C   0  0  2  0  0  0  0  0  0  0  0  0
   10.5400    8.8120  -11.8480 C   0  0  0  0  0  0  0  0  0  0  0  0
   10.9480    9.2450  -13.2540 C   0  0  0  0  0  0  0  0  0  0  0  0
   11.9970   10.3550  -13.2610 C   0  0  0  0  0  0  0  0  0  0  0  0
   12.8160   10.3950  -11.9750 C   0  0  0  0  0  0  0  0  0  0  0  0
   11.9340   10.6670  -10.7490 C   0  0  2  0  0  0  0  0  0  0  0  0
   12.4900   10.2130   -9.4590 N   0  0  0  0  0  0  0  0  0  0  0  0
   13.6700   10.5180   -8.8260 C   0  0  0  0  0  0  0  0  0  0  0  0
   14.7500   10.0600   -9.2270 O   0  0  0  0  0  0  0  0  0  0  0  0
   13.7070   11.4610   -7.6120 C   0  0  2  0  0  0  0  0  0  0  0  0
   14.2170   12.8200   -8.0310 N   0  0  0  0  0  0  0  0  0  0  0  0
   14.5390   10.9060   -6.4380 C   0  0  0  0  0  0  0  0  0  0  0  0
   15.5850   11.7660   -5.7660 C   0  0  0  0  0  0  0  0  0  0  0  0
   16.4120   11.4760   -4.7530 C   0  0  0  0  0  0  0  0  0  0  0  0
   16.4500   10.3460   -3.9720 N   0  0  0  0  0  0  0  0  0  0  0  0
   17.5660    9.7080   -3.5200 C   0  0  0  0  0  0  0  0  0  0  0  0
   18.7230    9.8240   -4.0610 N   0  0  0  0  0  0  0  0  0  0  0  0
   17.3170    8.8960   -2.4720 N   0  0  0  0  0  0  0  0  0  0  0  0
   15.0370    7.0080   -4.6210 C   0  0  0  0  0  0  0  0  0  0  0  0
   14.6740    8.0480   -4.0960 O   0  0  0  0  0  0  0  0  0  0  0  0
   15.1700    5.7810   -4.0290 N   0  0  0  0  0  0  0  0  0  0  0  0
   14.9460    5.5970   -2.5980 C   0  0  1  0  0  0  0  0  0  0  0  0
   14.0060    4.4160   -2.3060 C   0  0  0  0  0  0  0  0  0  0  0  0
   12.5390    4.7770   -2.2330 C   0  0  0  0  0  0  0  0  0  0  0  0
   11.5700    3.8780   -2.7020 C   0  0  0  0  0  0  0  0  0  0  0  0
   10.2120    4.1990   -2.6370 C   0  0  0  0  0  0  0  0  0  0  0  0
    9.7960    5.4250   -2.1100 C   0  0  0  0  0  0  0  0  0  0  0  0
    8.3360    5.7530   -2.0030 C   0  0  0  0  0  0  0  0  0  0  0  0
   10.7590    6.3120   -1.6200 C   0  0  0  0  0  0  0  0  0  0  0  0
   12.1180    5.9920   -1.6810 C   0  0  0  0  0  0  0  0  0  0  0  0
   16.3150    5.3090   -1.9660 C   0  0  0  0  0  0  0  0  0  0  0  0
   16.5730    4.0070   -1.6480 N   0  0  0  0  0  0  0  0  0  0  0  0
   17.1720    6.1780   -1.8090 O   0  0  0  0  0  0  0  0  0  0  0  0
   17.1784    8.0543   -5.4995 H   0  0  0  0  0  0  0  0  0  0  0  0
   17.3279    7.1034   -7.0161 H   0  0  0  0  0  0  0  0  0  0  0  0
   16.4293    8.6588   -7.0161 H   0  0  0  0  0  0  0  0  0  0  0  0
   12.6120    7.6262   -6.1452 H   0  0  0  0  0  0  0  0  0  0  0  0
   11.6037    5.2517   -5.0921 H   0  0  0  0  0  0  0  0  0  0  0  0
   10.5240    6.6250   -5.2468 H   0  0  0  0  0  0  0  0  0  0  0  0
   10.9210    4.2468   -7.1593 H   0  0  0  0  0  0  0  0  0  0  0  0
    9.3937    4.9173   -6.6168 H   0  0  0  0  0  0  0  0  0  0  0  0
   10.5156    5.5895   -9.0414 H   0  0  0  0  0  0  0  0  0  0  0  0
    9.5417    6.7645   -8.1521 H   0  0  0  0  0  0  0  0  0  0  0  0
   11.4733    9.5150   -7.6798 H   0  0  0  0  0  0  0  0  0  0  0  0
    9.6125    8.6335   -9.4484 H   0  0  0  0  0  0  0  0  0  0  0  0
    9.6131   10.3170   -8.9146 H   0  0  0  0  0  0  0  0  0  0  0  0
    9.8008   10.6739  -11.2803 H   0  0  0  0  0  0  0  0  0  0  0  0
   11.2434    8.0440  -11.4939 H   0  0  0  0  0  0  0  0  0  0  0  0
    9.5145    8.4171  -11.8962 H   0  0  0  0  0  0  0  0  0  0  0  0
   11.3587    8.3725  -13.7831 H   0  0  0  0  0  0  0  0  0  0  0  0
   10.0487    9.6420  -13.7477 H   0  0  0  0  0  0  0  0  0  0  0  0
   12.6790   10.1901  -14.1082 H   0  0  0  0  0  0  0  0  0  0  0  0
   11.4665   11.3147  -13.3486 H   0  0  0  0  0  0  0  0  0  0  0  0
   13.3206    9.4265  -11.8434 H   0  0  0  0  0  0  0  0  0  0  0  0
   13.5475   11.2122  -12.0594 H   0  0  0  0  0  0  0  0  0  0  0  0
   11.8665   11.7649  -10.7488 H   0  0  0  0  0  0  0  0  0  0  0  0
   12.6749   11.5501   -7.2422 H   0  0  0  0  0  0  0  0  0  0  0  0
   14.3020   13.4910   -7.2620 H   0  0  0  0  0  0  0  0  0  0  0  0
   13.6450   13.2130   -8.7870 H   0  0  0  0  0  0  0  0  0  0  0  0
   15.1630   12.7020   -8.4390 H   0  0  0  0  0  0  0  0  0  0  0  0
   13.8236   10.6110   -5.6562 H   0  0  0  0  0  0  0  0  0  0  0  0
   15.1368   10.1130   -6.9110 H   0  0  0  0  0  0  0  0  0  0  0  0
   15.6816   12.7845   -6.1702 H   0  0  0  0  0  0  0  0  0  0  0  0
   17.1610   12.2454   -4.5143 H   0  0  0  0  0  0  0  0  0  0  0  0
   15.6670   10.2670   -3.3230 H   0  0  0  0  0  0  0  0  0  0  0  0
   19.4130    9.2780   -3.5410 H   0  0  0  0  0  0  0  0  0  0  0  0
   16.3950    8.4680   -2.4260 H   0  0  0  0  0  0  0  0  0  0  0  0
   18.0550    8.2570   -2.2080 H   0  0  0  0  0  0  0  0  0  0  0  0
   15.7430    5.0730   -4.4810 H   0  0  0  0  0  0  0  0  0  0  0  0
   14.4735    6.5008   -2.1858 H   0  0  0  0  0  0  0  0  0  0  0  0
   14.1357    3.6699   -3.1038 H   0  0  0  0  0  0  0  0  0  0  0  0
   14.2823    4.0387   -1.3104 H   0  0  0  0  0  0  0  0  0  0  0  0
   11.8821    2.9116   -3.1247 H   0  0  0  0  0  0  0  0  0  0  0  0
    9.4637    3.4809   -3.0036 H   0  0  0  0  0  0  0  0  0  0  0  0
    8.0513    5.8170   -0.9424 H   0  0  0  0  0  0  0  0  0  0  0  0
    8.1399    6.7176   -2.4941 H   0  0  0  0  0  0  0  0  0  0  0  0
    7.7462    4.9650   -2.4941 H   0  0  0  0  0  0  0  0  0  0  0  0
   10.4441    7.2708   -1.1823 H   0  0  0  0  0  0  0  0  0  0  0  0
   12.8632    6.7013   -1.2917 H   0  0  0  0  0  0  0  0  0  0  0  0
   17.4440    3.8310   -1.1600 H   0  0  0  0  0  0  0  0  0  0  0  0
   15.8290    3.3370   -1.5060 H   0  0  0  0  0  0  0  0  0  0  0  0
  1  2  1  0
  2  3  2  0
  3  4  1  0
  4  5  2  0
  4  6  1  0
  6  7  1  0
  7  8  1  0
  8  9  1  0
  9 10  1  0
 10 11  1  0
 11 12  2  0
 11 13  1  0
 13 14  1  0
 14 15  1  0
 15 16  1  0
 16 17  1  0
 17 18  1  0
 18 19  1  0
 19 20  1  0
 20 21  1  0
 21 22  1  0
 22 23  2  0
 22 24  1  0
 24 25  1  0
 24 26  1  0
 26 27  1  0
 27 28  2  0
 28 29  1  0
 29 30  1  0
 30 31  2  3
 30 32  1  0
  2 33  1  0
 33 34  2  0
 33 35  1  0
 35 36  1  0
 36 37  1  0
 37 38  1  0
 38 39  2  0
 39 40  1  0
 40 41  2  0
 41 42  1  0
 41 43  1  0
 43 44  2  0
 36 45  1  0
 45 46  1  0
 45 47  2  0
 10  6  1  0
 21 13  1  0
 44 38  1  0
 20 15  1  0
  1 48  1  0
  1 49  1  0
  1 50  1  0
  6 51  1  1
  7 52  1  0
  7 53  1  0
  8 54  1  0
  8 55  1  0
  9 56  1  0
  9 57  1  0
 13 58  1  1
 14 59  1  0
 14 60  1  0
 15 61  1  6
 16 62  1  0
 16 63  1  0
 17 64  1  0
 17 65  1  0
 18 66  1  0
 18 67  1  0
 19 68  1  0
 19 69  1  0
 20 70  1  1
 24 71  1  1
 25 72  1  0
 25 73  1  0
 25 74  1  0
 26 75  1  0
 26 76  1  0
 27 77  1  0
 28 78  1  0
 29 79  1  0
 31 80  1  0
 32 81  1  0
 32 82  1  0
 35 83  1  0
 36 84  1  1
 37 85  1  0
 37 86  1  0
 39 87  1  0
 40 88  1  0
 42 89  1  0
 42 90  1  0
 42 91  1  0
 43 92  1  0
 44 93  1  0
 46 94  1  0
 46 95  1  0
M  CHG  1  25   1
M  END
>  <meeko>  (6) 
{"is_sidechain": [false], "free_energy": -8.026, "intermolecular_energy": -14.322, "internal_energy": -4.048}

$$$$
3bv9_ligand
     RDKit          3D

 95 98  0  0  0  0  0  0  0  0999 V2000
   18.4480    5.7490   -5.4550 C   0  0  0  0  0  0  0  0  0  0  0  0
   17.2030    6.5770   -5.5900 C   0  0  0  0  0  0  0  0  0  0  0  0
   16.8730    7.0860   -6.7400 N   0  0  0  0  0  0  0  0  0  0  0  0
   15.7180    7.8360   -6.7710 C   0  0  0  0  0  0  0  0  0  0  0  0
   14.6320    7.4110   -6.3870 O   0  0  0  0  0  0  0  0  0  0  0  0
   15.8670    9.2870   -7.2920 C   0  0  2  0  0  0  0  0  0  0  0  0
   16.6780   10.1160   -6.2940 C   0  0  0  0  0  0  0  0  0  0  0  0
   15.6110   10.7320   -5.3950 C   0  0  0  0  0  0  0  0  0  0  0  0
   14.4620   11.0120   -6.3490 C   0  0  0  0  0  0  0  0  0  0  0  0
   14.6130   10.0460   -7.4240 N   0  0  0  0  0  0  0  0  0  0  0  0
   13.6560    9.9370   -8.4080 C   0  0  0  0  0  0  0  0  0  0  0  0
   12.6020   10.5830   -8.3540 O   0  0  0  0  0  0  0  0  0  0  0  0
   13.9380    8.9900   -9.6040 C   0  0  2  0  0  0  0  0  0  0  0  0
   14.2580    9.7250  -10.9010 C   0  0  0  0  0  0  0  0  0  0  0  0
   12.9160    9.8930  -11.6100 C   0  0  2  0  0  0  0  0  0  0  0  0
   12.2640   11.2470  -11.3160 C   0  0  0  0  0  0  0  0  0  0  0  0
   10.8940   11.3730  -11.9770 C   0  0  0  0  0  0  0  0  0  0  0  0
   10.1310   10.0520  -12.0360 C   0  0  0  0  0  0  0  0  0  0  0  0
   10.5870    9.0630  -10.9680 C   0  0  0  0  0  0  0  0  0  0  0  0
   12.0670    8.6930  -11.1320 C   0  0  2  0  0  0  0  0  0  0  0  0
   12.7340    8.2010   -9.9110 N   0  0  0  0  0  0  0  0  0  0  0  0
   12.4390    7.1450   -9.0840 C   0  0  0  0  0  0  0  0  0  0  0  0
   13.1300    6.1150   -9.0870 O   0  0  0  0  0  0  0  0  0  0  0  0
   11.2590    7.2030   -8.1000 C   0  0  2  0  0  0  0  0  0  0  0  0
   11.6310    8.0360   -6.8960 N   0  0  0  0  0  0  0  0  0  0  0  0
   10.7630    5.8090   -7.6640 C   0  0  0  0  0  0  0  0  0  0  0  0
   10.5060    5.5080   -6.2050 C   0  0  0  0  0  0  0  0  0  0  0  0
   10.4120    4.3300   -5.5760 C   0  0  0  0  0  0  0  0  0  0  0  0
   10.4060    3.0660   -6.1160 N   0  0  0  0  0  0  0  0  0  0  0  0
   11.3160    2.0800   -5.8820 C   0  0  0  0  0  0  0  0  0  0  0  0
   12.5040    2.2920   -5.4460 N   0  0  0  0  0  0  0  0  0  0  0  0
   10.8560    0.8550   -6.2090 N   0  0  0  0  0  0  0  0  0  0  0  0
   16.4020    6.7520   -4.3120 C   0  0  0  0  0  0  0  0  0  0  0  0
   16.5490    7.7770   -3.6670 O   0  0  0  0  0  0  0  0  0  0  0  0
   15.5840    5.6940   -4.0160 N   0  0  0  0  0  0  0  0  0  0  0  0
   14.8080    5.6550   -2.7800 C   0  0  1  0  0  0  0  0  0  0  0  0
   13.6880    4.6020   -2.8330 C   0  0  0  0  0  0  0  0  0  0  0  0
   12.3340    5.0950   -2.3740 C   0  0  0  0  0  0  0  0  0  0  0  0
   11.2490    4.2080   -2.3070 C   0  0  0  0  0  0  0  0  0  0  0  0
    9.9940    4.6510   -1.8820 C   0  0  0  0  0  0  0  0  0  0  0  0
    9.7960    5.9880   -1.5230 C   0  0  0  0  0  0  0  0  0  0  0  0
    8.4590    6.4540   -1.0280 C   0  0  0  0  0  0  0  0  0  0  0  0
   10.8820    6.8670   -1.5670 C   0  0  0  0  0  0  0  0  0  0  0  0
   12.1390    6.4260   -1.9890 C   0  0  0  0  0  0  0  0  0  0  0  0
   15.7840    5.2830   -1.6540 C   0  0  0  0  0  0  0  0  0  0  0  0
   16.3130    4.0270   -1.7030 N   0  0  0  0  0  0  0  0  0  0  0  0
   16.1320    6.0810   -0.7850 O   0  0  0  0  0  0  0  0  0  0  0  0
   18.6744    5.5984   -4.3891 H   0  0  0  0  0  0  0  0  0  0  0  0
   18.2935    4.7731   -5.9385 H   0  0  0  0  0  0  0  0  0  0  0  0
   19.2883    6.2688   -5.9385 H   0  0  0  0  0  0  0  0  0  0  0  0
   16.3276    9.1540   -8.2820 H   0  0  0  0  0  0  0  0  0  0  0  0
   17.3600    9.4768   -5.7141 H   0  0  0  0  0  0  0  0  0  0  0  0
   17.3162   10.8686   -6.7801 H   0  0  0  0  0  0  0  0  0  0  0  0
   15.3055   10.0272   -4.6076 H   0  0  0  0  0  0  0  0  0  0  0  0
   15.9611   11.6329   -4.8698 H   0  0  0  0  0  0  0  0  0  0  0  0
   13.4964   10.8747   -5.8402 H   0  0  0  0  0  0  0  0  0  0  0  0
   14.4808   12.0468   -6.7215 H   0  0  0  0  0  0  0  0  0  0  0  0
   14.7997    8.3830   -9.2895 H   0  0  0  0  0  0  0  0  0  0  0  0
   14.7065   10.7064  -10.6872 H   0  0  0  0  0  0  0  0  0  0  0  0
   14.9817    9.1722  -11.5180 H   0  0  0  0  0  0  0  0  0  0  0  0
   13.0251    9.8954  -12.7046 H   0  0  0  0  0  0  0  0  0  0  0  0
   12.1455   11.3561  -10.2279 H   0  0  0  0  0  0  0  0  0  0  0  0
   12.9140   12.0349  -11.7244 H   0  0  0  0  0  0  0  0  0  0  0  0
   10.2953   12.0973  -11.4053 H   0  0  0  0  0  0  0  0  0  0  0  0
   11.0602   11.7011  -13.0137 H   0  0  0  0  0  0  0  0  0  0  0  0
    9.0599   10.2571  -11.8920 H   0  0  0  0  0  0  0  0  0  0  0  0
   10.3285    9.5968  -13.0177 H   0  0  0  0  0  0  0  0  0  0  0  0
   10.4406    9.5164   -9.9765 H   0  0  0  0  0  0  0  0  0  0  0  0
    9.9903    8.1450  -11.0736 H   0  0  0  0  0  0  0  0  0  0  0  0
   12.0235    7.8816  -11.8734 H   0  0  0  0  0  0  0  0  0  0  0  0
   10.4205    7.6754   -8.6327 H   0  0  0  0  0  0  0  0  0  0  0  0
   10.8320    8.3490   -6.3390 H   0  0  0  0  0  0  0  0  0  0  0  0
   12.2140    8.8370   -7.1670 H   0  0  0  0  0  0  0  0  0  0  0  0
   12.2300    7.4620   -6.2740 H   0  0  0  0  0  0  0  0  0  0  0  0
    9.8156    5.6315   -8.1941 H   0  0  0  0  0  0  0  0  0  0  0  0
   11.6153    5.1566   -7.9049 H   0  0  0  0  0  0  0  0  0  0  0  0
   10.3765    6.3914   -5.5624 H   0  0  0  0  0  0  0  0  0  0  0  0
   10.3284    4.3803   -4.4803 H   0  0  0  0  0  0  0  0  0  0  0  0
    9.4720    2.7000   -6.2980 H   0  0  0  0  0  0  0  0  0  0  0  0
   12.9980    1.4050   -5.3210 H   0  0  0  0  0  0  0  0  0  0  0  0
   10.1850    0.7990   -6.9710 H   0  0  0  0  0  0  0  0  0  0  0  0
   11.5360    0.1060   -6.2360 H   0  0  0  0  0  0  0  0  0  0  0  0
   15.7580    4.7960   -4.4580 H   0  0  0  0  0  0  0  0  0  0  0  0
   14.3311    6.6331   -2.6192 H   0  0  0  0  0  0  0  0  0  0  0  0
   13.5921    4.2560   -3.8728 H   0  0  0  0  0  0  0  0  0  0  0  0
   13.9801    3.8029   -2.1358 H   0  0  0  0  0  0  0  0  0  0  0  0
   11.3877    3.1545   -2.5916 H   0  0  0  0  0  0  0  0  0  0  0  0
    9.1545    3.9421   -1.8293 H   0  0  0  0  0  0  0  0  0  0  0  0
    8.4554    6.4553    0.0720 H   0  0  0  0  0  0  0  0  0  0  0  0
    8.2662    7.4723   -1.3965 H   0  0  0  0  0  0  0  0  0  0  0  0
    7.6750    5.7761   -1.3965 H   0  0  0  0  0  0  0  0  0  0  0  0
   10.7457    7.9163   -1.2664 H   0  0  0  0  0  0  0  0  0  0  0  0
   12.9826    7.1314   -2.0188 H   0  0  0  0  0  0  0  0  0  0  0  0
   16.8940    3.7560   -0.9170 H   0  0  0  0  0  0  0  0  0  0  0  0
   15.8630    3.2790   -2.2130 H   0  0  0  0  0  0  0  0  0  0  0  0
  1  2  1  0
  2  3  2  0
  3  4  1  0
  4  5  2  0
  4  6  1  0
  6  7  1  0
  7  8  1  0
  8  9  1  0
  9 10  1  0
 10 11  1  0
 11 12  2  0
 11 13  1  0
 13 14  1  0
 14 15  1  0
 15 16  1  0
 16 17  1  0
 17 18  1  0
 18 19  1  0
 19 20  1  0
 20 21  1  0
 21 22  1  0
 22 23  2  0
 22 24  1  0
 24 25  1  0
 24 26  1  0
 26 27  1  0
 27 28  2  0
 28 29  1  0
 29 30  1  0
 30 31  2  3
 30 32  1  0
  2 33  1  0
 33 34  2  0
 33 35  1  0
 35 36  1  0
 36 37  1  0
 37 38  1  0
 38 39  2  0
 39 40  1  0
 40 41  2  0
 41 42  1  0
 41 43  1  0
 43 44  2  0
 36 45  1  0
 45 46  1  0
 45 47  2  0
 10  6  1  0
 21 13  1  0
 44 38  1  0
 20 15  1  0
  1 48  1  0
  1 49  1  0
  1 50  1  0
  6 51  1  6
  7 52  1  0
  7 53  1  0
  8 54  1  0
  8 55  1  0
  9 56  1  0
  9 57  1  0
 13 58  1  1
 14 59  1  0
 14 60  1  0
 15 61  1  6
 16 62  1  0
 16 63  1  0
 17 64  1  0
 17 65  1  0
 18 66  1  0
 18 67  1  0
 19 68  1  0
 19 69  1  0
 20 70  1  6
 24 71  1  6
 25 72  1  0
 25 73  1  0
 25 74  1  0
 26 75  1  0
 26 76  1  0
 27 77  1  0
 28 78  1  0
 29 79  1  0
 31 80  1  0
 32 81  1  0
 32 82  1  0
 35 83  1  0
 36 84  1  1
 37 85  1  0
 37 86  1  0
 39 87  1  0
 40 88  1  0
 42 89  1  0
 42 90  1  0
 42 91  1  0
 43 92  1  0
 44 93  1  0
 46 94  1  0
 46 95  1  0
M  CHG  1  25   1
M  END
>  <meeko>  (7) 
{"is_sidechain": [false], "free_energy": -7.908, "intermolecular_energy": -15.093, "internal_energy": -3.059}

$$$$
3bv9_ligand
     RDKit          3D

 95 98  0  0  0  0  0  0  0  0999 V2000
    9.4270    4.9910   -8.0260 C   0  0  0  0  0  0  0  0  0  0  0  0
   10.7770    5.5920   -7.7620 C   0  0  0  0  0  0  0  0  0  0  0  0
   11.4070    6.2320   -8.7030 N   0  0  0  0  0  0  0  0  0  0  0  0
   12.6430    6.7450   -8.3750 C   0  0  0  0  0  0  0  0  0  0  0  0
   13.6630    6.0640   -8.3330 O   0  0  0  0  0  0  0  0  0  0  0  0
   12.6900    8.2680   -8.0930 C   0  0  2  0  0  0  0  0  0  0  0  0
   11.8900    9.0180   -9.1590 C   0  0  0  0  0  0  0  0  0  0  0  0
   12.9390    9.3570  -10.2150 C   0  0  0  0  0  0  0  0  0  0  0  0
   14.1850    9.6480   -9.3960 C   0  0  0  0  0  0  0  0  0  0  0  0
   14.0230    8.8860   -8.1690 N   0  0  0  0  0  0  0  0  0  0  0  0
   15.0410    8.8230   -7.2440 C   0  0  0  0  0  0  0  0  0  0  0  0
   16.1960    8.5320   -7.5780 O   0  0  0  0  0  0  0  0  0  0  0  0
   14.7060    9.1400   -5.7630 C   0  0  2  0  0  0  0  0  0  0  0  0
   15.0670   10.5630   -5.3480 C   0  0  0  0  0  0  0  0  0  0  0  0
   16.4890   10.4730   -4.7990 C   0  0  2  0  0  0  0  0  0  0  0  0
   17.5470   10.7990   -5.8580 C   0  0  0  0  0  0  0  0  0  0  0  0
   18.9630   10.6400   -5.3110 C   0  0  0  0  0  0  0  0  0  0  0  0
   19.0930    9.5100   -4.2920 C   0  0  0  0  0  0  0  0  0  0  0  0
   18.0080    8.4500   -4.4530 C   0  0  0  0  0  0  0  0  0  0  0  0
   16.6060    9.0360   -4.2440 C   0  0  2  0  0  0  0  0  0  0  0  0
   15.5060    8.2800   -4.8750 N   0  0  0  0  0  0  0  0  0  0  0  0
   15.1100    6.9730   -4.7320 C   0  0  0  0  0  0  0  0  0  0  0  0
   15.4920    6.0970   -5.5220 O   0  0  0  0  0  0  0  0  0  0  0  0
   14.2010    6.5330   -3.5720 C   0  0  2  0  0  0  0  0  0  0  0  0
   13.5100    7.7350   -2.9730 N   0  0  0  0  0  0  0  0  0  0  0  0
   14.9490    5.7370   -2.4830 C   0  0  0  0  0  0  0  0  0  0  0  0
   16.2780    6.2260   -1.9530 C   0  0  0  0  0  0  0  0  0  0  0  0
   17.4780    5.6320   -1.9660 C   0  0  0  0  0  0  0  0  0  0  0  0
   17.8000    4.3570   -2.3640 N   0  0  0  0  0  0  0  0  0  0  0  0
   18.1590    3.9640   -3.6190 C   0  0  0  0  0  0  0  0  0  0  0  0
   17.8780    4.6250   -4.6820 N   0  0  0  0  0  0  0  0  0  0  0  0
   18.7960    2.7760   -3.6330 N   0  0  0  0  0  0  0  0  0  0  0  0
   11.3100    5.3910   -6.3550 C   0  0  0  0  0  0  0  0  0  0  0  0
   11.2180    6.3100   -5.5590 O   0  0  0  0  0  0  0  0  0  0  0  0
   11.8610    4.1560   -6.1380 N   0  0  0  0  0  0  0  0  0  0  0  0
   12.5000    3.8200   -4.8680 C   0  0  1  0  0  0  0  0  0  0  0  0
   11.5150    3.1820   -3.8750 C   0  0  0  0  0  0  0  0  0  0  0  0
   10.7890    4.1650   -2.9840 C   0  0  0  0  0  0  0  0  0  0  0  0
   11.4820    4.8350   -1.9650 C   0  0  0  0  0  0  0  0  0  0  0  0
   10.8230    5.7470   -1.1370 C   0  0  0  0  0  0  0  0  0  0  0  0
    9.4590    6.0020   -1.3050 C   0  0  0  0  0  0  0  0  0  0  0  0
    8.7600    7.0100   -0.4430 C   0  0  0  0  0  0  0  0  0  0  0  0
    8.7720    5.3520   -2.3350 C   0  0  0  0  0  0  0  0  0  0  0  0
    9.4300    4.4420   -3.1660 C   0  0  0  0  0  0  0  0  0  0  0  0
   13.6100    2.8070   -5.1840 C   0  0  0  0  0  0  0  0  0  0  0  0
   14.8910    3.2320   -4.9850 N   0  0  0  0  0  0  0  0  0  0  0  0
   13.3770    1.6510   -5.5350 O   0  0  0  0  0  0  0  0  0  0  0  0
    8.9306    4.7700   -7.0696 H   0  0  0  0  0  0  0  0  0  0  0  0
    8.8153    5.7018   -8.6009 H   0  0  0  0  0  0  0  0  0  0  0  0
    9.5458    4.0608   -8.6009 H   0  0  0  0  0  0  0  0  0  0  0  0
   12.3013    8.3478   -7.0671 H   0  0  0  0  0  0  0  0  0  0  0  0
   11.0997    8.3792   -9.5801 H   0  0  0  0  0  0  0  0  0  0  0  0
   11.3754    9.9064   -8.7640 H   0  0  0  0  0  0  0  0  0  0  0  0
   13.1037    8.5065  -10.8929 H   0  0  0  0  0  0  0  0  0  0  0  0
   12.6429   10.1985  -10.8585 H   0  0  0  0  0  0  0  0  0  0  0  0
   15.0861    9.3220   -9.9361 H   0  0  0  0  0  0  0  0  0  0  0  0
   14.3045   10.7235   -9.1985 H   0  0  0  0  0  0  0  0  0  0  0  0
   13.6208    8.9827   -5.6762 H   0  0  0  0  0  0  0  0  0  0  0  0
   15.0307   11.2385   -6.2154 H   0  0  0  0  0  0  0  0  0  0  0  0
   14.3640   10.9642   -4.6031 H   0  0  0  0  0  0  0  0  0  0  0  0
   16.6762   11.2204   -4.0140 H   0  0  0  0  0  0  0  0  0  0  0  0
   17.4169   10.1189   -6.7127 H   0  0  0  0  0  0  0  0  0  0  0  0
   17.4138   11.8473   -6.1636 H   0  0  0  0  0  0  0  0  0  0  0  0
   19.6409   10.4317   -6.1519 H   0  0  0  0  0  0  0  0  0  0  0  0
   19.2199   11.5764   -4.7940 H   0  0  0  0  0  0  0  0  0  0  0  0
   20.0752    9.0315   -4.4194 H   0  0  0  0  0  0  0  0  0  0  0  0
   18.9841    9.9499   -3.2897 H   0  0  0  0  0  0  0  0  0  0  0  0
   18.0702    8.0275   -5.4667 H   0  0  0  0  0  0  0  0  0  0  0  0
   18.1719    7.6735   -3.6913 H   0  0  0  0  0  0  0  0  0  0  0  0
   16.4955    8.9933   -3.1504 H   0  0  0  0  0  0  0  0  0  0  0  0
   13.4516    5.8473   -3.9942 H   0  0  0  0  0  0  0  0  0  0  0  0
   13.5130    8.5630   -3.5740 H   0  0  0  0  0  0  0  0  0  0  0  0
   13.8970    7.9610   -2.0490 H   0  0  0  0  0  0  0  0  0  0  0  0
   12.5170    7.4880   -2.7990 H   0  0  0  0  0  0  0  0  0  0  0  0
   14.2707    5.6696   -1.6197 H   0  0  0  0  0  0  0  0  0  0  0  0
   15.2163    4.8027   -2.9984 H   0  0  0  0  0  0  0  0  0  0  0  0
   16.2556    7.2215   -1.4855 H   0  0  0  0  0  0  0  0  0  0  0  0
   18.3181    6.2468   -1.6106 H   0  0  0  0  0  0  0  0  0  0  0  0
   18.2500    3.8000   -1.6380 H   0  0  0  0  0  0  0  0  0  0  0  0
   18.2680    4.1560   -5.5020 H   0  0  0  0  0  0  0  0  0  0  0  0
   18.5460    2.1060   -2.9090 H   0  0  0  0  0  0  0  0  0  0  0  0
   18.9250    2.3400   -4.5370 H   0  0  0  0  0  0  0  0  0  0  0  0
   12.1380    3.5910   -6.9350 H   0  0  0  0  0  0  0  0  0  0  0  0
   12.8862    4.7382   -4.4014 H   0  0  0  0  0  0  0  0  0  0  0  0
   10.7634    2.6215   -4.4504 H   0  0  0  0  0  0  0  0  0  0  0  0
   12.1150    2.5442   -3.2092 H   0  0  0  0  0  0  0  0  0  0  0  0
   12.5544    4.6405   -1.8165 H   0  0  0  0  0  0  0  0  0  0  0  0
   11.3821    6.2687   -0.3463 H   0  0  0  0  0  0  0  0  0  0  0  0
    8.9288    6.7665    0.6163 H   0  0  0  0  0  0  0  0  0  0  0  0
    9.1572    8.0133   -0.6564 H   0  0  0  0  0  0  0  0  0  0  0  0
    7.6811    6.9897   -0.6564 H   0  0  0  0  0  0  0  0  0  0  0  0
    7.7032    5.5592   -2.4924 H   0  0  0  0  0  0  0  0  0  0  0  0
    8.8743    3.9386   -3.9709 H   0  0  0  0  0  0  0  0  0  0  0  0
   15.6240    2.5900   -5.2690 H   0  0  0  0  0  0  0  0  0  0  0  0
   15.1300    4.2140   -4.9680 H   0  0  0  0  0  0  0  0  0  0  0  0
  1  2  1  0
  2  3  2  0
  3  4  1  0
  4  5  2  0
  4  6  1  0
  6  7  1  0
  7  8  1  0
  8  9  1  0
  9 10  1  0
 10 11  1  0
 11 12  2  0
 11 13  1  0
 13 14  1  0
 14 15  1  0
 15 16  1  0
 16 17  1  0
 17 18  1  0
 18 19  1  0
 19 20  1  0
 20 21  1  0
 21 22  1  0
 22 23  2  0
 22 24  1  0
 24 25  1  0
 24 26  1  0
 26 27  1  0
 27 28  2  0
 28 29  1  0
 29 30  1  0
 30 31  2  3
 30 32  1  0
  2 33  1  0
 33 34  2  0
 33 35  1  0
 35 36  1  0
 36 37  1  0
 37 38  1  0
 38 39  2  0
 39 40  1  0
 40 41  2  0
 41 42  1  0
 41 43  1  0
 43 44  2  0
 36 45  1  0
 45 46  1  0
 45 47  2  0
 10  6  1  0
 21 13  1  0
 44 38  1  0
 20 15  1  0
  1 48  1  0
  1 49  1  0
  1 50  1  0
  6 51  1  1
  7 52  1  0
  7 53  1  0
  8 54  1  0
  8 55  1  0
  9 56  1  0
  9 57  1  0
 13 58  1  6
 14 59  1  0
 14 60  1  0
 15 61  1  1
 16 62  1  0
 16 63  1  0
 17 64  1  0
 17 65  1  0
 18 66  1  0
 18 67  1  0
 19 68  1  0
 19 69  1  0
 20 70  1  1
 24 71  1  6
 25 72  1  0
 25 73  1  0
 25 74  1  0
 26 75  1  0
 26 76  1  0
 27 77  1  0
 28 78  1  0
 29 79  1  0
 31 80  1  0
 32 81  1  0
 32 82  1  0
 35 83  1  0
 36 84  1  1
 37 85  1  0
 37 86  1  0
 39 87  1  0
 40 88  1  0
 42 89  1  0
 42 90  1  0
 42 91  1  0
 43 92  1  0
 44 93  1  0
 46 94  1  0
 46 95  1  0
M  CHG  1  25   1
M  END
>  <meeko>  (8) 
{"is_sidechain": [false], "free_energy": -7.905, "intermolecular_energy": -13.745, "internal_energy": -4.403}

$$$$
3bv9_ligand
     RDKit          3D

 95 98  0  0  0  0  0  0  0  0999 V2000
   13.8400   11.3960   -9.9090 C   0  0  0  0  0  0  0  0  0  0  0  0
   14.6340   10.5890   -8.9240 C   0  0  0  0  0  0  0  0  0  0  0  0
   15.5400   11.1600   -8.1860 N   0  0  0  0  0  0  0  0  0  0  0  0
   16.2250   10.3430   -7.3130 C   0  0  0  0  0  0  0  0  0  0  0  0
   17.2070    9.6830   -7.6420 O   0  0  0  0  0  0  0  0  0  0  0  0
   15.7060   10.3240   -5.8540 C   0  0  2  0  0  0  0  0  0  0  0  0
   15.8570   11.7140   -5.2320 C   0  0  0  0  0  0  0  0  0  0  0  0
   17.2270   11.6550   -4.5620 C   0  0  0  0  0  0  0  0  0  0  0  0
   17.3090   10.2270   -4.0490 C   0  0  0  0  0  0  0  0  0  0  0  0
   16.4470    9.4540   -4.9270 N   0  0  0  0  0  0  0  0  0  0  0  0
   16.3860    8.0830   -4.8200 C   0  0  0  0  0  0  0  0  0  0  0  0
   15.6710    7.4110   -5.5740 O   0  0  0  0  0  0  0  0  0  0  0  0
   17.2510    7.3930   -3.7330 C   0  0  2  0  0  0  0  0  0  0  0  0
   18.6250    6.9590   -4.2330 C   0  0  0  0  0  0  0  0  0  0  0  0
   18.4420    5.5210   -4.7150 C   0  0  2  0  0  0  0  0  0  0  0  0
   18.1650    5.4390   -6.2190 C   0  0  0  0  0  0  0  0  0  0  0  0
   17.9180    4.0030   -6.6720 C   0  0  0  0  0  0  0  0  0  0  0  0
   17.2030    3.1540   -5.6240 C   0  0  0  0  0  0  0  0  0  0  0  0
   16.3950    3.9960   -4.6420 C   0  0  0  0  0  0  0  0  0  0  0  0
   17.2890    4.9620   -3.8520 C   0  0  2  0  0  0  0  0  0  0  0  0
   16.6030    6.1450   -3.2970 N   0  0  0  0  0  0  0  0  0  0  0  0
   15.5320    6.2500   -2.4430 C   0  0  0  0  0  0  0  0  0  0  0  0
   15.6960    6.4130   -1.2250 O   0  0  0  0  0  0  0  0  0  0  0  0
   14.0850    6.2000   -2.9630 C   0  0  2  0  0  0  0  0  0  0  0  0
   13.5450    7.6020   -3.1210 N   0  0  0  0  0  0  0  0  0  0  0  0
   13.1510    5.3540   -2.0740 C   0  0  0  0  0  0  0  0  0  0  0  0
   11.7480    5.0270   -2.5320 C   0  0  0  0  0  0  0  0  0  0  0  0
   10.6110    5.7160   -2.3680 C   0  0  0  0  0  0  0  0  0  0  0  0
   10.3950    6.8560   -1.6320 N   0  0  0  0  0  0  0  0  0  0  0  0
    9.5290    6.9990   -0.5900 C   0  0  0  0  0  0  0  0  0  0  0  0
    8.5200    6.2310   -0.3900 N   0  0  0  0  0  0  0  0  0  0  0  0
    9.8110    8.0670    0.1830 N   0  0  0  0  0  0  0  0  0  0  0  0
   14.2910    9.1110   -8.8740 C   0  0  0  0  0  0  0  0  0  0  0  0
   14.9450    8.3370   -9.5540 O   0  0  0  0  0  0  0  0  0  0  0  0
   13.2420    8.8090   -8.0470 N   0  0  0  0  0  0  0  0  0  0  0  0
   12.7210    7.4480   -7.9450 C   0  0  1  0  0  0  0  0  0  0  0  0
   12.2000    7.1330   -6.5330 C   0  0  0  0  0  0  0  0  0  0  0  0
   12.0260    5.6600   -6.2360 C   0  0  0  0  0  0  0  0  0  0  0  0
   13.1510    4.8450   -6.0410 C   0  0  0  0  0  0  0  0  0  0  0  0
   13.0030    3.4840   -5.7640 C   0  0  0  0  0  0  0  0  0  0  0  0
   11.7300    2.9090   -5.6830 C   0  0  0  0  0  0  0  0  0  0  0  0
   11.5700    1.4570   -5.3460 C   0  0  0  0  0  0  0  0  0  0  0  0
   10.6080    3.7250   -5.8540 C   0  0  0  0  0  0  0  0  0  0  0  0
   10.7540    5.0880   -6.1290 C   0  0  0  0  0  0  0  0  0  0  0  0
   11.5550    7.3430   -8.9380 C   0  0  0  0  0  0  0  0  0  0  0  0
   10.8790    8.4990   -9.2020 N   0  0  0  0  0  0  0  0  0  0  0  0
   11.2720    6.2990   -9.5240 O   0  0  0  0  0  0  0  0  0  0  0  0
   13.1686   12.0784   -9.3673 H   0  0  0  0  0  0  0  0  0  0  0  0
   14.5249   11.9805  -10.5409 H   0  0  0  0  0  0  0  0  0  0  0  0
   13.2445   10.7207  -10.5409 H   0  0  0  0  0  0  0  0  0  0  0  0
   14.6728    9.9610   -5.9580 H   0  0  0  0  0  0  0  0  0  0  0  0
   15.8303   12.4961   -6.0050 H   0  0  0  0  0  0  0  0  0  0  0  0
   15.0463   11.9609   -4.5307 H   0  0  0  0  0  0  0  0  0  0  0  0
   18.0286   11.8590   -5.2872 H   0  0  0  0  0  0  0  0  0  0  0  0
   17.3474   12.4042   -3.7656 H   0  0  0  0  0  0  0  0  0  0  0  0
   18.3437    9.8574   -4.1019 H   0  0  0  0  0  0  0  0  0  0  0  0
   16.9971   10.1507   -2.9969 H   0  0  0  0  0  0  0  0  0  0  0  0
   17.3567    8.1423   -2.9346 H   0  0  0  0  0  0  0  0  0  0  0  0
   18.9553    7.6038   -5.0607 H   0  0  0  0  0  0  0  0  0  0  0  0
   19.3904    7.0340   -3.4466 H   0  0  0  0  0  0  0  0  0  0  0  0
   19.3580    4.9243   -4.5926 H   0  0  0  0  0  0  0  0  0  0  0  0
   17.2757    6.0435   -6.4508 H   0  0  0  0  0  0  0  0  0  0  0  0
   19.0501    5.8180   -6.7509 H   0  0  0  0  0  0  0  0  0  0  0  0
   17.3018    4.0253   -7.5829 H   0  0  0  0  0  0  0  0  0  0  0  0
   18.9016    3.5431   -6.8482 H   0  0  0  0  0  0  0  0  0  0  0  0
   16.5214    2.4599   -6.1375 H   0  0  0  0  0  0  0  0  0  0  0  0
   17.9711    2.6157   -5.0494 H   0  0  0  0  0  0  0  0  0  0  0  0
   15.6486    4.5784   -5.2020 H   0  0  0  0  0  0  0  0  0  0  0  0
   15.9091    3.3161   -3.9267 H   0  0  0  0  0  0  0  0  0  0  0  0
   17.6455    4.3291   -3.0259 H   0  0  0  0  0  0  0  0  0  0  0  0
   14.1122    5.7014   -3.9431 H   0  0  0  0  0  0  0  0  0  0  0  0
   13.2350    8.0340   -2.2470 H   0  0  0  0  0  0  0  0  0  0  0  0
   12.7950    7.6320   -3.8210 H   0  0  0  0  0  0  0  0  0  0  0  0
   14.3000    8.2010   -3.5070 H   0  0  0  0  0  0  0  0  0  0  0  0
   13.6600    4.3935   -1.9058 H   0  0  0  0  0  0  0  0  0  0  0  0
   12.9827    6.0032   -1.2021 H   0  0  0  0  0  0  0  0  0  0  0  0
   11.6452    4.0805   -3.0830 H   0  0  0  0  0  0  0  0  0  0  0  0
    9.7317    5.3151   -2.8934 H   0  0  0  0  0  0  0  0  0  0  0  0
   11.2210    7.4460   -1.5350 H   0  0  0  0  0  0  0  0  0  0  0  0
    8.0290    6.5090    0.4630 H   0  0  0  0  0  0  0  0  0  0  0  0
   10.2430    8.8680   -0.2720 H   0  0  0  0  0  0  0  0  0  0  0  0
    9.1070    8.3380    0.8580 H   0  0  0  0  0  0  0  0  0  0  0  0
   12.6060    9.5480   -7.7660 H   0  0  0  0  0  0  0  0  0  0  0  0
   13.5272    6.7324   -8.1641 H   0  0  0  0  0  0  0  0  0  0  0  0
   12.9128    7.5472   -5.8047 H   0  0  0  0  0  0  0  0  0  0  0  0
   11.1989    7.5835   -6.4642 H   0  0  0  0  0  0  0  0  0  0  0  0
   14.1585    5.2816   -6.1068 H   0  0  0  0  0  0  0  0  0  0  0  0
   13.8947    2.8590   -5.6082 H   0  0  0  0  0  0  0  0  0  0  0  0
   11.5564    1.3336   -4.2530 H   0  0  0  0  0  0  0  0  0  0  0  0
   10.6254    1.0844   -5.7689 H   0  0  0  0  0  0  0  0  0  0  0  0
   12.4108    0.8876   -5.7689 H   0  0  0  0  0  0  0  0  0  0  0  0
    9.6008    3.2907   -5.7714 H   0  0  0  0  0  0  0  0  0  0  0  0
    9.8608    5.7160   -6.2624 H   0  0  0  0  0  0  0  0  0  0  0  0
   10.0620    8.4120   -9.7960 H   0  0  0  0  0  0  0  0  0  0  0  0
   10.8960    9.2830   -8.5640 H   0  0  0  0  0  0  0  0  0  0  0  0
  1  2  1  0
  2  3  2  0
  3  4  1  0
  4  5  2  0
  4  6  1  0
  6  7  1  0
  7  8  1  0
  8  9  1  0
  9 10  1  0
 10 11  1  0
 11 12  2  0
 11 13  1  0
 13 14  1  0
 14 15  1  0
 15 16  1  0
 16 17  1  0
 17 18  1  0
 18 19  1  0
 19 20  1  0
 20 21  1  0
 21 22  1  0
 22 23  2  0
 22 24  1  0
 24 25  1  0
 24 26  1  0
 26 27  1  0
 27 28  2  0
 28 29  1  0
 29 30  1  0
 30 31  2  3
 30 32  1  0
  2 33  1  0
 33 34  2  0
 33 35  1  0
 35 36  1  0
 36 37  1  0
 37 38  1  0
 38 39  2  0
 39 40  1  0
 40 41  2  0
 41 42  1  0
 41 43  1  0
 43 44  2  0
 36 45  1  0
 45 46  1  0
 45 47  2  0
 10  6  1  0
 21 13  1  0
 44 38  1  0
 20 15  1  0
  1 48  1  0
  1 49  1  0
  1 50  1  0
  6 51  1  6
  7 52  1  0
  7 53  1  0
  8 54  1  0
  8 55  1  0
  9 56  1  0
  9 57  1  0
 13 58  1  1
 14 59  1  0
 14 60  1  0
 15 61  1  6
 16 62  1  0
 16 63  1  0
 17 64  1  0
 17 65  1  0
 18 66  1  0
 18 67  1  0
 19 68  1  0
 19 69  1  0
 20 70  1  1
 24 71  1  6
 25 72  1  0
 25 73  1  0
 25 74  1  0
 26 75  1  0
 26 76  1  0
 27 77  1  0
 28 78  1  0
 29 79  1  0
 31 80  1  0
 32 81  1  0
 32 82  1  0
 35 83  1  0
 36 84  1  6
 37 85  1  0
 37 86  1  0
 39 87  1  0
 40 88  1  0
 42 89  1  0
 42 90  1  0
 42 91  1  0
 43 92  1  0
 44 93  1  0
 46 94  1  0
 46 95  1  0
M  CHG  1  25   1
M  END
>  <meeko>  (9) 
{"is_sidechain": [false], "free_energy": -7.862, "intermolecular_energy": -13.972, "internal_energy": -4.096}

$$$$
