3pxf_ligand
     RDKit          3D

 33 35  0  0  0  0  0  0  0  0999 V2000
    0.1230    4.2810   10.7210 O   0  0  0  0  0  0  0  0  0  0  0  0
    0.0180    5.7180   10.4710 S   0  0  0  0  0  0  0  0  0  0  0  0
    0.0540    6.0700    9.0520 O   0  0  0  0  0  0  0  0  0  0  0  0
    0.8140    6.5560   11.3580 O   0  0  0  0  0  0  0  0  0  0  0  0
   -1.6930    6.1340   10.9740 C   0  0  0  0  0  0  0  0  0  0  0  0
   -2.4460    5.0210   11.4090 C   0  0  0  0  0  0  0  0  0  0  0  0
   -3.7670    5.1640   11.7880 C   0  0  0  0  0  0  0  0  0  0  0  0
   -4.3460    6.4210   11.7360 C   0  0  0  0  0  0  0  0  0  0  0  0
   -3.6240    7.5510   11.3160 C   0  0  0  0  0  0  0  0  0  0  0  0
   -4.3220    8.7680   11.3200 C   0  0  0  0  0  0  0  0  0  0  0  0
   -3.7150    9.9520   10.9370 C   0  0  0  0  0  0  0  0  0  0  0  0
   -2.3880    9.9270   10.5490 C   0  0  0  0  0  0  0  0  0  0  0  0
   -1.6390    8.7300   10.5250 C   0  0  0  0  0  0  0  0  0  0  0  0
   -0.2820    8.8290   10.1490 N   0  0  0  0  0  0  0  0  0  0  0  0
    0.3650    9.3660    9.0220 C   0  0  0  0  0  0  0  0  0  0  0  0
    1.7470    9.1720    8.8860 C   0  0  0  0  0  0  0  0  0  0  0  0
    2.4370    9.6420    7.7630 C   0  0  0  0  0  0  0  0  0  0  0  0
    1.7500   10.3110    6.7560 C   0  0  0  0  0  0  0  0  0  0  0  0
    0.3770   10.5140    6.8740 C   0  0  0  0  0  0  0  0  0  0  0  0
   -0.3070   10.0430    7.9990 C   0  0  0  0  0  0  0  0  0  0  0  0
   -2.2510    7.4690   10.9120 C   0  0  0  0  0  0  0  0  0  0  0  0
   -1.9748    4.0278   11.4465 H   0  0  0  0  0  0  0  0  0  0  0  0
   -4.3492    4.2938   12.1255 H   0  0  0  0  0  0  0  0  0  0  0  0
   -5.3991    6.5379   12.0313 H   0  0  0  0  0  0  0  0  0  0  0  0
   -5.3759    8.7819   11.6347 H   0  0  0  0  0  0  0  0  0  0  0  0
   -4.2788   10.8965   10.9413 H   0  0  0  0  0  0  0  0  0  0  0  0
   -1.9014   10.8672   10.2502 H   0  0  0  0  0  0  0  0  0  0  0  0
    0.3680    8.4780   10.8690 H   0  0  0  0  0  0  0  0  0  0  0  0
    2.2984    8.6410    9.6759 H   0  0  0  0  0  0  0  0  0  0  0  0
    3.5219    9.4824    7.6769 H   0  0  0  0  0  0  0  0  0  0  0  0
    2.2885   10.6784    5.8700 H   0  0  0  0  0  0  0  0  0  0  0  0
   -0.1699   11.0455    6.0812 H   0  0  0  0  0  0  0  0  0  0  0  0
   -1.3915   10.2076    8.0808 H   0  0  0  0  0  0  0  0  0  0  0  0
  1  2  2  0
  2  3  2  0
  2  4  1  0
  2  5  1  0
  5  6  2  0
  6  7  1  0
  7  8  2  0
  8  9  1  0
  9 10  2  0
 10 11  1  0
 11 12  2  0
 12 13  1  0
 13 14  1  0
 14 15  1  0
 15 16  2  0
 16 17  1  0
 17 18  2  0
 18 19  1  0
 19 20  2  0
 13 21  2  0
 21  5  1  0
 21  9  1  0
 20 15  1  0
  6 22  1  0
  7 23  1  0
  8 24  1  0
 10 25  1  0
 11 26  1  0
 12 27  1  0
 14 28  1  0
 16 29  1  0
 17 30  1  0
 18 31  1  0
 19 32  1  0
 20 33  1  0
M  CHG  1   4  -1
M  END
>  <meeko>  (1) 
{"is_sidechain": [false], "free_energy": -9.494, "intermolecular_energy": -11.159, "internal_energy": -0.872}

$$$$
3pxf_ligand
     RDKit          3D

 33 35  0  0  0  0  0  0  0  0999 V2000
    2.8280    8.2580   10.1520 O   0  0  0  0  0  0  0  0  0  0  0  0
    2.2400    8.1200    8.8210 S   0  0  0  0  0  0  0  0  0  0  0  0
    1.7570    6.7690    8.5300 O   0  0  0  0  0  0  0  0  0  0  0  0
    2.9770    8.7780    7.7510 O   0  0  0  0  0  0  0  0  0  0  0  0
    0.7060    9.1150    8.9070 C   0  0  0  0  0  0  0  0  0  0  0  0
    0.6390   10.1460    7.9440 C   0  0  0  0  0  0  0  0  0  0  0  0
   -0.4400   11.0080    7.9020 C   0  0  0  0  0  0  0  0  0  0  0  0
   -1.4610   10.8470    8.8240 C   0  0  0  0  0  0  0  0  0  0  0  0
   -1.4310    9.8280    9.7900 C   0  0  0  0  0  0  0  0  0  0  0  0
   -2.5330    9.7640   10.6570 C   0  0  0  0  0  0  0  0  0  0  0  0
   -2.6230    8.7980   11.6440 C   0  0  0  0  0  0  0  0  0  0  0  0
   -1.6020    7.8730   11.7680 C   0  0  0  0  0  0  0  0  0  0  0  0
   -0.4700    7.8930   10.9240 C   0  0  0  0  0  0  0  0  0  0  0  0
    0.4910    6.8770   11.1160 N   0  0  0  0  0  0  0  0  0  0  0  0
    0.3970    5.5250   11.4920 C   0  0  0  0  0  0  0  0  0  0  0  0
    1.2930    5.0300   12.4490 C   0  0  0  0  0  0  0  0  0  0  0  0
    1.2180    3.7070   12.8960 C   0  0  0  0  0  0  0  0  0  0  0  0
    0.2380    2.8580   12.3920 C   0  0  0  0  0  0  0  0  0  0  0  0
   -0.6610    3.3310   11.4390 C   0  0  0  0  0  0  0  0  0  0  0  0
   -0.5810    4.6550   10.9960 C   0  0  0  0  0  0  0  0  0  0  0  0
   -0.3420    8.9010    9.8850 C   0  0  0  0  0  0  0  0  0  0  0  0
    1.4567   10.2643    7.2178 H   0  0  0  0  0  0  0  0  0  0  0  0
   -0.4874   11.8086    7.1491 H   0  0  0  0  0  0  0  0  0  0  0  0
   -2.3183   11.5357    8.7990 H   0  0  0  0  0  0  0  0  0  0  0  0
   -3.3443   10.4990   10.5494 H   0  0  0  0  0  0  0  0  0  0  0  0
   -3.4915    8.7663   12.3183 H   0  0  0  0  0  0  0  0  0  0  0  0
   -1.6740    7.0994   12.5467 H   0  0  0  0  0  0  0  0  0  0  0  0
    1.4520    7.1750   10.8920 H   0  0  0  0  0  0  0  0  0  0  0  0
    2.0696    5.6942   12.8561 H   0  0  0  0  0  0  0  0  0  0  0  0
    1.9334    3.3379   13.6456 H   0  0  0  0  0  0  0  0  0  0  0  0
    0.1734    1.8180   12.7444 H   0  0  0  0  0  0  0  0  0  0  0  0
   -1.4349    2.6622   11.0343 H   0  0  0  0  0  0  0  0  0  0  0  0
   -1.2983    5.0187   10.2455 H   0  0  0  0  0  0  0  0  0  0  0  0
  1  2  2  0
  2  3  2  0
  2  4  1  0
  2  5  1  0
  5  6  2  0
  6  7  1  0
  7  8  2  0
  8  9  1  0
  9 10  2  0
 10 11  1  0
 11 12  2  0
 12 13  1  0
 13 14  1  0
 14 15  1  0
 15 16  2  0
 16 17  1  0
 17 18  2  0
 18 19  1  0
 19 20  2  0
 13 21  2  0
 21  5  1  0
 21  9  1  0
 20 15  1  0
  6 22  1  0
  7 23  1  0
  8 24  1  0
 10 25  1  0
 11 26  1  0
 12 27  1  0
 14 28  1  0
 16 29  1  0
 17 30  1  0
 18 31  1  0
 19 32  1  0
 20 33  1  0
M  CHG  1   4  -1
M  END
>  <meeko>  (2) 
{"is_sidechain": [false], "free_energy": -8.599, "intermolecular_energy": -9.975, "internal_energy": -1.004}

$$$$
3pxf_ligand
     RDKit          3D

 33 35  0  0  0  0  0  0  0  0999 V2000
    2.5130    6.4030   10.6620 O   0  0  0  0  0  0  0  0  0  0  0  0
    1.8550    5.3540    9.8830 S   0  0  0  0  0  0  0  0  0  0  0  0
    2.5130    4.0510    9.9820 O   0  0  0  0  0  0  0  0  0  0  0  0
    1.4290    5.7550    8.5490 O   0  0  0  0  0  0  0  0  0  0  0  0
    0.2590    5.0970   10.7430 C   0  0  0  0  0  0  0  0  0  0  0  0
    0.0430    3.7650   11.1590 C   0  0  0  0  0  0  0  0  0  0  0  0
   -1.1300    3.4010   11.7900 C   0  0  0  0  0  0  0  0  0  0  0  0
   -2.0990    4.3660   12.0100 C   0  0  0  0  0  0  0  0  0  0  0  0
   -1.9150    5.7020   11.6160 C   0  0  0  0  0  0  0  0  0  0  0  0
   -2.9660    6.5850   11.9080 C   0  0  0  0  0  0  0  0  0  0  0  0
   -2.8970    7.9270   11.5780 C   0  0  0  0  0  0  0  0  0  0  0  0
   -1.7590    8.4040   10.9520 C   0  0  0  0  0  0  0  0  0  0  0  0
   -0.6730    7.5590   10.6340 C   0  0  0  0  0  0  0  0  0  0  0  0
    0.4520    8.1620   10.0320 N   0  0  0  0  0  0  0  0  0  0  0  0
    0.6170    8.9540    8.8820 C   0  0  0  0  0  0  0  0  0  0  0  0
   -0.4720    9.7080    8.4230 C   0  0  0  0  0  0  0  0  0  0  0  0
   -0.3550   10.5500    7.3120 C   0  0  0  0  0  0  0  0  0  0  0  0
    0.8610   10.6520    6.6440 C   0  0  0  0  0  0  0  0  0  0  0  0
    1.9540    9.9100    7.0840 C   0  0  0  0  0  0  0  0  0  0  0  0
    1.8310    9.0690    8.1950 C   0  0  0  0  0  0  0  0  0  0  0  0
   -0.7200    6.1430   10.9590 C   0  0  0  0  0  0  0  0  0  0  0  0
    0.8196    3.0072   10.9780 H   0  0  0  0  0  0  0  0  0  0  0  0
   -1.2922    2.3620   12.1126 H   0  0  0  0  0  0  0  0  0  0  0  0
   -3.0376    4.0787   12.5064 H   0  0  0  0  0  0  0  0  0  0  0  0
   -3.8658    6.2012   12.4110 H   0  0  0  0  0  0  0  0  0  0  0  0
   -3.7330    8.6034   11.8095 H   0  0  0  0  0  0  0  0  0  0  0  0
   -1.6984    9.4718   10.6947 H   0  0  0  0  0  0  0  0  0  0  0  0
    1.3230    8.0320   10.5700 H   0  0  0  0  0  0  0  0  0  0  0  0
   -1.4368    9.6362    8.9464 H   0  0  0  0  0  0  0  0  0  0  0  0
   -1.2233   11.1306    6.9671 H   0  0  0  0  0  0  0  0  0  0  0  0
    0.9586   11.3157    5.7723 H   0  0  0  0  0  0  0  0  0  0  0  0
    2.9164    9.9853    6.5567 H   0  0  0  0  0  0  0  0  0  0  0  0
    2.7020    8.4890    8.5340 H   0  0  0  0  0  0  0  0  0  0  0  0
  1  2  2  0
  2  3  2  0
  2  4  1  0
  2  5  1  0
  5  6  2  0
  6  7  1  0
  7  8  2  0
  8  9  1  0
  9 10  2  0
 10 11  1  0
 11 12  2  0
 12 13  1  0
 13 14  1  0
 14 15  1  0
 15 16  2  0
 16 17  1  0
 17 18  2  0
 18 19  1  0
 19 20  2  0
 13 21  2  0
 21  5  1  0
 21  9  1  0
 20 15  1  0
  6 22  1  0
  7 23  1  0
  8 24  1  0
 10 25  1  0
 11 26  1  0
 12 27  1  0
 14 28  1  0
 16 29  1  0
 17 30  1  0
 18 31  1  0
 19 32  1  0
 20 33  1  0
M  CHG  1   4  -1
M  END
>  <meeko>  (3) 
{"is_sidechain": [false], "free_energy": -8.391, "intermolecular_energy": -10.09, "internal_energy": -0.644}

$$$$
3pxf_ligand
     RDKit          3D

 33 35  0  0  0  0  0  0  0  0999 V2000
    2.4970    5.5190   10.0880 O   0  0  0  0  0  0  0  0  0  0  0  0
    1.1890    6.1200   10.3500 S   0  0  0  0  0  0  0  0  0  0  0  0
    0.9930    6.5120   11.7460 O   0  0  0  0  0  0  0  0  0  0  0  0
    0.0650    5.4480    9.7110 O   0  0  0  0  0  0  0  0  0  0  0  0
    1.2460    7.7170    9.4580 C   0  0  0  0  0  0  0  0  0  0  0  0
    2.4300    7.9130    8.7130 C   0  0  0  0  0  0  0  0  0  0  0  0
    2.6410    9.0850    8.0130 C   0  0  0  0  0  0  0  0  0  0  0  0
    1.6700   10.0720    8.0520 C   0  0  0  0  0  0  0  0  0  0  0  0
    0.4780    9.9090    8.7770 C   0  0  0  0  0  0  0  0  0  0  0  0
   -0.4290   10.9780    8.7270 C   0  0  0  0  0  0  0  0  0  0  0  0
   -1.6420   10.9300    9.3920 C   0  0  0  0  0  0  0  0  0  0  0  0
   -1.9630    9.7960   10.1160 C   0  0  0  0  0  0  0  0  0  0  0  0
   -1.0860    8.6920   10.2020 C   0  0  0  0  0  0  0  0  0  0  0  0
   -1.5350    7.5730   10.9360 N   0  0  0  0  0  0  0  0  0  0  0  0
   -2.8010    7.1690   11.3930 C   0  0  0  0  0  0  0  0  0  0  0  0
   -3.0160    5.8110   11.6650 C   0  0  0  0  0  0  0  0  0  0  0  0
   -4.2400    5.3570   12.1660 C   0  0  0  0  0  0  0  0  0  0  0  0
   -5.2710    6.2610   12.4060 C   0  0  0  0  0  0  0  0  0  0  0  0
   -5.0770    7.6140   12.1400 C   0  0  0  0  0  0  0  0  0  0  0  0
   -3.8510    8.0620   11.6390 C   0  0  0  0  0  0  0  0  0  0  0  0
    0.1990    8.7170    9.5230 C   0  0  0  0  0  0  0  0  0  0  0  0
    3.1940    7.1220    8.6900 H   0  0  0  0  0  0  0  0  0  0  0  0
    3.5648    9.2320    7.4342 H   0  0  0  0  0  0  0  0  0  0  0  0
    1.8369   11.0089    7.5003 H   0  0  0  0  0  0  0  0  0  0  0  0
   -0.1702   11.8753    8.1458 H   0  0  0  0  0  0  0  0  0  0  0  0
   -2.3391   11.7796    9.3455 H   0  0  0  0  0  0  0  0  0  0  0  0
   -2.9292    9.7526   10.6400 H   0  0  0  0  0  0  0  0  0  0  0  0
   -0.7870    6.8920   11.1390 H   0  0  0  0  0  0  0  0  0  0  0  0
   -2.2068    5.0889   11.4809 H   0  0  0  0  0  0  0  0  0  0  0  0
   -4.3881    4.2863   12.3703 H   0  0  0  0  0  0  0  0  0  0  0  0
   -6.2340    5.9083   12.8037 H   0  0  0  0  0  0  0  0  0  0  0  0
   -5.8899    8.3318   12.3244 H   0  0  0  0  0  0  0  0  0  0  0  0
   -3.7090    9.1335   11.4348 H   0  0  0  0  0  0  0  0  0  0  0  0
  1  2  2  0
  2  3  2  0
  2  4  1  0
  2  5  1  0
  5  6  2  0
  6  7  1  0
  7  8  2  0
  8  9  1  0
  9 10  2  0
 10 11  1  0
 11 12  2  0
 12 13  1  0
 13 14  1  0
 14 15  1  0
 15 16  2  0
 16 17  1  0
 17 18  2  0
 18 19  1  0
 19 20  2  0
 13 21  2  0
 21  5  1  0
 21  9  1  0
 20 15  1  0
  6 22  1  0
  7 23  1  0
  8 24  1  0
 10 25  1  0
 11 26  1  0
 12 27  1  0
 14 28  1  0
 16 29  1  0
 17 30  1  0
 18 31  1  0
 19 32  1  0
 20 33  1  0
M  CHG  1   4  -1
M  END
>  <meeko>  (4) 
{"is_sidechain": [false], "free_energy": -8.358, "intermolecular_energy": -10.135, "internal_energy": -0.561}

$$$$
3pxf_ligand
     RDKit          3D

 33 35  0  0  0  0  0  0  0  0999 V2000
    1.4480    5.9420    8.7430 O   0  0  0  0  0  0  0  0  0  0  0  0
    2.0970    6.8150    9.7200 S   0  0  0  0  0  0  0  0  0  0  0  0
    3.3760    7.3590    9.2620 O   0  0  0  0  0  0  0  0  0  0  0  0
    2.0650    6.3320   11.0940 O   0  0  0  0  0  0  0  0  0  0  0  0
    1.0070    8.2840    9.7970 C   0  0  0  0  0  0  0  0  0  0  0  0
    1.6480    9.4890    9.4360 C   0  0  0  0  0  0  0  0  0  0  0  0
    0.9690   10.6920    9.4770 C   0  0  0  0  0  0  0  0  0  0  0  0
   -0.3560   10.7000    9.8810 C   0  0  0  0  0  0  0  0  0  0  0  0
   -1.0260    9.5180   10.2400 C   0  0  0  0  0  0  0  0  0  0  0  0
   -2.3700    9.6590   10.6190 C   0  0  0  0  0  0  0  0  0  0  0  0
   -3.1380    8.5670   10.9840 C   0  0  0  0  0  0  0  0  0  0  0  0
   -2.5620    7.3100   10.9670 C   0  0  0  0  0  0  0  0  0  0  0  0
   -1.2140    7.1110   10.5960 C   0  0  0  0  0  0  0  0  0  0  0  0
   -0.7440    5.7810   10.5770 N   0  0  0  0  0  0  0  0  0  0  0  0
   -0.9200    4.6870   11.4430 C   0  0  0  0  0  0  0  0  0  0  0  0
   -0.1950    3.5130   11.2000 C   0  0  0  0  0  0  0  0  0  0  0  0
   -0.2940    2.4100   12.0530 C   0  0  0  0  0  0  0  0  0  0  0  0
   -1.1220    2.4680   13.1690 C   0  0  0  0  0  0  0  0  0  0  0  0
   -1.8530    3.6250   13.4270 C   0  0  0  0  0  0  0  0  0  0  0  0
   -1.7490    4.7250   12.5700 C   0  0  0  0  0  0  0  0  0  0  0  0
   -0.3790    8.2400   10.2170 C   0  0  0  0  0  0  0  0  0  0  0  0
    2.7009    9.4701    9.1182 H   0  0  0  0  0  0  0  0  0  0  0  0
    1.4725   11.6280    9.1934 H   0  0  0  0  0  0  0  0  0  0  0  0
   -0.8978   11.6564    9.9219 H   0  0  0  0  0  0  0  0  0  0  0  0
   -2.8237   10.6611   10.6261 H   0  0  0  0  0  0  0  0  0  0  0  0
   -4.1887    8.6968   11.2825 H   0  0  0  0  0  0  0  0  0  0  0  0
   -3.1717    6.4395   11.2508 H   0  0  0  0  0  0  0  0  0  0  0  0
   -0.1960    5.5520    9.7320 H   0  0  0  0  0  0  0  0  0  0  0  0
    0.4646    3.4582   10.3214 H   0  0  0  0  0  0  0  0  0  0  0  0
    0.2823    1.4972   11.8418 H   0  0  0  0  0  0  0  0  0  0  0  0
   -1.1992    1.6037   13.8450 H   0  0  0  0  0  0  0  0  0  0  0  0
   -2.5128    3.6736   14.3058 H   0  0  0  0  0  0  0  0  0  0  0  0
   -2.3282    5.6351   12.7851 H   0  0  0  0  0  0  0  0  0  0  0  0
  1  2  2  0
  2  3  2  0
  2  4  1  0
  2  5  1  0
  5  6  2  0
  6  7  1  0
  7  8  2  0
  8  9  1  0
  9 10  2  0
 10 11  1  0
 11 12  2  0
 12 13  1  0
 13 14  1  0
 14 15  1  0
 15 16  2  0
 16 17  1  0
 17 18  2  0
 18 19  1  0
 19 20  2  0
 13 21  2  0
 21  5  1  0
 21  9  1  0
 20 15  1  0
  6 22  1  0
  7 23  1  0
  8 24  1  0
 10 25  1  0
 11 26  1  0
 12 27  1  0
 14 28  1  0
 16 29  1  0
 17 30  1  0
 18 31  1  0
 19 32  1  0
 20 33  1  0
M  CHG  1   4  -1
M  END
>  <meeko>  (5) 
{"is_sidechain": [false], "free_energy": -8.305, "intermolecular_energy": -9.86, "internal_energy": -0.772}

$$$$
3pxf_ligand
     RDKit          3D

 33 35  0  0  0  0  0  0  0  0999 V2000
   -2.5120    6.9220   11.9450 O   0  0  0  0  0  0  0  0  0  0  0  0
   -1.3080    6.8970   11.1140 S   0  0  0  0  0  0  0  0  0  0  0  0
   -1.3690    5.9210   10.0260 O   0  0  0  0  0  0  0  0  0  0  0  0
   -0.0520    6.9570   11.8490 O   0  0  0  0  0  0  0  0  0  0  0  0
   -1.3320    8.5090   10.2480 C   0  0  0  0  0  0  0  0  0  0  0  0
   -2.3550    9.3780   10.6870 C   0  0  0  0  0  0  0  0  0  0  0  0
   -2.5270   10.6200   10.1070 C   0  0  0  0  0  0  0  0  0  0  0  0
   -1.6780   11.0040    9.0820 C   0  0  0  0  0  0  0  0  0  0  0  0
   -0.6460   10.1680    8.6250 C   0  0  0  0  0  0  0  0  0  0  0  0
    0.1520   10.6780    7.5890 C   0  0  0  0  0  0  0  0  0  0  0  0
    1.2060    9.9520    7.0630 C   0  0  0  0  0  0  0  0  0  0  0  0
    1.4780    8.6980    7.5790 C   0  0  0  0  0  0  0  0  0  0  0  0
    0.7060    8.1360    8.6200 C   0  0  0  0  0  0  0  0  0  0  0  0
    1.0980    6.8660    9.0940 N   0  0  0  0  0  0  0  0  0  0  0  0
    2.2860    6.3800    9.6670 C   0  0  0  0  0  0  0  0  0  0  0  0
    2.3610    5.0230   10.0110 C   0  0  0  0  0  0  0  0  0  0  0  0
    3.5330    4.4730   10.5400 C   0  0  0  0  0  0  0  0  0  0  0  0
    4.6530    5.2760   10.7310 C   0  0  0  0  0  0  0  0  0  0  0  0
    4.5980    6.6270   10.3970 C   0  0  0  0  0  0  0  0  0  0  0  0
    3.4230    7.1710    9.8680 C   0  0  0  0  0  0  0  0  0  0  0  0
   -0.4140    8.8690    9.1860 C   0  0  0  0  0  0  0  0  0  0  0  0
   -3.0235    9.0618   11.5013 H   0  0  0  0  0  0  0  0  0  0  0  0
   -3.3251   11.2930   10.4535 H   0  0  0  0  0  0  0  0  0  0  0  0
   -1.8157   11.9897    8.6136 H   0  0  0  0  0  0  0  0  0  0  0  0
   -0.0656   11.6781    7.1859 H   0  0  0  0  0  0  0  0  0  0  0  0
    1.8177   10.3656    6.2476 H   0  0  0  0  0  0  0  0  0  0  0  0
    2.3196    8.1218    7.1670 H   0  0  0  0  0  0  0  0  0  0  0  0
    0.3440    6.1630    9.0530 H   0  0  0  0  0  0  0  0  0  0  0  0
    1.4818    4.3789    9.8621 H   0  0  0  0  0  0  0  0  0  0  0  0
    3.5693    3.4060   10.8049 H   0  0  0  0  0  0  0  0  0  0  0  0
    5.5775    4.8459   11.1438 H   0  0  0  0  0  0  0  0  0  0  0  0
    5.4796    7.2669   10.5494 H   0  0  0  0  0  0  0  0  0  0  0  0
    3.3920    8.2388    9.6055 H   0  0  0  0  0  0  0  0  0  0  0  0
  1  2  2  0
  2  3  2  0
  2  4  1  0
  2  5  1  0
  5  6  2  0
  6  7  1  0
  7  8  2  0
  8  9  1  0
  9 10  2  0
 10 11  1  0
 11 12  2  0
 12 13  1  0
 13 14  1  0
 14 15  1  0
 15 16  2  0
 16 17  1  0
 17 18  2  0
 18 19  1  0
 19 20  2  0
 13 21  2  0
 21  5  1  0
 21  9  1  0
 20 15  1  0
  6 22  1  0
  7 23  1  0
  8 24  1  0
 10 25  1  0
 11 26  1  0
 12 27  1  0
 14 28  1  0
 16 29  1  0
 17 30  1  0
 18 31  1  0
 19 32  1  0
 20 33  1  0
M  CHG  1   4  -1
M  END
>  <meeko>  (6) 
{"is_sidechain": [false], "free_energy": -8.286, "intermolecular_energy": -9.706, "internal_energy": -0.905}

$$$$
3pxf_ligand
     RDKit          3D

 33 35  0  0  0  0  0  0  0  0999 V2000
   -1.9280    5.0200   10.5440 O   0  0  0  0  0  0  0  0  0  0  0  0
   -2.3710    5.5770   11.8210 S   0  0  0  0  0  0  0  0  0  0  0  0
   -1.2930    5.7340   12.7970 O   0  0  0  0  0  0  0  0  0  0  0  0
   -3.6200    5.0270   12.3320 O   0  0  0  0  0  0  0  0  0  0  0  0
   -2.8400    7.3000   11.4170 C   0  0  0  0  0  0  0  0  0  0  0  0
   -4.1660    7.6290   11.7740 C   0  0  0  0  0  0  0  0  0  0  0  0
   -4.6830    8.8820   11.5030 C   0  0  0  0  0  0  0  0  0  0  0  0
   -3.8780    9.8150   10.8710 C   0  0  0  0  0  0  0  0  0  0  0  0
   -2.5530    9.5240   10.5080 C   0  0  0  0  0  0  0  0  0  0  0  0
   -1.8390   10.5590    9.8840 C   0  0  0  0  0  0  0  0  0  0  0  0
   -0.5230   10.3960    9.4890 C   0  0  0  0  0  0  0  0  0  0  0  0
    0.1000    9.1830    9.7240 C   0  0  0  0  0  0  0  0  0  0  0  0
   -0.5720    8.1070   10.3460 C   0  0  0  0  0  0  0  0  0  0  0  0
    0.1740    6.9300   10.5710 N   0  0  0  0  0  0  0  0  0  0  0  0
    1.5480    6.6800   10.7310 C   0  0  0  0  0  0  0  0  0  0  0  0
    1.9580    5.8090   11.7500 C   0  0  0  0  0  0  0  0  0  0  0  0
    3.3070    5.4860   11.9280 C   0  0  0  0  0  0  0  0  0  0  0  0
    4.2690    6.0300   11.0820 C   0  0  0  0  0  0  0  0  0  0  0  0
    3.8810    6.8980   10.0640 C   0  0  0  0  0  0  0  0  0  0  0  0
    2.5310    7.2180    9.8920 C   0  0  0  0  0  0  0  0  0  0  0  0
   -1.9580    8.2450   10.7630 C   0  0  0  0  0  0  0  0  0  0  0  0
   -4.7957    6.8785   12.2742 H   0  0  0  0  0  0  0  0  0  0  0  0
   -5.7161    9.1337   11.7845 H   0  0  0  0  0  0  0  0  0  0  0  0
   -4.2876   10.8111   10.6473 H   0  0  0  0  0  0  0  0  0  0  0  0
   -2.3377   11.5229    9.7047 H   0  0  0  0  0  0  0  0  0  0  0  0
    0.0188   11.2169    8.9965 H   0  0  0  0  0  0  0  0  0  0  0  0
    1.1485    9.0527    9.4178 H   0  0  0  0  0  0  0  0  0  0  0  0
   -0.4130    6.0900   10.6850 H   0  0  0  0  0  0  0  0  0  0  0  0
    1.2049    5.3716   12.4219 H   0  0  0  0  0  0  0  0  0  0  0  0
    3.6075    4.8026   12.7359 H   0  0  0  0  0  0  0  0  0  0  0  0
    5.3307    5.7757   11.2166 H   0  0  0  0  0  0  0  0  0  0  0  0
    4.6380    7.3323    9.3944 H   0  0  0  0  0  0  0  0  0  0  0  0
    2.2363    7.9039    9.0841 H   0  0  0  0  0  0  0  0  0  0  0  0
  1  2  2  0
  2  3  2  0
  2  4  1  0
  2  5  1  0
  5  6  2  0
  6  7  1  0
  7  8  2  0
  8  9  1  0
  9 10  2  0
 10 11  1  0
 11 12  2  0
 12 13  1  0
 13 14  1  0
 14 15  1  0
 15 16  2  0
 16 17  1  0
 17 18  2  0
 18 19  1  0
 19 20  2  0
 13 21  2  0
 21  5  1  0
 21  9  1  0
 20 15  1  0
  6 22  1  0
  7 23  1  0
  8 24  1  0
 10 25  1  0
 11 26  1  0
 12 27  1  0
 14 28  1  0
 16 29  1  0
 17 30  1  0
 18 31  1  0
 19 32  1  0
 20 33  1  0
M  CHG  1   4  -1
M  END
>  <meeko>  (7) 
{"is_sidechain": [false], "free_energy": -8.115, "intermolecular_energy": -9.706, "internal_energy": -0.704}

$$$$
3pxf_ligand
     RDKit          3D

 33 35  0  0  0  0  0  0  0  0999 V2000
   -2.1880    6.3550   10.8630 O   0  0  0  0  0  0  0  0  0  0  0  0
   -2.2060    7.6200   11.5960 S   0  0  0  0  0  0  0  0  0  0  0  0
   -1.4940    7.5670   12.8730 O   0  0  0  0  0  0  0  0  0  0  0  0
   -3.4920    8.3040   11.6090 O   0  0  0  0  0  0  0  0  0  0  0  0
   -1.1780    8.7400   10.5750 C   0  0  0  0  0  0  0  0  0  0  0  0
   -1.8370    9.9290   10.1940 C   0  0  0  0  0  0  0  0  0  0  0  0
   -1.2070   10.8620    9.3920 C   0  0  0  0  0  0  0  0  0  0  0  0
    0.0860   10.6120    8.9640 C   0  0  0  0  0  0  0  0  0  0  0  0
    0.7740    9.4430    9.3300 C   0  0  0  0  0  0  0  0  0  0  0  0
    2.0830    9.3150    8.8410 C   0  0  0  0  0  0  0  0  0  0  0  0
    2.8630    8.2120    9.1420 C   0  0  0  0  0  0  0  0  0  0  0  0
    2.3370    7.2210    9.9490 C   0  0  0  0  0  0  0  0  0  0  0  0
    1.0250    7.2980   10.4670 C   0  0  0  0  0  0  0  0  0  0  0  0
    0.6060    6.2470   11.3110 N   0  0  0  0  0  0  0  0  0  0  0  0
    0.9280    4.8800   11.3750 C   0  0  0  0  0  0  0  0  0  0  0  0
    1.0600    4.2780   12.6330 C   0  0  0  0  0  0  0  0  0  0  0  0
    1.3320    2.9120   12.7590 C   0  0  0  0  0  0  0  0  0  0  0  0
    1.4720    2.1250   11.6200 C   0  0  0  0  0  0  0  0  0  0  0  0
    1.3460    2.7050   10.3600 C   0  0  0  0  0  0  0  0  0  0  0  0
    1.0740    4.0710   10.2420 C   0  0  0  0  0  0  0  0  0  0  0  0
    0.1770    8.4380   10.1610 C   0  0  0  0  0  0  0  0  0  0  0  0
   -2.8645   10.1152   10.5397 H   0  0  0  0  0  0  0  0  0  0  0  0
   -1.7241   11.7875    9.0987 H   0  0  0  0  0  0  0  0  0  0  0  0
    0.5882   11.3488    8.3198 H   0  0  0  0  0  0  0  0  0  0  0  0
    2.4988   10.1095    8.2038 H   0  0  0  0  0  0  0  0  0  0  0  0
    3.8853    8.1255    8.7452 H   0  0  0  0  0  0  0  0  0  0  0  0
    2.9579    6.3470   10.1951 H   0  0  0  0  0  0  0  0  0  0  0  0
   -0.0300    6.5560   12.0630 H   0  0  0  0  0  0  0  0  0  0  0  0
    0.9476    4.8915   13.5391 H   0  0  0  0  0  0  0  0  0  0  0  0
    1.4351    2.4605   13.7568 H   0  0  0  0  0  0  0  0  0  0  0  0
    1.6813    1.0492   11.7143 H   0  0  0  0  0  0  0  0  0  0  0  0
    1.4606    2.0875    9.4569 H   0  0  0  0  0  0  0  0  0  0  0  0
    0.9730    4.5178    9.2419 H   0  0  0  0  0  0  0  0  0  0  0  0
  1  2  2  0
  2  3  2  0
  2  4  1  0
  2  5  1  0
  5  6  2  0
  6  7  1  0
  7  8  2  0
  8  9  1  0
  9 10  2  0
 10 11  1  0
 11 12  2  0
 12 13  1  0
 13 14  1  0
 14 15  1  0
 15 16  2  0
 16 17  1  0
 17 18  2  0
 18 19  1  0
 19 20  2  0
 13 21  2  0
 21  5  1  0
 21  9  1  0
 20 15  1  0
  6 22  1  0
  7 23  1  0
  8 24  1  0
 10 25  1  0
 11 26  1  0
 12 27  1  0
 14 28  1  0
 16 29  1  0
 17 30  1  0
 18 31  1  0
 19 32  1  0
 20 33  1  0
M  CHG  1   4  -1
M  END
>  <meeko>  (8) 
{"is_sidechain": [false], "free_energy": -8.068, "intermolecular_energy": -9.407, "internal_energy": -0.949}

$$$$
3pxf_ligand
     RDKit          3D

 33 35  0  0  0  0  0  0  0  0999 V2000
   -1.0620    6.7580   11.4790 O   0  0  0  0  0  0  0  0  0  0  0  0
   -1.0960    5.6660   10.5060 S   0  0  0  0  0  0  0  0  0  0  0  0
   -1.1210    6.1200    9.1160 O   0  0  0  0  0  0  0  0  0  0  0  0
   -2.0030    4.5760   10.8390 O   0  0  0  0  0  0  0  0  0  0  0  0
    0.5450    4.8720   10.6700 C   0  0  0  0  0  0  0  0  0  0  0  0
    0.4850    3.4880   10.9430 C   0  0  0  0  0  0  0  0  0  0  0  0
    1.6390    2.7520   11.1300 C   0  0  0  0  0  0  0  0  0  0  0  0
    2.8630    3.3940   11.0470 C   0  0  0  0  0  0  0  0  0  0  0  0
    2.9600    4.7680   10.7700 C   0  0  0  0  0  0  0  0  0  0  0  0
    4.2590    5.2950   10.7000 C   0  0  0  0  0  0  0  0  0  0  0  0
    4.4830    6.6320   10.4240 C   0  0  0  0  0  0  0  0  0  0  0  0
    3.3970    7.4610   10.2070 C   0  0  0  0  0  0  0  0  0  0  0  0
    2.0700    6.9830   10.2670 C   0  0  0  0  0  0  0  0  0  0  0  0
    1.0420    7.9100    9.9900 N   0  0  0  0  0  0  0  0  0  0  0  0
    0.8240    8.8160    8.9370 C   0  0  0  0  0  0  0  0  0  0  0  0
   -0.3420    9.5930    8.9500 C   0  0  0  0  0  0  0  0  0  0  0  0
   -0.5910   10.5440    7.9550 C   0  0  0  0  0  0  0  0  0  0  0  0
    0.3300   10.7330    6.9290 C   0  0  0  0  0  0  0  0  0  0  0  0
    1.4940    9.9690    6.8980 C   0  0  0  0  0  0  0  0  0  0  0  0
    1.7370    9.0200    7.8960 C   0  0  0  0  0  0  0  0  0  0  0  0
    1.8020    5.5860   10.5640 C   0  0  0  0  0  0  0  0  0  0  0  0
   -0.4933    2.9893   11.0076 H   0  0  0  0  0  0  0  0  0  0  0  0
    1.5864    1.6738   11.3413 H   0  0  0  0  0  0  0  0  0  0  0  0
    3.7840    2.8128   11.2021 H   0  0  0  0  0  0  0  0  0  0  0  0
    5.1186    4.6297   10.8685 H   0  0  0  0  0  0  0  0  0  0  0  0
    5.5077    7.0293   10.3779 H   0  0  0  0  0  0  0  0  0  0  0  0
    3.5725    8.5232    9.9812 H   0  0  0  0  0  0  0  0  0  0  0  0
    0.2720    7.8850   10.6770 H   0  0  0  0  0  0  0  0  0  0  0  0
   -1.0752    9.4524    9.7578 H   0  0  0  0  0  0  0  0  0  0  0  0
   -1.5139   11.1419    7.9835 H   0  0  0  0  0  0  0  0  0  0  0  0
    0.1396   11.4821    6.1464 H   0  0  0  0  0  0  0  0  0  0  0  0
    2.2234   10.1123    6.0872 H   0  0  0  0  0  0  0  0  0  0  0  0
    2.6609    8.4240    7.8623 H   0  0  0  0  0  0  0  0  0  0  0  0
  1  2  2  0
  2  3  2  0
  2  4  1  0
  2  5  1  0
  5  6  2  0
  6  7  1  0
  7  8  2  0
  8  9  1  0
  9 10  2  0
 10 11  1  0
 11 12  2  0
 12 13  1  0
 13 14  1  0
 14 15  1  0
 15 16  2  0
 16 17  1  0
 17 18  2  0
 18 19  1  0
 19 20  2  0
 13 21  2  0
 21  5  1  0
 21  9  1  0
 20 15  1  0
  6 22  1  0
  7 23  1  0
  8 24  1  0
 10 25  1  0
 11 26  1  0
 12 27  1  0
 14 28  1  0
 16 29  1  0
 17 30  1  0
 18 31  1  0
 19 32  1  0
 20 33  1  0
M  CHG  1   4  -1
M  END
>  <meeko>  (9) 
{"is_sidechain": [false], "free_energy": -7.886, "intermolecular_energy": -9.313, "internal_energy": -0.828}

$$$$
