4ea2_ligand
     RDKit          3D

 64 66  0  0  0  0  0  0  0  0999 V2000
   -4.5060   -3.5270   -1.1650 C   0  0  0  0  0  0  0  0  0  0  0  0
   -3.5330   -3.4960   -0.0180 C   0  0  0  0  0  0  0  0  0  0  0  0
   -2.7330   -4.7640    0.1460 C   0  0  0  0  0  0  0  0  0  0  0  0
   -3.3510   -2.4540    0.8170 C   0  0  0  0  0  0  0  0  0  0  0  0
   -4.0910   -1.1490    0.8100 C   0  0  0  0  0  0  0  0  0  0  0  0
   -4.3090   -0.5430    2.2050 C   0  0  0  0  0  0  0  0  0  0  0  0
   -3.0540   -0.0000    2.8740 C   0  0  0  0  0  0  0  0  0  0  0  0
   -2.7500    1.4510    2.5740 C   0  0  0  0  0  0  0  0  0  0  0  0
   -2.2580   -0.7040    3.7030 C   0  0  0  0  0  0  0  0  0  0  0  0
   -2.4080   -2.1340    4.0940 C   0  0  0  0  0  0  0  0  0  0  0  0
   -1.1640   -2.6760    4.7310 N   0  0  0  0  0  0  0  0  0  0  0  0
    0.1690   -2.3660    4.1090 C   0  0  0  0  0  0  0  0  0  0  0  0
    0.5200   -3.2600    2.8930 C   0  0  0  0  0  0  0  0  0  0  0  0
    1.0280   -2.5030    1.6920 N   0  0  0  0  0  0  0  0  0  0  0  0
    0.4260   -1.1430    1.4030 C   0  0  2  0  0  0  0  0  0  0  0  0
   -0.1220   -1.0630   -0.0400 C   0  0  1  0  0  0  0  0  0  0  0  0
   -0.8100    0.3090   -0.2050 C   0  0  0  0  0  0  0  0  0  0  0  0
    0.2060    1.4450    0.0220 C   0  0  2  0  0  0  0  0  0  0  0  0
    1.3400    1.3210   -1.0090 C   0  0  0  0  0  0  0  0  0  0  0  0
    2.0390   -0.0410   -0.8590 C   0  0  2  0  0  0  0  0  0  0  0  0
    1.0080   -1.1580   -1.0860 C   0  0  0  0  0  0  0  0  0  0  0  0
    2.6170   -0.1600    0.5610 C   0  0  0  0  0  0  0  0  0  0  0  0
    1.4920   -0.0410    1.6080 C   0  0  1  0  0  0  0  0  0  0  0  0
    0.8020    1.3270    1.4360 C   0  0  0  0  0  0  0  0  0  0  0  0
   -5.5334   -3.5597   -0.7735 H   0  0  0  0  0  0  0  0  0  0  0  0
   -4.3766   -2.6243   -1.7801 H   0  0  0  0  0  0  0  0  0  0  0  0
   -4.3194   -4.4197   -1.7801 H   0  0  0  0  0  0  0  0  0  0  0  0
   -2.5987   -4.9769    1.2168 H   0  0  0  0  0  0  0  0  0  0  0  0
   -3.2680   -5.5992   -0.3296 H   0  0  0  0  0  0  0  0  0  0  0  0
   -1.7488   -4.6407   -0.3296 H   0  0  0  0  0  0  0  0  0  0  0  0
   -2.5753   -2.5733    1.5877 H   0  0  0  0  0  0  0  0  0  0  0  0
   -3.5172   -0.4299    0.2070 H   0  0  0  0  0  0  0  0  0  0  0  0
   -5.0886   -1.3527    0.3936 H   0  0  0  0  0  0  0  0  0  0  0  0
   -5.0293    0.2829    2.1095 H   0  0  0  0  0  0  0  0  0  0  0  0
   -4.6674   -1.3635    2.8440 H   0  0  0  0  0  0  0  0  0  0  0  0
   -2.6341    2.0041    3.5178 H   0  0  0  0  0  0  0  0  0  0  0  0
   -1.8183    1.5179    1.9930 H   0  0  0  0  0  0  0  0  0  0  0  0
   -3.5765    1.8863    1.9930 H   0  0  0  0  0  0  0  0  0  0  0  0
   -1.4044   -0.1639    4.1385 H   0  0  0  0  0  0  0  0  0  0  0  0
   -3.2398   -2.2213    4.8085 H   0  0  0  0  0  0  0  0  0  0  0  0
   -2.6039   -2.7167    3.1818 H   0  0  0  0  0  0  0  0  0  0  0  0
   -1.2940   -3.6870    4.8900 H   0  0  0  0  0  0  0  0  0  0  0  0
   -1.1620   -2.2770    5.6850 H   0  0  0  0  0  0  0  0  0  0  0  0
    0.1601   -1.3175    3.7764 H   0  0  0  0  0  0  0  0  0  0  0  0
    0.9317   -2.5600    4.8775 H   0  0  0  0  0  0  0  0  0  0  0  0
    1.2966   -3.9745    3.2035 H   0  0  0  0  0  0  0  0  0  0  0  0
   -0.4142   -3.7514    2.5834 H   0  0  0  0  0  0  0  0  0  0  0  0
    1.0340   -3.0870    0.8410 H   0  0  0  0  0  0  0  0  0  0  0  0
    2.0370   -2.3400    1.8600 H   0  0  0  0  0  0  0  0  0  0  0  0
   -0.4107   -0.9904    2.1007 H   0  0  0  0  0  0  0  0  0  0  0  0
   -0.8155   -1.9016   -0.2008 H   0  0  0  0  0  0  0  0  0  0  0  0
   -1.2227    0.3885   -1.2215 H   0  0  0  0  0  0  0  0  0  0  0  0
   -1.6178    0.3967    0.5365 H   0  0  0  0  0  0  0  0  0  0  0  0
   -0.2992    2.4160   -0.0876 H   0  0  0  0  0  0  0  0  0  0  0  0
    0.9218    1.4064   -2.0228 H   0  0  0  0  0  0  0  0  0  0  0  0
    2.0724    2.1240   -0.8393 H   0  0  0  0  0  0  0  0  0  0  0  0
    2.8519   -0.1292   -1.5948 H   0  0  0  0  0  0  0  0  0  0  0  0
    0.5792   -1.0569   -2.0939 H   0  0  0  0  0  0  0  0  0  0  0  0
    1.5079   -2.1327   -0.9857 H   0  0  0  0  0  0  0  0  0  0  0  0
    3.1128   -1.1358    0.6704 H   0  0  0  0  0  0  0  0  0  0  0  0
    3.3424    0.6513    0.7213 H   0  0  0  0  0  0  0  0  0  0  0  0
    1.9335   -0.1470    2.6099 H   0  0  0  0  0  0  0  0  0  0  0  0
   -0.0030    1.4244    2.1793 H   0  0  0  0  0  0  0  0  0  0  0  0
    1.5446    2.1254    1.5814 H   0  0  0  0  0  0  0  0  0  0  0  0
  1  2  1  0
  2  3  1  0
  2  4  2  3
  4  5  1  0
  5  6  1  0
  6  7  1  0
  7  8  1  0
  7  9  2  0
  9 10  1  0
 10 11  1  0
 11 12  1  0
 12 13  1  0
 13 14  1  0
 14 15  1  0
 15 16  1  0
 16 17  1  0
 17 18  1  0
 18 19  1  0
 19 20  1  0
 20 21  1  0
 20 22  1  0
 22 23  1  0
 23 24  1  0
 23 15  1  0
 21 16  1  0
 24 18  1  0
  1 25  1  0
  1 26  1  0
  1 27  1  0
  3 28  1  0
  3 29  1  0
  3 30  1  0
  4 31  1  0
  5 32  1  0
  5 33  1  0
  6 34  1  0
  6 35  1  0
  8 36  1  0
  8 37  1  0
  8 38  1  0
  9 39  1  0
 10 40  1  0
 10 41  1  0
 11 42  1  0
 11 43  1  0
 12 44  1  0
 12 45  1  0
 13 46  1  0
 13 47  1  0
 14 48  1  0
 14 49  1  0
 15 50  1  6
 16 51  1  1
 17 52  1  0
 17 53  1  0
 18 54  1  6
 19 55  1  0
 19 56  1  0
 20 57  1  1
 21 58  1  0
 21 59  1  0
 22 60  1  0
 22 61  1  0
 23 62  1  6
 24 63  1  0
 24 64  1  0
M  CHG  2  11   1  14   1
M  END
>  <meeko>  (1) 
{"is_sidechain": [false], "free_energy": -7.419, "intermolecular_energy": -11.322, "internal_energy": -1.959}

$$$$
4ea2_ligand
     RDKit          3D

 64 66  0  0  0  0  0  0  0  0999 V2000
    2.1130    4.8600   -0.4050 C   0  0  0  0  0  0  0  0  0  0  0  0
    2.7600    3.7120   -1.1310 C   0  0  0  0  0  0  0  0  0  0  0  0
    4.0110    4.0870   -1.8850 C   0  0  0  0  0  0  0  0  0  0  0  0
    2.3070    2.4430   -1.1380 C   0  0  0  0  0  0  0  0  0  0  0  0
    1.0650    1.9230   -0.4750 C   0  0  0  0  0  0  0  0  0  0  0  0
    1.3260    0.8570    0.6000 C   0  0  0  0  0  0  0  0  0  0  0  0
    1.0000    1.2840    2.0230 C   0  0  0  0  0  0  0  0  0  0  0  0
    0.5010    2.7050    2.1620 C   0  0  0  0  0  0  0  0  0  0  0  0
    1.1010    0.4900    3.1080 C   0  0  0  0  0  0  0  0  0  0  0  0
    1.5800   -0.9200    3.1480 C   0  0  0  0  0  0  0  0  0  0  0  0
    0.8120   -1.7470    4.1330 N   0  0  0  0  0  0  0  0  0  0  0  0
    0.5590   -3.1970    3.8290 C   0  0  0  0  0  0  0  0  0  0  0  0
   -0.8620   -3.4890    3.2830 C   0  0  0  0  0  0  0  0  0  0  0  0
   -1.2390   -2.6760    2.0700 N   0  0  0  0  0  0  0  0  0  0  0  0
   -2.6850   -2.2480    1.9230 C   0  0  2  0  0  0  0  0  0  0  0  0
   -2.9400   -1.5770    0.5540 C   0  0  1  0  0  0  0  0  0  0  0  0
   -4.4510   -1.2780    0.4520 C   0  0  0  0  0  0  0  0  0  0  0  0
   -4.8810   -0.3210    1.5800 C   0  0  2  0  0  0  0  0  0  0  0  0
   -4.0950    0.9950    1.4530 C   0  0  0  0  0  0  0  0  0  0  0  0
   -2.5860    0.7160    1.5530 C   0  0  2  0  0  0  0  0  0  0  0  0
   -2.1790   -0.2410    0.4220 C   0  0  0  0  0  0  0  0  0  0  0  0
   -2.2800    0.0620    2.9120 C   0  0  0  0  0  0  0  0  0  0  0  0
   -3.0590   -1.2610    3.0540 C   0  0  1  0  0  0  0  0  0  0  0  0
   -4.5670   -0.9600    2.9450 C   0  0  0  0  0  0  0  0  0  0  0  0
    2.2010    4.7038    0.6803 H   0  0  0  0  0  0  0  0  0  0  0  0
    2.6149    5.7987   -0.6822 H   0  0  0  0  0  0  0  0  0  0  0  0
    1.0500    4.9168   -0.6822 H   0  0  0  0  0  0  0  0  0  0  0  0
    4.8119    4.3271   -1.1702 H   0  0  0  0  0  0  0  0  0  0  0  0
    4.3247    3.2434   -2.5174 H   0  0  0  0  0  0  0  0  0  0  0  0
    3.8089    4.9641   -2.5174 H   0  0  0  0  0  0  0  0  0  0  0  0
    2.9130    1.7088   -1.6892 H   0  0  0  0  0  0  0  0  0  0  0  0
    0.5455    2.7697   -0.0026 H   0  0  0  0  0  0  0  0  0  0  0  0
    0.4650    1.4404   -1.2605 H   0  0  0  0  0  0  0  0  0  0  0  0
    0.7149   -0.0257    0.3604 H   0  0  0  0  0  0  0  0  0  0  0  0
    2.4078    0.6588    0.5793 H   0  0  0  0  0  0  0  0  0  0  0  0
    0.4116    2.9596    3.2284 H   0  0  0  0  0  0  0  0  0  0  0  0
    1.2117    3.3920    1.6793 H   0  0  0  0  0  0  0  0  0  0  0  0
   -0.4832    2.7969    1.6793 H   0  0  0  0  0  0  0  0  0  0  0  0
    0.7965    0.9315    4.0684 H   0  0  0  0  0  0  0  0  0  0  0  0
    1.4653   -1.3623    2.1474 H   0  0  0  0  0  0  0  0  0  0  0  0
    2.6344   -0.9114    3.4614 H   0  0  0  0  0  0  0  0  0  0  0  0
   -0.0550   -1.2430    4.3750 H   0  0  0  0  0  0  0  0  0  0  0  0
    1.3690   -1.7050    5.0030 H   0  0  0  0  0  0  0  0  0  0  0  0
    1.2923   -3.5258    3.0779 H   0  0  0  0  0  0  0  0  0  0  0  0
    0.6524   -3.7421    4.7799 H   0  0  0  0  0  0  0  0  0  0  0  0
   -0.9158   -4.5543    3.0142 H   0  0  0  0  0  0  0  0  0  0  0  0
   -1.5688   -3.2133    4.0796 H   0  0  0  0  0  0  0  0  0  0  0  0
   -0.8960   -3.1050    1.1960 H   0  0  0  0  0  0  0  0  0  0  0  0
   -0.6860   -1.8030    2.1250 H   0  0  0  0  0  0  0  0  0  0  0  0
   -3.3108   -3.1503    1.9887 H   0  0  0  0  0  0  0  0  0  0  0  0
   -2.5928   -2.2539   -0.2405 H   0  0  0  0  0  0  0  0  0  0  0  0
   -4.6643   -0.8117   -0.5212 H   0  0  0  0  0  0  0  0  0  0  0  0
   -5.0107   -2.2201    0.5476 H   0  0  0  0  0  0  0  0  0  0  0  0
   -5.9605   -0.1248    1.5020 H   0  0  0  0  0  0  0  0  0  0  0  0
   -4.3163    1.4595    0.4807 H   0  0  0  0  0  0  0  0  0  0  0  0
   -4.3921    1.6738    2.2660 H   0  0  0  0  0  0  0  0  0  0  0  0
   -2.0238    1.6573    1.4640 H   0  0  0  0  0  0  0  0  0  0  0  0
   -2.4191    0.2196   -0.5476 H   0  0  0  0  0  0  0  0  0  0  0  0
   -1.0984   -0.4356    0.4882 H   0  0  0  0  0  0  0  0  0  0  0  0
   -1.2014   -0.1422    2.9823 H   0  0  0  0  0  0  0  0  0  0  0  0
   -2.5860    0.7467    3.7167 H   0  0  0  0  0  0  0  0  0  0  0  0
   -2.8078   -1.7122    4.0252 H   0  0  0  0  0  0  0  0  0  0  0  0
   -5.1335   -1.8974    3.0470 H   0  0  0  0  0  0  0  0  0  0  0  0
   -4.8536   -0.2610    3.7445 H   0  0  0  0  0  0  0  0  0  0  0  0
  1  2  1  0
  2  3  1  0
  2  4  2  3
  4  5  1  0
  5  6  1  0
  6  7  1  0
  7  8  1  0
  7  9  2  0
  9 10  1  0
 10 11  1  0
 11 12  1  0
 12 13  1  0
 13 14  1  0
 14 15  1  0
 15 16  1  0
 16 17  1  0
 17 18  1  0
 18 19  1  0
 19 20  1  0
 20 21  1  0
 20 22  1  0
 22 23  1  0
 23 24  1  0
 23 15  1  0
 21 16  1  0
 24 18  1  0
  1 25  1  0
  1 26  1  0
  1 27  1  0
  3 28  1  0
  3 29  1  0
  3 30  1  0
  4 31  1  0
  5 32  1  0
  5 33  1  0
  6 34  1  0
  6 35  1  0
  8 36  1  0
  8 37  1  0
  8 38  1  0
  9 39  1  0
 10 40  1  0
 10 41  1  0
 11 42  1  0
 11 43  1  0
 12 44  1  0
 12 45  1  0
 13 46  1  0
 13 47  1  0
 14 48  1  0
 14 49  1  0
 15 50  1  6
 16 51  1  1
 17 52  1  0
 17 53  1  0
 18 54  1  6
 19 55  1  0
 19 56  1  0
 20 57  1  1
 21 58  1  0
 21 59  1  0
 22 60  1  0
 22 61  1  0
 23 62  1  6
 24 63  1  0
 24 64  1  0
M  CHG  2  11   1  14   1
M  END
>  <meeko>  (2) 
{"is_sidechain": [false], "free_energy": -7.381, "intermolecular_energy": -11.456, "internal_energy": -1.767}

$$$$
4ea2_ligand
     RDKit          3D

 64 66  0  0  0  0  0  0  0  0999 V2000
    4.8860    4.2560   -0.7120 C   0  0  0  0  0  0  0  0  0  0  0  0
    3.4820    4.7730   -0.8640 C   0  0  0  0  0  0  0  0  0  0  0  0
    3.3890    6.2720   -1.0050 C   0  0  0  0  0  0  0  0  0  0  0  0
    2.3710    4.0100   -0.8830 C   0  0  0  0  0  0  0  0  0  0  0  0
    2.2940    2.5210   -0.7160 C   0  0  0  0  0  0  0  0  0  0  0  0
    0.9660    2.0230   -0.1260 C   0  0  0  0  0  0  0  0  0  0  0  0
    1.0320    1.5830    1.3300 C   0  0  0  0  0  0  0  0  0  0  0  0
    0.4750    2.5800    2.3210 C   0  0  0  0  0  0  0  0  0  0  0  0
    1.5100    0.3960    1.7540 C   0  0  0  0  0  0  0  0  0  0  0  0
    2.0980   -0.6880    0.9180 C   0  0  0  0  0  0  0  0  0  0  0  0
    1.3710   -1.9860    1.0870 N   0  0  0  0  0  0  0  0  0  0  0  0
    1.0070   -2.4440    2.4720 C   0  0  0  0  0  0  0  0  0  0  0  0
   -0.2850   -3.2960    2.5360 C   0  0  0  0  0  0  0  0  0  0  0  0
   -1.4860   -2.5640    3.0810 N   0  0  0  0  0  0  0  0  0  0  0  0
   -1.6860   -1.1210    2.6650 C   0  0  2  0  0  0  0  0  0  0  0  0
   -2.7430   -0.4210    3.5490 C   0  0  1  0  0  0  0  0  0  0  0  0
   -2.7980    1.0630    3.1280 C   0  0  0  0  0  0  0  0  0  0  0  0
   -3.2080    1.1820    1.6480 C   0  0  2  0  0  0  0  0  0  0  0  0
   -4.5970    0.5500    1.4570 C   0  0  0  0  0  0  0  0  0  0  0  0
   -4.5620   -0.9310    1.8720 C   0  0  2  0  0  0  0  0  0  0  0  0
   -4.1480   -1.0260    3.3490 C   0  0  0  0  0  0  0  0  0  0  0  0
   -3.5330   -1.6760    1.0040 C   0  0  0  0  0  0  0  0  0  0  0  0
   -2.1330   -1.0560    1.1860 C   0  0  1  0  0  0  0  0  0  0  0  0
   -2.1920    0.4280    0.7710 C   0  0  0  0  0  0  0  0  0  0  0  0
    5.1299    4.1662    0.3568 H   0  0  0  0  0  0  0  0  0  0  0  0
    4.9671    3.2690   -1.1908 H   0  0  0  0  0  0  0  0  0  0  0  0
    5.5879    4.9547   -1.1908 H   0  0  0  0  0  0  0  0  0  0  0  0
    3.3604    6.7331   -0.0067 H   0  0  0  0  0  0  0  0  0  0  0  0
    4.2658    6.6436   -1.5555 H   0  0  0  0  0  0  0  0  0  0  0  0
    2.4730    6.5324   -1.5555 H   0  0  0  0  0  0  0  0  0  0  0  0
    1.4174    4.5361   -1.0377 H   0  0  0  0  0  0  0  0  0  0  0  0
    2.4293    2.0554   -1.7034 H   0  0  0  0  0  0  0  0  0  0  0  0
    3.0826    2.2411   -0.0020 H   0  0  0  0  0  0  0  0  0  0  0  0
    0.2317    2.8384   -0.2028 H   0  0  0  0  0  0  0  0  0  0  0  0
    0.6894    1.1292   -0.7044 H   0  0  0  0  0  0  0  0  0  0  0  0
    0.6714    2.2284    3.3446 H   0  0  0  0  0  0  0  0  0  0  0  0
    0.9583    3.5565    2.1697 H   0  0  0  0  0  0  0  0  0  0  0  0
   -0.6099    2.6804    2.1697 H   0  0  0  0  0  0  0  0  0  0  0  0
    1.4605    0.2069    2.8365 H   0  0  0  0  0  0  0  0  0  0  0  0
    2.0473   -0.3879   -0.1391 H   0  0  0  0  0  0  0  0  0  0  0  0
    3.1389   -0.8380    1.2405 H   0  0  0  0  0  0  0  0  0  0  0  0
    1.8750   -2.7130    0.5570 H   0  0  0  0  0  0  0  0  0  0  0  0
    0.4900   -1.8650    0.5590 H   0  0  0  0  0  0  0  0  0  0  0  0
    1.8384   -3.0467    2.8664 H   0  0  0  0  0  0  0  0  0  0  0  0
    0.8200   -1.5381    3.0673 H   0  0  0  0  0  0  0  0  0  0  0  0
   -0.5229   -3.6377    1.5179 H   0  0  0  0  0  0  0  0  0  0  0  0
   -0.0809   -4.1254    3.2291 H   0  0  0  0  0  0  0  0  0  0  0  0
   -1.5660   -2.6630    4.1050 H   0  0  0  0  0  0  0  0  0  0  0  0
   -2.3160   -3.0790    2.7380 H   0  0  0  0  0  0  0  0  0  0  0  0
   -0.7260   -0.5987    2.7904 H   0  0  0  0  0  0  0  0  0  0  0  0
   -2.4588   -0.5470    4.6042 H   0  0  0  0  0  0  0  0  0  0  0  0
   -3.5341    1.5906    3.7524 H   0  0  0  0  0  0  0  0  0  0  0  0
   -1.8021    1.5107    3.2614 H   0  0  0  0  0  0  0  0  0  0  0  0
   -3.2329    2.2429    1.3584 H   0  0  0  0  0  0  0  0  0  0  0  0
   -5.3296    1.0854    2.0788 H   0  0  0  0  0  0  0  0  0  0  0  0
   -4.8841    0.6217    0.3975 H   0  0  0  0  0  0  0  0  0  0  0  0
   -5.5553   -1.3831    1.7340 H   0  0  0  0  0  0  0  0  0  0  0  0
   -4.8725   -0.4737    3.9656 H   0  0  0  0  0  0  0  0  0  0  0  0
   -4.1289   -2.0842    3.6488 H   0  0  0  0  0  0  0  0  0  0  0  0
   -3.5034   -2.7340    1.3035 H   0  0  0  0  0  0  0  0  0  0  0  0
   -3.8276   -1.5924   -0.0525 H   0  0  0  0  0  0  0  0  0  0  0  0
   -1.4188   -1.6192    0.5674 H   0  0  0  0  0  0  0  0  0  0  0  0
   -1.1972    0.8806    0.8956 H   0  0  0  0  0  0  0  0  0  0  0  0
   -2.5045    0.4956   -0.2815 H   0  0  0  0  0  0  0  0  0  0  0  0
  1  2  1  0
  2  3  1  0
  2  4  2  3
  4  5  1  0
  5  6  1  0
  6  7  1  0
  7  8  1  0
  7  9  2  0
  9 10  1  0
 10 11  1  0
 11 12  1  0
 12 13  1  0
 13 14  1  0
 14 15  1  0
 15 16  1  0
 16 17  1  0
 17 18  1  0
 18 19  1  0
 19 20  1  0
 20 21  1  0
 20 22  1  0
 22 23  1  0
 23 24  1  0
 23 15  1  0
 21 16  1  0
 24 18  1  0
  1 25  1  0
  1 26  1  0
  1 27  1  0
  3 28  1  0
  3 29  1  0
  3 30  1  0
  4 31  1  0
  5 32  1  0
  5 33  1  0
  6 34  1  0
  6 35  1  0
  8 36  1  0
  8 37  1  0
  8 38  1  0
  9 39  1  0
 10 40  1  0
 10 41  1  0
 11 42  1  0
 11 43  1  0
 12 44  1  0
 12 45  1  0
 13 46  1  0
 13 47  1  0
 14 48  1  0
 14 49  1  0
 15 50  1  1
 16 51  1  6
 17 52  1  0
 17 53  1  0
 18 54  1  1
 19 55  1  0
 19 56  1  0
 20 57  1  6
 21 58  1  0
 21 59  1  0
 22 60  1  0
 22 61  1  0
 23 62  1  1
 24 63  1  0
 24 64  1  0
M  CHG  2  11   1  14   1
M  END
>  <meeko>  (3) 
{"is_sidechain": [false], "free_energy": -7.25, "intermolecular_energy": -11.448, "internal_energy": -1.576}

$$$$
4ea2_ligand
     RDKit          3D

 64 66  0  0  0  0  0  0  0  0999 V2000
   -4.9190    0.6230    0.9940 C   0  0  0  0  0  0  0  0  0  0  0  0
   -4.2190   -0.4430    1.7930 C   0  0  0  0  0  0  0  0  0  0  0  0
   -3.8870   -0.0360    3.2060 C   0  0  0  0  0  0  0  0  0  0  0  0
   -3.8970   -1.6690    1.3360 C   0  0  0  0  0  0  0  0  0  0  0  0
   -4.1210   -2.2080   -0.0460 C   0  0  0  0  0  0  0  0  0  0  0  0
   -3.1220   -3.2970   -0.4660 C   0  0  0  0  0  0  0  0  0  0  0  0
   -3.4910   -4.7090   -0.0370 C   0  0  0  0  0  0  0  0  0  0  0  0
   -4.7290   -5.2720   -0.7000 C   0  0  0  0  0  0  0  0  0  0  0  0
   -2.7890   -5.4570    0.8380 C   0  0  0  0  0  0  0  0  0  0  0  0
   -1.5620   -5.0550    1.5810 C   0  0  0  0  0  0  0  0  0  0  0  0
   -1.8870   -4.4040    2.8920 N   0  0  0  0  0  0  0  0  0  0  0  0
   -1.1190   -3.1810    3.3090 C   0  0  0  0  0  0  0  0  0  0  0  0
    0.4150   -3.3060    3.1270 C   0  0  0  0  0  0  0  0  0  0  0  0
    0.9710   -2.5040    1.9780 N   0  0  0  0  0  0  0  0  0  0  0  0
    0.3310   -1.1650    1.6710 C   0  0  2  0  0  0  0  0  0  0  0  0
   -0.2550   -1.1320    0.2420 C   0  0  1  0  0  0  0  0  0  0  0  0
   -0.9780    0.2200    0.0620 C   0  0  0  0  0  0  0  0  0  0  0  0
    0.0180    1.3830    0.2340 C   0  0  2  0  0  0  0  0  0  0  0  0
    1.1280    1.2570   -0.8230 C   0  0  0  0  0  0  0  0  0  0  0  0
    1.8600   -0.0860   -0.6590 C   0  0  2  0  0  0  0  0  0  0  0  0
    0.8490   -1.2300   -0.8310 C   0  0  0  0  0  0  0  0  0  0  0  0
    2.4780   -0.1570    0.7490 C   0  0  0  0  0  0  0  0  0  0  0  0
    1.3770   -0.0360    1.8210 C   0  0  1  0  0  0  0  0  0  0  0  0
    0.6530    1.3130    1.6350 C   0  0  0  0  0  0  0  0  0  0  0  0
   -5.3918    1.3430    1.6782 H   0  0  0  0  0  0  0  0  0  0  0  0
   -4.1877    1.1456    0.3599 H   0  0  0  0  0  0  0  0  0  0  0  0
   -5.6892    0.1596    0.3599 H   0  0  0  0  0  0  0  0  0  0  0  0
   -4.4207   -0.6903    3.9110 H   0  0  0  0  0  0  0  0  0  0  0  0
   -2.8031   -0.1281    3.3690 H   0  0  0  0  0  0  0  0  0  0  0  0
   -4.1950    1.0073    3.3690 H   0  0  0  0  0  0  0  0  0  0  0  0
   -3.4173   -2.3492    2.0551 H   0  0  0  0  0  0  0  0  0  0  0  0
   -5.1344   -2.6336   -0.0904 H   0  0  0  0  0  0  0  0  0  0  0  0
   -3.9819   -1.3662   -0.7403 H   0  0  0  0  0  0  0  0  0  0  0  0
   -3.0438   -3.2833   -1.5631 H   0  0  0  0  0  0  0  0  0  0  0  0
   -2.1762   -3.0588    0.0427 H   0  0  0  0  0  0  0  0  0  0  0  0
   -5.4427   -5.5966    0.0715 H   0  0  0  0  0  0  0  0  0  0  0  0
   -5.1940   -4.4968   -1.3268 H   0  0  0  0  0  0  0  0  0  0  0  0
   -4.4504   -6.1319   -1.3268 H   0  0  0  0  0  0  0  0  0  0  0  0
   -3.1630   -6.4747    1.0234 H   0  0  0  0  0  0  0  0  0  0  0  0
   -0.9523   -5.9507    1.7708 H   0  0  0  0  0  0  0  0  0  0  0  0
   -1.0160   -4.3250    0.9654 H   0  0  0  0  0  0  0  0  0  0  0  0
   -1.8890   -5.1320    3.6230 H   0  0  0  0  0  0  0  0  0  0  0  0
   -2.8810   -4.1350    2.8110 H   0  0  0  0  0  0  0  0  0  0  0  0
   -1.4703   -2.3302    2.7068 H   0  0  0  0  0  0  0  0  0  0  0  0
   -1.3011   -3.0430    4.3850 H   0  0  0  0  0  0  0  0  0  0  0  0
    0.9007   -2.9639    4.0528 H   0  0  0  0  0  0  0  0  0  0  0  0
    0.6203   -4.3629    2.9018 H   0  0  0  0  0  0  0  0  0  0  0  0
    1.0600   -3.0690    1.1190 H   0  0  0  0  0  0  0  0  0  0  0  0
    1.9570   -2.3020    2.2180 H   0  0  0  0  0  0  0  0  0  0  0  0
   -0.4913   -1.0140    2.3859 H   0  0  0  0  0  0  0  0  0  0  0  0
   -0.9339   -1.9889    0.1197 H   0  0  0  0  0  0  0  0  0  0  0  0
   -1.4189    0.2651   -0.9448 H   0  0  0  0  0  0  0  0  0  0  0  0
   -1.7680    0.3086    0.8222 H   0  0  0  0  0  0  0  0  0  0  0  0
   -0.5110    2.3399    0.1137 H   0  0  0  0  0  0  0  0  0  0  0  0
    0.6823    1.3088   -1.8273 H   0  0  0  0  0  0  0  0  0  0  0  0
    1.8472    2.0789   -0.6914 H   0  0  0  0  0  0  0  0  0  0  0  0
    2.6547   -0.1753   -1.4143 H   0  0  0  0  0  0  0  0  0  0  0  0
    0.3920   -1.1639   -1.8294 H   0  0  0  0  0  0  0  0  0  0  0  0
    1.3726   -2.1910   -0.7202 H   0  0  0  0  0  0  0  0  0  0  0  0
    2.9980   -1.1188    0.8694 H   0  0  0  0  0  0  0  0  0  0  0  0
    3.1897    0.6729    0.8706 H   0  0  0  0  0  0  0  0  0  0  0  0
    1.8461   -0.1078    2.8134 H   0  0  0  0  0  0  0  0  0  0  0  0
   -0.1343    1.4116    2.3968 H   0  0  0  0  0  0  0  0  0  0  0  0
    1.3811    2.1305    1.7419 H   0  0  0  0  0  0  0  0  0  0  0  0
  1  2  1  0
  2  3  1  0
  2  4  2  3
  4  5  1  0
  5  6  1  0
  6  7  1  0
  7  8  1  0
  7  9  2  0
  9 10  1  0
 10 11  1  0
 11 12  1  0
 12 13  1  0
 13 14  1  0
 14 15  1  0
 15 16  1  0
 16 17  1  0
 17 18  1  0
 18 19  1  0
 19 20  1  0
 20 21  1  0
 20 22  1  0
 22 23  1  0
 23 24  1  0
 23 15  1  0
 21 16  1  0
 24 18  1  0
  1 25  1  0
  1 26  1  0
  1 27  1  0
  3 28  1  0
  3 29  1  0
  3 30  1  0
  4 31  1  0
  5 32  1  0
  5 33  1  0
  6 34  1  0
  6 35  1  0
  8 36  1  0
  8 37  1  0
  8 38  1  0
  9 39  1  0
 10 40  1  0
 10 41  1  0
 11 42  1  0
 11 43  1  0
 12 44  1  0
 12 45  1  0
 13 46  1  0
 13 47  1  0
 14 48  1  0
 14 49  1  0
 15 50  1  6
 16 51  1  6
 17 52  1  0
 17 53  1  0
 18 54  1  1
 19 55  1  0
 19 56  1  0
 20 57  1  1
 21 58  1  0
 21 59  1  0
 22 60  1  0
 22 61  1  0
 23 62  1  6
 24 63  1  0
 24 64  1  0
M  CHG  2  11   1  14   1
M  END
>  <meeko>  (4) 
{"is_sidechain": [false], "free_energy": -7.09, "intermolecular_energy": -10.921, "internal_energy": -1.858}

$$$$
4ea2_ligand
     RDKit          3D

 64 66  0  0  0  0  0  0  0  0999 V2000
   -3.1080   -4.7910    0.0180 C   0  0  0  0  0  0  0  0  0  0  0  0
   -4.2060   -4.1180   -0.7600 C   0  0  0  0  0  0  0  0  0  0  0  0
   -5.0460   -5.0630   -1.5820 C   0  0  0  0  0  0  0  0  0  0  0  0
   -4.4610   -2.7950   -0.7570 C   0  0  0  0  0  0  0  0  0  0  0  0
   -3.6970   -1.7280   -0.0300 C   0  0  0  0  0  0  0  0  0  0  0  0
   -4.1250   -1.5360    1.4330 C   0  0  0  0  0  0  0  0  0  0  0  0
   -4.0550   -0.1030    1.9420 C   0  0  0  0  0  0  0  0  0  0  0  0
   -4.5540    0.9420    0.9700 C   0  0  0  0  0  0  0  0  0  0  0  0
   -3.6200    0.2590    3.1660 C   0  0  0  0  0  0  0  0  0  0  0  0
   -3.0900   -0.6360    4.2330 C   0  0  0  0  0  0  0  0  0  0  0  0
   -1.6960   -1.1000    3.9360 N   0  0  0  0  0  0  0  0  0  0  0  0
   -1.4110   -2.5750    3.8960 C   0  0  0  0  0  0  0  0  0  0  0  0
   -0.4840   -3.0060    2.7310 C   0  0  0  0  0  0  0  0  0  0  0  0
   -0.7030   -2.2450    1.4490 N   0  0  0  0  0  0  0  0  0  0  0  0
    0.5090   -1.6570    0.7550 C   0  0  2  0  0  0  0  0  0  0  0  0
    1.2580   -0.6640    1.6730 C   0  0  1  0  0  0  0  0  0  0  0  0
    2.5310   -0.2060    0.9280 C   0  0  0  0  0  0  0  0  0  0  0  0
    2.1520    0.4980   -0.3890 C   0  0  2  0  0  0  0  0  0  0  0  0
    1.2810    1.7260   -0.0720 C   0  0  0  0  0  0  0  0  0  0  0  0
    0.0070    1.2880    0.6700 C   0  0  2  0  0  0  0  0  0  0  0  0
    0.4070    0.5860    1.9770 C   0  0  0  0  0  0  0  0  0  0  0  0
   -0.7830    0.3080   -0.2150 C   0  0  0  0  0  0  0  0  0  0  0  0
    0.0750   -0.9300   -0.5380 C   0  0  1  0  0  0  0  0  0  0  0  0
    1.3480   -0.4690   -1.2760 C   0  0  0  0  0  0  0  0  0  0  0  0
   -3.2976   -4.6748    1.0953 H   0  0  0  0  0  0  0  0  0  0  0  0
   -3.0812   -5.8609   -0.2362 H   0  0  0  0  0  0  0  0  0  0  0  0
   -2.1425   -4.3294   -0.2362 H   0  0  0  0  0  0  0  0  0  0  0  0
   -5.6258   -5.7153   -0.9124 H   0  0  0  0  0  0  0  0  0  0  0  0
   -5.7337   -4.4848   -2.2166 H   0  0  0  0  0  0  0  0  0  0  0  0
   -4.3912   -5.6782   -2.2166 H   0  0  0  0  0  0  0  0  0  0  0  0
   -5.3234   -2.4608   -1.3525 H   0  0  0  0  0  0  0  0  0  0  0  0
   -2.6302   -1.9957   -0.0455 H   0  0  0  0  0  0  0  0  0  0  0  0
   -3.9049   -0.7802   -0.5482 H   0  0  0  0  0  0  0  0  0  0  0  0
   -5.1641   -1.8830    1.5327 H   0  0  0  0  0  0  0  0  0  0  0  0
   -3.4113   -2.1126    2.0398 H   0  0  0  0  0  0  0  0  0  0  0  0
   -4.9623    1.7971    1.5286 H   0  0  0  0  0  0  0  0  0  0  0  0
   -3.7209    1.2816    0.3371 H   0  0  0  0  0  0  0  0  0  0  0  0
   -5.3418    0.5076    0.3371 H   0  0  0  0  0  0  0  0  0  0  0  0
   -3.6609    1.3325    3.4027 H   0  0  0  0  0  0  0  0  0  0  0  0
   -3.0862   -0.0879    5.1867 H   0  0  0  0  0  0  0  0  0  0  0  0
   -3.7390   -1.5226    4.2860 H   0  0  0  0  0  0  0  0  0  0  0  0
   -1.0470   -0.5950    4.5590 H   0  0  0  0  0  0  0  0  0  0  0  0
   -1.4860   -0.7160    3.0000 H   0  0  0  0  0  0  0  0  0  0  0  0
   -0.9312   -2.8605    4.8438 H   0  0  0  0  0  0  0  0  0  0  0  0
   -2.3749   -3.0815    3.7401 H   0  0  0  0  0  0  0  0  0  0  0  0
    0.5588   -2.8554    3.0470 H   0  0  0  0  0  0  0  0  0  0  0  0
   -0.7182   -4.0590    2.5157 H   0  0  0  0  0  0  0  0  0  0  0  0
   -1.4480   -1.5370    1.5420 H   0  0  0  0  0  0  0  0  0  0  0  0
   -1.1160   -2.9190    0.7810 H   0  0  0  0  0  0  0  0  0  0  0  0
    1.1901   -2.4850    0.5091 H   0  0  0  0  0  0  0  0  0  0  0  0
    1.4874   -1.1667    2.6242 H   0  0  0  0  0  0  0  0  0  0  0  0
    3.0932    0.4928    1.5649 H   0  0  0  0  0  0  0  0  0  0  0  0
    3.1497   -1.0864    0.6995 H   0  0  0  0  0  0  0  0  0  0  0  0
    3.0665    0.8097   -0.9148 H   0  0  0  0  0  0  0  0  0  0  0  0
    1.8500    2.4230    0.5608 H   0  0  0  0  0  0  0  0  0  0  0  0
    0.9993    2.2222   -1.0125 H   0  0  0  0  0  0  0  0  0  0  0  0
   -0.6170    2.1656    0.8945 H   0  0  0  0  0  0  0  0  0  0  0  0
    0.9913    1.2808    2.5982 H   0  0  0  0  0  0  0  0  0  0  0  0
   -0.5037    0.2782    2.5117 H   0  0  0  0  0  0  0  0  0  0  0  0
   -1.6923   -0.0091    0.3166 H   0  0  0  0  0  0  0  0  0  0  0  0
   -1.0529    0.8119   -1.1548 H   0  0  0  0  0  0  0  0  0  0  0  0
   -0.5223   -1.6173   -1.1551 H   0  0  0  0  0  0  0  0  0  0  0  0
    1.9683   -1.3457   -1.5139 H   0  0  0  0  0  0  0  0  0  0  0  0
    1.0596    0.0479   -2.2032 H   0  0  0  0  0  0  0  0  0  0  0  0
  1  2  1  0
  2  3  1  0
  2  4  2  3
  4  5  1  0
  5  6  1  0
  6  7  1  0
  7  8  1  0
  7  9  2  0
  9 10  1  0
 10 11  1  0
 11 12  1  0
 12 13  1  0
 13 14  1  0
 14 15  1  0
 15 16  1  0
 16 17  1  0
 17 18  1  0
 18 19  1  0
 19 20  1  0
 20 21  1  0
 20 22  1  0
 22 23  1  0
 23 24  1  0
 23 15  1  0
 21 16  1  0
 24 18  1  0
  1 25  1  0
  1 26  1  0
  1 27  1  0
  3 28  1  0
  3 29  1  0
  3 30  1  0
  4 31  1  0
  5 32  1  0
  5 33  1  0
  6 34  1  0
  6 35  1  0
  8 36  1  0
  8 37  1  0
  8 38  1  0
  9 39  1  0
 10 40  1  0
 10 41  1  0
 11 42  1  0
 11 43  1  0
 12 44  1  0
 12 45  1  0
 13 46  1  0
 13 47  1  0
 14 48  1  0
 14 49  1  0
 15 50  1  1
 16 51  1  6
 17 52  1  0
 17 53  1  0
 18 54  1  1
 19 55  1  0
 19 56  1  0
 20 57  1  6
 21 58  1  0
 21 59  1  0
 22 60  1  0
 22 61  1  0
 23 62  1  1
 24 63  1  0
 24 64  1  0
M  CHG  2  11   1  14   1
M  END
>  <meeko>  (5) 
{"is_sidechain": [false], "free_energy": -7.064, "intermolecular_energy": -11.132, "internal_energy": -1.608}

$$$$
4ea2_ligand
     RDKit          3D

 64 66  0  0  0  0  0  0  0  0999 V2000
    6.2520    7.0800   -0.2710 C   0  0  0  0  0  0  0  0  0  0  0  0
    5.1900    7.0030   -1.3340 C   0  0  0  0  0  0  0  0  0  0  0  0
    4.9780    8.2930   -2.0870 C   0  0  0  0  0  0  0  0  0  0  0  0
    4.4660    5.9060   -1.6310 C   0  0  0  0  0  0  0  0  0  0  0  0
    4.5300    4.5700   -0.9520 C   0  0  0  0  0  0  0  0  0  0  0  0
    3.5800    3.5180   -1.5460 C   0  0  0  0  0  0  0  0  0  0  0  0
    2.2360    3.3940   -0.8450 C   0  0  0  0  0  0  0  0  0  0  0  0
    1.7650    4.6500   -0.1460 C   0  0  0  0  0  0  0  0  0  0  0  0
    1.4680    2.2860   -0.8410 C   0  0  0  0  0  0  0  0  0  0  0  0
    1.7830    0.9720   -1.4680 C   0  0  0  0  0  0  0  0  0  0  0  0
    1.4230   -0.1770   -0.5760 N   0  0  0  0  0  0  0  0  0  0  0  0
    2.2200   -0.4050    0.6780 C   0  0  0  0  0  0  0  0  0  0  0  0
    1.3780   -0.3600    1.9780 C   0  0  0  0  0  0  0  0  0  0  0  0
    0.0120    0.2560    1.8110 N   0  0  0  0  0  0  0  0  0  0  0  0
   -1.1190   -0.2800    2.6660 C   0  0  2  0  0  0  0  0  0  0  0  0
   -1.8740   -1.4240    1.9510 C   0  0  1  0  0  0  0  0  0  0  0  0
   -2.9270   -1.9770    2.9350 C   0  0  0  0  0  0  0  0  0  0  0  0
   -3.9240   -0.8700    3.3260 C   0  0  2  0  0  0  0  0  0  0  0  0
   -4.6330   -0.3590    2.0610 C   0  0  0  0  0  0  0  0  0  0  0  0
   -3.5990    0.1970    1.0670 C   0  0  2  0  0  0  0  0  0  0  0  0
   -2.6140   -0.9220    0.6940 C   0  0  0  0  0  0  0  0  0  0  0  0
   -2.8310    1.3540    1.7310 C   0  0  0  0  0  0  0  0  0  0  0  0
   -2.1110    0.8570    3.0000 C   0  0  1  0  0  0  0  0  0  0  0  0
   -3.1640    0.2990    3.9780 C   0  0  0  0  0  0  0  0  0  0  0  0
    5.7800    7.0458    0.7220 H   0  0  0  0  0  0  0  0  0  0  0  0
    6.9412    6.2295   -0.3789 H   0  0  0  0  0  0  0  0  0  0  0  0
    6.8113    8.0211   -0.3789 H   0  0  0  0  0  0  0  0  0  0  0  0
    4.8425    9.1173   -1.3713 H   0  0  0  0  0  0  0  0  0  0  0  0
    5.8547    8.4968   -2.7193 H   0  0  0  0  0  0  0  0  0  0  0  0
    4.0822    8.2055   -2.7193 H   0  0  0  0  0  0  0  0  0  0  0  0
    3.7506    6.0004   -2.4612 H   0  0  0  0  0  0  0  0  0  0  0  0
    5.5593    4.1906   -1.0325 H   0  0  0  0  0  0  0  0  0  0  0  0
    4.2159    4.7285    0.0902 H   0  0  0  0  0  0  0  0  0  0  0  0
    3.3930    3.7825   -2.5972 H   0  0  0  0  0  0  0  0  0  0  0  0
    4.0815    2.5469   -1.4214 H   0  0  0  0  0  0  0  0  0  0  0  0
    1.8191    4.5057    0.9432 H   0  0  0  0  0  0  0  0  0  0  0  0
    2.4076    5.4942   -0.4364 H   0  0  0  0  0  0  0  0  0  0  0  0
    0.7257    4.8635   -0.4364 H   0  0  0  0  0  0  0  0  0  0  0  0
    0.5034    2.3604   -0.3176 H   0  0  0  0  0  0  0  0  0  0  0  0
    1.2182    0.8825   -2.4077 H   0  0  0  0  0  0  0  0  0  0  0  0
    2.8672    0.9338   -1.6499 H   0  0  0  0  0  0  0  0  0  0  0  0
    1.3550   -1.0280   -1.1550 H   0  0  0  0  0  0  0  0  0  0  0  0
    0.4460    0.0060   -0.2940 H   0  0  0  0  0  0  0  0  0  0  0  0
    2.6973   -1.3937    0.6093 H   0  0  0  0  0  0  0  0  0  0  0  0
    2.9504    0.4149    0.7439 H   0  0  0  0  0  0  0  0  0  0  0  0
    1.2493   -1.3904    2.3410 H   0  0  0  0  0  0  0  0  0  0  0  0
    1.9267    0.2774    2.6870 H   0  0  0  0  0  0  0  0  0  0  0  0
   -0.2720    0.3030    0.8200 H   0  0  0  0  0  0  0  0  0  0  0  0
    0.1140    1.2550    2.0640 H   0  0  0  0  0  0  0  0  0  0  0  0
   -0.6800   -0.6792    3.5922 H   0  0  0  0  0  0  0  0  0  0  0  0
   -1.1458   -2.1886    1.6427 H   0  0  0  0  0  0  0  0  0  0  0  0
   -3.4720   -2.8042    2.4567 H   0  0  0  0  0  0  0  0  0  0  0  0
   -2.4172   -2.3367    3.8409 H   0  0  0  0  0  0  0  0  0  0  0  0
   -4.6617   -1.2748    4.0345 H   0  0  0  0  0  0  0  0  0  0  0  0
   -5.1814   -1.1884    1.5905 H   0  0  0  0  0  0  0  0  0  0  0  0
   -5.3342    0.4418    2.3385 H   0  0  0  0  0  0  0  0  0  0  0  0
   -4.1060    0.5633    0.1621 H   0  0  0  0  0  0  0  0  0  0  0  0
   -3.1682   -1.7574    0.2412 H   0  0  0  0  0  0  0  0  0  0  0  0
   -1.8775   -0.5270   -0.0213 H   0  0  0  0  0  0  0  0  0  0  0  0
   -2.0878    1.7501    1.0233 H   0  0  0  0  0  0  0  0  0  0  0  0
   -3.5436    2.1444    2.0093 H   0  0  0  0  0  0  0  0  0  0  0  0
   -1.5583    1.7000    3.4404 H   0  0  0  0  0  0  0  0  0  0  0  0
   -2.6615   -0.0569    4.8895 H   0  0  0  0  0  0  0  0  0  0  0  0
   -3.8783    1.0962    4.2315 H   0  0  0  0  0  0  0  0  0  0  0  0
  1  2  1  0
  2  3  1  0
  2  4  2  3
  4  5  1  0
  5  6  1  0
  6  7  1  0
  7  8  1  0
  7  9  2  0
  9 10  1  0
 10 11  1  0
 11 12  1  0
 12 13  1  0
 13 14  1  0
 14 15  1  0
 15 16  1  0
 16 17  1  0
 17 18  1  0
 18 19  1  0
 19 20  1  0
 20 21  1  0
 20 22  1  0
 22 23  1  0
 23 24  1  0
 23 15  1  0
 21 16  1  0
 24 18  1  0
  1 25  1  0
  1 26  1  0
  1 27  1  0
  3 28  1  0
  3 29  1  0
  3 30  1  0
  4 31  1  0
  5 32  1  0
  5 33  1  0
  6 34  1  0
  6 35  1  0
  8 36  1  0
  8 37  1  0
  8 38  1  0
  9 39  1  0
 10 40  1  0
 10 41  1  0
 11 42  1  0
 11 43  1  0
 12 44  1  0
 12 45  1  0
 13 46  1  0
 13 47  1  0
 14 48  1  0
 14 49  1  0
 15 50  1  6
 16 51  1  1
 17 52  1  0
 17 53  1  0
 18 54  1  6
 19 55  1  0
 19 56  1  0
 20 57  1  1
 21 58  1  0
 21 59  1  0
 22 60  1  0
 22 61  1  0
 23 62  1  6
 24 63  1  0
 24 64  1  0
M  CHG  2  11   1  14   1
M  END
>  <meeko>  (6) 
{"is_sidechain": [false], "free_energy": -7.048, "intermolecular_energy": -12.151, "internal_energy": -0.565}

$$$$
4ea2_ligand
     RDKit          3D

 64 66  0  0  0  0  0  0  0  0999 V2000
    6.0470   -8.6960    6.4700 C   0  0  0  0  0  0  0  0  0  0  0  0
    6.2910   -7.8990    7.7230 C   0  0  0  0  0  0  0  0  0  0  0  0
    7.4050   -8.4340    8.5870 C   0  0  0  0  0  0  0  0  0  0  0  0
    5.6070   -6.7970    8.0860 C   0  0  0  0  0  0  0  0  0  0  0  0
    4.4540   -6.1670    7.3610 C   0  0  0  0  0  0  0  0  0  0  0  0
    4.8540   -5.0180    6.4230 C   0  0  0  0  0  0  0  0  0  0  0  0
    4.7250   -5.3250    4.9380 C   0  0  0  0  0  0  0  0  0  0  0  0
    6.0260   -5.6560    4.2420 C   0  0  0  0  0  0  0  0  0  0  0  0
    3.5630   -5.3450    4.2540 C   0  0  0  0  0  0  0  0  0  0  0  0
    2.2040   -5.0370    4.7810 C   0  0  0  0  0  0  0  0  0  0  0  0
    1.6690   -3.7480    4.2360 N   0  0  0  0  0  0  0  0  0  0  0  0
    0.1980   -3.4620    4.3500 C   0  0  0  0  0  0  0  0  0  0  0  0
   -0.4860   -3.1260    3.0010 C   0  0  0  0  0  0  0  0  0  0  0  0
   -0.2840   -1.7050    2.5400 N   0  0  0  0  0  0  0  0  0  0  0  0
    0.7090   -1.4550    1.4230 C   0  0  2  0  0  0  0  0  0  0  0  0
    1.5810   -0.2120    1.7100 C   0  0  1  0  0  0  0  0  0  0  0  0
    2.6290   -0.1030    0.5810 C   0  0  0  0  0  0  0  0  0  0  0  0
    1.9280    0.0650   -0.7810 C   0  0  2  0  0  0  0  0  0  0  0  0
    1.0770    1.3460   -0.7560 C   0  0  0  0  0  0  0  0  0  0  0  0
    0.0260    1.2550    0.3640 C   0  0  2  0  0  0  0  0  0  0  0  0
    0.7450    1.0850    1.7110 C   0  0  0  0  0  0  0  0  0  0  0  0
   -0.8800    0.0380    0.1110 C   0  0  0  0  0  0  0  0  0  0  0  0
   -0.0420   -1.2550    0.0860 C   0  0  1  0  0  0  0  0  0  0  0  0
    1.0080   -1.1410   -1.0380 C   0  0  0  0  0  0  0  0  0  0  0  0
    5.7348   -9.7158    6.7391 H   0  0  0  0  0  0  0  0  0  0  0  0
    5.2551   -8.2144    5.8775 H   0  0  0  0  0  0  0  0  0  0  0  0
    6.9727   -8.7403    5.8775 H   0  0  0  0  0  0  0  0  0  0  0  0
    7.1402   -8.3068    9.6471 H   0  0  0  0  0  0  0  0  0  0  0  0
    7.5549   -9.5023    8.3721 H   0  0  0  0  0  0  0  0  0  0  0  0
    8.3325   -7.8831    8.3721 H   0  0  0  0  0  0  0  0  0  0  0  0
    5.9288   -6.3049    9.0157 H   0  0  0  0  0  0  0  0  0  0  0  0
    3.9565   -6.9442    6.7623 H   0  0  0  0  0  0  0  0  0  0  0  0
    3.7953   -5.7346    8.1286 H   0  0  0  0  0  0  0  0  0  0  0  0
    4.2126   -4.1535    6.6496 H   0  0  0  0  0  0  0  0  0  0  0  0
    5.9221   -4.8295    6.6061 H   0  0  0  0  0  0  0  0  0  0  0  0
    6.8041   -5.8540    4.9939 H   0  0  0  0  0  0  0  0  0  0  0  0
    5.8887   -6.5478    3.6129 H   0  0  0  0  0  0  0  0  0  0  0  0
    6.3316   -4.8070    3.6129 H   0  0  0  0  0  0  0  0  0  0  0  0
    3.6254   -5.6187    3.1904 H   0  0  0  0  0  0  0  0  0  0  0  0
    1.5210   -5.8521    4.4997 H   0  0  0  0  0  0  0  0  0  0  0  0
    2.2779   -4.9388    5.8741 H   0  0  0  0  0  0  0  0  0  0  0  0
    2.0140   -3.6350    3.2700 H   0  0  0  0  0  0  0  0  0  0  0  0
    2.1710   -3.0120    4.7620 H   0  0  0  0  0  0  0  0  0  0  0  0
   -0.2946   -4.3485    4.7760 H   0  0  0  0  0  0  0  0  0  0  0  0
    0.0958   -2.5722    4.9885 H   0  0  0  0  0  0  0  0  0  0  0  0
   -0.0795   -3.7989    2.2316 H   0  0  0  0  0  0  0  0  0  0  0  0
   -1.5673   -3.2565    3.1550 H   0  0  0  0  0  0  0  0  0  0  0  0
   -0.1130   -1.0630    3.3290 H   0  0  0  0  0  0  0  0  0  0  0  0
   -1.2020   -1.3850    2.1840 H   0  0  0  0  0  0  0  0  0  0  0  0
    1.3678   -2.3334    1.3564 H   0  0  0  0  0  0  0  0  0  0  0  0
    2.0435   -0.3275    2.7013 H   0  0  0  0  0  0  0  0  0  0  0  0
    3.2746    0.7679    0.7673 H   0  0  0  0  0  0  0  0  0  0  0  0
    3.2338   -1.0216    0.5626 H   0  0  0  0  0  0  0  0  0  0  0  0
    2.6843    0.1302   -1.5771 H   0  0  0  0  0  0  0  0  0  0  0  0
    1.7288    2.2134   -0.5749 H   0  0  0  0  0  0  0  0  0  0  0  0
    0.5661    1.4602   -1.7235 H   0  0  0  0  0  0  0  0  0  0  0  0
   -0.5843    2.1700    0.3810 H   0  0  0  0  0  0  0  0  0  0  0  0
    1.4096    1.9453    1.8791 H   0  0  0  0  0  0  0  0  0  0  0  0
   -0.0055    1.0272    2.5132 H   0  0  0  0  0  0  0  0  0  0  0  0
   -1.6290   -0.0302    0.9137 H   0  0  0  0  0  0  0  0  0  0  0  0
   -1.3803    0.1596   -0.8611 H   0  0  0  0  0  0  0  0  0  0  0  0
   -0.7185   -2.1065   -0.0792 H   0  0  0  0  0  0  0  0  0  0  0  0
    1.6120   -2.0599   -1.0664 H   0  0  0  0  0  0  0  0  0  0  0  0
    0.4925   -1.0024   -1.9998 H   0  0  0  0  0  0  0  0  0  0  0  0
  1  2  1  0
  2  3  1  0
  2  4  2  3
  4  5  1  0
  5  6  1  0
  6  7  1  0
  7  8  1  0
  7  9  2  0
  9 10  1  0
 10 11  1  0
 11 12  1  0
 12 13  1  0
 13 14  1  0
 14 15  1  0
 15 16  1  0
 16 17  1  0
 17 18  1  0
 18 19  1  0
 19 20  1  0
 20 21  1  0
 20 22  1  0
 22 23  1  0
 23 24  1  0
 23 15  1  0
 21 16  1  0
 24 18  1  0
  1 25  1  0
  1 26  1  0
  1 27  1  0
  3 28  1  0
  3 29  1  0
  3 30  1  0
  4 31  1  0
  5 32  1  0
  5 33  1  0
  6 34  1  0
  6 35  1  0
  8 36  1  0
  8 37  1  0
  8 38  1  0
  9 39  1  0
 10 40  1  0
 10 41  1  0
 11 42  1  0
 11 43  1  0
 12 44  1  0
 12 45  1  0
 13 46  1  0
 13 47  1  0
 14 48  1  0
 14 49  1  0
 15 50  1  1
 16 51  1  6
 17 52  1  0
 17 53  1  0
 18 54  1  1
 19 55  1  0
 19 56  1  0
 20 57  1  6
 21 58  1  0
 21 59  1  0
 22 60  1  0
 22 61  1  0
 23 62  1  1
 24 63  1  0
 24 64  1  0
M  CHG  2  11   1  14   1
M  END
>  <meeko>  (7) 
{"is_sidechain": [false], "free_energy": -7.031, "intermolecular_energy": -11.816, "internal_energy": -0.874}

$$$$
4ea2_ligand
     RDKit          3D

 64 66  0  0  0  0  0  0  0  0999 V2000
   -3.8250   -2.2720   -0.5680 C   0  0  0  0  0  0  0  0  0  0  0  0
   -3.8220   -3.7770   -0.5410 C   0  0  0  0  0  0  0  0  0  0  0  0
   -4.9040   -4.4090   -1.3800 C   0  0  0  0  0  0  0  0  0  0  0  0
   -2.9530   -4.5390    0.1500 C   0  0  0  0  0  0  0  0  0  0  0  0
   -1.8550   -4.0650    1.0560 C   0  0  0  0  0  0  0  0  0  0  0  0
   -2.1670   -4.2110    2.5530 C   0  0  0  0  0  0  0  0  0  0  0  0
   -1.7340   -3.0380    3.4190 C   0  0  0  0  0  0  0  0  0  0  0  0
   -0.3420   -3.1550    3.9990 C   0  0  0  0  0  0  0  0  0  0  0  0
   -2.4800   -1.9400    3.6590 C   0  0  0  0  0  0  0  0  0  0  0  0
   -3.8640   -1.6710    3.1760 C   0  0  0  0  0  0  0  0  0  0  0  0
   -4.2210   -0.2200    3.2760 N   0  0  0  0  0  0  0  0  0  0  0  0
   -3.1810    0.7570    3.7490 C   0  0  0  0  0  0  0  0  0  0  0  0
   -2.4550    1.5090    2.6040 C   0  0  0  0  0  0  0  0  0  0  0  0
   -2.0590    0.6340    1.4410 N   0  0  0  0  0  0  0  0  0  0  0  0
   -0.8470    1.0400    0.6280 C   0  0  2  0  0  0  0  0  0  0  0  0
   -0.2940   -0.1470   -0.1930 C   0  0  1  0  0  0  0  0  0  0  0  0
    0.8610    0.3850   -1.0680 C   0  0  0  0  0  0  0  0  0  0  0  0
    1.9810    0.9600   -0.1800 C   0  0  2  0  0  0  0  0  0  0  0  0
    2.5140   -0.1500    0.7420 C   0  0  0  0  0  0  0  0  0  0  0  0
    1.3760   -0.6930    1.6230 C   0  0  2  0  0  0  0  0  0  0  0  0
    0.2700   -1.2580    0.7170 C   0  0  0  0  0  0  0  0  0  0  0  0
    0.8030    0.4540    2.4740 C   0  0  0  0  0  0  0  0  0  0  0  0
    0.2610    1.5740    1.5640 C   0  0  1  0  0  0  0  0  0  0  0  0
    1.4150    2.1000    0.6870 C   0  0  0  0  0  0  0  0  0  0  0  0
   -3.8258   -1.8868    0.4623 H   0  0  0  0  0  0  0  0  0  0  0  0
   -2.9276   -1.9129   -1.0930 H   0  0  0  0  0  0  0  0  0  0  0  0
   -4.7239   -1.9165   -1.0930 H   0  0  0  0  0  0  0  0  0  0  0  0
   -5.6653   -4.8537   -0.7222 H   0  0  0  0  0  0  0  0  0  0  0  0
   -5.3710   -3.6416   -2.0149 H   0  0  0  0  0  0  0  0  0  0  0  0
   -4.4650   -5.1927   -2.0149 H   0  0  0  0  0  0  0  0  0  0  0  0
   -3.0598   -5.6281    0.0380 H   0  0  0  0  0  0  0  0  0  0  0  0
   -0.9488   -4.6477    0.8340 H   0  0  0  0  0  0  0  0  0  0  0  0
   -1.7279   -2.9896    0.8629 H   0  0  0  0  0  0  0  0  0  0  0  0
   -3.2545   -4.3337    2.6642 H   0  0  0  0  0  0  0  0  0  0  0  0
   -1.5904   -5.0799    2.9031 H   0  0  0  0  0  0  0  0  0  0  0  0
   -0.4008   -3.1501    5.0974 H   0  0  0  0  0  0  0  0  0  0  0  0
    0.1184   -4.0950    3.6607 H   0  0  0  0  0  0  0  0  0  0  0  0
    0.2688   -2.3050    3.6607 H   0  0  0  0  0  0  0  0  0  0  0  0
   -2.0164   -1.1582    4.2786 H   0  0  0  0  0  0  0  0  0  0  0  0
   -3.9401   -1.9838    2.1242 H   0  0  0  0  0  0  0  0  0  0  0  0
   -4.5615   -2.2370    3.8109 H   0  0  0  0  0  0  0  0  0  0  0  0
   -5.1020   -0.1380    3.8060 H   0  0  0  0  0  0  0  0  0  0  0  0
   -4.4890    0.0520    2.3150 H   0  0  0  0  0  0  0  0  0  0  0  0
   -3.6726    1.5003    4.3938 H   0  0  0  0  0  0  0  0  0  0  0  0
   -2.4157    0.1738    4.2821 H   0  0  0  0  0  0  0  0  0  0  0  0
   -3.1252    2.2970    2.2299 H   0  0  0  0  0  0  0  0  0  0  0  0
   -1.5227    1.9080    3.0302 H   0  0  0  0  0  0  0  0  0  0  0  0
   -2.8590    0.4270    0.8240 H   0  0  0  0  0  0  0  0  0  0  0  0
   -1.8370   -0.2940    1.8420 H   0  0  0  0  0  0  0  0  0  0  0  0
   -1.1609    1.8295   -0.0707 H   0  0  0  0  0  0  0  0  0  0  0  0
   -1.1123   -0.5719   -0.7928 H   0  0  0  0  0  0  0  0  0  0  0  0
    1.2655   -0.4382   -1.6753 H   0  0  0  0  0  0  0  0  0  0  0  0
    0.4775    1.1817   -1.7224 H   0  0  0  0  0  0  0  0  0  0  0  0
    2.7923    1.3446   -0.8155 H   0  0  0  0  0  0  0  0  0  0  0  0
    2.9225   -0.9674    0.1297 H   0  0  0  0  0  0  0  0  0  0  0  0
    3.3038    0.2637    1.3863 H   0  0  0  0  0  0  0  0  0  0  0  0
    1.7577   -1.4855    2.2835 H   0  0  0  0  0  0  0  0  0  0  0  0
    0.6872   -2.0619    0.0927 H   0  0  0  0  0  0  0  0  0  0  0  0
   -0.5416   -1.6530    1.3457 H   0  0  0  0  0  0  0  0  0  0  0  0
   -0.0143    0.0679    3.1008 H   0  0  0  0  0  0  0  0  0  0  0  0
    1.6026    0.8634    3.1089 H   0  0  0  0  0  0  0  0  0  0  0  0
   -0.1559    2.3693    2.1994 H   0  0  0  0  0  0  0  0  0  0  0  0
    1.0398    2.9020    0.0343 H   0  0  0  0  0  0  0  0  0  0  0  0
    2.2129    2.4894    1.3364 H   0  0  0  0  0  0  0  0  0  0  0  0
  1  2  1  0
  2  3  1  0
  2  4  2  3
  4  5  1  0
  5  6  1  0
  6  7  1  0
  7  8  1  0
  7  9  2  0
  9 10  1  0
 10 11  1  0
 11 12  1  0
 12 13  1  0
 13 14  1  0
 14 15  1  0
 15 16  1  0
 16 17  1  0
 17 18  1  0
 18 19  1  0
 19 20  1  0
 20 21  1  0
 20 22  1  0
 22 23  1  0
 23 24  1  0
 23 15  1  0
 21 16  1  0
 24 18  1  0
  1 25  1  0
  1 26  1  0
  1 27  1  0
  3 28  1  0
  3 29  1  0
  3 30  1  0
  4 31  1  0
  5 32  1  0
  5 33  1  0
  6 34  1  0
  6 35  1  0
  8 36  1  0
  8 37  1  0
  8 38  1  0
  9 39  1  0
 10 40  1  0
 10 41  1  0
 11 42  1  0
 11 43  1  0
 12 44  1  0
 12 45  1  0
 13 46  1  0
 13 47  1  0
 14 48  1  0
 14 49  1  0
 15 50  1  1
 16 51  1  1
 17 52  1  0
 17 53  1  0
 18 54  1  1
 19 55  1  0
 19 56  1  0
 20 57  1  6
 21 58  1  0
 21 59  1  0
 22 60  1  0
 22 61  1  0
 23 62  1  6
 24 63  1  0
 24 64  1  0
M  CHG  2  11   1  14   1
M  END
>  <meeko>  (8) 
{"is_sidechain": [false], "free_energy": -6.919, "intermolecular_energy": -10.81, "internal_energy": -1.708}

$$$$
4ea2_ligand
     RDKit          3D

 64 66  0  0  0  0  0  0  0  0999 V2000
    7.2210   -8.0110    7.3850 C   0  0  0  0  0  0  0  0  0  0  0  0
    6.7900   -8.3960    5.9960 C   0  0  0  0  0  0  0  0  0  0  0  0
    7.8150   -8.1030    4.9290 C   0  0  0  0  0  0  0  0  0  0  0  0
    5.6070   -8.9580    5.6780 C   0  0  0  0  0  0  0  0  0  0  0  0
    4.4750   -9.2730    6.6110 C   0  0  0  0  0  0  0  0  0  0  0  0
    3.2780   -8.3170    6.4910 C   0  0  0  0  0  0  0  0  0  0  0  0
    3.5070   -6.9240    7.0590 C   0  0  0  0  0  0  0  0  0  0  0  0
    3.8530   -6.8870    8.5310 C   0  0  0  0  0  0  0  0  0  0  0  0
    3.4480   -5.7820    6.3450 C   0  0  0  0  0  0  0  0  0  0  0  0
    3.1150   -5.6420    4.8990 C   0  0  0  0  0  0  0  0  0  0  0  0
    2.4460   -4.3340    4.6010 N   0  0  0  0  0  0  0  0  0  0  0  0
    1.3480   -4.2940    3.5760 C   0  0  0  0  0  0  0  0  0  0  0  0
    0.7110   -2.8930    3.3890 C   0  0  0  0  0  0  0  0  0  0  0  0
    0.5050   -2.4920    1.9500 N   0  0  0  0  0  0  0  0  0  0  0  0
    0.0890   -1.0630    1.6640 C   0  0  2  0  0  0  0  0  0  0  0  0
   -0.3990   -0.8990    0.2060 C   0  0  1  0  0  0  0  0  0  0  0  0
   -0.9020    0.5510    0.0410 C   0  0  0  0  0  0  0  0  0  0  0  0
    0.2410    1.5460    0.3150 C   0  0  2  0  0  0  0  0  0  0  0  0
    1.3830    1.2900   -0.6830 C   0  0  0  0  0  0  0  0  0  0  0  0
    1.8980   -0.1510   -0.5330 C   0  0  2  0  0  0  0  0  0  0  0  0
    0.7420   -1.1260   -0.8070 C   0  0  0  0  0  0  0  0  0  0  0  0
    2.4120   -0.3580    0.9020 C   0  0  0  0  0  0  0  0  0  0  0  0
    1.2780   -0.1080    1.9160 C   0  0  1  0  0  0  0  0  0  0  0  0
    0.7730    1.3380    1.7450 C   0  0  0  0  0  0  0  0  0  0  0  0
    6.6119   -8.5551    8.1219 H   0  0  0  0  0  0  0  0  0  0  0  0
    8.2814   -8.2680    7.5243 H   0  0  0  0  0  0  0  0  0  0  0  0
    7.0848   -6.9284    7.5243 H   0  0  0  0  0  0  0  0  0  0  0  0
    8.7696   -7.8301    5.4026 H   0  0  0  0  0  0  0  0  0  0  0  0
    7.9583   -8.9961    4.3031 H   0  0  0  0  0  0  0  0  0  0  0  0
    7.4646   -7.2690    4.3031 H   0  0  0  0  0  0  0  0  0  0  0  0
    5.4548   -9.2136    4.6190 H   0  0  0  0  0  0  0  0  0  0  0  0
    4.1248  -10.2935    6.3969 H   0  0  0  0  0  0  0  0  0  0  0  0
    4.8668   -9.1637    7.6330 H   0  0  0  0  0  0  0  0  0  0  0  0
    3.0295   -8.2138    5.4244 H   0  0  0  0  0  0  0  0  0  0  0  0
    2.4682   -8.7625    7.0875 H   0  0  0  0  0  0  0  0  0  0  0  0
    2.9333   -6.9853    9.1264 H   0  0  0  0  0  0  0  0  0  0  0  0
    4.5342   -7.7174    8.7685 H   0  0  0  0  0  0  0  0  0  0  0  0
    4.3432   -5.9313    8.7685 H   0  0  0  0  0  0  0  0  0  0  0  0
    3.6698   -4.8520    6.8890 H   0  0  0  0  0  0  0  0  0  0  0  0
    4.0434   -5.7077    4.3128 H   0  0  0  0  0  0  0  0  0  0  0  0
    2.4174   -6.4493    4.6312 H   0  0  0  0  0  0  0  0  0  0  0  0
    3.1770   -3.6300    4.4180 H   0  0  0  0  0  0  0  0  0  0  0  0
    2.0400   -4.0360    5.5040 H   0  0  0  0  0  0  0  0  0  0  0  0
    1.7644   -4.6164    2.6102 H   0  0  0  0  0  0  0  0  0  0  0  0
    0.5509   -4.9605    3.9372 H   0  0  0  0  0  0  0  0  0  0  0  0
   -0.2678   -2.8898    3.8910 H   0  0  0  0  0  0  0  0  0  0  0  0
    1.4153   -2.1666    3.8207 H   0  0  0  0  0  0  0  0  0  0  0  0
   -0.1050   -3.1560    1.4480 H   0  0  0  0  0  0  0  0  0  0  0  0
    1.4180   -2.6250    1.4810 H   0  0  0  0  0  0  0  0  0  0  0  0
   -0.7426   -0.8129    2.3392 H   0  0  0  0  0  0  0  0  0  0  0  0
   -1.1877   -1.6409    0.0121 H   0  0  0  0  0  0  0  0  0  0  0  0
   -1.2690    0.6934   -0.9861 H   0  0  0  0  0  0  0  0  0  0  0  0
   -1.7150    0.7323    0.7594 H   0  0  0  0  0  0  0  0  0  0  0  0
   -0.1341    2.5741    0.2045 H   0  0  0  0  0  0  0  0  0  0  0  0
    1.0119    1.4396   -1.7077 H   0  0  0  0  0  0  0  0  0  0  0  0
    2.2057    1.9910   -0.4786 H   0  0  0  0  0  0  0  0  0  0  0  0
    2.7153   -0.3336   -1.2462 H   0  0  0  0  0  0  0  0  0  0  0  0
    0.3614   -0.9609   -1.8258 H   0  0  0  0  0  0  0  0  0  0  0  0
    1.1112   -2.1573   -0.7061 H   0  0  0  0  0  0  0  0  0  0  0  0
    2.7765   -1.3900    1.0119 H   0  0  0  0  0  0  0  0  0  0  0  0
    3.2294    0.3521    1.0960 H   0  0  0  0  0  0  0  0  0  0  0  0
    1.6708   -0.2801    2.9290 H   0  0  0  0  0  0  0  0  0  0  0  0
   -0.0359    1.5287    2.4656 H   0  0  0  0  0  0  0  0  0  0  0  0
    1.6055    2.0342    1.9247 H   0  0  0  0  0  0  0  0  0  0  0  0
  1  2  1  0
  2  3  1  0
  2  4  2  3
  4  5  1  0
  5  6  1  0
  6  7  1  0
  7  8  1  0
  7  9  2  0
  9 10  1  0
 10 11  1  0
 11 12  1  0
 12 13  1  0
 13 14  1  0
 14 15  1  0
 15 16  1  0
 16 17  1  0
 17 18  1  0
 18 19  1  0
 19 20  1  0
 20 21  1  0
 20 22  1  0
 22 23  1  0
 23 24  1  0
 23 15  1  0
 21 16  1  0
 24 18  1  0
  1 25  1  0
  1 26  1  0
  1 27  1  0
  3 28  1  0
  3 29  1  0
  3 30  1  0
  4 31  1  0
  5 32  1  0
  5 33  1  0
  6 34  1  0
  6 35  1  0
  8 36  1  0
  8 37  1  0
  8 38  1  0
  9 39  1  0
 10 40  1  0
 10 41  1  0
 11 42  1  0
 11 43  1  0
 12 44  1  0
 12 45  1  0
 13 46  1  0
 13 47  1  0
 14 48  1  0
 14 49  1  0
 15 50  1  6
 16 51  1  1
 17 52  1  0
 17 53  1  0
 18 54  1  6
 19 55  1  0
 19 56  1  0
 20 57  1  1
 21 58  1  0
 21 59  1  0
 22 60  1  0
 22 61  1  0
 23 62  1  6
 24 63  1  0
 24 64  1  0
M  CHG  2  11   1  14   1
M  END
>  <meeko>  (9) 
{"is_sidechain": [false], "free_energy": -6.916, "intermolecular_energy": -11.599, "internal_energy": -0.915}

$$$$
