2xii_ligand
     RDKit          3D

 51 54  0  0  0  0  0  0  0  0999 V2000
    1.5720    4.1070    6.4850 C   0  0  0  0  0  0  0  0  0  0  0  0
    1.7300    4.1320    8.0000 C   0  0  2  0  0  0  0  0  0  0  0  0
    0.3710    4.3670    8.6130 N   0  0  0  0  0  0  0  0  0  0  0  0
    0.3640    4.0720   10.1130 C   0  0  2  0  0  0  0  0  0  0  0  0
   -0.9390    4.6270   10.7300 C   0  0  0  0  0  0  0  0  0  0  0  0
   -0.9660    4.8510   12.1690 N   0  0  0  0  0  0  0  0  0  0  0  0
   -1.7710    4.1830   13.0610 C   0  0  0  0  0  0  0  0  0  0  0  0
   -2.3720    3.1640   12.7190 O   0  0  0  0  0  0  0  0  0  0  0  0
   -1.8800    4.6650   14.4730 C   0  0  0  0  0  0  0  0  0  0  0  0
   -3.1870    4.8330   14.9760 C   0  0  0  0  0  0  0  0  0  0  0  0
   -3.4300    5.2840   16.2860 C   0  0  0  0  0  0  0  0  0  0  0  0
   -2.3740    5.5890   17.1420 C   0  0  0  0  0  0  0  0  0  0  0  0
   -1.0820    5.4360   16.6670 C   0  0  0  0  0  0  0  0  0  0  0  0
   -0.8440    4.9770   15.3470 C   0  0  0  0  0  0  0  0  0  0  0  0
    0.6330    4.9510   15.1910 C   0  0  0  0  0  0  0  0  0  0  0  0
    1.2520    4.6100   14.2030 O   0  0  0  0  0  0  0  0  0  0  0  0
    1.2300    5.4050   16.4610 C   0  0  0  0  0  0  0  0  0  0  0  0
    2.5610    5.5450   16.7970 C   0  0  0  0  0  0  0  0  0  0  0  0
    2.8440    5.9990   18.0850 C   0  0  0  0  0  0  0  0  0  0  0  0
    1.8030    6.2940   18.9860 C   0  0  0  0  0  0  0  0  0  0  0  0
    0.4590    6.1400   18.6160 C   0  0  0  0  0  0  0  0  0  0  0  0
    0.1770    5.6900   17.3370 C   0  0  0  0  0  0  0  0  0  0  0  0
    1.6560    4.6440   10.7650 C   0  0  1  0  0  0  0  0  0  0  0  0
    2.6310    3.5990   10.8780 O   0  0  0  0  0  0  0  0  0  0  0  0
    2.2530    5.7590    9.9000 C   0  0  2  0  0  0  0  0  0  0  0  0
    1.2430    6.7680    9.6950 O   0  0  0  0  0  0  0  0  0  0  0  0
    2.7040    5.2250    8.5220 C   0  0  2  0  0  0  0  0  0  0  0  0
    2.7560    6.3490    7.6290 O   0  0  0  0  0  0  0  0  0  0  0  0
    0.5153    3.9398    6.2293 H   0  0  0  0  0  0  0  0  0  0  0  0
    1.9029    5.0687    6.0659 H   0  0  0  0  0  0  0  0  0  0  0  0
    2.1837    3.2945    6.0659 H   0  0  0  0  0  0  0  0  0  0  0  0
    2.1639    3.1637    8.2902 H   0  0  0  0  0  0  0  0  0  0  0  0
   -0.3550    3.8170    8.1380 H   0  0  0  0  0  0  0  0  0  0  0  0
    0.1430    5.3690    8.4800 H   0  0  0  0  0  0  0  0  0  0  0  0
    0.3741    2.9889   10.3047 H   0  0  0  0  0  0  0  0  0  0  0  0
   -1.1478    5.5913   10.2436 H   0  0  0  0  0  0  0  0  0  0  0  0
   -1.6857    3.8378   10.5579 H   0  0  0  0  0  0  0  0  0  0  0  0
   -0.5590    5.7420   12.4630 H   0  0  0  0  0  0  0  0  0  0  0  0
   -4.0427    4.6043   14.3237 H   0  0  0  0  0  0  0  0  0  0  0  0
   -4.4658    5.3972   16.6386 H   0  0  0  0  0  0  0  0  0  0  0  0
   -2.5612    5.9417   18.1670 H   0  0  0  0  0  0  0  0  0  0  0  0
    3.3625    5.3092   16.0814 H   0  0  0  0  0  0  0  0  0  0  0  0
    3.8901    6.1278   18.3998 H   0  0  0  0  0  0  0  0  0  0  0  0
    2.0480    6.6513   19.9971 H   0  0  0  0  0  0  0  0  0  0  0  0
   -0.3507    6.3708   19.3239 H   0  0  0  0  0  0  0  0  0  0  0  0
    1.3942    5.0473   11.7543 H   0  0  0  0  0  0  0  0  0  0  0  0
    3.5060    4.0470   10.9260 H   0  0  0  0  0  0  0  0  0  0  0  0
    3.1322    6.1707   10.4172 H   0  0  0  0  0  0  0  0  0  0  0  0
    1.6680    7.6200    9.9350 H   0  0  0  0  0  0  0  0  0  0  0  0
    3.6929    4.7489    8.5956 H   0  0  0  0  0  0  0  0  0  0  0  0
    2.4340    6.0500    6.7550 H   0  0  0  0  0  0  0  0  0  0  0  0
  1  2  1  0
  2  3  1  0
  3  4  1  0
  4  5  1  0
  5  6  1  0
  6  7  1  0
  7  8  2  0
  7  9  1  0
  9 10  2  0
 10 11  1  0
 11 12  2  0
 12 13  1  0
 13 14  2  0
 14 15  1  0
 15 16  2  0
 15 17  1  0
 17 18  2  0
 18 19  1  0
 19 20  2  0
 20 21  1  0
 21 22  2  0
  4 23  1  0
 23 24  1  0
 23 25  1  0
 25 26  1  0
 25 27  1  0
 27 28  1  0
 27  2  1  0
 14  9  1  0
 22 17  1  0
 22 13  1  0
  1 29  1  0
  1 30  1  0
  1 31  1  0
  2 32  1  1
  3 33  1  0
  3 34  1  0
  4 35  1  6
  5 36  1  0
  5 37  1  0
  6 38  1  0
 10 39  1  0
 11 40  1  0
 12 41  1  0
 18 42  1  0
 19 43  1  0
 20 44  1  0
 21 45  1  0
 23 46  1  1
 24 47  1  0
 25 48  1  1
 26 49  1  0
 27 50  1  1
 28 51  1  0
M  CHG  1   3   1
M  END
>  <meeko>  (1) 
{"is_sidechain": [false], "free_energy": -9.063, "intermolecular_energy": -11.447, "internal_energy": -0.837}

$$$$
2xii_ligand
     RDKit          3D

 51 54  0  0  0  0  0  0  0  0999 V2000
    1.0910    4.0910    6.5930 C   0  0  0  0  0  0  0  0  0  0  0  0
    1.4430    4.0980    8.0740 C   0  0  2  0  0  0  0  0  0  0  0  0
    0.1880    4.3980    8.8560 N   0  0  0  0  0  0  0  0  0  0  0  0
    0.3580    4.0940   10.3450 C   0  0  2  0  0  0  0  0  0  0  0  0
   -0.8250    4.7120   11.1240 C   0  0  0  0  0  0  0  0  0  0  0  0
   -2.1010    4.0110   11.0870 N   0  0  0  0  0  0  0  0  0  0  0  0
   -2.5780    3.1790   12.0720 C   0  0  0  0  0  0  0  0  0  0  0  0
   -2.0450    3.1540   13.1820 O   0  0  0  0  0  0  0  0  0  0  0  0
   -3.7850    2.3340   11.8150 C   0  0  0  0  0  0  0  0  0  0  0  0
   -3.6620    1.3630   10.7980 C   0  0  0  0  0  0  0  0  0  0  0  0
   -4.7230    0.5060   10.4520 C   0  0  0  0  0  0  0  0  0  0  0  0
   -5.9490    0.5900   11.1080 C   0  0  0  0  0  0  0  0  0  0  0  0
   -6.0940    1.5390   12.1060 C   0  0  0  0  0  0  0  0  0  0  0  0
   -5.0190    2.3970   12.4520 C   0  0  0  0  0  0  0  0  0  0  0  0
   -5.5370    3.2740   13.5330 C   0  0  0  0  0  0  0  0  0  0  0  0
   -4.9260    4.1490   14.1140 O   0  0  0  0  0  0  0  0  0  0  0  0
   -6.9360    2.8890   13.7960 C   0  0  0  0  0  0  0  0  0  0  0  0
   -7.8280    3.4140   14.7100 C   0  0  0  0  0  0  0  0  0  0  0  0
   -9.1040    2.8500   14.7450 C   0  0  0  0  0  0  0  0  0  0  0  0
   -9.4440    1.7940   13.8780 C   0  0  0  0  0  0  0  0  0  0  0  0
   -8.5170    1.2810   12.9610 C   0  0  0  0  0  0  0  0  0  0  0  0
   -7.2500    1.8400   12.9250 C   0  0  0  0  0  0  0  0  0  0  0  0
    1.7500    4.5950   10.8250 C   0  0  1  0  0  0  0  0  0  0  0  0
    2.6760    3.5000   10.8130 O   0  0  0  0  0  0  0  0  0  0  0  0
    2.2890    5.6840    9.8910 C   0  0  2  0  0  0  0  0  0  0  0  0
    1.3150    6.7440    9.8180 O   0  0  0  0  0  0  0  0  0  0  0  0
    2.5310    5.1360    8.4670 C   0  0  2  0  0  0  0  0  0  0  0  0
    2.5270    6.2610    7.5740 O   0  0  0  0  0  0  0  0  0  0  0  0
   -0.0026    4.0693    6.4761 H   0  0  0  0  0  0  0  0  0  0  0  0
    1.4927    4.9973    6.1163 H   0  0  0  0  0  0  0  0  0  0  0  0
    1.5285    3.2014    6.1163 H   0  0  0  0  0  0  0  0  0  0  0  0
    1.8603    3.1070    8.3059 H   0  0  0  0  0  0  0  0  0  0  0  0
   -0.6210    3.8900    8.4790 H   0  0  0  0  0  0  0  0  0  0  0  0
   -0.0030    5.4120    8.7540 H   0  0  0  0  0  0  0  0  0  0  0  0
    0.3365    3.0107   10.5344 H   0  0  0  0  0  0  0  0  0  0  0  0
   -0.5211    4.7854   12.1786 H   0  0  0  0  0  0  0  0  0  0  0  0
   -1.0197    5.6698   10.6192 H   0  0  0  0  0  0  0  0  0  0  0  0
   -2.5110    3.9340   10.1540 H   0  0  0  0  0  0  0  0  0  0  0  0
   -2.7072    1.2735   10.2592 H   0  0  0  0  0  0  0  0  0  0  0  0
   -4.5828   -0.2386    9.6546 H   0  0  0  0  0  0  0  0  0  0  0  0
   -6.7797   -0.0796   10.8404 H   0  0  0  0  0  0  0  0  0  0  0  0
   -7.5456    4.2393   15.3801 H   0  0  0  0  0  0  0  0  0  0  0  0
   -9.8505    3.2337   15.4560 H   0  0  0  0  0  0  0  0  0  0  0  0
  -10.4555    1.3640   13.9213 H   0  0  0  0  0  0  0  0  0  0  0  0
   -8.7885    0.4553   12.2868 H   0  0  0  0  0  0  0  0  0  0  0  0
    1.6379    5.0057   11.8393 H   0  0  0  0  0  0  0  0  0  0  0  0
    2.5840    3.0750    9.9300 H   0  0  0  0  0  0  0  0  0  0  0  0
    3.2474    6.0471   10.2905 H   0  0  0  0  0  0  0  0  0  0  0  0
    0.8080    6.5820    8.9930 H   0  0  0  0  0  0  0  0  0  0  0  0
    3.4949    4.6087    8.4141 H   0  0  0  0  0  0  0  0  0  0  0  0
    3.3670    6.2480    7.0730 H   0  0  0  0  0  0  0  0  0  0  0  0
  1  2  1  0
  2  3  1  0
  3  4  1  0
  4  5  1  0
  5  6  1  0
  6  7  1  0
  7  8  2  0
  7  9  1  0
  9 10  2  0
 10 11  1  0
 11 12  2  0
 12 13  1  0
 13 14  2  0
 14 15  1  0
 15 16  2  0
 15 17  1  0
 17 18  2  0
 18 19  1  0
 19 20  2  0
 20 21  1  0
 21 22  2  0
  4 23  1  0
 23 24  1  0
 23 25  1  0
 25 26  1  0
 25 27  1  0
 27 28  1  0
 27  2  1  0
 14  9  1  0
 22 17  1  0
 22 13  1  0
  1 29  1  0
  1 30  1  0
  1 31  1  0
  2 32  1  1
  3 33  1  0
  3 34  1  0
  4 35  1  6
  5 36  1  0
  5 37  1  0
  6 38  1  0
 10 39  1  0
 11 40  1  0
 12 41  1  0
 18 42  1  0
 19 43  1  0
 20 44  1  0
 21 45  1  0
 23 46  1  1
 24 47  1  0
 25 48  1  1
 26 49  1  0
 27 50  1  1
 28 51  1  0
M  CHG  1   3   1
M  END
>  <meeko>  (2) 
{"is_sidechain": [false], "free_energy": -8.491, "intermolecular_energy": -11.112, "internal_energy": -0.45}

$$$$
2xii_ligand
     RDKit          3D

 51 54  0  0  0  0  0  0  0  0999 V2000
    1.3920    4.0820    6.3880 C   0  0  0  0  0  0  0  0  0  0  0  0
    1.6680    4.1420    7.8840 C   0  0  2  0  0  0  0  0  0  0  0  0
    0.3600    4.3880    8.5960 N   0  0  0  0  0  0  0  0  0  0  0  0
    0.4700    4.1280   10.0990 C   0  0  2  0  0  0  0  0  0  0  0  0
   -0.7830    4.6960   10.8020 C   0  0  0  0  0  0  0  0  0  0  0  0
   -0.6730    5.0300   12.2150 N   0  0  0  0  0  0  0  0  0  0  0  0
   -0.9840    4.1870   13.2560 C   0  0  0  0  0  0  0  0  0  0  0  0
   -1.1600    2.9850   13.0560 O   0  0  0  0  0  0  0  0  0  0  0  0
   -1.0580    4.7210   14.6520 C   0  0  0  0  0  0  0  0  0  0  0  0
    0.1680    5.0970   15.2420 C   0  0  0  0  0  0  0  0  0  0  0  0
    0.2400    5.6090   16.5500 C   0  0  0  0  0  0  0  0  0  0  0  0
   -0.9110    5.7610   17.3200 C   0  0  0  0  0  0  0  0  0  0  0  0
   -2.1250    5.3930   16.7630 C   0  0  0  0  0  0  0  0  0  0  0  0
   -2.1910    4.8810   15.4420 C   0  0  0  0  0  0  0  0  0  0  0  0
   -3.6260    4.5890   15.1950 C   0  0  0  0  0  0  0  0  0  0  0  0
   -4.1110    4.1410   14.1760 O   0  0  0  0  0  0  0  0  0  0  0  0
   -4.3770    4.9530   16.4110 C   0  0  0  0  0  0  0  0  0  0  0  0
   -5.7320    4.8640   16.6580 C   0  0  0  0  0  0  0  0  0  0  0  0
   -6.1760    5.2850   17.9120 C   0  0  0  0  0  0  0  0  0  0  0  0
   -5.2650    5.7760   18.8670 C   0  0  0  0  0  0  0  0  0  0  0  0
   -3.8930    5.8550   18.5870 C   0  0  0  0  0  0  0  0  0  0  0  0
   -3.4510    5.4370   17.3430 C   0  0  0  0  0  0  0  0  0  0  0  0
    1.8070    4.7180   10.6340 C   0  0  1  0  0  0  0  0  0  0  0  0
    2.7920    3.6770   10.6950 O   0  0  0  0  0  0  0  0  0  0  0  0
    2.3310    5.8140    9.7000 C   0  0  2  0  0  0  0  0  0  0  0  0
    1.3050    6.8150    9.5520 O   0  0  0  0  0  0  0  0  0  0  0  0
    2.6750    5.2490    8.3040 C   0  0  2  0  0  0  0  0  0  0  0  0
    2.6540    6.3510    7.3840 O   0  0  0  0  0  0  0  0  0  0  0  0
    0.3297    3.8511    6.2201 H   0  0  0  0  0  0  0  0  0  0  0  0
    1.6326    5.0534    5.9315 H   0  0  0  0  0  0  0  0  0  0  0  0
    2.0142    3.2981    5.9315 H   0  0  0  0  0  0  0  0  0  0  0  0
    2.1276    3.1817    8.1606 H   0  0  0  0  0  0  0  0  0  0  0  0
   -0.4000    3.8270    8.1920 H   0  0  0  0  0  0  0  0  0  0  0  0
    0.1180    5.3870    8.4580 H   0  0  0  0  0  0  0  0  0  0  0  0
    0.4980    3.0499   10.3154 H   0  0  0  0  0  0  0  0  0  0  0  0
   -1.0711    5.6140   10.2688 H   0  0  0  0  0  0  0  0  0  0  0  0
   -1.5172    3.8776   10.7660 H   0  0  0  0  0  0  0  0  0  0  0  0
   -0.6270    6.0330   12.4080 H   0  0  0  0  0  0  0  0  0  0  0  0
    1.0955    4.9862   14.6610 H   0  0  0  0  0  0  0  0  0  0  0  0
    1.2164    5.8927   16.9698 H   0  0  0  0  0  0  0  0  0  0  0  0
   -0.8574    6.1624   18.3427 H   0  0  0  0  0  0  0  0  0  0  0  0
   -6.4303    4.4786   15.9005 H   0  0  0  0  0  0  0  0  0  0  0  0
   -7.2472    5.2329   18.1568 H   0  0  0  0  0  0  0  0  0  0  0  0
   -5.6359    6.1032   19.8495 H   0  0  0  0  0  0  0  0  0  0  0  0
   -3.1858    6.2394   19.3367 H   0  0  0  0  0  0  0  0  0  0  0  0
    1.6215    5.1444   11.6309 H   0  0  0  0  0  0  0  0  0  0  0  0
    2.7110    3.1760    9.8520 H   0  0  0  0  0  0  0  0  0  0  0  0
    3.2464    6.2395   10.1370 H   0  0  0  0  0  0  0  0  0  0  0  0
    0.8730    6.6260    8.6910 H   0  0  0  0  0  0  0  0  0  0  0  0
    3.6683    4.7765    8.3122 H   0  0  0  0  0  0  0  0  0  0  0  0
    1.7600    6.7480    7.4140 H   0  0  0  0  0  0  0  0  0  0  0  0
  1  2  1  0
  2  3  1  0
  3  4  1  0
  4  5  1  0
  5  6  1  0
  6  7  1  0
  7  8  2  0
  7  9  1  0
  9 10  2  0
 10 11  1  0
 11 12  2  0
 12 13  1  0
 13 14  2  0
 14 15  1  0
 15 16  2  0
 15 17  1  0
 17 18  2  0
 18 19  1  0
 19 20  2  0
 20 21  1  0
 21 22  2  0
  4 23  1  0
 23 24  1  0
 23 25  1  0
 25 26  1  0
 25 27  1  0
 27 28  1  0
 27  2  1  0
 14  9  1  0
 22 17  1  0
 22 13  1  0
  1 29  1  0
  1 30  1  0
  1 31  1  0
  2 32  1  1
  3 33  1  0
  3 34  1  0
  4 35  1  6
  5 36  1  0
  5 37  1  0
  6 38  1  0
 10 39  1  0
 11 40  1  0
 12 41  1  0
 18 42  1  0
 19 43  1  0
 20 44  1  0
 21 45  1  0
 23 46  1  1
 24 47  1  0
 25 48  1  1
 26 49  1  0
 27 50  1  1
 28 51  1  0
M  CHG  1   3   1
M  END
>  <meeko>  (3) 
{"is_sidechain": [false], "free_energy": -8.463, "intermolecular_energy": -10.916, "internal_energy": -0.611}

$$$$
2xii_ligand
     RDKit          3D

 51 54  0  0  0  0  0  0  0  0999 V2000
    2.3200    5.8330   16.6600 C   0  0  0  0  0  0  0  0  0  0  0  0
    2.9100    4.7400   15.7790 C   0  0  2  0  0  0  0  0  0  0  0  0
    2.2040    4.7750   14.4460 N   0  0  0  0  0  0  0  0  0  0  0  0
    2.9440    3.9560   13.3870 C   0  0  2  0  0  0  0  0  0  0  0  0
    2.0240    3.7690   12.1610 C   0  0  0  0  0  0  0  0  0  0  0  0
    0.6160    3.4930   12.4070 N   0  0  0  0  0  0  0  0  0  0  0  0
   -0.4370    4.1160   11.7780 C   0  0  0  0  0  0  0  0  0  0  0  0
   -0.2470    4.8030   10.7740 O   0  0  0  0  0  0  0  0  0  0  0  0
   -1.8310    3.9180   12.2840 C   0  0  0  0  0  0  0  0  0  0  0  0
   -2.7320    3.2880   11.4000 C   0  0  0  0  0  0  0  0  0  0  0  0
   -4.0730    3.0460   11.7490 C   0  0  0  0  0  0  0  0  0  0  0  0
   -4.5650    3.4290   12.9950 C   0  0  0  0  0  0  0  0  0  0  0  0
   -3.6990    4.0540   13.8770 C   0  0  0  0  0  0  0  0  0  0  0  0
   -2.3480    4.2920   13.5200 C   0  0  0  0  0  0  0  0  0  0  0  0
   -1.7390    4.9790   14.6870 C   0  0  0  0  0  0  0  0  0  0  0  0
   -0.5870    5.3520   14.7900 O   0  0  0  0  0  0  0  0  0  0  0  0
   -2.7810    5.1230   15.7210 C   0  0  0  0  0  0  0  0  0  0  0  0
   -2.6920    5.6930   16.9750 C   0  0  0  0  0  0  0  0  0  0  0  0
   -3.8490    5.6910   17.7540 C   0  0  0  0  0  0  0  0  0  0  0  0
   -5.0430    5.1290   17.2640 C   0  0  0  0  0  0  0  0  0  0  0  0
   -5.1020    4.5560   15.9860 C   0  0  0  0  0  0  0  0  0  0  0  0
   -3.9540    4.5570   15.2110 C   0  0  0  0  0  0  0  0  0  0  0  0
    3.4340    2.6170   14.0100 C   0  0  1  0  0  0  0  0  0  0  0  0
    4.8030    2.7570   14.4140 O   0  0  0  0  0  0  0  0  0  0  0  0
    2.6070    2.2590   15.2490 C   0  0  2  0  0  0  0  0  0  0  0  0
    1.2160    2.2170   14.8720 O   0  0  0  0  0  0  0  0  0  0  0  0
    2.7840    3.3070   16.3690 C   0  0  2  0  0  0  0  0  0  0  0  0
    1.6450    3.1970   17.2360 O   0  0  0  0  0  0  0  0  0  0  0  0
    2.4629    5.5682   17.7180 H   0  0  0  0  0  0  0  0  0  0  0  0
    2.8258    6.7868   16.4492 H   0  0  0  0  0  0  0  0  0  0  0  0
    1.2451    5.9335   16.4492 H   0  0  0  0  0  0  0  0  0  0  0  0
    3.9868    4.9478   15.6933 H   0  0  0  0  0  0  0  0  0  0  0  0
    2.0650    5.7380   14.1190 H   0  0  0  0  0  0  0  0  0  0  0  0
    1.2670    4.3520   14.5830 H   0  0  0  0  0  0  0  0  0  0  0  0
    3.8442    4.4813   13.0353 H   0  0  0  0  0  0  0  0  0  0  0  0
    2.0786    4.6923   11.5655 H   0  0  0  0  0  0  0  0  0  0  0  0
    2.4023    2.8628   11.6654 H   0  0  0  0  0  0  0  0  0  0  0  0
    0.4300    3.0100   13.2880 H   0  0  0  0  0  0  0  0  0  0  0  0
   -2.3749    2.9764   10.4073 H   0  0  0  0  0  0  0  0  0  0  0  0
   -4.7408    2.5488   11.0301 H   0  0  0  0  0  0  0  0  0  0  0  0
   -5.6130    3.2401   13.2708 H   0  0  0  0  0  0  0  0  0  0  0  0
   -1.7516    6.1289   17.3432 H   0  0  0  0  0  0  0  0  0  0  0  0
   -3.8282    6.1329   18.7611 H   0  0  0  0  0  0  0  0  0  0  0  0
   -5.9445    5.1396   17.8943 H   0  0  0  0  0  0  0  0  0  0  0  0
   -6.0368    4.1165   15.6080 H   0  0  0  0  0  0  0  0  0  0  0  0
    3.3248    1.8244   13.2551 H   0  0  0  0  0  0  0  0  0  0  0  0
    5.3370    2.6980   13.5890 H   0  0  0  0  0  0  0  0  0  0  0  0
    2.9492    1.2851   15.6292 H   0  0  0  0  0  0  0  0  0  0  0  0
    1.2040    2.3020   13.8940 H   0  0  0  0  0  0  0  0  0  0  0  0
    3.7112    3.1205   16.9307 H   0  0  0  0  0  0  0  0  0  0  0  0
    1.4160    2.2490   17.3100 H   0  0  0  0  0  0  0  0  0  0  0  0
  1  2  1  0
  2  3  1  0
  3  4  1  0
  4  5  1  0
  5  6  1  0
  6  7  1  0
  7  8  2  0
  7  9  1  0
  9 10  2  0
 10 11  1  0
 11 12  2  0
 12 13  1  0
 13 14  2  0
 14 15  1  0
 15 16  2  0
 15 17  1  0
 17 18  2  0
 18 19  1  0
 19 20  2  0
 20 21  1  0
 21 22  2  0
  4 23  1  0
 23 24  1  0
 23 25  1  0
 25 26  1  0
 25 27  1  0
 27 28  1  0
 27  2  1  0
 14  9  1  0
 22 17  1  0
 22 13  1  0
  1 29  1  0
  1 30  1  0
  1 31  1  0
  2 32  1  6
  3 33  1  0
  3 34  1  0
  4 35  1  6
  5 36  1  0
  5 37  1  0
  6 38  1  0
 10 39  1  0
 11 40  1  0
 12 41  1  0
 18 42  1  0
 19 43  1  0
 20 44  1  0
 21 45  1  0
 23 46  1  6
 24 47  1  0
 25 48  1  1
 26 49  1  0
 27 50  1  1
 28 51  1  0
M  CHG  1   3   1
M  END
>  <meeko>  (4) 
{"is_sidechain": [false], "free_energy": -8.352, "intermolecular_energy": -9.826, "internal_energy": -1.559}

$$$$
2xii_ligand
     RDKit          3D

 51 54  0  0  0  0  0  0  0  0999 V2000
   -1.7840   13.9600   19.9390 C   0  0  0  0  0  0  0  0  0  0  0  0
   -2.0130   12.8470   18.9250 C   0  0  2  0  0  0  0  0  0  0  0  0
   -1.5690   11.5450   19.5450 N   0  0  0  0  0  0  0  0  0  0  0  0
   -2.0670   10.3360   18.7510 C   0  0  2  0  0  0  0  0  0  0  0  0
   -1.3260    9.0720   19.2410 C   0  0  0  0  0  0  0  0  0  0  0  0
   -0.8000    8.1620   18.2320 N   0  0  0  0  0  0  0  0  0  0  0  0
   -0.1730    6.9660   18.4920 C   0  0  0  0  0  0  0  0  0  0  0  0
   -0.2240    6.4650   19.6150 O   0  0  0  0  0  0  0  0  0  0  0  0
    0.5320    6.2390   17.3910 C   0  0  0  0  0  0  0  0  0  0  0  0
    1.9340    6.1350   17.5100 C   0  0  0  0  0  0  0  0  0  0  0  0
    2.7190    5.4810   16.5420 C   0  0  0  0  0  0  0  0  0  0  0  0
    2.1300    4.9090   15.4170 C   0  0  0  0  0  0  0  0  0  0  0  0
    0.7550    5.0040   15.2770 C   0  0  0  0  0  0  0  0  0  0  0  0
   -0.0300    5.6610   16.2580 C   0  0  0  0  0  0  0  0  0  0  0  0
   -1.4310    5.5770   15.7730 C   0  0  0  0  0  0  0  0  0  0  0  0
   -2.4180    6.0160   16.3280 O   0  0  0  0  0  0  0  0  0  0  0  0
   -1.4220    4.8510   14.4900 C   0  0  0  0  0  0  0  0  0  0  0  0
   -2.4810    4.5260   13.6650 C   0  0  0  0  0  0  0  0  0  0  0  0
   -2.1810    3.8240   12.4970 C   0  0  0  0  0  0  0  0  0  0  0  0
   -0.8520    3.4730   12.1940 C   0  0  0  0  0  0  0  0  0  0  0  0
    0.2020    3.8160   13.0520 C   0  0  0  0  0  0  0  0  0  0  0  0
   -0.0940    4.5130   14.2110 C   0  0  0  0  0  0  0  0  0  0  0  0
   -1.8990   10.6070   17.2280 C   0  0  1  0  0  0  0  0  0  0  0  0
   -3.1430   11.0800   16.6930 O   0  0  0  0  0  0  0  0  0  0  0  0
   -0.8350   11.6810   16.9800 C   0  0  2  0  0  0  0  0  0  0  0  0
    0.3940   11.2580   17.6050 O   0  0  0  0  0  0  0  0  0  0  0  0
   -1.2530   13.0400   17.5830 C   0  0  2  0  0  0  0  0  0  0  0  0
   -0.0550   13.8090   17.7660 O   0  0  0  0  0  0  0  0  0  0  0  0
   -1.8680   13.5516   20.9569 H   0  0  0  0  0  0  0  0  0  0  0  0
   -0.7796   14.3851   19.7962 H   0  0  0  0  0  0  0  0  0  0  0  0
   -2.5390   14.7471   19.7962 H   0  0  0  0  0  0  0  0  0  0  0  0
   -3.0853   12.8561   18.6800 H   0  0  0  0  0  0  0  0  0  0  0  0
   -1.8660   11.4740   20.5250 H   0  0  0  0  0  0  0  0  0  0  0  0
   -0.5320   11.5350   19.5310 H   0  0  0  0  0  0  0  0  0  0  0  0
   -3.1405   10.1640   18.9186 H   0  0  0  0  0  0  0  0  0  0  0  0
   -0.4777    9.4062   19.8564 H   0  0  0  0  0  0  0  0  0  0  0  0
   -2.0930    8.4874   19.7702 H   0  0  0  0  0  0  0  0  0  0  0  0
   -0.6560    8.5900   17.3150 H   0  0  0  0  0  0  0  0  0  0  0  0
    2.4289    6.5788   18.3864 H   0  0  0  0  0  0  0  0  0  0  0  0
    3.8092    5.4210   16.6754 H   0  0  0  0  0  0  0  0  0  0  0  0
    2.7404    4.3954   14.6597 H   0  0  0  0  0  0  0  0  0  0  0  0
   -3.5139    4.8078   13.9173 H   0  0  0  0  0  0  0  0  0  0  0  0
   -2.9901    3.5425   11.8070 H   0  0  0  0  0  0  0  0  0  0  0  0
   -0.6368    2.9199   11.2678 H   0  0  0  0  0  0  0  0  0  0  0  0
    1.2386    3.5383   12.8105 H   0  0  0  0  0  0  0  0  0  0  0  0
   -1.5917    9.6692   16.7420 H   0  0  0  0  0  0  0  0  0  0  0  0
   -3.3350   11.9260   17.1580 H   0  0  0  0  0  0  0  0  0  0  0  0
   -0.7105   11.8070   15.8943 H   0  0  0  0  0  0  0  0  0  0  0  0
    0.4960   10.3100   17.3710 H   0  0  0  0  0  0  0  0  0  0  0  0
   -1.9450   13.5658   16.9088 H   0  0  0  0  0  0  0  0  0  0  0  0
   -0.1530   14.6410   17.2610 H   0  0  0  0  0  0  0  0  0  0  0  0
  1  2  1  0
  2  3  1  0
  3  4  1  0
  4  5  1  0
  5  6  1  0
  6  7  1  0
  7  8  2  0
  7  9  1  0
  9 10  2  0
 10 11  1  0
 11 12  2  0
 12 13  1  0
 13 14  2  0
 14 15  1  0
 15 16  2  0
 15 17  1  0
 17 18  2  0
 18 19  1  0
 19 20  2  0
 20 21  1  0
 21 22  2  0
  4 23  1  0
 23 24  1  0
 23 25  1  0
 25 26  1  0
 25 27  1  0
 27 28  1  0
 27  2  1  0
 14  9  1  0
 22 17  1  0
 22 13  1  0
  1 29  1  0
  1 30  1  0
  1 31  1  0
  2 32  1  6
  3 33  1  0
  3 34  1  0
  4 35  1  6
  5 36  1  0
  5 37  1  0
  6 38  1  0
 10 39  1  0
 11 40  1  0
 12 41  1  0
 18 42  1  0
 19 43  1  0
 20 44  1  0
 21 45  1  0
 23 46  1  6
 24 47  1  0
 25 48  1  6
 26 49  1  0
 27 50  1  6
 28 51  1  0
M  CHG  1   3   1
M  END
>  <meeko>  (5) 
{"is_sidechain": [false], "free_energy": -7.88, "intermolecular_energy": -9.885, "internal_energy": -0.905}

$$$$
2xii_ligand
     RDKit          3D

 51 54  0  0  0  0  0  0  0  0999 V2000
   -0.3540   12.1900   17.2480 C   0  0  0  0  0  0  0  0  0  0  0  0
   -0.9590   11.2450   18.2780 C   0  0  2  0  0  0  0  0  0  0  0  0
   -0.2230    9.9300   18.2020 N   0  0  0  0  0  0  0  0  0  0  0  0
   -0.5200    9.0400   19.4100 C   0  0  2  0  0  0  0  0  0  0  0  0
   -0.0040    7.6130   19.1230 C   0  0  0  0  0  0  0  0  0  0  0  0
   -0.1580    7.0960   17.7700 N   0  0  0  0  0  0  0  0  0  0  0  0
   -0.9970    6.0710   17.4020 C   0  0  0  0  0  0  0  0  0  0  0  0
   -1.8660    5.6660   18.1750 O   0  0  0  0  0  0  0  0  0  0  0  0
   -0.8910    5.4740   16.0340 C   0  0  0  0  0  0  0  0  0  0  0  0
   -2.1040    5.2900   15.3380 C   0  0  0  0  0  0  0  0  0  0  0  0
   -2.1460    4.7350   14.0460 C   0  0  0  0  0  0  0  0  0  0  0  0
   -0.9750    4.3390   13.4030 C   0  0  0  0  0  0  0  0  0  0  0  0
    0.2270    4.5060   14.0700 C   0  0  0  0  0  0  0  0  0  0  0  0
    0.2620    5.0700   15.3700 C   0  0  0  0  0  0  0  0  0  0  0  0
    1.6940    5.0810   15.7640 C   0  0  0  0  0  0  0  0  0  0  0  0
    2.1560    5.4920   16.8100 O   0  0  0  0  0  0  0  0  0  0  0  0
    2.4740    4.5100   14.6510 C   0  0  0  0  0  0  0  0  0  0  0  0
    3.8370    4.3170   14.5500 C   0  0  0  0  0  0  0  0  0  0  0  0
    4.3100    3.7510   13.3660 C   0  0  0  0  0  0  0  0  0  0  0  0
    3.4200    3.4020   12.3330 C   0  0  0  0  0  0  0  0  0  0  0  0
    2.0400    3.6110   12.4640 C   0  0  0  0  0  0  0  0  0  0  0  0
    1.5690    4.1730   13.6390 C   0  0  0  0  0  0  0  0  0  0  0  0
   -2.0390    9.1000   19.7420 C   0  0  1  0  0  0  0  0  0  0  0  0
   -2.2570   10.0590   20.7860 O   0  0  0  0  0  0  0  0  0  0  0  0
   -2.8460    9.5390   18.5160 C   0  0  2  0  0  0  0  0  0  0  0  0
   -2.5530    8.6370   17.4300 O   0  0  0  0  0  0  0  0  0  0  0  0
   -2.4770   10.9740   18.0800 C   0  0  2  0  0  0  0  0  0  0  0  0
   -2.8570   11.1100   16.7020 O   0  0  0  0  0  0  0  0  0  0  0  0
    0.1698   13.0081   17.7641 H   0  0  0  0  0  0  0  0  0  0  0  0
    0.3590   11.6379   16.6180 H   0  0  0  0  0  0  0  0  0  0  0  0
   -1.1538   12.6064   16.6180 H   0  0  0  0  0  0  0  0  0  0  0  0
   -0.8541   11.7332   19.2581 H   0  0  0  0  0  0  0  0  0  0  0  0
    0.7900   10.0710   18.1040 H   0  0  0  0  0  0  0  0  0  0  0  0
   -0.5540    9.4400   17.3510 H   0  0  0  0  0  0  0  0  0  0  0  0
    0.0071    9.3973   20.3070 H   0  0  0  0  0  0  0  0  0  0  0  0
    1.0701    7.5984   19.3599 H   0  0  0  0  0  0  0  0  0  0  0  0
   -0.6349    6.9595   19.7435 H   0  0  0  0  0  0  0  0  0  0  0  0
    0.6080    7.3390   17.1390 H   0  0  0  0  0  0  0  0  0  0  0  0
   -3.0461    5.5897   15.8203 H   0  0  0  0  0  0  0  0  0  0  0  0
   -3.1138    4.6123   13.5378 H   0  0  0  0  0  0  0  0  0  0  0  0
   -1.0046    3.9053   12.3925 H   0  0  0  0  0  0  0  0  0  0  0  0
    4.5193    4.5968   15.3662 H   0  0  0  0  0  0  0  0  0  0  0  0
    5.3885    3.5758   13.2385 H   0  0  0  0  0  0  0  0  0  0  0  0
    3.8140    2.9577   11.4071 H   0  0  0  0  0  0  0  0  0  0  0  0
    1.3486    3.3356   11.6540 H   0  0  0  0  0  0  0  0  0  0  0  0
   -2.3645    8.0969   20.0547 H   0  0  0  0  0  0  0  0  0  0  0  0
   -1.4710   10.0040   21.3750 H   0  0  0  0  0  0  0  0  0  0  0  0
   -3.9148    9.5203   18.7755 H   0  0  0  0  0  0  0  0  0  0  0  0
   -1.7580    9.0060   16.9880 H   0  0  0  0  0  0  0  0  0  0  0  0
   -3.0074   11.7143   18.6969 H   0  0  0  0  0  0  0  0  0  0  0  0
   -3.5550   10.4490   16.5190 H   0  0  0  0  0  0  0  0  0  0  0  0
  1  2  1  0
  2  3  1  0
  3  4  1  0
  4  5  1  0
  5  6  1  0
  6  7  1  0
  7  8  2  0
  7  9  1  0
  9 10  2  0
 10 11  1  0
 11 12  2  0
 12 13  1  0
 13 14  2  0
 14 15  1  0
 15 16  2  0
 15 17  1  0
 17 18  2  0
 18 19  1  0
 19 20  2  0
 20 21  1  0
 21 22  2  0
  4 23  1  0
 23 24  1  0
 23 25  1  0
 25 26  1  0
 25 27  1  0
 27 28  1  0
 27  2  1  0
 14  9  1  0
 22 17  1  0
 22 13  1  0
  1 29  1  0
  1 30  1  0
  1 31  1  0
  2 32  1  1
  3 33  1  0
  3 34  1  0
  4 35  1  1
  5 36  1  0
  5 37  1  0
  6 38  1  0
 10 39  1  0
 11 40  1  0
 12 41  1  0
 18 42  1  0
 19 43  1  0
 20 44  1  0
 21 45  1  0
 23 46  1  1
 24 47  1  0
 25 48  1  1
 26 49  1  0
 27 50  1  1
 28 51  1  0
M  CHG  1   3   1
M  END
>  <meeko>  (6) 
{"is_sidechain": [false], "free_energy": -7.844, "intermolecular_energy": -9.694, "internal_energy": -1.051}

$$$$
2xii_ligand
     RDKit          3D

 51 54  0  0  0  0  0  0  0  0999 V2000
   -5.7900    0.7480    9.5460 C   0  0  0  0  0  0  0  0  0  0  0  0
   -6.2890   -0.1510   10.6690 C   0  0  2  0  0  0  0  0  0  0  0  0
   -7.0720    0.6980   11.6400 N   0  0  0  0  0  0  0  0  0  0  0  0
   -7.8930   -0.1540   12.6090 C   0  0  2  0  0  0  0  0  0  0  0  0
   -8.4070    0.7420   13.7580 C   0  0  0  0  0  0  0  0  0  0  0  0
   -7.4410    1.6000   14.4300 N   0  0  0  0  0  0  0  0  0  0  0  0
   -7.1570    2.9000   14.0830 C   0  0  0  0  0  0  0  0  0  0  0  0
   -7.8860    3.5120   13.3030 O   0  0  0  0  0  0  0  0  0  0  0  0
   -5.9820    3.5950   14.6940 C   0  0  0  0  0  0  0  0  0  0  0  0
   -6.1830    4.1490   15.9760 C   0  0  0  0  0  0  0  0  0  0  0  0
   -5.1620    4.8340   16.6620 C   0  0  0  0  0  0  0  0  0  0  0  0
   -3.9030    4.9940   16.0880 C   0  0  0  0  0  0  0  0  0  0  0  0
   -3.6850    4.4630   14.8270 C   0  0  0  0  0  0  0  0  0  0  0  0
   -4.7170    3.7710   14.1440 C   0  0  0  0  0  0  0  0  0  0  0  0
   -4.1320    3.3630   12.8410 C   0  0  0  0  0  0  0  0  0  0  0  0
   -4.6890    2.7400   11.9590 O   0  0  0  0  0  0  0  0  0  0  0  0
   -2.7370    3.8390   12.8030 C   0  0  0  0  0  0  0  0  0  0  0  0
   -1.7950    3.6980   11.8030 C   0  0  0  0  0  0  0  0  0  0  0  0
   -0.5370    4.2540   12.0370 C   0  0  0  0  0  0  0  0  0  0  0  0
   -0.2620    4.9220   13.2450 C   0  0  0  0  0  0  0  0  0  0  0  0
   -1.2390    5.0480   14.2420 C   0  0  0  0  0  0  0  0  0  0  0  0
   -2.4890    4.4980   14.0120 C   0  0  0  0  0  0  0  0  0  0  0  0
   -7.0410   -1.3630   13.0930 C   0  0  1  0  0  0  0  0  0  0  0  0
   -7.3590   -2.5130   12.2990 O   0  0  0  0  0  0  0  0  0  0  0  0
   -5.5450   -1.0720   12.9340 C   0  0  2  0  0  0  0  0  0  0  0  0
   -5.2380    0.1420   13.6470 O   0  0  0  0  0  0  0  0  0  0  0  0
   -5.1620   -0.8840   11.4490 C   0  0  2  0  0  0  0  0  0  0  0  0
   -3.9350   -0.1380   11.4200 O   0  0  0  0  0  0  0  0  0  0  0  0
   -5.2986    1.6333    9.9759 H   0  0  0  0  0  0  0  0  0  0  0  0
   -5.0702    0.1942    8.9254 H   0  0  0  0  0  0  0  0  0  0  0  0
   -6.6407    1.0660    8.9254 H   0  0  0  0  0  0  0  0  0  0  0  0
   -6.9027   -0.9344   10.2002 H   0  0  0  0  0  0  0  0  0  0  0  0
   -7.6790    1.3670   11.1510 H   0  0  0  0  0  0  0  0  0  0  0  0
   -6.3860    1.2440   12.1940 H   0  0  0  0  0  0  0  0  0  0  0  0
   -8.7784   -0.5782   12.1130 H   0  0  0  0  0  0  0  0  0  0  0  0
   -9.1909    1.3922   13.3424 H   0  0  0  0  0  0  0  0  0  0  0  0
   -8.7399    0.0366   14.5336 H   0  0  0  0  0  0  0  0  0  0  0  0
   -6.7610    1.0980   15.0050 H   0  0  0  0  0  0  0  0  0  0  0  0
   -7.1678    4.0424   16.4543 H   0  0  0  0  0  0  0  0  0  0  0  0
   -5.3607    5.2472   17.6619 H   0  0  0  0  0  0  0  0  0  0  0  0
   -3.1029    5.5278   16.6218 H   0  0  0  0  0  0  0  0  0  0  0  0
   -2.0259    3.1716   10.8652 H   0  0  0  0  0  0  0  0  0  0  0  0
    0.2472    4.1695   11.2703 H   0  0  0  0  0  0  0  0  0  0  0  0
    0.7368    5.3525   13.4094 H   0  0  0  0  0  0  0  0  0  0  0  0
   -1.0183    5.5710   15.1842 H   0  0  0  0  0  0  0  0  0  0  0  0
   -7.2677   -1.5431   14.1542 H   0  0  0  0  0  0  0  0  0  0  0  0
   -8.1950   -2.2960   11.8270 H   0  0  0  0  0  0  0  0  0  0  0  0
   -4.9771   -1.9252   13.3335 H   0  0  0  0  0  0  0  0  0  0  0  0
   -5.8310    0.1470   14.4290 H   0  0  0  0  0  0  0  0  0  0  0  0
   -5.0289   -1.8587   10.9567 H   0  0  0  0  0  0  0  0  0  0  0  0
   -3.6480    0.0010   12.3440 H   0  0  0  0  0  0  0  0  0  0  0  0
  1  2  1  0
  2  3  1  0
  3  4  1  0
  4  5  1  0
  5  6  1  0
  6  7  1  0
  7  8  2  0
  7  9  1  0
  9 10  2  0
 10 11  1  0
 11 12  2  0
 12 13  1  0
 13 14  2  0
 14 15  1  0
 15 16  2  0
 15 17  1  0
 17 18  2  0
 18 19  1  0
 19 20  2  0
 20 21  1  0
 21 22  2  0
  4 23  1  0
 23 24  1  0
 23 25  1  0
 25 26  1  0
 25 27  1  0
 27 28  1  0
 27  2  1  0
 14  9  1  0
 22 17  1  0
 22 13  1  0
  1 29  1  0
  1 30  1  0
  1 31  1  0
  2 32  1  6
  3 33  1  0
  3 34  1  0
  4 35  1  6
  5 36  1  0
  5 37  1  0
  6 38  1  0
 10 39  1  0
 11 40  1  0
 12 41  1  0
 18 42  1  0
 19 43  1  0
 20 44  1  0
 21 45  1  0
 23 46  1  1
 24 47  1  0
 25 48  1  1
 26 49  1  0
 27 50  1  6
 28 51  1  0
M  CHG  1   3   1
M  END
>  <meeko>  (7) 
{"is_sidechain": [false], "free_energy": -7.767, "intermolecular_energy": -8.895, "internal_energy": -1.753}

$$$$
2xii_ligand
     RDKit          3D

 51 54  0  0  0  0  0  0  0  0999 V2000
   -2.8570    3.7510   11.2920 C   0  0  0  0  0  0  0  0  0  0  0  0
   -3.5340    3.2130   12.5450 C   0  0  2  0  0  0  0  0  0  0  0  0
   -3.3230    4.2070   13.6600 N   0  0  0  0  0  0  0  0  0  0  0  0
   -4.2400    3.9310   14.8520 C   0  0  2  0  0  0  0  0  0  0  0  0
   -3.7610    4.7650   16.0610 C   0  0  0  0  0  0  0  0  0  0  0  0
   -2.3370    4.7610   16.3640 N   0  0  0  0  0  0  0  0  0  0  0  0
   -1.5610    5.8820   16.5430 C   0  0  0  0  0  0  0  0  0  0  0  0
   -2.0830    6.9870   16.6890 O   0  0  0  0  0  0  0  0  0  0  0  0
   -0.0720    5.7540   16.6130 C   0  0  0  0  0  0  0  0  0  0  0  0
    0.5460    6.2800   17.7680 C   0  0  0  0  0  0  0  0  0  0  0  0
    1.9390    6.2300   17.9570 C   0  0  0  0  0  0  0  0  0  0  0  0
    2.7680    5.6550   16.9960 C   0  0  0  0  0  0  0  0  0  0  0  0
    2.1840    5.1370   15.8530 C   0  0  0  0  0  0  0  0  0  0  0  0
    0.7790    5.1880   15.6700 C   0  0  0  0  0  0  0  0  0  0  0  0
    0.5230    4.5600   14.3480 C   0  0  0  0  0  0  0  0  0  0  0  0
   -0.5590    4.4000   13.8180 O   0  0  0  0  0  0  0  0  0  0  0  0
    1.8210    4.1480   13.7850 C   0  0  0  0  0  0  0  0  0  0  0  0
    2.0920    3.5240   12.5830 C   0  0  0  0  0  0  0  0  0  0  0  0
    3.4290    3.2460   12.3010 C   0  0  0  0  0  0  0  0  0  0  0  0
    4.4420    3.5950   13.2150 C   0  0  0  0  0  0  0  0  0  0  0  0
    4.1360    4.2280   14.4280 C   0  0  0  0  0  0  0  0  0  0  0  0
    2.8090    4.5040   14.7090 C   0  0  0  0  0  0  0  0  0  0  0  0
   -4.2890    2.4000   15.1300 C   0  0  1  0  0  0  0  0  0  0  0  0
   -5.4520    1.8430   14.5020 O   0  0  0  0  0  0  0  0  0  0  0  0
   -3.0540    1.7030   14.5500 C   0  0  2  0  0  0  0  0  0  0  0  0
   -1.8780    2.3270   15.1000 O   0  0  0  0  0  0  0  0  0  0  0  0
   -3.0060    1.8270   13.0110 C   0  0  2  0  0  0  0  0  0  0  0  0
   -1.6410    1.6270   12.6120 O   0  0  0  0  0  0  0  0  0  0  0  0
   -2.0257    4.4116   11.5793 H   0  0  0  0  0  0  0  0  0  0  0  0
   -2.4693    2.9119   10.6957 H   0  0  0  0  0  0  0  0  0  0  0  0
   -3.5869    4.3182   10.6957 H   0  0  0  0  0  0  0  0  0  0  0  0
   -4.5966    3.0741   12.2968 H   0  0  0  0  0  0  0  0  0  0  0  0
   -3.4460    5.1720   13.3320 H   0  0  0  0  0  0  0  0  0  0  0  0
   -2.3420    4.1080   13.9790 H   0  0  0  0  0  0  0  0  0  0  0  0
   -5.2737    4.2406   14.6383 H   0  0  0  0  0  0  0  0  0  0  0  0
   -4.0549    5.8090   15.8772 H   0  0  0  0  0  0  0  0  0  0  0  0
   -4.2322    4.2873   16.9326 H   0  0  0  0  0  0  0  0  0  0  0  0
   -1.8650    3.8790   16.1540 H   0  0  0  0  0  0  0  0  0  0  0  0
   -0.0810    6.7432   18.5441 H   0  0  0  0  0  0  0  0  0  0  0  0
    2.3788    6.6496   18.8738 H   0  0  0  0  0  0  0  0  0  0  0  0
    3.8575    5.6138   17.1418 H   0  0  0  0  0  0  0  0  0  0  0  0
    1.2891    3.2582   11.8797 H   0  0  0  0  0  0  0  0  0  0  0  0
    3.6949    2.7496   11.3561 H   0  0  0  0  0  0  0  0  0  0  0  0
    5.4906    3.3672   12.9732 H   0  0  0  0  0  0  0  0  0  0  0  0
    4.9307    4.4986   15.1388 H   0  0  0  0  0  0  0  0  0  0  0  0
   -4.3182    2.2466   16.2189 H   0  0  0  0  0  0  0  0  0  0  0  0
   -5.2180    0.9160   14.2700 H   0  0  0  0  0  0  0  0  0  0  0  0
   -3.0997    0.6352   14.8101 H   0  0  0  0  0  0  0  0  0  0  0  0
   -1.3410    1.5960   15.4760 H   0  0  0  0  0  0  0  0  0  0  0  0
   -3.6559    1.0738   12.5417 H   0  0  0  0  0  0  0  0  0  0  0  0
   -1.6430    1.3090   11.6880 H   0  0  0  0  0  0  0  0  0  0  0  0
  1  2  1  0
  2  3  1  0
  3  4  1  0
  4  5  1  0
  5  6  1  0
  6  7  1  0
  7  8  2  0
  7  9  1  0
  9 10  2  0
 10 11  1  0
 11 12  2  0
 12 13  1  0
 13 14  2  0
 14 15  1  0
 15 16  2  0
 15 17  1  0
 17 18  2  0
 18 19  1  0
 19 20  2  0
 20 21  1  0
 21 22  2  0
  4 23  1  0
 23 24  1  0
 23 25  1  0
 25 26  1  0
 25 27  1  0
 27 28  1  0
 27  2  1  0
 14  9  1  0
 22 17  1  0
 22 13  1  0
  1 29  1  0
  1 30  1  0
  1 31  1  0
  2 32  1  6
  3 33  1  0
  3 34  1  0
  4 35  1  6
  5 36  1  0
  5 37  1  0
  6 38  1  0
 10 39  1  0
 11 40  1  0
 12 41  1  0
 18 42  1  0
 19 43  1  0
 20 44  1  0
 21 45  1  0
 23 46  1  1
 24 47  1  0
 25 48  1  6
 26 49  1  0
 27 50  1  6
 28 51  1  0
M  CHG  1   3   1
M  END
>  <meeko>  (8) 
{"is_sidechain": [false], "free_energy": -7.759, "intermolecular_energy": -8.751, "internal_energy": -1.886}

$$$$
2xii_ligand
     RDKit          3D

 51 54  0  0  0  0  0  0  0  0999 V2000
   -2.2100   -1.1830   11.8740 C   0  0  0  0  0  0  0  0  0  0  0  0
   -3.4310   -0.4810   11.2970 C   0  0  2  0  0  0  0  0  0  0  0  0
   -3.3160    0.9930   11.6000 N   0  0  0  0  0  0  0  0  0  0  0  0
   -4.3040    1.8230   10.7800 C   0  0  2  0  0  0  0  0  0  0  0  0
   -4.3610    3.2550   11.3570 C   0  0  0  0  0  0  0  0  0  0  0  0
   -3.3190    3.6480   12.2970 N   0  0  0  0  0  0  0  0  0  0  0  0
   -3.4840    3.7790   13.6550 C   0  0  0  0  0  0  0  0  0  0  0  0
   -4.4920    3.3370   14.2080 O   0  0  0  0  0  0  0  0  0  0  0  0
   -2.4100    4.4160   14.4790 C   0  0  0  0  0  0  0  0  0  0  0  0
   -2.8430    5.2870   15.5020 C   0  0  0  0  0  0  0  0  0  0  0  0
   -1.9360    5.9540   16.3460 C   0  0  0  0  0  0  0  0  0  0  0  0
   -0.5630    5.7790   16.1960 C   0  0  0  0  0  0  0  0  0  0  0  0
   -0.1150    4.9330   15.1950 C   0  0  0  0  0  0  0  0  0  0  0  0
   -1.0340    4.2600   14.3500 C   0  0  0  0  0  0  0  0  0  0  0  0
   -0.2060    3.4660   13.4070 C   0  0  0  0  0  0  0  0  0  0  0  0
   -0.6110    2.7400   12.5210 O   0  0  0  0  0  0  0  0  0  0  0  0
    1.2100    3.7030   13.7400 C   0  0  0  0  0  0  0  0  0  0  0  0
    2.3440    3.1850   13.1460 C   0  0  0  0  0  0  0  0  0  0  0  0
    3.5730    3.5830   13.6730 C   0  0  0  0  0  0  0  0  0  0  0  0
    3.6310    4.4740   14.7610 C   0  0  0  0  0  0  0  0  0  0  0  0
    2.4620    4.9840   15.3440 C   0  0  0  0  0  0  0  0  0  0  0  0
    1.2410    4.5890   14.8230 C   0  0  0  0  0  0  0  0  0  0  0  0
   -5.6860    1.1090   10.7480 C   0  0  1  0  0  0  0  0  0  0  0  0
   -5.7970    0.3480    9.5370 O   0  0  0  0  0  0  0  0  0  0  0  0
   -5.8270    0.1440   11.9300 C   0  0  2  0  0  0  0  0  0  0  0  0
   -5.6150    0.8830   13.1490 O   0  0  0  0  0  0  0  0  0  0  0  0
   -4.7870   -0.9960   11.8560 C   0  0  2  0  0  0  0  0  0  0  0  0
   -4.6390   -1.5220   13.1840 O   0  0  0  0  0  0  0  0  0  0  0  0
   -2.2567   -1.1562   12.9727 H   0  0  0  0  0  0  0  0  0  0  0  0
   -2.1931   -2.2287   11.5332 H   0  0  0  0  0  0  0  0  0  0  0  0
   -1.2978   -0.6715   11.5332 H   0  0  0  0  0  0  0  0  0  0  0  0
   -3.4380   -0.6926   10.2176 H   0  0  0  0  0  0  0  0  0  0  0  0
   -2.3580    1.3330   11.4540 H   0  0  0  0  0  0  0  0  0  0  0  0
   -3.5430    1.1190   12.6030 H   0  0  0  0  0  0  0  0  0  0  0  0
   -3.9759    1.9111    9.7338 H   0  0  0  0  0  0  0  0  0  0  0  0
   -4.3182    3.9533   10.5081 H   0  0  0  0  0  0  0  0  0  0  0  0
   -5.2904    3.2814   11.9448 H   0  0  0  0  0  0  0  0  0  0  0  0
   -2.5160    4.1090   11.8640 H   0  0  0  0  0  0  0  0  0  0  0  0
   -3.9217    5.4491   15.6436 H   0  0  0  0  0  0  0  0  0  0  0  0
   -2.3162    6.6214   17.1334 H   0  0  0  0  0  0  0  0  0  0  0  0
    0.1475    6.2991   16.8553 H   0  0  0  0  0  0  0  0  0  0  0  0
    2.2811    2.4900   12.2957 H   0  0  0  0  0  0  0  0  0  0  0  0
    4.5049    3.1970   13.2343 H   0  0  0  0  0  0  0  0  0  0  0  0
    4.6103    4.7756   15.1610 H   0  0  0  0  0  0  0  0  0  0  0  0
    2.5135    5.6804   16.1939 H   0  0  0  0  0  0  0  0  0  0  0  0
   -6.4723    1.8761   10.8052 H   0  0  0  0  0  0  0  0  0  0  0  0
   -4.9770    0.5320    9.0250 H   0  0  0  0  0  0  0  0  0  0  0  0
   -6.8322   -0.3018   11.9007 H   0  0  0  0  0  0  0  0  0  0  0  0
   -5.3490    0.2170   13.8200 H   0  0  0  0  0  0  0  0  0  0  0  0
   -5.1260   -1.7846   11.1682 H   0  0  0  0  0  0  0  0  0  0  0  0
   -5.4980   -1.4230   13.6410 H   0  0  0  0  0  0  0  0  0  0  0  0
  1  2  1  0
  2  3  1  0
  3  4  1  0
  4  5  1  0
  5  6  1  0
  6  7  1  0
  7  8  2  0
  7  9  1  0
  9 10  2  0
 10 11  1  0
 11 12  2  0
 12 13  1  0
 13 14  2  0
 14 15  1  0
 15 16  2  0
 15 17  1  0
 17 18  2  0
 18 19  1  0
 19 20  2  0
 20 21  1  0
 21 22  2  0
  4 23  1  0
 23 24  1  0
 23 25  1  0
 25 26  1  0
 25 27  1  0
 27 28  1  0
 27  2  1  0
 14  9  1  0
 22 17  1  0
 22 13  1  0
  1 29  1  0
  1 30  1  0
  1 31  1  0
  2 32  1  6
  3 33  1  0
  3 34  1  0
  4 35  1  6
  5 36  1  0
  5 37  1  0
  6 38  1  0
 10 39  1  0
 11 40  1  0
 12 41  1  0
 18 42  1  0
 19 43  1  0
 20 44  1  0
 21 45  1  0
 23 46  1  6
 24 47  1  0
 25 48  1  1
 26 49  1  0
 27 50  1  6
 28 51  1  0
M  CHG  1   3   1
M  END
>  <meeko>  (9) 
{"is_sidechain": [false], "free_energy": -7.752, "intermolecular_energy": -9.468, "internal_energy": -1.161}

$$$$
