
     RDKit          3D

 16 17  0  0  0  0  0  0  0  0999 V2000
   -5.7780   -3.3560   -1.1710 N   0  0  0  0  0  0  0  0  0  0  0  0
   -5.8830   -4.7010   -1.0140 C   0  0  0  0  0  0  0  0  0  0  0  0
   -5.6920   -5.2330    0.2120 N   0  0  0  0  0  0  0  0  0  0  0  0
   -5.7830   -6.5710    0.3980 C   0  0  0  0  0  0  0  0  0  0  0  0
   -5.5580   -7.1390    1.7560 C   0  0  0  0  0  0  0  0  0  0  0  0
   -4.0880   -7.5860    1.8260 C   0  0  0  0  0  0  0  0  0  0  0  0
   -3.9070   -9.0110    2.2930 C   0  0  0  0  0  0  0  0  0  0  0  0
   -3.0110   -9.2930    3.3210 C   0  0  0  0  0  0  0  0  0  0  0  0
   -2.8230  -10.6000    3.7490 C   0  0  0  0  0  0  0  0  0  0  0  0
   -3.5140  -11.6400    3.1390 C   0  0  0  0  0  0  0  0  0  0  0  0
   -4.4100  -11.3700    2.1130 C   0  0  0  0  0  0  0  0  0  0  0  0
   -4.6050  -10.0660    1.6930 C   0  0  0  0  0  0  0  0  0  0  0  0
   -6.0650   -7.4020   -0.6720 C   0  0  0  0  0  0  0  0  0  0  0  0
   -6.2760   -6.8310   -1.9510 C   0  0  0  0  0  0  0  0  0  0  0  0
   -6.5360   -7.5320   -2.9370 O   0  0  0  0  0  0  0  0  0  0  0  0
   -6.1800   -5.4640   -2.0800 N   0  0  0  0  0  0  0  0  0  0  0  0
  2  1  1  0
  3  2  2  0
  4  3  1  0
  5  4  1  0
  6  5  1  0
  7  6  1  0
  8  7  2  0
  9  8  1  0
 10  9  2  0
 11 10  1  0
 12 11  2  0
 12  7  1  0
 13  4  2  0
 14 13  1  0
 15 14  2  0
 16 14  1  0
 16  2  1  0
M  END
$$$$
