3ejr_ligand
     RDKit          3D

 55 57  0  0  0  0  0  0  0  0999 V2000
    3.2880   27.8020    5.8950 C   0  0  0  0  0  0  0  0  0  0  0  0
    3.3950   28.4830    4.5130 C   0  0  0  0  0  0  0  0  0  0  0  0
    2.1200   29.3330    4.3230 C   0  0  0  0  0  0  0  0  0  0  0  0
    4.6250   29.4150    4.5580 C   0  0  0  0  0  0  0  0  0  0  0  0
    3.5370   27.4940    3.3400 C   0  0  0  0  0  0  0  0  0  0  0  0
    2.5860   26.4990    3.0650 C   0  0  0  0  0  0  0  0  0  0  0  0
    2.7410   25.6120    1.9900 C   0  0  0  0  0  0  0  0  0  0  0  0
    3.8610   25.6990    1.1610 C   0  0  0  0  0  0  0  0  0  0  0  0
    4.0780   24.7830    0.0030 C   0  0  0  0  0  0  0  0  0  0  0  0
    5.2200   24.4690   -0.3270 O   0  0  0  0  0  0  0  0  0  0  0  0
    2.8800   24.2660   -0.7720 C   0  0  0  0  0  0  0  0  0  0  0  0
    3.3310   23.7140   -2.1330 C   0  0  1  0  0  0  0  0  0  0  0  0
    2.8060   22.2810   -2.4060 C   0  0  0  0  0  0  0  0  0  0  0  0
    1.7590   22.1650   -3.5340 C   0  0  0  0  0  0  0  0  0  0  0  0
    0.7270   23.2950   -3.4900 C   0  0  1  0  0  0  0  0  0  0  0  0
    0.0070   23.1530   -2.2560 O   0  0  0  0  0  0  0  0  0  0  0  0
    1.3740   24.6940   -3.4780 C   0  0  2  0  0  0  0  0  0  0  0  0
    1.3920   25.4720   -4.7900 C   0  0  2  0  0  0  0  0  0  0  0  0
    1.9260   24.6220   -5.8190 O   0  0  0  0  0  0  0  0  0  0  0  0
    2.4120   26.5960   -4.4950 C   0  0  2  0  0  0  0  0  0  0  0  0
    3.0390   26.9640   -5.7210 O   0  0  0  0  0  0  0  0  0  0  0  0
    3.4090   25.9720   -3.4830 C   0  0  0  0  0  0  0  0  0  0  0  0
    2.8810   24.5770   -3.2730 N   0  0  1  0  0  0  0  0  0  0  0  0
    4.8180   26.6850    1.4150 C   0  0  0  0  0  0  0  0  0  0  0  0
    4.6560   27.5670    2.4900 C   0  0  0  0  0  0  0  0  0  0  0  0
    3.4066   28.5571    6.6860 H   0  0  0  0  0  0  0  0  0  0  0  0
    2.3033   27.3213    5.9917 H   0  0  0  0  0  0  0  0  0  0  0  0
    4.0778   27.0425    5.9917 H   0  0  0  0  0  0  0  0  0  0  0  0
    1.7111   29.6056    5.3071 H   0  0  0  0  0  0  0  0  0  0  0  0
    2.3685   30.2468    3.7633 H   0  0  0  0  0  0  0  0  0  0  0  0
    1.3721   28.7522    3.7633 H   0  0  0  0  0  0  0  0  0  0  0  0
    4.8930   29.6181    5.6053 H   0  0  0  0  0  0  0  0  0  0  0  0
    5.4716   28.9296    4.0504 H   0  0  0  0  0  0  0  0  0  0  0  0
    4.3868   30.3613    4.0504 H   0  0  0  0  0  0  0  0  0  0  0  0
    1.6978   26.4129    3.7082 H   0  0  0  0  0  0  0  0  0  0  0  0
    1.9767   24.8442    1.7990 H   0  0  0  0  0  0  0  0  0  0  0  0
    2.3931   23.4643   -0.1973 H   0  0  0  0  0  0  0  0  0  0  0  0
    2.1722   25.0922   -0.9348 H   0  0  0  0  0  0  0  0  0  0  0  0
    4.4293   23.7014   -2.0732 H   0  0  0  0  0  0  0  0  0  0  0  0
    3.6658   21.6496   -2.6744 H   0  0  0  0  0  0  0  0  0  0  0  0
    2.2961   21.9635   -1.4844 H   0  0  0  0  0  0  0  0  0  0  0  0
    2.2784   22.1984   -4.5031 H   0  0  0  0  0  0  0  0  0  0  0  0
    1.2222   21.2147   -3.3973 H   0  0  0  0  0  0  0  0  0  0  0  0
    0.0938   23.2195   -4.3863 H   0  0  0  0  0  0  0  0  0  0  0  0
   -0.9470   23.1240   -2.4690 H   0  0  0  0  0  0  0  0  0  0  0  0
    0.7655   25.1916   -2.7085 H   0  0  0  0  0  0  0  0  0  0  0  0
    0.4053   25.8344   -5.1143 H   0  0  0  0  0  0  0  0  0  0  0  0
    2.9010   24.6190   -5.6770 H   0  0  0  0  0  0  0  0  0  0  0  0
    1.9678   27.5110   -4.0761 H   0  0  0  0  0  0  0  0  0  0  0  0
    3.7090   26.2920   -5.9510 H   0  0  0  0  0  0  0  0  0  0  0  0
    4.4267   25.9473   -3.8998 H   0  0  0  0  0  0  0  0  0  0  0  0
    3.4803   26.5455   -2.5470 H   0  0  0  0  0  0  0  0  0  0  0  0
    3.2050   24.0900   -4.1320 H   0  0  0  0  0  0  0  0  0  0  0  0
    5.7030   26.7686    0.7671 H   0  0  0  0  0  0  0  0  0  0  0  0
    5.4214   28.3351    2.6745 H   0  0  0  0  0  0  0  0  0  0  0  0
  1  2  1  0
  2  3  1  0
  2  4  1  0
  2  5  1  0
  5  6  2  0
  6  7  1  0
  7  8  2  0
  8  9  1  0
  9 10  2  0
  9 11  1  0
 11 12  1  0
 12 13  1  0
 13 14  1  0
 14 15  1  0
 15 16  1  0
 15 17  1  0
 17 18  1  0
 18 19  1  0
 18 20  1  0
 20 21  1  0
 20 22  1  0
 22 23  1  0
  8 24  1  0
 24 25  2  0
 25  5  1  0
 23 12  1  0
 23 17  1  0
  1 26  1  0
  1 27  1  0
  1 28  1  0
  3 29  1  0
  3 30  1  0
  3 31  1  0
  4 32  1  0
  4 33  1  0
  4 34  1  0
  6 35  1  0
  7 36  1  0
 11 37  1  0
 11 38  1  0
 12 39  1  1
 13 40  1  0
 13 41  1  0
 14 42  1  0
 14 43  1  0
 15 44  1  6
 16 45  1  0
 17 46  1  1
 18 47  1  6
 19 48  1  0
 20 49  1  1
 21 50  1  0
 22 51  1  0
 22 52  1  0
 23 53  1  6
 24 54  1  0
 25 55  1  0
M  CHG  1  23   1
M  END
>  <meeko>  (1) 
{"is_sidechain": [false], "free_energy": -7.277, "intermolecular_energy": -9.616, "internal_energy": -0.762}

$$$$
3ejr_ligand
     RDKit          3D

 55 57  0  0  0  0  0  0  0  0999 V2000
    4.5710   29.8730    5.6520 C   0  0  0  0  0  0  0  0  0  0  0  0
    3.5050   28.7770    5.4310 C   0  0  0  0  0  0  0  0  0  0  0  0
    3.5750   27.8230    6.6440 C   0  0  0  0  0  0  0  0  0  0  0  0
    2.1290   29.4760    5.4130 C   0  0  0  0  0  0  0  0  0  0  0  0
    3.6960   27.9750    4.1300 C   0  0  0  0  0  0  0  0  0  0  0  0
    2.8220   26.9500    3.7320 C   0  0  0  0  0  0  0  0  0  0  0  0
    3.0210   26.2370    2.5420 C   0  0  0  0  0  0  0  0  0  0  0  0
    4.1080   26.5310    1.7160 C   0  0  0  0  0  0  0  0  0  0  0  0
    4.3690   25.8050    0.4390 C   0  0  0  0  0  0  0  0  0  0  0  0
    5.4750   25.3130    0.2260 O   0  0  0  0  0  0  0  0  0  0  0  0
    3.2650   25.7030   -0.5970 C   0  0  0  0  0  0  0  0  0  0  0  0
    3.7400   24.8590   -1.7910 C   0  0  1  0  0  0  0  0  0  0  0  0
    4.1570   23.4220   -1.3850 C   0  0  0  0  0  0  0  0  0  0  0  0
    3.2360   22.2970   -1.8990 C   0  0  0  0  0  0  0  0  0  0  0  0
    1.7530   22.6580   -1.7820 C   0  0  1  0  0  0  0  0  0  0  0  0
    1.4700   22.8010   -0.3820 O   0  0  0  0  0  0  0  0  0  0  0  0
    1.4100   24.0020   -2.4530 C   0  0  2  0  0  0  0  0  0  0  0  0
    0.7490   23.9550   -3.8270 C   0  0  2  0  0  0  0  0  0  0  0  0
    1.5210   23.0900   -4.6770 O   0  0  0  0  0  0  0  0  0  0  0  0
    0.9080   25.4110   -4.3220 C   0  0  2  0  0  0  0  0  0  0  0  0
    0.9830   25.3930   -5.7450 O   0  0  0  0  0  0  0  0  0  0  0  0
    2.2220   25.9120   -3.6650 C   0  0  0  0  0  0  0  0  0  0  0  0
    2.6890   24.7330   -2.8520 N   0  0  1  0  0  0  0  0  0  0  0  0
    4.9880   27.5500    2.0930 C   0  0  0  0  0  0  0  0  0  0  0  0
    4.7830   28.2580    3.2820 C   0  0  0  0  0  0  0  0  0  0  0  0
    4.7206   30.0268    6.7309 H   0  0  0  0  0  0  0  0  0  0  0  0
    5.5196   29.5601    5.1912 H   0  0  0  0  0  0  0  0  0  0  0  0
    4.2319   30.8125    5.1912 H   0  0  0  0  0  0  0  0  0  0  0  0
    3.5320   28.4087    7.5741 H   0  0  0  0  0  0  0  0  0  0  0  0
    2.7257   27.1248    6.6108 H   0  0  0  0  0  0  0  0  0  0  0  0
    4.5171   27.2562    6.6108 H   0  0  0  0  0  0  0  0  0  0  0  0
    1.7913   29.6475    6.4457 H   0  0  0  0  0  0  0  0  0  0  0  0
    2.2143   30.4401    4.8902 H   0  0  0  0  0  0  0  0  0  0  0  0
    1.4007   28.8386    4.8902 H   0  0  0  0  0  0  0  0  0  0  0  0
    1.9609   26.7010    4.3695 H   0  0  0  0  0  0  0  0  0  0  0  0
    2.3170   25.4413    2.2570 H   0  0  0  0  0  0  0  0  0  0  0  0
    2.3826   25.2280   -0.1433 H   0  0  0  0  0  0  0  0  0  0  0  0
    3.0060   26.7125   -0.9490 H   0  0  0  0  0  0  0  0  0  0  0  0
    4.6131   25.4031   -2.1804 H   0  0  0  0  0  0  0  0  0  0  0  0
    5.1684   23.2385   -1.7767 H   0  0  0  0  0  0  0  0  0  0  0  0
    4.0956   23.3868   -0.2873 H   0  0  0  0  0  0  0  0  0  0  0  0
    3.4703   22.1040   -2.9563 H   0  0  0  0  0  0  0  0  0  0  0  0
    3.4147   21.4070   -1.2777 H   0  0  0  0  0  0  0  0  0  0  0  0
    1.1658   21.8708   -2.2776 H   0  0  0  0  0  0  0  0  0  0  0  0
    0.6610   22.2860   -0.1870 H   0  0  0  0  0  0  0  0  0  0  0  0
    0.7525   24.4465   -1.6914 H   0  0  0  0  0  0  0  0  0  0  0  0
   -0.2906   23.5957   -3.8166 H   0  0  0  0  0  0  0  0  0  0  0  0
    2.1760   23.6760   -5.1210 H   0  0  0  0  0  0  0  0  0  0  0  0
    0.0721   26.0740   -4.0542 H   0  0  0  0  0  0  0  0  0  0  0  0
    1.0230   26.3120   -6.0740 H   0  0  0  0  0  0  0  0  0  0  0  0
    2.9655   26.1796   -4.4302 H   0  0  0  0  0  0  0  0  0  0  0  0
    2.0757   26.8170   -3.0570 H   0  0  0  0  0  0  0  0  0  0  0  0
    3.1030   24.1180   -3.5790 H   0  0  0  0  0  0  0  0  0  0  0  0
    5.8465   27.7964    1.4509 H   0  0  0  0  0  0  0  0  0  0  0  0
    5.4882   29.0549    3.5608 H   0  0  0  0  0  0  0  0  0  0  0  0
  1  2  1  0
  2  3  1  0
  2  4  1  0
  2  5  1  0
  5  6  2  0
  6  7  1  0
  7  8  2  0
  8  9  1  0
  9 10  2  0
  9 11  1  0
 11 12  1  0
 12 13  1  0
 13 14  1  0
 14 15  1  0
 15 16  1  0
 15 17  1  0
 17 18  1  0
 18 19  1  0
 18 20  1  0
 20 21  1  0
 20 22  1  0
 22 23  1  0
  8 24  1  0
 24 25  2  0
 25  5  1  0
 23 12  1  0
 23 17  1  0
  1 26  1  0
  1 27  1  0
  1 28  1  0
  3 29  1  0
  3 30  1  0
  3 31  1  0
  4 32  1  0
  4 33  1  0
  4 34  1  0
  6 35  1  0
  7 36  1  0
 11 37  1  0
 11 38  1  0
 12 39  1  6
 13 40  1  0
 13 41  1  0
 14 42  1  0
 14 43  1  0
 15 44  1  6
 16 45  1  0
 17 46  1  1
 18 47  1  1
 19 48  1  0
 20 49  1  6
 21 50  1  0
 22 51  1  0
 22 52  1  0
 23 53  1  6
 24 54  1  0
 25 55  1  0
M  CHG  1  23   1
M  END
>  <meeko>  (2) 
{"is_sidechain": [false], "free_energy": -6.706, "intermolecular_energy": -9.467, "internal_energy": -0.157}

$$$$
3ejr_ligand
     RDKit          3D

 55 57  0  0  0  0  0  0  0  0999 V2000
    2.3280   24.9030   -5.5570 C   0  0  0  0  0  0  0  0  0  0  0  0
    1.5370   24.5810   -4.2700 C   0  0  0  0  0  0  0  0  0  0  0  0
    0.2280   25.3980   -4.3230 C   0  0  0  0  0  0  0  0  0  0  0  0
    1.1990   23.0750   -4.3070 C   0  0  0  0  0  0  0  0  0  0  0  0
    2.2990   24.9090   -2.9720 C   0  0  0  0  0  0  0  0  0  0  0  0
    2.7380   26.2050   -2.6540 C   0  0  0  0  0  0  0  0  0  0  0  0
    3.4290   26.4740   -1.4650 C   0  0  0  0  0  0  0  0  0  0  0  0
    3.7030   25.4470   -0.5600 C   0  0  0  0  0  0  0  0  0  0  0  0
    4.4340   25.6760    0.7210 C   0  0  0  0  0  0  0  0  0  0  0  0
    5.6580   25.5680    0.7570 O   0  0  0  0  0  0  0  0  0  0  0  0
    3.6510   26.0170    1.9750 C   0  0  0  0  0  0  0  0  0  0  0  0
    3.1480   27.4680    1.9020 C   0  0  1  0  0  0  0  0  0  0  0  0
    1.6790   27.5720    1.4170 C   0  0  0  0  0  0  0  0  0  0  0  0
    0.6650   28.0490    2.4780 C   0  0  0  0  0  0  0  0  0  0  0  0
    0.9090   27.4100    3.8470 C   0  0  1  0  0  0  0  0  0  0  0  0
    0.6940   25.9990    3.6920 O   0  0  0  0  0  0  0  0  0  0  0  0
    2.3560   27.5950    4.3440 C   0  0  2  0  0  0  0  0  0  0  0  0
    2.6090   28.6760    5.3890 C   0  0  2  0  0  0  0  0  0  0  0  0
    2.0180   29.9040    4.9310 O   0  0  0  0  0  0  0  0  0  0  0  0
    4.1480   28.8210    5.3510 C   0  0  2  0  0  0  0  0  0  0  0  0
    4.4790   30.1610    5.7100 O   0  0  0  0  0  0  0  0  0  0  0  0
    4.5430   28.4830    3.8890 C   0  0  0  0  0  0  0  0  0  0  0  0
    3.2280   28.1640    3.2280 N   0  0  1  0  0  0  0  0  0  0  0  0
    3.2710   24.1510   -0.8560 C   0  0  0  0  0  0  0  0  0  0  0  0
    2.5810   23.8900   -2.0440 C   0  0  0  0  0  0  0  0  0  0  0  0
    3.3161   25.3053   -5.2891 H   0  0  0  0  0  0  0  0  0  0  0  0
    2.4542   23.9847   -6.1492 H   0  0  0  0  0  0  0  0  0  0  0  0
    1.7770   25.6484   -6.1492 H   0  0  0  0  0  0  0  0  0  0  0  0
   -0.1131   25.6109   -3.2991 H   0  0  0  0  0  0  0  0  0  0  0  0
    0.4078   26.3445   -4.8538 H   0  0  0  0  0  0  0  0  0  0  0  0
   -0.5433   24.8207   -4.8538 H   0  0  0  0  0  0  0  0  0  0  0  0
    1.1133   22.6931   -3.2790 H   0  0  0  0  0  0  0  0  0  0  0  0
    0.2451   22.9261   -4.8342 H   0  0  0  0  0  0  0  0  0  0  0  0
    1.9978   22.5328   -4.8342 H   0  0  0  0  0  0  0  0  0  0  0  0
    2.5345   27.0280   -3.3549 H   0  0  0  0  0  0  0  0  0  0  0  0
    3.7574   27.5002   -1.2435 H   0  0  0  0  0  0  0  0  0  0  0  0
    2.7908   25.3372    2.0636 H   0  0  0  0  0  0  0  0  0  0  0  0
    4.3062   25.9054    2.8515 H   0  0  0  0  0  0  0  0  0  0  0  0
    3.8148   27.9533    1.1741 H   0  0  0  0  0  0  0  0  0  0  0  0
    1.6485   28.2800    0.5757 H   0  0  0  0  0  0  0  0  0  0  0  0
    1.3760   26.5501    1.1453 H   0  0  0  0  0  0  0  0  0  0  0  0
    0.7464   29.1414    2.5785 H   0  0  0  0  0  0  0  0  0  0  0  0
   -0.3384   27.7488    2.1418 H   0  0  0  0  0  0  0  0  0  0  0  0
    0.2353   27.8863    4.5745 H   0  0  0  0  0  0  0  0  0  0  0  0
    1.3100   25.6780    3.0040 H   0  0  0  0  0  0  0  0  0  0  0  0
    2.5674   26.5869    4.7300 H   0  0  0  0  0  0  0  0  0  0  0  0
    2.2039   28.4446    6.3852 H   0  0  0  0  0  0  0  0  0  0  0  0
    1.0520   29.7240    4.8730 H   0  0  0  0  0  0  0  0  0  0  0  0
    4.6823   28.1613    6.0505 H   0  0  0  0  0  0  0  0  0  0  0  0
    5.0190   30.5570    4.9980 H   0  0  0  0  0  0  0  0  0  0  0  0
    5.0268   29.3439    3.4045 H   0  0  0  0  0  0  0  0  0  0  0  0
    5.2648   27.6555    3.8231 H   0  0  0  0  0  0  0  0  0  0  0  0
    2.8290   29.1090    3.0660 H   0  0  0  0  0  0  0  0  0  0  0  0
    3.4749   23.3320   -0.1506 H   0  0  0  0  0  0  0  0  0  0  0  0
    2.2507   22.8628   -2.2581 H   0  0  0  0  0  0  0  0  0  0  0  0
  1  2  1  0
  2  3  1  0
  2  4  1  0
  2  5  1  0
  5  6  2  0
  6  7  1  0
  7  8  2  0
  8  9  1  0
  9 10  2  0
  9 11  1  0
 11 12  1  0
 12 13  1  0
 13 14  1  0
 14 15  1  0
 15 16  1  0
 15 17  1  0
 17 18  1  0
 18 19  1  0
 18 20  1  0
 20 21  1  0
 20 22  1  0
 22 23  1  0
  8 24  1  0
 24 25  2  0
 25  5  1  0
 23 12  1  0
 23 17  1  0
  1 26  1  0
  1 27  1  0
  1 28  1  0
  3 29  1  0
  3 30  1  0
  3 31  1  0
  4 32  1  0
  4 33  1  0
  4 34  1  0
  6 35  1  0
  7 36  1  0
 11 37  1  0
 11 38  1  0
 12 39  1  6
 13 40  1  0
 13 41  1  0
 14 42  1  0
 14 43  1  0
 15 44  1  1
 16 45  1  0
 17 46  1  1
 18 47  1  1
 19 48  1  0
 20 49  1  1
 21 50  1  0
 22 51  1  0
 22 52  1  0
 23 53  1  6
 24 54  1  0
 25 55  1  0
M  CHG  1  23   1
M  END
>  <meeko>  (3) 
{"is_sidechain": [false], "free_energy": -6.639, "intermolecular_energy": -8.769, "internal_energy": -0.767}

$$$$
3ejr_ligand
     RDKit          3D

 55 57  0  0  0  0  0  0  0  0999 V2000
    4.3540   29.2900    4.6430 C   0  0  0  0  0  0  0  0  0  0  0  0
    3.2830   28.2890    4.1540 C   0  0  0  0  0  0  0  0  0  0  0  0
    2.8610   27.4410    5.3740 C   0  0  0  0  0  0  0  0  0  0  0  0
    2.0730   29.1170    3.6680 C   0  0  0  0  0  0  0  0  0  0  0  0
    3.7650   27.3640    3.0220 C   0  0  0  0  0  0  0  0  0  0  0  0
    4.9850   27.5520    2.3530 C   0  0  0  0  0  0  0  0  0  0  0  0
    5.3990   26.6930    1.3250 C   0  0  0  0  0  0  0  0  0  0  0  0
    4.5960   25.6190    0.9370 C   0  0  0  0  0  0  0  0  0  0  0  0
    4.9860   24.6730   -0.1490 C   0  0  0  0  0  0  0  0  0  0  0  0
    5.7540   23.7430    0.0920 O   0  0  0  0  0  0  0  0  0  0  0  0
    4.4470   24.8860   -1.5510 C   0  0  0  0  0  0  0  0  0  0  0  0
    2.9310   25.1340   -1.5000 C   0  0  1  0  0  0  0  0  0  0  0  0
    2.5600   26.6320   -1.6510 C   0  0  0  0  0  0  0  0  0  0  0  0
    1.8340   27.0030   -2.9600 C   0  0  0  0  0  0  0  0  0  0  0  0
    2.4370   26.3020   -4.1810 C   0  0  1  0  0  0  0  0  0  0  0  0
    3.7820   26.7860   -4.3160 O   0  0  0  0  0  0  0  0  0  0  0  0
    2.5200   24.7730   -4.0110 C   0  0  2  0  0  0  0  0  0  0  0  0
    1.4580   23.9280   -4.7070 C   0  0  2  0  0  0  0  0  0  0  0  0
    0.1620   24.4540   -4.3730 O   0  0  0  0  0  0  0  0  0  0  0  0
    1.6270   22.5520   -4.0230 C   0  0  2  0  0  0  0  0  0  0  0  0
    0.3640   21.8900   -4.0330 O   0  0  0  0  0  0  0  0  0  0  0  0
    2.1140   22.8800   -2.5870 C   0  0  0  0  0  0  0  0  0  0  0  0
    2.1970   24.3840   -2.5710 N   0  0  1  0  0  0  0  0  0  0  0  0
    3.3800   25.4120    1.5930 C   0  0  0  0  0  0  0  0  0  0  0  0
    2.9730   26.2730    2.6180 C   0  0  0  0  0  0  0  0  0  0  0  0
    4.3684   29.3034    5.7428 H   0  0  0  0  0  0  0  0  0  0  0  0
    5.3413   28.9834    4.2671 H   0  0  0  0  0  0  0  0  0  0  0  0
    4.1147   30.2957    4.2671 H   0  0  0  0  0  0  0  0  0  0  0  0
    3.1258   27.9731    6.2996 H   0  0  0  0  0  0  0  0  0  0  0  0
    1.7743   27.2731    5.3456 H   0  0  0  0  0  0  0  0  0  0  0  0
    3.3824   26.4728    5.3456 H   0  0  0  0  0  0  0  0  0  0  0  0
    1.5165   29.4978    4.5371 H   0  0  0  0  0  0  0  0  0  0  0  0
    2.4276   29.9626    3.0604 H   0  0  0  0  0  0  0  0  0  0  0  0
    1.4132   28.4802    3.0604 H   0  0  0  0  0  0  0  0  0  0  0  0
    5.6317   28.3935    2.6423 H   0  0  0  0  0  0  0  0  0  0  0  0
    6.3616   26.8663    0.8216 H   0  0  0  0  0  0  0  0  0  0  0  0
    4.9435   25.7570   -2.0036 H   0  0  0  0  0  0  0  0  0  0  0  0
    4.6456   23.9878   -2.1542 H   0  0  0  0  0  0  0  0  0  0  0  0
    2.6277   24.7755   -0.5053 H   0  0  0  0  0  0  0  0  0  0  0  0
    1.9059   26.9064   -0.8102 H   0  0  0  0  0  0  0  0  0  0  0  0
    3.5130   27.1811   -1.6659 H   0  0  0  0  0  0  0  0  0  0  0  0
    0.7767   26.7124   -2.8722 H   0  0  0  0  0  0  0  0  0  0  0  0
    1.9429   28.0875   -3.1082 H   0  0  0  0  0  0  0  0  0  0  0  0
    1.7984   26.5135   -5.0513 H   0  0  0  0  0  0  0  0  0  0  0  0
    4.3830   26.0180   -4.2470 H   0  0  0  0  0  0  0  0  0  0  0  0
    3.5284   24.5806   -4.4061 H   0  0  0  0  0  0  0  0  0  0  0  0
    1.5506   23.8992   -5.8027 H   0  0  0  0  0  0  0  0  0  0  0  0
   -0.2760   24.6380   -5.2360 H   0  0  0  0  0  0  0  0  0  0  0  0
    2.3424   21.8826   -4.5231 H   0  0  0  0  0  0  0  0  0  0  0  0
   -0.2820   22.4430   -4.5140 H   0  0  0  0  0  0  0  0  0  0  0  0
    1.3946   22.5192   -1.8372 H   0  0  0  0  0  0  0  0  0  0  0  0
    3.0721   22.3983   -2.3421 H   0  0  0  0  0  0  0  0  0  0  0  0
    1.2010   24.6570   -2.4640 H   0  0  0  0  0  0  0  0  0  0  0  0
    2.7387   24.5670    1.3019 H   0  0  0  0  0  0  0  0  0  0  0  0
    2.0110   26.0929    3.1201 H   0  0  0  0  0  0  0  0  0  0  0  0
  1  2  1  0
  2  3  1  0
  2  4  1  0
  2  5  1  0
  5  6  2  0
  6  7  1  0
  7  8  2  0
  8  9  1  0
  9 10  2  0
  9 11  1  0
 11 12  1  0
 12 13  1  0
 13 14  1  0
 14 15  1  0
 15 16  1  0
 15 17  1  0
 17 18  1  0
 18 19  1  0
 18 20  1  0
 20 21  1  0
 20 22  1  0
 22 23  1  0
  8 24  1  0
 24 25  2  0
 25  5  1  0
 23 12  1  0
 23 17  1  0
  1 26  1  0
  1 27  1  0
  1 28  1  0
  3 29  1  0
  3 30  1  0
  3 31  1  0
  4 32  1  0
  4 33  1  0
  4 34  1  0
  6 35  1  0
  7 36  1  0
 11 37  1  0
 11 38  1  0
 12 39  1  1
 13 40  1  0
 13 41  1  0
 14 42  1  0
 14 43  1  0
 15 44  1  6
 16 45  1  0
 17 46  1  6
 18 47  1  6
 19 48  1  0
 20 49  1  6
 21 50  1  0
 22 51  1  0
 22 52  1  0
 23 53  1  1
 24 54  1  0
 25 55  1  0
M  CHG  1  23   1
M  END
>  <meeko>  (4) 
{"is_sidechain": [false], "free_energy": -6.333, "intermolecular_energy": -8.62, "internal_energy": -0.512}

$$$$
3ejr_ligand
     RDKit          3D

 55 57  0  0  0  0  0  0  0  0999 V2000
    3.7650   27.7250    6.7850 C   0  0  0  0  0  0  0  0  0  0  0  0
    3.6730   28.8490    5.7300 C   0  0  0  0  0  0  0  0  0  0  0  0
    2.4190   29.6860    6.0630 C   0  0  0  0  0  0  0  0  0  0  0  0
    4.9300   29.7310    5.8920 C   0  0  0  0  0  0  0  0  0  0  0  0
    3.5830   28.3370    4.2800 C   0  0  0  0  0  0  0  0  0  0  0  0
    2.4150   27.7710    3.7450 C   0  0  0  0  0  0  0  0  0  0  0  0
    2.3610   27.3130    2.4210 C   0  0  0  0  0  0  0  0  0  0  0  0
    3.4840   27.4080    1.5960 C   0  0  0  0  0  0  0  0  0  0  0  0
    3.4840   26.9370    0.1790 C   0  0  0  0  0  0  0  0  0  0  0  0
    4.0810   27.5800   -0.6820 O   0  0  0  0  0  0  0  0  0  0  0  0
    2.7230   25.6760   -0.1860 C   0  0  0  0  0  0  0  0  0  0  0  0
    3.5380   24.8400   -1.1860 C   0  0  1  0  0  0  0  0  0  0  0  0
    4.7360   24.1110   -0.5260 C   0  0  0  0  0  0  0  0  0  0  0  0
    4.6200   22.5740   -0.4630 C   0  0  0  0  0  0  0  0  0  0  0  0
    3.2140   22.1110   -0.0730 C   0  0  1  0  0  0  0  0  0  0  0  0
    2.9750   22.5870    1.2600 O   0  0  0  0  0  0  0  0  0  0  0  0
    2.1160   22.7110   -0.9720 C   0  0  2  0  0  0  0  0  0  0  0  0
    1.5360   21.8190   -2.0650 C   0  0  2  0  0  0  0  0  0  0  0  0
    2.6210   21.2520   -2.8180 O   0  0  0  0  0  0  0  0  0  0  0  0
    0.7880   22.8350   -2.9600 C   0  0  2  0  0  0  0  0  0  0  0  0
    0.7840   22.3350   -4.2950 O   0  0  0  0  0  0  0  0  0  0  0  0
    1.5940   24.1540   -2.8220 C   0  0  0  0  0  0  0  0  0  0  0  0
    2.7040   23.7980   -1.8680 N   0  0  1  0  0  0  0  0  0  0  0  0
    4.6550   27.9720    2.1080 C   0  0  0  0  0  0  0  0  0  0  0  0
    4.7010   28.4270    3.4310 C   0  0  0  0  0  0  0  0  0  0  0  0
    3.7290   28.1643    7.7928 H   0  0  0  0  0  0  0  0  0  0  0  0
    2.9206   27.0318    6.6568 H   0  0  0  0  0  0  0  0  0  0  0  0
    4.7109   27.1783    6.6568 H   0  0  0  0  0  0  0  0  0  0  0  0
    2.3072   29.7606    7.1548 H   0  0  0  0  0  0  0  0  0  0  0  0
    2.5268   30.6939    5.6357 H   0  0  0  0  0  0  0  0  0  0  0  0
    1.5296   29.1998    5.6357 H   0  0  0  0  0  0  0  0  0  0  0  0
    5.1394   29.8779    6.9618 H   0  0  0  0  0  0  0  0  0  0  0  0
    5.7889   29.2365    5.4148 H   0  0  0  0  0  0  0  0  0  0  0  0
    4.7572   30.7069    5.4148 H   0  0  0  0  0  0  0  0  0  0  0  0
    1.5208   27.6848    4.3798 H   0  0  0  0  0  0  0  0  0  0  0  0
    1.4299   26.8768    2.0301 H   0  0  0  0  0  0  0  0  0  0  0  0
    2.5434   25.0831    0.7230 H   0  0  0  0  0  0  0  0  0  0  0  0
    1.7634   25.9542   -0.6461 H   0  0  0  0  0  0  0  0  0  0  0  0
    3.9077   25.5728   -1.9183 H   0  0  0  0  0  0  0  0  0  0  0  0
    5.6421   24.3601   -1.0978 H   0  0  0  0  0  0  0  0  0  0  0  0
    4.7642   24.4566    0.5179 H   0  0  0  0  0  0  0  0  0  0  0  0
    4.8667   22.1602   -1.4519 H   0  0  0  0  0  0  0  0  0  0  0  0
    5.3174   22.2161    0.3088 H   0  0  0  0  0  0  0  0  0  0  0  0
    3.1719   21.0161   -0.1697 H   0  0  0  0  0  0  0  0  0  0  0  0
    2.2630   23.2560    1.2150 H   0  0  0  0  0  0  0  0  0  0  0  0
    1.3641   22.9856   -0.2176 H   0  0  0  0  0  0  0  0  0  0  0  0
    0.9052   20.9989   -1.6914 H   0  0  0  0  0  0  0  0  0  0  0  0
    3.1080   22.0200   -3.1960 H   0  0  0  0  0  0  0  0  0  0  0  0
   -0.2622   23.0005   -2.6776 H   0  0  0  0  0  0  0  0  0  0  0  0
   -0.1390   22.1790   -4.5740 H   0  0  0  0  0  0  0  0  0  0  0  0
    1.9993   24.4693   -3.7948 H   0  0  0  0  0  0  0  0  0  0  0  0
    0.9789   24.9933   -2.4652 H   0  0  0  0  0  0  0  0  0  0  0  0
    3.3610   23.2780   -2.4810 H   0  0  0  0  0  0  0  0  0  0  0  0
    5.5456   28.0590    1.4682 H   0  0  0  0  0  0  0  0  0  0  0  0
    5.6336   28.8654    3.8159 H   0  0  0  0  0  0  0  0  0  0  0  0
  1  2  1  0
  2  3  1  0
  2  4  1  0
  2  5  1  0
  5  6  2  0
  6  7  1  0
  7  8  2  0
  8  9  1  0
  9 10  2  0
  9 11  1  0
 11 12  1  0
 12 13  1  0
 13 14  1  0
 14 15  1  0
 15 16  1  0
 15 17  1  0
 17 18  1  0
 18 19  1  0
 18 20  1  0
 20 21  1  0
 20 22  1  0
 22 23  1  0
  8 24  1  0
 24 25  2  0
 25  5  1  0
 23 12  1  0
 23 17  1  0
  1 26  1  0
  1 27  1  0
  1 28  1  0
  3 29  1  0
  3 30  1  0
  3 31  1  0
  4 32  1  0
  4 33  1  0
  4 34  1  0
  6 35  1  0
  7 36  1  0
 11 37  1  0
 11 38  1  0
 12 39  1  6
 13 40  1  0
 13 41  1  0
 14 42  1  0
 14 43  1  0
 15 44  1  1
 16 45  1  0
 17 46  1  1
 18 47  1  1
 19 48  1  0
 20 49  1  1
 21 50  1  0
 22 51  1  0
 22 52  1  0
 23 53  1  6
 24 54  1  0
 25 55  1  0
M  CHG  1  23   1
M  END
>  <meeko>  (5) 
{"is_sidechain": [false], "free_energy": -6.164, "intermolecular_energy": -8.143, "internal_energy": -0.765}

$$$$
3ejr_ligand
     RDKit          3D

 55 57  0  0  0  0  0  0  0  0999 V2000
    2.1770   25.8780    4.3000 C   0  0  0  0  0  0  0  0  0  0  0  0
    2.2960   26.8480    3.1030 C   0  0  0  0  0  0  0  0  0  0  0  0
    0.9060   27.4880    2.8970 C   0  0  0  0  0  0  0  0  0  0  0  0
    3.3060   27.9440    3.5030 C   0  0  0  0  0  0  0  0  0  0  0  0
    2.7530   26.1720    1.7970 C   0  0  0  0  0  0  0  0  0  0  0  0
    2.6510   24.7890    1.5800 C   0  0  0  0  0  0  0  0  0  0  0  0
    3.0760   24.2010    0.3800 C   0  0  0  0  0  0  0  0  0  0  0  0
    3.6200   24.9880   -0.6370 C   0  0  0  0  0  0  0  0  0  0  0  0
    4.0880   24.4160   -1.9340 C   0  0  0  0  0  0  0  0  0  0  0  0
    5.1970   23.8910   -2.0090 O   0  0  0  0  0  0  0  0  0  0  0  0
    3.1940   24.5120   -3.1560 C   0  0  0  0  0  0  0  0  0  0  0  0
    3.4180   25.8550   -3.8690 C   0  0  1  0  0  0  0  0  0  0  0  0
    4.2160   25.7090   -5.1900 C   0  0  0  0  0  0  0  0  0  0  0  0
    3.4180   25.9970   -6.4790 C   0  0  0  0  0  0  0  0  0  0  0  0
    2.0090   25.3990   -6.4380 C   0  0  1  0  0  0  0  0  0  0  0  0
    2.1660   23.9730   -6.3730 O   0  0  0  0  0  0  0  0  0  0  0  0
    1.2140   25.8260   -5.1890 C   0  0  2  0  0  0  0  0  0  0  0  0
    0.1720   26.9260   -5.3600 C   0  0  2  0  0  0  0  0  0  0  0  0
    0.7860   28.0380   -6.0340 O   0  0  0  0  0  0  0  0  0  0  0  0
   -0.1230   27.3330   -3.8980 C   0  0  2  0  0  0  0  0  0  0  0  0
   -0.5050   28.7070   -3.8860 O   0  0  0  0  0  0  0  0  0  0  0  0
    1.2060   27.0790   -3.1390 C   0  0  0  0  0  0  0  0  0  0  0  0
    2.1290   26.5440   -4.2020 N   0  0  1  0  0  0  0  0  0  0  0  0
    3.7270   26.3670   -0.4420 C   0  0  0  0  0  0  0  0  0  0  0  0
    3.3010   26.9470    0.7580 C   0  0  0  0  0  0  0  0  0  0  0  0
    2.2466   26.4452    5.2399 H   0  0  0  0  0  0  0  0  0  0  0  0
    1.2084   25.3585    4.2561 H   0  0  0  0  0  0  0  0  0  0  0  0
    2.9913   25.1398    4.2561 H   0  0  0  0  0  0  0  0  0  0  0  0
    0.4502   27.6978    3.8759 H   0  0  0  0  0  0  0  0  0  0  0  0
    1.0144   28.4269    2.3342 H   0  0  0  0  0  0  0  0  0  0  0  0
    0.2631   26.7952    2.3342 H   0  0  0  0  0  0  0  0  0  0  0  0
    3.3638   28.0067    4.5997 H   0  0  0  0  0  0  0  0  0  0  0  0
    4.2975   27.6946    3.0972 H   0  0  0  0  0  0  0  0  0  0  0  0
    2.9766   28.9119    3.0972 H   0  0  0  0  0  0  0  0  0  0  0  0
    2.2276   24.1513    2.3700 H   0  0  0  0  0  0  0  0  0  0  0  0
    2.9803   23.1143    0.2392 H   0  0  0  0  0  0  0  0  0  0  0  0
    3.4317   23.6893   -3.8464 H   0  0  0  0  0  0  0  0  0  0  0  0
    2.1427   24.4428   -2.8398 H   0  0  0  0  0  0  0  0  0  0  0  0
    3.9962   26.4539   -3.1500 H   0  0  0  0  0  0  0  0  0  0  0  0
    5.0650   26.4075   -5.1529 H   0  0  0  0  0  0  0  0  0  0  0  0
    4.5161   24.6523   -5.2483 H   0  0  0  0  0  0  0  0  0  0  0  0
    3.3360   27.0863   -6.6080 H   0  0  0  0  0  0  0  0  0  0  0  0
    3.9560   25.5316   -7.3180 H   0  0  0  0  0  0  0  0  0  0  0  0
    1.4595   25.7471   -7.3251 H   0  0  0  0  0  0  0  0  0  0  0  0
    1.2780   23.5810   -6.2470 H   0  0  0  0  0  0  0  0  0  0  0  0
    0.7605   24.8664   -4.8999 H   0  0  0  0  0  0  0  0  0  0  0  0
   -0.7179   26.6210   -5.9301 H   0  0  0  0  0  0  0  0  0  0  0  0
    1.1070   28.6330   -5.3190 H   0  0  0  0  0  0  0  0  0  0  0  0
   -0.9420   26.7694   -3.4273 H   0  0  0  0  0  0  0  0  0  0  0  0
   -1.4720   28.7710   -4.0050 H   0  0  0  0  0  0  0  0  0  0  0  0
    1.5990   28.0139   -2.7129 H   0  0  0  0  0  0  0  0  0  0  0  0
    1.0869   26.3881   -2.2914 H   0  0  0  0  0  0  0  0  0  0  0  0
    2.4030   27.4090   -4.7090 H   0  0  0  0  0  0  0  0  0  0  0  0
    4.1485   27.0006   -1.2363 H   0  0  0  0  0  0  0  0  0  0  0  0
    3.3967   28.0346    0.8924 H   0  0  0  0  0  0  0  0  0  0  0  0
  1  2  1  0
  2  3  1  0
  2  4  1  0
  2  5  1  0
  5  6  2  0
  6  7  1  0
  7  8  2  0
  8  9  1  0
  9 10  2  0
  9 11  1  0
 11 12  1  0
 12 13  1  0
 13 14  1  0
 14 15  1  0
 15 16  1  0
 15 17  1  0
 17 18  1  0
 18 19  1  0
 18 20  1  0
 20 21  1  0
 20 22  1  0
 22 23  1  0
  8 24  1  0
 24 25  2  0
 25  5  1  0
 23 12  1  0
 23 17  1  0
  1 26  1  0
  1 27  1  0
  1 28  1  0
  3 29  1  0
  3 30  1  0
  3 31  1  0
  4 32  1  0
  4 33  1  0
  4 34  1  0
  6 35  1  0
  7 36  1  0
 11 37  1  0
 11 38  1  0
 12 39  1  1
 13 40  1  0
 13 41  1  0
 14 42  1  0
 14 43  1  0
 15 44  1  6
 16 45  1  0
 17 46  1  1
 18 47  1  6
 19 48  1  0
 20 49  1  1
 21 50  1  0
 22 51  1  0
 22 52  1  0
 23 53  1  6
 24 54  1  0
 25 55  1  0
M  CHG  1  23   1
M  END
>  <meeko>  (6) 
{"is_sidechain": [false], "free_energy": -5.662, "intermolecular_energy": -7.401, "internal_energy": -0.844}

$$$$
3ejr_ligand
     RDKit          3D

 55 57  0  0  0  0  0  0  0  0999 V2000
    3.6730   29.0250    8.0020 C   0  0  0  0  0  0  0  0  0  0  0  0
    2.6890   29.8160    7.1110 C   0  0  0  0  0  0  0  0  0  0  0  0
    1.3550   29.9150    7.8820 C   0  0  0  0  0  0  0  0  0  0  0  0
    3.2760   31.2320    6.9290 C   0  0  0  0  0  0  0  0  0  0  0  0
    2.4440   29.1750    5.7320 C   0  0  0  0  0  0  0  0  0  0  0  0
    3.4270   28.4410    5.0490 C   0  0  0  0  0  0  0  0  0  0  0  0
    3.1750   27.8690    3.7940 C   0  0  0  0  0  0  0  0  0  0  0  0
    1.9270   28.0190    3.1870 C   0  0  0  0  0  0  0  0  0  0  0  0
    1.6040   27.4320    1.8540 C   0  0  0  0  0  0  0  0  0  0  0  0
    0.7360   27.9440    1.1510 O   0  0  0  0  0  0  0  0  0  0  0  0
    2.3380   26.1870    1.3910 C   0  0  0  0  0  0  0  0  0  0  0  0
    3.5970   26.5810    0.6020 C   0  0  1  0  0  0  0  0  0  0  0  0
    4.9090   26.1390    1.3010 C   0  0  0  0  0  0  0  0  0  0  0  0
    5.6990   25.0280    0.5780 C   0  0  0  0  0  0  0  0  0  0  0  0
    4.7880   23.9260    0.0310 C   0  0  1  0  0  0  0  0  0  0  0  0
    4.1620   23.3040    1.1640 O   0  0  0  0  0  0  0  0  0  0  0  0
    3.6600   24.4730   -0.8650 C   0  0  2  0  0  0  0  0  0  0  0  0
    3.8380   24.3480   -2.3750 C   0  0  2  0  0  0  0  0  0  0  0  0
    5.1310   24.8680   -2.7290 O   0  0  0  0  0  0  0  0  0  0  0  0
    2.7520   25.3050   -2.9170 C   0  0  2  0  0  0  0  0  0  0  0  0
    3.1950   25.8200   -4.1710 O   0  0  0  0  0  0  0  0  0  0  0  0
    2.6200   26.4100   -1.8360 C   0  0  0  0  0  0  0  0  0  0  0  0
    3.6090   25.9960   -0.7780 N   0  0  1  0  0  0  0  0  0  0  0  0
    0.9340   28.7430    3.8530 C   0  0  0  0  0  0  0  0  0  0  0  0
    1.1920   29.3110    5.1050 C   0  0  0  0  0  0  0  0  0  0  0  0
    3.4404   29.2120    9.0607 H   0  0  0  0  0  0  0  0  0  0  0  0
    3.5768   27.9500    7.7898 H   0  0  0  0  0  0  0  0  0  0  0  0
    4.7022   29.3500    7.7898 H   0  0  0  0  0  0  0  0  0  0  0  0
    1.5547   29.9002    8.9636 H   0  0  0  0  0  0  0  0  0  0  0  0
    0.8464   30.8534    7.6158 H   0  0  0  0  0  0  0  0  0  0  0  0
    0.7135   29.0620    7.6158 H   0  0  0  0  0  0  0  0  0  0  0  0
    3.4623   31.6813    7.9156 H   0  0  0  0  0  0  0  0  0  0  0  0
    4.2217   31.1679    6.3708 H   0  0  0  0  0  0  0  0  0  0  0  0
    2.5623   31.8558    6.3708 H   0  0  0  0  0  0  0  0  0  0  0  0
    4.4177   28.3118    5.5092 H   0  0  0  0  0  0  0  0  0  0  0  0
    3.9656   27.2985    3.2846 H   0  0  0  0  0  0  0  0  0  0  0  0
    2.6295   25.5892    2.2671 H   0  0  0  0  0  0  0  0  0  0  0  0
    1.6745   25.5978    0.7409 H   0  0  0  0  0  0  0  0  0  0  0  0
    3.5558   27.6790    0.5509 H   0  0  0  0  0  0  0  0  0  0  0  0
    5.5621   27.0200    1.3863 H   0  0  0  0  0  0  0  0  0  0  0  0
    4.6094   25.7170    2.2717 H   0  0  0  0  0  0  0  0  0  0  0  0
    6.2532   25.4765   -0.2597 H   0  0  0  0  0  0  0  0  0  0  0  0
    6.3787   24.5685    1.3107 H   0  0  0  0  0  0  0  0  0  0  0  0
    5.4003   23.2400   -0.5727 H   0  0  0  0  0  0  0  0  0  0  0  0
    3.5560   23.9570    1.5650 H   0  0  0  0  0  0  0  0  0  0  0  0
    2.8060   23.8855   -0.4970 H   0  0  0  0  0  0  0  0  0  0  0  0
    3.7606   23.3188   -2.7555 H   0  0  0  0  0  0  0  0  0  0  0  0
    5.3860   24.3960   -3.5540 H   0  0  0  0  0  0  0  0  0  0  0  0
    1.7768   24.8278   -3.0937 H   0  0  0  0  0  0  0  0  0  0  0  0
    4.1700   25.8830   -4.1630 H   0  0  0  0  0  0  0  0  0  0  0  0
    2.8782   27.3960   -2.2497 H   0  0  0  0  0  0  0  0  0  0  0  0
    1.5954   26.5052   -1.4472 H   0  0  0  0  0  0  0  0  0  0  0  0
    4.5130   26.2930   -1.1950 H   0  0  0  0  0  0  0  0  0  0  0  0
   -0.0561   28.8668    3.3899 H   0  0  0  0  0  0  0  0  0  0  0  0
    0.3968   29.8777    5.6115 H   0  0  0  0  0  0  0  0  0  0  0  0
  1  2  1  0
  2  3  1  0
  2  4  1  0
  2  5  1  0
  5  6  2  0
  6  7  1  0
  7  8  2  0
  8  9  1  0
  9 10  2  0
  9 11  1  0
 11 12  1  0
 12 13  1  0
 13 14  1  0
 14 15  1  0
 15 16  1  0
 15 17  1  0
 17 18  1  0
 18 19  1  0
 18 20  1  0
 20 21  1  0
 20 22  1  0
 22 23  1  0
  8 24  1  0
 24 25  2  0
 25  5  1  0
 23 12  1  0
 23 17  1  0
  1 26  1  0
  1 27  1  0
  1 28  1  0
  3 29  1  0
  3 30  1  0
  3 31  1  0
  4 32  1  0
  4 33  1  0
  4 34  1  0
  6 35  1  0
  7 36  1  0
 11 37  1  0
 11 38  1  0
 12 39  1  6
 13 40  1  0
 13 41  1  0
 14 42  1  0
 14 43  1  0
 15 44  1  6
 16 45  1  0
 17 46  1  1
 18 47  1  6
 19 48  1  0
 20 49  1  6
 21 50  1  0
 22 51  1  0
 22 52  1  0
 23 53  1  6
 24 54  1  0
 25 55  1  0
M  CHG  1  23   1
M  END
>  <meeko>  (7) 
{"is_sidechain": [false], "free_energy": -5.518, "intermolecular_energy": -7.345, "internal_energy": -0.71}

$$$$
3ejr_ligand
     RDKit          3D

 55 57  0  0  0  0  0  0  0  0999 V2000
    2.8360   25.7110   -5.6470 C   0  0  0  0  0  0  0  0  0  0  0  0
    1.9830   25.2780   -4.4330 C   0  0  0  0  0  0  0  0  0  0  0  0
    0.7870   26.2510   -4.3450 C   0  0  0  0  0  0  0  0  0  0  0  0
    1.4600   23.8560   -4.7280 C   0  0  0  0  0  0  0  0  0  0  0  0
    2.7530   25.2820   -3.0990 C   0  0  0  0  0  0  0  0  0  0  0  0
    3.4070   24.1460   -2.5950 C   0  0  0  0  0  0  0  0  0  0  0  0
    4.1000   24.1790   -1.3770 C   0  0  0  0  0  0  0  0  0  0  0  0
    4.1530   25.3550   -0.6270 C   0  0  0  0  0  0  0  0  0  0  0  0
    4.8760   25.4470    0.6760 C   0  0  0  0  0  0  0  0  0  0  0  0
    6.0970   25.3110    0.7120 O   0  0  0  0  0  0  0  0  0  0  0  0
    4.0870   25.6850    1.9500 C   0  0  0  0  0  0  0  0  0  0  0  0
    2.6350   25.2150    1.7650 C   0  0  1  0  0  0  0  0  0  0  0  0
    2.3570   23.8430    2.4320 C   0  0  0  0  0  0  0  0  0  0  0  0
    1.4140   23.8800    3.6520 C   0  0  0  0  0  0  0  0  0  0  0  0
    1.7050   25.0650    4.5780 C   0  0  1  0  0  0  0  0  0  0  0  0
    3.0290   24.8700    5.0980 O   0  0  0  0  0  0  0  0  0  0  0  0
    1.7030   26.4160    3.8370 C   0  0  2  0  0  0  0  0  0  0  0  0
    0.4620   27.2920    3.9730 C   0  0  2  0  0  0  0  0  0  0  0  0
   -0.6960   26.4940    3.6760 O   0  0  0  0  0  0  0  0  0  0  0  0
    0.6590   28.3250    2.8400 C   0  0  2  0  0  0  0  0  0  0  0  0
   -0.6280   28.7490    2.3940 O   0  0  0  0  0  0  0  0  0  0  0  0
    1.4460   27.5630    1.7410 C   0  0  0  0  0  0  0  0  0  0  0  0
    1.6460   26.1910    2.3290 N   0  0  1  0  0  0  0  0  0  0  0  0
    3.5110   26.4970   -1.1120 C   0  0  0  0  0  0  0  0  0  0  0  0
    2.8210   26.4580   -2.3290 C   0  0  0  0  0  0  0  0  0  0  0  0
    3.7647   26.1824   -5.2931 H   0  0  0  0  0  0  0  0  0  0  0  0
    3.0817   24.8285   -6.2559 H   0  0  0  0  0  0  0  0  0  0  0  0
    2.2686   26.4302   -6.2559 H   0  0  0  0  0  0  0  0  0  0  0  0
    0.5489   26.4447   -3.2887 H   0  0  0  0  0  0  0  0  0  0  0  0
    1.0469   27.1974   -4.8418 H   0  0  0  0  0  0  0  0  0  0  0  0
   -0.0867   25.8040   -4.8418 H   0  0  0  0  0  0  0  0  0  0  0  0
    1.2673   23.3322   -3.7801 H   0  0  0  0  0  0  0  0  0  0  0  0
    0.5270   23.9212   -5.3071 H   0  0  0  0  0  0  0  0  0  0  0  0
    2.2129   23.3012   -5.3071 H   0  0  0  0  0  0  0  0  0  0  0  0
    3.3747   23.2085   -3.1694 H   0  0  0  0  0  0  0  0  0  0  0  0
    4.6048   23.2731   -1.0102 H   0  0  0  0  0  0  0  0  0  0  0  0
    4.5493   25.1233    2.7751 H   0  0  0  0  0  0  0  0  0  0  0  0
    4.0916   26.7603    2.1819 H   0  0  0  0  0  0  0  0  0  0  0  0
    2.5107   25.1306    0.6753 H   0  0  0  0  0  0  0  0  0  0  0  0
    1.9078   23.1827    1.6756 H   0  0  0  0  0  0  0  0  0  0  0  0
    3.3271   23.4870    2.8092 H   0  0  0  0  0  0  0  0  0  0  0  0
    0.3765   23.9572    3.2946 H   0  0  0  0  0  0  0  0  0  0  0  0
    1.5737   22.9566    4.2280 H   0  0  0  0  0  0  0  0  0  0  0  0
    0.9235   25.0999    5.3513 H   0  0  0  0  0  0  0  0  0  0  0  0
    3.4520   24.1590    4.5770 H   0  0  0  0  0  0  0  0  0  0  0  0
    2.5945   26.8879    4.2758 H   0  0  0  0  0  0  0  0  0  0  0  0
    0.3307   27.7389    4.9695 H   0  0  0  0  0  0  0  0  0  0  0  0
   -1.3780   27.1290    3.3580 H   0  0  0  0  0  0  0  0  0  0  0  0
    1.2072   29.2296    3.1421 H   0  0  0  0  0  0  0  0  0  0  0  0
   -1.1560   29.0310    3.1660 H   0  0  0  0  0  0  0  0  0  0  0  0
    0.8646   27.5090    0.8087 H   0  0  0  0  0  0  0  0  0  0  0  0
    2.3937   28.0553    1.4774 H   0  0  0  0  0  0  0  0  0  0  0  0
    0.7150   25.7540    2.1840 H   0  0  0  0  0  0  0  0  0  0  0  0
    3.5480   27.4322   -0.5341 H   0  0  0  0  0  0  0  0  0  0  0  0
    2.3202   27.3676   -2.6921 H   0  0  0  0  0  0  0  0  0  0  0  0
  1  2  1  0
  2  3  1  0
  2  4  1  0
  2  5  1  0
  5  6  2  0
  6  7  1  0
  7  8  2  0
  8  9  1  0
  9 10  2  0
  9 11  1  0
 11 12  1  0
 12 13  1  0
 13 14  1  0
 14 15  1  0
 15 16  1  0
 15 17  1  0
 17 18  1  0
 18 19  1  0
 18 20  1  0
 20 21  1  0
 20 22  1  0
 22 23  1  0
  8 24  1  0
 24 25  2  0
 25  5  1  0
 23 12  1  0
 23 17  1  0
  1 26  1  0
  1 27  1  0
  1 28  1  0
  3 29  1  0
  3 30  1  0
  3 31  1  0
  4 32  1  0
  4 33  1  0
  4 34  1  0
  6 35  1  0
  7 36  1  0
 11 37  1  0
 11 38  1  0
 12 39  1  6
 13 40  1  0
 13 41  1  0
 14 42  1  0
 14 43  1  0
 15 44  1  1
 16 45  1  0
 17 46  1  6
 18 47  1  1
 19 48  1  0
 20 49  1  1
 21 50  1  0
 22 51  1  0
 22 52  1  0
 23 53  1  1
 24 54  1  0
 25 55  1  0
M  CHG  1  23   1
M  END
>  <meeko>  (8) 
{"is_sidechain": [false], "free_energy": -4.398, "intermolecular_energy": -5.756, "internal_energy": -0.818}

$$$$
