
     RDKit          3D

 41 45  0  0  0  0  0  0  0  0999 V2000
   -0.3830   -4.8570    7.0820 O   0  0  0  0  0  0  0  0  0  0  0  0
   -1.5190   -4.3320    6.3780 S   0  0  1  0  0  0  0  0  0  0  0  0
   -2.6580   -5.2180    6.3290 O   0  0  0  0  0  0  0  0  0  0  0  0
   -1.9680   -2.7440    7.0550 C   0  0  0  0  0  0  0  0  0  0  0  0
   -3.3380   -2.4070    7.1430 C   0  0  0  0  0  0  0  0  0  0  0  0
   -3.7380   -1.1760    7.6630 C   0  0  0  0  0  0  0  0  0  0  0  0
   -2.7820   -0.2370    8.1100 C   0  0  0  0  0  0  0  0  0  0  0  0
   -1.4100   -0.5460    8.0420 C   0  0  0  0  0  0  0  0  0  0  0  0
   -1.0080   -1.8050    7.5140 C   0  0  0  0  0  0  0  0  0  0  0  0
    0.7030   -2.1170    7.4670 Cl  0  0  0  0  0  0  0  0  0  0  0  0
   -1.0600   -4.0410    4.7970 N   0  0  0  0  0  0  0  0  0  0  0  0
    0.3900   -4.0090    4.5010 C   0  0  0  0  0  0  0  0  0  0  0  0
    0.9150   -5.3220    3.8680 C   0  0  0  0  0  0  0  0  0  0  0  0
    1.6400   -5.2580    2.6240 C   0  0  0  0  0  0  0  0  0  0  0  0
    2.1010   -6.4500    1.9960 C   0  0  0  0  0  0  0  0  0  0  0  0
    1.8730   -7.7050    2.6240 C   0  0  0  0  0  0  0  0  0  0  0  0
    1.1940   -7.7750    3.8730 C   0  0  0  0  0  0  0  0  0  0  0  0
    0.7320   -6.5890    4.4890 C   0  0  0  0  0  0  0  0  0  0  0  0
   -2.0840   -3.5740    3.9040 C   0  0  1  0  0  0  0  0  0  0  0  0
   -1.7990   -2.1850    3.3350 C   0  0  0  0  0  0  0  0  0  0  0  0
   -1.4240   -2.4150    1.9230 N   0  0  0  0  0  0  0  0  0  0  0  0
   -1.5750   -3.8550    1.5030 C   0  0  0  0  0  0  0  0  0  0  0  0
   -2.1610   -4.5480    2.7410 C   0  0  2  0  0  0  0  0  0  0  0  0
   -3.5450   -4.9220    2.5680 N   0  0  0  0  0  0  0  0  0  0  0  0
   -4.6010   -3.9740    2.1000 C   0  0  0  0  0  0  0  0  0  0  0  0
   -5.3560   -3.3000    3.2710 C   0  0  0  0  0  0  0  0  0  0  0  0
   -5.4480   -1.8600    3.3090 C   0  0  0  0  0  0  0  0  0  0  0  0
   -6.0960   -1.2030    4.3790 C   0  0  0  0  0  0  0  0  0  0  0  0
   -6.7000   -1.9780    5.4120 C   0  0  0  0  0  0  0  0  0  0  0  0
   -6.6510   -3.4010    5.3710 C   0  0  0  0  0  0  0  0  0  0  0  0
   -5.9920   -4.0540    4.3070 C   0  0  0  0  0  0  0  0  0  0  0  0
   -3.9710   -6.5440    2.6030 S   0  0  1  0  0  0  0  0  0  0  0  0
   -3.3910   -7.1030    3.7780 O   0  0  0  0  0  0  0  0  0  0  0  0
   -5.3790   -6.6240    2.5280 O   0  0  0  0  0  0  0  0  0  0  0  0
   -3.2400   -7.2450    1.1530 C   0  0  0  0  0  0  0  0  0  0  0  0
   -2.0430   -7.9850    1.2930 C   0  0  0  0  0  0  0  0  0  0  0  0
   -1.4300   -8.5760    0.1650 C   0  0  0  0  0  0  0  0  0  0  0  0
   -1.9940   -8.4340   -1.1100 C   0  0  0  0  0  0  0  0  0  0  0  0
   -3.1820   -7.7120   -1.2810 C   0  0  0  0  0  0  0  0  0  0  0  0
   -3.8170   -7.1190   -0.1630 C   0  0  0  0  0  0  0  0  0  0  0  0
   -5.2930   -6.2410   -0.4410 Cl  0  0  0  0  0  0  0  0  0  0  0  0
  2  1  2  0
  3  2  2  0
  4  2  1  0
  5  4  2  0
  6  5  1  0
  7  6  2  0
  8  7  1  0
  9  8  2  0
  9  4  1  0
 10  9  1  0
  2 11  1  6
 12 11  1  0
 13 12  1  0
 14 13  2  0
 15 14  1  0
 16 15  2  0
 17 16  1  0
 18 17  2  0
 18 13  1  0
 19 11  1  1
 20 19  1  0
 21 20  1  0
 22 21  1  0
 23 22  1  0
 23 19  1  0
 23 24  1  6
 25 24  1  0
 26 25  1  0
 27 26  2  0
 28 27  1  0
 29 28  2  0
 30 29  1  0
 31 30  2  0
 31 26  1  0
 32 24  1  1
 33 32  2  0
 34 32  2  0
 35 32  1  0
 36 35  2  0
 37 36  1  0
 38 37  2  0
 39 38  1  0
 40 39  2  0
 40 35  1  0
 41 40  1  0
M  CHG  1  21   1
M  END
$$$$
