4mme_ligand
     RDKit          3D

 31 34  0  0  0  0  0  0  0  0999 V2000
    0.7040   -9.8440    4.6180 O   0  0  0  0  0  0  0  0  0  0  0  0
    0.7750  -10.3680    3.2930 C   0  0  2  0  0  0  0  0  0  0  0  0
    1.4000   -9.3860    2.3080 C   0  0  0  0  0  0  0  0  0  0  0  0
    1.1100   -9.4500    0.9300 C   0  0  0  0  0  0  0  0  0  0  0  0
    1.6830   -8.5470    0.0290 C   0  0  0  0  0  0  0  0  0  0  0  0
    2.5550   -7.5660    0.4930 C   0  0  0  0  0  0  0  0  0  0  0  0
    3.2590   -6.4540   -0.6140 Cl  0  0  0  0  0  0  0  0  0  0  0  0
    2.8590   -7.4810    1.8480 C   0  0  0  0  0  0  0  0  0  0  0  0
    2.2870   -8.3850    2.7490 C   0  0  0  0  0  0  0  0  0  0  0  0
   -0.6060  -10.8960    2.8790 C   0  0  0  0  0  0  0  0  0  0  0  0
   -1.7830  -10.1990    2.6590 C   0  0  0  0  0  0  0  0  0  0  0  0
   -2.9160  -10.9300    2.2920 C   0  0  0  0  0  0  0  0  0  0  0  0
   -2.8640  -12.3320    2.1520 C   0  0  0  0  0  0  0  0  0  0  0  0
   -1.6780  -13.0350    2.3780 C   0  0  0  0  0  0  0  0  0  0  0  0
   -0.5680  -12.3030    2.7380 C   0  0  0  0  0  0  0  0  0  0  0  0
    0.7690  -12.7210    3.0420 C   0  0  0  0  0  0  0  0  0  0  0  0
    1.4580  -13.8280    3.1210 N   0  0  0  0  0  0  0  0  0  0  0  0
    2.7180  -13.4060    3.5160 C   0  0  0  0  0  0  0  0  0  0  0  0
    2.7760  -12.0310    3.6790 C   0  0  0  0  0  0  0  0  0  0  0  0
    1.5320  -11.6260    3.3540 N   0  0  0  0  0  0  0  0  0  0  0  0
   -0.2310   -9.6250    4.7770 H   0  0  0  0  0  0  0  0  0  0  0  0
    0.4217  -10.2229    0.5573 H   0  0  0  0  0  0  0  0  0  0  0  0
    1.4454   -8.6116   -1.0431 H   0  0  0  0  0  0  0  0  0  0  0  0
    3.5482   -6.7039    2.2102 H   0  0  0  0  0  0  0  0  0  0  0  0
    2.5338   -8.3130    3.8185 H   0  0  0  0  0  0  0  0  0  0  0  0
   -1.8243   -9.1054    2.7697 H   0  0  0  0  0  0  0  0  0  0  0  0
   -3.8641  -10.4029    2.1093 H   0  0  0  0  0  0  0  0  0  0  0  0
   -3.7715  -12.8809    1.8602 H   0  0  0  0  0  0  0  0  0  0  0  0
   -1.6324  -14.1290    2.2727 H   0  0  0  0  0  0  0  0  0  0  0  0
    3.5701  -14.0819    3.6804 H   0  0  0  0  0  0  0  0  0  0  0  0
    3.6317  -11.4174    3.9972 H   0  0  0  0  0  0  0  0  0  0  0  0
  2  1  1  1
  2  3  1  0
  3  4  2  0
  4  5  1  0
  5  6  2  0
  6  7  1  0
  6  8  1  0
  8  9  2  0
  2 10  1  0
 10 11  2  0
 11 12  1  0
 12 13  2  0
 13 14  1  0
 14 15  2  0
 15 16  1  0
 16 17  2  0
 17 18  1  0
 18 19  2  0
 19 20  1  0
 20  2  1  0
  9  3  1  0
 15 10  1  0
 20 16  1  0
  1 21  1  0
  4 22  1  0
  5 23  1  0
  8 24  1  0
  9 25  1  0
 11 26  1  0
 12 27  1  0
 13 28  1  0
 14 29  1  0
 18 30  1  0
 19 31  1  0
M  END
>  <meeko>  (1) 
{"is_sidechain": [false], "free_energy": -7.455, "intermolecular_energy": -8.109, "internal_energy": -0.532}

$$$$
4mme_ligand
     RDKit          3D

 31 34  0  0  0  0  0  0  0  0999 V2000
    1.0600  -11.8750    1.7790 O   0  0  0  0  0  0  0  0  0  0  0  0
    0.5040  -10.7650    2.4840 C   0  0  2  0  0  0  0  0  0  0  0  0
    0.6630   -9.4520    1.7260 C   0  0  0  0  0  0  0  0  0  0  0  0
    1.3800   -9.3900    0.5140 C   0  0  0  0  0  0  0  0  0  0  0  0
    1.5230   -8.1850   -0.1800 C   0  0  0  0  0  0  0  0  0  0  0  0
    0.9510   -7.0220    0.3280 C   0  0  0  0  0  0  0  0  0  0  0  0
    1.1250   -5.5390   -0.5260 Cl  0  0  0  0  0  0  0  0  0  0  0  0
    0.2390   -7.0540    1.5230 C   0  0  0  0  0  0  0  0  0  0  0  0
    0.0970   -8.2600    2.2170 C   0  0  0  0  0  0  0  0  0  0  0  0
    1.0520  -10.7460    3.9170 C   0  0  0  0  0  0  0  0  0  0  0  0
    2.3460  -10.5220    4.3600 C   0  0  0  0  0  0  0  0  0  0  0  0
    2.5820  -10.5670    5.7380 C   0  0  0  0  0  0  0  0  0  0  0  0
    1.5380  -10.8340    6.6460 C   0  0  0  0  0  0  0  0  0  0  0  0
    0.2340  -11.0640    6.1990 C   0  0  0  0  0  0  0  0  0  0  0  0
    0.0140  -11.0160    4.8400 C   0  0  0  0  0  0  0  0  0  0  0  0
   -1.1840  -11.2140    4.0800 C   0  0  0  0  0  0  0  0  0  0  0  0
   -2.4420  -11.5000    4.2850 N   0  0  0  0  0  0  0  0  0  0  0  0
   -2.9830  -11.5520    3.0090 C   0  0  0  0  0  0  0  0  0  0  0  0
   -2.0330  -11.2970    2.0340 C   0  0  0  0  0  0  0  0  0  0  0  0
   -0.9090  -11.0690    2.7440 N   0  0  0  0  0  0  0  0  0  0  0  0
    0.5170  -12.6480    2.0110 H   0  0  0  0  0  0  0  0  0  0  0  0
    1.8347  -10.3054    0.1074 H   0  0  0  0  0  0  0  0  0  0  0  0
    2.0858   -8.1559   -1.1247 H   0  0  0  0  0  0  0  0  0  0  0  0
   -0.2113   -6.1327    1.9211 H   0  0  0  0  0  0  0  0  0  0  0  0
   -0.4661   -8.2775    3.1618 H   0  0  0  0  0  0  0  0  0  0  0  0
    3.1611  -10.3155    3.6508 H   0  0  0  0  0  0  0  0  0  0  0  0
    3.5988  -10.3911    6.1190 H   0  0  0  0  0  0  0  0  0  0  0  0
    1.7530  -10.8619    7.7244 H   0  0  0  0  0  0  0  0  0  0  0  0
   -0.5837  -11.2749    6.9039 H   0  0  0  0  0  0  0  0  0  0  0  0
   -4.0401  -11.7697    2.7968 H   0  0  0  0  0  0  0  0  0  0  0  0
   -2.1638  -11.2836    0.9419 H   0  0  0  0  0  0  0  0  0  0  0  0
  2  1  1  6
  2  3  1  0
  3  4  2  0
  4  5  1  0
  5  6  2  0
  6  7  1  0
  6  8  1  0
  8  9  2  0
  2 10  1  0
 10 11  2  0
 11 12  1  0
 12 13  2  0
 13 14  1  0
 14 15  2  0
 15 16  1  0
 16 17  2  0
 17 18  1  0
 18 19  2  0
 19 20  1  0
 20  2  1  0
  9  3  1  0
 15 10  1  0
 20 16  1  0
  1 21  1  0
  4 22  1  0
  5 23  1  0
  8 24  1  0
  9 25  1  0
 11 26  1  0
 12 27  1  0
 13 28  1  0
 14 29  1  0
 18 30  1  0
 19 31  1  0
M  END
>  <meeko>  (2) 
{"is_sidechain": [false], "free_energy": -6.834, "intermolecular_energy": -7.347, "internal_energy": -0.618}

$$$$
4mme_ligand
     RDKit          3D

 31 34  0  0  0  0  0  0  0  0999 V2000
    6.3790  -14.0530    4.2470 O   0  0  0  0  0  0  0  0  0  0  0  0
    7.4100  -14.9250    3.7850 C   0  0  2  0  0  0  0  0  0  0  0  0
    8.7270  -14.1970    3.5420 C   0  0  0  0  0  0  0  0  0  0  0  0
    8.8410  -12.8060    3.7450 C   0  0  0  0  0  0  0  0  0  0  0  0
   10.0500  -12.1410    3.5230 C   0  0  0  0  0  0  0  0  0  0  0  0
   11.1660  -12.8570    3.0950 C   0  0  0  0  0  0  0  0  0  0  0  0
   12.6540  -12.0400    2.8240 Cl  0  0  0  0  0  0  0  0  0  0  0  0
   11.0810  -14.2300    2.8870 C   0  0  0  0  0  0  0  0  0  0  0  0
    9.8700  -14.8950    3.1080 C   0  0  0  0  0  0  0  0  0  0  0  0
    6.8950  -15.7320    2.5850 C   0  0  0  0  0  0  0  0  0  0  0  0
    6.5440  -15.2940    1.3180 C   0  0  0  0  0  0  0  0  0  0  0  0
    6.0920  -16.2470    0.4000 C   0  0  0  0  0  0  0  0  0  0  0  0
    5.9950  -17.6080    0.7520 C   0  0  0  0  0  0  0  0  0  0  0  0
    6.3450  -18.0490    2.0310 C   0  0  0  0  0  0  0  0  0  0  0  0
    6.7890  -17.1010    2.9270 C   0  0  0  0  0  0  0  0  0  0  0  0
    7.2070  -17.2280    4.2910 C   0  0  0  0  0  0  0  0  0  0  0  0
    7.3330  -18.1600    5.1970 N   0  0  0  0  0  0  0  0  0  0  0  0
    7.7780  -17.4750    6.3180 C   0  0  0  0  0  0  0  0  0  0  0  0
    7.9140  -16.1180    6.0750 C   0  0  0  0  0  0  0  0  0  0  0  0
    7.5610  -15.9960    4.7790 N   0  0  0  0  0  0  0  0  0  0  0  0
    6.8150  -13.3790    4.7970 H   0  0  0  0  0  0  0  0  0  0  0  0
    7.9639  -12.2351    4.0836 H   0  0  0  0  0  0  0  0  0  0  0  0
   10.1203  -11.0554    3.6857 H   0  0  0  0  0  0  0  0  0  0  0  0
   11.9644  -14.7918    2.5494 H   0  0  0  0  0  0  0  0  0  0  0  0
    9.8100  -15.9804    2.9400 H   0  0  0  0  0  0  0  0  0  0  0  0
    6.6185  -14.2314    1.0434 H   0  0  0  0  0  0  0  0  0  0  0  0
    5.8074  -15.9290   -0.6138 H   0  0  0  0  0  0  0  0  0  0  0  0
    5.6379  -18.3352    0.0079 H   0  0  0  0  0  0  0  0  0  0  0  0
    6.2691  -19.1100    2.3112 H   0  0  0  0  0  0  0  0  0  0  0  0
    7.9968  -17.9523    7.2846 H   0  0  0  0  0  0  0  0  0  0  0  0
    8.2333  -15.3291    6.7719 H   0  0  0  0  0  0  0  0  0  0  0  0
  2  1  1  1
  2  3  1  0
  3  4  2  0
  4  5  1  0
  5  6  2  0
  6  7  1  0
  6  8  1  0
  8  9  2  0
  2 10  1  0
 10 11  2  0
 11 12  1  0
 12 13  2  0
 13 14  1  0
 14 15  2  0
 15 16  1  0
 16 17  2  0
 17 18  1  0
 18 19  2  0
 19 20  1  0
 20  2  1  0
  9  3  1  0
 15 10  1  0
 20 16  1  0
  1 21  1  0
  4 22  1  0
  5 23  1  0
  8 24  1  0
  9 25  1  0
 11 26  1  0
 12 27  1  0
 13 28  1  0
 14 29  1  0
 18 30  1  0
 19 31  1  0
M  END
>  <meeko>  (3) 
{"is_sidechain": [false], "free_energy": -6.741, "intermolecular_energy": -7.237, "internal_energy": -0.628}

$$$$
4mme_ligand
     RDKit          3D

 31 34  0  0  0  0  0  0  0  0999 V2000
   -1.4730  -10.6500    1.7310 O   0  0  0  0  0  0  0  0  0  0  0  0
   -0.3310  -10.4850    2.5710 C   0  0  2  0  0  0  0  0  0  0  0  0
    0.6160   -9.4030    2.0650 C   0  0  0  0  0  0  0  0  0  0  0  0
    1.8070   -9.0940    2.7540 C   0  0  0  0  0  0  0  0  0  0  0  0
    2.6740   -8.1020    2.2870 C   0  0  0  0  0  0  0  0  0  0  0  0
    2.3650   -7.4040    1.1230 C   0  0  0  0  0  0  0  0  0  0  0  0
    3.4330   -6.1850    0.5470 Cl  0  0  0  0  0  0  0  0  0  0  0  0
    1.1960   -7.6880    0.4230 C   0  0  0  0  0  0  0  0  0  0  0  0
    0.3280   -8.6800    0.8920 C   0  0  0  0  0  0  0  0  0  0  0  0
    0.3290  -11.8520    2.8070 C   0  0  0  0  0  0  0  0  0  0  0  0
    0.9720  -12.6840    1.9050 C   0  0  0  0  0  0  0  0  0  0  0  0
    1.4860  -13.8930    2.3840 C   0  0  0  0  0  0  0  0  0  0  0  0
    1.3510  -14.2550    3.7400 C   0  0  0  0  0  0  0  0  0  0  0  0
    0.6980  -13.4170    4.6480 C   0  0  0  0  0  0  0  0  0  0  0  0
    0.1970  -12.2280    4.1640 C   0  0  0  0  0  0  0  0  0  0  0  0
   -0.5180  -11.1780    4.8260 C   0  0  0  0  0  0  0  0  0  0  0  0
   -0.9740  -10.8990    6.0180 N   0  0  0  0  0  0  0  0  0  0  0  0
   -1.6040   -9.6750    5.8540 C   0  0  0  0  0  0  0  0  0  0  0  0
   -1.5240   -9.2230    4.5460 C   0  0  0  0  0  0  0  0  0  0  0  0
   -0.8160  -10.1880    3.9250 N   0  0  0  0  0  0  0  0  0  0  0  0
   -1.1940  -11.2260    0.9990 H   0  0  0  0  0  0  0  0  0  0  0  0
    2.0578   -9.6425    3.6739 H   0  0  0  0  0  0  0  0  0  0  0  0
    3.5982   -7.8735    2.8380 H   0  0  0  0  0  0  0  0  0  0  0  0
    0.9552   -7.1341   -0.4964 H   0  0  0  0  0  0  0  0  0  0  0  0
   -0.5949   -8.8986    0.3348 H   0  0  0  0  0  0  0  0  0  0  0  0
    1.0748  -12.4027    0.8466 H   0  0  0  0  0  0  0  0  0  0  0  0
    2.0041  -14.5728    1.6916 H   0  0  0  0  0  0  0  0  0  0  0  0
    1.7662  -15.2121    4.0887 H   0  0  0  0  0  0  0  0  0  0  0  0
    0.5883  -13.6953    5.7065 H   0  0  0  0  0  0  0  0  0  0  0  0
   -2.1072   -9.1279    6.6649 H   0  0  0  0  0  0  0  0  0  0  0  0
   -1.9387   -8.2987    4.1174 H   0  0  0  0  0  0  0  0  0  0  0  0
  2  1  1  6
  2  3  1  0
  3  4  2  0
  4  5  1  0
  5  6  2  0
  6  7  1  0
  6  8  1  0
  8  9  2  0
  2 10  1  0
 10 11  2  0
 11 12  1  0
 12 13  2  0
 13 14  1  0
 14 15  2  0
 15 16  1  0
 16 17  2  0
 17 18  1  0
 18 19  2  0
 19 20  1  0
 20  2  1  0
  9  3  1  0
 15 10  1  0
 20 16  1  0
  1 21  1  0
  4 22  1  0
  5 23  1  0
  8 24  1  0
  9 25  1  0
 11 26  1  0
 12 27  1  0
 13 28  1  0
 14 29  1  0
 18 30  1  0
 19 31  1  0
M  END
>  <meeko>  (4) 
{"is_sidechain": [false], "free_energy": -6.65, "intermolecular_energy": -7.133, "internal_energy": -0.632}

$$$$
4mme_ligand
     RDKit          3D

 31 34  0  0  0  0  0  0  0  0999 V2000
    1.3590   -9.4310    8.4170 O   0  0  0  0  0  0  0  0  0  0  0  0
    0.5520  -10.6020    8.5350 C   0  0  2  0  0  0  0  0  0  0  0  0
   -0.9290  -10.2770    8.6960 C   0  0  0  0  0  0  0  0  0  0  0  0
   -1.6880  -10.8330    9.7460 C   0  0  0  0  0  0  0  0  0  0  0  0
   -3.0460  -10.5310    9.8930 C   0  0  0  0  0  0  0  0  0  0  0  0
   -3.6650   -9.6700    8.9920 C   0  0  0  0  0  0  0  0  0  0  0  0
   -5.3350   -9.2980    9.1730 Cl  0  0  0  0  0  0  0  0  0  0  0  0
   -2.9400   -9.1080    7.9460 C   0  0  0  0  0  0  0  0  0  0  0  0
   -1.5820   -9.4100    7.7990 C   0  0  0  0  0  0  0  0  0  0  0  0
    1.1290  -11.5100    9.6300 C   0  0  0  0  0  0  0  0  0  0  0  0
    1.2140  -11.2950   10.9950 C   0  0  0  0  0  0  0  0  0  0  0  0
    1.7990  -12.2940   11.7790 C   0  0  0  0  0  0  0  0  0  0  0  0
    2.2900  -13.4810   11.1980 C   0  0  0  0  0  0  0  0  0  0  0  0
    2.2080  -13.6960    9.8200 C   0  0  0  0  0  0  0  0  0  0  0  0
    1.6280  -12.7050    9.0590 C   0  0  0  0  0  0  0  0  0  0  0  0
    1.4080  -12.6200    7.6450 C   0  0  0  0  0  0  0  0  0  0  0  0
    1.6300  -13.3310    6.5720 N   0  0  0  0  0  0  0  0  0  0  0  0
    1.1430  -12.5390    5.5430 C   0  0  0  0  0  0  0  0  0  0  0  0
    0.6290  -11.3410    6.0120 C   0  0  0  0  0  0  0  0  0  0  0  0
    0.7960  -11.4310    7.3470 N   0  0  0  0  0  0  0  0  0  0  0  0
    1.4960   -9.2870    7.4650 H   0  0  0  0  0  0  0  0  0  0  0  0
   -1.2047  -11.5151   10.4610 H   0  0  0  0  0  0  0  0  0  0  0  0
   -3.6230  -10.9730   10.7187 H   0  0  0  0  0  0  0  0  0  0  0  0
   -3.4335   -8.4278    7.2362 H   0  0  0  0  0  0  0  0  0  0  0  0
   -1.0151   -8.9629    6.9691 H   0  0  0  0  0  0  0  0  0  0  0  0
    0.8334  -10.3678   11.4483 H   0  0  0  0  0  0  0  0  0  0  0  0
    1.8774  -12.1515   12.8669 H   0  0  0  0  0  0  0  0  0  0  0  0
    2.7448  -14.2500   11.8398 H   0  0  0  0  0  0  0  0  0  0  0  0
    2.5911  -14.6194    9.3612 H   0  0  0  0  0  0  0  0  0  0  0  0
    1.1625  -12.8274    4.4817 H   0  0  0  0  0  0  0  0  0  0  0  0
    0.1899  -10.5145    5.4339 H   0  0  0  0  0  0  0  0  0  0  0  0
  2  1  1  6
  2  3  1  0
  3  4  2  0
  4  5  1  0
  5  6  2  0
  6  7  1  0
  6  8  1  0
  8  9  2  0
  2 10  1  0
 10 11  2  0
 11 12  1  0
 12 13  2  0
 13 14  1  0
 14 15  2  0
 15 16  1  0
 16 17  2  0
 17 18  1  0
 18 19  2  0
 19 20  1  0
 20  2  1  0
  9  3  1  0
 15 10  1  0
 20 16  1  0
  1 21  1  0
  4 22  1  0
  5 23  1  0
  8 24  1  0
  9 25  1  0
 11 26  1  0
 12 27  1  0
 13 28  1  0
 14 29  1  0
 18 30  1  0
 19 31  1  0
M  END
>  <meeko>  (5) 
{"is_sidechain": [false], "free_energy": -6.634, "intermolecular_energy": -7.566, "internal_energy": -0.182}

$$$$
4mme_ligand
     RDKit          3D

 31 34  0  0  0  0  0  0  0  0999 V2000
   -1.5470   -8.0010    6.4280 O   0  0  0  0  0  0  0  0  0  0  0  0
   -1.9050   -9.3280    6.8110 C   0  0  2  0  0  0  0  0  0  0  0  0
   -2.0960  -10.2520    5.6140 C   0  0  0  0  0  0  0  0  0  0  0  0
   -2.4490  -11.6060    5.7850 C   0  0  0  0  0  0  0  0  0  0  0  0
   -2.6250  -12.4500    4.6840 C   0  0  0  0  0  0  0  0  0  0  0  0
   -2.4510  -11.9530    3.3950 C   0  0  0  0  0  0  0  0  0  0  0  0
   -2.6680  -12.9910    2.0410 Cl  0  0  0  0  0  0  0  0  0  0  0  0
   -2.1010  -10.6210    3.1980 C   0  0  0  0  0  0  0  0  0  0  0  0
   -1.9240   -9.7770    4.2990 C   0  0  0  0  0  0  0  0  0  0  0  0
   -3.1010   -9.2740    7.7730 C   0  0  0  0  0  0  0  0  0  0  0  0
   -4.4040   -8.8710    7.5320 C   0  0  0  0  0  0  0  0  0  0  0  0
   -5.3090   -8.9140    8.5980 C   0  0  0  0  0  0  0  0  0  0  0  0
   -4.9060   -9.3500    9.8760 C   0  0  0  0  0  0  0  0  0  0  0  0
   -3.5900   -9.7520   10.1200 C   0  0  0  0  0  0  0  0  0  0  0  0
   -2.7090   -9.7070    9.0620 C   0  0  0  0  0  0  0  0  0  0  0  0
   -1.3170  -10.0370    8.9910 C   0  0  0  0  0  0  0  0  0  0  0  0
   -0.3670  -10.4620    9.7790 N   0  0  0  0  0  0  0  0  0  0  0  0
    0.7500  -10.5070    8.9590 C   0  0  0  0  0  0  0  0  0  0  0  0
    0.4590  -10.1000    7.6670 C   0  0  0  0  0  0  0  0  0  0  0  0
   -0.8600   -9.8250    7.7160 N   0  0  0  0  0  0  0  0  0  0  0  0
   -2.3800   -7.5120    6.3160 H   0  0  0  0  0  0  0  0  0  0  0  0
   -2.5882  -12.0050    6.8006 H   0  0  0  0  0  0  0  0  0  0  0  0
   -2.9003  -13.5041    4.8359 H   0  0  0  0  0  0  0  0  0  0  0  0
   -1.9637  -10.2324    2.1781 H   0  0  0  0  0  0  0  0  0  0  0  0
   -1.6460   -8.7253    4.1355 H   0  0  0  0  0  0  0  0  0  0  0  0
   -4.7171   -8.5282    6.5348 H   0  0  0  0  0  0  0  0  0  0  0  0
   -6.3515   -8.6026    8.4360 H   0  0  0  0  0  0  0  0  0  0  0  0
   -5.6396   -9.3743   10.6953 H   0  0  0  0  0  0  0  0  0  0  0  0
   -3.2706  -10.0907   11.1166 H   0  0  0  0  0  0  0  0  0  0  0  0
    1.7476  -10.8274    9.2940 H   0  0  0  0  0  0  0  0  0  0  0  0
    1.1407  -10.0203    6.8074 H   0  0  0  0  0  0  0  0  0  0  0  0
  2  1  1  6
  2  3  1  0
  3  4  2  0
  4  5  1  0
  5  6  2  0
  6  7  1  0
  6  8  1  0
  8  9  2  0
  2 10  1  0
 10 11  2  0
 11 12  1  0
 12 13  2  0
 13 14  1  0
 14 15  2  0
 15 16  1  0
 16 17  2  0
 17 18  1  0
 18 19  2  0
 19 20  1  0
 20  2  1  0
  9  3  1  0
 15 10  1  0
 20 16  1  0
  1 21  1  0
  4 22  1  0
  5 23  1  0
  8 24  1  0
  9 25  1  0
 11 26  1  0
 12 27  1  0
 13 28  1  0
 14 29  1  0
 18 30  1  0
 19 31  1  0
M  END
>  <meeko>  (6) 
{"is_sidechain": [false], "free_energy": -6.612, "intermolecular_energy": -7.093, "internal_energy": -0.631}

$$$$
4mme_ligand
     RDKit          3D

 31 34  0  0  0  0  0  0  0  0999 V2000
    1.2700   -9.1910    8.4400 O   0  0  0  0  0  0  0  0  0  0  0  0
    0.5280  -10.4070    8.3420 C   0  0  2  0  0  0  0  0  0  0  0  0
    0.9230  -11.2360    7.1260 C   0  0  0  0  0  0  0  0  0  0  0  0
    1.7540  -10.7060    6.1180 C   0  0  0  0  0  0  0  0  0  0  0  0
    2.1170  -11.4700    5.0050 C   0  0  0  0  0  0  0  0  0  0  0  0
    1.6540  -12.7780    4.8820 C   0  0  0  0  0  0  0  0  0  0  0  0
    2.1010  -13.7180    3.5140 Cl  0  0  0  0  0  0  0  0  0  0  0  0
    0.8320  -13.3260    5.8620 C   0  0  0  0  0  0  0  0  0  0  0  0
    0.4690  -12.5610    6.9750 C   0  0  0  0  0  0  0  0  0  0  0  0
   -0.9720  -10.0980    8.4440 C   0  0  0  0  0  0  0  0  0  0  0  0
   -1.7870   -9.3990    7.5680 C   0  0  0  0  0  0  0  0  0  0  0  0
   -3.1360   -9.2530    7.9060 C   0  0  0  0  0  0  0  0  0  0  0  0
   -3.6490   -9.7970    9.1010 C   0  0  0  0  0  0  0  0  0  0  0  0
   -2.8260  -10.4970    9.9870 C   0  0  0  0  0  0  0  0  0  0  0  0
   -1.4990  -10.6350    9.6420 C   0  0  0  0  0  0  0  0  0  0  0  0
   -0.4180  -11.2770   10.3290 C   0  0  0  0  0  0  0  0  0  0  0  0
   -0.2090  -11.9270   11.4420 N   0  0  0  0  0  0  0  0  0  0  0  0
    1.1480  -12.2120   11.4100 C   0  0  0  0  0  0  0  0  0  0  0  0
    1.7520  -11.7220   10.2640 C   0  0  0  0  0  0  0  0  0  0  0  0
    0.7320  -11.1510    9.5920 N   0  0  0  0  0  0  0  0  0  0  0  0
    0.7410   -8.5900    8.9930 H   0  0  0  0  0  0  0  0  0  0  0  0
    2.1230   -9.6737    6.2088 H   0  0  0  0  0  0  0  0  0  0  0  0
    2.7664  -11.0395    4.2285 H   0  0  0  0  0  0  0  0  0  0  0  0
    0.4683  -14.3593    5.7614 H   0  0  0  0  0  0  0  0  0  0  0  0
   -0.1816  -13.0011    7.7451 H   0  0  0  0  0  0  0  0  0  0  0  0
   -1.3857   -8.9727    6.6367 H   0  0  0  0  0  0  0  0  0  0  0  0
   -3.8075   -8.7050    7.2287 H   0  0  0  0  0  0  0  0  0  0  0  0
   -4.7150   -9.6683    9.3400 H   0  0  0  0  0  0  0  0  0  0  0  0
   -3.2213  -10.9207   10.9220 H   0  0  0  0  0  0  0  0  0  0  0  0
    1.6807  -12.7614   12.2002 H   0  0  0  0  0  0  0  0  0  0  0  0
    2.8107  -11.7839    9.9719 H   0  0  0  0  0  0  0  0  0  0  0  0
  2  1  1  1
  2  3  1  0
  3  4  2  0
  4  5  1  0
  5  6  2  0
  6  7  1  0
  6  8  1  0
  8  9  2  0
  2 10  1  0
 10 11  2  0
 11 12  1  0
 12 13  2  0
 13 14  1  0
 14 15  2  0
 15 16  1  0
 16 17  2  0
 17 18  1  0
 18 19  2  0
 19 20  1  0
 20  2  1  0
  9  3  1  0
 15 10  1  0
 20 16  1  0
  1 21  1  0
  4 22  1  0
  5 23  1  0
  8 24  1  0
  9 25  1  0
 11 26  1  0
 12 27  1  0
 13 28  1  0
 14 29  1  0
 18 30  1  0
 19 31  1  0
M  END
>  <meeko>  (7) 
{"is_sidechain": [false], "free_energy": -6.544, "intermolecular_energy": -7.062, "internal_energy": -0.589}

$$$$
4mme_ligand
     RDKit          3D

 31 34  0  0  0  0  0  0  0  0999 V2000
    8.0650  -15.9270    0.6660 O   0  0  0  0  0  0  0  0  0  0  0  0
    7.7500  -15.8120    2.0530 C   0  0  2  0  0  0  0  0  0  0  0  0
    6.2670  -15.5520    2.2970 C   0  0  0  0  0  0  0  0  0  0  0  0
    5.2930  -15.9430    1.3560 C   0  0  0  0  0  0  0  0  0  0  0  0
    3.9340  -15.7050    1.5830 C   0  0  0  0  0  0  0  0  0  0  0  0
    3.5280  -15.0720    2.7550 C   0  0  0  0  0  0  0  0  0  0  0  0
    1.8570  -14.7800    3.0350 Cl  0  0  0  0  0  0  0  0  0  0  0  0
    4.4690  -14.6740    3.7000 C   0  0  0  0  0  0  0  0  0  0  0  0
    5.8280  -14.9120    3.4720 C   0  0  0  0  0  0  0  0  0  0  0  0
    8.6930  -14.7930    2.7070 C   0  0  0  0  0  0  0  0  0  0  0  0
    8.7880  -13.4260    2.5010 C   0  0  0  0  0  0  0  0  0  0  0  0
    9.7500  -12.7210    3.2310 C   0  0  0  0  0  0  0  0  0  0  0  0
   10.5980  -13.3800    4.1440 C   0  0  0  0  0  0  0  0  0  0  0  0
   10.5050  -14.7600    4.3490 C   0  0  0  0  0  0  0  0  0  0  0  0
    9.5520  -15.4430    3.6250 C   0  0  0  0  0  0  0  0  0  0  0  0
    9.2190  -16.8360    3.6000 C   0  0  0  0  0  0  0  0  0  0  0  0
    9.6090  -17.9500    4.1600 N   0  0  0  0  0  0  0  0  0  0  0  0
    8.7970  -18.9140    3.5820 C   0  0  0  0  0  0  0  0  0  0  0  0
    7.9160  -18.3650    2.6650 C   0  0  0  0  0  0  0  0  0  0  0  0
    8.1960  -17.0470    2.7120 N   0  0  0  0  0  0  0  0  0  0  0  0
    8.3230  -15.0370    0.3690 H   0  0  0  0  0  0  0  0  0  0  0  0
    5.6071  -16.4434    0.4282 H   0  0  0  0  0  0  0  0  0  0  0  0
    3.1875  -16.0170    0.8377 H   0  0  0  0  0  0  0  0  0  0  0  0
    4.1445  -14.1734    4.6241 H   0  0  0  0  0  0  0  0  0  0  0  0
    6.5663  -14.5940    4.2229 H   0  0  0  0  0  0  0  0  0  0  0  0
    8.1281  -12.9121    1.7865 H   0  0  0  0  0  0  0  0  0  0  0  0
    9.8466  -11.6343    3.0905 H   0  0  0  0  0  0  0  0  0  0  0  0
   11.3452  -12.7990    4.7044 H   0  0  0  0  0  0  0  0  0  0  0  0
   11.1655  -15.2791    5.0591 H   0  0  0  0  0  0  0  0  0  0  0  0
    8.8466  -19.9862    3.8229 H   0  0  0  0  0  0  0  0  0  0  0  0
    7.1670  -18.8810    2.0463 H   0  0  0  0  0  0  0  0  0  0  0  0
  2  1  1  6
  2  3  1  0
  3  4  2  0
  4  5  1  0
  5  6  2  0
  6  7  1  0
  6  8  1  0
  8  9  2  0
  2 10  1  0
 10 11  2  0
 11 12  1  0
 12 13  2  0
 13 14  1  0
 14 15  2  0
 15 16  1  0
 16 17  2  0
 17 18  1  0
 18 19  2  0
 19 20  1  0
 20  2  1  0
  9  3  1  0
 15 10  1  0
 20 16  1  0
  1 21  1  0
  4 22  1  0
  5 23  1  0
  8 24  1  0
  9 25  1  0
 11 26  1  0
 12 27  1  0
 13 28  1  0
 14 29  1  0
 18 30  1  0
 19 31  1  0
M  END
>  <meeko>  (8) 
{"is_sidechain": [false], "free_energy": -6.509, "intermolecular_energy": -7.078, "internal_energy": -0.534}

$$$$
4mme_ligand
     RDKit          3D

 31 34  0  0  0  0  0  0  0  0999 V2000
   -2.4280  -10.1360    2.7700 O   0  0  0  0  0  0  0  0  0  0  0  0
   -1.1560  -10.1510    3.4160 C   0  0  2  0  0  0  0  0  0  0  0  0
   -1.2690  -10.0500    4.9330 C   0  0  0  0  0  0  0  0  0  0  0  0
   -2.3600   -9.3960    5.5420 C   0  0  0  0  0  0  0  0  0  0  0  0
   -2.4620   -9.3060    6.9340 C   0  0  0  0  0  0  0  0  0  0  0  0
   -1.4740   -9.8690    7.7380 C   0  0  0  0  0  0  0  0  0  0  0  0
   -1.6000   -9.7600    9.4500 Cl  0  0  0  0  0  0  0  0  0  0  0  0
   -0.3870  -10.5190    7.1630 C   0  0  0  0  0  0  0  0  0  0  0  0
   -0.2840  -10.6080    5.7710 C   0  0  0  0  0  0  0  0  0  0  0  0
   -0.2450   -9.0970    2.7720 C   0  0  0  0  0  0  0  0  0  0  0  0
   -0.3570   -7.7160    2.7790 C   0  0  0  0  0  0  0  0  0  0  0  0
    0.6170   -6.9780    2.1000 C   0  0  0  0  0  0  0  0  0  0  0  0
    1.6770   -7.6180    1.4270 C   0  0  0  0  0  0  0  0  0  0  0  0
    1.7880   -9.0110    1.4160 C   0  0  0  0  0  0  0  0  0  0  0  0
    0.8230   -9.7270    2.0900 C   0  0  0  0  0  0  0  0  0  0  0  0
    0.6520  -11.1400    2.2540 C   0  0  0  0  0  0  0  0  0  0  0  0
    1.2380  -12.2490    1.8890 N   0  0  0  0  0  0  0  0  0  0  0  0
    0.4360  -13.2410    2.4320 C   0  0  0  0  0  0  0  0  0  0  0  0
   -0.6420  -12.7140    3.1240 C   0  0  0  0  0  0  0  0  0  0  0  0
   -0.4670  -11.3830    3.0080 N   0  0  0  0  0  0  0  0  0  0  0  0
   -2.2530  -10.2060    1.8160 H   0  0  0  0  0  0  0  0  0  0  0  0
   -3.1434   -8.9494    4.9120 H   0  0  0  0  0  0  0  0  0  0  0  0
   -3.3199   -8.7922    7.3923 H   0  0  0  0  0  0  0  0  0  0  0  0
    0.3906  -10.9625    7.8022 H   0  0  0  0  0  0  0  0  0  0  0  0
    0.5797  -11.1218    5.3237 H   0  0  0  0  0  0  0  0  0  0  0  0
   -1.1857   -7.2163    3.3020 H   0  0  0  0  0  0  0  0  0  0  0  0
    0.5550   -5.8798    2.0909 H   0  0  0  0  0  0  0  0  0  0  0  0
    2.4293   -7.0111    0.9018 H   0  0  0  0  0  0  0  0  0  0  0  0
    2.6124   -9.5153    0.8906 H   0  0  0  0  0  0  0  0  0  0  0  0
    0.6323  -14.3181    2.3259 H   0  0  0  0  0  0  0  0  0  0  0  0
   -1.4479  -13.2529    3.6437 H   0  0  0  0  0  0  0  0  0  0  0  0
  2  1  1  6
  2  3  1  0
  3  4  2  0
  4  5  1  0
  5  6  2  0
  6  7  1  0
  6  8  1  0
  8  9  2  0
  2 10  1  0
 10 11  2  0
 11 12  1  0
 12 13  2  0
 13 14  1  0
 14 15  2  0
 15 16  1  0
 16 17  2  0
 17 18  1  0
 18 19  2  0
 19 20  1  0
 20  2  1  0
  9  3  1  0
 15 10  1  0
 20 16  1  0
  1 21  1  0
  4 22  1  0
  5 23  1  0
  8 24  1  0
  9 25  1  0
 11 26  1  0
 12 27  1  0
 13 28  1  0
 14 29  1  0
 18 30  1  0
 19 31  1  0
M  END
>  <meeko>  (9) 
{"is_sidechain": [false], "free_energy": -6.448, "intermolecular_energy": -7.096, "internal_energy": -0.45}

$$$$
