4eky_ligand
     RDKit          3D

 44 45  0  0  0  0  0  0  0  0999 V2000
    3.5080   26.7670    7.1330 C   0  0  0  0  0  0  0  0  0  0  0  0
    2.1020   27.1090    7.6090 C   0  0  0  0  0  0  0  0  0  0  0  0
    2.0500   27.4920    9.0880 C   0  0  0  0  0  0  0  0  0  0  0  0
    0.8520   28.2790    9.4160 C   0  0  0  0  0  0  0  0  0  0  0  0
   -0.1250   28.9300    9.6680 C   0  0  0  0  0  0  0  0  0  0  0  0
   -1.2780   29.7060    9.9720 C   0  0  0  0  0  0  0  0  0  0  0  0
   -2.4330   29.5100    9.3250 C   0  0  0  0  0  0  0  0  0  0  0  0
   -3.5800   30.2400    9.5910 N   0  0  0  0  0  0  0  0  0  0  0  0
   -4.7970   30.0340    8.7900 C   0  0  2  0  0  0  0  0  0  0  0  0
   -5.1280   28.6330    8.8440 O   0  0  0  0  0  0  0  0  0  0  0  0
   -5.9370   28.1380    7.7620 C   0  0  2  0  0  0  0  0  0  0  0  0
   -5.0440   27.3460    6.7870 C   0  0  0  0  0  0  0  0  0  0  0  0
   -3.9760   26.6810    7.4430 O   0  0  0  0  0  0  0  0  0  0  0  0
   -6.7960   29.2270    7.0960 C   0  0  1  0  0  0  0  0  0  0  0  0
   -7.7040   29.7850    8.0570 O   0  0  0  0  0  0  0  0  0  0  0  0
   -5.9270   30.3680    6.5500 C   0  0  2  0  0  0  0  0  0  0  0  0
   -5.5940   30.1140    5.1720 O   0  0  0  0  0  0  0  0  0  0  0  0
   -4.6150   30.5390    7.3370 C   0  0  1  0  0  0  0  0  0  0  0  0
   -4.1940   31.9080    7.2630 O   0  0  0  0  0  0  0  0  0  0  0  0
   -3.5930   31.2540   10.5390 C   0  0  0  0  0  0  0  0  0  0  0  0
   -4.5700   31.9420   10.8220 O   0  0  0  0  0  0  0  0  0  0  0  0
   -2.4080   31.4560   11.2010 N   0  0  0  0  0  0  0  0  0  0  0  0
   -1.2420   30.7690   11.0110 C   0  0  0  0  0  0  0  0  0  0  0  0
   -0.2340   31.0270   11.6630 O   0  0  0  0  0  0  0  0  0  0  0  0
    4.1613   26.6081    8.0036 H   0  0  0  0  0  0  0  0  0  0  0  0
    3.4767   25.8503    6.5258 H   0  0  0  0  0  0  0  0  0  0  0  0
    3.9013   27.5957    6.5258 H   0  0  0  0  0  0  0  0  0  0  0  0
    1.7264   27.9547    7.0143 H   0  0  0  0  0  0  0  0  0  0  0  0
    1.4823   26.2094    7.4796 H   0  0  0  0  0  0  0  0  0  0  0  0
    2.0463   26.5727    9.6921 H   0  0  0  0  0  0  0  0  0  0  0  0
    2.9318   28.1118    9.3076 H   0  0  0  0  0  0  0  0  0  0  0  0
   -2.4735   28.7339    8.5465 H   0  0  0  0  0  0  0  0  0  0  0  0
   -5.6284   30.6231    9.2043 H   0  0  0  0  0  0  0  0  0  0  0  0
   -6.6891   27.4445    8.1661 H   0  0  0  0  0  0  0  0  0  0  0  0
   -5.6628   26.5962    6.2724 H   0  0  0  0  0  0  0  0  0  0  0  0
   -4.6046   28.0643    6.0792 H   0  0  0  0  0  0  0  0  0  0  0  0
   -3.3940   27.3740    7.8160 H   0  0  0  0  0  0  0  0  0  0  0  0
   -7.3426   28.7552    6.2661 H   0  0  0  0  0  0  0  0  0  0  0  0
   -7.1940   30.3420    8.6730 H   0  0  0  0  0  0  0  0  0  0  0  0
   -6.5170   31.2907    6.6524 H   0  0  0  0  0  0  0  0  0  0  0  0
   -5.3580   30.9800    4.7840 H   0  0  0  0  0  0  0  0  0  0  0  0
   -3.8156   29.9273    6.8934 H   0  0  0  0  0  0  0  0  0  0  0  0
   -3.5670   31.9690    6.5190 H   0  0  0  0  0  0  0  0  0  0  0  0
   -2.4040   32.1840   11.8970 H   0  0  0  0  0  0  0  0  0  0  0  0
  1  2  1  0
  2  3  1  0
  3  4  1  0
  4  5  3  0
  5  6  1  0
  6  7  2  0
  7  8  1  0
  8  9  1  0
  9 10  1  0
 10 11  1  0
 11 12  1  0
 12 13  1  0
 11 14  1  0
 14 15  1  0
 14 16  1  0
 16 17  1  0
 16 18  1  0
 18 19  1  0
  8 20  1  0
 20 21  2  0
 20 22  1  0
 22 23  1  0
 23 24  2  0
 23  6  1  0
 18  9  1  0
  1 25  1  0
  1 26  1  0
  1 27  1  0
  2 28  1  0
  2 29  1  0
  3 30  1  0
  3 31  1  0
  7 32  1  0
  9 33  1  1
 11 34  1  1
 12 35  1  0
 12 36  1  0
 13 37  1  0
 14 38  1  6
 15 39  1  0
 16 40  1  6
 17 41  1  0
 18 42  1  6
 19 43  1  0
 22 44  1  0
M  END
>  <meeko>  (1) 
{"is_sidechain": [false], "free_energy": -7.421, "intermolecular_energy": -10.024, "internal_energy": -0.742}

$$$$
4eky_ligand
     RDKit          3D

 44 45  0  0  0  0  0  0  0  0999 V2000
   -0.2990   32.7070   12.5160 C   0  0  0  0  0  0  0  0  0  0  0  0
    0.4090   31.3700   12.6920 C   0  0  0  0  0  0  0  0  0  0  0  0
    0.1320   30.3920   11.5510 C   0  0  0  0  0  0  0  0  0  0  0  0
   -1.3060   30.2410   11.2860 C   0  0  0  0  0  0  0  0  0  0  0  0
   -2.4840   30.1190   11.0870 C   0  0  0  0  0  0  0  0  0  0  0  0
   -3.8800   29.9700   10.8590 C   0  0  0  0  0  0  0  0  0  0  0  0
   -4.4550   30.4520    9.7500 C   0  0  0  0  0  0  0  0  0  0  0  0
   -5.8090   30.3270    9.4860 N   0  0  0  0  0  0  0  0  0  0  0  0
   -6.3960   30.9490    8.2890 C   0  0  2  0  0  0  0  0  0  0  0  0
   -5.9190   30.2250    7.1380 O   0  0  0  0  0  0  0  0  0  0  0  0
   -5.9430   30.9440    5.8920 C   0  0  2  0  0  0  0  0  0  0  0  0
   -4.5100   31.3920    5.5430 C   0  0  0  0  0  0  0  0  0  0  0  0
   -4.4730   32.3110    4.4620 O   0  0  0  0  0  0  0  0  0  0  0  0
   -6.9880   32.0720    5.8590 C   0  0  1  0  0  0  0  0  0  0  0  0
   -8.3020   31.5230    6.0340 O   0  0  0  0  0  0  0  0  0  0  0  0
   -6.7490   33.0880    6.9840 C   0  0  2  0  0  0  0  0  0  0  0  0
   -5.9150   34.1610    6.5060 O   0  0  0  0  0  0  0  0  0  0  0  0
   -6.0640   32.4600    8.2120 C   0  0  1  0  0  0  0  0  0  0  0  0
   -6.4460   33.1840    9.3890 O   0  0  0  0  0  0  0  0  0  0  0  0
   -6.6700   29.7100   10.3840 C   0  0  0  0  0  0  0  0  0  0  0  0
   -7.8790   29.5690   10.2160 O   0  0  0  0  0  0  0  0  0  0  0  0
   -6.0820   29.2180   11.5210 N   0  0  0  0  0  0  0  0  0  0  0  0
   -4.7550   29.2840   11.8460 C   0  0  0  0  0  0  0  0  0  0  0  0
   -4.3280   28.8040   12.8920 O   0  0  0  0  0  0  0  0  0  0  0  0
   -0.5255   33.1348   13.5038 H   0  0  0  0  0  0  0  0  0  0  0  0
    0.3523   33.3962   11.9586 H   0  0  0  0  0  0  0  0  0  0  0  0
   -1.2351   32.5556   11.9586 H   0  0  0  0  0  0  0  0  0  0  0  0
    1.4928   31.5514   12.7426 H   0  0  0  0  0  0  0  0  0  0  0  0
    0.0249   30.9139   13.6164 H   0  0  0  0  0  0  0  0  0  0  0  0
    0.6232   30.7630   10.6393 H   0  0  0  0  0  0  0  0  0  0  0  0
    0.5262   29.4084   11.8461 H   0  0  0  0  0  0  0  0  0  0  0  0
   -3.8229   30.9712    9.0146 H   0  0  0  0  0  0  0  0  0  0  0  0
   -7.4937   30.8906    8.3295 H   0  0  0  0  0  0  0  0  0  0  0  0
   -6.2870   30.2682    5.0952 H   0  0  0  0  0  0  0  0  0  0  0  0
   -4.0654   31.8709    6.4278 H   0  0  0  0  0  0  0  0  0  0  0  0
   -3.9463   30.4977    5.2391 H   0  0  0  0  0  0  0  0  0  0  0  0
   -4.9720   33.1050    4.7470 H   0  0  0  0  0  0  0  0  0  0  0  0
   -6.8984   32.5762    4.8855 H   0  0  0  0  0  0  0  0  0  0  0  0
   -8.5180   30.9890    5.2470 H   0  0  0  0  0  0  0  0  0  0  0  0
   -7.7387   33.4586    7.2890 H   0  0  0  0  0  0  0  0  0  0  0  0
   -5.5660   34.6120    7.3010 H   0  0  0  0  0  0  0  0  0  0  0  0
   -4.9699   32.5341    8.1254 H   0  0  0  0  0  0  0  0  0  0  0  0
   -6.2260   32.6180   10.1510 H   0  0  0  0  0  0  0  0  0  0  0  0
   -6.6930   28.7610   12.1790 H   0  0  0  0  0  0  0  0  0  0  0  0
  1  2  1  0
  2  3  1  0
  3  4  1  0
  4  5  3  0
  5  6  1  0
  6  7  2  0
  7  8  1  0
  8  9  1  0
  9 10  1  0
 10 11  1  0
 11 12  1  0
 12 13  1  0
 11 14  1  0
 14 15  1  0
 14 16  1  0
 16 17  1  0
 16 18  1  0
 18 19  1  0
  8 20  1  0
 20 21  2  0
 20 22  1  0
 22 23  1  0
 23 24  2  0
 23  6  1  0
 18  9  1  0
  1 25  1  0
  1 26  1  0
  1 27  1  0
  2 28  1  0
  2 29  1  0
  3 30  1  0
  3 31  1  0
  7 32  1  0
  9 33  1  1
 11 34  1  6
 12 35  1  0
 12 36  1  0
 13 37  1  0
 14 38  1  6
 15 39  1  0
 16 40  1  1
 17 41  1  0
 18 42  1  6
 19 43  1  0
 22 44  1  0
M  END
>  <meeko>  (2) 
{"is_sidechain": [false], "free_energy": -7.407, "intermolecular_energy": -9.841, "internal_energy": -0.906}

$$$$
4eky_ligand
     RDKit          3D

 44 45  0  0  0  0  0  0  0  0999 V2000
   -0.3810   32.6970   13.8060 C   0  0  0  0  0  0  0  0  0  0  0  0
    1.0430   32.3430   13.3980 C   0  0  0  0  0  0  0  0  0  0  0  0
    1.2220   30.8590   13.0780 C   0  0  0  0  0  0  0  0  0  0  0  0
    0.4180   30.4400   11.9210 C   0  0  0  0  0  0  0  0  0  0  0  0
   -0.2520   30.1080   10.9810 C   0  0  0  0  0  0  0  0  0  0  0  0
   -1.0390   29.7080    9.8660 C   0  0  0  0  0  0  0  0  0  0  0  0
   -2.2630   30.2150    9.6670 C   0  0  0  0  0  0  0  0  0  0  0  0
   -3.0620   29.8590    8.5930 N   0  0  0  0  0  0  0  0  0  0  0  0
   -4.4290   30.3880    8.4730 C   0  0  2  0  0  0  0  0  0  0  0  0
   -4.3760   31.8050    8.7290 O   0  0  0  0  0  0  0  0  0  0  0  0
   -5.6080   32.4110    9.1610 C   0  0  2  0  0  0  0  0  0  0  0  0
   -5.5360   32.6700   10.6780 C   0  0  0  0  0  0  0  0  0  0  0  0
   -4.2050   32.6660   11.1710 O   0  0  0  0  0  0  0  0  0  0  0  0
   -6.8580   31.6380    8.7070 C   0  0  1  0  0  0  0  0  0  0  0  0
   -6.9100   31.5960    7.2730 O   0  0  0  0  0  0  0  0  0  0  0  0
   -6.8390   30.1910    9.2200 C   0  0  2  0  0  0  0  0  0  0  0  0
   -7.5300   30.1100   10.4810 O   0  0  0  0  0  0  0  0  0  0  0  0
   -5.4090   29.6550    9.4220 C   0  0  1  0  0  0  0  0  0  0  0  0
   -5.4080   28.2320    9.2470 O   0  0  0  0  0  0  0  0  0  0  0  0
   -2.6480   28.9170    7.6600 C   0  0  0  0  0  0  0  0  0  0  0  0
   -3.3050   28.5510    6.6900 O   0  0  0  0  0  0  0  0  0  0  0  0
   -1.3960   28.3960    7.8660 N   0  0  0  0  0  0  0  0  0  0  0  0
   -0.5400   28.7090    8.8860 C   0  0  0  0  0  0  0  0  0  0  0  0
    0.5670   28.1860    8.9750 O   0  0  0  0  0  0  0  0  0  0  0  0
   -0.4542   32.7152   14.9034 H   0  0  0  0  0  0  0  0  0  0  0  0
   -0.6420   33.6874   13.4046 H   0  0  0  0  0  0  0  0  0  0  0  0
   -1.0753   31.9441   13.4046 H   0  0  0  0  0  0  0  0  0  0  0  0
    1.3074   32.9284   12.5050 H   0  0  0  0  0  0  0  0  0  0  0  0
    1.6970   32.5765   14.2511 H   0  0  0  0  0  0  0  0  0  0  0  0
    2.2832   30.6691   12.8595 H   0  0  0  0  0  0  0  0  0  0  0  0
    0.8838   30.2819   13.9513 H   0  0  0  0  0  0  0  0  0  0  0  0
   -2.6513   30.9477   10.3897 H   0  0  0  0  0  0  0  0  0  0  0  0
   -4.8169   30.2131    7.4586 H   0  0  0  0  0  0  0  0  0  0  0  0
   -5.7239   33.3833    8.6598 H   0  0  0  0  0  0  0  0  0  0  0  0
   -5.9868   33.6508   10.8895 H   0  0  0  0  0  0  0  0  0  0  0  0
   -6.0793   31.8562   11.1805 H   0  0  0  0  0  0  0  0  0  0  0  0
   -4.0710   31.8070   11.6220 H   0  0  0  0  0  0  0  0  0  0  0  0
   -7.7349   32.1596    9.1180 H   0  0  0  0  0  0  0  0  0  0  0  0
   -6.5800   32.4470    6.9300 H   0  0  0  0  0  0  0  0  0  0  0  0
   -7.3359   29.5778    8.4538 H   0  0  0  0  0  0  0  0  0  0  0  0
   -6.9170   30.4670   11.1540 H   0  0  0  0  0  0  0  0  0  0  0  0
   -5.0606   29.8574   10.4455 H   0  0  0  0  0  0  0  0  0  0  0  0
   -5.1110   27.8450   10.0910 H   0  0  0  0  0  0  0  0  0  0  0  0
   -1.0780   27.7160    7.1930 H   0  0  0  0  0  0  0  0  0  0  0  0
  1  2  1  0
  2  3  1  0
  3  4  1  0
  4  5  3  0
  5  6  1  0
  6  7  2  0
  7  8  1  0
  8  9  1  0
  9 10  1  0
 10 11  1  0
 11 12  1  0
 12 13  1  0
 11 14  1  0
 14 15  1  0
 14 16  1  0
 16 17  1  0
 16 18  1  0
 18 19  1  0
  8 20  1  0
 20 21  2  0
 20 22  1  0
 22 23  1  0
 23 24  2  0
 23  6  1  0
 18  9  1  0
  1 25  1  0
  1 26  1  0
  1 27  1  0
  2 28  1  0
  2 29  1  0
  3 30  1  0
  3 31  1  0
  7 32  1  0
  9 33  1  6
 11 34  1  6
 12 35  1  0
 12 36  1  0
 13 37  1  0
 14 38  1  1
 15 39  1  0
 16 40  1  6
 17 41  1  0
 18 42  1  1
 19 43  1  0
 22 44  1  0
M  END
>  <meeko>  (3) 
{"is_sidechain": [false], "free_energy": -7.4, "intermolecular_energy": -9.91, "internal_energy": -0.827}

$$$$
4eky_ligand
     RDKit          3D

 44 45  0  0  0  0  0  0  0  0999 V2000
   -5.3280   35.1890   -0.0370 C   0  0  0  0  0  0  0  0  0  0  0  0
   -4.9650   34.2710    1.1230 C   0  0  0  0  0  0  0  0  0  0  0  0
   -6.1480   33.4420    1.6230 C   0  0  0  0  0  0  0  0  0  0  0  0
   -6.2510   33.4480    3.0890 C   0  0  0  0  0  0  0  0  0  0  0  0
   -6.3160   33.4520    4.2890 C   0  0  0  0  0  0  0  0  0  0  0  0
   -6.4000   33.4640    5.7090 C   0  0  0  0  0  0  0  0  0  0  0  0
   -5.7980   32.5210    6.4440 C   0  0  0  0  0  0  0  0  0  0  0  0
   -5.8490   32.4960    7.8280 N   0  0  0  0  0  0  0  0  0  0  0  0
   -5.2370   31.3880    8.5770 C   0  0  2  0  0  0  0  0  0  0  0  0
   -3.8270   31.3810    8.2790 O   0  0  0  0  0  0  0  0  0  0  0  0
   -3.1500   30.1270    8.4770 C   0  0  2  0  0  0  0  0  0  0  0  0
   -2.9040   29.4670    7.1060 C   0  0  0  0  0  0  0  0  0  0  0  0
   -2.4670   28.1210    7.2180 O   0  0  0  0  0  0  0  0  0  0  0  0
   -3.8430   29.2160    9.5060 C   0  0  1  0  0  0  0  0  0  0  0  0
   -3.8750   29.8650   10.7850 O   0  0  0  0  0  0  0  0  0  0  0  0
   -5.2910   28.9110    9.0960 C   0  0  2  0  0  0  0  0  0  0  0  0
   -5.3370   27.6920    8.3310 O   0  0  0  0  0  0  0  0  0  0  0  0
   -5.9140   30.0340    8.2460 C   0  0  1  0  0  0  0  0  0  0  0  0
   -7.3330   30.0470    8.4470 O   0  0  0  0  0  0  0  0  0  0  0  0
   -6.5630   33.4460    8.5460 C   0  0  0  0  0  0  0  0  0  0  0  0
   -6.6560   33.4810    9.7700 O   0  0  0  0  0  0  0  0  0  0  0  0
   -7.1820   34.4110    7.7920 N   0  0  0  0  0  0  0  0  0  0  0  0
   -7.1630   34.5160    6.4290 C   0  0  0  0  0  0  0  0  0  0  0  0
   -7.7480   35.4270    5.8500 O   0  0  0  0  0  0  0  0  0  0  0  0
   -5.7058   36.1445    0.3559 H   0  0  0  0  0  0  0  0  0  0  0  0
   -4.4350   35.3730   -0.6523 H   0  0  0  0  0  0  0  0  0  0  0  0
   -6.1054   34.7125   -0.6523 H   0  0  0  0  0  0  0  0  0  0  0  0
   -4.1716   33.5849    0.7917 H   0  0  0  0  0  0  0  0  0  0  0  0
   -4.6355   34.9091    1.9562 H   0  0  0  0  0  0  0  0  0  0  0  0
   -7.0750   33.8576    1.2012 H   0  0  0  0  0  0  0  0  0  0  0  0
   -5.9917   32.4022    1.3001 H   0  0  0  0  0  0  0  0  0  0  0  0
   -5.2371   31.7297    5.9251 H   0  0  0  0  0  0  0  0  0  0  0  0
   -5.3827   31.5336    9.6575 H   0  0  0  0  0  0  0  0  0  0  0  0
   -2.1700   30.3182    8.9386 H   0  0  0  0  0  0  0  0  0  0  0  0
   -3.8425   29.4860    6.5325 H   0  0  0  0  0  0  0  0  0  0  0  0
   -2.1082   30.0345    6.6014 H   0  0  0  0  0  0  0  0  0  0  0  0
   -1.5850   28.1430    7.6430 H   0  0  0  0  0  0  0  0  0  0  0  0
   -3.2714   28.2775    9.5549 H   0  0  0  0  0  0  0  0  0  0  0  0
   -3.8020   29.1810   11.4770 H   0  0  0  0  0  0  0  0  0  0  0  0
   -5.8690   28.8183   10.0273 H   0  0  0  0  0  0  0  0  0  0  0  0
   -5.3410   27.9580    7.3910 H   0  0  0  0  0  0  0  0  0  0  0  0
   -5.7383   29.8524    7.1754 H   0  0  0  0  0  0  0  0  0  0  0  0
   -7.6000   30.9830    8.5130 H   0  0  0  0  0  0  0  0  0  0  0  0
   -7.6990   35.1120    8.2990 H   0  0  0  0  0  0  0  0  0  0  0  0
  1  2  1  0
  2  3  1  0
  3  4  1  0
  4  5  3  0
  5  6  1  0
  6  7  2  0
  7  8  1  0
  8  9  1  0
  9 10  1  0
 10 11  1  0
 11 12  1  0
 12 13  1  0
 11 14  1  0
 14 15  1  0
 14 16  1  0
 16 17  1  0
 16 18  1  0
 18 19  1  0
  8 20  1  0
 20 21  2  0
 20 22  1  0
 22 23  1  0
 23 24  2  0
 23  6  1  0
 18  9  1  0
  1 25  1  0
  1 26  1  0
  1 27  1  0
  2 28  1  0
  2 29  1  0
  3 30  1  0
  3 31  1  0
  7 32  1  0
  9 33  1  1
 11 34  1  1
 12 35  1  0
 12 36  1  0
 13 37  1  0
 14 38  1  1
 15 39  1  0
 16 40  1  1
 17 41  1  0
 18 42  1  6
 19 43  1  0
 22 44  1  0
M  END
>  <meeko>  (4) 
{"is_sidechain": [false], "free_energy": -6.968, "intermolecular_energy": -9.283, "internal_energy": -0.871}

$$$$
4eky_ligand
     RDKit          3D

 44 45  0  0  0  0  0  0  0  0999 V2000
   -7.5670   26.6410    5.2740 C   0  0  0  0  0  0  0  0  0  0  0  0
   -6.1740   26.3810    4.7160 C   0  0  0  0  0  0  0  0  0  0  0  0
   -5.1400   26.0900    5.8020 C   0  0  0  0  0  0  0  0  0  0  0  0
   -5.0000   27.2050    6.7500 C   0  0  0  0  0  0  0  0  0  0  0  0
   -4.8870   28.1280    7.5100 C   0  0  0  0  0  0  0  0  0  0  0  0
   -4.7630   29.2230    8.4080 C   0  0  0  0  0  0  0  0  0  0  0  0
   -3.6740   29.3680    9.1750 C   0  0  0  0  0  0  0  0  0  0  0  0
   -3.5090   30.4210   10.0600 N   0  0  0  0  0  0  0  0  0  0  0  0
   -2.3270   30.4820   10.9330 C   0  0  2  0  0  0  0  0  0  0  0  0
   -1.1570   30.4110   10.0970 O   0  0  0  0  0  0  0  0  0  0  0  0
    0.0460   29.9480   10.7380 C   0  0  2  0  0  0  0  0  0  0  0  0
    0.3080   28.4880   10.3200 C   0  0  0  0  0  0  0  0  0  0  0  0
   -0.2890   28.1600    9.0750 O   0  0  0  0  0  0  0  0  0  0  0  0
    0.0550   30.1850   12.2580 C   0  0  1  0  0  0  0  0  0  0  0  0
   -0.0320   31.5920   12.5310 O   0  0  0  0  0  0  0  0  0  0  0  0
   -1.1370   29.4990   12.9390 C   0  0  2  0  0  0  0  0  0  0  0  0
   -0.7580   28.1790   13.3760 O   0  0  0  0  0  0  0  0  0  0  0  0
   -2.3530   29.3630   12.0040 C   0  0  1  0  0  0  0  0  0  0  0  0
   -3.5530   29.3570   12.7880 O   0  0  0  0  0  0  0  0  0  0  0  0
   -4.4900   31.3890   10.2290 C   0  0  0  0  0  0  0  0  0  0  0  0
   -4.4120   32.3440   10.9970 O   0  0  0  0  0  0  0  0  0  0  0  0
   -5.6060   31.2390    9.4460 N   0  0  0  0  0  0  0  0  0  0  0  0
   -5.8370   30.2430    8.5380 C   0  0  0  0  0  0  0  0  0  0  0  0
   -6.8720   30.2040    7.8800 O   0  0  0  0  0  0  0  0  0  0  0  0
   -7.5288   26.6339    6.3733 H   0  0  0  0  0  0  0  0  0  0  0  0
   -7.9244   27.6214    4.9259 H   0  0  0  0  0  0  0  0  0  0  0  0
   -8.2539   25.8556    4.9259 H   0  0  0  0  0  0  0  0  0  0  0  0
   -6.2237   25.5157    4.0387 H   0  0  0  0  0  0  0  0  0  0  0  0
   -5.8536   27.2943    4.1932 H   0  0  0  0  0  0  0  0  0  0  0  0
   -5.4510   25.1917    6.3554 H   0  0  0  0  0  0  0  0  0  0  0  0
   -4.1673   25.9412    5.3104 H   0  0  0  0  0  0  0  0  0  0  0  0
   -2.8743   28.6165    9.0985 H   0  0  0  0  0  0  0  0  0  0  0  0
   -2.3179   31.4277   11.4947 H   0  0  0  0  0  0  0  0  0  0  0  0
    0.8945   30.5547   10.3888 H   0  0  0  0  0  0  0  0  0  0  0  0
    1.3943   28.3339   10.2410 H   0  0  0  0  0  0  0  0  0  0  0  0
   -0.1401   27.8374   11.0854 H   0  0  0  0  0  0  0  0  0  0  0  0
   -1.2560   28.1180    9.2250 H   0  0  0  0  0  0  0  0  0  0  0  0
    0.9920   29.7640   12.6516 H   0  0  0  0  0  0  0  0  0  0  0  0
    0.8410   31.8990   12.8370 H   0  0  0  0  0  0  0  0  0  0  0  0
   -1.4219   30.1339   13.7909 H   0  0  0  0  0  0  0  0  0  0  0  0
   -1.5750   27.7540   13.7020 H   0  0  0  0  0  0  0  0  0  0  0  0
   -2.3167   28.4094   11.4568 H   0  0  0  0  0  0  0  0  0  0  0  0
   -3.3010   29.0770   13.6870 H   0  0  0  0  0  0  0  0  0  0  0  0
   -6.3250   31.9370    9.5530 H   0  0  0  0  0  0  0  0  0  0  0  0
  1  2  1  0
  2  3  1  0
  3  4  1  0
  4  5  3  0
  5  6  1  0
  6  7  2  0
  7  8  1  0
  8  9  1  0
  9 10  1  0
 10 11  1  0
 11 12  1  0
 12 13  1  0
 11 14  1  0
 14 15  1  0
 14 16  1  0
 16 17  1  0
 16 18  1  0
 18 19  1  0
  8 20  1  0
 20 21  2  0
 20 22  1  0
 22 23  1  0
 23 24  2  0
 23  6  1  0
 18  9  1  0
  1 25  1  0
  1 26  1  0
  1 27  1  0
  2 28  1  0
  2 29  1  0
  3 30  1  0
  3 31  1  0
  7 32  1  0
  9 33  1  1
 11 34  1  6
 12 35  1  0
 12 36  1  0
 13 37  1  0
 14 38  1  1
 15 39  1  0
 16 40  1  1
 17 41  1  0
 18 42  1  6
 19 43  1  0
 22 44  1  0
M  END
>  <meeko>  (5) 
{"is_sidechain": [false], "free_energy": -6.93, "intermolecular_energy": -9.295, "internal_energy": -0.809}

$$$$
4eky_ligand
     RDKit          3D

 44 45  0  0  0  0  0  0  0  0999 V2000
    4.6680   26.0020    7.5080 C   0  0  0  0  0  0  0  0  0  0  0  0
    3.6100   27.0190    7.9150 C   0  0  0  0  0  0  0  0  0  0  0  0
    2.2530   26.7650    7.2590 C   0  0  0  0  0  0  0  0  0  0  0  0
    1.1840   27.5750    7.8600 C   0  0  0  0  0  0  0  0  0  0  0  0
    0.3190   28.2360    8.3670 C   0  0  0  0  0  0  0  0  0  0  0  0
   -0.7000   29.0210    8.9740 C   0  0  0  0  0  0  0  0  0  0  0  0
   -1.9240   29.1010    8.4360 C   0  0  0  0  0  0  0  0  0  0  0  0
   -2.9470   29.8490    8.9950 N   0  0  0  0  0  0  0  0  0  0  0  0
   -4.2450   29.9640    8.3130 C   0  0  2  0  0  0  0  0  0  0  0  0
   -4.2660   31.2240    7.6150 O   0  0  0  0  0  0  0  0  0  0  0  0
   -5.5700   31.7580    7.3250 C   0  0  2  0  0  0  0  0  0  0  0  0
   -5.8760   32.9020    8.3110 C   0  0  0  0  0  0  0  0  0  0  0  0
   -4.7020   33.4780    8.8620 O   0  0  0  0  0  0  0  0  0  0  0  0
   -6.6650   30.6800    7.2410 C   0  0  1  0  0  0  0  0  0  0  0  0
   -6.3610   29.7600    6.1840 O   0  0  0  0  0  0  0  0  0  0  0  0
   -6.7640   29.8820    8.5480 C   0  0  2  0  0  0  0  0  0  0  0  0
   -7.7440   30.4810    9.4160 O   0  0  0  0  0  0  0  0  0  0  0  0
   -5.4250   29.8220    9.3070 C   0  0  1  0  0  0  0  0  0  0  0  0
   -5.3720   28.6160   10.0790 O   0  0  0  0  0  0  0  0  0  0  0  0
   -2.7540   30.5960   10.1500 C   0  0  0  0  0  0  0  0  0  0  0  0
   -3.6120   31.2840   10.6950 O   0  0  0  0  0  0  0  0  0  0  0  0
   -1.5000   30.5150   10.7000 N   0  0  0  0  0  0  0  0  0  0  0  0
   -0.4460   29.7870   10.2220 C   0  0  0  0  0  0  0  0  0  0  0  0
    0.6390   29.7790   10.7970 O   0  0  0  0  0  0  0  0  0  0  0  0
    5.1225   25.5651    8.4094 H   0  0  0  0  0  0  0  0  0  0  0  0
    4.2004   25.2057    6.9103 H   0  0  0  0  0  0  0  0  0  0  0  0
    5.4452   26.5007    6.9103 H   0  0  0  0  0  0  0  0  0  0  0  0
    3.4848   26.9764    9.0070 H   0  0  0  0  0  0  0  0  0  0  0  0
    3.9576   28.0072    7.5794 H   0  0  0  0  0  0  0  0  0  0  0  0
    2.3252   27.0116    6.1894 H   0  0  0  0  0  0  0  0  0  0  0  0
    1.9986   25.7055    7.4101 H   0  0  0  0  0  0  0  0  0  0  0  0
   -2.1261   28.5471    7.5074 H   0  0  0  0  0  0  0  0  0  0  0  0
   -4.3688   29.1437    7.5906 H   0  0  0  0  0  0  0  0  0  0  0  0
   -5.5652   32.1827    6.3103 H   0  0  0  0  0  0  0  0  0  0  0  0
   -6.4359   33.6851    7.7788 H   0  0  0  0  0  0  0  0  0  0  0  0
   -6.4597   32.4781    9.1414 H   0  0  0  0  0  0  0  0  0  0  0  0
   -4.2430   32.7700    9.3580 H   0  0  0  0  0  0  0  0  0  0  0  0
   -7.6199   31.1926    7.0530 H   0  0  0  0  0  0  0  0  0  0  0  0
   -6.5500   28.8570    6.5000 H   0  0  0  0  0  0  0  0  0  0  0  0
   -7.0529   28.8578    8.2695 H   0  0  0  0  0  0  0  0  0  0  0  0
   -7.6790   31.4470    9.2780 H   0  0  0  0  0  0  0  0  0  0  0  0
   -5.3414   30.6629   10.0113 H   0  0  0  0  0  0  0  0  0  0  0  0
   -4.6940   28.0480    9.6690 H   0  0  0  0  0  0  0  0  0  0  0  0
   -1.3460   31.0470   11.5420 H   0  0  0  0  0  0  0  0  0  0  0  0
  1  2  1  0
  2  3  1  0
  3  4  1  0
  4  5  3  0
  5  6  1  0
  6  7  2  0
  7  8  1  0
  8  9  1  0
  9 10  1  0
 10 11  1  0
 11 12  1  0
 12 13  1  0
 11 14  1  0
 14 15  1  0
 14 16  1  0
 16 17  1  0
 16 18  1  0
 18 19  1  0
  8 20  1  0
 20 21  2  0
 20 22  1  0
 22 23  1  0
 23 24  2  0
 23  6  1  0
 18  9  1  0
  1 25  1  0
  1 26  1  0
  1 27  1  0
  2 28  1  0
  2 29  1  0
  3 30  1  0
  3 31  1  0
  7 32  1  0
  9 33  1  6
 11 34  1  6
 12 35  1  0
 12 36  1  0
 13 37  1  0
 14 38  1  6
 15 39  1  0
 16 40  1  6
 17 41  1  0
 18 42  1  1
 19 43  1  0
 22 44  1  0
M  END
>  <meeko>  (6) 
{"is_sidechain": [false], "free_energy": -6.866, "intermolecular_energy": -9.749, "internal_energy": -0.268}

$$$$
4eky_ligand
     RDKit          3D

 44 45  0  0  0  0  0  0  0  0999 V2000
   -5.5430   35.5070   -0.1690 C   0  0  0  0  0  0  0  0  0  0  0  0
   -5.0130   34.6160    0.9460 C   0  0  0  0  0  0  0  0  0  0  0  0
   -5.9930   33.5140    1.3470 C   0  0  0  0  0  0  0  0  0  0  0  0
   -6.1520   33.4150    2.8050 C   0  0  0  0  0  0  0  0  0  0  0  0
   -6.2640   33.3380    3.9990 C   0  0  0  0  0  0  0  0  0  0  0  0
   -6.4000   33.2550    5.4120 C   0  0  0  0  0  0  0  0  0  0  0  0
   -6.0760   32.1360    6.0730 C   0  0  0  0  0  0  0  0  0  0  0  0
   -6.1880   32.0120    7.4480 N   0  0  0  0  0  0  0  0  0  0  0  0
   -5.8940   30.7310    8.1070 C   0  0  2  0  0  0  0  0  0  0  0  0
   -7.1390   30.1820    8.5800 O   0  0  0  0  0  0  0  0  0  0  0  0
   -7.0390   29.2380    9.6610 C   0  0  2  0  0  0  0  0  0  0  0  0
   -7.4560   29.9300   10.9730 C   0  0  0  0  0  0  0  0  0  0  0  0
   -8.3150   31.0390   10.7580 O   0  0  0  0  0  0  0  0  0  0  0  0
   -5.6760   28.5260    9.7230 C   0  0  1  0  0  0  0  0  0  0  0  0
   -5.4620   27.7810    8.5150 O   0  0  0  0  0  0  0  0  0  0  0  0
   -4.5260   29.5320    9.8670 C   0  0  2  0  0  0  0  0  0  0  0  0
   -4.2230   29.7330   11.2610 O   0  0  0  0  0  0  0  0  0  0  0  0
   -4.8570   30.9010    9.2450 C   0  0  1  0  0  0  0  0  0  0  0  0
   -3.6430   31.5310    8.8160 O   0  0  0  0  0  0  0  0  0  0  0  0
   -6.6800   33.0470    8.2330 C   0  0  0  0  0  0  0  0  0  0  0  0
   -6.8110   33.0040    9.4530 O   0  0  0  0  0  0  0  0  0  0  0  0
   -7.0140   34.1920    7.5550 N   0  0  0  0  0  0  0  0  0  0  0  0
   -6.9150   34.3990    6.2080 C   0  0  0  0  0  0  0  0  0  0  0  0
   -7.2380   35.4700    5.7000 O   0  0  0  0  0  0  0  0  0  0  0  0
   -6.0589   36.3743    0.2687 H   0  0  0  0  0  0  0  0  0  0  0  0
   -4.7046   35.8544   -0.7906 H   0  0  0  0  0  0  0  0  0  0  0  0
   -6.2484   34.9360   -0.7906 H   0  0  0  0  0  0  0  0  0  0  0  0
   -4.0782   34.1468    0.6053 H   0  0  0  0  0  0  0  0  0  0  0  0
   -4.8549   35.2528    1.8289 H   0  0  0  0  0  0  0  0  0  0  0  0
   -6.9733   33.7312    0.8978 H   0  0  0  0  0  0  0  0  0  0  0  0
   -5.5901   32.5563    0.9857 H   0  0  0  0  0  0  0  0  0  0  0  0
   -5.7038   31.2758    5.4973 H   0  0  0  0  0  0  0  0  0  0  0  0
   -5.4347   30.0330    7.3916 H   0  0  0  0  0  0  0  0  0  0  0  0
   -7.7412   28.4108    9.4803 H   0  0  0  0  0  0  0  0  0  0  0  0
   -7.9783   29.1979   11.6065 H   0  0  0  0  0  0  0  0  0  0  0  0
   -6.5418   30.3063   11.4554 H   0  0  0  0  0  0  0  0  0  0  0  0
   -9.1420   30.6870   10.3700 H   0  0  0  0  0  0  0  0  0  0  0  0
   -5.6902   27.8604   10.5986 H   0  0  0  0  0  0  0  0  0  0  0  0
   -4.7840   28.2420    7.9880 H   0  0  0  0  0  0  0  0  0  0  0  0
   -3.6653   29.1060    9.3307 H   0  0  0  0  0  0  0  0  0  0  0  0
   -4.9620   30.2570   11.6280 H   0  0  0  0  0  0  0  0  0  0  0  0
   -5.3215   31.5631    9.9906 H   0  0  0  0  0  0  0  0  0  0  0  0
   -2.9150   30.9240    9.0420 H   0  0  0  0  0  0  0  0  0  0  0  0
   -7.3660   34.9540    8.1120 H   0  0  0  0  0  0  0  0  0  0  0  0
  1  2  1  0
  2  3  1  0
  3  4  1  0
  4  5  3  0
  5  6  1  0
  6  7  2  0
  7  8  1  0
  8  9  1  0
  9 10  1  0
 10 11  1  0
 11 12  1  0
 12 13  1  0
 11 14  1  0
 14 15  1  0
 14 16  1  0
 16 17  1  0
 16 18  1  0
 18 19  1  0
  8 20  1  0
 20 21  2  0
 20 22  1  0
 22 23  1  0
 23 24  2  0
 23  6  1  0
 18  9  1  0
  1 25  1  0
  1 26  1  0
  1 27  1  0
  2 28  1  0
  2 29  1  0
  3 30  1  0
  3 31  1  0
  7 32  1  0
  9 33  1  6
 11 34  1  6
 12 35  1  0
 12 36  1  0
 13 37  1  0
 14 38  1  1
 15 39  1  0
 16 40  1  6
 17 41  1  0
 18 42  1  1
 19 43  1  0
 22 44  1  0
M  END
>  <meeko>  (7) 
{"is_sidechain": [false], "free_energy": -6.711, "intermolecular_energy": -9.454, "internal_energy": -0.354}

$$$$
4eky_ligand
     RDKit          3D

 44 45  0  0  0  0  0  0  0  0999 V2000
   -6.8510   34.9420   -0.1460 C   0  0  0  0  0  0  0  0  0  0  0  0
   -5.4150   34.4380   -0.0900 C   0  0  0  0  0  0  0  0  0  0  0  0
   -4.7350   34.7170    1.2500 C   0  0  0  0  0  0  0  0  0  0  0  0
   -5.1820   33.7940    2.3020 C   0  0  0  0  0  0  0  0  0  0  0  0
   -5.5650   33.0400    3.1560 C   0  0  0  0  0  0  0  0  0  0  0  0
   -6.0220   32.1420    4.1600 C   0  0  0  0  0  0  0  0  0  0  0  0
   -5.6500   32.2880    5.4380 C   0  0  0  0  0  0  0  0  0  0  0  0
   -6.0740   31.4410    6.4490 N   0  0  0  0  0  0  0  0  0  0  0  0
   -5.5660   31.6030    7.8190 C   0  0  2  0  0  0  0  0  0  0  0  0
   -4.8650   30.3950    8.1750 O   0  0  0  0  0  0  0  0  0  0  0  0
   -4.7420   30.1330    9.5850 C   0  0  2  0  0  0  0  0  0  0  0  0
   -5.7490   29.0370    9.9830 C   0  0  0  0  0  0  0  0  0  0  0  0
   -5.8550   28.0120    9.0070 O   0  0  0  0  0  0  0  0  0  0  0  0
   -4.8110   31.4050   10.4490 C   0  0  1  0  0  0  0  0  0  0  0  0
   -3.7320   32.2860   10.1050 O   0  0  0  0  0  0  0  0  0  0  0  0
   -6.1270   32.1620   10.2230 C   0  0  2  0  0  0  0  0  0  0  0  0
   -7.1100   31.7340   11.1850 O   0  0  0  0  0  0  0  0  0  0  0  0
   -6.7060   31.9360    8.8140 C   0  0  1  0  0  0  0  0  0  0  0  0
   -7.4760   33.0810    8.4290 O   0  0  0  0  0  0  0  0  0  0  0  0
   -6.9000   30.3550    6.1880 C   0  0  0  0  0  0  0  0  0  0  0  0
   -7.3090   29.5630    7.0330 O   0  0  0  0  0  0  0  0  0  0  0  0
   -7.2790   30.2050    4.8790 N   0  0  0  0  0  0  0  0  0  0  0  0
   -6.9210   31.0060    3.8300 C   0  0  0  0  0  0  0  0  0  0  0  0
   -7.3230   30.7860    2.6910 O   0  0  0  0  0  0  0  0  0  0  0  0
   -7.2327   35.0760    0.8769 H   0  0  0  0  0  0  0  0  0  0  0  0
   -6.8813   35.9045   -0.6777 H   0  0  0  0  0  0  0  0  0  0  0  0
   -7.4762   34.2096   -0.6777 H   0  0  0  0  0  0  0  0  0  0  0  0
   -5.4181   33.3515   -0.2618 H   0  0  0  0  0  0  0  0  0  0  0  0
   -4.8478   34.9751   -0.8645 H   0  0  0  0  0  0  0  0  0  0  0  0
   -3.6474   34.6108    1.1242 H   0  0  0  0  0  0  0  0  0  0  0  0
   -5.0045   35.7376    1.5594 H   0  0  0  0  0  0  0  0  0  0  0  0
   -4.9769   33.1185    5.6970 H   0  0  0  0  0  0  0  0  0  0  0  0
   -4.8737   32.4564    7.8687 H   0  0  0  0  0  0  0  0  0  0  0  0
   -3.7316   29.7501    9.7911 H   0  0  0  0  0  0  0  0  0  0  0  0
   -5.4229   28.5870   10.9323 H   0  0  0  0  0  0  0  0  0  0  0  0
   -6.7372   29.5110   10.0767 H   0  0  0  0  0  0  0  0  0  0  0  0
   -6.0130   28.4530    8.1470 H   0  0  0  0  0  0  0  0  0  0  0  0
   -4.7438   31.0933   11.5018 H   0  0  0  0  0  0  0  0  0  0  0  0
   -3.8820   32.6150    9.2000 H   0  0  0  0  0  0  0  0  0  0  0  0
   -5.8975   33.2317   10.3370 H   0  0  0  0  0  0  0  0  0  0  0  0
   -7.6590   32.5180   11.3840 H   0  0  0  0  0  0  0  0  0  0  0  0
   -7.3855   31.0709    8.8093 H   0  0  0  0  0  0  0  0  0  0  0  0
   -7.2430   33.7980    9.0460 H   0  0  0  0  0  0  0  0  0  0  0  0
   -7.8840   29.4250    4.6750 H   0  0  0  0  0  0  0  0  0  0  0  0
  1  2  1  0
  2  3  1  0
  3  4  1  0
  4  5  3  0
  5  6  1  0
  6  7  2  0
  7  8  1  0
  8  9  1  0
  9 10  1  0
 10 11  1  0
 11 12  1  0
 12 13  1  0
 11 14  1  0
 14 15  1  0
 14 16  1  0
 16 17  1  0
 16 18  1  0
 18 19  1  0
  8 20  1  0
 20 21  2  0
 20 22  1  0
 22 23  1  0
 23 24  2  0
 23  6  1  0
 18  9  1  0
  1 25  1  0
  1 26  1  0
  1 27  1  0
  2 28  1  0
  2 29  1  0
  3 30  1  0
  3 31  1  0
  7 32  1  0
  9 33  1  6
 11 34  1  6
 12 35  1  0
 12 36  1  0
 13 37  1  0
 14 38  1  1
 15 39  1  0
 16 40  1  1
 17 41  1  0
 18 42  1  1
 19 43  1  0
 22 44  1  0
M  END
>  <meeko>  (8) 
{"is_sidechain": [false], "free_energy": -6.538, "intermolecular_energy": -9.171, "internal_energy": -0.402}

$$$$
4eky_ligand
     RDKit          3D

 44 45  0  0  0  0  0  0  0  0999 V2000
   -5.9440   28.1250   13.0290 C   0  0  0  0  0  0  0  0  0  0  0  0
   -6.8970   27.8040   11.8850 C   0  0  0  0  0  0  0  0  0  0  0  0
   -7.7760   28.9890   11.4890 C   0  0  0  0  0  0  0  0  0  0  0  0
   -7.3320   29.6160   10.2360 C   0  0  0  0  0  0  0  0  0  0  0  0
   -6.9520   30.1250    9.2170 C   0  0  0  0  0  0  0  0  0  0  0  0
   -6.4960   30.7340    8.0140 C   0  0  0  0  0  0  0  0  0  0  0  0
   -6.9200   30.3040    6.8190 C   0  0  0  0  0  0  0  0  0  0  0  0
   -6.5060   30.8690    5.6240 N   0  0  0  0  0  0  0  0  0  0  0  0
   -6.9430   30.3010    4.3400 C   0  0  2  0  0  0  0  0  0  0  0  0
   -8.1550   30.9750    3.9500 O   0  0  0  0  0  0  0  0  0  0  0  0
   -9.0050   30.2590    3.0360 C   0  0  2  0  0  0  0  0  0  0  0  0
  -10.2040   29.6800    3.8120 C   0  0  0  0  0  0  0  0  0  0  0  0
  -10.9290   28.7190    3.0610 O   0  0  0  0  0  0  0  0  0  0  0  0
   -8.2470   29.2310    2.1770 C   0  0  1  0  0  0  0  0  0  0  0  0
   -7.2630   29.9000    1.3750 O   0  0  0  0  0  0  0  0  0  0  0  0
   -7.5210   28.2000    3.0520 C   0  0  2  0  0  0  0  0  0  0  0  0
   -8.3670   27.0540    3.2640 O   0  0  0  0  0  0  0  0  0  0  0  0
   -7.1270   28.7660    4.4290 C   0  0  1  0  0  0  0  0  0  0  0  0
   -5.9600   28.0830    4.9050 O   0  0  0  0  0  0  0  0  0  0  0  0
   -5.5900   31.9120    5.5920 C   0  0  0  0  0  0  0  0  0  0  0  0
   -5.1760   32.4550    4.5710 O   0  0  0  0  0  0  0  0  0  0  0  0
   -5.1540   32.3500    6.8170 N   0  0  0  0  0  0  0  0  0  0  0  0
   -5.5270   31.8600    8.0370 C   0  0  0  0  0  0  0  0  0  0  0  0
   -5.0800   32.3300    9.0790 O   0  0  0  0  0  0  0  0  0  0  0  0
   -6.4528   27.9536   13.9891 H   0  0  0  0  0  0  0  0  0  0  0  0
   -5.0588   27.4754   12.9620 H   0  0  0  0  0  0  0  0  0  0  0  0
   -5.6322   29.1778   12.9620 H   0  0  0  0  0  0  0  0  0  0  0  0
   -6.3040   27.4997   11.0099 H   0  0  0  0  0  0  0  0  0  0  0  0
   -7.5644   27.0001   12.2289 H   0  0  0  0  0  0  0  0  0  0  0  0
   -8.8100   28.6359   11.3614 H   0  0  0  0  0  0  0  0  0  0  0  0
   -7.7057   29.7428   12.2870 H   0  0  0  0  0  0  0  0  0  0  0  0
   -7.6293   29.4639    6.7847 H   0  0  0  0  0  0  0  0  0  0  0  0
   -6.1717   30.4605    3.5722 H   0  0  0  0  0  0  0  0  0  0  0  0
   -9.3983   30.9627    2.2876 H   0  0  0  0  0  0  0  0  0  0  0  0
   -9.8314   29.2015    4.7297 H   0  0  0  0  0  0  0  0  0  0  0  0
  -10.8880   30.5118    4.0362 H   0  0  0  0  0  0  0  0  0  0  0  0
  -10.4390   27.8740    3.1310 H   0  0  0  0  0  0  0  0  0  0  0  0
   -8.9867   28.7177    1.5450 H   0  0  0  0  0  0  0  0  0  0  0  0
   -6.7490   29.2240    0.8960 H   0  0  0  0  0  0  0  0  0  0  0  0
   -6.6026   27.9221    2.5141 H   0  0  0  0  0  0  0  0  0  0  0  0
   -9.0890   27.1220    2.6080 H   0  0  0  0  0  0  0  0  0  0  0  0
   -7.9283   28.5917    5.1622 H   0  0  0  0  0  0  0  0  0  0  0  0
   -6.1720   27.7520    5.7980 H   0  0  0  0  0  0  0  0  0  0  0  0
   -4.4930   33.1110    6.8110 H   0  0  0  0  0  0  0  0  0  0  0  0
  1  2  1  0
  2  3  1  0
  3  4  1  0
  4  5  3  0
  5  6  1  0
  6  7  2  0
  7  8  1  0
  8  9  1  0
  9 10  1  0
 10 11  1  0
 11 12  1  0
 12 13  1  0
 11 14  1  0
 14 15  1  0
 14 16  1  0
 16 17  1  0
 16 18  1  0
 18 19  1  0
  8 20  1  0
 20 21  2  0
 20 22  1  0
 22 23  1  0
 23 24  2  0
 23  6  1  0
 18  9  1  0
  1 25  1  0
  1 26  1  0
  1 27  1  0
  2 28  1  0
  2 29  1  0
  3 30  1  0
  3 31  1  0
  7 32  1  0
  9 33  1  6
 11 34  1  6
 12 35  1  0
 12 36  1  0
 13 37  1  0
 14 38  1  6
 15 39  1  0
 16 40  1  6
 17 41  1  0
 18 42  1  1
 19 43  1  0
 22 44  1  0
M  END
>  <meeko>  (9) 
{"is_sidechain": [false], "free_energy": -6.49, "intermolecular_energy": -8.878, "internal_energy": -0.631}

$$$$
