3kwa_ligand
     RDKit          3D

 44 43  0  0  0  0  0  0  0  0999 V2000
    6.4510   -5.9420   -1.4620 N   0  0  0  0  0  0  0  0  0  0  0  0
    6.6370   -5.1600   -2.7130 C   0  0  0  0  0  0  0  0  0  0  0  0
    8.0580   -4.5800   -2.7990 C   0  0  0  0  0  0  0  0  0  0  0  0
    8.0540   -3.1570   -3.3860 C   0  0  0  0  0  0  0  0  0  0  0  0
    9.3150   -2.4150   -2.9970 N   0  0  0  0  0  0  0  0  0  0  0  0
    9.5070   -1.1000   -3.7240 C   0  0  0  0  0  0  0  0  0  0  0  0
    9.8450    0.0160   -2.7190 C   0  0  0  0  0  0  0  0  0  0  0  0
    8.8650    1.2160   -2.7800 C   0  0  0  0  0  0  0  0  0  0  0  0
    7.4190    0.7630   -3.0430 C   0  0  0  0  0  0  0  0  0  0  0  0
    6.4050    1.6870   -2.4120 N   0  0  0  0  0  0  0  0  0  0  0  0
    5.8540    1.2840   -1.0660 C   0  0  0  0  0  0  0  0  0  0  0  0
    4.8740    2.3550   -0.5510 C   0  0  0  0  0  0  0  0  0  0  0  0
    4.7760    2.3610    0.9820 C   0  0  0  0  0  0  0  0  0  0  0  0
    4.8150    0.9780    1.5250 N   0  0  0  0  0  0  0  0  0  0  0  0
    7.0690   -5.6560   -0.6870 H   0  0  0  0  0  0  0  0  0  0  0  0
    6.5580   -6.9620   -1.5790 H   0  0  0  0  0  0  0  0  0  0  0  0
    5.4910   -5.8180   -1.0930 H   0  0  0  0  0  0  0  0  0  0  0  0
    6.4653   -5.8188   -3.5770 H   0  0  0  0  0  0  0  0  0  0  0  0
    5.9195   -4.3262   -2.7129 H   0  0  0  0  0  0  0  0  0  0  0  0
    8.4925   -4.5484   -1.7890 H   0  0  0  0  0  0  0  0  0  0  0  0
    8.6534   -5.2245   -3.4625 H   0  0  0  0  0  0  0  0  0  0  0  0
    7.9950   -3.2188   -4.4827 H   0  0  0  0  0  0  0  0  0  0  0  0
    7.1855   -2.6121   -2.9875 H   0  0  0  0  0  0  0  0  0  0  0  0
    9.3110   -2.2380   -1.9800 H   0  0  0  0  0  0  0  0  0  0  0  0
   10.1350   -3.0160   -3.1740 H   0  0  0  0  0  0  0  0  0  0  0  0
   10.3304   -1.2006   -4.4464 H   0  0  0  0  0  0  0  0  0  0  0  0
    8.5766   -0.8406   -4.2504 H   0  0  0  0  0  0  0  0  0  0  0  0
    9.8151   -0.4076   -1.7043 H   0  0  0  0  0  0  0  0  0  0  0  0
   10.8430    0.3977   -2.9805 H   0  0  0  0  0  0  0  0  0  0  0  0
    8.9004    1.7532   -1.8207 H   0  0  0  0  0  0  0  0  0  0  0  0
    9.1747    1.8670   -3.6108 H   0  0  0  0  0  0  0  0  0  0  0  0
    7.2479    0.7391   -4.1293 H   0  0  0  0  0  0  0  0  0  0  0  0
    7.2916   -0.2331   -2.5941 H   0  0  0  0  0  0  0  0  0  0  0  0
    5.6430    1.8840   -3.0820 H   0  0  0  0  0  0  0  0  0  0  0  0
    6.8840    2.5970   -2.3030 H   0  0  0  0  0  0  0  0  0  0  0  0
    5.3257    0.3240   -1.1621 H   0  0  0  0  0  0  0  0  0  0  0  0
    6.6853    1.1849   -0.3525 H   0  0  0  0  0  0  0  0  0  0  0  0
    5.2199    3.3433   -0.8879 H   0  0  0  0  0  0  0  0  0  0  0  0
    3.8768    2.1221   -0.9527 H   0  0  0  0  0  0  0  0  0  0  0  0
    5.6206    2.9329    1.3939 H   0  0  0  0  0  0  0  0  0  0  0  0
    3.8200    2.8230    1.2696 H   0  0  0  0  0  0  0  0  0  0  0  0
    5.6110    0.7910    2.1550 H   0  0  0  0  0  0  0  0  0  0  0  0
    3.9730    0.7840    2.0970 H   0  0  0  0  0  0  0  0  0  0  0  0
    4.8180    0.2400    0.8030 H   0  0  0  0  0  0  0  0  0  0  0  0
  1  2  1  0
  2  3  1  0
  3  4  1  0
  4  5  1  0
  5  6  1  0
  6  7  1  0
  7  8  1  0
  8  9  1  0
  9 10  1  0
 10 11  1  0
 11 12  1  0
 12 13  1  0
 13 14  1  0
  1 15  1  0
  1 16  1  0
  1 17  1  0
  2 18  1  0
  2 19  1  0
  3 20  1  0
  3 21  1  0
  4 22  1  0
  4 23  1  0
  5 24  1  0
  5 25  1  0
  6 26  1  0
  6 27  1  0
  7 28  1  0
  7 29  1  0
  8 30  1  0
  8 31  1  0
  9 32  1  0
  9 33  1  0
 10 34  1  0
 10 35  1  0
 11 36  1  0
 11 37  1  0
 12 38  1  0
 12 39  1  0
 13 40  1  0
 13 41  1  0
 14 42  1  0
 14 43  1  0
 14 44  1  0
M  CHG  4   1   1   5   1  10   1  14   1
M  END
>  <meeko>  (1) 
{"is_sidechain": [false], "free_energy": -4.3, "intermolecular_energy": -7.316, "internal_energy": -0.308}

$$$$
3kwa_ligand
     RDKit          3D

 44 43  0  0  0  0  0  0  0  0999 V2000
    5.4870   -2.2480   -5.0110 N   0  0  0  0  0  0  0  0  0  0  0  0
    5.7780   -3.4020   -4.1220 C   0  0  0  0  0  0  0  0  0  0  0  0
    6.7100   -2.9950   -2.9690 C   0  0  0  0  0  0  0  0  0  0  0  0
    8.0030   -3.8290   -2.9650 C   0  0  0  0  0  0  0  0  0  0  0  0
    9.2200   -2.9290   -3.0200 N   0  0  0  0  0  0  0  0  0  0  0  0
    9.1450   -1.8510   -4.0800 C   0  0  0  0  0  0  0  0  0  0  0  0
   10.3110   -0.8600   -3.9120 C   0  0  0  0  0  0  0  0  0  0  0  0
   10.1190    0.1220   -2.7270 C   0  0  0  0  0  0  0  0  0  0  0  0
    8.7400    0.8030   -2.7660 C   0  0  0  0  0  0  0  0  0  0  0  0
    7.9430    0.5570   -1.5070 N   0  0  0  0  0  0  0  0  0  0  0  0
    6.4420    0.4840   -1.6490 C   0  0  0  0  0  0  0  0  0  0  0  0
    5.8010    1.8080   -1.1910 C   0  0  0  0  0  0  0  0  0  0  0  0
    4.9760    1.6370    0.0940 C   0  0  0  0  0  0  0  0  0  0  0  0
    5.8030    1.0660    1.1880 N   0  0  0  0  0  0  0  0  0  0  0  0
    6.3080   -1.6620   -5.2280 H   0  0  0  0  0  0  0  0  0  0  0  0
    4.7460   -1.6190   -4.6620 H   0  0  0  0  0  0  0  0  0  0  0  0
    5.1450   -2.5730   -5.9330 H   0  0  0  0  0  0  0  0  0  0  0  0
    4.8334   -3.7796   -3.7035 H   0  0  0  0  0  0  0  0  0  0  0  0
    6.2784   -4.1813   -4.7156 H   0  0  0  0  0  0  0  0  0  0  0  0
    6.9710   -1.9321   -3.0791 H   0  0  0  0  0  0  0  0  0  0  0  0
    6.1823   -3.1735   -2.0205 H   0  0  0  0  0  0  0  0  0  0  0  0
    8.0410   -4.4321   -2.0458 H   0  0  0  0  0  0  0  0  0  0  0  0
    8.0056   -4.4822   -3.8501 H   0  0  0  0  0  0  0  0  0  0  0  0
    9.3600   -2.4840   -2.0990 H   0  0  0  0  0  0  0  0  0  0  0  0
   10.0630   -3.5020   -3.1850 H   0  0  0  0  0  0  0  0  0  0  0  0
    9.2030   -2.3153   -5.0755 H   0  0  0  0  0  0  0  0  0  0  0  0
    8.1940   -1.3084   -3.9742 H   0  0  0  0  0  0  0  0  0  0  0  0
   11.2344   -1.4335   -3.7435 H   0  0  0  0  0  0  0  0  0  0  0  0
   10.3584   -0.2558   -4.8300 H   0  0  0  0  0  0  0  0  0  0  0  0
   10.2140   -0.4357   -1.7836 H   0  0  0  0  0  0  0  0  0  0  0  0
   10.8886    0.9043   -2.8035 H   0  0  0  0  0  0  0  0  0  0  0  0
    8.8841    1.8868   -2.8873 H   0  0  0  0  0  0  0  0  0  0  0  0
    8.1775    0.3755   -3.6091 H   0  0  0  0  0  0  0  0  0  0  0  0
    8.2160    1.2380   -0.7790 H   0  0  0  0  0  0  0  0  0  0  0  0
    8.2740   -0.3510   -1.1380 H   0  0  0  0  0  0  0  0  0  0  0  0
    6.1849    0.3008   -2.7027 H   0  0  0  0  0  0  0  0  0  0  0  0
    6.0609   -0.3358   -1.0224 H   0  0  0  0  0  0  0  0  0  0  0  0
    6.5985    2.5425   -1.0053 H   0  0  0  0  0  0  0  0  0  0  0  0
    5.1219    2.1485   -1.9866 H   0  0  0  0  0  0  0  0  0  0  0  0
    4.5928    2.6190    0.4083 H   0  0  0  0  0  0  0  0  0  0  0  0
    4.1453    0.9463   -0.1132 H   0  0  0  0  0  0  0  0  0  0  0  0
    6.7810    0.8720    0.9240 H   0  0  0  0  0  0  0  0  0  0  0  0
    5.8690    1.7280    1.9820 H   0  0  0  0  0  0  0  0  0  0  0  0
    5.4210    0.2000    1.6000 H   0  0  0  0  0  0  0  0  0  0  0  0
  1  2  1  0
  2  3  1  0
  3  4  1  0
  4  5  1  0
  5  6  1  0
  6  7  1  0
  7  8  1  0
  8  9  1  0
  9 10  1  0
 10 11  1  0
 11 12  1  0
 12 13  1  0
 13 14  1  0
  1 15  1  0
  1 16  1  0
  1 17  1  0
  2 18  1  0
  2 19  1  0
  3 20  1  0
  3 21  1  0
  4 22  1  0
  4 23  1  0
  5 24  1  0
  5 25  1  0
  6 26  1  0
  6 27  1  0
  7 28  1  0
  7 29  1  0
  8 30  1  0
  8 31  1  0
  9 32  1  0
  9 33  1  0
 10 34  1  0
 10 35  1  0
 11 36  1  0
 11 37  1  0
 12 38  1  0
 12 39  1  0
 13 40  1  0
 13 41  1  0
 14 42  1  0
 14 43  1  0
 14 44  1  0
M  CHG  4   1   1   5   1  10   1  14   1
M  END
>  <meeko>  (2) 
{"is_sidechain": [false], "free_energy": -4.168, "intermolecular_energy": -6.872, "internal_energy": -0.529}

$$$$
3kwa_ligand
     RDKit          3D

 44 43  0  0  0  0  0  0  0  0999 V2000
    6.6050   -0.4110    0.6770 N   0  0  0  0  0  0  0  0  0  0  0  0
    6.6410    0.6900   -0.3210 C   0  0  0  0  0  0  0  0  0  0  0  0
    6.6730    0.1390   -1.7550 C   0  0  0  0  0  0  0  0  0  0  0  0
    7.2200    1.1790   -2.7490 C   0  0  0  0  0  0  0  0  0  0  0  0
    8.7340    1.1980   -2.7260 N   0  0  0  0  0  0  0  0  0  0  0  0
    9.3730    1.3270   -4.0920 C   0  0  0  0  0  0  0  0  0  0  0  0
    9.7770   -0.0610   -4.6220 C   0  0  0  0  0  0  0  0  0  0  0  0
   10.0850   -1.0830   -3.4970 C   0  0  0  0  0  0  0  0  0  0  0  0
    9.5080   -2.4730   -3.8120 C   0  0  0  0  0  0  0  0  0  0  0  0
    8.3330   -2.8190   -2.9280 N   0  0  0  0  0  0  0  0  0  0  0  0
    7.8580   -4.2510   -2.9490 C   0  0  0  0  0  0  0  0  0  0  0  0
    6.3180   -4.3000   -2.9800 C   0  0  0  0  0  0  0  0  0  0  0  0
    5.7280   -4.7860   -1.6470 C   0  0  0  0  0  0  0  0  0  0  0  0
    6.1950   -6.1600   -1.3260 N   0  0  0  0  0  0  0  0  0  0  0  0
    7.4930   -0.9270    0.7700 H   0  0  0  0  0  0  0  0  0  0  0  0
    5.8610   -1.1070    0.5140 H   0  0  0  0  0  0  0  0  0  0  0  0
    6.4160   -0.0390    1.6250 H   0  0  0  0  0  0  0  0  0  0  0  0
    5.7451    1.3161   -0.1971 H   0  0  0  0  0  0  0  0  0  0  0  0
    7.5534    1.2814   -0.1546 H   0  0  0  0  0  0  0  0  0  0  0  0
    7.3168   -0.7525   -1.7807 H   0  0  0  0  0  0  0  0  0  0  0  0
    5.6435   -0.1115   -2.0506 H   0  0  0  0  0  0  0  0  0  0  0  0
    6.8776    0.9243   -3.7628 H   0  0  0  0  0  0  0  0  0  0  0  0
    6.8497    2.1735   -2.4593 H   0  0  0  0  0  0  0  0  0  0  0  0
    9.0590    1.9750   -2.1290 H   0  0  0  0  0  0  0  0  0  0  0  0
    9.0800    0.3360   -2.2750 H   0  0  0  0  0  0  0  0  0  0  0  0
    8.6552    1.7868   -4.7872 H   0  0  0  0  0  0  0  0  0  0  0  0
   10.2717    1.9561   -4.0104 H   0  0  0  0  0  0  0  0  0  0  0  0
    8.9521   -0.4543   -5.2343 H   0  0  0  0  0  0  0  0  0  0  0  0
   10.7009    0.0696   -5.2045 H   0  0  0  0  0  0  0  0  0  0  0  0
   11.1757   -1.1682   -3.3827 H   0  0  0  0  0  0  0  0  0  0  0  0
    9.6164   -0.7213   -2.5699 H   0  0  0  0  0  0  0  0  0  0  0  0
    9.1784   -2.4898   -4.8613 H   0  0  0  0  0  0  0  0  0  0  0  0
   10.2984   -3.2155   -3.6276 H   0  0  0  0  0  0  0  0  0  0  0  0
    7.5530   -2.1660   -3.1060 H   0  0  0  0  0  0  0  0  0  0  0  0
    8.6330   -2.5950   -1.9630 H   0  0  0  0  0  0  0  0  0  0  0  0
    8.2557   -4.7527   -3.8435 H   0  0  0  0  0  0  0  0  0  0  0  0
    8.2154   -4.7612   -2.0424 H   0  0  0  0  0  0  0  0  0  0  0  0
    5.9352   -3.2904   -3.1902 H   0  0  0  0  0  0  0  0  0  0  0  0
    6.0175   -5.0119   -3.7629 H   0  0  0  0  0  0  0  0  0  0  0  0
    6.0424   -4.1027   -0.8443 H   0  0  0  0  0  0  0  0  0  0  0  0
    4.6316   -4.8005   -1.7341 H   0  0  0  0  0  0  0  0  0  0  0  0
    5.4410   -6.8160   -1.0690 H   0  0  0  0  0  0  0  0  0  0  0  0
    6.6540   -6.5930   -2.1470 H   0  0  0  0  0  0  0  0  0  0  0  0
    6.9030   -6.2010   -0.5760 H   0  0  0  0  0  0  0  0  0  0  0  0
  1  2  1  0
  2  3  1  0
  3  4  1  0
  4  5  1  0
  5  6  1  0
  6  7  1  0
  7  8  1  0
  8  9  1  0
  9 10  1  0
 10 11  1  0
 11 12  1  0
 12 13  1  0
 13 14  1  0
  1 15  1  0
  1 16  1  0
  1 17  1  0
  2 18  1  0
  2 19  1  0
  3 20  1  0
  3 21  1  0
  4 22  1  0
  4 23  1  0
  5 24  1  0
  5 25  1  0
  6 26  1  0
  6 27  1  0
  7 28  1  0
  7 29  1  0
  8 30  1  0
  8 31  1  0
  9 32  1  0
  9 33  1  0
 10 34  1  0
 10 35  1  0
 11 36  1  0
 11 37  1  0
 12 38  1  0
 12 39  1  0
 13 40  1  0
 13 41  1  0
 14 42  1  0
 14 43  1  0
 14 44  1  0
M  CHG  4   1   1   5   1  10   1  14   1
M  END
>  <meeko>  (3) 
{"is_sidechain": [false], "free_energy": -4.133, "intermolecular_energy": -6.871, "internal_energy": -0.469}

$$$$
3kwa_ligand
     RDKit          3D

 44 43  0  0  0  0  0  0  0  0999 V2000
   14.1820   -6.2430   -4.6390 N   0  0  0  0  0  0  0  0  0  0  0  0
   13.2540   -5.7100   -5.6700 C   0  0  0  0  0  0  0  0  0  0  0  0
   12.2460   -4.7250   -5.0540 C   0  0  0  0  0  0  0  0  0  0  0  0
   12.9290   -3.4160   -4.6170 C   0  0  0  0  0  0  0  0  0  0  0  0
   12.1610   -2.7650   -3.4850 N   0  0  0  0  0  0  0  0  0  0  0  0
   10.6630   -2.9680   -3.5570 C   0  0  0  0  0  0  0  0  0  0  0  0
   10.0400   -1.9710   -4.5500 C   0  0  0  0  0  0  0  0  0  0  0  0
    8.5040   -2.1260   -4.6970 C   0  0  0  0  0  0  0  0  0  0  0  0
    7.8840   -2.8520   -3.4910 C   0  0  0  0  0  0  0  0  0  0  0  0
    7.2400   -1.8960   -2.5150 N   0  0  0  0  0  0  0  0  0  0  0  0
    7.0260   -0.4780   -2.9850 C   0  0  0  0  0  0  0  0  0  0  0  0
    7.4180    0.5140   -1.8730 C   0  0  0  0  0  0  0  0  0  0  0  0
    6.3930    0.5350   -0.7280 C   0  0  0  0  0  0  0  0  0  0  0  0
    7.0180    0.1220    0.5550 N   0  0  0  0  0  0  0  0  0  0  0  0
   13.7450   -6.9020   -3.9750 H   0  0  0  0  0  0  0  0  0  0  0  0
   14.6600   -5.5180   -4.0820 H   0  0  0  0  0  0  0  0  0  0  0  0
   14.9470   -6.7840   -5.0810 H   0  0  0  0  0  0  0  0  0  0  0  0
   13.8376   -5.1895   -6.4436 H   0  0  0  0  0  0  0  0  0  0  0  0
   12.6966   -6.5521   -6.1062 H   0  0  0  0  0  0  0  0  0  0  0  0
   11.4723   -4.4922   -5.8004 H   0  0  0  0  0  0  0  0  0  0  0  0
   11.8034   -5.1964   -4.1641 H   0  0  0  0  0  0  0  0  0  0  0  0
   13.9521   -3.6376   -4.2791 H   0  0  0  0  0  0  0  0  0  0  0  0
   12.9517   -2.7254   -5.4729 H   0  0  0  0  0  0  0  0  0  0  0  0
   12.5060   -3.1290   -2.5820 H   0  0  0  0  0  0  0  0  0  0  0  0
   12.3610   -1.7520   -3.4740 H   0  0  0  0  0  0  0  0  0  0  0  0
   10.4508   -3.9944   -3.8909 H   0  0  0  0  0  0  0  0  0  0  0  0
   10.2293   -2.8009   -2.5600 H   0  0  0  0  0  0  0  0  0  0  0  0
   10.2556   -0.9504   -4.2008 H   0  0  0  0  0  0  0  0  0  0  0  0
   10.4827   -2.1755   -5.5360 H   0  0  0  0  0  0  0  0  0  0  0  0
    8.0520   -1.1267   -4.7817 H   0  0  0  0  0  0  0  0  0  0  0  0
    8.3061   -2.7276   -5.5964 H   0  0  0  0  0  0  0  0  0  0  0  0
    7.1193   -3.5538   -3.8555 H   0  0  0  0  0  0  0  0  0  0  0  0
    8.6929   -3.3778   -2.9627 H   0  0  0  0  0  0  0  0  0  0  0  0
    7.7470   -1.9170   -1.6140 H   0  0  0  0  0  0  0  0  0  0  0  0
    6.3160   -2.3030   -2.2920 H   0  0  0  0  0  0  0  0  0  0  0  0
    7.6467   -0.2919   -3.8738 H   0  0  0  0  0  0  0  0  0  0  0  0
    5.9637   -0.3380   -3.2339 H   0  0  0  0  0  0  0  0  0  0  0  0
    8.3976    0.2220   -1.4666 H   0  0  0  0  0  0  0  0  0  0  0  0
    7.4526    1.5209   -2.3146 H   0  0  0  0  0  0  0  0  0  0  0  0
    5.9936    1.5544   -0.6216 H   0  0  0  0  0  0  0  0  0  0  0  0
    5.5857   -0.1726   -0.9679 H   0  0  0  0  0  0  0  0  0  0  0  0
    6.4680   -0.5670    1.0930 H   0  0  0  0  0  0  0  0  0  0  0  0
    7.9300   -0.3410    0.3870 H   0  0  0  0  0  0  0  0  0  0  0  0
    7.2340    0.9040    1.1920 H   0  0  0  0  0  0  0  0  0  0  0  0
  1  2  1  0
  2  3  1  0
  3  4  1  0
  4  5  1  0
  5  6  1  0
  6  7  1  0
  7  8  1  0
  8  9  1  0
  9 10  1  0
 10 11  1  0
 11 12  1  0
 12 13  1  0
 13 14  1  0
  1 15  1  0
  1 16  1  0
  1 17  1  0
  2 18  1  0
  2 19  1  0
  3 20  1  0
  3 21  1  0
  4 22  1  0
  4 23  1  0
  5 24  1  0
  5 25  1  0
  6 26  1  0
  6 27  1  0
  7 28  1  0
  7 29  1  0
  8 30  1  0
  8 31  1  0
  9 32  1  0
  9 33  1  0
 10 34  1  0
 10 35  1  0
 11 36  1  0
 11 37  1  0
 12 38  1  0
 12 39  1  0
 13 40  1  0
 13 41  1  0
 14 42  1  0
 14 43  1  0
 14 44  1  0
M  CHG  4   1   1   5   1  10   1  14   1
M  END
>  <meeko>  (4) 
{"is_sidechain": [false], "free_energy": -4.086, "intermolecular_energy": -6.845, "internal_energy": -0.416}

$$$$
3kwa_ligand
     RDKit          3D

 44 43  0  0  0  0  0  0  0  0999 V2000
    7.0010    0.1770    0.7760 N   0  0  0  0  0  0  0  0  0  0  0  0
    6.2880    0.2510   -0.5260 C   0  0  0  0  0  0  0  0  0  0  0  0
    7.2200    0.7470   -1.6440 C   0  0  0  0  0  0  0  0  0  0  0  0
    7.1780   -0.1820   -2.8700 C   0  0  0  0  0  0  0  0  0  0  0  0
    6.8530   -1.6020   -2.4550 N   0  0  0  0  0  0  0  0  0  0  0  0
    7.2440   -2.6500   -3.4760 C   0  0  0  0  0  0  0  0  0  0  0  0
    8.7770   -2.7430   -3.5790 C   0  0  0  0  0  0  0  0  0  0  0  0
    9.2990   -4.1980   -3.7020 C   0  0  0  0  0  0  0  0  0  0  0  0
   10.4070   -4.3210   -4.7610 C   0  0  0  0  0  0  0  0  0  0  0  0
   11.5740   -3.4050   -4.4800 N   0  0  0  0  0  0  0  0  0  0  0  0
   12.9340   -3.8620   -4.9480 C   0  0  0  0  0  0  0  0  0  0  0  0
   12.7960   -4.7200   -6.2200 C   0  0  0  0  0  0  0  0  0  0  0  0
   13.4820   -6.0880   -6.0740 C   0  0  0  0  0  0  0  0  0  0  0  0
   14.0180   -6.2710   -4.7000 N   0  0  0  0  0  0  0  0  0  0  0  0
    6.9950    1.0580    1.3130 H   0  0  0  0  0  0  0  0  0  0  0  0
    7.9840   -0.1320    0.7040 H   0  0  0  0  0  0  0  0  0  0  0  0
    6.5510   -0.5150    1.4000 H   0  0  0  0  0  0  0  0  0  0  0  0
    5.9148   -0.7501   -0.7879 H   0  0  0  0  0  0  0  0  0  0  0  0
    5.4548    0.9622   -0.4265 H   0  0  0  0  0  0  0  0  0  0  0  0
    6.9056    1.7558   -1.9496 H   0  0  0  0  0  0  0  0  0  0  0  0
    8.2489    0.7572   -1.2551 H   0  0  0  0  0  0  0  0  0  0  0  0
    6.4066    0.1757   -3.5678 H   0  0  0  0  0  0  0  0  0  0  0  0
    8.1653   -0.1725   -3.3548 H   0  0  0  0  0  0  0  0  0  0  0  0
    7.3220   -1.8150   -1.5600 H   0  0  0  0  0  0  0  0  0  0  0  0
    5.8410   -1.6810   -2.2670 H   0  0  0  0  0  0  0  0  0  0  0  0
    6.8403   -3.6259   -3.1684 H   0  0  0  0  0  0  0  0  0  0  0  0
    6.8340   -2.3673   -4.4568 H   0  0  0  0  0  0  0  0  0  0  0  0
    9.1016   -2.1799   -4.4665 H   0  0  0  0  0  0  0  0  0  0  0  0
    9.1907   -2.3272   -2.6484 H   0  0  0  0  0  0  0  0  0  0  0  0
    9.7006   -4.5154   -2.7284 H   0  0  0  0  0  0  0  0  0  0  0  0
    8.4588   -4.8371   -4.0113 H   0  0  0  0  0  0  0  0  0  0  0  0
   10.7684   -5.3598   -4.7755 H   0  0  0  0  0  0  0  0  0  0  0  0
    9.9780   -4.0307   -5.7314 H   0  0  0  0  0  0  0  0  0  0  0  0
   11.5900   -3.1530   -3.4780 H   0  0  0  0  0  0  0  0  0  0  0  0
   11.3530   -2.5150   -4.9580 H   0  0  0  0  0  0  0  0  0  0  0  0
   13.5573   -2.9828   -5.1682 H   0  0  0  0  0  0  0  0  0  0  0  0
   13.4030   -4.4649   -4.1565 H   0  0  0  0  0  0  0  0  0  0  0  0
   11.7272   -4.8796   -6.4256 H   0  0  0  0  0  0  0  0  0  0  0  0
   13.2861   -4.1824   -7.0452 H   0  0  0  0  0  0  0  0  0  0  0  0
   12.7498   -6.8818   -6.2832 H   0  0  0  0  0  0  0  0  0  0  0  0
   14.3188   -6.1383   -6.7862 H   0  0  0  0  0  0  0  0  0  0  0  0
   14.7380   -5.5840   -4.4290 H   0  0  0  0  0  0  0  0  0  0  0  0
   13.2670   -6.1600   -3.9950 H   0  0  0  0  0  0  0  0  0  0  0  0
   14.4090   -7.2090   -4.5200 H   0  0  0  0  0  0  0  0  0  0  0  0
  1  2  1  0
  2  3  1  0
  3  4  1  0
  4  5  1  0
  5  6  1  0
  6  7  1  0
  7  8  1  0
  8  9  1  0
  9 10  1  0
 10 11  1  0
 11 12  1  0
 12 13  1  0
 13 14  1  0
  1 15  1  0
  1 16  1  0
  1 17  1  0
  2 18  1  0
  2 19  1  0
  3 20  1  0
  3 21  1  0
  4 22  1  0
  4 23  1  0
  5 24  1  0
  5 25  1  0
  6 26  1  0
  6 27  1  0
  7 28  1  0
  7 29  1  0
  8 30  1  0
  8 31  1  0
  9 32  1  0
  9 33  1  0
 10 34  1  0
 10 35  1  0
 11 36  1  0
 11 37  1  0
 12 38  1  0
 12 39  1  0
 13 40  1  0
 13 41  1  0
 14 42  1  0
 14 43  1  0
 14 44  1  0
M  CHG  4   1   1   5   1  10   1  14   1
M  END
>  <meeko>  (5) 
{"is_sidechain": [false], "free_energy": -4.054, "intermolecular_energy": -6.836, "internal_energy": -0.37}

$$$$
3kwa_ligand
     RDKit          3D

 44 43  0  0  0  0  0  0  0  0999 V2000
    5.5110   -2.4620   -5.1530 N   0  0  0  0  0  0  0  0  0  0  0  0
    6.2200   -2.4960   -3.8460 C   0  0  0  0  0  0  0  0  0  0  0  0
    5.9490   -3.8130   -3.1010 C   0  0  0  0  0  0  0  0  0  0  0  0
    7.2570   -4.5400   -2.7440 C   0  0  0  0  0  0  0  0  0  0  0  0
    8.4560   -3.6660   -3.0460 N   0  0  0  0  0  0  0  0  0  0  0  0
    9.5260   -4.3470   -3.8730 C   0  0  0  0  0  0  0  0  0  0  0  0
   10.1830   -3.3350   -4.8280 C   0  0  0  0  0  0  0  0  0  0  0  0
    9.6660   -1.8850   -4.6390 C   0  0  0  0  0  0  0  0  0  0  0  0
   10.6920   -1.0020   -3.9080 C   0  0  0  0  0  0  0  0  0  0  0  0
   10.2920   -0.7200   -2.4800 N   0  0  0  0  0  0  0  0  0  0  0  0
   10.0180    0.7190   -2.1160 C   0  0  0  0  0  0  0  0  0  0  0  0
    8.8660    1.2750   -2.9750 C   0  0  0  0  0  0  0  0  0  0  0  0
    7.5010    0.7190   -2.5410 C   0  0  0  0  0  0  0  0  0  0  0  0
    7.4640    0.4790   -1.0750 N   0  0  0  0  0  0  0  0  0  0  0  0
    5.6360   -3.3120   -5.7250 H   0  0  0  0  0  0  0  0  0  0  0  0
    5.7550   -1.6540   -5.7470 H   0  0  0  0  0  0  0  0  0  0  0  0
    4.4880   -2.3870   -5.0120 H   0  0  0  0  0  0  0  0  0  0  0  0
    7.3015   -2.3991   -4.0218 H   0  0  0  0  0  0  0  0  0  0  0  0
    5.8516   -1.6639   -3.2280 H   0  0  0  0  0  0  0  0  0  0  0  0
    5.3986   -3.5925   -2.1745 H   0  0  0  0  0  0  0  0  0  0  0  0
    5.3603   -4.4672   -3.7609 H   0  0  0  0  0  0  0  0  0  0  0  0
    7.2515   -4.7873   -1.6722 H   0  0  0  0  0  0  0  0  0  0  0  0
    7.3274   -5.4570   -3.3475 H   0  0  0  0  0  0  0  0  0  0  0  0
    8.1440   -2.8140   -3.5390 H   0  0  0  0  0  0  0  0  0  0  0  0
    8.8750   -3.3400   -2.1610 H   0  0  0  0  0  0  0  0  0  0  0  0
   10.2920   -4.7649   -3.2032 H   0  0  0  0  0  0  0  0  0  0  0  0
    9.0650   -5.1519   -4.4643 H   0  0  0  0  0  0  0  0  0  0  0  0
   11.2688   -3.3438   -4.6522 H   0  0  0  0  0  0  0  0  0  0  0  0
    9.9254   -3.6408   -5.8528 H   0  0  0  0  0  0  0  0  0  0  0  0
    9.4613   -1.4485   -5.6277 H   0  0  0  0  0  0  0  0  0  0  0  0
    8.7528   -1.9252   -4.0271 H   0  0  0  0  0  0  0  0  0  0  0  0
   11.6645   -1.5160   -3.9079 H   0  0  0  0  0  0  0  0  0  0  0  0
   10.7458   -0.0398   -4.4383 H   0  0  0  0  0  0  0  0  0  0  0  0
   10.9760   -1.1440   -1.8320 H   0  0  0  0  0  0  0  0  0  0  0  0
    9.4250   -1.2610   -2.3190 H   0  0  0  0  0  0  0  0  0  0  0  0
    9.7403    0.7784   -1.0533 H   0  0  0  0  0  0  0  0  0  0  0  0
   10.9239    1.3149   -2.3013 H   0  0  0  0  0  0  0  0  0  0  0  0
    8.8493    2.3707   -2.8796 H   0  0  0  0  0  0  0  0  0  0  0  0
    9.0413    0.9677   -4.0166 H   0  0  0  0  0  0  0  0  0  0  0  0
    6.7169    1.4433   -2.8066 H   0  0  0  0  0  0  0  0  0  0  0  0
    7.3331   -0.2381   -3.0566 H   0  0  0  0  0  0  0  0  0  0  0  0
    7.0900   -0.4440   -0.8050 H   0  0  0  0  0  0  0  0  0  0  0  0
    8.4180    0.5050   -0.6740 H   0  0  0  0  0  0  0  0  0  0  0  0
    6.9360    1.1890   -0.5430 H   0  0  0  0  0  0  0  0  0  0  0  0
  1  2  1  0
  2  3  1  0
  3  4  1  0
  4  5  1  0
  5  6  1  0
  6  7  1  0
  7  8  1  0
  8  9  1  0
  9 10  1  0
 10 11  1  0
 11 12  1  0
 12 13  1  0
 13 14  1  0
  1 15  1  0
  1 16  1  0
  1 17  1  0
  2 18  1  0
  2 19  1  0
  3 20  1  0
  3 21  1  0
  4 22  1  0
  4 23  1  0
  5 24  1  0
  5 25  1  0
  6 26  1  0
  6 27  1  0
  7 28  1  0
  7 29  1  0
  8 30  1  0
  8 31  1  0
  9 32  1  0
  9 33  1  0
 10 34  1  0
 10 35  1  0
 11 36  1  0
 11 37  1  0
 12 38  1  0
 12 39  1  0
 13 40  1  0
 13 41  1  0
 14 42  1  0
 14 43  1  0
 14 44  1  0
M  CHG  4   1   1   5   1  10   1  14   1
M  END
>  <meeko>  (6) 
{"is_sidechain": [false], "free_energy": -4.034, "intermolecular_energy": -6.627, "internal_energy": -0.545}

$$$$
3kwa_ligand
     RDKit          3D

 44 43  0  0  0  0  0  0  0  0999 V2000
   14.1640   -6.3520   -4.6570 N   0  0  0  0  0  0  0  0  0  0  0  0
   13.2560   -5.7890   -5.6900 C   0  0  0  0  0  0  0  0  0  0  0  0
   13.0240   -4.2850   -5.4670 C   0  0  0  0  0  0  0  0  0  0  0  0
   11.5690   -3.9900   -5.0630 C   0  0  0  0  0  0  0  0  0  0  0  0
   11.5220   -3.0410   -3.8840 N   0  0  0  0  0  0  0  0  0  0  0  0
   10.1220   -2.6980   -3.4210 C   0  0  0  0  0  0  0  0  0  0  0  0
    9.2300   -2.3680   -4.6310 C   0  0  0  0  0  0  0  0  0  0  0  0
    8.2660   -1.1800   -4.3790 C   0  0  0  0  0  0  0  0  0  0  0  0
    7.1270   -1.5600   -3.4170 C   0  0  0  0  0  0  0  0  0  0  0  0
    5.9720   -2.2230   -4.1290 N   0  0  0  0  0  0  0  0  0  0  0  0
    5.7290   -3.6820   -3.8300 C   0  0  0  0  0  0  0  0  0  0  0  0
    6.1420   -4.0030   -2.3810 C   0  0  0  0  0  0  0  0  0  0  0  0
    6.8820   -5.3450   -2.2740 C   0  0  0  0  0  0  0  0  0  0  0  0
    6.2500   -6.2240   -1.2570 N   0  0  0  0  0  0  0  0  0  0  0  0
   14.2610   -7.3790   -4.6920 H   0  0  0  0  0  0  0  0  0  0  0  0
   13.9120   -6.1000   -3.6880 H   0  0  0  0  0  0  0  0  0  0  0  0
   15.1270   -5.9920   -4.7810 H   0  0  0  0  0  0  0  0  0  0  0  0
   13.7051   -5.9394   -6.6828 H   0  0  0  0  0  0  0  0  0  0  0  0
   12.2870   -6.3049   -5.6203 H   0  0  0  0  0  0  0  0  0  0  0  0
   13.6942   -3.9350   -4.6681 H   0  0  0  0  0  0  0  0  0  0  0  0
   13.2317   -3.7611   -6.4117 H   0  0  0  0  0  0  0  0  0  0  0  0
   11.0433   -3.5338   -5.9148 H   0  0  0  0  0  0  0  0  0  0  0  0
   11.0836   -4.9344   -4.7759 H   0  0  0  0  0  0  0  0  0  0  0  0
   12.0450   -3.4500   -3.0930 H   0  0  0  0  0  0  0  0  0  0  0  0
   12.0170   -2.1680   -4.1270 H   0  0  0  0  0  0  0  0  0  0  0  0
    9.6975   -3.5563   -2.8795 H   0  0  0  0  0  0  0  0  0  0  0  0
   10.1671   -1.8217   -2.7577 H   0  0  0  0  0  0  0  0  0  0  0  0
    9.8779   -2.1166   -5.4837 H   0  0  0  0  0  0  0  0  0  0  0  0
    8.6089   -3.2542   -4.8281 H   0  0  0  0  0  0  0  0  0  0  0  0
    8.8358   -0.3458   -3.9438 H   0  0  0  0  0  0  0  0  0  0  0  0
    7.8179   -0.8942   -5.3421 H   0  0  0  0  0  0  0  0  0  0  0  0
    7.5206   -2.2537   -2.6594 H   0  0  0  0  0  0  0  0  0  0  0  0
    6.7517   -0.6337   -2.9575 H   0  0  0  0  0  0  0  0  0  0  0  0
    6.0440   -2.0590   -5.1470 H   0  0  0  0  0  0  0  0  0  0  0  0
    5.1290   -1.6940   -3.8490 H   0  0  0  0  0  0  0  0  0  0  0  0
    4.6604   -3.9070   -3.9618 H   0  0  0  0  0  0  0  0  0  0  0  0
    6.3290   -4.2948   -4.5188 H   0  0  0  0  0  0  0  0  0  0  0  0
    6.8031   -3.2035   -2.0154 H   0  0  0  0  0  0  0  0  0  0  0  0
    5.2262   -4.0723   -1.7756 H   0  0  0  0  0  0  0  0  0  0  0  0
    6.8551   -5.8491   -3.2513 H   0  0  0  0  0  0  0  0  0  0  0  0
    7.9205   -5.1483   -1.9692 H   0  0  0  0  0  0  0  0  0  0  0  0
    6.7620   -6.2770   -0.3630 H   0  0  0  0  0  0  0  0  0  0  0  0
    5.3090   -5.8740   -1.0020 H   0  0  0  0  0  0  0  0  0  0  0  0
    6.0920   -7.1940   -1.5750 H   0  0  0  0  0  0  0  0  0  0  0  0
  1  2  1  0
  2  3  1  0
  3  4  1  0
  4  5  1  0
  5  6  1  0
  6  7  1  0
  7  8  1  0
  8  9  1  0
  9 10  1  0
 10 11  1  0
 11 12  1  0
 12 13  1  0
 13 14  1  0
  1 15  1  0
  1 16  1  0
  1 17  1  0
  2 18  1  0
  2 19  1  0
  3 20  1  0
  3 21  1  0
  4 22  1  0
  4 23  1  0
  5 24  1  0
  5 25  1  0
  6 26  1  0
  6 27  1  0
  7 28  1  0
  7 29  1  0
  8 30  1  0
  8 31  1  0
  9 32  1  0
  9 33  1  0
 10 34  1  0
 10 35  1  0
 11 36  1  0
 11 37  1  0
 12 38  1  0
 12 39  1  0
 13 40  1  0
 13 41  1  0
 14 42  1  0
 14 43  1  0
 14 44  1  0
M  CHG  4   1   1   5   1  10   1  14   1
M  END
>  <meeko>  (7) 
{"is_sidechain": [false], "free_energy": -4.022, "intermolecular_energy": -6.715, "internal_energy": -0.437}

$$$$
3kwa_ligand
     RDKit          3D

 44 43  0  0  0  0  0  0  0  0999 V2000
   10.3210    0.1480   -1.4020 N   0  0  0  0  0  0  0  0  0  0  0  0
    9.1750    0.7380   -2.1420 C   0  0  0  0  0  0  0  0  0  0  0  0
    8.9160   -0.0140   -3.4580 C   0  0  0  0  0  0  0  0  0  0  0  0
    7.4720   -0.5410   -3.5340 C   0  0  0  0  0  0  0  0  0  0  0  0
    7.0950   -1.2550   -2.2530 N   0  0  0  0  0  0  0  0  0  0  0  0
    6.4520   -2.6090   -2.4650 C   0  0  0  0  0  0  0  0  0  0  0  0
    7.2340   -3.4070   -3.5250 C   0  0  0  0  0  0  0  0  0  0  0  0
    8.4800   -4.1310   -2.9540 C   0  0  0  0  0  0  0  0  0  0  0  0
    9.7900   -3.5080   -3.4650 C   0  0  0  0  0  0  0  0  0  0  0  0
    9.8020   -3.3500   -4.9670 N   0  0  0  0  0  0  0  0  0  0  0  0
   11.1200   -3.5720   -5.6680 C   0  0  0  0  0  0  0  0  0  0  0  0
   11.6180   -5.0090   -5.4200 C   0  0  0  0  0  0  0  0  0  0  0  0
   13.1270   -5.0570   -5.1370 C   0  0  0  0  0  0  0  0  0  0  0  0
   13.5230   -4.0020   -4.1680 N   0  0  0  0  0  0  0  0  0  0  0  0
   10.1020   -0.1280   -0.4320 H   0  0  0  0  0  0  0  0  0  0  0  0
   11.1590    0.7500   -1.3680 H   0  0  0  0  0  0  0  0  0  0  0  0
   10.6410   -0.7240   -1.8590 H   0  0  0  0  0  0  0  0  0  0  0  0
    8.2743    0.6811   -1.5131 H   0  0  0  0  0  0  0  0  0  0  0  0
    9.4162    1.7844   -2.3806 H   0  0  0  0  0  0  0  0  0  0  0  0
    9.0911    0.6707   -4.3009 H   0  0  0  0  0  0  0  0  0  0  0  0
    9.5994   -0.8747   -3.5029 H   0  0  0  0  0  0  0  0  0  0  0  0
    6.7866    0.3049   -3.6911 H   0  0  0  0  0  0  0  0  0  0  0  0
    7.3984   -1.2520   -4.3701 H   0  0  0  0  0  0  0  0  0  0  0  0
    7.9340   -1.3720   -1.6640 H   0  0  0  0  0  0  0  0  0  0  0  0
    6.4500   -0.6620   -1.7070 H   0  0  0  0  0  0  0  0  0  0  0  0
    6.4544   -3.1653   -1.5160 H   0  0  0  0  0  0  0  0  0  0  0  0
    5.4183   -2.4658   -2.8128 H   0  0  0  0  0  0  0  0  0  0  0  0
    6.5616   -4.1608   -3.9604 H   0  0  0  0  0  0  0  0  0  0  0  0
    7.5920   -2.6868   -4.2754 H   0  0  0  0  0  0  0  0  0  0  0  0
    8.4586   -4.0634   -1.8563 H   0  0  0  0  0  0  0  0  0  0  0  0
    8.4480   -5.1787   -3.2876 H   0  0  0  0  0  0  0  0  0  0  0  0
    9.9138   -2.5169   -3.0041 H   0  0  0  0  0  0  0  0  0  0  0  0
   10.6134   -4.1841   -3.1912 H   0  0  0  0  0  0  0  0  0  0  0  0
    9.3900   -2.4400   -5.2290 H   0  0  0  0  0  0  0  0  0  0  0  0
    9.1260   -4.0450   -5.3270 H   0  0  0  0  0  0  0  0  0  0  0  0
   10.9881   -3.4144   -6.7486 H   0  0  0  0  0  0  0  0  0  0  0  0
   11.8612   -2.8616   -5.2731 H   0  0  0  0  0  0  0  0  0  0  0  0
   11.0815   -5.4260   -4.5550 H   0  0  0  0  0  0  0  0  0  0  0  0
   11.4253   -5.5960   -6.3301 H   0  0  0  0  0  0  0  0  0  0  0  0
   13.3833   -6.0422   -4.7202 H   0  0  0  0  0  0  0  0  0  0  0  0
   13.6653   -4.8848   -6.0807 H   0  0  0  0  0  0  0  0  0  0  0  0
   12.7520   -3.3780   -3.8810 H   0  0  0  0  0  0  0  0  0  0  0  0
   13.8650   -4.4230   -3.2860 H   0  0  0  0  0  0  0  0  0  0  0  0
   14.2980   -3.4010   -4.4900 H   0  0  0  0  0  0  0  0  0  0  0  0
  1  2  1  0
  2  3  1  0
  3  4  1  0
  4  5  1  0
  5  6  1  0
  6  7  1  0
  7  8  1  0
  8  9  1  0
  9 10  1  0
 10 11  1  0
 11 12  1  0
 12 13  1  0
 13 14  1  0
  1 15  1  0
  1 16  1  0
  1 17  1  0
  2 18  1  0
  2 19  1  0
  3 20  1  0
  3 21  1  0
  4 22  1  0
  4 23  1  0
  5 24  1  0
  5 25  1  0
  6 26  1  0
  6 27  1  0
  7 28  1  0
  7 29  1  0
  8 30  1  0
  8 31  1  0
  9 32  1  0
  9 33  1  0
 10 34  1  0
 10 35  1  0
 11 36  1  0
 11 37  1  0
 12 38  1  0
 12 39  1  0
 13 40  1  0
 13 41  1  0
 14 42  1  0
 14 43  1  0
 14 44  1  0
M  CHG  4   1   1   5   1  10   1  14   1
M  END
>  <meeko>  (8) 
{"is_sidechain": [false], "free_energy": -3.882, "intermolecular_energy": -6.218, "internal_energy": -0.695}

$$$$
3kwa_ligand
     RDKit          3D

 44 43  0  0  0  0  0  0  0  0999 V2000
   14.0030   -6.2690   -4.6780 N   0  0  0  0  0  0  0  0  0  0  0  0
   13.6230   -5.3930   -5.8170 C   0  0  0  0  0  0  0  0  0  0  0  0
   12.3830   -5.9350   -6.5450 C   0  0  0  0  0  0  0  0  0  0  0  0
   11.1070   -5.1850   -6.1250 C   0  0  0  0  0  0  0  0  0  0  0  0
   11.4320   -3.7630   -5.7150 N   0  0  0  0  0  0  0  0  0  0  0  0
   10.6350   -3.2640   -4.5290 C   0  0  0  0  0  0  0  0  0  0  0  0
    9.6130   -4.3280   -4.0910 C   0  0  0  0  0  0  0  0  0  0  0  0
    8.6000   -3.8110   -3.0370 C   0  0  0  0  0  0  0  0  0  0  0  0
    7.6460   -2.7580   -3.6270 C   0  0  0  0  0  0  0  0  0  0  0  0
    7.0310   -1.8820   -2.5620 N   0  0  0  0  0  0  0  0  0  0  0  0
    7.0560   -0.3920   -2.8000 C   0  0  0  0  0  0  0  0  0  0  0  0
    8.4140    0.0280   -3.3930 C   0  0  0  0  0  0  0  0  0  0  0  0
    9.2470    0.8570   -2.4030 C   0  0  0  0  0  0  0  0  0  0  0  0
   10.3270    0.0360   -1.7960 N   0  0  0  0  0  0  0  0  0  0  0  0
   13.3330   -6.2580   -3.8930 H   0  0  0  0  0  0  0  0  0  0  0  0
   14.9380   -6.0740   -4.2860 H   0  0  0  0  0  0  0  0  0  0  0  0
   14.0440   -7.2600   -4.9760 H   0  0  0  0  0  0  0  0  0  0  0  0
   13.4035   -4.3845   -5.4364 H   0  0  0  0  0  0  0  0  0  0  0  0
   14.4607   -5.3648   -6.5294 H   0  0  0  0  0  0  0  0  0  0  0  0
   12.5257   -5.8173   -7.6293 H   0  0  0  0  0  0  0  0  0  0  0  0
   12.2629   -6.9952   -6.2775 H   0  0  0  0  0  0  0  0  0  0  0  0
   10.4047   -5.1652   -6.9714 H   0  0  0  0  0  0  0  0  0  0  0  0
   10.6566   -5.7061   -5.2674 H   0  0  0  0  0  0  0  0  0  0  0  0
   12.4380   -3.6900   -5.4970 H   0  0  0  0  0  0  0  0  0  0  0  0
   11.2720   -3.1310   -6.5150 H   0  0  0  0  0  0  0  0  0  0  0  0
   11.3194   -3.0520   -3.6943 H   0  0  0  0  0  0  0  0  0  0  0  0
   10.0988   -2.3476   -4.8164 H   0  0  0  0  0  0  0  0  0  0  0  0
    9.0541   -4.6608   -4.9781 H   0  0  0  0  0  0  0  0  0  0  0  0
   10.1778   -5.1483   -3.6239 H   0  0  0  0  0  0  0  0  0  0  0  0
    8.0071   -4.6604   -2.6668 H   0  0  0  0  0  0  0  0  0  0  0  0
    9.1674   -3.3385   -2.2217 H   0  0  0  0  0  0  0  0  0  0  0  0
    8.2093   -2.1225   -4.3262 H   0  0  0  0  0  0  0  0  0  0  0  0
    6.8301   -3.2910   -4.1372 H   0  0  0  0  0  0  0  0  0  0  0  0
    7.4290   -2.1180   -1.6380 H   0  0  0  0  0  0  0  0  0  0  0  0
    6.0420   -2.1790   -2.4920 H   0  0  0  0  0  0  0  0  0  0  0  0
    6.2536   -0.1225   -3.5025 H   0  0  0  0  0  0  0  0  0  0  0  0
    6.9059    0.1276   -1.8421 H   0  0  0  0  0  0  0  0  0  0  0  0
    8.9790   -0.8770   -3.6607 H   0  0  0  0  0  0  0  0  0  0  0  0
    8.2183    0.6531   -4.2767 H   0  0  0  0  0  0  0  0  0  0  0  0
    9.6980    1.7069   -2.9361 H   0  0  0  0  0  0  0  0  0  0  0  0
    8.5845    1.2127   -1.6001 H   0  0  0  0  0  0  0  0  0  0  0  0
   11.2660    0.2150   -2.1840 H   0  0  0  0  0  0  0  0  0  0  0  0
   10.4160    0.2380   -0.7830 H   0  0  0  0  0  0  0  0  0  0  0  0
   10.1640   -0.9820   -1.8470 H   0  0  0  0  0  0  0  0  0  0  0  0
  1  2  1  0
  2  3  1  0
  3  4  1  0
  4  5  1  0
  5  6  1  0
  6  7  1  0
  7  8  1  0
  8  9  1  0
  9 10  1  0
 10 11  1  0
 11 12  1  0
 12 13  1  0
 13 14  1  0
  1 15  1  0
  1 16  1  0
  1 17  1  0
  2 18  1  0
  2 19  1  0
  3 20  1  0
  3 21  1  0
  4 22  1  0
  4 23  1  0
  5 24  1  0
  5 25  1  0
  6 26  1  0
  6 27  1  0
  7 28  1  0
  7 29  1  0
  8 30  1  0
  8 31  1  0
  9 32  1  0
  9 33  1  0
 10 34  1  0
 10 35  1  0
 11 36  1  0
 11 37  1  0
 12 38  1  0
 12 39  1  0
 13 40  1  0
 13 41  1  0
 14 42  1  0
 14 43  1  0
 14 44  1  0
M  CHG  4   1   1   5   1  10   1  14   1
M  END
>  <meeko>  (9) 
{"is_sidechain": [false], "free_energy": -3.847, "intermolecular_energy": -6.359, "internal_energy": -0.496}

$$$$
