2zb1_ligand
     RDKit          3D

 47 50  0  0  0  0  0  0  0  0999 V2000
   -1.0150   -1.9930   13.8660 C   0  0  0  0  0  0  0  0  0  0  0  0
   -1.4030   -0.5730   13.8760 C   0  0  0  0  0  0  0  0  0  0  0  0
   -0.9310    0.4230   14.5940 N   0  0  0  0  0  0  0  0  0  0  0  0
   -1.6430    1.5430   14.2140 N   0  0  0  0  0  0  0  0  0  0  0  0
   -2.4990    1.1520   13.2900 C   0  0  0  0  0  0  0  0  0  0  0  0
   -3.4900    1.9170   12.5460 C   0  0  0  0  0  0  0  0  0  0  0  0
   -4.8330    1.9700   12.9360 C   0  0  0  0  0  0  0  0  0  0  0  0
   -5.7610    2.7100   12.1980 C   0  0  0  0  0  0  0  0  0  0  0  0
   -5.3690    3.4140   11.0480 C   0  0  0  0  0  0  0  0  0  0  0  0
   -6.4050    4.2000   10.2870 C   0  0  0  0  0  0  0  0  0  0  0  0
   -4.0170    3.3850   10.6450 C   0  0  0  0  0  0  0  0  0  0  0  0
   -3.5320    4.1130    9.4640 C   0  0  0  0  0  0  0  0  0  0  0  0
   -2.9090    5.3630    9.6010 C   0  0  0  0  0  0  0  0  0  0  0  0
   -2.4490    6.0640    8.4800 C   0  0  0  0  0  0  0  0  0  0  0  0
   -2.6170    5.5230    7.2000 C   0  0  0  0  0  0  0  0  0  0  0  0
   -2.1420    6.2270    5.9780 C   0  0  0  0  0  0  0  0  0  0  0  0
   -2.5620    7.3500    5.7180 O   0  0  0  0  0  0  0  0  0  0  0  0
   -1.2080    5.5570    5.2170 N   0  0  0  0  0  0  0  0  0  0  0  0
   -0.5760    6.1770    4.0750 C   0  0  0  0  0  0  0  0  0  0  0  0
    0.7140    6.8040    4.5010 C   0  0  0  0  0  0  0  0  0  0  0  0
    1.9170    5.9450    4.7970 C   0  0  0  0  0  0  0  0  0  0  0  0
    1.9030    6.8190    3.5740 C   0  0  0  0  0  0  0  0  0  0  0  0
   -3.2250    4.2720    7.0540 C   0  0  0  0  0  0  0  0  0  0  0  0
   -3.6850    3.5770    8.1760 C   0  0  0  0  0  0  0  0  0  0  0  0
   -3.0990    2.6300   11.4020 C   0  0  0  0  0  0  0  0  0  0  0  0
   -2.4010   -0.1910   13.0220 O   0  0  0  0  0  0  0  0  0  0  0  0
   -0.9165   -2.3535   14.9006 H   0  0  0  0  0  0  0  0  0  0  0  0
   -1.7857   -2.5800   13.3450 H   0  0  0  0  0  0  0  0  0  0  0  0
   -0.0529   -2.1066   13.3450 H   0  0  0  0  0  0  0  0  0  0  0  0
   -5.1616    1.4237   13.8325 H   0  0  0  0  0  0  0  0  0  0  0  0
   -6.8117    2.7413   12.5221 H   0  0  0  0  0  0  0  0  0  0  0  0
   -7.0744    4.7079   10.9969 H   0  0  0  0  0  0  0  0  0  0  0  0
   -5.9056    4.9485    9.6543 H   0  0  0  0  0  0  0  0  0  0  0  0
   -6.9913    3.5175    9.6543 H   0  0  0  0  0  0  0  0  0  0  0  0
   -2.7804    5.7980   10.6031 H   0  0  0  0  0  0  0  0  0  0  0  0
   -1.9559    7.0393    8.6049 H   0  0  0  0  0  0  0  0  0  0  0  0
   -0.7640    4.7360    5.6010 H   0  0  0  0  0  0  0  0  0  0  0  0
   -0.3777    5.4152    3.3067 H   0  0  0  0  0  0  0  0  0  0  0  0
   -1.2410    6.9493    3.6611 H   0  0  0  0  0  0  0  0  0  0  0  0
    0.1473    7.5697    5.0511 H   0  0  0  0  0  0  0  0  0  0  0  0
    2.5752    6.1934    5.6427 H   0  0  0  0  0  0  0  0  0  0  0  0
    2.0796    4.8734    4.9847 H   0  0  0  0  0  0  0  0  0  0  0  0
    2.5509    7.7066    3.5252 H   0  0  0  0  0  0  0  0  0  0  0  0
    2.0511    6.6512    2.4970 H   0  0  0  0  0  0  0  0  0  0  0  0
   -3.3417    3.8333    6.0521 H   0  0  0  0  0  0  0  0  0  0  0  0
   -4.1723    2.5992    8.0481 H   0  0  0  0  0  0  0  0  0  0  0  0
   -2.0455    2.5985   11.0872 H   0  0  0  0  0  0  0  0  0  0  0  0
  1  2  1  0
  2  3  2  0
  3  4  1  0
  4  5  2  0
  5  6  1  0
  6  7  2  0
  7  8  1  0
  8  9  2  0
  9 10  1  0
  9 11  1  0
 11 12  1  0
 12 13  2  0
 13 14  1  0
 14 15  2  0
 15 16  1  0
 16 17  2  0
 16 18  1  0
 18 19  1  0
 19 20  1  0
 20 21  1  0
 21 22  1  0
 15 23  1  0
 23 24  2  0
 11 25  2  0
  5 26  1  0
 26  2  1  0
 25  6  1  0
 24 12  1  0
 22 20  1  0
  1 27  1  0
  1 28  1  0
  1 29  1  0
  7 30  1  0
  8 31  1  0
 10 32  1  0
 10 33  1  0
 10 34  1  0
 13 35  1  0
 14 36  1  0
 18 37  1  0
 19 38  1  0
 19 39  1  0
 20 40  1  0
 21 41  1  0
 21 42  1  0
 22 43  1  0
 22 44  1  0
 23 45  1  0
 24 46  1  0
 25 47  1  0
M  END
>  <meeko>  (1) 
{"is_sidechain": [false], "free_energy": -8.724, "intermolecular_energy": -11.274, "internal_energy": -0.942}

$$$$
2zb1_ligand
     RDKit          3D

 47 50  0  0  0  0  0  0  0  0999 V2000
   -2.0440   -3.1190   10.5250 C   0  0  0  0  0  0  0  0  0  0  0  0
   -3.3370   -2.5370   10.9200 C   0  0  0  0  0  0  0  0  0  0  0  0
   -4.2960   -3.0450   11.6620 N   0  0  0  0  0  0  0  0  0  0  0  0
   -5.2880   -2.0860   11.7200 N   0  0  0  0  0  0  0  0  0  0  0  0
   -4.8630   -1.0600   11.0090 C   0  0  0  0  0  0  0  0  0  0  0  0
   -5.5040    0.2190   10.7330 C   0  0  0  0  0  0  0  0  0  0  0  0
   -6.8530    0.4510   11.0240 C   0  0  0  0  0  0  0  0  0  0  0  0
   -7.4400    1.6880   10.7440 C   0  0  0  0  0  0  0  0  0  0  0  0
   -6.6920    2.7240   10.1610 C   0  0  0  0  0  0  0  0  0  0  0  0
   -7.3680    4.0400    9.8800 C   0  0  0  0  0  0  0  0  0  0  0  0
   -5.3270    2.5150    9.8720 C   0  0  0  0  0  0  0  0  0  0  0  0
   -4.4790    3.5600    9.2790 C   0  0  0  0  0  0  0  0  0  0  0  0
   -3.7460    4.4330   10.0980 C   0  0  0  0  0  0  0  0  0  0  0  0
   -2.9410    5.4330    9.5400 C   0  0  0  0  0  0  0  0  0  0  0  0
   -2.8660    5.5780    8.1500 C   0  0  0  0  0  0  0  0  0  0  0  0
   -2.0220    6.6230    7.5100 C   0  0  0  0  0  0  0  0  0  0  0  0
   -2.0660    7.7780    7.9180 O   0  0  0  0  0  0  0  0  0  0  0  0
   -1.1990    6.1950    6.4890 N   0  0  0  0  0  0  0  0  0  0  0  0
   -0.2420    7.0800    5.8670 C   0  0  0  0  0  0  0  0  0  0  0  0
    0.3470    6.4110    4.6650 C   0  0  0  0  0  0  0  0  0  0  0  0
    1.3050    7.1560    3.7710 C   0  0  0  0  0  0  0  0  0  0  0  0
    1.8050    6.0320    4.6340 C   0  0  0  0  0  0  0  0  0  0  0  0
   -3.5840    4.7040    7.3260 C   0  0  0  0  0  0  0  0  0  0  0  0
   -4.3890    3.7090    7.8870 C   0  0  0  0  0  0  0  0  0  0  0  0
   -4.7570    1.2590   10.1600 C   0  0  0  0  0  0  0  0  0  0  0  0
   -3.6210   -1.2770   10.4670 O   0  0  0  0  0  0  0  0  0  0  0  0
   -1.4681   -3.3782   11.4257 H   0  0  0  0  0  0  0  0  0  0  0  0
   -2.2174   -4.0259    9.9271 H   0  0  0  0  0  0  0  0  0  0  0  0
   -1.4802   -2.3879    9.9271 H   0  0  0  0  0  0  0  0  0  0  0  0
   -7.4574   -0.3483   11.4777 H   0  0  0  0  0  0  0  0  0  0  0  0
   -8.5010    1.8523   10.9832 H   0  0  0  0  0  0  0  0  0  0  0  0
   -7.6210    4.5326   10.8305 H   0  0  0  0  0  0  0  0  0  0  0  0
   -6.6895    4.6847    9.3021 H   0  0  0  0  0  0  0  0  0  0  0  0
   -8.2873    3.8640    9.3021 H   0  0  0  0  0  0  0  0  0  0  0  0
   -3.8049    4.3301   11.1916 H   0  0  0  0  0  0  0  0  0  0  0  0
   -2.3669    6.1054   10.1945 H   0  0  0  0  0  0  0  0  0  0  0  0
   -1.0680    5.2040    6.3510 H   0  0  0  0  0  0  0  0  0  0  0  0
   -0.7463    8.0081    5.5600 H   0  0  0  0  0  0  0  0  0  0  0  0
    0.5580    7.3176    6.5837 H   0  0  0  0  0  0  0  0  0  0  0  0
   -0.5998    5.8711    4.5166 H   0  0  0  0  0  0  0  0  0  0  0  0
    1.2505    7.0289    2.6797 H   0  0  0  0  0  0  0  0  0  0  0  0
    1.5792    8.2125    3.6346 H   0  0  0  0  0  0  0  0  0  0  0  0
    2.1165    5.0826    4.1741 H   0  0  0  0  0  0  0  0  0  0  0  0
    2.5966    5.9259    5.3903 H   0  0  0  0  0  0  0  0  0  0  0  0
   -3.5144    4.8006    6.2325 H   0  0  0  0  0  0  0  0  0  0  0  0
   -4.9584    3.0352    7.2299 H   0  0  0  0  0  0  0  0  0  0  0  0
   -3.6951    1.0890    9.9287 H   0  0  0  0  0  0  0  0  0  0  0  0
  1  2  1  0
  2  3  2  0
  3  4  1  0
  4  5  2  0
  5  6  1  0
  6  7  2  0
  7  8  1  0
  8  9  2  0
  9 10  1  0
  9 11  1  0
 11 12  1  0
 12 13  2  0
 13 14  1  0
 14 15  2  0
 15 16  1  0
 16 17  2  0
 16 18  1  0
 18 19  1  0
 19 20  1  0
 20 21  1  0
 21 22  1  0
 15 23  1  0
 23 24  2  0
 11 25  2  0
  5 26  1  0
 26  2  1  0
 25  6  1  0
 24 12  1  0
 22 20  1  0
  1 27  1  0
  1 28  1  0
  1 29  1  0
  7 30  1  0
  8 31  1  0
 10 32  1  0
 10 33  1  0
 10 34  1  0
 13 35  1  0
 14 36  1  0
 18 37  1  0
 19 38  1  0
 19 39  1  0
 20 40  1  0
 21 41  1  0
 21 42  1  0
 22 43  1  0
 22 44  1  0
 23 45  1  0
 24 46  1  0
 25 47  1  0
M  END
>  <meeko>  (2) 
{"is_sidechain": [false], "free_energy": -8.085, "intermolecular_energy": -10.478, "internal_energy": -0.912}

$$$$
2zb1_ligand
     RDKit          3D

 47 50  0  0  0  0  0  0  0  0999 V2000
  -11.4630    1.5960   15.1440 C   0  0  0  0  0  0  0  0  0  0  0  0
  -10.6450    0.4440   14.7320 C   0  0  0  0  0  0  0  0  0  0  0  0
  -10.6100   -0.7780   15.2160 N   0  0  0  0  0  0  0  0  0  0  0  0
   -9.6710   -1.4610   14.4690 N   0  0  0  0  0  0  0  0  0  0  0  0
   -9.2000   -0.6080   13.5810 C   0  0  0  0  0  0  0  0  0  0  0  0
   -8.1940   -0.7930   12.5440 C   0  0  0  0  0  0  0  0  0  0  0  0
   -7.7760   -2.0640   12.1340 C   0  0  0  0  0  0  0  0  0  0  0  0
   -6.8060   -2.2090   11.1390 C   0  0  0  0  0  0  0  0  0  0  0  0
   -6.2250   -1.0850   10.5300 C   0  0  0  0  0  0  0  0  0  0  0  0
   -5.1850   -1.2920    9.4610 C   0  0  0  0  0  0  0  0  0  0  0  0
   -6.6420    0.2060   10.9200 C   0  0  0  0  0  0  0  0  0  0  0  0
   -6.0920    1.4270   10.3130 C   0  0  0  0  0  0  0  0  0  0  0  0
   -6.6930    1.9930    9.1780 C   0  0  0  0  0  0  0  0  0  0  0  0
   -6.1720    3.1520    8.5920 C   0  0  0  0  0  0  0  0  0  0  0  0
   -5.0310    3.7570    9.1330 C   0  0  0  0  0  0  0  0  0  0  0  0
   -4.4420    4.9920    8.5480 C   0  0  0  0  0  0  0  0  0  0  0  0
   -4.8710    5.4300    7.4870 O   0  0  0  0  0  0  0  0  0  0  0  0
   -3.4420    5.5930    9.2840 N   0  0  0  0  0  0  0  0  0  0  0  0
   -2.8710    6.8610    8.8930 C   0  0  0  0  0  0  0  0  0  0  0  0
   -1.7780    6.6280    7.8970 C   0  0  0  0  0  0  0  0  0  0  0  0
   -1.9590    7.0370    6.4580 C   0  0  0  0  0  0  0  0  0  0  0  0
   -0.9940    7.7860    7.3340 C   0  0  0  0  0  0  0  0  0  0  0  0
   -4.4330    3.2080   10.2720 C   0  0  0  0  0  0  0  0  0  0  0  0
   -4.9550    2.0480   10.8510 C   0  0  0  0  0  0  0  0  0  0  0  0
   -7.6200    0.3280   11.9270 C   0  0  0  0  0  0  0  0  0  0  0  0
   -9.7790    0.6320   13.6900 O   0  0  0  0  0  0  0  0  0  0  0  0
  -11.4987    1.6463   16.2423 H   0  0  0  0  0  0  0  0  0  0  0  0
  -11.0185    2.5214   14.7488 H   0  0  0  0  0  0  0  0  0  0  0  0
  -12.4832    1.4814   14.7488 H   0  0  0  0  0  0  0  0  0  0  0  0
   -8.2157   -2.9582   12.5999 H   0  0  0  0  0  0  0  0  0  0  0  0
   -6.4933   -3.2169   10.8286 H   0  0  0  0  0  0  0  0  0  0  0  0
   -4.2096   -1.4861    9.9311 H   0  0  0  0  0  0  0  0  0  0  0  0
   -5.4681   -2.1514    8.8355 H   0  0  0  0  0  0  0  0  0  0  0  0
   -5.1175   -0.3897    8.8355 H   0  0  0  0  0  0  0  0  0  0  0  0
   -7.5855    1.5192    8.7433 H   0  0  0  0  0  0  0  0  0  0  0  0
   -6.6586    3.5876    7.7068 H   0  0  0  0  0  0  0  0  0  0  0  0
   -3.2880    5.2920   10.2350 H   0  0  0  0  0  0  0  0  0  0  0  0
   -3.6512    7.4911    8.4410 H   0  0  0  0  0  0  0  0  0  0  0  0
   -2.4594    7.3674    9.7785 H   0  0  0  0  0  0  0  0  0  0  0  0
   -1.5197    5.6930    8.4157 H   0  0  0  0  0  0  0  0  0  0  0  0
   -1.5818    6.3912    5.6514 H   0  0  0  0  0  0  0  0  0  0  0  0
   -2.8190    7.3173    5.8320 H   0  0  0  0  0  0  0  0  0  0  0  0
    0.0890    7.6879    7.1683 H   0  0  0  0  0  0  0  0  0  0  0  0
   -0.8559    8.8407    7.6141 H   0  0  0  0  0  0  0  0  0  0  0  0
   -3.5488    3.6909   10.7136 H   0  0  0  0  0  0  0  0  0  0  0  0
   -4.4688    1.6171   11.7386 H   0  0  0  0  0  0  0  0  0  0  0  0
   -7.9429    1.3324   12.2384 H   0  0  0  0  0  0  0  0  0  0  0  0
  1  2  1  0
  2  3  2  0
  3  4  1  0
  4  5  2  0
  5  6  1  0
  6  7  2  0
  7  8  1  0
  8  9  2  0
  9 10  1  0
  9 11  1  0
 11 12  1  0
 12 13  2  0
 13 14  1  0
 14 15  2  0
 15 16  1  0
 16 17  2  0
 16 18  1  0
 18 19  1  0
 19 20  1  0
 20 21  1  0
 21 22  1  0
 15 23  1  0
 23 24  2  0
 11 25  2  0
  5 26  1  0
 26  2  1  0
 25  6  1  0
 24 12  1  0
 22 20  1  0
  1 27  1  0
  1 28  1  0
  1 29  1  0
  7 30  1  0
  8 31  1  0
 10 32  1  0
 10 33  1  0
 10 34  1  0
 13 35  1  0
 14 36  1  0
 18 37  1  0
 19 38  1  0
 19 39  1  0
 20 40  1  0
 21 41  1  0
 21 42  1  0
 22 43  1  0
 22 44  1  0
 23 45  1  0
 24 46  1  0
 25 47  1  0
M  END
>  <meeko>  (3) 
{"is_sidechain": [false], "free_energy": -7.545, "intermolecular_energy": -9.698, "internal_energy": -0.994}

$$$$
2zb1_ligand
     RDKit          3D

 47 50  0  0  0  0  0  0  0  0999 V2000
   -0.7420    6.1860    4.5920 C   0  0  0  0  0  0  0  0  0  0  0  0
   -1.6400    6.3220    5.7490 C   0  0  0  0  0  0  0  0  0  0  0  0
   -1.8360    7.3500    6.5460 N   0  0  0  0  0  0  0  0  0  0  0  0
   -2.7810    6.9490    7.4680 N   0  0  0  0  0  0  0  0  0  0  0  0
   -3.0970    5.7040    7.1690 C   0  0  0  0  0  0  0  0  0  0  0  0
   -4.0410    4.7970    7.8090 C   0  0  0  0  0  0  0  0  0  0  0  0
   -5.4010    4.7880    7.4810 C   0  0  0  0  0  0  0  0  0  0  0  0
   -6.2810    3.9080    8.1150 C   0  0  0  0  0  0  0  0  0  0  0  0
   -5.8240    3.0150    9.0980 C   0  0  0  0  0  0  0  0  0  0  0  0
   -6.8110    2.0840    9.7510 C   0  0  0  0  0  0  0  0  0  0  0  0
   -4.4540    2.9990    9.4340 C   0  0  0  0  0  0  0  0  0  0  0  0
   -3.9010    2.0790   10.4380 C   0  0  0  0  0  0  0  0  0  0  0  0
   -3.8310    2.4550   11.7890 C   0  0  0  0  0  0  0  0  0  0  0  0
   -3.3010    1.5860   12.7490 C   0  0  0  0  0  0  0  0  0  0  0  0
   -2.8250    0.3260   12.3670 C   0  0  0  0  0  0  0  0  0  0  0  0
   -2.2570   -0.6350   13.3520 C   0  0  0  0  0  0  0  0  0  0  0  0
   -1.3620   -0.2750   14.1080 O   0  0  0  0  0  0  0  0  0  0  0  0
   -2.8200   -1.8940   13.3630 N   0  0  0  0  0  0  0  0  0  0  0  0
   -2.4460   -2.8800   14.3500 C   0  0  0  0  0  0  0  0  0  0  0  0
   -1.6980   -3.9920   13.6830 C   0  0  0  0  0  0  0  0  0  0  0  0
   -0.4950   -3.6950   12.8250 C   0  0  0  0  0  0  0  0  0  0  0  0
   -0.3190   -4.3790   14.1520 C   0  0  0  0  0  0  0  0  0  0  0  0
   -2.9030   -0.0630   11.0260 C   0  0  0  0  0  0  0  0  0  0  0  0
   -3.4290    0.8100   10.0690 C   0  0  0  0  0  0  0  0  0  0  0  0
   -3.5840    3.8970    8.7830 C   0  0  0  0  0  0  0  0  0  0  0  0
   -2.4060    5.2370    6.0790 O   0  0  0  0  0  0  0  0  0  0  0  0
    0.2884    6.0299    4.9440 H   0  0  0  0  0  0  0  0  0  0  0  0
   -1.0559    5.3252    3.9834 H   0  0  0  0  0  0  0  0  0  0  0  0
   -0.7869    7.1012    3.9834 H   0  0  0  0  0  0  0  0  0  0  0  0
   -5.7811    5.4810    6.7160 H   0  0  0  0  0  0  0  0  0  0  0  0
   -7.3462    3.9144    7.8408 H   0  0  0  0  0  0  0  0  0  0  0  0
   -6.7242    2.1659   10.8445 H   0  0  0  0  0  0  0  0  0  0  0  0
   -7.8312    2.3563    9.4428 H   0  0  0  0  0  0  0  0  0  0  0  0
   -6.5986    1.0496    9.4428 H   0  0  0  0  0  0  0  0  0  0  0  0
   -4.1975    3.4455   12.0966 H   0  0  0  0  0  0  0  0  0  0  0  0
   -3.2583    1.8929   13.8044 H   0  0  0  0  0  0  0  0  0  0  0  0
   -3.6800   -2.0480   12.8600 H   0  0  0  0  0  0  0  0  0  0  0  0
   -1.8054   -2.4120   15.1119 H   0  0  0  0  0  0  0  0  0  0  0  0
   -3.3509   -3.2816   14.8296 H   0  0  0  0  0  0  0  0  0  0  0  0
   -2.6480   -4.5268   13.5362 H   0  0  0  0  0  0  0  0  0  0  0  0
   -0.3333   -4.2550   11.8921 H   0  0  0  0  0  0  0  0  0  0  0  0
   -0.0794   -2.7915   12.3550 H   0  0  0  0  0  0  0  0  0  0  0  0
   -0.0286   -5.4393   14.1897 H   0  0  0  0  0  0  0  0  0  0  0  0
    0.2787   -4.1828   15.0544 H   0  0  0  0  0  0  0  0  0  0  0  0
   -2.5492   -1.0595   10.7230 H   0  0  0  0  0  0  0  0  0  0  0  0
   -3.4734    0.4986    9.0149 H   0  0  0  0  0  0  0  0  0  0  0  0
   -2.5160    3.8918    9.0464 H   0  0  0  0  0  0  0  0  0  0  0  0
  1  2  1  0
  2  3  2  0
  3  4  1  0
  4  5  2  0
  5  6  1  0
  6  7  2  0
  7  8  1  0
  8  9  2  0
  9 10  1  0
  9 11  1  0
 11 12  1  0
 12 13  2  0
 13 14  1  0
 14 15  2  0
 15 16  1  0
 16 17  2  0
 16 18  1  0
 18 19  1  0
 19 20  1  0
 20 21  1  0
 21 22  1  0
 15 23  1  0
 23 24  2  0
 11 25  2  0
  5 26  1  0
 26  2  1  0
 25  6  1  0
 24 12  1  0
 22 20  1  0
  1 27  1  0
  1 28  1  0
  1 29  1  0
  7 30  1  0
  8 31  1  0
 10 32  1  0
 10 33  1  0
 10 34  1  0
 13 35  1  0
 14 36  1  0
 18 37  1  0
 19 38  1  0
 19 39  1  0
 20 40  1  0
 21 41  1  0
 21 42  1  0
 22 43  1  0
 22 44  1  0
 23 45  1  0
 24 46  1  0
 25 47  1  0
M  END
>  <meeko>  (4) 
{"is_sidechain": [false], "free_energy": -7.324, "intermolecular_energy": -9.387, "internal_energy": -1.019}

$$$$
2zb1_ligand
     RDKit          3D

 47 50  0  0  0  0  0  0  0  0999 V2000
   -0.4350    6.1310    4.4370 C   0  0  0  0  0  0  0  0  0  0  0  0
   -1.4850    6.2820    5.4580 C   0  0  0  0  0  0  0  0  0  0  0  0
   -1.9690    7.3730    6.0110 N   0  0  0  0  0  0  0  0  0  0  0  0
   -2.9340    6.9560    6.9050 N   0  0  0  0  0  0  0  0  0  0  0  0
   -2.9720    5.6400    6.8350 C   0  0  0  0  0  0  0  0  0  0  0  0
   -3.8040    4.6860    7.5550 C   0  0  0  0  0  0  0  0  0  0  0  0
   -5.1980    4.8020    7.5980 C   0  0  0  0  0  0  0  0  0  0  0  0
   -5.9690    3.8720    8.3010 C   0  0  0  0  0  0  0  0  0  0  0  0
   -5.3650    2.8040    8.9830 C   0  0  0  0  0  0  0  0  0  0  0  0
   -6.2380    1.8260    9.7250 C   0  0  0  0  0  0  0  0  0  0  0  0
   -3.9610    2.6610    8.9410 C   0  0  0  0  0  0  0  0  0  0  0  0
   -3.2620    1.5570    9.6140 C   0  0  0  0  0  0  0  0  0  0  0  0
   -2.8000    1.7030   10.9310 C   0  0  0  0  0  0  0  0  0  0  0  0
   -2.1290    0.6580   11.5760 C   0  0  0  0  0  0  0  0  0  0  0  0
   -1.9040   -0.5490   10.9050 C   0  0  0  0  0  0  0  0  0  0  0  0
   -1.1990   -1.6910   11.5490 C   0  0  0  0  0  0  0  0  0  0  0  0
   -1.7600   -2.3370   12.4280 O   0  0  0  0  0  0  0  0  0  0  0  0
    0.0650   -1.9700   11.0730 N   0  0  0  0  0  0  0  0  0  0  0  0
    0.8060   -3.1240   11.5260 C   0  0  0  0  0  0  0  0  0  0  0  0
    0.8370   -4.1530   10.4390 C   0  0  0  0  0  0  0  0  0  0  0  0
    1.0420   -3.7400    9.0040 C   0  0  0  0  0  0  0  0  0  0  0  0
    2.1260   -4.4840    9.7320 C   0  0  0  0  0  0  0  0  0  0  0  0
   -2.3730   -0.7090    9.5970 C   0  0  0  0  0  0  0  0  0  0  0  0
   -3.0390    0.3390    8.9550 C   0  0  0  0  0  0  0  0  0  0  0  0
   -3.2040    3.6120    8.2280 C   0  0  0  0  0  0  0  0  0  0  0  0
   -2.0720    5.1390    5.9270 O   0  0  0  0  0  0  0  0  0  0  0  0
    0.5383    5.9910    4.9300 H   0  0  0  0  0  0  0  0  0  0  0  0
   -0.6573    5.2556    3.8091 H   0  0  0  0  0  0  0  0  0  0  0  0
   -0.4016    7.0336    3.8091 H   0  0  0  0  0  0  0  0  0  0  0  0
   -5.6918    5.6333    7.0734 H   0  0  0  0  0  0  0  0  0  0  0  0
   -7.0637    3.9784    8.3201 H   0  0  0  0  0  0  0  0  0  0  0  0
   -6.1103    1.9690   10.8082 H   0  0  0  0  0  0  0  0  0  0  0  0
   -7.2906    1.9955    9.4543 H   0  0  0  0  0  0  0  0  0  0  0  0
   -5.9506    0.7993    9.4543 H   0  0  0  0  0  0  0  0  0  0  0  0
   -2.9674    2.6510   11.4632 H   0  0  0  0  0  0  0  0  0  0  0  0
   -1.7784    0.7855   12.6108 H   0  0  0  0  0  0  0  0  0  0  0  0
    0.3720   -1.5300   10.2180 H   0  0  0  0  0  0  0  0  0  0  0  0
    1.8342   -2.8245   11.7773 H   0  0  0  0  0  0  0  0  0  0  0  0
    0.3197   -3.5461   12.4178 H   0  0  0  0  0  0  0  0  0  0  0  0
    0.0773   -4.7335   10.9830 H   0  0  0  0  0  0  0  0  0  0  0  0
    0.4764   -4.2377    8.2025 H   0  0  0  0  0  0  0  0  0  0  0  0
    0.9866   -2.7894    8.4532 H   0  0  0  0  0  0  0  0  0  0  0  0
    2.3536   -5.5261    9.4630 H   0  0  0  0  0  0  0  0  0  0  0  0
    3.1920   -4.3030    9.9342 H   0  0  0  0  0  0  0  0  0  0  0  0
   -2.2172   -1.6628    9.0717 H   0  0  0  0  0  0  0  0  0  0  0  0
   -3.3921    0.2071    7.9216 H   0  0  0  0  0  0  0  0  0  0  0  0
   -2.1093    3.5087    8.1985 H   0  0  0  0  0  0  0  0  0  0  0  0
  1  2  1  0
  2  3  2  0
  3  4  1  0
  4  5  2  0
  5  6  1  0
  6  7  2  0
  7  8  1  0
  8  9  2  0
  9 10  1  0
  9 11  1  0
 11 12  1  0
 12 13  2  0
 13 14  1  0
 14 15  2  0
 15 16  1  0
 16 17  2  0
 16 18  1  0
 18 19  1  0
 19 20  1  0
 20 21  1  0
 21 22  1  0
 15 23  1  0
 23 24  2  0
 11 25  2  0
  5 26  1  0
 26  2  1  0
 25  6  1  0
 24 12  1  0
 22 20  1  0
  1 27  1  0
  1 28  1  0
  1 29  1  0
  7 30  1  0
  8 31  1  0
 10 32  1  0
 10 33  1  0
 10 34  1  0
 13 35  1  0
 14 36  1  0
 18 37  1  0
 19 38  1  0
 19 39  1  0
 20 40  1  0
 21 41  1  0
 21 42  1  0
 22 43  1  0
 22 44  1  0
 23 45  1  0
 24 46  1  0
 25 47  1  0
M  END
>  <meeko>  (5) 
{"is_sidechain": [false], "free_energy": -7.123, "intermolecular_energy": -9.137, "internal_energy": -1.01}

$$$$
2zb1_ligand
     RDKit          3D

 47 50  0  0  0  0  0  0  0  0999 V2000
   -6.4120    4.1330    8.0450 C   0  0  0  0  0  0  0  0  0  0  0  0
   -6.2300    3.6630    9.4280 C   0  0  0  0  0  0  0  0  0  0  0  0
   -7.1120    3.5280   10.3930 N   0  0  0  0  0  0  0  0  0  0  0  0
   -6.4180    3.0510   11.4870 N   0  0  0  0  0  0  0  0  0  0  0  0
   -5.1600    2.9270   11.1110 C   0  0  0  0  0  0  0  0  0  0  0  0
   -3.9990    2.4660   11.8600 C   0  0  0  0  0  0  0  0  0  0  0  0
   -4.1060    1.9700   13.1640 C   0  0  0  0  0  0  0  0  0  0  0  0
   -2.9720    1.5380   13.8580 C   0  0  0  0  0  0  0  0  0  0  0  0
   -1.7000    1.5970   13.2660 C   0  0  0  0  0  0  0  0  0  0  0  0
   -0.5090    1.1180   14.0540 C   0  0  0  0  0  0  0  0  0  0  0  0
   -1.5720    2.0810   11.9480 C   0  0  0  0  0  0  0  0  0  0  0  0
   -0.2750    2.1530   11.2580 C   0  0  0  0  0  0  0  0  0  0  0  0
    0.3660    3.3870   11.0700 C   0  0  0  0  0  0  0  0  0  0  0  0
    1.5980    3.4620   10.4100 C   0  0  0  0  0  0  0  0  0  0  0  0
    2.2020    2.2990    9.9210 C   0  0  0  0  0  0  0  0  0  0  0  0
    3.5130    2.3270    9.2160 C   0  0  0  0  0  0  0  0  0  0  0  0
    4.5430    2.0800    9.8340 O   0  0  0  0  0  0  0  0  0  0  0  0
    3.4700    2.6070    7.8660 N   0  0  0  0  0  0  0  0  0  0  0  0
    4.6540    2.5450    7.0420 C   0  0  0  0  0  0  0  0  0  0  0  0
    4.7310    3.7710    6.1880 C   0  0  0  0  0  0  0  0  0  0  0  0
    3.8410    4.9540    6.4710 C   0  0  0  0  0  0  0  0  0  0  0  0
    5.3180    5.0490    6.7300 C   0  0  0  0  0  0  0  0  0  0  0  0
    1.5770    1.0620   10.1150 C   0  0  0  0  0  0  0  0  0  0  0  0
    0.3450    0.9920   10.7720 C   0  0  0  0  0  0  0  0  0  0  0  0
   -2.7280    2.5130   11.2680 C   0  0  0  0  0  0  0  0  0  0  0  0
   -4.9660    3.2990    9.8040 O   0  0  0  0  0  0  0  0  0  0  0  0
   -6.8092    5.1587    8.0556 H   0  0  0  0  0  0  0  0  0  0  0  0
   -5.4439    4.1201    7.5229 H   0  0  0  0  0  0  0  0  0  0  0  0
   -7.1189    3.4714    7.5229 H   0  0  0  0  0  0  0  0  0  0  0  0
   -5.0925    1.9195   13.6480 H   0  0  0  0  0  0  0  0  0  0  0  0
   -3.0774    1.1469   14.8807 H   0  0  0  0  0  0  0  0  0  0  0  0
   -0.7224    1.2038   15.1297 H   0  0  0  0  0  0  0  0  0  0  0  0
   -0.3025    0.0669   13.8039 H   0  0  0  0  0  0  0  0  0  0  0  0
    0.3677    1.7335   13.8039 H   0  0  0  0  0  0  0  0  0  0  0  0
   -0.1056    4.3069   11.4460 H   0  0  0  0  0  0  0  0  0  0  0  0
    2.0914    4.4359   10.2758 H   0  0  0  0  0  0  0  0  0  0  0  0
    2.5780    2.5940    7.3940 H   0  0  0  0  0  0  0  0  0  0  0  0
    5.5453    2.4887    7.6842 H   0  0  0  0  0  0  0  0  0  0  0  0
    4.6081    1.6529    6.4001 H   0  0  0  0  0  0  0  0  0  0  0  0
    4.9286    3.1345    5.3129 H   0  0  0  0  0  0  0  0  0  0  0  0
    3.3916    5.5154    5.6386 H   0  0  0  0  0  0  0  0  0  0  0  0
    2.9344    5.1184    7.0719 H   0  0  0  0  0  0  0  0  0  0  0  0
    5.9494    5.6799    6.0871 H   0  0  0  0  0  0  0  0  0  0  0  0
    5.9394    5.3117    7.5988 H   0  0  0  0  0  0  0  0  0  0  0  0
    2.0566    0.1420    9.7494 H   0  0  0  0  0  0  0  0  0  0  0  0
   -0.1436    0.0161   10.9094 H   0  0  0  0  0  0  0  0  0  0  0  0
   -2.6310    2.8986   10.2424 H   0  0  0  0  0  0  0  0  0  0  0  0
  1  2  1  0
  2  3  2  0
  3  4  1  0
  4  5  2  0
  5  6  1  0
  6  7  2  0
  7  8  1  0
  8  9  2  0
  9 10  1  0
  9 11  1  0
 11 12  1  0
 12 13  2  0
 13 14  1  0
 14 15  2  0
 15 16  1  0
 16 17  2  0
 16 18  1  0
 18 19  1  0
 19 20  1  0
 20 21  1  0
 21 22  1  0
 15 23  1  0
 23 24  2  0
 11 25  2  0
  5 26  1  0
 26  2  1  0
 25  6  1  0
 24 12  1  0
 22 20  1  0
  1 27  1  0
  1 28  1  0
  1 29  1  0
  7 30  1  0
  8 31  1  0
 10 32  1  0
 10 33  1  0
 10 34  1  0
 13 35  1  0
 14 36  1  0
 18 37  1  0
 19 38  1  0
 19 39  1  0
 20 40  1  0
 21 41  1  0
 21 42  1  0
 22 43  1  0
 22 44  1  0
 23 45  1  0
 24 46  1  0
 25 47  1  0
M  END
>  <meeko>  (6) 
{"is_sidechain": [false], "free_energy": -7.109, "intermolecular_energy": -9.348, "internal_energy": -0.78}

$$$$
2zb1_ligand
     RDKit          3D

 47 50  0  0  0  0  0  0  0  0999 V2000
   -1.3530    7.8970    7.1200 C   0  0  0  0  0  0  0  0  0  0  0  0
   -2.0730    6.6530    6.8050 C   0  0  0  0  0  0  0  0  0  0  0  0
   -2.0200    5.8990    5.7290 N   0  0  0  0  0  0  0  0  0  0  0  0
   -2.8940    4.8530    5.9470 N   0  0  0  0  0  0  0  0  0  0  0  0
   -3.4180    5.0410    7.1430 C   0  0  0  0  0  0  0  0  0  0  0  0
   -4.3930    4.2440    7.8750 C   0  0  0  0  0  0  0  0  0  0  0  0
   -5.7600    4.5430    7.8560 C   0  0  0  0  0  0  0  0  0  0  0  0
   -6.6710    3.7620    8.5730 C   0  0  0  0  0  0  0  0  0  0  0  0
   -6.2360    2.6630    9.3310 C   0  0  0  0  0  0  0  0  0  0  0  0
   -7.2550    1.8490   10.0840 C   0  0  0  0  0  0  0  0  0  0  0  0
   -4.8630    2.3360    9.3530 C   0  0  0  0  0  0  0  0  0  0  0  0
   -4.3390    1.1890   10.1080 C   0  0  0  0  0  0  0  0  0  0  0  0
   -3.8730    1.3520   11.4220 C   0  0  0  0  0  0  0  0  0  0  0  0
   -3.3680    0.2660   12.1450 C   0  0  0  0  0  0  0  0  0  0  0  0
   -3.3150   -1.0030   11.5560 C   0  0  0  0  0  0  0  0  0  0  0  0
   -2.7910   -2.1900   12.2850 C   0  0  0  0  0  0  0  0  0  0  0  0
   -3.1780   -2.4260   13.4240 O   0  0  0  0  0  0  0  0  0  0  0  0
   -1.9010   -2.9830   11.5910 N   0  0  0  0  0  0  0  0  0  0  0  0
   -1.4130   -4.2280   12.1360 C   0  0  0  0  0  0  0  0  0  0  0  0
   -2.2420   -5.3590   11.6130 C   0  0  0  0  0  0  0  0  0  0  0  0
   -1.7570   -6.7810   11.7400 C   0  0  0  0  0  0  0  0  0  0  0  0
   -2.9260   -6.3110   12.5610 C   0  0  0  0  0  0  0  0  0  0  0  0
   -3.7900   -1.1780   10.2520 C   0  0  0  0  0  0  0  0  0  0  0  0
   -4.2900   -0.0890    9.5320 C   0  0  0  0  0  0  0  0  0  0  0  0
   -3.9630    3.1400    8.6250 C   0  0  0  0  0  0  0  0  0  0  0  0
   -2.9380    6.1740    7.7510 O   0  0  0  0  0  0  0  0  0  0  0  0
   -1.2848    8.0148    8.2115 H   0  0  0  0  0  0  0  0  0  0  0  0
   -0.3406    7.8532    6.6920 H   0  0  0  0  0  0  0  0  0  0  0  0
   -1.8953    8.7530    6.6920 H   0  0  0  0  0  0  0  0  0  0  0  0
   -6.1213    5.4015    7.2708 H   0  0  0  0  0  0  0  0  0  0  0  0
   -7.7419    4.0115    8.5430 H   0  0  0  0  0  0  0  0  0  0  0  0
   -7.0979    1.9745   11.1655 H   0  0  0  0  0  0  0  0  0  0  0  0
   -8.2662    2.1907    9.8183 H   0  0  0  0  0  0  0  0  0  0  0  0
   -7.1451    0.7873    9.8183 H   0  0  0  0  0  0  0  0  0  0  0  0
   -3.9053    2.3471   11.8896 H   0  0  0  0  0  0  0  0  0  0  0  0
   -3.0126    0.4091   13.1761 H   0  0  0  0  0  0  0  0  0  0  0  0
   -1.7920   -2.8400   10.5980 H   0  0  0  0  0  0  0  0  0  0  0  0
   -0.3643   -4.3732   11.8375 H   0  0  0  0  0  0  0  0  0  0  0  0
   -1.4807   -4.2000   13.2336 H   0  0  0  0  0  0  0  0  0  0  0  0
   -2.5720   -4.7184   10.7819 H   0  0  0  0  0  0  0  0  0  0  0  0
   -1.9147   -7.4914   10.9151 H   0  0  0  0  0  0  0  0  0  0  0  0
   -0.7903   -7.2555   11.9642 H   0  0  0  0  0  0  0  0  0  0  0  0
   -3.9384   -6.6778   12.3364 H   0  0  0  0  0  0  0  0  0  0  0  0
   -3.1678   -6.2997   13.6340 H   0  0  0  0  0  0  0  0  0  0  0  0
   -3.7700   -2.1766    9.7912 H   0  0  0  0  0  0  0  0  0  0  0  0
   -4.6489   -0.2359    8.5026 H   0  0  0  0  0  0  0  0  0  0  0  0
   -2.8910    2.8941    8.6458 H   0  0  0  0  0  0  0  0  0  0  0  0
  1  2  1  0
  2  3  2  0
  3  4  1  0
  4  5  2  0
  5  6  1  0
  6  7  2  0
  7  8  1  0
  8  9  2  0
  9 10  1  0
  9 11  1  0
 11 12  1  0
 12 13  2  0
 13 14  1  0
 14 15  2  0
 15 16  1  0
 16 17  2  0
 16 18  1  0
 18 19  1  0
 19 20  1  0
 20 21  1  0
 21 22  1  0
 15 23  1  0
 23 24  2  0
 11 25  2  0
  5 26  1  0
 26  2  1  0
 25  6  1  0
 24 12  1  0
 22 20  1  0
  1 27  1  0
  1 28  1  0
  1 29  1  0
  7 30  1  0
  8 31  1  0
 10 32  1  0
 10 33  1  0
 10 34  1  0
 13 35  1  0
 14 36  1  0
 18 37  1  0
 19 38  1  0
 19 39  1  0
 20 40  1  0
 21 41  1  0
 21 42  1  0
 22 43  1  0
 22 44  1  0
 23 45  1  0
 24 46  1  0
 25 47  1  0
M  END
>  <meeko>  (7) 
{"is_sidechain": [false], "free_energy": -7.077, "intermolecular_energy": -9.086, "internal_energy": -1.001}

$$$$
2zb1_ligand
     RDKit          3D

 47 50  0  0  0  0  0  0  0  0999 V2000
   -8.6540   -3.0010   12.2990 C   0  0  0  0  0  0  0  0  0  0  0  0
   -7.9050   -1.9220   11.6360 C   0  0  0  0  0  0  0  0  0  0  0  0
   -8.2790   -1.1040   10.6760 N   0  0  0  0  0  0  0  0  0  0  0  0
   -7.1960   -0.2870   10.4220 N   0  0  0  0  0  0  0  0  0  0  0  0
   -6.2370   -0.6630   11.2450 C   0  0  0  0  0  0  0  0  0  0  0  0
   -4.8850   -0.1450   11.4080 C   0  0  0  0  0  0  0  0  0  0  0  0
   -3.9740   -0.7190   12.3010 C   0  0  0  0  0  0  0  0  0  0  0  0
   -2.6850   -0.1960   12.4390 C   0  0  0  0  0  0  0  0  0  0  0  0
   -2.2760    0.9180   11.6880 C   0  0  0  0  0  0  0  0  0  0  0  0
   -0.8760    1.4440   11.8690 C   0  0  0  0  0  0  0  0  0  0  0  0
   -3.1750    1.5030   10.7720 C   0  0  0  0  0  0  0  0  0  0  0  0
   -2.8100    2.6590    9.9390 C   0  0  0  0  0  0  0  0  0  0  0  0
   -2.8290    2.5640    8.5390 C   0  0  0  0  0  0  0  0  0  0  0  0
   -2.4770    3.6590    7.7410 C   0  0  0  0  0  0  0  0  0  0  0  0
   -2.0910    4.8640    8.3370 C   0  0  0  0  0  0  0  0  0  0  0  0
   -1.7120    6.0570    7.5320 C   0  0  0  0  0  0  0  0  0  0  0  0
   -2.1910    7.1530    7.8020 O   0  0  0  0  0  0  0  0  0  0  0  0
   -0.7960    5.8420    6.5240 N   0  0  0  0  0  0  0  0  0  0  0  0
   -0.2520    6.9330    5.7500 C   0  0  0  0  0  0  0  0  0  0  0  0
    0.4350    6.3880    4.5370 C   0  0  0  0  0  0  0  0  0  0  0  0
    1.3330    7.2710    3.7090 C   0  0  0  0  0  0  0  0  0  0  0  0
    1.9260    6.1640    4.5350 C   0  0  0  0  0  0  0  0  0  0  0  0
   -2.0810    4.9730    9.7320 C   0  0  0  0  0  0  0  0  0  0  0  0
   -2.4310    3.8760   10.5250 C   0  0  0  0  0  0  0  0  0  0  0  0
   -4.4710    0.9620   10.6520 C   0  0  0  0  0  0  0  0  0  0  0  0
   -6.6200   -1.7050   12.0520 O   0  0  0  0  0  0  0  0  0  0  0  0
   -8.5742   -2.8860   13.3901 H   0  0  0  0  0  0  0  0  0  0  0  0
   -9.7117   -2.9497   12.0013 H   0  0  0  0  0  0  0  0  0  0  0  0
   -8.2361   -3.9740   12.0013 H   0  0  0  0  0  0  0  0  0  0  0  0
   -4.2750   -1.5907   12.9006 H   0  0  0  0  0  0  0  0  0  0  0  0
   -1.9822   -0.6629   13.1447 H   0  0  0  0  0  0  0  0  0  0  0  0
   -0.6519    1.5282   12.9426 H   0  0  0  0  0  0  0  0  0  0  0  0
   -0.1610    0.7532   11.3983 H   0  0  0  0  0  0  0  0  0  0  0  0
   -0.7928    2.4347   11.3983 H   0  0  0  0  0  0  0  0  0  0  0  0
   -3.1241    1.6174    8.0628 H   0  0  0  0  0  0  0  0  0  0  0  0
   -2.5040    3.5717    6.6448 H   0  0  0  0  0  0  0  0  0  0  0  0
   -0.2980    4.9640    6.4970 H   0  0  0  0  0  0  0  0  0  0  0  0
   -1.0661    7.6047    5.4400 H   0  0  0  0  0  0  0  0  0  0  0  0
    0.4712    7.4926    6.3615 H   0  0  0  0  0  0  0  0  0  0  0  0
   -0.4457    5.7610    4.3338 H   0  0  0  0  0  0  0  0  0  0  0  0
    1.3212    7.1924    2.6119 H   0  0  0  0  0  0  0  0  0  0  0  0
    1.4980    8.3557    3.6300 H   0  0  0  0  0  0  0  0  0  0  0  0
    2.3478    5.2757    4.0421 H   0  0  0  0  0  0  0  0  0  0  0  0
    2.7041    6.1037    5.3102 H   0  0  0  0  0  0  0  0  0  0  0  0
   -1.7970    5.9242   10.2059 H   0  0  0  0  0  0  0  0  0  0  0  0
   -2.4089    3.9682   11.6209 H   0  0  0  0  0  0  0  0  0  0  0  0
   -5.1781    1.4209    9.9453 H   0  0  0  0  0  0  0  0  0  0  0  0
  1  2  1  0
  2  3  2  0
  3  4  1  0
  4  5  2  0
  5  6  1  0
  6  7  2  0
  7  8  1  0
  8  9  2  0
  9 10  1  0
  9 11  1  0
 11 12  1  0
 12 13  2  0
 13 14  1  0
 14 15  2  0
 15 16  1  0
 16 17  2  0
 16 18  1  0
 18 19  1  0
 19 20  1  0
 20 21  1  0
 21 22  1  0
 15 23  1  0
 23 24  2  0
 11 25  2  0
  5 26  1  0
 26  2  1  0
 25  6  1  0
 24 12  1  0
 22 20  1  0
  1 27  1  0
  1 28  1  0
  1 29  1  0
  7 30  1  0
  8 31  1  0
 10 32  1  0
 10 33  1  0
 10 34  1  0
 13 35  1  0
 14 36  1  0
 18 37  1  0
 19 38  1  0
 19 39  1  0
 20 40  1  0
 21 41  1  0
 21 42  1  0
 22 43  1  0
 22 44  1  0
 23 45  1  0
 24 46  1  0
 25 47  1  0
M  END
>  <meeko>  (8) 
{"is_sidechain": [false], "free_energy": -6.94, "intermolecular_energy": -9.361, "internal_energy": -0.549}

$$$$
2zb1_ligand
     RDKit          3D

 47 50  0  0  0  0  0  0  0  0999 V2000
    5.2030   -5.9330   10.8690 C   0  0  0  0  0  0  0  0  0  0  0  0
    5.7370   -4.5630   10.9030 C   0  0  0  0  0  0  0  0  0  0  0  0
    6.8530   -4.0820   10.3990 N   0  0  0  0  0  0  0  0  0  0  0  0
    6.8710   -2.7380   10.7140 N   0  0  0  0  0  0  0  0  0  0  0  0
    5.7650   -2.4930   11.3890 C   0  0  0  0  0  0  0  0  0  0  0  0
    5.2730   -1.2470   11.9620 C   0  0  0  0  0  0  0  0  0  0  0  0
    5.9820   -0.5530   12.9480 C   0  0  0  0  0  0  0  0  0  0  0  0
    5.4810    0.6370   13.4820 C   0  0  0  0  0  0  0  0  0  0  0  0
    4.2550    1.1620   13.0450 C   0  0  0  0  0  0  0  0  0  0  0  0
    3.7570    2.4500   13.6480 C   0  0  0  0  0  0  0  0  0  0  0  0
    3.5300    0.4850   12.0410 C   0  0  0  0  0  0  0  0  0  0  0  0
    2.2490    0.9860   11.5220 C   0  0  0  0  0  0  0  0  0  0  0  0
    1.0360    0.4290   11.9560 C   0  0  0  0  0  0  0  0  0  0  0  0
   -0.1870    0.8980   11.4620 C   0  0  0  0  0  0  0  0  0  0  0  0
   -0.2100    1.9290   10.5150 C   0  0  0  0  0  0  0  0  0  0  0  0
   -1.4840    2.4640    9.9630 C   0  0  0  0  0  0  0  0  0  0  0  0
   -2.2660    3.0580   10.6970 O   0  0  0  0  0  0  0  0  0  0  0  0
   -1.6860    2.2740    8.6120 N   0  0  0  0  0  0  0  0  0  0  0  0
   -2.8210    2.8490    7.9280 C   0  0  0  0  0  0  0  0  0  0  0  0
   -2.4480    4.1960    7.3930 C   0  0  0  0  0  0  0  0  0  0  0  0
   -2.8900    4.6180    6.0150 C   0  0  0  0  0  0  0  0  0  0  0  0
   -3.4920    5.2720    7.2280 C   0  0  0  0  0  0  0  0  0  0  0  0
    0.9930    2.4990   10.0860 C   0  0  0  0  0  0  0  0  0  0  0  0
    2.2120    2.0250   10.5800 C   0  0  0  0  0  0  0  0  0  0  0  0
    4.0520   -0.7150   11.5200 C   0  0  0  0  0  0  0  0  0  0  0  0
    4.9900   -3.6150   11.5470 O   0  0  0  0  0  0  0  0  0  0  0  0
    5.0612   -6.2969   11.8973 H   0  0  0  0  0  0  0  0  0  0  0  0
    4.2374   -5.9372   10.3421 H   0  0  0  0  0  0  0  0  0  0  0  0
    5.9110   -6.5896   10.3421 H   0  0  0  0  0  0  0  0  0  0  0  0
    6.9439   -0.9481   13.3067 H   0  0  0  0  0  0  0  0  0  0  0  0
    6.0549    1.1692   14.2549 H   0  0  0  0  0  0  0  0  0  0  0  0
    3.7855    2.3763   14.7452 H   0  0  0  0  0  0  0  0  0  0  0  0
    4.3987    3.2809   13.3195 H   0  0  0  0  0  0  0  0  0  0  0  0
    2.7233    2.6331   13.3195 H   0  0  0  0  0  0  0  0  0  0  0  0
    1.0465   -0.3867   12.6939 H   0  0  0  0  0  0  0  0  0  0  0  0
   -1.1297    0.4566   11.8177 H   0  0  0  0  0  0  0  0  0  0  0  0
   -0.9140    1.9620    8.0420 H   0  0  0  0  0  0  0  0  0  0  0  0
   -3.1193    2.1935    7.0965 H   0  0  0  0  0  0  0  0  0  0  0  0
   -3.6605    2.9522    8.6313 H   0  0  0  0  0  0  0  0  0  0  0  0
   -1.4820    4.1230    7.9141 H   0  0  0  0  0  0  0  0  0  0  0  0
   -2.2050    5.1852    5.3677 H   0  0  0  0  0  0  0  0  0  0  0  0
   -3.2913    4.0961    5.1338 H   0  0  0  0  0  0  0  0  0  0  0  0
   -3.2470    6.3172    7.4677 H   0  0  0  0  0  0  0  0  0  0  0  0
   -4.5153    5.4261    7.6009 H   0  0  0  0  0  0  0  0  0  0  0  0
    0.9800    3.3230    9.3574 H   0  0  0  0  0  0  0  0  0  0  0  0
    3.1528    2.4718   10.2261 H   0  0  0  0  0  0  0  0  0  0  0  0
    3.4859   -1.2509   10.7439 H   0  0  0  0  0  0  0  0  0  0  0  0
  1  2  1  0
  2  3  2  0
  3  4  1  0
  4  5  2  0
  5  6  1  0
  6  7  2  0
  7  8  1  0
  8  9  2  0
  9 10  1  0
  9 11  1  0
 11 12  1  0
 12 13  2  0
 13 14  1  0
 14 15  2  0
 15 16  1  0
 16 17  2  0
 16 18  1  0
 18 19  1  0
 19 20  1  0
 20 21  1  0
 21 22  1  0
 15 23  1  0
 23 24  2  0
 11 25  2  0
  5 26  1  0
 26  2  1  0
 25  6  1  0
 24 12  1  0
 22 20  1  0
  1 27  1  0
  1 28  1  0
  1 29  1  0
  7 30  1  0
  8 31  1  0
 10 32  1  0
 10 33  1  0
 10 34  1  0
 13 35  1  0
 14 36  1  0
 18 37  1  0
 19 38  1  0
 19 39  1  0
 20 40  1  0
 21 41  1  0
 21 42  1  0
 22 43  1  0
 22 44  1  0
 23 45  1  0
 24 46  1  0
 25 47  1  0
M  END
>  <meeko>  (9) 
{"is_sidechain": [false], "free_energy": -6.805, "intermolecular_energy": -8.81, "internal_energy": -0.925}

$$$$
