4djv_ligand
     RDKit          3D

 50 53  0  0  0  0  0  0  0  0999 V2000
   -1.2800    5.5090   -9.4580 C   0  0  0  0  0  0  0  0  0  0  0  0
   -1.6000    4.3210  -10.1730 O   0  0  0  0  0  0  0  0  0  0  0  0
   -0.5550    3.6270  -10.7190 C   0  0  0  0  0  0  0  0  0  0  0  0
   -0.3360    3.4110  -12.0780 C   0  0  0  0  0  0  0  0  0  0  0  0
    0.7780    2.6810  -12.4960 C   0  0  0  0  0  0  0  0  0  0  0  0
    1.6760    2.1650  -11.5580 C   0  0  0  0  0  0  0  0  0  0  0  0
    1.4760    2.3690  -10.1850 C   0  0  0  0  0  0  0  0  0  0  0  0
    2.4170    1.8300   -9.1900 C   0  0  0  0  0  0  0  0  0  0  0  0
    2.0310    0.8130   -8.3070 C   0  0  0  0  0  0  0  0  0  0  0  0
    2.9220    0.3070   -7.3630 C   0  0  0  0  0  0  0  0  0  0  0  0
    4.2200    0.8090   -7.2780 C   0  0  0  0  0  0  0  0  0  0  0  0
    4.6470    1.8330   -8.1390 C   0  0  0  0  0  0  0  0  0  0  0  0
    6.0560    2.4140   -8.1000 C   0  0  1  0  0  0  0  0  0  0  0  0
    7.1720    1.4330   -8.4470 C   0  0  0  0  0  0  0  0  0  0  0  0
    6.9360    0.2160   -9.1080 C   0  0  0  0  0  0  0  0  0  0  0  0
    7.9860   -0.6670   -9.3790 C   0  0  0  0  0  0  0  0  0  0  0  0
    9.2860   -0.3520   -8.9970 C   0  0  0  0  0  0  0  0  0  0  0  0
    9.5440    0.8490   -8.3450 C   0  0  0  0  0  0  0  0  0  0  0  0
    8.4990    1.7320   -8.0710 C   0  0  0  0  0  0  0  0  0  0  0  0
    6.1920    3.5300   -9.0870 N   0  0  0  0  0  0  0  0  0  0  0  0
    6.4400    4.7050   -8.4640 C   0  0  0  0  0  0  0  0  0  0  0  0
    6.6250    5.8340   -9.1470 N   0  0  0  0  0  0  0  0  0  0  0  0
    6.4780    4.5890   -7.1360 N   0  0  0  0  0  0  0  0  0  0  0  0
    6.7000    5.6070   -6.1220 C   0  0  0  0  0  0  0  0  0  0  0  0
    6.2630    3.2250   -6.7650 C   0  0  0  0  0  0  0  0  0  0  0  0
    6.2660    2.8300   -5.6140 O   0  0  0  0  0  0  0  0  0  0  0  0
    3.7290    2.3250   -9.0920 C   0  0  0  0  0  0  0  0  0  0  0  0
    0.3480    3.1060   -9.7860 C   0  0  0  0  0  0  0  0  0  0  0  0
   -1.3331    5.3119   -8.3771 H   0  0  0  0  0  0  0  0  0  0  0  0
   -0.2625    5.8331   -9.7221 H   0  0  0  0  0  0  0  0  0  0  0  0
   -1.9970    6.3003   -9.7221 H   0  0  0  0  0  0  0  0  0  0  0  0
   -1.0399    3.8151  -12.8204 H   0  0  0  0  0  0  0  0  0  0  0  0
    0.9498    2.5111  -13.5691 H   0  0  0  0  0  0  0  0  0  0  0  0
    2.5502    1.5920  -11.9006 H   0  0  0  0  0  0  0  0  0  0  0  0
    1.0096    0.4081   -8.3598 H   0  0  0  0  0  0  0  0  0  0  0  0
    2.5995   -0.4933   -6.6807 H   0  0  0  0  0  0  0  0  0  0  0  0
    4.9153    0.3996   -6.5304 H   0  0  0  0  0  0  0  0  0  0  0  0
    5.9129   -0.0455   -9.4161 H   0  0  0  0  0  0  0  0  0  0  0  0
    7.7828   -1.6159   -9.8971 H   0  0  0  0  0  0  0  0  0  0  0  0
   10.1080   -1.0512   -9.2101 H   0  0  0  0  0  0  0  0  0  0  0  0
   10.5716    1.1027   -8.0454 H   0  0  0  0  0  0  0  0  0  0  0  0
    8.7133    2.6782   -7.5526 H   0  0  0  0  0  0  0  0  0  0  0  0
    6.2400    3.4010  -10.0870 H   0  0  0  0  0  0  0  0  0  0  0  0
    6.8160    6.7110   -8.6760 H   0  0  0  0  0  0  0  0  0  0  0  0
    6.5850    5.8590  -10.1590 H   0  0  0  0  0  0  0  0  0  0  0  0
    6.6019    5.1570   -5.1230 H   0  0  0  0  0  0  0  0  0  0  0  0
    7.7106    6.0257   -6.2379 H   0  0  0  0  0  0  0  0  0  0  0  0
    5.9555    6.4085   -6.2379 H   0  0  0  0  0  0  0  0  0  0  0  0
    4.0506    3.1210   -9.7797 H   0  0  0  0  0  0  0  0  0  0  0  0
    0.1707    3.2774   -8.7140 H   0  0  0  0  0  0  0  0  0  0  0  0
  1  2  1  0
  2  3  1  0
  3  4  2  0
  4  5  1  0
  5  6  2  0
  6  7  1  0
  7  8  1  0
  8  9  2  0
  9 10  1  0
 10 11  2  0
 11 12  1  0
 13 12  1  1
 13 14  1  0
 14 15  2  0
 15 16  1  0
 16 17  2  0
 17 18  1  0
 18 19  2  0
 13 20  1  0
 20 21  1  0
 21 22  2  0
 21 23  1  0
 23 24  1  0
 23 25  1  0
 25 26  2  0
 12 27  2  0
  7 28  2  0
 28  3  1  0
 27  8  1  0
 25 13  1  0
 19 14  1  0
  1 29  1  0
  1 30  1  0
  1 31  1  0
  4 32  1  0
  5 33  1  0
  6 34  1  0
  9 35  1  0
 10 36  1  0
 11 37  1  0
 15 38  1  0
 16 39  1  0
 17 40  1  0
 18 41  1  0
 19 42  1  0
 20 43  1  0
 22 44  1  0
 22 45  1  0
 24 46  1  0
 24 47  1  0
 24 48  1  0
 27 49  1  0
 28 50  1  0
M  CHG  1  22   1
M  END
>  <meeko>  (1) 
{"is_sidechain": [false], "free_energy": -9.321, "intermolecular_energy": -11.501, "internal_energy": -1.16}

$$$$
4djv_ligand
     RDKit          3D

 50 53  0  0  0  0  0  0  0  0999 V2000
    1.8110    3.6650  -14.6320 C   0  0  0  0  0  0  0  0  0  0  0  0
    1.4050    2.5140  -13.8980 O   0  0  0  0  0  0  0  0  0  0  0  0
    0.9740    2.7170  -12.6160 C   0  0  0  0  0  0  0  0  0  0  0  0
   -0.2040    3.3580  -12.2390 C   0  0  0  0  0  0  0  0  0  0  0  0
   -0.5210    3.4950  -10.8860 C   0  0  0  0  0  0  0  0  0  0  0  0
    0.3380    2.9920   -9.9070 C   0  0  0  0  0  0  0  0  0  0  0  0
    1.5310    2.3440  -10.2610 C   0  0  0  0  0  0  0  0  0  0  0  0
    2.4430    1.8110   -9.2360 C   0  0  0  0  0  0  0  0  0  0  0  0
    2.0220    0.8180   -8.3420 C   0  0  0  0  0  0  0  0  0  0  0  0
    2.8850    0.3160   -7.3690 C   0  0  0  0  0  0  0  0  0  0  0  0
    4.1890    0.8000   -7.2670 C   0  0  0  0  0  0  0  0  0  0  0  0
    4.6500    1.8000   -8.1380 C   0  0  0  0  0  0  0  0  0  0  0  0
    6.0670    2.3600   -8.0800 C   0  0  1  0  0  0  0  0  0  0  0  0
    7.1730    1.3610   -8.4100 C   0  0  0  0  0  0  0  0  0  0  0  0
    8.5190    1.5780   -8.0710 C   0  0  0  0  0  0  0  0  0  0  0  0
    9.5040    0.6490   -8.4190 C   0  0  0  0  0  0  0  0  0  0  0  0
    9.1640   -0.5100   -9.1110 C   0  0  0  0  0  0  0  0  0  0  0  0
    7.8370   -0.7470   -9.4540 C   0  0  0  0  0  0  0  0  0  0  0  0
    6.8520    0.1790   -9.1090 C   0  0  0  0  0  0  0  0  0  0  0  0
    6.2330    3.4720   -9.0670 N   0  0  0  0  0  0  0  0  0  0  0  0
    6.4910    4.6440   -8.4410 C   0  0  0  0  0  0  0  0  0  0  0  0
    6.7020    5.7690   -9.1240 N   0  0  0  0  0  0  0  0  0  0  0  0
    6.5080    4.5300   -7.1130 N   0  0  0  0  0  0  0  0  0  0  0  0
    6.7320    5.5460   -6.0970 C   0  0  0  0  0  0  0  0  0  0  0  0
    6.2670    3.1690   -6.7430 C   0  0  0  0  0  0  0  0  0  0  0  0
    6.2480    2.7760   -5.5920 O   0  0  0  0  0  0  0  0  0  0  0  0
    3.7600    2.2870   -9.1200 C   0  0  0  0  0  0  0  0  0  0  0  0
    1.8300    2.2170  -11.6280 C   0  0  0  0  0  0  0  0  0  0  0  0
    2.0933    4.4654  -13.9322 H   0  0  0  0  0  0  0  0  0  0  0  0
    2.6736    3.4105  -15.2653 H   0  0  0  0  0  0  0  0  0  0  0  0
    0.9796    4.0081  -15.2653 H   0  0  0  0  0  0  0  0  0  0  0  0
   -0.8840    3.7560  -13.0066 H   0  0  0  0  0  0  0  0  0  0  0  0
   -1.4516    4.0014  -10.5902 H   0  0  0  0  0  0  0  0  0  0  0  0
    0.0761    3.1052   -8.8446 H   0  0  0  0  0  0  0  0  0  0  0  0
    0.9954    0.4287   -8.4087 H   0  0  0  0  0  0  0  0  0  0  0  0
    2.5357   -0.4657   -6.6783 H   0  0  0  0  0  0  0  0  0  0  0  0
    4.8623    0.3947   -6.4973 H   0  0  0  0  0  0  0  0  0  0  0  0
    8.8014    2.4902   -7.5250 H   0  0  0  0  0  0  0  0  0  0  0  0
   10.5529    0.8348   -8.1446 H   0  0  0  0  0  0  0  0  0  0  0  0
    9.9428   -1.2366   -9.3859 H   0  0  0  0  0  0  0  0  0  0  0  0
    7.5643   -1.6640   -9.9969 H   0  0  0  0  0  0  0  0  0  0  0  0
    5.8059   -0.0165   -9.3873 H   0  0  0  0  0  0  0  0  0  0  0  0
    6.2930    3.3410  -10.0650 H   0  0  0  0  0  0  0  0  0  0  0  0
    6.9000    6.6440   -8.6510 H   0  0  0  0  0  0  0  0  0  0  0  0
    6.6770    5.7930  -10.1360 H   0  0  0  0  0  0  0  0  0  0  0  0
    6.6325    5.0946   -5.0988 H   0  0  0  0  0  0  0  0  0  0  0  0
    7.7436    5.9626   -6.2118 H   0  0  0  0  0  0  0  0  0  0  0  0
    5.9894    6.3493   -6.2118 H   0  0  0  0  0  0  0  0  0  0  0  0
    4.1087    3.0638   -9.8164 H   0  0  0  0  0  0  0  0  0  0  0  0
    2.7598    1.7122  -11.9291 H   0  0  0  0  0  0  0  0  0  0  0  0
  1  2  1  0
  2  3  1  0
  3  4  2  0
  4  5  1  0
  5  6  2  0
  6  7  1  0
  7  8  1  0
  8  9  2  0
  9 10  1  0
 10 11  2  0
 11 12  1  0
 13 12  1  1
 13 14  1  0
 14 15  2  0
 15 16  1  0
 16 17  2  0
 17 18  1  0
 18 19  2  0
 13 20  1  0
 20 21  1  0
 21 22  2  0
 21 23  1  0
 23 24  1  0
 23 25  1  0
 25 26  2  0
 12 27  2  0
  7 28  2  0
 28  3  1  0
 27  8  1  0
 25 13  1  0
 19 14  1  0
  1 29  1  0
  1 30  1  0
  1 31  1  0
  4 32  1  0
  5 33  1  0
  6 34  1  0
  9 35  1  0
 10 36  1  0
 11 37  1  0
 15 38  1  0
 16 39  1  0
 17 40  1  0
 18 41  1  0
 19 42  1  0
 20 43  1  0
 22 44  1  0
 22 45  1  0
 24 46  1  0
 24 47  1  0
 24 48  1  0
 27 49  1  0
 28 50  1  0
M  CHG  1  22   1
M  END
>  <meeko>  (2) 
{"is_sidechain": [false], "free_energy": -9.226, "intermolecular_energy": -11.368, "internal_energy": -1.175}

$$$$
4djv_ligand
     RDKit          3D

 50 53  0  0  0  0  0  0  0  0999 V2000
    8.5780    0.1200   -2.9480 C   0  0  0  0  0  0  0  0  0  0  0  0
    9.6970    0.9880   -2.8060 O   0  0  0  0  0  0  0  0  0  0  0  0
    9.6270    2.1970   -3.4410 C   0  0  0  0  0  0  0  0  0  0  0  0
   10.5610    3.2270   -3.3480 C   0  0  0  0  0  0  0  0  0  0  0  0
   10.3620    4.4140   -4.0550 C   0  0  0  0  0  0  0  0  0  0  0  0
    9.2300    4.5750   -4.8580 C   0  0  0  0  0  0  0  0  0  0  0  0
    8.2760    3.5530   -4.9670 C   0  0  0  0  0  0  0  0  0  0  0  0
    7.0810    3.7130   -5.8110 C   0  0  0  0  0  0  0  0  0  0  0  0
    6.4930    4.9710   -6.0000 C   0  0  0  0  0  0  0  0  0  0  0  0
    5.3590    5.1200   -6.7970 C   0  0  0  0  0  0  0  0  0  0  0  0
    4.7850    4.0130   -7.4200 C   0  0  0  0  0  0  0  0  0  0  0  0
    5.3380    2.7330   -7.2530 C   0  0  0  0  0  0  0  0  0  0  0  0
    4.7590    1.4880   -7.9180 C   0  0  1  0  0  0  0  0  0  0  0  0
    5.7810    0.4190   -8.2910 C   0  0  0  0  0  0  0  0  0  0  0  0
    6.9490    0.7040   -9.0190 C   0  0  0  0  0  0  0  0  0  0  0  0
    7.8430   -0.3140   -9.3650 C   0  0  0  0  0  0  0  0  0  0  0  0
    7.5890   -1.6300   -8.9920 C   0  0  0  0  0  0  0  0  0  0  0  0
    6.4420   -1.9350   -8.2680 C   0  0  0  0  0  0  0  0  0  0  0  0
    5.5460   -0.9230   -7.9220 C   0  0  0  0  0  0  0  0  0  0  0  0
    3.7920    0.8070   -7.0030 N   0  0  0  0  0  0  0  0  0  0  0  0
    2.5410    0.8150   -7.5220 C   0  0  0  0  0  0  0  0  0  0  0  0
    1.5180    0.2390   -6.8910 N   0  0  0  0  0  0  0  0  0  0  0  0
    2.4720    1.4430   -8.6960 N   0  0  0  0  0  0  0  0  0  0  0  0
    1.3230    1.6770   -9.5560 C   0  0  0  0  0  0  0  0  0  0  0  0
    3.7710    1.9090   -9.0710 C   0  0  0  0  0  0  0  0  0  0  0  0
    4.0020    2.5000  -10.1090 O   0  0  0  0  0  0  0  0  0  0  0  0
    6.4900    2.6080   -6.4480 C   0  0  0  0  0  0  0  0  0  0  0  0
    8.4960    2.3670   -4.2470 C   0  0  0  0  0  0  0  0  0  0  0  0
    8.2080   -0.1670   -1.9527 H   0  0  0  0  0  0  0  0  0  0  0  0
    7.7801    0.6378   -3.5005 H   0  0  0  0  0  0  0  0  0  0  0  0
    8.8811   -0.7816   -3.5005 H   0  0  0  0  0  0  0  0  0  0  0  0
   11.4544    3.1047   -2.7180 H   0  0  0  0  0  0  0  0  0  0  0  0
   11.0998    5.2264   -3.9796 H   0  0  0  0  0  0  0  0  0  0  0  0
    9.0854    5.5147   -5.4113 H   0  0  0  0  0  0  0  0  0  0  0  0
    6.9326    5.8536   -5.5124 H   0  0  0  0  0  0  0  0  0  0  0  0
    4.9147    6.1167   -6.9350 H   0  0  0  0  0  0  0  0  0  0  0  0
    3.8912    4.1432   -8.0478 H   0  0  0  0  0  0  0  0  0  0  0  0
    7.1624    1.7402   -9.3202 H   0  0  0  0  0  0  0  0  0  0  0  0
    8.7522   -0.0729   -9.9353 H   0  0  0  0  0  0  0  0  0  0  0  0
    8.2941   -2.4274   -9.2693 H   0  0  0  0  0  0  0  0  0  0  0  0
    6.2409   -2.9740   -7.9680 H   0  0  0  0  0  0  0  0  0  0  0  0
    4.6401   -1.1755   -7.3514 H   0  0  0  0  0  0  0  0  0  0  0  0
    4.0580    0.2820   -6.1830 H   0  0  0  0  0  0  0  0  0  0  0  0
    0.5850    0.2430   -7.2860 H   0  0  0  0  0  0  0  0  0  0  0  0
    1.6340   -0.2260   -5.9980 H   0  0  0  0  0  0  0  0  0  0  0  0
    0.4323    1.8584   -8.9366 H   0  0  0  0  0  0  0  0  0  0  0  0
    1.5130    2.5549  -10.1910 H   0  0  0  0  0  0  0  0  0  0  0  0
    1.1545    0.7947  -10.1910 H   0  0  0  0  0  0  0  0  0  0  0  0
    6.9404    1.6133   -6.3145 H   0  0  0  0  0  0  0  0  0  0  0  0
    7.7609    1.5518   -4.3186 H   0  0  0  0  0  0  0  0  0  0  0  0
  1  2  1  0
  2  3  1  0
  3  4  2  0
  4  5  1  0
  5  6  2  0
  6  7  1  0
  7  8  1  0
  8  9  2  0
  9 10  1  0
 10 11  2  0
 11 12  1  0
 13 12  1  1
 13 14  1  0
 14 15  2  0
 15 16  1  0
 16 17  2  0
 17 18  1  0
 18 19  2  0
 13 20  1  0
 20 21  1  0
 21 22  2  0
 21 23  1  0
 23 24  1  0
 23 25  1  0
 25 26  2  0
 12 27  2  0
  7 28  2  0
 28  3  1  0
 27  8  1  0
 25 13  1  0
 19 14  1  0
  1 29  1  0
  1 30  1  0
  1 31  1  0
  4 32  1  0
  5 33  1  0
  6 34  1  0
  9 35  1  0
 10 36  1  0
 11 37  1  0
 15 38  1  0
 16 39  1  0
 17 40  1  0
 18 41  1  0
 19 42  1  0
 20 43  1  0
 22 44  1  0
 22 45  1  0
 24 46  1  0
 24 47  1  0
 24 48  1  0
 27 49  1  0
 28 50  1  0
M  CHG  1  22   1
M  END
>  <meeko>  (3) 
{"is_sidechain": [false], "free_energy": -9.154, "intermolecular_energy": -11.34, "internal_energy": -1.114}

$$$$
4djv_ligand
     RDKit          3D

 50 53  0  0  0  0  0  0  0  0999 V2000
   10.3390    6.4950   -1.5360 C   0  0  0  0  0  0  0  0  0  0  0  0
   10.3160    6.3320   -2.9490 O   0  0  0  0  0  0  0  0  0  0  0  0
    9.9310    5.1090   -3.4250 C   0  0  0  0  0  0  0  0  0  0  0  0
   10.5420    3.8890   -3.1420 C   0  0  0  0  0  0  0  0  0  0  0  0
   10.0400    2.7120   -3.6980 C   0  0  0  0  0  0  0  0  0  0  0  0
    8.9250    2.7500   -4.5400 C   0  0  0  0  0  0  0  0  0  0  0  0
    8.2930    3.9650   -4.8410 C   0  0  0  0  0  0  0  0  0  0  0  0
    7.1180    4.0140   -5.7260 C   0  0  0  0  0  0  0  0  0  0  0  0
    6.4710    5.2260   -6.0020 C   0  0  0  0  0  0  0  0  0  0  0  0
    5.3560    5.2700   -6.8370 C   0  0  0  0  0  0  0  0  0  0  0  0
    4.8610    4.1010   -7.4130 C   0  0  0  0  0  0  0  0  0  0  0  0
    5.4740    2.8630   -7.1590 C   0  0  0  0  0  0  0  0  0  0  0  0
    4.9830    1.5550   -7.7680 C   0  0  1  0  0  0  0  0  0  0  0  0
    6.0620    0.4990   -7.9930 C   0  0  0  0  0  0  0  0  0  0  0  0
    6.9610    0.5490   -9.0720 C   0  0  0  0  0  0  0  0  0  0  0  0
    7.9150   -0.4560   -9.2570 C   0  0  0  0  0  0  0  0  0  0  0  0
    7.9880   -1.5260   -8.3700 C   0  0  0  0  0  0  0  0  0  0  0  0
    7.1120   -1.5940   -7.2940 C   0  0  0  0  0  0  0  0  0  0  0  0
    6.1570   -0.5940   -7.1070 C   0  0  0  0  0  0  0  0  0  0  0  0
    3.9770    0.9040   -6.8730 N   0  0  0  0  0  0  0  0  0  0  0  0
    2.7660    0.8300   -7.4730 C   0  0  0  0  0  0  0  0  0  0  0  0
    1.7200    0.2630   -6.8720 N   0  0  0  0  0  0  0  0  0  0  0  0
    2.7580    1.3710   -8.6920 N   0  0  0  0  0  0  0  0  0  0  0  0
    1.6650    1.5020   -9.6420 C   0  0  0  0  0  0  0  0  0  0  0  0
    4.0650    1.8560   -9.0120 C   0  0  0  0  0  0  0  0  0  0  0  0
    4.3480    2.3810  -10.0730 O   0  0  0  0  0  0  0  0  0  0  0  0
    6.6060    2.8450   -6.3160 C   0  0  0  0  0  0  0  0  0  0  0  0
    8.8150    5.1380   -4.2700 C   0  0  0  0  0  0  0  0  0  0  0  0
   10.2010    5.5170   -1.0518 H   0  0  0  0  0  0  0  0  0  0  0  0
   11.3062    6.9215   -1.2318 H   0  0  0  0  0  0  0  0  0  0  0  0
    9.5276    7.1725   -1.2318 H   0  0  0  0  0  0  0  0  0  0  0  0
   11.4200    3.8539   -2.4803 H   0  0  0  0  0  0  0  0  0  0  0  0
   10.5237    1.7501   -3.4728 H   0  0  0  0  0  0  0  0  0  0  0  0
    8.5385    1.8151   -4.9719 H   0  0  0  0  0  0  0  0  0  0  0  0
    6.8487    6.1564   -5.5530 H   0  0  0  0  0  0  0  0  0  0  0  0
    4.8640    6.2321   -7.0426 H   0  0  0  0  0  0  0  0  0  0  0  0
    3.9820    4.1485   -8.0727 H   0  0  0  0  0  0  0  0  0  0  0  0
    6.9134    1.3896   -9.7800 H   0  0  0  0  0  0  0  0  0  0  0  0
    8.6108   -0.4009  -10.1072 H   0  0  0  0  0  0  0  0  0  0  0  0
    8.7380   -2.3164   -8.5207 H   0  0  0  0  0  0  0  0  0  0  0  0
    7.1712   -2.4364   -6.5892 H   0  0  0  0  0  0  0  0  0  0  0  0
    5.4661   -0.6594   -6.2535 H   0  0  0  0  0  0  0  0  0  0  0  0
    4.2020    0.4490   -6.0010 H   0  0  0  0  0  0  0  0  0  0  0  0
    0.8170    0.2050   -7.3280 H   0  0  0  0  0  0  0  0  0  0  0  0
    1.7880   -0.1340   -5.9420 H   0  0  0  0  0  0  0  0  0  0  0  0
    0.7166    1.6157   -9.0964 H   0  0  0  0  0  0  0  0  0  0  0  0
    1.8326    2.3865  -10.2741 H   0  0  0  0  0  0  0  0  0  0  0  0
    1.6189    0.6030  -10.2741 H   0  0  0  0  0  0  0  0  0  0  0  0
    7.1038    1.8851   -6.1141 H   0  0  0  0  0  0  0  0  0  0  0  0
    8.3352    6.1025   -4.4923 H   0  0  0  0  0  0  0  0  0  0  0  0
  1  2  1  0
  2  3  1  0
  3  4  2  0
  4  5  1  0
  5  6  2  0
  6  7  1  0
  7  8  1  0
  8  9  2  0
  9 10  1  0
 10 11  2  0
 11 12  1  0
 13 12  1  1
 13 14  1  0
 14 15  2  0
 15 16  1  0
 16 17  2  0
 17 18  1  0
 18 19  2  0
 13 20  1  0
 20 21  1  0
 21 22  2  0
 21 23  1  0
 23 24  1  0
 23 25  1  0
 25 26  2  0
 12 27  2  0
  7 28  2  0
 28  3  1  0
 27  8  1  0
 25 13  1  0
 19 14  1  0
  1 29  1  0
  1 30  1  0
  1 31  1  0
  4 32  1  0
  5 33  1  0
  6 34  1  0
  9 35  1  0
 10 36  1  0
 11 37  1  0
 15 38  1  0
 16 39  1  0
 17 40  1  0
 18 41  1  0
 19 42  1  0
 20 43  1  0
 22 44  1  0
 22 45  1  0
 24 46  1  0
 24 47  1  0
 24 48  1  0
 27 49  1  0
 28 50  1  0
M  CHG  1  22   1
M  END
>  <meeko>  (4) 
{"is_sidechain": [false], "free_energy": -9.005, "intermolecular_energy": -11.047, "internal_energy": -1.224}

$$$$
4djv_ligand
     RDKit          3D

 50 53  0  0  0  0  0  0  0  0999 V2000
    0.4670    5.3500   -8.7220 C   0  0  0  0  0  0  0  0  0  0  0  0
    0.2380    4.0600   -9.2780 O   0  0  0  0  0  0  0  0  0  0  0  0
    1.1450    3.0840   -8.9730 C   0  0  0  0  0  0  0  0  0  0  0  0
    0.8840    1.7170   -8.8940 C   0  0  0  0  0  0  0  0  0  0  0  0
    1.9120    0.8290   -8.5720 C   0  0  0  0  0  0  0  0  0  0  0  0
    3.2020    1.3030   -8.3270 C   0  0  0  0  0  0  0  0  0  0  0  0
    3.4900    2.6740   -8.3980 C   0  0  0  0  0  0  0  0  0  0  0  0
    4.8470    3.1830   -8.1420 C   0  0  0  0  0  0  0  0  0  0  0  0
    5.0940    4.5570   -8.0270 C   0  0  0  0  0  0  0  0  0  0  0  0
    6.3810    5.0370   -7.7880 C   0  0  0  0  0  0  0  0  0  0  0  0
    7.4510    4.1520   -7.6630 C   0  0  0  0  0  0  0  0  0  0  0  0
    7.2500    2.7660   -7.7780 C   0  0  0  0  0  0  0  0  0  0  0  0
    8.3790    1.7520   -7.6410 C   0  0  1  0  0  0  0  0  0  0  0  0
    7.9470    0.2890   -7.6910 C   0  0  0  0  0  0  0  0  0  0  0  0
    8.4770   -0.6910   -6.8350 C   0  0  0  0  0  0  0  0  0  0  0  0
    8.0730   -2.0250   -6.9370 C   0  0  0  0  0  0  0  0  0  0  0  0
    7.1340   -2.4040   -7.8910 C   0  0  0  0  0  0  0  0  0  0  0  0
    6.5930   -1.4510   -8.7460 C   0  0  0  0  0  0  0  0  0  0  0  0
    6.9950   -0.1180   -8.6490 C   0  0  0  0  0  0  0  0  0  0  0  0
    9.3650    1.9090   -8.7560 N   0  0  0  0  0  0  0  0  0  0  0  0
   10.5780    2.2810   -8.2850 C   0  0  0  0  0  0  0  0  0  0  0  0
   11.6210    2.4550   -9.0970 N   0  0  0  0  0  0  0  0  0  0  0  0
   10.5940    2.4390   -6.9610 N   0  0  0  0  0  0  0  0  0  0  0  0
   11.6850    2.8410   -6.0870 C   0  0  0  0  0  0  0  0  0  0  0  0
    9.3020    2.1400   -6.4240 C   0  0  0  0  0  0  0  0  0  0  0  0
    9.0380    2.1840   -5.2370 O   0  0  0  0  0  0  0  0  0  0  0  0
    5.9370    2.3040   -8.0130 C   0  0  0  0  0  0  0  0  0  0  0  0
    2.4410    3.5510   -8.7250 C   0  0  0  0  0  0  0  0  0  0  0  0
    0.4552    5.2834   -7.6241 H   0  0  0  0  0  0  0  0  0  0  0  0
    1.4457    5.7248   -9.0561 H   0  0  0  0  0  0  0  0  0  0  0  0
   -0.3229    6.0388   -9.0561 H   0  0  0  0  0  0  0  0  0  0  0  0
   -0.1309    1.3383   -9.0852 H   0  0  0  0  0  0  0  0  0  0  0  0
    1.7045   -0.2495   -8.5110 H   0  0  0  0  0  0  0  0  0  0  0  0
    4.0029    0.5923   -8.0750 H   0  0  0  0  0  0  0  0  0  0  0  0
    4.2604    5.2677   -8.1267 H   0  0  0  0  0  0  0  0  0  0  0  0
    6.5531    6.1197   -7.6976 H   0  0  0  0  0  0  0  0  0  0  0  0
    8.4617    4.5422   -7.4726 H   0  0  0  0  0  0  0  0  0  0  0  0
    9.2191   -0.4048   -6.0752 H   0  0  0  0  0  0  0  0  0  0  0  0
    8.4997   -2.7792   -6.2594 H   0  0  0  0  0  0  0  0  0  0  0  0
    6.8204   -3.4555   -7.9685 H   0  0  0  0  0  0  0  0  0  0  0  0
    5.8480   -1.7474   -9.4991 H   0  0  0  0  0  0  0  0  0  0  0  0
    6.5619    0.6281   -9.3314 H   0  0  0  0  0  0  0  0  0  0  0  0
    9.1920    1.6330   -9.7100 H   0  0  0  0  0  0  0  0  0  0  0  0
   12.5290    2.7280   -8.7390 H   0  0  0  0  0  0  0  0  0  0  0  0
   11.5470    2.3180  -10.0980 H   0  0  0  0  0  0  0  0  0  0  0  0
   11.3753    2.7269   -5.0377 H   0  0  0  0  0  0  0  0  0  0  0  0
   12.5629    2.2073   -6.2812 H   0  0  0  0  0  0  0  0  0  0  0  0
   11.9419    3.8928   -6.2812 H   0  0  0  0  0  0  0  0  0  0  0  0
    5.7608    1.2215   -8.0979 H   0  0  0  0  0  0  0  0  0  0  0  0
    2.6436    4.6304   -8.7875 H   0  0  0  0  0  0  0  0  0  0  0  0
  1  2  1  0
  2  3  1  0
  3  4  2  0
  4  5  1  0
  5  6  2  0
  6  7  1  0
  7  8  1  0
  8  9  2  0
  9 10  1  0
 10 11  2  0
 11 12  1  0
 13 12  1  6
 13 14  1  0
 14 15  2  0
 15 16  1  0
 16 17  2  0
 17 18  1  0
 18 19  2  0
 13 20  1  0
 20 21  1  0
 21 22  2  0
 21 23  1  0
 23 24  1  0
 23 25  1  0
 25 26  2  0
 12 27  2  0
  7 28  2  0
 28  3  1  0
 27  8  1  0
 25 13  1  0
 19 14  1  0
  1 29  1  0
  1 30  1  0
  1 31  1  0
  4 32  1  0
  5 33  1  0
  6 34  1  0
  9 35  1  0
 10 36  1  0
 11 37  1  0
 15 38  1  0
 16 39  1  0
 17 40  1  0
 18 41  1  0
 19 42  1  0
 20 43  1  0
 22 44  1  0
 22 45  1  0
 24 46  1  0
 24 47  1  0
 24 48  1  0
 27 49  1  0
 28 50  1  0
M  CHG  1  22   1
M  END
>  <meeko>  (5) 
{"is_sidechain": [false], "free_energy": -8.869, "intermolecular_energy": -11.426, "internal_energy": -0.677}

$$$$
4djv_ligand
     RDKit          3D

 50 53  0  0  0  0  0  0  0  0999 V2000
   12.1640    2.3470   -7.4750 C   0  0  0  0  0  0  0  0  0  0  0  0
   12.5850    2.8490   -6.2120 O   0  0  0  0  0  0  0  0  0  0  0  0
   11.6060    3.2560   -5.3490 C   0  0  0  0  0  0  0  0  0  0  0  0
   11.7790    3.5710   -4.0020 C   0  0  0  0  0  0  0  0  0  0  0  0
   10.6850    3.9770   -3.2360 C   0  0  0  0  0  0  0  0  0  0  0  0
    9.4150    4.0680   -3.8120 C   0  0  0  0  0  0  0  0  0  0  0  0
    9.2160    3.7550   -5.1650 C   0  0  0  0  0  0  0  0  0  0  0  0
    7.8820    3.8500   -5.7800 C   0  0  0  0  0  0  0  0  0  0  0  0
    7.1730    5.0580   -5.7860 C   0  0  0  0  0  0  0  0  0  0  0  0
    5.9090    5.1440   -6.3660 C   0  0  0  0  0  0  0  0  0  0  0  0
    5.3240    4.0220   -6.9510 C   0  0  0  0  0  0  0  0  0  0  0  0
    5.9960    2.7890   -6.9630 C   0  0  0  0  0  0  0  0  0  0  0  0
    5.4110    1.5320   -7.5960 C   0  0  1  0  0  0  0  0  0  0  0  0
    6.4090    0.4050   -7.8420 C   0  0  0  0  0  0  0  0  0  0  0  0
    6.5970   -0.6550   -6.9400 C   0  0  0  0  0  0  0  0  0  0  0  0
    7.5450   -1.6510   -7.1910 C   0  0  0  0  0  0  0  0  0  0  0  0
    8.3200   -1.6070   -8.3460 C   0  0  0  0  0  0  0  0  0  0  0  0
    8.1490   -0.5700   -9.2560 C   0  0  0  0  0  0  0  0  0  0  0  0
    7.2050    0.4270   -9.0070 C   0  0  0  0  0  0  0  0  0  0  0  0
    4.3580    0.9410   -6.7130 N   0  0  0  0  0  0  0  0  0  0  0  0
    3.1460    0.9670   -7.3130 C   0  0  0  0  0  0  0  0  0  0  0  0
    2.0610    0.4670   -6.7220 N   0  0  0  0  0  0  0  0  0  0  0  0
    3.1780    1.5300   -8.5220 N   0  0  0  0  0  0  0  0  0  0  0  0
    2.0990    1.7590   -9.4680 C   0  0  0  0  0  0  0  0  0  0  0  0
    4.5180    1.9240   -8.8340 C   0  0  0  0  0  0  0  0  0  0  0  0
    4.8400    2.4460   -9.8850 O   0  0  0  0  0  0  0  0  0  0  0  0
    7.2780    2.7280   -6.3760 C   0  0  0  0  0  0  0  0  0  0  0  0
   10.3310    3.3500   -5.9180 C   0  0  0  0  0  0  0  0  0  0  0  0
   11.4639    1.5123   -7.3229 H   0  0  0  0  0  0  0  0  0  0  0  0
   11.6631    3.1475   -8.0393 H   0  0  0  0  0  0  0  0  0  0  0  0
   13.0395    1.9932   -8.0393 H   0  0  0  0  0  0  0  0  0  0  0  0
   12.7763    3.4997   -3.5434 H   0  0  0  0  0  0  0  0  0  0  0  0
   10.8232    4.2266   -2.1736 H   0  0  0  0  0  0  0  0  0  0  0  0
    8.5612    4.3889   -3.1972 H   0  0  0  0  0  0  0  0  0  0  0  0
    7.6205    5.9515   -5.3263 H   0  0  0  0  0  0  0  0  0  0  0  0
    5.3697    6.1027   -6.3623 H   0  0  0  0  0  0  0  0  0  0  0  0
    4.3265    4.1033   -7.4075 H   0  0  0  0  0  0  0  0  0  0  0  0
    5.9901   -0.7020   -6.0238 H   0  0  0  0  0  0  0  0  0  0  0  0
    7.6790   -2.4731   -6.4725 H   0  0  0  0  0  0  0  0  0  0  0  0
    9.0667   -2.3915   -8.5386 H   0  0  0  0  0  0  0  0  0  0  0  0
    8.7575   -0.5354  -10.1717 H   0  0  0  0  0  0  0  0  0  0  0  0
    7.0791    1.2448   -9.7318 H   0  0  0  0  0  0  0  0  0  0  0  0
    4.5490    0.4540   -5.8500 H   0  0  0  0  0  0  0  0  0  0  0  0
    1.1560    0.4840   -7.1780 H   0  0  0  0  0  0  0  0  0  0  0  0
    2.0990    0.0490   -5.8000 H   0  0  0  0  0  0  0  0  0  0  0  0
    1.1663    1.9570   -8.9195 H   0  0  0  0  0  0  0  0  0  0  0  0
    2.3434    2.6253  -10.1003 H   0  0  0  0  0  0  0  0  0  0  0  0
    1.9705    0.8681  -10.1003 H   0  0  0  0  0  0  0  0  0  0  0  0
    7.8225    1.7723   -6.3848 H   0  0  0  0  0  0  0  0  0  0  0  0
   10.1984    3.1006   -6.9811 H   0  0  0  0  0  0  0  0  0  0  0  0
  1  2  1  0
  2  3  1  0
  3  4  2  0
  4  5  1  0
  5  6  2  0
  6  7  1  0
  7  8  1  0
  8  9  2  0
  9 10  1  0
 10 11  2  0
 11 12  1  0
 13 12  1  1
 13 14  1  0
 14 15  2  0
 15 16  1  0
 16 17  2  0
 17 18  1  0
 18 19  2  0
 13 20  1  0
 20 21  1  0
 21 22  2  0
 21 23  1  0
 23 24  1  0
 23 25  1  0
 25 26  2  0
 12 27  2  0
  7 28  2  0
 28  3  1  0
 27  8  1  0
 25 13  1  0
 19 14  1  0
  1 29  1  0
  1 30  1  0
  1 31  1  0
  4 32  1  0
  5 33  1  0
  6 34  1  0
  9 35  1  0
 10 36  1  0
 11 37  1  0
 15 38  1  0
 16 39  1  0
 17 40  1  0
 18 41  1  0
 19 42  1  0
 20 43  1  0
 22 44  1  0
 22 45  1  0
 24 46  1  0
 24 47  1  0
 24 48  1  0
 27 49  1  0
 28 50  1  0
M  CHG  1  22   1
M  END
>  <meeko>  (6) 
{"is_sidechain": [false], "free_energy": -8.632, "intermolecular_energy": -10.532, "internal_energy": -1.278}

$$$$
4djv_ligand
     RDKit          3D

 50 53  0  0  0  0  0  0  0  0999 V2000
    7.6260   11.0720   -6.9330 C   0  0  0  0  0  0  0  0  0  0  0  0
    8.1100    9.7660   -7.2310 O   0  0  0  0  0  0  0  0  0  0  0  0
    7.5790    8.7310   -6.5120 C   0  0  0  0  0  0  0  0  0  0  0  0
    7.1560    8.7850   -5.1850 C   0  0  0  0  0  0  0  0  0  0  0  0
    6.6300    7.6450   -4.5740 C   0  0  0  0  0  0  0  0  0  0  0  0
    6.5260    6.4480   -5.2870 C   0  0  0  0  0  0  0  0  0  0  0  0
    6.9470    6.3680   -6.6230 C   0  0  0  0  0  0  0  0  0  0  0  0
    6.8400    5.1110   -7.3810 C   0  0  0  0  0  0  0  0  0  0  0  0
    5.7780    4.8900   -8.2670 C   0  0  0  0  0  0  0  0  0  0  0  0
    5.6770    3.6970   -8.9820 C   0  0  0  0  0  0  0  0  0  0  0  0
    6.6350    2.6970   -8.8230 C   0  0  0  0  0  0  0  0  0  0  0  0
    7.7130    2.8740   -7.9400 C   0  0  0  0  0  0  0  0  0  0  0  0
    8.7950    1.8200   -7.7330 C   0  0  1  0  0  0  0  0  0  0  0  0
    8.3090    0.3750   -7.7750 C   0  0  0  0  0  0  0  0  0  0  0  0
    7.2860   -0.0590   -8.6360 C   0  0  0  0  0  0  0  0  0  0  0  0
    6.8510   -1.3880   -8.6190 C   0  0  0  0  0  0  0  0  0  0  0  0
    7.4280   -2.3050   -7.7460 C   0  0  0  0  0  0  0  0  0  0  0  0
    8.4440   -1.9000   -6.8880 C   0  0  0  0  0  0  0  0  0  0  0  0
    8.8800   -0.5740   -6.9000 C   0  0  0  0  0  0  0  0  0  0  0  0
    9.8340    1.9170   -8.8050 N   0  0  0  0  0  0  0  0  0  0  0  0
   11.0390    2.2520   -8.2870 C   0  0  0  0  0  0  0  0  0  0  0  0
   12.1220    2.3700   -9.0550 N   0  0  0  0  0  0  0  0  0  0  0  0
   11.0020    2.4370   -6.9670 N   0  0  0  0  0  0  0  0  0  0  0  0
   12.0680    2.8150   -6.0530 C   0  0  0  0  0  0  0  0  0  0  0  0
    9.6770    2.1980   -6.4840 C   0  0  0  0  0  0  0  0  0  0  0  0
    9.3630    2.2760   -5.3110 O   0  0  0  0  0  0  0  0  0  0  0  0
    7.7980    4.0930   -7.2330 C   0  0  0  0  0  0  0  0  0  0  0  0
    7.4720    7.5270   -7.2180 C   0  0  0  0  0  0  0  0  0  0  0  0
    7.5768   11.2047   -5.8421 H   0  0  0  0  0  0  0  0  0  0  0  0
    8.3059   11.8220   -7.3634 H   0  0  0  0  0  0  0  0  0  0  0  0
    6.6215   11.1978   -7.3634 H   0  0  0  0  0  0  0  0  0  0  0  0
    7.2365    9.7251   -4.6195 H   0  0  0  0  0  0  0  0  0  0  0  0
    6.2961    7.6895   -3.5269 H   0  0  0  0  0  0  0  0  0  0  0  0
    6.1088    5.5571   -4.7948 H   0  0  0  0  0  0  0  0  0  0  0  0
    5.0126    5.6686   -8.4008 H   0  0  0  0  0  0  0  0  0  0  0  0
    4.8367    3.5443   -9.6753 H   0  0  0  0  0  0  0  0  0  0  0  0
    6.5460    1.7610   -9.3940 H   0  0  0  0  0  0  0  0  0  0  0  0
    6.8219    0.6556   -9.3317 H   0  0  0  0  0  0  0  0  0  0  0  0
    6.0487   -1.7100   -9.2992 H   0  0  0  0  0  0  0  0  0  0  0  0
    7.0808   -3.3487   -7.7348 H   0  0  0  0  0  0  0  0  0  0  0  0
    8.9043   -2.6243   -6.1998 H   0  0  0  0  0  0  0  0  0  0  0  0
    9.6829   -0.2631   -6.2154 H   0  0  0  0  0  0  0  0  0  0  0  0
    9.6930    1.6280   -9.7610 H   0  0  0  0  0  0  0  0  0  0  0  0
   13.0230    2.6160   -8.6620 H   0  0  0  0  0  0  0  0  0  0  0  0
   12.0880    2.2150  -10.0560 H   0  0  0  0  0  0  0  0  0  0  0  0
   11.7224    2.6925   -5.0159 H   0  0  0  0  0  0  0  0  0  0  0  0
   12.9441    2.1727   -6.2259 H   0  0  0  0  0  0  0  0  0  0  0  0
   12.3438    3.8657   -6.2259 H   0  0  0  0  0  0  0  0  0  0  0  0
    8.6409    4.2513   -6.5442 H   0  0  0  0  0  0  0  0  0  0  0  0
    7.8074    7.4875   -8.2649 H   0  0  0  0  0  0  0  0  0  0  0  0
  1  2  1  0
  2  3  1  0
  3  4  2  0
  4  5  1  0
  5  6  2  0
  6  7  1  0
  7  8  1  0
  8  9  2  0
  9 10  1  0
 10 11  2  0
 11 12  1  0
 13 12  1  6
 13 14  1  0
 14 15  2  0
 15 16  1  0
 16 17  2  0
 17 18  1  0
 18 19  2  0
 13 20  1  0
 20 21  1  0
 21 22  2  0
 21 23  1  0
 23 24  1  0
 23 25  1  0
 25 26  2  0
 12 27  2  0
  7 28  2  0
 28  3  1  0
 27  8  1  0
 25 13  1  0
 19 14  1  0
  1 29  1  0
  1 30  1  0
  1 31  1  0
  4 32  1  0
  5 33  1  0
  6 34  1  0
  9 35  1  0
 10 36  1  0
 11 37  1  0
 15 38  1  0
 16 39  1  0
 17 40  1  0
 18 41  1  0
 19 42  1  0
 20 43  1  0
 22 44  1  0
 22 45  1  0
 24 46  1  0
 24 47  1  0
 24 48  1  0
 27 49  1  0
 28 50  1  0
M  CHG  1  22   1
M  END
>  <meeko>  (7) 
{"is_sidechain": [false], "free_energy": -8.579, "intermolecular_energy": -11.395, "internal_energy": -0.35}

$$$$
4djv_ligand
     RDKit          3D

 50 53  0  0  0  0  0  0  0  0999 V2000
   -0.6050    3.3480   -9.2140 C   0  0  0  0  0  0  0  0  0  0  0  0
    0.6270    3.0700   -9.8710 O   0  0  0  0  0  0  0  0  0  0  0  0
    1.4980    2.2360   -9.2260 C   0  0  0  0  0  0  0  0  0  0  0  0
    1.2070    0.9620   -8.7420 C   0  0  0  0  0  0  0  0  0  0  0  0
    2.1990    0.2170   -8.1020 C   0  0  0  0  0  0  0  0  0  0  0  0
    3.4840    0.7420   -7.9440 C   0  0  0  0  0  0  0  0  0  0  0  0
    3.8000    2.0220   -8.4220 C   0  0  0  0  0  0  0  0  0  0  0  0
    5.1520    2.5830   -8.2600 C   0  0  0  0  0  0  0  0  0  0  0  0
    5.4240    3.9180   -8.5850 C   0  0  0  0  0  0  0  0  0  0  0  0
    6.7050    4.4460   -8.4360 C   0  0  0  0  0  0  0  0  0  0  0  0
    7.7440    3.6480   -7.9600 C   0  0  0  0  0  0  0  0  0  0  0  0
    7.5180    2.3030   -7.6280 C   0  0  0  0  0  0  0  0  0  0  0  0
    8.6140    1.3860   -7.0940 C   0  0  1  0  0  0  0  0  0  0  0  0
   10.0040    2.0100   -7.0230 C   0  0  0  0  0  0  0  0  0  0  0  0
   10.9280    1.9320   -8.0790 C   0  0  0  0  0  0  0  0  0  0  0  0
   12.2030    2.4930   -7.9580 C   0  0  0  0  0  0  0  0  0  0  0  0
   12.5770    3.1420   -6.7850 C   0  0  0  0  0  0  0  0  0  0  0  0
   11.6770    3.2360   -5.7290 C   0  0  0  0  0  0  0  0  0  0  0  0
   10.4050    2.6750   -5.8450 C   0  0  0  0  0  0  0  0  0  0  0  0
    8.3030    0.9550   -5.6960 N   0  0  0  0  0  0  0  0  0  0  0  0
    8.1150   -0.3830   -5.6280 C   0  0  0  0  0  0  0  0  0  0  0  0
    7.8530   -0.9950   -4.4730 N   0  0  0  0  0  0  0  0  0  0  0  0
    8.2260   -0.9830   -6.8140 N   0  0  0  0  0  0  0  0  0  0  0  0
    8.0820   -2.3870   -7.1600 C   0  0  0  0  0  0  0  0  0  0  0  0
    8.5390   -0.0120   -7.8170 C   0  0  0  0  0  0  0  0  0  0  0  0
    8.7160   -0.2870   -8.9890 O   0  0  0  0  0  0  0  0  0  0  0  0
    6.2110    1.7920   -7.7810 C   0  0  0  0  0  0  0  0  0  0  0  0
    2.7870    2.7550   -9.0630 C   0  0  0  0  0  0  0  0  0  0  0  0
   -0.4554    3.3143   -8.1247 H   0  0  0  0  0  0  0  0  0  0  0  0
   -0.9581    4.3484   -9.5048 H   0  0  0  0  0  0  0  0  0  0  0  0
   -1.3534    2.5962   -9.5048 H   0  0  0  0  0  0  0  0  0  0  0  0
    0.1969    0.5440   -8.8641 H   0  0  0  0  0  0  0  0  0  0  0  0
    1.9678   -0.7884   -7.7202 H   0  0  0  0  0  0  0  0  0  0  0  0
    4.2570    0.1443   -7.4387 H   0  0  0  0  0  0  0  0  0  0  0  0
    4.6143    4.5592   -8.9635 H   0  0  0  0  0  0  0  0  0  0  0  0
    6.8972    5.4976   -8.6953 H   0  0  0  0  0  0  0  0  0  0  0  0
    8.7505    4.0763   -7.8434 H   0  0  0  0  0  0  0  0  0  0  0  0
   10.6447    1.4233   -9.0123 H   0  0  0  0  0  0  0  0  0  0  0  0
   12.9141    2.4210   -8.7942 H   0  0  0  0  0  0  0  0  0  0  0  0
   13.5821    3.5795   -6.6934 H   0  0  0  0  0  0  0  0  0  0  0  0
   11.9680    3.7526   -4.8025 H   0  0  0  0  0  0  0  0  0  0  0  0
    9.7018    2.7525   -5.0027 H   0  0  0  0  0  0  0  0  0  0  0  0
    8.3700    1.5560   -4.8880 H   0  0  0  0  0  0  0  0  0  0  0  0
    7.7180   -1.9990   -4.4270 H   0  0  0  0  0  0  0  0  0  0  0  0
    7.7810   -0.4840   -3.6010 H   0  0  0  0  0  0  0  0  0  0  0  0
    8.0205   -2.9869   -6.2400 H   0  0  0  0  0  0  0  0  0  0  0  0
    7.1648   -2.5268   -7.7509 H   0  0  0  0  0  0  0  0  0  0  0  0
    8.9517   -2.7101   -7.7509 H   0  0  0  0  0  0  0  0  0  0  0  0
    6.0150    0.7422   -7.5172 H   0  0  0  0  0  0  0  0  0  0  0  0
    3.0129    3.7612   -9.4459 H   0  0  0  0  0  0  0  0  0  0  0  0
  1  2  1  0
  2  3  1  0
  3  4  2  0
  4  5  1  0
  5  6  2  0
  6  7  1  0
  7  8  1  0
  8  9  2  0
  9 10  1  0
 10 11  2  0
 11 12  1  0
 13 12  1  6
 13 14  1  0
 14 15  2  0
 15 16  1  0
 16 17  2  0
 17 18  1  0
 18 19  2  0
 13 20  1  0
 20 21  1  0
 21 22  2  0
 21 23  1  0
 23 24  1  0
 23 25  1  0
 25 26  2  0
 12 27  2  0
  7 28  2  0
 28  3  1  0
 27  8  1  0
 25 13  1  0
 19 14  1  0
  1 29  1  0
  1 30  1  0
  1 31  1  0
  4 32  1  0
  5 33  1  0
  6 34  1  0
  9 35  1  0
 10 36  1  0
 11 37  1  0
 15 38  1  0
 16 39  1  0
 17 40  1  0
 18 41  1  0
 19 42  1  0
 20 43  1  0
 22 44  1  0
 22 45  1  0
 24 46  1  0
 24 47  1  0
 24 48  1  0
 27 49  1  0
 28 50  1  0
M  CHG  1  22   1
M  END
>  <meeko>  (8) 
{"is_sidechain": [false], "free_energy": -8.569, "intermolecular_energy": -10.518, "internal_energy": -1.214}

$$$$
4djv_ligand
     RDKit          3D

 50 53  0  0  0  0  0  0  0  0999 V2000
    7.1960    7.7880   -8.8160 C   0  0  0  0  0  0  0  0  0  0  0  0
    7.6680    8.4630   -7.6550 O   0  0  0  0  0  0  0  0  0  0  0  0
    7.4130    7.8720   -6.4490 C   0  0  0  0  0  0  0  0  0  0  0  0
    6.8710    8.4980   -5.3280 C   0  0  0  0  0  0  0  0  0  0  0  0
    6.6620    7.7690   -4.1560 C   0  0  0  0  0  0  0  0  0  0  0  0
    6.9930    6.4140   -4.1000 C   0  0  0  0  0  0  0  0  0  0  0  0
    7.5410    5.7610   -5.2150 C   0  0  0  0  0  0  0  0  0  0  0  0
    7.8930    4.3330   -5.1650 C   0  0  0  0  0  0  0  0  0  0  0  0
    8.6710    3.8160   -4.1210 C   0  0  0  0  0  0  0  0  0  0  0  0
    9.0060    2.4640   -4.0780 C   0  0  0  0  0  0  0  0  0  0  0  0
    8.5730    1.5980   -5.0810 C   0  0  0  0  0  0  0  0  0  0  0  0
    7.7950    2.0750   -6.1490 C   0  0  0  0  0  0  0  0  0  0  0  0
    7.2850    1.1740   -7.2680 C   0  0  1  0  0  0  0  0  0  0  0  0
    5.9810    1.6250   -7.9200 C   0  0  0  0  0  0  0  0  0  0  0  0
    5.9450    2.4680   -9.0440 C   0  0  0  0  0  0  0  0  0  0  0  0
    4.7260    2.8810   -9.5900 C   0  0  0  0  0  0  0  0  0  0  0  0
    3.5250    2.4600   -9.0270 C   0  0  0  0  0  0  0  0  0  0  0  0
    3.5370    1.6220   -7.9180 C   0  0  0  0  0  0  0  0  0  0  0  0
    4.7510    1.2090   -7.3680 C   0  0  0  0  0  0  0  0  0  0  0  0
    8.2800    1.1060   -8.3830 N   0  0  0  0  0  0  0  0  0  0  0  0
    8.7590   -0.1510   -8.5340 C   0  0  0  0  0  0  0  0  0  0  0  0
    9.6400   -0.4540   -9.4870 N   0  0  0  0  0  0  0  0  0  0  0  0
    8.2520   -1.0080   -7.6480 N   0  0  0  0  0  0  0  0  0  0  0  0
    8.5190   -2.4260   -7.4710 C   0  0  0  0  0  0  0  0  0  0  0  0
    7.3190   -0.3300   -6.8010 C   0  0  0  0  0  0  0  0  0  0  0  0
    6.6930   -0.8780   -5.9130 O   0  0  0  0  0  0  0  0  0  0  0  0
    7.4630    3.4460   -6.1680 C   0  0  0  0  0  0  0  0  0  0  0  0
    7.7430    6.5140   -6.3840 C   0  0  0  0  0  0  0  0  0  0  0  0
    6.5897    6.9209   -8.5150 H   0  0  0  0  0  0  0  0  0  0  0  0
    6.5807    8.4754   -9.4151 H   0  0  0  0  0  0  0  0  0  0  0  0
    8.0528    7.4460   -9.4151 H   0  0  0  0  0  0  0  0  0  0  0  0
    6.6082    9.5654   -5.3667 H   0  0  0  0  0  0  0  0  0  0  0  0
    6.2343    8.2648   -3.2721 H   0  0  0  0  0  0  0  0  0  0  0  0
    6.8222    5.8511   -3.1705 H   0  0  0  0  0  0  0  0  0  0  0  0
    9.0226    4.4871   -3.3235 H   0  0  0  0  0  0  0  0  0  0  0  0
    9.6156    2.0779   -3.2478 H   0  0  0  0  0  0  0  0  0  0  0  0
    8.8427    0.5325   -5.0358 H   0  0  0  0  0  0  0  0  0  0  0  0
    6.8871    2.8069   -9.4996 H   0  0  0  0  0  0  0  0  0  0  0  0
    4.7162    3.5421  -10.4691 H   0  0  0  0  0  0  0  0  0  0  0  0
    2.5684    2.7896   -9.4586 H   0  0  0  0  0  0  0  0  0  0  0  0
    2.5890    1.2843   -7.4738 H   0  0  0  0  0  0  0  0  0  0  0  0
    4.7491    0.5477   -6.4890 H   0  0  0  0  0  0  0  0  0  0  0  0
    8.4600    1.8590   -9.0300 H   0  0  0  0  0  0  0  0  0  0  0  0
    9.9910   -1.3980   -9.6000 H   0  0  0  0  0  0  0  0  0  0  0  0
    9.9880    0.2430  -10.1350 H   0  0  0  0  0  0  0  0  0  0  0  0
    8.5630   -2.6596   -6.3970 H   0  0  0  0  0  0  0  0  0  0  0  0
    7.7154   -3.0119   -7.9410 H   0  0  0  0  0  0  0  0  0  0  0  0
    9.4807   -2.6795   -7.9410 H   0  0  0  0  0  0  0  0  0  0  0  0
    6.8482    3.8336   -6.9937 H   0  0  0  0  0  0  0  0  0  0  0  0
    8.1714    6.0234   -7.2704 H   0  0  0  0  0  0  0  0  0  0  0  0
  1  2  1  0
  2  3  1  0
  3  4  2  0
  4  5  1  0
  5  6  2  0
  6  7  1  0
  7  8  1  0
  8  9  2  0
  9 10  1  0
 10 11  2  0
 11 12  1  0
 13 12  1  1
 13 14  1  0
 14 15  2  0
 15 16  1  0
 16 17  2  0
 17 18  1  0
 18 19  2  0
 13 20  1  0
 20 21  1  0
 21 22  2  0
 21 23  1  0
 23 24  1  0
 23 25  1  0
 25 26  2  0
 12 27  2  0
  7 28  2  0
 28  3  1  0
 27  8  1  0
 25 13  1  0
 19 14  1  0
  1 29  1  0
  1 30  1  0
  1 31  1  0
  4 32  1  0
  5 33  1  0
  6 34  1  0
  9 35  1  0
 10 36  1  0
 11 37  1  0
 15 38  1  0
 16 39  1  0
 17 40  1  0
 18 41  1  0
 19 42  1  0
 20 43  1  0
 22 44  1  0
 22 45  1  0
 24 46  1  0
 24 47  1  0
 24 48  1  0
 27 49  1  0
 28 50  1  0
M  CHG  1  22   1
M  END
>  <meeko>  (9) 
{"is_sidechain": [false], "free_energy": -8.491, "intermolecular_energy": -10.461, "internal_energy": -1.175}

$$$$
