
     RDKit          3D

 20 22  0  0  0  0  0  0  0  0999 V2000
    3.4940   -0.6520    6.8900 C   0  0  0  0  0  0  0  0  0  0  0  0
    3.8400   -0.0850    8.2650 C   0  0  1  0  0  0  0  0  0  0  0  0
    3.3660    1.3770    8.4170 C   0  0  0  0  0  0  0  0  0  0  0  0
    1.9150    1.5010    8.6110 N   0  0  0  0  0  0  0  0  0  0  0  0
    1.4410    0.7120    9.7790 C   0  0  0  0  0  0  0  0  0  0  0  0
    1.8510   -0.7510    9.6540 C   0  0  0  0  0  0  0  0  0  0  0  0
    3.2840   -0.9230    9.3630 N   0  0  0  0  0  0  0  0  0  0  0  0
    4.1360   -2.2810    9.9500 S   0  0  1  0  0  0  0  0  0  0  0  0
    5.5200   -2.0290    9.6940 O   0  0  0  0  0  0  0  0  0  0  0  0
    3.8100   -2.4600   11.3370 O   0  0  0  0  0  0  0  0  0  0  0  0
    3.5630   -3.7210    9.0350 C   0  0  0  0  0  0  0  0  0  0  0  0
    2.2270   -3.8300    8.6960 C   0  0  0  0  0  0  0  0  0  0  0  0
    1.7240   -4.9390    7.9580 C   0  0  0  0  0  0  0  0  0  0  0  0
    2.5620   -5.9560    7.5570 C   0  0  0  0  0  0  0  0  0  0  0  0
    3.9440   -5.9200    7.8890 C   0  0  0  0  0  0  0  0  0  0  0  0
    4.8410   -6.9600    7.4890 C   0  0  0  0  0  0  0  0  0  0  0  0
    6.1530   -6.9410    7.8050 N   0  0  0  0  0  0  0  0  0  0  0  0
    6.6750   -5.8910    8.5190 C   0  0  0  0  0  0  0  0  0  0  0  0
    5.8840   -4.8090    8.9600 C   0  0  0  0  0  0  0  0  0  0  0  0
    4.4800   -4.7920    8.6460 C   0  0  0  0  0  0  0  0  0  0  0  0
  2  1  1  6
  3  2  1  0
  4  3  1  0
  5  4  1  0
  6  5  1  0
  7  6  1  0
  7  2  1  0
  8  7  1  6
  9  8  2  0
 10  8  2  0
 11  8  1  0
 12 11  2  0
 13 12  1  0
 14 13  2  0
 15 14  1  0
 16 15  1  0
 17 16  2  0
 18 17  1  0
 19 18  2  0
 20 15  2  0
 20 11  1  0
 20 19  1  0
M  CHG  1   4   1
M  END
$$$$
