
     RDKit          3D

 36 43  0  0  0  0  0  0  0  0999 V2000
    8.8220    5.7270    0.4460 C   0  0  0  0  0  0  0  0  0  0  0  0
    7.9220    6.5150    1.2960 N   0  0  0  0  0  0  0  0  0  0  0  0
    8.1170    7.9520    1.1670 C   0  0  2  0  0  0  0  0  0  0  0  0
    8.1120    8.6380    2.5740 C   0  0  0  0  0  0  0  0  0  0  0  0
    8.1970   10.1370    2.4490 C   0  0  1  0  0  0  0  0  0  0  0  0
    8.1010   10.6600    1.1210 O   0  0  0  0  0  0  0  0  0  0  0  0
    7.1640   10.0950    0.2080 C   0  0  1  0  0  0  0  0  0  0  0  0
    7.8670   10.3340   -1.1700 C   0  0  0  0  0  0  0  0  0  0  0  0
    6.9390    8.5730    0.3460 C   0  0  2  0  0  0  0  0  0  0  0  0
    5.7730    8.2760    1.0770 O   0  0  0  0  0  0  0  0  0  0  0  0
    4.6360    7.7770    0.3580 C   0  0  0  0  0  0  0  0  0  0  0  0
    5.8800   10.7810    0.3890 N   0  0  0  0  0  0  0  0  0  0  0  0
    4.8530   10.9370   -0.5960 C   0  0  0  0  0  0  0  0  0  0  0  0
    4.7670   10.5640   -1.9440 C   0  0  0  0  0  0  0  0  0  0  0  0
    3.6280   10.8610   -2.6870 C   0  0  0  0  0  0  0  0  0  0  0  0
    2.5540   11.5170   -2.1100 C   0  0  0  0  0  0  0  0  0  0  0  0
    2.6170   11.8980   -0.7660 C   0  0  0  0  0  0  0  0  0  0  0  0
    3.7640   11.6060   -0.0050 C   0  0  0  0  0  0  0  0  0  0  0  0
    4.0940   11.8410    1.3650 C   0  0  0  0  0  0  0  0  0  0  0  0
    3.4090   12.4390    2.4470 C   0  0  0  0  0  0  0  0  0  0  0  0
    3.9900   12.4450    3.7320 C   0  0  0  0  0  0  0  0  0  0  0  0
    5.2840   11.8690    3.9370 C   0  0  0  0  0  0  0  0  0  0  0  0
    6.1320   11.6660    5.0820 C   0  0  0  0  0  0  0  0  0  0  0  0
    6.0030   11.9910    6.4510 C   0  0  0  0  0  0  0  0  0  0  0  0
    7.0290   11.6460    7.3530 C   0  0  0  0  0  0  0  0  0  0  0  0
    8.1610   10.9880    6.8990 C   0  0  0  0  0  0  0  0  0  0  0  0
    8.3140   10.6590    5.5490 C   0  0  0  0  0  0  0  0  0  0  0  0
    7.2940   10.9990    4.6510 C   0  0  0  0  0  0  0  0  0  0  0  0
    7.1800   10.7910    3.2680 N   0  0  0  0  0  0  0  0  0  0  0  0
    5.9670   11.3110    2.8360 C   0  0  0  0  0  0  0  0  0  0  0  0
    5.3910   11.3040    1.5710 C   0  0  0  0  0  0  0  0  0  0  0  0
    3.0620   13.0460    4.6220 C   0  0  0  0  0  0  0  0  0  0  0  0
    3.1760   13.2460    5.8410 O   0  0  0  0  0  0  0  0  0  0  0  0
    1.9410   13.4070    3.9140 N   0  0  0  0  0  0  0  0  0  0  0  0
    2.1080   13.1190    2.5060 C   0  0  2  0  0  0  0  0  0  0  0  0
    1.0350   12.4940    1.9120 O   0  0  0  0  0  0  0  0  0  0  0  0
  2  1  1  0
  3  2  1  1
  4  3  1  0
  5  4  1  6
  6  5  1  0
  7  6  1  0
  7  8  1  6
  9  7  1  0
  9  3  1  0
  9 10  1  1
 11 10  1  0
 12  7  1  0
 13 12  1  0
 14 13  2  0
 15 14  1  0
 16 15  2  0
 17 16  1  0
 18 17  2  0
 18 13  1  0
 19 18  1  0
 20 19  1  0
 21 20  2  0
 22 21  1  0
 23 22  1  0
 24 23  2  0
 25 24  1  0
 26 25  2  0
 27 26  1  0
 28 27  2  0
 28 23  1  0
 29  5  1  0
 29 28  1  0
 30 22  2  0
 30 29  1  0
 31 19  2  0
 31 12  1  0
 31 30  1  0
 32 21  1  0
 33 32  2  0
 34 32  1  0
 35 34  1  0
 35 20  1  0
 35 36  1  1
M  CHG  1   2   1
M  END
$$$$
