2w4x_ligand
     RDKit          3D

 33 33  0  0  0  0  0  0  0  0999 V2000
   16.4150    0.9900   -3.1910 C   0  0  0  0  0  0  0  0  0  0  0  0
   15.3120    1.8650   -3.5410 N   0  0  0  0  0  0  0  0  0  0  0  0
   14.9710    2.0540   -4.9860 N   0  0  0  0  0  0  0  0  0  0  0  0
   14.9870    3.2380   -5.3380 O   0  0  0  0  0  0  0  0  0  0  0  0
   14.5220    2.4410   -2.5530 C   0  0  0  0  0  0  0  0  0  0  0  0
   13.7710    1.7910   -1.8220 O   0  0  0  0  0  0  0  0  0  0  0  0
   14.6010    3.8120   -2.4440 N   0  0  0  0  0  0  0  0  0  0  0  0
   13.9430    4.5390   -1.3450 C   0  0  2  0  0  0  0  0  0  0  0  0
   12.4450    4.8190   -1.6070 C   0  0  1  0  0  0  0  0  0  0  0  0
   11.6490    3.7760   -1.0220 O   0  0  0  0  0  0  0  0  0  0  0  0
   11.9930    6.1690   -1.0290 C   0  0  2  0  0  0  0  0  0  0  0  0
   12.2450    7.1900   -2.0090 O   0  0  0  0  0  0  0  0  0  0  0  0
   12.7420    6.5160    0.2700 C   0  0  1  0  0  0  0  0  0  0  0  0
   12.3350    5.5970    1.4350 C   0  0  0  0  0  0  0  0  0  0  0  0
   11.9500    6.3880    2.5620 O   0  0  0  0  0  0  0  0  0  0  0  0
   14.1780    6.4990    0.1280 O   0  0  0  0  0  0  0  0  0  0  0  0
   14.6730    5.8590   -1.0360 C   0  0  1  0  0  0  0  0  0  0  0  0
   16.0460    5.5590   -0.7890 O   0  0  0  0  0  0  0  0  0  0  0  0
   16.4978    0.9244   -2.0961 H   0  0  0  0  0  0  0  0  0  0  0  0
   16.2336   -0.0125   -3.6058 H   0  0  0  0  0  0  0  0  0  0  0  0
   17.3500    1.3947   -3.6058 H   0  0  0  0  0  0  0  0  0  0  0  0
   15.5070    4.2030   -2.6840 H   0  0  0  0  0  0  0  0  0  0  0  0
   14.0015    3.8732   -0.4713 H   0  0  0  0  0  0  0  0  0  0  0  0
   12.3071    4.8516   -2.6978 H   0  0  0  0  0  0  0  0  0  0  0  0
   11.3180    4.1460   -0.1700 H   0  0  0  0  0  0  0  0  0  0  0  0
   10.9214    6.1050   -0.7892 H   0  0  0  0  0  0  0  0  0  0  0  0
   12.2750    6.7580   -2.8830 H   0  0  0  0  0  0  0  0  0  0  0  0
   12.4402    7.5486    0.4992 H   0  0  0  0  0  0  0  0  0  0  0  0
   11.4887    4.9666    1.1247 H   0  0  0  0  0  0  0  0  0  0  0  0
   13.1884    4.9605    1.7116 H   0  0  0  0  0  0  0  0  0  0  0  0
   11.6530    5.7720    3.2520 H   0  0  0  0  0  0  0  0  0  0  0  0
   14.5223    6.5272   -1.8967 H   0  0  0  0  0  0  0  0  0  0  0  0
   16.5200    6.1380   -1.4120 H   0  0  0  0  0  0  0  0  0  0  0  0
  1  2  1  0
  2  3  1  0
  3  4  2  0
  2  5  1  0
  5  6  2  0
  5  7  1  0
  7  8  1  0
  8  9  1  0
  9 10  1  0
  9 11  1  0
 11 12  1  0
 11 13  1  0
 13 14  1  0
 14 15  1  0
 13 16  1  0
 16 17  1  0
 17 18  1  0
 17  8  1  0
  1 19  1  0
  1 20  1  0
  1 21  1  0
  7 22  1  0
  8 23  1  1
  9 24  1  6
 10 25  1  0
 11 26  1  1
 12 27  1  0
 13 28  1  1
 14 29  1  0
 14 30  1  0
 15 31  1  0
 17 32  1  6
 18 33  1  0
M  END
>  <meeko>  (1) 
{"is_sidechain": [false], "free_energy": -6.127, "intermolecular_energy": -8.276, "internal_energy": -0.699}

$$$$
2w4x_ligand
     RDKit          3D

 33 33  0  0  0  0  0  0  0  0999 V2000
   16.1250    1.2560   -4.2430 C   0  0  0  0  0  0  0  0  0  0  0  0
   16.4500    1.9350   -3.0020 N   0  0  0  0  0  0  0  0  0  0  0  0
   17.5410    1.3810   -2.1410 N   0  0  0  0  0  0  0  0  0  0  0  0
   17.6550    1.9700   -1.0610 O   0  0  0  0  0  0  0  0  0  0  0  0
   15.8300    3.1320   -2.6650 C   0  0  0  0  0  0  0  0  0  0  0  0
   16.1610    4.2220   -3.1370 O   0  0  0  0  0  0  0  0  0  0  0  0
   14.8200    3.0440   -1.7330 N   0  0  0  0  0  0  0  0  0  0  0  0
   13.9740    4.2030   -1.3980 C   0  0  2  0  0  0  0  0  0  0  0  0
   14.5470    5.0670   -0.2510 C   0  0  1  0  0  0  0  0  0  0  0  0
   15.3220    6.1440   -0.8010 O   0  0  0  0  0  0  0  0  0  0  0  0
   13.4460    5.6570    0.6430 C   0  0  2  0  0  0  0  0  0  0  0  0
   13.1310    4.6980    1.6670 O   0  0  0  0  0  0  0  0  0  0  0  0
   12.1710    5.9830   -0.1570 C   0  0  1  0  0  0  0  0  0  0  0  0
   12.3770    7.1690   -1.1150 C   0  0  0  0  0  0  0  0  0  0  0  0
   13.3870    8.0370   -0.5960 O   0  0  0  0  0  0  0  0  0  0  0  0
   11.6530    4.8570   -0.8960 O   0  0  0  0  0  0  0  0  0  0  0  0
   12.5400    3.7610   -1.0510 C   0  0  1  0  0  0  0  0  0  0  0  0
   12.0420    2.9780   -2.1340 O   0  0  0  0  0  0  0  0  0  0  0  0
   15.6601    0.2847   -4.0186 H   0  0  0  0  0  0  0  0  0  0  0  0
   15.4242    1.8721   -4.8254 H   0  0  0  0  0  0  0  0  0  0  0  0
   17.0444    1.0966   -4.8254 H   0  0  0  0  0  0  0  0  0  0  0  0
   14.2970    2.1730   -1.7580 H   0  0  0  0  0  0  0  0  0  0  0  0
   13.9573    4.8311   -2.3009 H   0  0  0  0  0  0  0  0  0  0  0  0
   15.1734    4.4094    0.3696 H   0  0  0  0  0  0  0  0  0  0  0  0
   16.1710    6.1390   -0.2990 H   0  0  0  0  0  0  0  0  0  0  0  0
   13.8157    6.5969    1.0789 H   0  0  0  0  0  0  0  0  0  0  0  0
   12.5530    5.1410    2.3160 H   0  0  0  0  0  0  0  0  0  0  0  0
   11.4254    6.2564    0.6041 H   0  0  0  0  0  0  0  0  0  0  0  0
   12.6889    6.7931   -2.1006 H   0  0  0  0  0  0  0  0  0  0  0  0
   11.4335    7.7258   -1.2140 H   0  0  0  0  0  0  0  0  0  0  0  0
   13.6790    8.6040   -1.3290 H   0  0  0  0  0  0  0  0  0  0  0  0
   12.5871    3.2073   -0.1017 H   0  0  0  0  0  0  0  0  0  0  0  0
   12.0510    2.0710   -1.7810 H   0  0  0  0  0  0  0  0  0  0  0  0
  1  2  1  0
  2  3  1  0
  3  4  2  0
  2  5  1  0
  5  6  2  0
  5  7  1  0
  7  8  1  0
  8  9  1  0
  9 10  1  0
  9 11  1  0
 11 12  1  0
 11 13  1  0
 13 14  1  0
 14 15  1  0
 13 16  1  0
 16 17  1  0
 17 18  1  0
 17  8  1  0
  1 19  1  0
  1 20  1  0
  1 21  1  0
  7 22  1  0
  8 23  1  6
  9 24  1  1
 10 25  1  0
 11 26  1  1
 12 27  1  0
 13 28  1  1
 14 29  1  0
 14 30  1  0
 15 31  1  0
 17 32  1  1
 18 33  1  0
M  END
>  <meeko>  (2) 
{"is_sidechain": [false], "free_energy": -5.895, "intermolecular_energy": -7.804, "internal_energy": -0.857}

$$$$
2w4x_ligand
     RDKit          3D

 33 33  0  0  0  0  0  0  0  0999 V2000
   13.9040    7.3640    0.9000 C   0  0  0  0  0  0  0  0  0  0  0  0
   13.0930    6.2240    0.5150 N   0  0  0  0  0  0  0  0  0  0  0  0
   11.9330    5.8380    1.3790 N   0  0  0  0  0  0  0  0  0  0  0  0
   11.9340    6.4060    2.4760 O   0  0  0  0  0  0  0  0  0  0  0  0
   13.3260    5.5610   -0.6840 C   0  0  0  0  0  0  0  0  0  0  0  0
   12.5920    5.6670   -1.6700 O   0  0  0  0  0  0  0  0  0  0  0  0
   14.4290    4.7360   -0.7100 N   0  0  0  0  0  0  0  0  0  0  0  0
   14.8840    4.0950   -1.9550 C   0  0  2  0  0  0  0  0  0  0  0  0
   14.5530    2.5860   -2.0230 C   0  0  1  0  0  0  0  0  0  0  0  0
   13.3060    2.3960   -2.7100 O   0  0  0  0  0  0  0  0  0  0  0  0
   15.6430    1.7790   -2.7460 C   0  0  2  0  0  0  0  0  0  0  0  0
   16.6450    1.4070   -1.7840 O   0  0  0  0  0  0  0  0  0  0  0  0
   16.3020    2.5910   -3.8770 C   0  0  1  0  0  0  0  0  0  0  0  0
   15.3400    2.8240   -5.0550 C   0  0  0  0  0  0  0  0  0  0  0  0
   14.7340    1.5870   -5.4340 O   0  0  0  0  0  0  0  0  0  0  0  0
   16.8370    3.8570   -3.4380 O   0  0  0  0  0  0  0  0  0  0  0  0
   16.3950    4.3060   -2.1680 C   0  0  1  0  0  0  0  0  0  0  0  0
   16.6590    5.7070   -2.1100 O   0  0  0  0  0  0  0  0  0  0  0  0
   13.9494    7.4278    1.9972 H   0  0  0  0  0  0  0  0  0  0  0  0
   14.9205    7.2435    0.4973 H   0  0  0  0  0  0  0  0  0  0  0  0
   13.4568    8.2848    0.4973 H   0  0  0  0  0  0  0  0  0  0  0  0
   15.1990    5.0430   -0.1240 H   0  0  0  0  0  0  0  0  0  0  0  0
   14.3253    4.5875   -2.7645 H   0  0  0  0  0  0  0  0  0  0  0  0
   14.4899    2.2214   -0.9871 H   0  0  0  0  0  0  0  0  0  0  0  0
   12.7320    3.1450   -2.4230 H   0  0  0  0  0  0  0  0  0  0  0  0
   15.1782    0.8911   -3.1994 H   0  0  0  0  0  0  0  0  0  0  0  0
   17.2020    0.7190   -2.1930 H   0  0  0  0  0  0  0  0  0  0  0  0
   17.1454    1.9707   -4.2144 H   0  0  0  0  0  0  0  0  0  0  0  0
   14.5584    3.5367   -4.7532 H   0  0  0  0  0  0  0  0  0  0  0  0
   15.9016    3.2311   -5.9088 H   0  0  0  0  0  0  0  0  0  0  0  0
   14.5420    1.1020   -4.6150 H   0  0  0  0  0  0  0  0  0  0  0  0
   16.9204    3.7327   -1.3900 H   0  0  0  0  0  0  0  0  0  0  0  0
   16.4340    5.9420   -1.1920 H   0  0  0  0  0  0  0  0  0  0  0  0
  1  2  1  0
  2  3  1  0
  3  4  2  0
  2  5  1  0
  5  6  2  0
  5  7  1  0
  7  8  1  0
  8  9  1  0
  9 10  1  0
  9 11  1  0
 11 12  1  0
 11 13  1  0
 13 14  1  0
 14 15  1  0
 13 16  1  0
 16 17  1  0
 17 18  1  0
 17  8  1  0
  1 19  1  0
  1 20  1  0
  1 21  1  0
  7 22  1  0
  8 23  1  6
  9 24  1  1
 10 25  1  0
 11 26  1  6
 12 27  1  0
 13 28  1  6
 14 29  1  0
 14 30  1  0
 15 31  1  0
 17 32  1  1
 18 33  1  0
M  END
>  <meeko>  (3) 
{"is_sidechain": [false], "free_energy": -5.738, "intermolecular_energy": -7.851, "internal_energy": -0.599}

$$$$
2w4x_ligand
     RDKit          3D

 33 33  0  0  0  0  0  0  0  0999 V2000
   11.8810    5.4220   -1.4940 C   0  0  0  0  0  0  0  0  0  0  0  0
   12.3660    4.0720   -1.7140 N   0  0  0  0  0  0  0  0  0  0  0  0
   11.3940    2.9350   -1.6450 N   0  0  0  0  0  0  0  0  0  0  0  0
   11.9430    1.8300   -1.5820 O   0  0  0  0  0  0  0  0  0  0  0  0
   13.6870    3.8430   -2.0780 C   0  0  0  0  0  0  0  0  0  0  0  0
   14.6500    4.2950   -1.4540 O   0  0  0  0  0  0  0  0  0  0  0  0
   13.8750    3.0900   -3.2160 N   0  0  0  0  0  0  0  0  0  0  0  0
   15.2150    2.6390   -3.6320 C   0  0  2  0  0  0  0  0  0  0  0  0
   15.6290    3.1580   -5.0280 C   0  0  1  0  0  0  0  0  0  0  0  0
   16.3870    4.3700   -4.8860 O   0  0  0  0  0  0  0  0  0  0  0  0
   16.4730    2.1360   -5.8050 C   0  0  2  0  0  0  0  0  0  0  0  0
   15.5830    1.2570   -6.5140 O   0  0  0  0  0  0  0  0  0  0  0  0
   17.3700    1.3030   -4.8710 C   0  0  1  0  0  0  0  0  0  0  0  0
   18.5010    2.1450   -4.2550 C   0  0  0  0  0  0  0  0  0  0  0  0
   19.0670    2.9960   -5.2530 O   0  0  0  0  0  0  0  0  0  0  0  0
   16.6410    0.6390   -3.8170 O   0  0  0  0  0  0  0  0  0  0  0  0
   15.3190    1.1020   -3.5950 C   0  0  1  0  0  0  0  0  0  0  0  0
   14.9410    0.6630   -2.2920 O   0  0  0  0  0  0  0  0  0  0  0  0
   11.8116    5.6151   -0.4133 H   0  0  0  0  0  0  0  0  0  0  0  0
   12.5771    6.1407   -1.9510 H   0  0  0  0  0  0  0  0  0  0  0  0
   10.8866    5.5334   -1.9510 H   0  0  0  0  0  0  0  0  0  0  0  0
   13.1590    2.3900   -3.3820 H   0  0  0  0  0  0  0  0  0  0  0  0
   15.9156    3.0732   -2.9035 H   0  0  0  0  0  0  0  0  0  0  0  0
   14.7039    3.3378   -5.5953 H   0  0  0  0  0  0  0  0  0  0  0  0
   16.7830    4.3270   -3.9850 H   0  0  0  0  0  0  0  0  0  0  0  0
   17.1293    2.6818   -6.4988 H   0  0  0  0  0  0  0  0  0  0  0  0
   14.9470    1.8140   -7.0010 H   0  0  0  0  0  0  0  0  0  0  0  0
   17.8054    0.5273   -5.5181 H   0  0  0  0  0  0  0  0  0  0  0  0
   18.0956    2.7596   -3.4377 H   0  0  0  0  0  0  0  0  0  0  0  0
   19.2807    1.4757   -3.8626 H   0  0  0  0  0  0  0  0  0  0  0  0
   18.3660    3.1770   -5.9020 H   0  0  0  0  0  0  0  0  0  0  0  0
   14.6688    0.7082   -4.3901 H   0  0  0  0  0  0  0  0  0  0  0  0
   15.3510   -0.2180   -2.2210 H   0  0  0  0  0  0  0  0  0  0  0  0
  1  2  1  0
  2  3  1  0
  3  4  2  0
  2  5  1  0
  5  6  2  0
  5  7  1  0
  7  8  1  0
  8  9  1  0
  9 10  1  0
  9 11  1  0
 11 12  1  0
 11 13  1  0
 13 14  1  0
 14 15  1  0
 13 16  1  0
 16 17  1  0
 17 18  1  0
 17  8  1  0
  1 19  1  0
  1 20  1  0
  1 21  1  0
  7 22  1  0
  8 23  1  1
  9 24  1  6
 10 25  1  0
 11 26  1  6
 12 27  1  0
 13 28  1  6
 14 29  1  0
 14 30  1  0
 15 31  1  0
 17 32  1  6
 18 33  1  0
M  END
>  <meeko>  (4) 
{"is_sidechain": [false], "free_energy": -5.476, "intermolecular_energy": -7.136, "internal_energy": -0.96}

$$$$
2w4x_ligand
     RDKit          3D

 33 33  0  0  0  0  0  0  0  0999 V2000
   14.3100   13.2150  -10.9810 C   0  0  0  0  0  0  0  0  0  0  0  0
   14.5120   14.4940  -10.3260 N   0  0  0  0  0  0  0  0  0  0  0  0
   13.7840   15.6940  -10.8460 N   0  0  0  0  0  0  0  0  0  0  0  0
   12.6030   15.7380  -10.4890 O   0  0  0  0  0  0  0  0  0  0  0  0
   15.2890   14.5880   -9.1770 C   0  0  0  0  0  0  0  0  0  0  0  0
   16.2170   15.3900   -9.0520 O   0  0  0  0  0  0  0  0  0  0  0  0
   14.9810   13.7000   -8.1700 N   0  0  0  0  0  0  0  0  0  0  0  0
   15.6150   13.7890   -6.8430 C   0  0  2  0  0  0  0  0  0  0  0  0
   16.9600   13.0310   -6.7550 C   0  0  1  0  0  0  0  0  0  0  0  0
   18.0420   13.9380   -7.0240 O   0  0  0  0  0  0  0  0  0  0  0  0
   17.1830   12.3920   -5.3770 C   0  0  2  0  0  0  0  0  0  0  0  0
   16.5720   11.0890   -5.3760 O   0  0  0  0  0  0  0  0  0  0  0  0
   16.5710   13.2380   -4.2450 C   0  0  1  0  0  0  0  0  0  0  0  0
   17.3340   14.5580   -4.0350 C   0  0  0  0  0  0  0  0  0  0  0  0
   18.7390   14.2990   -3.9850 O   0  0  0  0  0  0  0  0  0  0  0  0
   15.1690   13.5230   -4.4350 O   0  0  0  0  0  0  0  0  0  0  0  0
   14.6640   13.2900   -5.7390 C   0  0  1  0  0  0  0  0  0  0  0  0
   13.4410   14.0180   -5.8440 O   0  0  0  0  0  0  0  0  0  0  0  0
   14.1859   12.4294  -10.2211 H   0  0  0  0  0  0  0  0  0  0  0  0
   13.4083   13.2631  -11.6092 H   0  0  0  0  0  0  0  0  0  0  0  0
   15.1826   12.9829  -11.6092 H   0  0  0  0  0  0  0  0  0  0  0  0
   14.0000   13.4440   -8.1180 H   0  0  0  0  0  0  0  0  0  0  0  0
   15.8322   14.8562   -6.6881 H   0  0  0  0  0  0  0  0  0  0  0  0
   16.9276   12.2246   -7.5025 H   0  0  0  0  0  0  0  0  0  0  0  0
   18.8610   13.3920   -6.9670 H   0  0  0  0  0  0  0  0  0  0  0  0
   18.2659   12.3246   -5.1958 H   0  0  0  0  0  0  0  0  0  0  0  0
   16.6330   10.7370   -4.4690 H   0  0  0  0  0  0  0  0  0  0  0  0
   16.6675   12.6141   -3.3442 H   0  0  0  0  0  0  0  0  0  0  0  0
   17.1176   15.2422   -4.8687 H   0  0  0  0  0  0  0  0  0  0  0  0
   17.0141   15.0173   -3.0881 H   0  0  0  0  0  0  0  0  0  0  0  0
   18.9870   14.2600   -3.0470 H   0  0  0  0  0  0  0  0  0  0  0  0
   14.5373   12.2064   -5.8795 H   0  0  0  0  0  0  0  0  0  0  0  0
   13.1380   14.0860   -4.9220 H   0  0  0  0  0  0  0  0  0  0  0  0
  1  2  1  0
  2  3  1  0
  3  4  2  0
  2  5  1  0
  5  6  2  0
  5  7  1  0
  7  8  1  0
  8  9  1  0
  9 10  1  0
  9 11  1  0
 11 12  1  0
 11 13  1  0
 13 14  1  0
 14 15  1  0
 13 16  1  0
 16 17  1  0
 17 18  1  0
 17  8  1  0
  1 19  1  0
  1 20  1  0
  1 21  1  0
  7 22  1  0
  8 23  1  1
  9 24  1  6
 10 25  1  0
 11 26  1  1
 12 27  1  0
 13 28  1  1
 14 29  1  0
 14 30  1  0
 15 31  1  0
 17 32  1  6
 18 33  1  0
M  END
>  <meeko>  (5) 
{"is_sidechain": [false], "free_energy": -5.198, "intermolecular_energy": -6.974, "internal_energy": -0.747}

$$$$
2w4x_ligand
     RDKit          3D

 33 33  0  0  0  0  0  0  0  0999 V2000
   12.5390    7.5160   -0.8900 C   0  0  0  0  0  0  0  0  0  0  0  0
   13.3920    6.8800    0.0970 N   0  0  0  0  0  0  0  0  0  0  0  0
   13.4730    7.4710    1.4700 N   0  0  0  0  0  0  0  0  0  0  0  0
   12.4900    7.2100    2.1710 O   0  0  0  0  0  0  0  0  0  0  0  0
   14.0450    5.6880   -0.1930 C   0  0  0  0  0  0  0  0  0  0  0  0
   14.1420    4.7560    0.6100 O   0  0  0  0  0  0  0  0  0  0  0  0
   14.6190    5.6060   -1.4420 N   0  0  0  0  0  0  0  0  0  0  0  0
   15.2060    4.3500   -1.9420 C   0  0  2  0  0  0  0  0  0  0  0  0
   16.5440    4.5560   -2.6910 C   0  0  1  0  0  0  0  0  0  0  0  0
   17.6390    4.3800   -1.7780 O   0  0  0  0  0  0  0  0  0  0  0  0
   16.7140    3.5780   -3.8620 C   0  0  2  0  0  0  0  0  0  0  0  0
   16.0970    4.1520   -5.0270 O   0  0  0  0  0  0  0  0  0  0  0  0
   16.0680    2.2110   -3.5680 C   0  0  1  0  0  0  0  0  0  0  0  0
   16.8310    1.4340   -2.4800 C   0  0  0  0  0  0  0  0  0  0  0  0
   18.2370    1.5290   -2.7170 O   0  0  0  0  0  0  0  0  0  0  0  0
   14.6750    2.3010   -3.2020 O   0  0  0  0  0  0  0  0  0  0  0  0
   14.2150    3.5940   -2.8450 C   0  0  1  0  0  0  0  0  0  0  0  0
   13.0010    3.4140   -2.1180 O   0  0  0  0  0  0  0  0  0  0  0  0
   11.7581    8.0983   -0.3790 H   0  0  0  0  0  0  0  0  0  0  0  0
   13.1431    8.1859   -1.5195 H   0  0  0  0  0  0  0  0  0  0  0  0
   12.0693    6.7459   -1.5195 H   0  0  0  0  0  0  0  0  0  0  0  0
   14.1300    6.1230   -2.1660 H   0  0  0  0  0  0  0  0  0  0  0  0
   15.4226    3.7463   -1.0483 H   0  0  0  0  0  0  0  0  0  0  0  0
   16.5346    5.5774   -3.0993 H   0  0  0  0  0  0  0  0  0  0  0  0
   18.4490    4.3740   -2.3400 H   0  0  0  0  0  0  0  0  0  0  0  0
   17.7893    3.4112   -4.0228 H   0  0  0  0  0  0  0  0  0  0  0  0
   16.6990    4.0060   -5.7800 H   0  0  0  0  0  0  0  0  0  0  0  0
   16.1300    1.6611   -4.5187 H   0  0  0  0  0  0  0  0  0  0  0  0
   16.5968    1.8608   -1.4936 H   0  0  0  0  0  0  0  0  0  0  0  0
   16.5276    0.3770   -2.5066 H   0  0  0  0  0  0  0  0  0  0  0  0
   18.5760    0.6210   -2.7820 H   0  0  0  0  0  0  0  0  0  0  0  0
   14.0878    4.1878   -3.7622 H   0  0  0  0  0  0  0  0  0  0  0  0
   13.3050    3.2150   -1.2150 H   0  0  0  0  0  0  0  0  0  0  0  0
  1  2  1  0
  2  3  1  0
  3  4  2  0
  2  5  1  0
  5  6  2  0
  5  7  1  0
  7  8  1  0
  8  9  1  0
  9 10  1  0
  9 11  1  0
 11 12  1  0
 11 13  1  0
 13 14  1  0
 14 15  1  0
 13 16  1  0
 16 17  1  0
 17 18  1  0
 17  8  1  0
  1 19  1  0
  1 20  1  0
  1 21  1  0
  7 22  1  0
  8 23  1  1
  9 24  1  6
 10 25  1  0
 11 26  1  6
 12 27  1  0
 13 28  1  6
 14 29  1  0
 14 30  1  0
 15 31  1  0
 17 32  1  6
 18 33  1  0
M  END
>  <meeko>  (6) 
{"is_sidechain": [false], "free_energy": -4.875, "intermolecular_energy": -6.716, "internal_energy": -0.568}

$$$$
2w4x_ligand
     RDKit          3D

 33 33  0  0  0  0  0  0  0  0999 V2000
   11.8080    4.9740   -1.0410 C   0  0  0  0  0  0  0  0  0  0  0  0
   13.2120    4.7130   -0.7850 N   0  0  0  0  0  0  0  0  0  0  0  0
   13.8470    5.3060    0.4330 N   0  0  0  0  0  0  0  0  0  0  0  0
   14.4390    6.3670    0.2060 O   0  0  0  0  0  0  0  0  0  0  0  0
   13.9330    3.8480   -1.6010 C   0  0  0  0  0  0  0  0  0  0  0  0
   13.4040    2.9890   -2.3100 O   0  0  0  0  0  0  0  0  0  0  0  0
   15.3030    3.9840   -1.5580 N   0  0  0  0  0  0  0  0  0  0  0  0
   16.1810    3.2450   -2.4820 C   0  0  2  0  0  0  0  0  0  0  0  0
   16.5670    1.8390   -1.9670 C   0  0  1  0  0  0  0  0  0  0  0  0
   15.6550    0.8640   -2.4970 O   0  0  0  0  0  0  0  0  0  0  0  0
   17.9980    1.4440   -2.3620 C   0  0  2  0  0  0  0  0  0  0  0  0
   18.9000    1.9420   -1.3590 O   0  0  0  0  0  0  0  0  0  0  0  0
   18.3950    2.0210   -3.7330 C   0  0  1  0  0  0  0  0  0  0  0  0
   17.6240    1.3550   -4.8860 C   0  0  0  0  0  0  0  0  0  0  0  0
   17.5780   -0.0590   -4.6810 O   0  0  0  0  0  0  0  0  0  0  0  0
   18.2390    3.4540   -3.8200 O   0  0  0  0  0  0  0  0  0  0  0  0
   17.4550    4.0500   -2.8010 C   0  0  1  0  0  0  0  0  0  0  0  0
   17.0590    5.3340   -3.2830 O   0  0  0  0  0  0  0  0  0  0  0  0
   11.2733    5.0734   -0.0849 H   0  0  0  0  0  0  0  0  0  0  0  0
   11.7073    5.9063   -1.6161 H   0  0  0  0  0  0  0  0  0  0  0  0
   11.3790    4.1402   -1.6161 H   0  0  0  0  0  0  0  0  0  0  0  0
   15.6280    4.9290   -1.3820 H   0  0  0  0  0  0  0  0  0  0  0  0
   15.5939    3.1047   -3.4016 H   0  0  0  0  0  0  0  0  0  0  0  0
   16.5132    1.8695   -0.8687 H   0  0  0  0  0  0  0  0  0  0  0  0
   14.8340    0.9530   -1.9580 H   0  0  0  0  0  0  0  0  0  0  0  0
   18.0500    0.3476   -2.4339 H   0  0  0  0  0  0  0  0  0  0  0  0
   18.4130    2.5940   -0.8240 H   0  0  0  0  0  0  0  0  0  0  0  0
   19.4664    1.7928   -3.8330 H   0  0  0  0  0  0  0  0  0  0  0  0
   16.5992    1.7533   -4.9188 H   0  0  0  0  0  0  0  0  0  0  0  0
   18.1339    1.5690   -5.8369 H   0  0  0  0  0  0  0  0  0  0  0  0
   17.0140   -0.4290   -5.3800 H   0  0  0  0  0  0  0  0  0  0  0  0
   18.0531    4.0974   -1.8791 H   0  0  0  0  0  0  0  0  0  0  0  0
   17.3070    5.3090   -4.2240 H   0  0  0  0  0  0  0  0  0  0  0  0
  1  2  1  0
  2  3  1  0
  3  4  2  0
  2  5  1  0
  5  6  2  0
  5  7  1  0
  7  8  1  0
  8  9  1  0
  9 10  1  0
  9 11  1  0
 11 12  1  0
 11 13  1  0
 13 14  1  0
 14 15  1  0
 13 16  1  0
 16 17  1  0
 17 18  1  0
 17  8  1  0
  1 19  1  0
  1 20  1  0
  1 21  1  0
  7 22  1  0
  8 23  1  6
  9 24  1  1
 10 25  1  0
 11 26  1  6
 12 27  1  0
 13 28  1  6
 14 29  1  0
 14 30  1  0
 15 31  1  0
 17 32  1  1
 18 33  1  0
M  END
>  <meeko>  (7) 
{"is_sidechain": [false], "free_energy": -4.712, "intermolecular_energy": -6.106, "internal_energy": -0.958}

$$$$
2w4x_ligand
     RDKit          3D

 33 33  0  0  0  0  0  0  0  0999 V2000
   19.1530    5.0280   -7.6840 C   0  0  0  0  0  0  0  0  0  0  0  0
   17.9850    4.3560   -7.1480 N   0  0  0  0  0  0  0  0  0  0  0  0
   17.4720    3.1350   -7.8440 N   0  0  0  0  0  0  0  0  0  0  0  0
   16.2460    3.1420   -7.9990 O   0  0  0  0  0  0  0  0  0  0  0  0
   17.4080    4.7770   -5.9560 C   0  0  0  0  0  0  0  0  0  0  0  0
   17.2480    5.9650   -5.6640 O   0  0  0  0  0  0  0  0  0  0  0  0
   17.0390    3.7800   -5.0810 N   0  0  0  0  0  0  0  0  0  0  0  0
   16.2780    4.0710   -3.8530 C   0  0  2  0  0  0  0  0  0  0  0  0
   17.1780    4.3580   -2.6290 C   0  0  1  0  0  0  0  0  0  0  0  0
   17.3840    5.7740   -2.5040 O   0  0  0  0  0  0  0  0  0  0  0  0
   16.5710    3.8300   -1.3200 C   0  0  2  0  0  0  0  0  0  0  0  0
   16.9700    2.4580   -1.1560 O   0  0  0  0  0  0  0  0  0  0  0  0
   15.0340    3.9140   -1.3260 C   0  0  1  0  0  0  0  0  0  0  0  0
   14.5350    5.3680   -1.2630 C   0  0  0  0  0  0  0  0  0  0  0  0
   15.2600    6.0840   -0.2610 O   0  0  0  0  0  0  0  0  0  0  0  0
   14.4260    3.2490   -2.4530 O   0  0  0  0  0  0  0  0  0  0  0  0
   15.2990    2.9290   -3.5230 C   0  0  1  0  0  0  0  0  0  0  0  0
   14.4810    2.7010   -4.6690 O   0  0  0  0  0  0  0  0  0  0  0  0
   19.7806    5.3891   -6.8559 H   0  0  0  0  0  0  0  0  0  0  0  0
   19.7301    4.3238   -8.3013 H   0  0  0  0  0  0  0  0  0  0  0  0
   18.8343    5.8808   -8.3013 H   0  0  0  0  0  0  0  0  0  0  0  0
   16.7470    2.9150   -5.5260 H   0  0  0  0  0  0  0  0  0  0  0  0
   15.7130    4.9909   -4.0638 H   0  0  0  0  0  0  0  0  0  0  0  0
   18.1314    3.8359   -2.7975 H   0  0  0  0  0  0  0  0  0  0  0  0
   16.4870    6.1770   -2.5760 H   0  0  0  0  0  0  0  0  0  0  0  0
   16.9360    4.4522   -0.4895 H   0  0  0  0  0  0  0  0  0  0  0  0
   16.5930    1.9520   -1.8990 H   0  0  0  0  0  0  0  0  0  0  0  0
   14.7212    3.3825   -0.4151 H   0  0  0  0  0  0  0  0  0  0  0  0
   14.6888    5.8498   -2.2398 H   0  0  0  0  0  0  0  0  0  0  0  0
   13.4641    5.3746   -1.0118 H   0  0  0  0  0  0  0  0  0  0  0  0
   15.1380    7.0300   -0.4430 H   0  0  0  0  0  0  0  0  0  0  0  0
   15.8997    2.0528   -3.2377 H   0  0  0  0  0  0  0  0  0  0  0  0
   13.7030    2.2420   -4.3050 H   0  0  0  0  0  0  0  0  0  0  0  0
  1  2  1  0
  2  3  1  0
  3  4  2  0
  2  5  1  0
  5  6  2  0
  5  7  1  0
  7  8  1  0
  8  9  1  0
  9 10  1  0
  9 11  1  0
 11 12  1  0
 11 13  1  0
 13 14  1  0
 14 15  1  0
 13 16  1  0
 16 17  1  0
 17 18  1  0
 17  8  1  0
  1 19  1  0
  1 20  1  0
  1 21  1  0
  7 22  1  0
  8 23  1  6
  9 24  1  6
 10 25  1  0
 11 26  1  1
 12 27  1  0
 13 28  1  1
 14 29  1  0
 14 30  1  0
 15 31  1  0
 17 32  1  1
 18 33  1  0
M  END
>  <meeko>  (8) 
{"is_sidechain": [false], "free_energy": -4.636, "intermolecular_energy": -5.966, "internal_energy": -0.995}

$$$$
2w4x_ligand
     RDKit          3D

 33 33  0  0  0  0  0  0  0  0999 V2000
   11.5570    4.9410   -1.8800 C   0  0  0  0  0  0  0  0  0  0  0  0
   12.4640    3.8370   -1.6240 N   0  0  0  0  0  0  0  0  0  0  0  0
   11.8980    2.4650   -1.4380 N   0  0  0  0  0  0  0  0  0  0  0  0
   12.6980    1.5670   -1.7190 O   0  0  0  0  0  0  0  0  0  0  0  0
   13.8400    4.0310   -1.6460 C   0  0  0  0  0  0  0  0  0  0  0  0
   14.4490    4.6640   -0.7800 O   0  0  0  0  0  0  0  0  0  0  0  0
   14.5050    3.4900   -2.7240 N   0  0  0  0  0  0  0  0  0  0  0  0
   15.9770    3.4820   -2.8000 C   0  0  2  0  0  0  0  0  0  0  0  0
   16.5590    4.7220   -3.5170 C   0  0  1  0  0  0  0  0  0  0  0  0
   16.8920    5.7280   -2.5460 O   0  0  0  0  0  0  0  0  0  0  0  0
   17.8170    4.3880   -4.3340 C   0  0  2  0  0  0  0  0  0  0  0  0
   17.4060    3.9580   -5.6430 O   0  0  0  0  0  0  0  0  0  0  0  0
   18.6520    3.2770   -3.6730 C   0  0  1  0  0  0  0  0  0  0  0  0
   19.3190    3.7530   -2.3700 C   0  0  0  0  0  0  0  0  0  0  0  0
   20.4260    2.9040   -2.0580 O   0  0  0  0  0  0  0  0  0  0  0  0
   17.9010    2.0720   -3.4120 O   0  0  0  0  0  0  0  0  0  0  0  0
   16.4910    2.1990   -3.4790 C   0  0  1  0  0  0  0  0  0  0  0  0
   15.9420    1.0800   -2.7840 O   0  0  0  0  0  0  0  0  0  0  0  0
   11.2118    5.3612   -0.9238 H   0  0  0  0  0  0  0  0  0  0  0  0
   12.0799    5.7194   -2.4551 H   0  0  0  0  0  0  0  0  0  0  0  0
   10.6920    4.5791   -2.4551 H   0  0  0  0  0  0  0  0  0  0  0  0
   14.0910    2.6400   -3.0930 H   0  0  0  0  0  0  0  0  0  0  0  0
   16.3292    3.5134   -1.7584 H   0  0  0  0  0  0  0  0  0  0  0  0
   15.7885    5.0873   -4.2119 H   0  0  0  0  0  0  0  0  0  0  0  0
   16.6350    6.5850   -2.9590 H   0  0  0  0  0  0  0  0  0  0  0  0
   18.4465    5.2883   -4.3908 H   0  0  0  0  0  0  0  0  0  0  0  0
   18.1280    3.4170   -6.0140 H   0  0  0  0  0  0  0  0  0  0  0  0
   19.4299    3.0342   -4.4118 H   0  0  0  0  0  0  0  0  0  0  0  0
   19.6749    4.7860   -2.4975 H   0  0  0  0  0  0  0  0  0  0  0  0
   18.5868    3.7134   -1.5501 H   0  0  0  0  0  0  0  0  0  0  0  0
   20.1260    1.9880   -2.1830 H   0  0  0  0  0  0  0  0  0  0  0  0
   16.1913    2.2430   -4.5365 H   0  0  0  0  0  0  0  0  0  0  0  0
   15.9760    1.3530   -1.8500 H   0  0  0  0  0  0  0  0  0  0  0  0
  1  2  1  0
  2  3  1  0
  3  4  2  0
  2  5  1  0
  5  6  2  0
  5  7  1  0
  7  8  1  0
  8  9  1  0
  9 10  1  0
  9 11  1  0
 11 12  1  0
 11 13  1  0
 13 14  1  0
 14 15  1  0
 13 16  1  0
 16 17  1  0
 17 18  1  0
 17  8  1  0
  1 19  1  0
  1 20  1  0
  1 21  1  0
  7 22  1  0
  8 23  1  1
  9 24  1  6
 10 25  1  0
 11 26  1  6
 12 27  1  0
 13 28  1  6
 14 29  1  0
 14 30  1  0
 15 31  1  0
 17 32  1  6
 18 33  1  0
M  END
>  <meeko>  (9) 
{"is_sidechain": [false], "free_energy": -4.633, "intermolecular_energy": -6.184, "internal_energy": -0.773}

$$$$
