
     RDKit          3D

 15 15  0  0  0  0  0  0  0  0999 V2000
  -13.0910   10.5780    7.2080 C   0  0  0  0  0  0  0  0  0  0  0  0
  -13.2430   11.0800    5.9300 C   0  0  0  0  0  0  0  0  0  0  0  0
  -14.6200   11.4810    5.5020 C   0  0  0  0  0  0  0  0  0  0  0  0
  -12.0830   11.2520    4.9630 C   0  0  1  0  0  0  0  0  0  0  0  0
  -10.7720   10.6470    5.4080 C   0  0  0  0  0  0  0  0  0  0  0  0
  -10.0510   10.2260    4.2110 N   0  0  0  0  0  0  0  0  0  0  0  0
  -10.9180   10.4490    3.0310 C   0  0  2  0  0  0  0  0  0  0  0  0
  -10.4670   11.7120    2.2630 C   0  0  0  0  0  0  0  0  0  0  0  0
   -9.3260   12.1230    2.4520 O   0  0  0  0  0  0  0  0  0  0  0  0
  -11.2440   12.2670    1.4840 O   0  0  0  0  0  0  0  0  0  0  0  0
  -12.3370   10.6090    3.5880 C   0  0  1  0  0  0  0  0  0  0  0  0
  -13.0450    9.2380    3.7100 C   0  0  0  0  0  0  0  0  0  0  0  0
  -13.8630    8.8080    2.4870 C   0  0  0  0  0  0  0  0  0  0  0  0
  -14.5290    7.7800    2.5690 O   0  0  0  0  0  0  0  0  0  0  0  0
  -13.8520    9.4850    1.4600 O   0  0  0  0  0  0  0  0  0  0  0  0
  2  1  2  0
  3  2  1  0
  4  2  1  1
  5  4  1  0
  6  5  1  0
  7  6  1  0
  7  8  1  1
  9  8  2  0
 10  8  1  0
 11  7  1  0
 11  4  1  0
 11 12  1  1
 13 12  1  0
 14 13  1  0
 15 13  2  0
M  CHG  3   6   1  10  -1  14  -1
M  END
$$$$
