4abg_ligand
     RDKit          3D

 36 37  0  0  0  0  0  0  0  0999 V2000
  -10.7250    5.3380   16.3140 C   0  0  0  0  0  0  0  0  0  0  0  0
   -9.4770    4.9650   17.0580 N   0  0  0  0  0  0  0  0  0  0  0  0
   -8.3260    5.9440   16.8570 C   0  0  0  0  0  0  0  0  0  0  0  0
   -7.6400    5.7590   15.4850 C   0  0  0  0  0  0  0  0  0  0  0  0
   -7.2360    4.3450   15.2860 N   0  0  0  0  0  0  0  0  0  0  0  0
   -6.2090    4.1160   14.3660 C   0  0  0  0  0  0  0  0  0  0  0  0
   -5.2750    5.1310   14.1020 C   0  0  0  0  0  0  0  0  0  0  0  0
   -4.1960    4.9390   13.2380 C   0  0  0  0  0  0  0  0  0  0  0  0
   -4.0130    3.7130   12.6100 C   0  0  0  0  0  0  0  0  0  0  0  0
   -4.9190    2.6700   12.8380 C   0  0  0  0  0  0  0  0  0  0  0  0
   -4.7150    1.3410   12.1650 C   0  0  0  0  0  0  0  0  0  0  0  0
   -3.2850    1.0590   11.9140 N   0  0  0  0  0  0  0  0  0  0  0  0
   -6.0060    2.8850   13.7160 C   0  0  0  0  0  0  0  0  0  0  0  0
   -8.3260    3.3640   15.4420 C   0  0  0  0  0  0  0  0  0  0  0  0
   -9.0190    3.5310   16.8160 C   0  0  0  0  0  0  0  0  0  0  0  0
  -11.5229    5.5765   17.0327 H   0  0  0  0  0  0  0  0  0  0  0  0
  -10.5264    6.2161   15.6819 H   0  0  0  0  0  0  0  0  0  0  0  0
  -11.0408    4.4950   15.6819 H   0  0  0  0  0  0  0  0  0  0  0  0
   -9.7190    5.0180   18.0570 H   0  0  0  0  0  0  0  0  0  0  0  0
   -8.7172    6.9700   16.9227 H   0  0  0  0  0  0  0  0  0  0  0  0
   -7.5770    5.7522   17.6394 H   0  0  0  0  0  0  0  0  0  0  0  0
   -8.3412    6.0495   14.6888 H   0  0  0  0  0  0  0  0  0  0  0  0
   -6.7406    6.3914   15.4516 H   0  0  0  0  0  0  0  0  0  0  0  0
   -5.3978    6.1083   14.5917 H   0  0  0  0  0  0  0  0  0  0  0  0
   -3.4883    5.7606   13.0536 H   0  0  0  0  0  0  0  0  0  0  0  0
   -3.1578    3.5621   11.9348 H   0  0  0  0  0  0  0  0  0  0  0  0
   -5.1247    0.5499   12.8102 H   0  0  0  0  0  0  0  0  0  0  0  0
   -5.2304    1.3702   11.1937 H   0  0  0  0  0  0  0  0  0  0  0  0
   -2.8560    1.7800   11.3210 H   0  0  0  0  0  0  0  0  0  0  0  0
   -2.7560    1.0130   12.7930 H   0  0  0  0  0  0  0  0  0  0  0  0
   -3.1620    0.1560   11.4390 H   0  0  0  0  0  0  0  0  0  0  0  0
   -6.7154    2.0639   13.8966 H   0  0  0  0  0  0  0  0  0  0  0  0
   -9.0665    3.5167   14.6430 H   0  0  0  0  0  0  0  0  0  0  0  0
   -7.9019    2.3509   15.3803 H   0  0  0  0  0  0  0  0  0  0  0  0
   -9.8957    2.8677   16.8538 H   0  0  0  0  0  0  0  0  0  0  0  0
   -8.2886    3.2728   17.5969 H   0  0  0  0  0  0  0  0  0  0  0  0
  1  2  1  0
  2  3  1  0
  3  4  1  0
  4  5  1  0
  5  6  1  0
  6  7  2  0
  7  8  1  0
  8  9  2  0
  9 10  1  0
 10 11  1  0
 11 12  1  0
 10 13  2  0
  5 14  1  0
 14 15  1  0
 15  2  1  0
 13  6  1  0
  1 16  1  0
  1 17  1  0
  1 18  1  0
  2 19  1  0
  3 20  1  0
  3 21  1  0
  4 22  1  0
  4 23  1  0
  7 24  1  0
  8 25  1  0
  9 26  1  0
 11 27  1  0
 11 28  1  0
 12 29  1  0
 12 30  1  0
 12 31  1  0
 13 32  1  0
 14 33  1  0
 14 34  1  0
 15 35  1  0
 15 36  1  0
M  CHG  2   2   1  12   1
M  END
>  <meeko>  (1) 
{"is_sidechain": [false], "free_energy": -4.961, "intermolecular_energy": -5.686, "internal_energy": -0.207}

$$$$
4abg_ligand
     RDKit          3D

 36 37  0  0  0  0  0  0  0  0999 V2000
    1.0000    0.1950   20.6880 C   0  0  0  0  0  0  0  0  0  0  0  0
    1.3470    0.1070   19.2320 N   0  0  0  0  0  0  0  0  0  0  0  0
    0.1830   -0.3270   18.3480 C   0  0  0  0  0  0  0  0  0  0  0  0
   -0.0810   -1.8460   18.4430 C   0  0  0  0  0  0  0  0  0  0  0  0
    1.1600   -2.6140   18.1790 N   0  0  0  0  0  0  0  0  0  0  0  0
    0.9960   -3.9340   17.7500 C   0  0  0  0  0  0  0  0  0  0  0  0
    1.8260   -4.9400   18.2700 C   0  0  0  0  0  0  0  0  0  0  0  0
    1.6710   -6.2830   17.9220 C   0  0  0  0  0  0  0  0  0  0  0  0
    0.6660   -6.6640   17.0410 C   0  0  0  0  0  0  0  0  0  0  0  0
   -0.1860   -5.6980   16.4930 C   0  0  0  0  0  0  0  0  0  0  0  0
   -1.2780   -6.1130   15.5470 C   0  0  0  0  0  0  0  0  0  0  0  0
   -2.6230   -5.8270   16.0900 N   0  0  0  0  0  0  0  0  0  0  0  0
   -0.0110   -4.3430   16.8570 C   0  0  0  0  0  0  0  0  0  0  0  0
    2.3070   -2.2460   19.0320 C   0  0  0  0  0  0  0  0  0  0  0  0
    2.5900   -0.7280   18.9420 C   0  0  0  0  0  0  0  0  0  0  0  0
    1.8913   -0.0310   21.2917 H   0  0  0  0  0  0  0  0  0  0  0  0
    0.6478    1.2109   20.9203 H   0  0  0  0  0  0  0  0  0  0  0  0
    0.2063   -0.5303   20.9203 H   0  0  0  0  0  0  0  0  0  0  0  0
    1.5780    1.0670   18.9390 H   0  0  0  0  0  0  0  0  0  0  0  0
   -0.7228    0.2113   18.6639 H   0  0  0  0  0  0  0  0  0  0  0  0
    0.4423   -0.0919   17.3052 H   0  0  0  0  0  0  0  0  0  0  0  0
   -0.4458   -2.0861   19.4526 H   0  0  0  0  0  0  0  0  0  0  0  0
   -0.8329   -2.1209   17.6886 H   0  0  0  0  0  0  0  0  0  0  0  0
    2.6238   -4.6610   18.9740 H   0  0  0  0  0  0  0  0  0  0  0  0
    2.3457   -7.0413   18.3460 H   0  0  0  0  0  0  0  0  0  0  0  0
    0.5402   -7.7238   16.7745 H   0  0  0  0  0  0  0  0  0  0  0  0
   -1.1540   -5.5663   14.6006 H   0  0  0  0  0  0  0  0  0  0  0  0
   -1.1986   -7.1994   15.3939 H   0  0  0  0  0  0  0  0  0  0  0  0
   -3.2630   -5.4920   15.3580 H   0  0  0  0  0  0  0  0  0  0  0  0
   -3.0370   -6.6640   16.5170 H   0  0  0  0  0  0  0  0  0  0  0  0
   -2.5840   -5.1030   16.8190 H   0  0  0  0  0  0  0  0  0  0  0  0
   -0.6832   -3.5850   16.4285 H   0  0  0  0  0  0  0  0  0  0  0  0
    2.0803   -2.5099   20.0756 H   0  0  0  0  0  0  0  0  0  0  0  0
    3.1960   -2.7928   18.6847 H   0  0  0  0  0  0  0  0  0  0  0  0
    3.3696   -0.4688   19.6734 H   0  0  0  0  0  0  0  0  0  0  0  0
    2.9151   -0.5050   17.9151 H   0  0  0  0  0  0  0  0  0  0  0  0
  1  2  1  0
  2  3  1  0
  3  4  1  0
  4  5  1  0
  5  6  1  0
  6  7  2  0
  7  8  1  0
  8  9  2  0
  9 10  1  0
 10 11  1  0
 11 12  1  0
 10 13  2  0
  5 14  1  0
 14 15  1  0
 15  2  1  0
 13  6  1  0
  1 16  1  0
  1 17  1  0
  1 18  1  0
  2 19  1  0
  3 20  1  0
  3 21  1  0
  4 22  1  0
  4 23  1  0
  7 24  1  0
  8 25  1  0
  9 26  1  0
 11 27  1  0
 11 28  1  0
 12 29  1  0
 12 30  1  0
 12 31  1  0
 13 32  1  0
 14 33  1  0
 14 34  1  0
 15 35  1  0
 15 36  1  0
M  CHG  2   2   1  12   1
M  END
>  <meeko>  (2) 
{"is_sidechain": [false], "free_energy": -4.742, "intermolecular_energy": -5.442, "internal_energy": -0.201}

$$$$
4abg_ligand
     RDKit          3D

 36 37  0  0  0  0  0  0  0  0999 V2000
   -9.3700    3.1540   18.5370 C   0  0  0  0  0  0  0  0  0  0  0  0
   -9.5110    4.2790   17.5560 N   0  0  0  0  0  0  0  0  0  0  0  0
   -9.7590    3.8180   16.1240 C   0  0  0  0  0  0  0  0  0  0  0  0
   -8.4670    3.3050   15.4490 C   0  0  0  0  0  0  0  0  0  0  0  0
   -7.3850    4.3140   15.5490 N   0  0  0  0  0  0  0  0  0  0  0  0
   -6.3610    4.2240   14.6030 C   0  0  0  0  0  0  0  0  0  0  0  0
   -5.5090    5.3210   14.3960 C   0  0  0  0  0  0  0  0  0  0  0  0
   -4.4350    5.2690   13.5060 C   0  0  0  0  0  0  0  0  0  0  0  0
   -4.1740    4.1040   12.7940 C   0  0  0  0  0  0  0  0  0  0  0  0
   -4.9960    2.9830   12.9630 C   0  0  0  0  0  0  0  0  0  0  0  0
   -4.7070    1.7210   12.1990 C   0  0  0  0  0  0  0  0  0  0  0  0
   -3.2940    1.3040   12.3290 N   0  0  0  0  0  0  0  0  0  0  0  0
   -6.0790    3.0580   13.8680 C   0  0  0  0  0  0  0  0  0  0  0  0
   -7.0910    4.7690   16.9220 C   0  0  0  0  0  0  0  0  0  0  0  0
   -8.3740    5.2930   17.6100 C   0  0  0  0  0  0  0  0  0  0  0  0
   -9.4199    3.5522   19.5612 H   0  0  0  0  0  0  0  0  0  0  0  0
  -10.1845    2.4305   18.3848 H   0  0  0  0  0  0  0  0  0  0  0  0
   -8.4021    2.6539   18.3848 H   0  0  0  0  0  0  0  0  0  0  0  0
  -10.3590    4.7920   17.8350 H   0  0  0  0  0  0  0  0  0  0  0  0
  -10.5002    3.0053   16.1359 H   0  0  0  0  0  0  0  0  0  0  0  0
  -10.1238    4.6810   15.5476 H   0  0  0  0  0  0  0  0  0  0  0  0
   -8.1435    2.3787   15.9463 H   0  0  0  0  0  0  0  0  0  0  0  0
   -8.6757    3.1156   14.3857 H   0  0  0  0  0  0  0  0  0  0  0  0
   -5.6940    6.2512   14.9532 H   0  0  0  0  0  0  0  0  0  0  0  0
   -3.7937    6.1519   13.3677 H   0  0  0  0  0  0  0  0  0  0  0  0
   -3.3227    4.0627   12.0986 H   0  0  0  0  0  0  0  0  0  0  0  0
   -5.3511    0.9172   12.5850 H   0  0  0  0  0  0  0  0  0  0  0  0
   -4.9065    1.9156   11.1349 H   0  0  0  0  0  0  0  0  0  0  0  0
   -3.1000    0.9120   13.2600 H   0  0  0  0  0  0  0  0  0  0  0  0
   -3.0510    0.5940   11.6280 H   0  0  0  0  0  0  0  0  0  0  0  0
   -2.6570    2.0980   12.1910 H   0  0  0  0  0  0  0  0  0  0  0  0
   -6.7224    2.1759   14.0021 H   0  0  0  0  0  0  0  0  0  0  0  0
   -6.6877    3.9266   17.5032 H   0  0  0  0  0  0  0  0  0  0  0  0
   -6.3559    5.5859   16.8745 H   0  0  0  0  0  0  0  0  0  0  0  0
   -8.1462    5.5142   18.6632 H   0  0  0  0  0  0  0  0  0  0  0  0
   -8.7006    6.1958   17.0731 H   0  0  0  0  0  0  0  0  0  0  0  0
  1  2  1  0
  2  3  1  0
  3  4  1  0
  4  5  1  0
  5  6  1  0
  6  7  2  0
  7  8  1  0
  8  9  2  0
  9 10  1  0
 10 11  1  0
 11 12  1  0
 10 13  2  0
  5 14  1  0
 14 15  1  0
 15  2  1  0
 13  6  1  0
  1 16  1  0
  1 17  1  0
  1 18  1  0
  2 19  1  0
  3 20  1  0
  3 21  1  0
  4 22  1  0
  4 23  1  0
  7 24  1  0
  8 25  1  0
  9 26  1  0
 11 27  1  0
 11 28  1  0
 12 29  1  0
 12 30  1  0
 12 31  1  0
 13 32  1  0
 14 33  1  0
 14 34  1  0
 15 35  1  0
 15 36  1  0
M  CHG  2   2   1  12   1
M  END
>  <meeko>  (3) 
{"is_sidechain": [false], "free_energy": -4.735, "intermolecular_energy": -5.44, "internal_energy": -0.194}

$$$$
4abg_ligand
     RDKit          3D

 36 37  0  0  0  0  0  0  0  0999 V2000
   -6.2520    7.9700   21.1380 C   0  0  0  0  0  0  0  0  0  0  0  0
   -4.9590    8.0680   20.3840 N   0  0  0  0  0  0  0  0  0  0  0  0
   -4.9880    9.0810   19.2450 C   0  0  0  0  0  0  0  0  0  0  0  0
   -5.7410    8.5410   18.0090 C   0  0  0  0  0  0  0  0  0  0  0  0
   -5.1980    7.2240   17.5950 N   0  0  0  0  0  0  0  0  0  0  0  0
   -5.4160    6.8510   16.2670 C   0  0  0  0  0  0  0  0  0  0  0  0
   -5.4320    5.4900   15.9220 C   0  0  0  0  0  0  0  0  0  0  0  0
   -5.7020    5.0570   14.6220 C   0  0  0  0  0  0  0  0  0  0  0  0
   -5.9710    5.9800   13.6200 C   0  0  0  0  0  0  0  0  0  0  0  0
   -5.9630    7.3500   13.9120 C   0  0  0  0  0  0  0  0  0  0  0  0
   -6.2630    8.3480   12.8290 C   0  0  0  0  0  0  0  0  0  0  0  0
   -7.5520    8.0700   12.1580 N   0  0  0  0  0  0  0  0  0  0  0  0
   -5.6870    7.7680   15.2340 C   0  0  0  0  0  0  0  0  0  0  0  0
   -5.1780    6.2030   18.6610 C   0  0  0  0  0  0  0  0  0  0  0  0
   -4.4200    6.7250   19.9040 C   0  0  0  0  0  0  0  0  0  0  0  0
   -6.0482    7.9854   22.2189 H   0  0  0  0  0  0  0  0  0  0  0  0
   -6.8959    8.8219   20.8740 H   0  0  0  0  0  0  0  0  0  0  0  0
   -6.7601    7.0308   20.8740 H   0  0  0  0  0  0  0  0  0  0  0  0
   -4.2670    8.4250   21.0580 H   0  0  0  0  0  0  0  0  0  0  0  0
   -5.4900    9.9949   19.5953 H   0  0  0  0  0  0  0  0  0  0  0  0
   -3.9493    9.2867   18.9469 H   0  0  0  0  0  0  0  0  0  0  0  0
   -6.8071    8.4299   18.2563 H   0  0  0  0  0  0  0  0  0  0  0  0
   -5.6124    9.2519   17.1795 H   0  0  0  0  0  0  0  0  0  0  0  0
   -5.2253    4.7409   16.7005 H   0  0  0  0  0  0  0  0  0  0  0  0
   -5.7016    3.9815   14.3911 H   0  0  0  0  0  0  0  0  0  0  0  0
   -6.1901    5.6358   12.5984 H   0  0  0  0  0  0  0  0  0  0  0  0
   -6.3043    9.3530   13.2743 H   0  0  0  0  0  0  0  0  0  0  0  0
   -5.4660    8.2786   12.0740 H   0  0  0  0  0  0  0  0  0  0  0  0
   -7.9240    8.9070   11.6920 H   0  0  0  0  0  0  0  0  0  0  0  0
   -7.4510    7.3310   11.4520 H   0  0  0  0  0  0  0  0  0  0  0  0
   -8.2610    7.7510   12.8310 H   0  0  0  0  0  0  0  0  0  0  0  0
   -5.6839    8.8440   15.4626 H   0  0  0  0  0  0  0  0  0  0  0  0
   -6.2119    5.9575   18.9453 H   0  0  0  0  0  0  0  0  0  0  0  0
   -4.6631    5.3074   18.2832 H   0  0  0  0  0  0  0  0  0  0  0  0
   -4.5235    5.9907   20.7165 H   0  0  0  0  0  0  0  0  0  0  0  0
   -3.3657    6.8646   19.6232 H   0  0  0  0  0  0  0  0  0  0  0  0
  1  2  1  0
  2  3  1  0
  3  4  1  0
  4  5  1  0
  5  6  1  0
  6  7  2  0
  7  8  1  0
  8  9  2  0
  9 10  1  0
 10 11  1  0
 11 12  1  0
 10 13  2  0
  5 14  1  0
 14 15  1  0
 15  2  1  0
 13  6  1  0
  1 16  1  0
  1 17  1  0
  1 18  1  0
  2 19  1  0
  3 20  1  0
  3 21  1  0
  4 22  1  0
  4 23  1  0
  7 24  1  0
  8 25  1  0
  9 26  1  0
 11 27  1  0
 11 28  1  0
 12 29  1  0
 12 30  1  0
 12 31  1  0
 13 32  1  0
 14 33  1  0
 14 34  1  0
 15 35  1  0
 15 36  1  0
M  CHG  2   2   1  12   1
M  END
>  <meeko>  (4) 
{"is_sidechain": [false], "free_energy": -4.689, "intermolecular_energy": -5.378, "internal_energy": -0.203}

$$$$
4abg_ligand
     RDKit          3D

 36 37  0  0  0  0  0  0  0  0999 V2000
  -11.9530    4.4760   15.7850 C   0  0  0  0  0  0  0  0  0  0  0  0
  -11.0460    5.0860   16.8120 N   0  0  0  0  0  0  0  0  0  0  0  0
  -10.7410    6.5590   16.5650 C   0  0  0  0  0  0  0  0  0  0  0  0
   -9.7030    6.7550   15.4380 C   0  0  0  0  0  0  0  0  0  0  0  0
   -8.4840    5.9510   15.7000 N   0  0  0  0  0  0  0  0  0  0  0  0
   -7.3100    6.3790   15.0750 C   0  0  0  0  0  0  0  0  0  0  0  0
   -6.1010    5.7170   15.3400 C   0  0  0  0  0  0  0  0  0  0  0  0
   -4.9090    6.0640   14.7020 C   0  0  0  0  0  0  0  0  0  0  0  0
   -4.8920    7.0890   13.7640 C   0  0  0  0  0  0  0  0  0  0  0  0
   -6.0710    7.7830   13.4670 C   0  0  0  0  0  0  0  0  0  0  0  0
   -6.0530    8.8870   12.4460 C   0  0  0  0  0  0  0  0  0  0  0  0
   -4.6770    9.3220   12.1230 N   0  0  0  0  0  0  0  0  0  0  0  0
   -7.2670    7.4180   14.1250 C   0  0  0  0  0  0  0  0  0  0  0  0
   -8.7290    4.5120   15.9170 C   0  0  0  0  0  0  0  0  0  0  0  0
   -9.7620    4.2980   17.0480 C   0  0  0  0  0  0  0  0  0  0  0  0
  -12.7640    3.9306   16.2897 H   0  0  0  0  0  0  0  0  0  0  0  0
  -12.3813    5.2703   15.1560 H   0  0  0  0  0  0  0  0  0  0  0  0
  -11.3789    3.7798   15.1560 H   0  0  0  0  0  0  0  0  0  0  0  0
  -11.5650    5.0520   17.7000 H   0  0  0  0  0  0  0  0  0  0  0  0
  -11.6723    7.0719   16.2829 H   0  0  0  0  0  0  0  0  0  0  0  0
  -10.3200    6.9782   17.4907 H   0  0  0  0  0  0  0  0  0  0  0  0
  -10.1449    6.4390   14.4815 H   0  0  0  0  0  0  0  0  0  0  0  0
   -9.4227    7.8179   15.3972 H   0  0  0  0  0  0  0  0  0  0  0  0
   -6.0926    4.8981   16.0744 H   0  0  0  0  0  0  0  0  0  0  0  0
   -3.9809    5.5247   14.9423 H   0  0  0  0  0  0  0  0  0  0  0  0
   -3.9535    7.3548   13.2555 H   0  0  0  0  0  0  0  0  0  0  0  0
   -6.5368    8.5274   11.5259 H   0  0  0  0  0  0  0  0  0  0  0  0
   -6.5908    9.7486   12.8684 H   0  0  0  0  0  0  0  0  0  0  0  0
   -4.2660    8.7520   11.3730 H   0  0  0  0  0  0  0  0  0  0  0  0
   -4.6600   10.3040   11.8220 H   0  0  0  0  0  0  0  0  0  0  0  0
   -4.0600    9.2450   12.9410 H   0  0  0  0  0  0  0  0  0  0  0  0
   -8.1931    7.9621   13.8880 H   0  0  0  0  0  0  0  0  0  0  0  0
   -9.1138    4.0670   14.9875 H   0  0  0  0  0  0  0  0  0  0  0  0
   -7.7827    4.0318   16.2067 H   0  0  0  0  0  0  0  0  0  0  0  0
  -10.0087    3.2275   17.1046 H   0  0  0  0  0  0  0  0  0  0  0  0
   -9.3139    4.6557   17.9867 H   0  0  0  0  0  0  0  0  0  0  0  0
  1  2  1  0
  2  3  1  0
  3  4  1  0
  4  5  1  0
  5  6  1  0
  6  7  2  0
  7  8  1  0
  8  9  2  0
  9 10  1  0
 10 11  1  0
 11 12  1  0
 10 13  2  0
  5 14  1  0
 14 15  1  0
 15  2  1  0
 13  6  1  0
  1 16  1  0
  1 17  1  0
  1 18  1  0
  2 19  1  0
  3 20  1  0
  3 21  1  0
  4 22  1  0
  4 23  1  0
  7 24  1  0
  8 25  1  0
  9 26  1  0
 11 27  1  0
 11 28  1  0
 12 29  1  0
 12 30  1  0
 12 31  1  0
 13 32  1  0
 14 33  1  0
 14 34  1  0
 15 35  1  0
 15 36  1  0
M  CHG  2   2   1  12   1
M  END
>  <meeko>  (5) 
{"is_sidechain": [false], "free_energy": -4.639, "intermolecular_energy": -5.323, "internal_energy": -0.2}

$$$$
4abg_ligand
     RDKit          3D

 36 37  0  0  0  0  0  0  0  0999 V2000
  -11.1510    5.4740   18.1930 C   0  0  0  0  0  0  0  0  0  0  0  0
  -10.9160    4.8710   16.8410 N   0  0  0  0  0  0  0  0  0  0  0  0
   -9.6450    4.0340   16.7540 C   0  0  0  0  0  0  0  0  0  0  0  0
   -8.3780    4.9120   16.6520 C   0  0  0  0  0  0  0  0  0  0  0  0
   -8.5030    5.8880   15.5410 N   0  0  0  0  0  0  0  0  0  0  0  0
   -7.3090    6.3910   15.0190 C   0  0  0  0  0  0  0  0  0  0  0  0
   -6.0850    5.8390   15.4290 C   0  0  0  0  0  0  0  0  0  0  0  0
   -4.8650    6.2620   14.8990 C   0  0  0  0  0  0  0  0  0  0  0  0
   -4.8320    7.2550   13.9280 C   0  0  0  0  0  0  0  0  0  0  0  0
   -6.0260    7.8400   13.4870 C   0  0  0  0  0  0  0  0  0  0  0  0
   -5.9900    8.9080   12.4300 C   0  0  0  0  0  0  0  0  0  0  0  0
   -4.6090    9.3340   12.1150 N   0  0  0  0  0  0  0  0  0  0  0  0
   -7.2500    7.3980   14.0380 C   0  0  0  0  0  0  0  0  0  0  0  0
   -9.7060    6.7410   15.6010 C   0  0  0  0  0  0  0  0  0  0  0  0
  -10.9850    5.8750   15.6950 C   0  0  0  0  0  0  0  0  0  0  0  0
  -10.8688    4.7499   18.9715 H   0  0  0  0  0  0  0  0  0  0  0  0
  -10.5415    6.3834   18.2998 H   0  0  0  0  0  0  0  0  0  0  0  0
  -12.2152    5.7312   18.2998 H   0  0  0  0  0  0  0  0  0  0  0  0
  -11.6940    4.2150   16.6870 H   0  0  0  0  0  0  0  0  0  0  0  0
   -9.5707    3.4070   17.6547 H   0  0  0  0  0  0  0  0  0  0  0  0
   -9.7056    3.4190   15.8440 H   0  0  0  0  0  0  0  0  0  0  0  0
   -8.2396    5.4571   17.5974 H   0  0  0  0  0  0  0  0  0  0  0  0
   -7.5127    4.2620   16.4554 H   0  0  0  0  0  0  0  0  0  0  0  0
   -6.0875    5.0474   16.1928 H   0  0  0  0  0  0  0  0  0  0  0  0
   -3.9271    5.8078   15.2511 H   0  0  0  0  0  0  0  0  0  0  0  0
   -3.8699    7.5813   13.5062 H   0  0  0  0  0  0  0  0  0  0  0  0
   -6.4578    8.5167   11.5146 H   0  0  0  0  0  0  0  0  0  0  0  0
   -6.5346    9.7830   12.8144 H   0  0  0  0  0  0  0  0  0  0  0  0
   -4.4610    9.4160   11.1020 H   0  0  0  0  0  0  0  0  0  0  0  0
   -4.3940   10.2420   12.5440 H   0  0  0  0  0  0  0  0  0  0  0  0
   -3.9210    8.6590   12.4730 H   0  0  0  0  0  0  0  0  0  0  0  0
   -8.1871    7.8561   13.6886 H   0  0  0  0  0  0  0  0  0  0  0  0
   -9.6441    7.3912   16.4861 H   0  0  0  0  0  0  0  0  0  0  0  0
   -9.7558    7.3480   14.6850 H   0  0  0  0  0  0  0  0  0  0  0  0
  -11.8498    6.5359   15.8542 H   0  0  0  0  0  0  0  0  0  0  0  0
  -11.0812    5.3105   14.7558 H   0  0  0  0  0  0  0  0  0  0  0  0
  1  2  1  0
  2  3  1  0
  3  4  1  0
  4  5  1  0
  5  6  1  0
  6  7  2  0
  7  8  1  0
  8  9  2  0
  9 10  1  0
 10 11  1  0
 11 12  1  0
 10 13  2  0
  5 14  1  0
 14 15  1  0
 15  2  1  0
 13  6  1  0
  1 16  1  0
  1 17  1  0
  1 18  1  0
  2 19  1  0
  3 20  1  0
  3 21  1  0
  4 22  1  0
  4 23  1  0
  7 24  1  0
  8 25  1  0
  9 26  1  0
 11 27  1  0
 11 28  1  0
 12 29  1  0
 12 30  1  0
 12 31  1  0
 13 32  1  0
 14 33  1  0
 14 34  1  0
 15 35  1  0
 15 36  1  0
M  CHG  2   2   1  12   1
M  END
>  <meeko>  (6) 
{"is_sidechain": [false], "free_energy": -4.598, "intermolecular_energy": -5.27, "internal_energy": -0.206}

$$$$
4abg_ligand
     RDKit          3D

 36 37  0  0  0  0  0  0  0  0999 V2000
   -9.0140    1.7160   17.7270 C   0  0  0  0  0  0  0  0  0  0  0  0
   -9.6900    2.8230   16.9760 N   0  0  0  0  0  0  0  0  0  0  0  0
   -9.3160    2.8820   15.4990 C   0  0  0  0  0  0  0  0  0  0  0  0
   -7.9180    3.5020   15.2800 C   0  0  0  0  0  0  0  0  0  0  0  0
   -7.8150    4.8200   15.9540 N   0  0  0  0  0  0  0  0  0  0  0  0
   -6.8440    5.6950   15.4610 C   0  0  0  0  0  0  0  0  0  0  0  0
   -5.5320    5.6270   15.9570 C   0  0  0  0  0  0  0  0  0  0  0  0
   -4.5090    6.4370   15.4620 C   0  0  0  0  0  0  0  0  0  0  0  0
   -4.7680    7.3440   14.4420 C   0  0  0  0  0  0  0  0  0  0  0  0
   -6.0610    7.4530   13.9160 C   0  0  0  0  0  0  0  0  0  0  0  0
   -6.3380    8.4290   12.8070 C   0  0  0  0  0  0  0  0  0  0  0  0
   -7.5750    8.0940   12.0670 N   0  0  0  0  0  0  0  0  0  0  0  0
   -7.0830    6.6250   14.4320 C   0  0  0  0  0  0  0  0  0  0  0  0
   -8.1410    4.8040   17.3930 C   0  0  0  0  0  0  0  0  0  0  0  0
   -9.5430    4.1930   17.6290 C   0  0  0  0  0  0  0  0  0  0  0  0
   -9.1195    1.8887   18.8082 H   0  0  0  0  0  0  0  0  0  0  0  0
   -9.4797    0.7553   17.4620 H   0  0  0  0  0  0  0  0  0  0  0  0
   -7.9467    1.6915   17.4620 H   0  0  0  0  0  0  0  0  0  0  0  0
  -10.6960    2.6060   17.0010 H   0  0  0  0  0  0  0  0  0  0  0  0
   -9.3193    1.8606   15.0908 H   0  0  0  0  0  0  0  0  0  0  0  0
  -10.0534    3.5177   14.9870 H   0  0  0  0  0  0  0  0  0  0  0  0
   -7.1548    2.8255   15.6922 H   0  0  0  0  0  0  0  0  0  0  0  0
   -7.7605    3.6445   14.2007 H   0  0  0  0  0  0  0  0  0  0  0  0
   -5.3033    4.9124   16.7614 H   0  0  0  0  0  0  0  0  0  0  0  0
   -3.4949    6.3571   15.8806 H   0  0  0  0  0  0  0  0  0  0  0  0
   -3.9582    7.9757   14.0481 H   0  0  0  0  0  0  0  0  0  0  0  0
   -6.4442    9.4353   13.2384 H   0  0  0  0  0  0  0  0  0  0  0  0
   -5.4972    8.3850   12.0991 H   0  0  0  0  0  0  0  0  0  0  0  0
   -8.3910    8.0610   12.6910 H   0  0  0  0  0  0  0  0  0  0  0  0
   -7.7650    8.7840   11.3310 H   0  0  0  0  0  0  0  0  0  0  0  0
   -7.4990    7.1770   11.6110 H   0  0  0  0  0  0  0  0  0  0  0  0
   -8.0978    6.7099   14.0162 H   0  0  0  0  0  0  0  0  0  0  0  0
   -7.3904    4.2025   17.9267 H   0  0  0  0  0  0  0  0  0  0  0  0
   -8.1380    5.8381   17.7680 H   0  0  0  0  0  0  0  0  0  0  0  0
   -9.7067    4.0890   18.7118 H   0  0  0  0  0  0  0  0  0  0  0  0
  -10.2859    4.8655   17.1753 H   0  0  0  0  0  0  0  0  0  0  0  0
  1  2  1  0
  2  3  1  0
  3  4  1  0
  4  5  1  0
  5  6  1  0
  6  7  2  0
  7  8  1  0
  8  9  2  0
  9 10  1  0
 10 11  1  0
 11 12  1  0
 10 13  2  0
  5 14  1  0
 14 15  1  0
 15  2  1  0
 13  6  1  0
  1 16  1  0
  1 17  1  0
  1 18  1  0
  2 19  1  0
  3 20  1  0
  3 21  1  0
  4 22  1  0
  4 23  1  0
  7 24  1  0
  8 25  1  0
  9 26  1  0
 11 27  1  0
 11 28  1  0
 12 29  1  0
 12 30  1  0
 12 31  1  0
 13 32  1  0
 14 33  1  0
 14 34  1  0
 15 35  1  0
 15 36  1  0
M  CHG  2   2   1  12   1
M  END
>  <meeko>  (7) 
{"is_sidechain": [false], "free_energy": -4.53, "intermolecular_energy": -5.217, "internal_energy": -0.182}

$$$$
4abg_ligand
     RDKit          3D

 36 37  0  0  0  0  0  0  0  0999 V2000
   -6.2040    8.3720   21.0640 C   0  0  0  0  0  0  0  0  0  0  0  0
   -4.9230    8.4250   20.2850 N   0  0  0  0  0  0  0  0  0  0  0  0
   -4.9810    9.3430   19.0690 C   0  0  0  0  0  0  0  0  0  0  0  0
   -5.7450    8.6980   17.8920 C   0  0  0  0  0  0  0  0  0  0  0  0
   -5.1910    7.3580   17.5760 N   0  0  0  0  0  0  0  0  0  0  0  0
   -5.4220    6.8780   16.2850 C   0  0  0  0  0  0  0  0  0  0  0  0
   -5.2090    7.7210   15.1830 C   0  0  0  0  0  0  0  0  0  0  0  0
   -5.3690    7.2790   13.8680 C   0  0  0  0  0  0  0  0  0  0  0  0
   -5.7440    5.9650   13.6140 C   0  0  0  0  0  0  0  0  0  0  0  0
   -5.9720    5.0860   14.6800 C   0  0  0  0  0  0  0  0  0  0  0  0
   -6.3700    3.6630   14.4040 C   0  0  0  0  0  0  0  0  0  0  0  0
   -5.4450    3.0010   13.4580 N   0  0  0  0  0  0  0  0  0  0  0  0
   -5.8060    5.5540   16.0030 C   0  0  0  0  0  0  0  0  0  0  0  0
   -5.1420    6.4260   18.7190 C   0  0  0  0  0  0  0  0  0  0  0  0
   -4.3730    7.0550   19.9050 C   0  0  0  0  0  0  0  0  0  0  0  0
   -5.9790    8.3813   22.1407 H   0  0  0  0  0  0  0  0  0  0  0  0
   -6.8233    9.2453   20.8112 H   0  0  0  0  0  0  0  0  0  0  0  0
   -6.7490    7.4505   20.8112 H   0  0  0  0  0  0  0  0  0  0  0  0
   -4.2260    8.8420   20.9180 H   0  0  0  0  0  0  0  0  0  0  0  0
   -5.4889   10.2765   19.3529 H   0  0  0  0  0  0  0  0  0  0  0  0
   -3.9493    9.5352   18.7393 H   0  0  0  0  0  0  0  0  0  0  0  0
   -6.8059    8.5948   18.1638 H   0  0  0  0  0  0  0  0  0  0  0  0
   -5.6378    9.3419   17.0066 H   0  0  0  0  0  0  0  0  0  0  0  0
   -4.9063    8.7634   15.3610 H   0  0  0  0  0  0  0  0  0  0  0  0
   -5.1979    7.9723   13.0313 H   0  0  0  0  0  0  0  0  0  0  0  0
   -5.8615    5.6161   12.5774 H   0  0  0  0  0  0  0  0  0  0  0  0
   -6.3688    3.1040   15.3514 H   0  0  0  0  0  0  0  0  0  0  0  0
   -7.3712    3.6731   13.9485 H   0  0  0  0  0  0  0  0  0  0  0  0
   -5.8610    2.9140   12.5210 H   0  0  0  0  0  0  0  0  0  0  0  0
   -4.5670    3.5250   13.3690 H   0  0  0  0  0  0  0  0  0  0  0  0
   -5.2030    2.0540   13.7750 H   0  0  0  0  0  0  0  0  0  0  0  0
   -5.9826    4.8612   16.8390 H   0  0  0  0  0  0  0  0  0  0  0  0
   -6.1683    6.1914   19.0379 H   0  0  0  0  0  0  0  0  0  0  0  0
   -4.6207    5.5094   18.4058 H   0  0  0  0  0  0  0  0  0  0  0  0
   -4.4547    6.3866   20.7748 H   0  0  0  0  0  0  0  0  0  0  0  0
   -3.3249    7.1849   19.5975 H   0  0  0  0  0  0  0  0  0  0  0  0
  1  2  1  0
  2  3  1  0
  3  4  1  0
  4  5  1  0
  5  6  1  0
  6  7  2  0
  7  8  1  0
  8  9  2  0
  9 10  1  0
 10 11  1  0
 11 12  1  0
 10 13  2  0
  5 14  1  0
 14 15  1  0
 15  2  1  0
 13  6  1  0
  1 16  1  0
  1 17  1  0
  1 18  1  0
  2 19  1  0
  3 20  1  0
  3 21  1  0
  4 22  1  0
  4 23  1  0
  7 24  1  0
  8 25  1  0
  9 26  1  0
 11 27  1  0
 11 28  1  0
 12 29  1  0
 12 30  1  0
 12 31  1  0
 13 32  1  0
 14 33  1  0
 14 34  1  0
 15 35  1  0
 15 36  1  0
M  CHG  2   2   1  12   1
M  END
>  <meeko>  (8) 
{"is_sidechain": [false], "free_energy": -4.391, "intermolecular_energy": -5.045, "internal_energy": -0.194}

$$$$
4abg_ligand
     RDKit          3D

 36 37  0  0  0  0  0  0  0  0999 V2000
  -10.1200    3.1000   18.6570 C   0  0  0  0  0  0  0  0  0  0  0  0
   -9.4320    2.1300   17.7450 N   0  0  0  0  0  0  0  0  0  0  0  0
   -7.9210    2.0700   17.9380 C   0  0  0  0  0  0  0  0  0  0  0  0
   -7.2060    3.2790   17.2950 C   0  0  0  0  0  0  0  0  0  0  0  0
   -7.5990    3.4270   15.8720 N   0  0  0  0  0  0  0  0  0  0  0  0
   -6.7100    4.1250   15.0510 C   0  0  0  0  0  0  0  0  0  0  0  0
   -5.9940    3.4350   14.0600 C   0  0  0  0  0  0  0  0  0  0  0  0
   -5.1360    4.0890   13.1740 C   0  0  0  0  0  0  0  0  0  0  0  0
   -4.9730    5.4670   13.2490 C   0  0  0  0  0  0  0  0  0  0  0  0
   -5.6630    6.2000   14.2220 C   0  0  0  0  0  0  0  0  0  0  0  0
   -5.4920    7.6920   14.2960 C   0  0  0  0  0  0  0  0  0  0  0  0
   -4.6910    8.1020   15.4700 N   0  0  0  0  0  0  0  0  0  0  0  0
   -6.5250    5.5190   15.1100 C   0  0  0  0  0  0  0  0  0  0  0  0
   -9.0540    3.5170   15.6400 C   0  0  0  0  0  0  0  0  0  0  0  0
   -9.7840    2.3090   16.2720 C   0  0  0  0  0  0  0  0  0  0  0  0
   -9.9232    2.8225   19.7031 H   0  0  0  0  0  0  0  0  0  0  0  0
   -9.7383    4.1143   18.4687 H   0  0  0  0  0  0  0  0  0  0  0  0
  -11.2035    3.0751   18.4687 H   0  0  0  0  0  0  0  0  0  0  0  0
   -9.7850    1.1980   18.0070 H   0  0  0  0  0  0  0  0  0  0  0  0
   -7.7010    2.0595   19.0157 H   0  0  0  0  0  0  0  0  0  0  0  0
   -7.5522    1.1573   17.4472 H   0  0  0  0  0  0  0  0  0  0  0  0
   -7.4803    4.1931   17.8420 H   0  0  0  0  0  0  0  0  0  0  0  0
   -6.1196    3.1143   17.3457 H   0  0  0  0  0  0  0  0  0  0  0  0
   -6.1128    2.3444   13.9791 H   0  0  0  0  0  0  0  0  0  0  0  0
   -4.5877    3.5121   12.4147 H   0  0  0  0  0  0  0  0  0  0  0  0
   -4.3026    5.9813   12.5447 H   0  0  0  0  0  0  0  0  0  0  0  0
   -4.9851    8.0368   13.3827 H   0  0  0  0  0  0  0  0  0  0  0  0
   -6.4905    8.1433   14.3924 H   0  0  0  0  0  0  0  0  0  0  0  0
   -3.6870    8.1260   15.2530 H   0  0  0  0  0  0  0  0  0  0  0  0
   -4.9680    9.0340   15.8000 H   0  0  0  0  0  0  0  0  0  0  0  0
   -4.8210    7.4510   16.2550 H   0  0  0  0  0  0  0  0  0  0  0  0
   -7.0690    6.0966   15.8719 H   0  0  0  0  0  0  0  0  0  0  0  0
   -9.4348    4.4453   16.0909 H   0  0  0  0  0  0  0  0  0  0  0  0
   -9.2401    3.5150   14.5559 H   0  0  0  0  0  0  0  0  0  0  0  0
  -10.8693    2.4649   16.1835 H   0  0  0  0  0  0  0  0  0  0  0  0
   -9.4649    1.4031   15.7358 H   0  0  0  0  0  0  0  0  0  0  0  0
  1  2  1  0
  2  3  1  0
  3  4  1  0
  4  5  1  0
  5  6  1  0
  6  7  2  0
  7  8  1  0
  8  9  2  0
  9 10  1  0
 10 11  1  0
 11 12  1  0
 10 13  2  0
  5 14  1  0
 14 15  1  0
 15  2  1  0
 13  6  1  0
  1 16  1  0
  1 17  1  0
  1 18  1  0
  2 19  1  0
  3 20  1  0
  3 21  1  0
  4 22  1  0
  4 23  1  0
  7 24  1  0
  8 25  1  0
  9 26  1  0
 11 27  1  0
 11 28  1  0
 12 29  1  0
 12 30  1  0
 12 31  1  0
 13 32  1  0
 14 33  1  0
 14 34  1  0
 15 35  1  0
 15 36  1  0
M  CHG  2   2   1  12   1
M  END
>  <meeko>  (9) 
{"is_sidechain": [false], "free_energy": -4.316, "intermolecular_energy": -4.982, "internal_energy": -0.171}

$$$$
