
     RDKit          3D

 35 39  0  0  0  0  0  0  0  0999 V2000
   -4.2380    0.4940   12.1660 N   0  0  0  0  0  0  0  0  0  0  0  0
   -4.8420    0.3060   10.8400 C   0  0  0  0  0  0  0  0  0  0  0  0
   -4.6560    1.5080    9.9480 C   0  0  1  0  0  0  0  0  0  0  0  0
   -5.0100    1.1800    8.5090 C   0  0  0  0  0  0  0  0  0  0  0  0
   -4.8470    2.3870    7.6100 C   0  0  0  0  0  0  0  0  0  0  0  0
   -5.6970    3.5450    8.1150 C   0  0  2  0  0  0  0  0  0  0  0  0
   -5.5450    4.7260    7.1820 C   0  0  0  0  0  0  0  0  0  0  0  0
   -4.4750    5.0150    6.6710 O   0  0  0  0  0  0  0  0  0  0  0  0
   -6.6620    5.4500    6.9570 N   0  0  0  0  0  0  0  0  0  0  0  0
   -6.6880    6.5050    5.9540 C   0  0  1  0  0  0  0  0  0  0  0  0
   -8.1430    6.7870    5.5840 C   0  0  0  0  0  0  0  0  0  0  0  0
   -8.1770    7.8110    4.4930 C   0  0  0  0  0  0  0  0  0  0  0  0
   -7.6370    7.5110    3.2360 C   0  0  0  0  0  0  0  0  0  0  0  0
   -7.6480    8.4770    2.2440 C   0  0  0  0  0  0  0  0  0  0  0  0
   -8.2130    9.7300    2.4850 C   0  0  0  0  0  0  0  0  0  0  0  0
   -8.7610   10.0130    3.7470 C   0  0  0  0  0  0  0  0  0  0  0  0
   -8.7500    9.0600    4.7530 C   0  0  0  0  0  0  0  0  0  0  0  0
   -6.0840    7.7840    6.3950 C   0  0  0  0  0  0  0  0  0  0  0  0
   -6.4460    8.4560    7.4990 N   0  0  0  0  0  0  0  0  0  0  0  0
   -5.7170    9.5930    7.4640 C   0  0  0  0  0  0  0  0  0  0  0  0
   -5.8680   10.8290    8.6710 Cl  0  0  0  0  0  0  0  0  0  0  0  0
   -4.9190    9.5960    6.3250 C   0  0  0  0  0  0  0  0  0  0  0  0
   -3.9950   10.6090    5.8250 C   0  0  0  0  0  0  0  0  0  0  0  0
   -3.6660   10.6110    4.4580 C   0  0  0  0  0  0  0  0  0  0  0  0
   -2.8080   11.5650    3.9110 C   0  0  0  0  0  0  0  0  0  0  0  0
   -2.2510   12.5470    4.7810 C   0  0  0  0  0  0  0  0  0  0  0  0
   -1.3630   13.6430    4.6270 C   0  0  0  0  0  0  0  0  0  0  0  0
   -0.7670   14.0730    3.4910 N   0  0  0  0  0  0  0  0  0  0  0  0
   -1.1790   14.2230    5.8100 N   0  0  0  0  0  0  0  0  0  0  0  0
   -1.9070   13.5610    6.7390 N   0  0  0  0  0  0  0  0  0  0  0  0
   -2.5680   12.5280    6.1340 C   0  0  0  0  0  0  0  0  0  0  0  0
   -3.4370   11.5700    6.6770 C   0  0  0  0  0  0  0  0  0  0  0  0
   -5.1690    8.4450    5.6690 N   0  0  0  0  0  0  0  0  0  0  0  0
   -5.3260    3.9170    9.5450 C   0  0  0  0  0  0  0  0  0  0  0  0
   -5.4870    2.6960   10.4410 C   0  0  0  0  0  0  0  0  0  0  0  0
  2  1  1  0
  3  2  1  1
  4  3  1  0
  5  4  1  0
  6  5  1  0
  6  7  1  6
  8  7  2  0
  9  7  1  0
 10  9  1  0
 10 11  1  1
 12 11  1  0
 13 12  2  0
 14 13  1  0
 15 14  2  0
 16 15  1  0
 17 16  2  0
 17 12  1  0
 18 10  1  0
 19 18  2  0
 20 19  1  0
 21 20  1  0
 22 20  2  0
 23 22  1  0
 24 23  2  0
 25 24  1  0
 26 25  2  0
 27 26  1  0
 28 27  1  0
 29 27  2  0
 30 29  1  0
 31 26  1  0
 31 30  1  0
 32 23  1  0
 32 31  2  0
 33 18  1  0
 33 22  1  0
 34  6  1  0
 35 34  1  0
 35  3  1  0
M  CHG  2   1   1  29   1
M  END
$$$$
