4llx_ligand
     RDKit          3D

 18 18  0  0  0  0  0  0  0  0999 V2000
   -3.2940   12.5010    7.5900 C   0  0  0  0  0  0  0  0  0  0  0  0
   -2.9280   11.0740    7.3120 C   0  0  0  0  0  0  0  0  0  0  0  0
   -2.5310   10.6900    6.0480 C   0  0  0  0  0  0  0  0  0  0  0  0
   -2.2160    9.3570    5.8830 C   0  0  0  0  0  0  0  0  0  0  0  0
   -1.7770    8.8430    4.5460 C   0  0  0  0  0  0  0  0  0  0  0  0
   -2.2860    8.4690    6.8950 N   0  0  0  0  0  0  0  0  0  0  0  0
   -2.6630    8.9390    8.0870 C   0  0  0  0  0  0  0  0  0  0  0  0
   -2.7560    8.0350    9.1250 N   0  0  0  0  0  0  0  0  0  0  0  0
   -3.0070   10.2040    8.3390 N   0  0  0  0  0  0  0  0  0  0  0  0
   -3.3357   12.6637    8.6771 H   0  0  0  0  0  0  0  0  0  0  0  0
   -2.5374   13.1663    7.1484 H   0  0  0  0  0  0  0  0  0  0  0  0
   -4.2774   12.7200    7.1484 H   0  0  0  0  0  0  0  0  0  0  0  0
   -2.4689   11.4077    5.2167 H   0  0  0  0  0  0  0  0  0  0  0  0
   -1.0685    8.0134    4.6867 H   0  0  0  0  0  0  0  0  0  0  0  0
   -2.6531    8.4858    3.9848 H   0  0  0  0  0  0  0  0  0  0  0  0
   -1.2871    9.6524    3.9848 H   0  0  0  0  0  0  0  0  0  0  0  0
   -2.3960    7.1410    8.8200 H   0  0  0  0  0  0  0  0  0  0  0  0
   -2.3530    8.4410    9.9580 H   0  0  0  0  0  0  0  0  0  0  0  0
  1  2  1  0
  2  3  2  0
  3  4  1  0
  4  5  1  0
  4  6  2  0
  6  7  1  0
  7  8  1  0
  7  9  2  0
  9  2  1  0
  1 10  1  0
  1 11  1  0
  1 12  1  0
  3 13  1  0
  5 14  1  0
  5 15  1  0
  5 16  1  0
  8 17  1  0
  8 18  1  0
M  END
>  <meeko>  (1) 
{"is_sidechain": [false], "free_energy": -4.702, "intermolecular_energy": -4.839, "internal_energy": 0.0}

$$$$
4llx_ligand
     RDKit          3D

 18 18  0  0  0  0  0  0  0  0999 V2000
   -1.7450    9.0350    4.4840 C   0  0  0  0  0  0  0  0  0  0  0  0
   -2.1960    9.4870    5.8410 C   0  0  0  0  0  0  0  0  0  0  0  0
   -2.5120   10.8110    6.0640 C   0  0  0  0  0  0  0  0  0  0  0  0
   -2.9140   11.1370    7.3440 C   0  0  0  0  0  0  0  0  0  0  0  0
   -3.2760   12.5500    7.6860 C   0  0  0  0  0  0  0  0  0  0  0  0
   -2.9990   10.2210    8.3280 N   0  0  0  0  0  0  0  0  0  0  0  0
   -2.6900    8.9600    8.0110 C   0  0  0  0  0  0  0  0  0  0  0  0
   -2.7570    8.0170    9.0160 N   0  0  0  0  0  0  0  0  0  0  0  0
   -2.2730    8.5530    6.8100 N   0  0  0  0  0  0  0  0  0  0  0  0
   -0.9719    8.2602    4.5938 H   0  0  0  0  0  0  0  0  0  0  0  0
   -2.6019    8.6223    3.9314 H   0  0  0  0  0  0  0  0  0  0  0  0
   -1.3304    9.8910    3.9314 H   0  0  0  0  0  0  0  0  0  0  0  0
   -2.4473   11.5655    5.2661 H   0  0  0  0  0  0  0  0  0  0  0  0
   -3.3058   12.6665    8.7794 H   0  0  0  0  0  0  0  0  0  0  0  0
   -2.5239   13.2334    7.2648 H   0  0  0  0  0  0  0  0  0  0  0  0
   -4.2640   12.7876    7.2648 H   0  0  0  0  0  0  0  0  0  0  0  0
   -3.0960    7.1460    8.6310 H   0  0  0  0  0  0  0  0  0  0  0  0
   -1.8780    7.9980    9.5130 H   0  0  0  0  0  0  0  0  0  0  0  0
  1  2  1  0
  2  3  2  0
  3  4  1  0
  4  5  1  0
  4  6  2  0
  6  7  1  0
  7  8  1  0
  7  9  2  0
  9  2  1  0
  1 10  1  0
  1 11  1  0
  1 12  1  0
  3 13  1  0
  5 14  1  0
  5 15  1  0
  5 16  1  0
  8 17  1  0
  8 18  1  0
M  END
>  <meeko>  (2) 
{"is_sidechain": [false], "free_energy": -4.676, "intermolecular_energy": -4.812, "internal_energy": 0.0}

$$$$
4llx_ligand
     RDKit          3D

 18 18  0  0  0  0  0  0  0  0999 V2000
    0.1520   10.2460    1.5560 C   0  0  0  0  0  0  0  0  0  0  0  0
   -0.5290    9.2960    2.4960 C   0  0  0  0  0  0  0  0  0  0  0  0
   -1.0100    9.7410    3.7090 C   0  0  0  0  0  0  0  0  0  0  0  0
   -1.6190    8.7970    4.5110 C   0  0  0  0  0  0  0  0  0  0  0  0
   -2.1700    9.1830    5.8490 C   0  0  0  0  0  0  0  0  0  0  0  0
   -1.7440    7.5080    4.1380 N   0  0  0  0  0  0  0  0  0  0  0  0
   -1.2640    7.1750    2.9360 C   0  0  0  0  0  0  0  0  0  0  0  0
   -1.3710    5.8550    2.5530 N   0  0  0  0  0  0  0  0  0  0  0  0
   -0.6420    8.0110    2.1020 N   0  0  0  0  0  0  0  0  0  0  0  0
    0.6971   11.0065    2.1344 H   0  0  0  0  0  0  0  0  0  0  0  0
    0.8591    9.6908    0.9221 H   0  0  0  0  0  0  0  0  0  0  0  0
   -0.6008   10.7374    0.9221 H   0  0  0  0  0  0  0  0  0  0  0  0
   -0.9137   10.7915    4.0208 H   0  0  0  0  0  0  0  0  0  0  0  0
   -1.5460    8.7459    6.6425 H   0  0  0  0  0  0  0  0  0  0  0  0
   -2.1690   10.2789    5.9437 H   0  0  0  0  0  0  0  0  0  0  0  0
   -3.1997    8.8077    5.9437 H   0  0  0  0  0  0  0  0  0  0  0  0
   -1.3190    5.7960    1.5450 H   0  0  0  0  0  0  0  0  0  0  0  0
   -0.7200    5.2980    3.0870 H   0  0  0  0  0  0  0  0  0  0  0  0
  1  2  1  0
  2  3  2  0
  3  4  1  0
  4  5  1  0
  4  6  2  0
  6  7  1  0
  7  8  1  0
  7  9  2  0
  9  2  1  0
  1 10  1  0
  1 11  1  0
  1 12  1  0
  3 13  1  0
  5 14  1  0
  5 15  1  0
  5 16  1  0
  8 17  1  0
  8 18  1  0
M  END
>  <meeko>  (3) 
{"is_sidechain": [false], "free_energy": -4.559, "intermolecular_energy": -4.692, "internal_energy": 0.0}

$$$$
4llx_ligand
     RDKit          3D

 18 18  0  0  0  0  0  0  0  0999 V2000
   -1.3680    9.5170    3.1990 C   0  0  0  0  0  0  0  0  0  0  0  0
   -1.7460    8.8990    4.5120 C   0  0  0  0  0  0  0  0  0  0  0  0
   -2.0460    9.6960    5.5970 C   0  0  0  0  0  0  0  0  0  0  0  0
   -2.3810    9.0410    6.7640 C   0  0  0  0  0  0  0  0  0  0  0  0
   -2.7190    9.8200    7.9990 C   0  0  0  0  0  0  0  0  0  0  0  0
   -2.4190    7.6970    6.8510 N   0  0  0  0  0  0  0  0  0  0  0  0
   -2.1310    7.0100    5.7420 C   0  0  0  0  0  0  0  0  0  0  0  0
   -2.1500    5.6330    5.8250 N   0  0  0  0  0  0  0  0  0  0  0  0
   -1.7770    7.5520    4.5750 N   0  0  0  0  0  0  0  0  0  0  0  0
   -0.8018   10.4427    3.3790 H   0  0  0  0  0  0  0  0  0  0  0  0
   -0.7463    8.8122    2.6275 H   0  0  0  0  0  0  0  0  0  0  0  0
   -2.2787    9.7494    2.6275 H   0  0  0  0  0  0  0  0  0  0  0  0
   -2.0196   10.7939    5.5352 H   0  0  0  0  0  0  0  0  0  0  0  0
   -2.4615    9.2266    8.8887 H   0  0  0  0  0  0  0  0  0  0  0  0
   -2.1478   10.7601    8.0073 H   0  0  0  0  0  0  0  0  0  0  0  0
   -3.7957   10.0451    8.0073 H   0  0  0  0  0  0  0  0  0  0  0  0
   -2.3720    5.3600    6.7720 H   0  0  0  0  0  0  0  0  0  0  0  0
   -2.7280    5.2630    5.0840 H   0  0  0  0  0  0  0  0  0  0  0  0
  1  2  1  0
  2  3  2  0
  3  4  1  0
  4  5  1  0
  4  6  2  0
  6  7  1  0
  7  8  1  0
  7  9  2  0
  9  2  1  0
  1 10  1  0
  1 11  1  0
  1 12  1  0
  3 13  1  0
  5 14  1  0
  5 15  1  0
  5 16  1  0
  8 17  1  0
  8 18  1  0
M  END
>  <meeko>  (4) 
{"is_sidechain": [false], "free_energy": -4.539, "intermolecular_energy": -4.672, "internal_energy": 0.0}

$$$$
4llx_ligand
     RDKit          3D

 18 18  0  0  0  0  0  0  0  0999 V2000
   -2.7820   10.0250    7.9380 C   0  0  0  0  0  0  0  0  0  0  0  0
   -2.4130    9.2470    6.7110 C   0  0  0  0  0  0  0  0  0  0  0  0
   -2.0800    9.9020    5.5440 C   0  0  0  0  0  0  0  0  0  0  0  0
   -1.7570    9.1050    4.4650 C   0  0  0  0  0  0  0  0  0  0  0  0
   -1.3850    9.7240    3.1520 C   0  0  0  0  0  0  0  0  0  0  0  0
   -1.7600    7.7600    4.5360 N   0  0  0  0  0  0  0  0  0  0  0  0
   -2.0780    7.2160    5.7140 C   0  0  0  0  0  0  0  0  0  0  0  0
   -2.1010    5.8390    5.7930 N   0  0  0  0  0  0  0  0  0  0  0  0
   -2.4230    7.9020    6.8060 N   0  0  0  0  0  0  0  0  0  0  0  0
   -2.5085    9.4483    8.8339 H   0  0  0  0  0  0  0  0  0  0  0  0
   -2.2427   10.9837    7.9403 H   0  0  0  0  0  0  0  0  0  0  0  0
   -3.8657   10.2139    7.9403 H   0  0  0  0  0  0  0  0  0  0  0  0
   -2.0723   10.9999    5.4770 H   0  0  0  0  0  0  0  0  0  0  0  0
   -0.8259   10.6543    3.3305 H   0  0  0  0  0  0  0  0  0  0  0  0
   -0.7582    9.0234    2.5808 H   0  0  0  0  0  0  0  0  0  0  0  0
   -2.2978    9.9487    2.5808 H   0  0  0  0  0  0  0  0  0  0  0  0
   -2.6450    5.5620    6.5990 H   0  0  0  0  0  0  0  0  0  0  0  0
   -2.3680    5.4590    4.8960 H   0  0  0  0  0  0  0  0  0  0  0  0
  1  2  1  0
  2  3  2  0
  3  4  1  0
  4  5  1  0
  4  6  2  0
  6  7  1  0
  7  8  1  0
  7  9  2  0
  9  2  1  0
  1 10  1  0
  1 11  1  0
  1 12  1  0
  3 13  1  0
  5 14  1  0
  5 15  1  0
  5 16  1  0
  8 17  1  0
  8 18  1  0
M  END
>  <meeko>  (5) 
{"is_sidechain": [false], "free_energy": -4.498, "intermolecular_energy": -4.629, "internal_energy": 0.0}

$$$$
4llx_ligand
     RDKit          3D

 18 18  0  0  0  0  0  0  0  0999 V2000
   -2.1390    9.4080    5.6380 C   0  0  0  0  0  0  0  0  0  0  0  0
   -1.5770    8.9670    4.3200 C   0  0  0  0  0  0  0  0  0  0  0  0
   -0.9730    9.8800    3.4810 C   0  0  0  0  0  0  0  0  0  0  0  0
   -0.4870    9.3860    2.2870 C   0  0  0  0  0  0  0  0  0  0  0  0
    0.1830   10.3000    1.3070 C   0  0  0  0  0  0  0  0  0  0  0  0
   -0.5900    8.0850    1.9510 N   0  0  0  0  0  0  0  0  0  0  0  0
   -1.1740    7.2740    2.8370 C   0  0  0  0  0  0  0  0  0  0  0  0
   -1.3000    5.9440    2.4940 N   0  0  0  0  0  0  0  0  0  0  0  0
   -1.6920    7.6620    4.0050 N   0  0  0  0  0  0  0  0  0  0  0  0
   -1.5592    8.9530    6.4545 H   0  0  0  0  0  0  0  0  0  0  0  0
   -2.0807   10.5039    5.7133 H   0  0  0  0  0  0  0  0  0  0  0  0
   -3.1896    9.0907    5.7133 H   0  0  0  0  0  0  0  0  0  0  0  0
   -0.8835   10.9432    3.7485 H   0  0  0  0  0  0  0  0  0  0  0  0
    0.7480   11.0708    1.8516 H   0  0  0  0  0  0  0  0  0  0  0  0
    0.8708    9.7191    0.6749 H   0  0  0  0  0  0  0  0  0  0  0  0
   -0.5779   10.7811    0.6749 H   0  0  0  0  0  0  0  0  0  0  0  0
   -0.6860    5.3910    3.0770 H   0  0  0  0  0  0  0  0  0  0  0  0
   -2.2790    5.6950    2.4790 H   0  0  0  0  0  0  0  0  0  0  0  0
  1  2  1  0
  2  3  2  0
  3  4  1  0
  4  5  1  0
  4  6  2  0
  6  7  1  0
  7  8  1  0
  7  9  2  0
  9  2  1  0
  1 10  1  0
  1 11  1  0
  1 12  1  0
  3 13  1  0
  5 14  1  0
  5 15  1  0
  5 16  1  0
  8 17  1  0
  8 18  1  0
M  END
>  <meeko>  (6) 
{"is_sidechain": [false], "free_energy": -4.458, "intermolecular_energy": -4.589, "internal_energy": 0.0}

$$$$
4llx_ligand
     RDKit          3D

 18 18  0  0  0  0  0  0  0  0999 V2000
   -2.6110    8.0430    8.6850 C   0  0  0  0  0  0  0  0  0  0  0  0
   -2.6180    9.2040    7.7380 C   0  0  0  0  0  0  0  0  0  0  0  0
   -2.2550    9.0290    6.4180 C   0  0  0  0  0  0  0  0  0  0  0  0
   -2.2880   10.1550    5.6190 C   0  0  0  0  0  0  0  0  0  0  0  0
   -1.9070   10.0670    4.1730 C   0  0  0  0  0  0  0  0  0  0  0  0
   -2.6560   11.3620    6.0910 N   0  0  0  0  0  0  0  0  0  0  0  0
   -3.0080   11.4290    7.3780 C   0  0  0  0  0  0  0  0  0  0  0  0
   -3.3690   12.6650    7.8740 N   0  0  0  0  0  0  0  0  0  0  0  0
   -2.9890   10.4030    8.2310 N   0  0  0  0  0  0  0  0  0  0  0  0
   -2.6132    8.4144    9.7204 H   0  0  0  0  0  0  0  0  0  0  0  0
   -3.5054    7.4257    8.5149 H   0  0  0  0  0  0  0  0  0  0  0  0
   -1.7092    7.4365    8.5149 H   0  0  0  0  0  0  0  0  0  0  0  0
   -1.9558    8.0466    6.0239 H   0  0  0  0  0  0  0  0  0  0  0  0
   -0.8383    9.8202    4.0898 H   0  0  0  0  0  0  0  0  0  0  0  0
   -2.5036    9.2830    3.6837 H   0  0  0  0  0  0  0  0  0  0  0  0
   -2.0993   11.0332    3.6837 H   0  0  0  0  0  0  0  0  0  0  0  0
   -3.1980   13.3690    7.1700 H   0  0  0  0  0  0  0  0  0  0  0  0
   -4.3000   12.6090    8.2620 H   0  0  0  0  0  0  0  0  0  0  0  0
  1  2  1  0
  2  3  2  0
  3  4  1  0
  4  5  1  0
  4  6  2  0
  6  7  1  0
  7  8  1  0
  7  9  2  0
  9  2  1  0
  1 10  1  0
  1 11  1  0
  1 12  1  0
  3 13  1  0
  5 14  1  0
  5 15  1  0
  5 16  1  0
  8 17  1  0
  8 18  1  0
M  END
>  <meeko>  (7) 
{"is_sidechain": [false], "free_energy": -4.418, "intermolecular_energy": -4.547, "internal_energy": 0.0}

$$$$
4llx_ligand
     RDKit          3D

 18 18  0  0  0  0  0  0  0  0999 V2000
    1.5950   10.2100   -3.9570 C   0  0  0  0  0  0  0  0  0  0  0  0
    0.8010    9.3490   -3.0220 C   0  0  0  0  0  0  0  0  0  0  0  0
   -0.2950    9.8640   -2.3620 C   0  0  0  0  0  0  0  0  0  0  0  0
   -0.9640    9.0000   -1.5180 C   0  0  0  0  0  0  0  0  0  0  0  0
   -2.1640    9.4680   -0.7540 C   0  0  0  0  0  0  0  0  0  0  0  0
   -0.5790    7.7200   -1.3440 N   0  0  0  0  0  0  0  0  0  0  0  0
    0.4830    7.3070   -2.0420 C   0  0  0  0  0  0  0  0  0  0  0  0
    0.8960    6.0030   -1.8570 N   0  0  0  0  0  0  0  0  0  0  0  0
    1.2050    8.0720   -2.8640 N   0  0  0  0  0  0  0  0  0  0  0  0
    2.2279   10.8963   -3.3753 H   0  0  0  0  0  0  0  0  0  0  0  0
    2.2302    9.5740   -4.5910 H   0  0  0  0  0  0  0  0  0  0  0  0
    0.9097   10.7917   -4.5910 H   0  0  0  0  0  0  0  0  0  0  0  0
   -0.6185   10.9062   -2.5004 H   0  0  0  0  0  0  0  0  0  0  0  0
   -1.9649    9.3903    0.3250 H   0  0  0  0  0  0  0  0  0  0  0  0
   -2.3779   10.5155   -1.0129 H   0  0  0  0  0  0  0  0  0  0  0  0
   -3.0306    8.8419   -1.0129 H   0  0  0  0  0  0  0  0  0  0  0  0
    1.7790    6.0020   -1.3660 H   0  0  0  0  0  0  0  0  0  0  0  0
    0.1390    5.4670   -1.4590 H   0  0  0  0  0  0  0  0  0  0  0  0
  1  2  1  0
  2  3  2  0
  3  4  1  0
  4  5  1  0
  4  6  2  0
  6  7  1  0
  7  8  1  0
  7  9  2  0
  9  2  1  0
  1 10  1  0
  1 11  1  0
  1 12  1  0
  3 13  1  0
  5 14  1  0
  5 15  1  0
  5 16  1  0
  8 17  1  0
  8 18  1  0
M  END
>  <meeko>  (8) 
{"is_sidechain": [false], "free_energy": -4.322, "intermolecular_energy": -4.448, "internal_energy": 0.0}

$$$$
4llx_ligand
     RDKit          3D

 18 18  0  0  0  0  0  0  0  0999 V2000
   -2.1500    9.4550   -0.7670 C   0  0  0  0  0  0  0  0  0  0  0  0
   -0.9520    8.9670   -1.5240 C   0  0  0  0  0  0  0  0  0  0  0  0
   -0.2750    9.8120   -2.3780 C   0  0  0  0  0  0  0  0  0  0  0  0
    0.8140    9.2760   -3.0350 C   0  0  0  0  0  0  0  0  0  0  0  0
    1.6120   10.1150   -3.9860 C   0  0  0  0  0  0  0  0  0  0  0  0
    1.2060    7.9990   -2.8570 N   0  0  0  0  0  0  0  0  0  0  0  0
    0.4990    7.2620   -1.9960 C   0  0  0  0  0  0  0  0  0  0  0  0
    0.8810    5.9480   -1.8210 N   0  0  0  0  0  0  0  0  0  0  0  0
   -0.5790    7.6850   -1.3310 N   0  0  0  0  0  0  0  0  0  0  0  0
   -1.9580    9.3768    0.3133 H   0  0  0  0  0  0  0  0  0  0  0  0
   -2.3468   10.5050   -1.0294 H   0  0  0  0  0  0  0  0  0  0  0  0
   -3.0245    8.8414   -1.0294 H   0  0  0  0  0  0  0  0  0  0  0  0
   -0.5860   10.8565   -2.5275 H   0  0  0  0  0  0  0  0  0  0  0  0
    2.2609   10.7973   -3.4173 H   0  0  0  0  0  0  0  0  0  0  0  0
    2.2312    9.4629   -4.6194 H   0  0  0  0  0  0  0  0  0  0  0  0
    0.9297   10.7008   -4.6194 H   0  0  0  0  0  0  0  0  0  0  0  0
    1.2400    5.8290   -0.8830 H   0  0  0  0  0  0  0  0  0  0  0  0
    0.1290    5.3410   -2.1130 H   0  0  0  0  0  0  0  0  0  0  0  0
  1  2  1  0
  2  3  2  0
  3  4  1  0
  4  5  1  0
  4  6  2  0
  6  7  1  0
  7  8  1  0
  7  9  2  0
  9  2  1  0
  1 10  1  0
  1 11  1  0
  1 12  1  0
  3 13  1  0
  5 14  1  0
  5 15  1  0
  5 16  1  0
  8 17  1  0
  8 18  1  0
M  END
>  <meeko>  (9) 
{"is_sidechain": [false], "free_energy": -4.305, "intermolecular_energy": -4.43, "internal_energy": 0.0}

$$$$
