1eby_ligand
     RDKit          3D

 88 93  0  0  0  0  0  0  0  0999 V2000
   -0.5080    3.7640   10.4740 O   0  0  0  0  0  0  0  0  0  0  0  0
   -1.0250    2.7590    9.9840 C   0  0  0  0  0  0  0  0  0  0  0  0
   -0.4600    1.5140   10.1230 N   0  0  0  0  0  0  0  0  0  0  0  0
    0.8770    1.3650   10.6410 C   0  0  1  0  0  0  0  0  0  0  0  0
    0.9110    0.8280   12.0470 C   0  0  0  0  0  0  0  0  0  0  0  0
    0.1070    1.1730   13.1220 C   0  0  0  0  0  0  0  0  0  0  0  0
    0.3550    0.5740   14.3580 C   0  0  0  0  0  0  0  0  0  0  0  0
    1.4050   -0.3450   14.5090 C   0  0  0  0  0  0  0  0  0  0  0  0
    2.2210   -0.6790   13.4260 C   0  0  0  0  0  0  0  0  0  0  0  0
    1.9590   -0.0900   12.2000 C   0  0  0  0  0  0  0  0  0  0  0  0
    2.7150   -0.2660   10.9150 C   0  0  0  0  0  0  0  0  0  0  0  0
    1.7180    0.2950    9.8820 C   0  0  1  0  0  0  0  0  0  0  0  0
    0.8810   -0.7710    9.3890 O   0  0  0  0  0  0  0  0  0  0  0  0
   -2.3060    2.8070    9.1160 C   0  0  2  0  0  0  0  0  0  0  0  0
   -3.4050    3.2480    9.9290 O   0  0  0  0  0  0  0  0  0  0  0  0
   -3.4760    4.6690   10.0470 C   0  0  0  0  0  0  0  0  0  0  0  0
   -4.8360    5.0480   10.5780 C   0  0  0  0  0  0  0  0  0  0  0  0
   -5.6180    4.1220   11.2810 C   0  0  0  0  0  0  0  0  0  0  0  0
   -6.8540    4.4970   11.8110 C   0  0  0  0  0  0  0  0  0  0  0  0
   -7.3190    5.8010   11.6440 C   0  0  0  0  0  0  0  0  0  0  0  0
   -6.5500    6.7310   10.9470 C   0  0  0  0  0  0  0  0  0  0  0  0
   -5.3150    6.3580   10.4190 C   0  0  0  0  0  0  0  0  0  0  0  0
   -2.6600    1.4240    8.5140 C   0  0  2  0  0  0  0  0  0  0  0  0
   -1.6770    1.0910    7.5150 O   0  0  0  0  0  0  0  0  0  0  0  0
   -4.0940    1.4510    7.9120 C   0  0  1  0  0  0  0  0  0  0  0  0
   -4.0260    1.3330    6.4760 O   0  0  0  0  0  0  0  0  0  0  0  0
   -5.0630    0.4000    8.4880 C   0  0  1  0  0  0  0  0  0  0  0  0
   -6.3950    0.8010    8.1240 O   0  0  0  0  0  0  0  0  0  0  0  0
   -7.2910    0.8300    9.2340 C   0  0  0  0  0  0  0  0  0  0  0  0
   -8.0230    2.1430    9.1900 C   0  0  0  0  0  0  0  0  0  0  0  0
   -7.5660    3.1850    8.3700 C   0  0  0  0  0  0  0  0  0  0  0  0
   -8.2600    4.3930    8.3060 C   0  0  0  0  0  0  0  0  0  0  0  0
   -9.4220    4.5710    9.0560 C   0  0  0  0  0  0  0  0  0  0  0  0
   -9.8910    3.5410    9.8670 C   0  0  0  0  0  0  0  0  0  0  0  0
   -9.1960    2.3320    9.9340 C   0  0  0  0  0  0  0  0  0  0  0  0
   -4.7240   -0.9820    7.9160 C   0  0  0  0  0  0  0  0  0  0  0  0
   -3.9960   -1.7690    8.5170 O   0  0  0  0  0  0  0  0  0  0  0  0
   -5.2190   -1.1970    6.6590 N   0  0  0  0  0  0  0  0  0  0  0  0
   -4.8460   -2.3150    5.8240 C   0  0  1  0  0  0  0  0  0  0  0  0
   -5.7950   -2.4740    4.6750 C   0  0  0  0  0  0  0  0  0  0  0  0
   -7.0910   -2.9650    4.7090 C   0  0  0  0  0  0  0  0  0  0  0  0
   -7.8190   -3.0020    3.5190 C   0  0  0  0  0  0  0  0  0  0  0  0
   -7.2510   -2.5450    2.3200 C   0  0  0  0  0  0  0  0  0  0  0  0
   -5.9460   -2.0480    2.2950 C   0  0  0  0  0  0  0  0  0  0  0  0
   -5.2270   -2.0240    3.4780 C   0  0  0  0  0  0  0  0  0  0  0  0
   -3.8390   -1.5090    3.6930 C   0  0  0  0  0  0  0  0  0  0  0  0
   -3.4930   -2.0460    5.0980 C   0  0  1  0  0  0  0  0  0  0  0  0
   -2.6680   -1.0990    5.7850 O   0  0  0  0  0  0  0  0  0  0  0  0
   -0.7970    0.7900    9.4900 H   0  0  0  0  0  0  0  0  0  0  0  0
    1.2739    2.3865   10.5459 H   0  0  0  0  0  0  0  0  0  0  0  0
   -0.7080    1.9023   13.0037 H   0  0  0  0  0  0  0  0  0  0  0  0
   -0.2783    0.8245   15.2218 H   0  0  0  0  0  0  0  0  0  0  0  0
    1.5871   -0.8070   15.4905 H   0  0  0  0  0  0  0  0  0  0  0  0
    3.0506   -1.3917   13.5436 H   0  0  0  0  0  0  0  0  0  0  0  0
    3.6525    0.3094   10.9200 H   0  0  0  0  0  0  0  0  0  0  0  0
    3.0230   -1.3035   10.7184 H   0  0  0  0  0  0  0  0  0  0  0  0
    2.2231    0.7395    9.0117 H   0  0  0  0  0  0  0  0  0  0  0  0
    1.4090   -1.5870    9.4130 H   0  0  0  0  0  0  0  0  0  0  0  0
   -2.1188    3.5019    8.2841 H   0  0  0  0  0  0  0  0  0  0  0  0
   -2.6978    5.0213   10.7400 H   0  0  0  0  0  0  0  0  0  0  0  0
   -3.3179    5.1330    9.0623 H   0  0  0  0  0  0  0  0  0  0  0  0
   -5.2555    3.0923   11.4163 H   0  0  0  0  0  0  0  0  0  0  0  0
   -7.4616    3.7631   12.3608 H   0  0  0  0  0  0  0  0  0  0  0  0
   -8.2927    6.0955   12.0624 H   0  0  0  0  0  0  0  0  0  0  0  0
   -6.9175    7.7592   10.8135 H   0  0  0  0  0  0  0  0  0  0  0  0
   -4.7102    7.0969    9.8728 H   0  0  0  0  0  0  0  0  0  0  0  0
   -2.6475    0.6537    9.2992 H   0  0  0  0  0  0  0  0  0  0  0  0
   -0.9840    1.7840    7.5150 H   0  0  0  0  0  0  0  0  0  0  0  0
   -4.5176    2.4232    8.2042 H   0  0  0  0  0  0  0  0  0  0  0  0
   -4.7390    1.9010    6.1230 H   0  0  0  0  0  0  0  0  0  0  0  0
   -4.9791    0.3346    9.5828 H   0  0  0  0  0  0  0  0  0  0  0  0
   -8.0070   -0.0018    9.1605 H   0  0  0  0  0  0  0  0  0  0  0  0
   -6.7394    0.7255   10.1799 H   0  0  0  0  0  0  0  0  0  0  0  0
   -6.6526    3.0483    7.7724 H   0  0  0  0  0  0  0  0  0  0  0  0
   -7.8905    5.2058    7.6635 H   0  0  0  0  0  0  0  0  0  0  0  0
   -9.9679    5.5247    9.0069 H   0  0  0  0  0  0  0  0  0  0  0  0
  -10.8099    3.6799   10.4555 H   0  0  0  0  0  0  0  0  0  0  0  0
   -9.5718    1.5214   10.5756 H   0  0  0  0  0  0  0  0  0  0  0  0
   -5.8330   -0.4870    6.2640 H   0  0  0  0  0  0  0  0  0  0  0  0
   -4.8217   -3.1828    6.4995 H   0  0  0  0  0  0  0  0  0  0  0  0
   -7.5350   -3.3171    5.6518 H   0  0  0  0  0  0  0  0  0  0  0  0
   -8.8472   -3.3929    3.5209 H   0  0  0  0  0  0  0  0  0  0  0  0
   -7.8391   -2.5785    1.3910 H   0  0  0  0  0  0  0  0  0  0  0  0
   -5.5000   -1.6842    1.3576 H   0  0  0  0  0  0  0  0  0  0  0  0
   -3.1469   -1.9051    2.9352 H   0  0  0  0  0  0  0  0  0  0  0  0
   -3.7615   -0.4147    3.6122 H   0  0  0  0  0  0  0  0  0  0  0  0
   -2.9162   -2.9818    5.0585 H   0  0  0  0  0  0  0  0  0  0  0  0
   -1.9900   -0.7750    5.1550 H   0  0  0  0  0  0  0  0  0  0  0  0
  1  2  2  0
  2  3  1  0
  3  4  1  0
  4  5  1  0
  5  6  2  0
  6  7  1  0
  7  8  2  0
  8  9  1  0
  9 10  2  0
 10 11  1  0
 11 12  1  0
 12 13  1  0
  2 14  1  0
 14 15  1  0
 15 16  1  0
 16 17  1  0
 17 18  2  0
 18 19  1  0
 19 20  2  0
 20 21  1  0
 21 22  2  0
 14 23  1  0
 23 24  1  0
 23 25  1  0
 25 26  1  0
 25 27  1  0
 27 28  1  0
 28 29  1  0
 29 30  1  0
 30 31  2  0
 31 32  1  0
 32 33  2  0
 33 34  1  0
 34 35  2  0
 27 36  1  0
 36 37  2  0
 36 38  1  0
 38 39  1  0
 39 40  1  0
 40 41  2  0
 41 42  1  0
 42 43  2  0
 43 44  1  0
 44 45  2  0
 45 46  1  0
 46 47  1  0
 47 48  1  0
 12  4  1  0
 22 17  1  0
 35 30  1  0
 47 39  1  0
 10  5  1  0
 45 40  1  0
  3 49  1  0
  4 50  1  1
  6 51  1  0
  7 52  1  0
  8 53  1  0
  9 54  1  0
 11 55  1  0
 11 56  1  0
 12 57  1  6
 13 58  1  0
 14 59  1  6
 16 60  1  0
 16 61  1  0
 18 62  1  0
 19 63  1  0
 20 64  1  0
 21 65  1  0
 22 66  1  0
 23 67  1  1
 24 68  1  0
 25 69  1  6
 26 70  1  0
 27 71  1  1
 29 72  1  0
 29 73  1  0
 31 74  1  0
 32 75  1  0
 33 76  1  0
 34 77  1  0
 35 78  1  0
 38 79  1  0
 39 80  1  1
 41 81  1  0
 42 82  1  0
 43 83  1  0
 44 84  1  0
 46 85  1  0
 46 86  1  0
 47 87  1  6
 48 88  1  0
M  END
>  <meeko>  (1) 
{"is_sidechain": [false], "free_energy": -8.238, "intermolecular_energy": -15.462, "internal_energy": -4.614}

$$$$
1eby_ligand
     RDKit          3D

 88 93  0  0  0  0  0  0  0  0999 V2000
   -2.5270   -1.9250    5.2080 O   0  0  0  0  0  0  0  0  0  0  0  0
   -3.5910   -2.0220    5.8200 C   0  0  0  0  0  0  0  0  0  0  0  0
   -4.7520   -2.4120    5.1970 N   0  0  0  0  0  0  0  0  0  0  0  0
   -4.8260   -2.4950    3.7600 C   0  0  1  0  0  0  0  0  0  0  0  0
   -5.9000   -3.4300    3.2740 C   0  0  0  0  0  0  0  0  0  0  0  0
   -6.2370   -4.6840    3.7600 C   0  0  0  0  0  0  0  0  0  0  0  0
   -7.2470   -5.3980    3.1130 C   0  0  0  0  0  0  0  0  0  0  0  0
   -7.8950   -4.8630    1.9900 C   0  0  0  0  0  0  0  0  0  0  0  0
   -7.5420   -3.6050    1.4960 C   0  0  0  0  0  0  0  0  0  0  0  0
   -6.5480   -2.8970    2.1520 C   0  0  0  0  0  0  0  0  0  0  0  0
   -5.9820   -1.5550    1.7870 C   0  0  0  0  0  0  0  0  0  0  0  0
   -5.2530   -1.1570    3.0850 C   0  0  1  0  0  0  0  0  0  0  0  0
   -6.1470   -0.4090    3.9340 O   0  0  0  0  0  0  0  0  0  0  0  0
   -3.7400   -1.6510    7.3160 C   0  0  2  0  0  0  0  0  0  0  0  0
   -4.8100   -2.4230    7.8850 O   0  0  0  0  0  0  0  0  0  0  0  0
   -4.3490   -3.5310    8.6570 C   0  0  0  0  0  0  0  0  0  0  0  0
   -4.5710   -4.8000    7.8710 C   0  0  0  0  0  0  0  0  0  0  0  0
   -3.4900   -5.5820    7.4450 C   0  0  0  0  0  0  0  0  0  0  0  0
   -3.7090   -6.7800    6.7610 C   0  0  0  0  0  0  0  0  0  0  0  0
   -5.0090   -7.2070    6.4980 C   0  0  0  0  0  0  0  0  0  0  0  0
   -6.0930   -6.4370    6.9170 C   0  0  0  0  0  0  0  0  0  0  0  0
   -5.8760   -5.2420    7.6020 C   0  0  0  0  0  0  0  0  0  0  0  0
   -4.0530   -0.1470    7.5200 C   0  0  2  0  0  0  0  0  0  0  0  0
   -4.4420    0.4170    6.2530 O   0  0  0  0  0  0  0  0  0  0  0  0
   -2.8130    0.5840    8.1090 C   0  0  1  0  0  0  0  0  0  0  0  0
   -1.6810    0.4220    7.2290 O   0  0  0  0  0  0  0  0  0  0  0  0
   -3.0280    2.0770    8.4300 C   0  0  1  0  0  0  0  0  0  0  0  0
   -4.2120    2.1740    9.2390 O   0  0  0  0  0  0  0  0  0  0  0  0
   -5.2830    2.8500    8.5800 C   0  0  0  0  0  0  0  0  0  0  0  0
   -5.5460    4.1240    9.3350 C   0  0  0  0  0  0  0  0  0  0  0  0
   -6.6280    4.9460    8.9870 C   0  0  0  0  0  0  0  0  0  0  0  0
   -6.8900    6.1130    9.7060 C   0  0  0  0  0  0  0  0  0  0  0  0
   -6.0800    6.4670   10.7830 C   0  0  0  0  0  0  0  0  0  0  0  0
   -5.0080    5.6530   11.1440 C   0  0  0  0  0  0  0  0  0  0  0  0
   -4.7430    4.4870   10.4250 C   0  0  0  0  0  0  0  0  0  0  0  0
   -1.8040    2.6270    9.1700 C   0  0  0  0  0  0  0  0  0  0  0  0
   -1.5750    3.8340    9.2350 O   0  0  0  0  0  0  0  0  0  0  0  0
   -0.9630    1.6580    9.6470 N   0  0  0  0  0  0  0  0  0  0  0  0
    0.3570    1.9190   10.1700 C   0  0  1  0  0  0  0  0  0  0  0  0
    0.5250    1.3290   11.5370 C   0  0  0  0  0  0  0  0  0  0  0  0
   -0.0110    1.7900   12.7300 C   0  0  0  0  0  0  0  0  0  0  0  0
    0.2480    1.0690   13.8970 C   0  0  0  0  0  0  0  0  0  0  0  0
    1.0250   -0.0980   13.8570 C   0  0  0  0  0  0  0  0  0  0  0  0
    1.5580   -0.5580   12.6510 C   0  0  0  0  0  0  0  0  0  0  0  0
    1.3050    0.1680   11.4990 C   0  0  0  0  0  0  0  0  0  0  0  0
    1.7410   -0.1500   10.1050 C   0  0  0  0  0  0  0  0  0  0  0  0
    1.4450    1.1630    9.3490 C   0  0  1  0  0  0  0  0  0  0  0  0
    1.0310    0.8640    8.0120 O   0  0  0  0  0  0  0  0  0  0  0  0
   -5.6200   -2.2250    5.6980 H   0  0  0  0  0  0  0  0  0  0  0  0
   -3.8070   -2.8158    3.4979 H   0  0  0  0  0  0  0  0  0  0  0  0
   -5.7207   -5.1063    4.6347 H   0  0  0  0  0  0  0  0  0  0  0  0
   -7.5377   -6.3905    3.4877 H   0  0  0  0  0  0  0  0  0  0  0  0
   -8.6891   -5.4398    1.4933 H   0  0  0  0  0  0  0  0  0  0  0  0
   -8.0404   -3.1872    0.6089 H   0  0  0  0  0  0  0  0  0  0  0  0
   -5.2821   -1.6319    0.9419 H   0  0  0  0  0  0  0  0  0  0  0  0
   -6.7384   -0.8266    1.4595 H   0  0  0  0  0  0  0  0  0  0  0  0
   -4.3783   -0.5181    2.8932 H   0  0  0  0  0  0  0  0  0  0  0  0
   -7.0520   -0.5860    3.6260 H   0  0  0  0  0  0  0  0  0  0  0  0
   -2.7817   -1.8692    7.8101 H   0  0  0  0  0  0  0  0  0  0  0  0
   -3.2765   -3.4117    8.8705 H   0  0  0  0  0  0  0  0  0  0  0  0
   -4.9016   -3.5793    9.6069 H   0  0  0  0  0  0  0  0  0  0  0  0
   -2.4615   -5.2505    7.6505 H   0  0  0  0  0  0  0  0  0  0  0  0
   -2.8539   -7.3873    6.4294 H   0  0  0  0  0  0  0  0  0  0  0  0
   -5.1799   -8.1511    5.9601 H   0  0  0  0  0  0  0  0  0  0  0  0
   -7.1195   -6.7721    6.7072 H   0  0  0  0  0  0  0  0  0  0  0  0
   -6.7348   -4.6404    7.9345 H   0  0  0  0  0  0  0  0  0  0  0  0
   -4.8787   -0.0237    8.2363 H   0  0  0  0  0  0  0  0  0  0  0  0
   -5.1500    1.0780    6.4090 H   0  0  0  0  0  0  0  0  0  0  0  0
   -2.6236    0.1038    9.0803 H   0  0  0  0  0  0  0  0  0  0  0  0
   -1.1730    1.2550    7.2860 H   0  0  0  0  0  0  0  0  0  0  0  0
   -3.1533    2.6705    7.5123 H   0  0  0  0  0  0  0  0  0  0  0  0
   -4.9999    3.0800    7.5422 H   0  0  0  0  0  0  0  0  0  0  0  0
   -6.1841    2.2195    8.5582 H   0  0  0  0  0  0  0  0  0  0  0  0
   -7.2746    4.6688    8.1414 H   0  0  0  0  0  0  0  0  0  0  0  0
   -7.7373    6.7544    9.4220 H   0  0  0  0  0  0  0  0  0  0  0  0
   -6.2865    7.3881   11.3478 H   0  0  0  0  0  0  0  0  0  0  0  0
   -4.3703    5.9299   11.9964 H   0  0  0  0  0  0  0  0  0  0  0  0
   -3.8968    3.8473   10.7160 H   0  0  0  0  0  0  0  0  0  0  0  0
   -1.2630    0.6880    9.5610 H   0  0  0  0  0  0  0  0  0  0  0  0
    0.4646    3.0135   10.1459 H   0  0  0  0  0  0  0  0  0  0  0  0
   -0.6255    2.7020   12.7561 H   0  0  0  0  0  0  0  0  0  0  0  0
   -0.1609    1.4192   14.8563 H   0  0  0  0  0  0  0  0  0  0  0  0
    1.2165   -0.6566   14.7851 H   0  0  0  0  0  0  0  0  0  0  0  0
    2.1644   -1.4751   12.6168 H   0  0  0  0  0  0  0  0  0  0  0  0
    2.8129   -0.3945   10.0707 H   0  0  0  0  0  0  0  0  0  0  0  0
    1.2301   -1.0250    9.6767 H   0  0  0  0  0  0  0  0  0  0  0  0
    2.3337    1.8047    9.2571 H   0  0  0  0  0  0  0  0  0  0  0  0
    0.5230    1.6310    7.6740 H   0  0  0  0  0  0  0  0  0  0  0  0
  1  2  2  0
  2  3  1  0
  3  4  1  0
  4  5  1  0
  5  6  2  0
  6  7  1  0
  7  8  2  0
  8  9  1  0
  9 10  2  0
 10 11  1  0
 11 12  1  0
 12 13  1  0
  2 14  1  0
 14 15  1  0
 15 16  1  0
 16 17  1  0
 17 18  2  0
 18 19  1  0
 19 20  2  0
 20 21  1  0
 21 22  2  0
 14 23  1  0
 23 24  1  0
 23 25  1  0
 25 26  1  0
 25 27  1  0
 27 28  1  0
 28 29  1  0
 29 30  1  0
 30 31  2  0
 31 32  1  0
 32 33  2  0
 33 34  1  0
 34 35  2  0
 27 36  1  0
 36 37  2  0
 36 38  1  0
 38 39  1  0
 39 40  1  0
 40 41  2  0
 41 42  1  0
 42 43  2  0
 43 44  1  0
 44 45  2  0
 45 46  1  0
 46 47  1  0
 47 48  1  0
 12  4  1  0
 22 17  1  0
 35 30  1  0
 47 39  1  0
 10  5  1  0
 45 40  1  0
  3 49  1  0
  4 50  1  6
  6 51  1  0
  7 52  1  0
  8 53  1  0
  9 54  1  0
 11 55  1  0
 11 56  1  0
 12 57  1  6
 13 58  1  0
 14 59  1  1
 16 60  1  0
 16 61  1  0
 18 62  1  0
 19 63  1  0
 20 64  1  0
 21 65  1  0
 22 66  1  0
 23 67  1  1
 24 68  1  0
 25 69  1  1
 26 70  1  0
 27 71  1  6
 29 72  1  0
 29 73  1  0
 31 74  1  0
 32 75  1  0
 33 76  1  0
 34 77  1  0
 35 78  1  0
 38 79  1  0
 39 80  1  1
 41 81  1  0
 42 82  1  0
 43 83  1  0
 44 84  1  0
 46 85  1  0
 46 86  1  0
 47 87  1  6
 48 88  1  0
M  END
>  <meeko>  (2) 
{"is_sidechain": [false], "free_energy": -7.863, "intermolecular_energy": -15.282, "internal_energy": -4.091}

$$$$
1eby_ligand
     RDKit          3D

 88 93  0  0  0  0  0  0  0  0999 V2000
   -3.4350    5.3750   10.1910 O   0  0  0  0  0  0  0  0  0  0  0  0
   -3.6610    4.1640   10.1990 C   0  0  0  0  0  0  0  0  0  0  0  0
   -4.9160    3.6600    9.9580 N   0  0  0  0  0  0  0  0  0  0  0  0
   -6.0650    4.5300    9.9210 C   0  0  1  0  0  0  0  0  0  0  0  0
   -7.1920    3.9890    9.0840 C   0  0  0  0  0  0  0  0  0  0  0  0
   -7.1260    3.3680    7.8460 C   0  0  0  0  0  0  0  0  0  0  0  0
   -8.3190    2.9870    7.2280 C   0  0  0  0  0  0  0  0  0  0  0  0
   -9.5550    3.2420    7.8420 C   0  0  0  0  0  0  0  0  0  0  0  0
   -9.6160    3.8800    9.0830 C   0  0  0  0  0  0  0  0  0  0  0  0
   -8.4270    4.2420    9.6950 C   0  0  0  0  0  0  0  0  0  0  0  0
   -8.2480    4.9620   11.0000 C   0  0  0  0  0  0  0  0  0  0  0  0
   -6.7610    4.6950   11.3060 C   0  0  1  0  0  0  0  0  0  0  0  0
   -6.6370    3.4950   12.0960 O   0  0  0  0  0  0  0  0  0  0  0  0
   -2.5830    3.1080   10.5470 C   0  0  2  0  0  0  0  0  0  0  0  0
   -1.5450    3.7360   11.3160 O   0  0  0  0  0  0  0  0  0  0  0  0
   -0.2430    3.2380   11.0070 C   0  0  0  0  0  0  0  0  0  0  0  0
    0.2300    2.3700   12.1470 C   0  0  0  0  0  0  0  0  0  0  0  0
   -0.5420    1.2920   12.5990 C   0  0  0  0  0  0  0  0  0  0  0  0
   -0.0710    0.4640   13.6210 C   0  0  0  0  0  0  0  0  0  0  0  0
    1.1740    0.7070   14.2000 C   0  0  0  0  0  0  0  0  0  0  0  0
    1.9500    1.7760   13.7580 C   0  0  0  0  0  0  0  0  0  0  0  0
    1.4830    2.6020   12.7360 C   0  0  0  0  0  0  0  0  0  0  0  0
   -1.9480    2.4790    9.2810 C   0  0  2  0  0  0  0  0  0  0  0  0
   -2.1550    3.3720    8.1690 O   0  0  0  0  0  0  0  0  0  0  0  0
   -2.5700    1.0800    9.0070 C   0  0  1  0  0  0  0  0  0  0  0  0
   -3.9900    1.1150    9.2600 O   0  0  0  0  0  0  0  0  0  0  0  0
   -2.2920    0.5060    7.6030 C   0  0  1  0  0  0  0  0  0  0  0  0
   -1.1020   -0.2950    7.6960 O   0  0  0  0  0  0  0  0  0  0  0  0
    0.0800    0.4210    7.3400 C   0  0  0  0  0  0  0  0  0  0  0  0
    1.0370    0.3170    8.4960 C   0  0  0  0  0  0  0  0  0  0  0  0
    0.8550   -0.6620    9.4840 C   0  0  0  0  0  0  0  0  0  0  0  0
    1.7580   -0.7770   10.5420 C   0  0  0  0  0  0  0  0  0  0  0  0
    2.8550    0.0780   10.6190 C   0  0  0  0  0  0  0  0  0  0  0  0
    3.0520    1.0480    9.6390 C   0  0  0  0  0  0  0  0  0  0  0  0
    2.1480    1.1670    8.5820 C   0  0  0  0  0  0  0  0  0  0  0  0
   -3.4900   -0.3320    7.1430 C   0  0  0  0  0  0  0  0  0  0  0  0
   -4.3420    0.1210    6.3800 O   0  0  0  0  0  0  0  0  0  0  0  0
   -3.5650   -1.5640    7.7340 N   0  0  0  0  0  0  0  0  0  0  0  0
   -4.7120   -2.4360    7.6430 C   0  0  1  0  0  0  0  0  0  0  0  0
   -4.2950   -3.8730    7.5600 C   0  0  0  0  0  0  0  0  0  0  0  0
   -3.7390   -4.5320    6.4740 C   0  0  0  0  0  0  0  0  0  0  0  0
   -3.3930   -5.8770    6.6190 C   0  0  0  0  0  0  0  0  0  0  0  0
   -3.5980   -6.5390    7.8390 C   0  0  0  0  0  0  0  0  0  0  0  0
   -4.1550   -5.8670    8.9290 C   0  0  0  0  0  0  0  0  0  0  0  0
   -4.5050   -4.5360    8.7740 C   0  0  0  0  0  0  0  0  0  0  0  0
   -5.0790   -3.6170    9.8040 C   0  0  0  0  0  0  0  0  0  0  0  0
   -5.5430   -2.4100    8.9610 C   0  0  1  0  0  0  0  0  0  0  0  0
   -5.3670   -1.2040    9.7110 O   0  0  0  0  0  0  0  0  0  0  0  0
   -5.0750    2.6910   10.2300 H   0  0  0  0  0  0  0  0  0  0  0  0
   -5.6312    5.4628    9.5316 H   0  0  0  0  0  0  0  0  0  0  0  0
   -6.1564    3.1798    7.3618 H   0  0  0  0  0  0  0  0  0  0  0  0
   -8.2897    2.4824    6.2510 H   0  0  0  0  0  0  0  0  0  0  0  0
  -10.4852    2.9363    7.3408 H   0  0  0  0  0  0  0  0  0  0  0  0
  -10.5836    4.0897    9.5623 H   0  0  0  0  0  0  0  0  0  0  0  0
   -8.4482    6.0385   10.8943 H   0  0  0  0  0  0  0  0  0  0  0  0
   -8.9332    4.6256   11.7920 H   0  0  0  0  0  0  0  0  0  0  0  0
   -6.2998    5.5112   11.8814 H   0  0  0  0  0  0  0  0  0  0  0  0
   -6.1650    3.7340   12.9120 H   0  0  0  0  0  0  0  0  0  0  0  0
   -3.0740    2.3053   11.1168 H   0  0  0  0  0  0  0  0  0  0  0  0
   -0.2846    2.6434   10.0825 H   0  0  0  0  0  0  0  0  0  0  0  0
    0.4533    4.0774   10.8631 H   0  0  0  0  0  0  0  0  0  0  0  0
   -1.5253    1.0962   12.1464 H   0  0  0  0  0  0  0  0  0  0  0  0
   -0.6832   -0.3809   13.9694 H   0  0  0  0  0  0  0  0  0  0  0  0
    1.5431    0.0549   15.0053 H   0  0  0  0  0  0  0  0  0  0  0  0
    2.9317    1.9688   14.2153 H   0  0  0  0  0  0  0  0  0  0  0  0
    2.1017    3.4425   12.3884 H   0  0  0  0  0  0  0  0  0  0  0  0
   -0.8675    2.3361    9.4293 H   0  0  0  0  0  0  0  0  0  0  0  0
   -2.9320    3.0610    7.6590 H   0  0  0  0  0  0  0  0  0  0  0  0
   -2.0667    0.3930    9.7033 H   0  0  0  0  0  0  0  0  0  0  0  0
   -4.2430    2.0590    9.2480 H   0  0  0  0  0  0  0  0  0  0  0  0
   -2.1452    1.3073    6.8638 H   0  0  0  0  0  0  0  0  0  0  0  0
    0.5300   -0.0213    6.4389 H   0  0  0  0  0  0  0  0  0  0  0  0
   -0.1548    1.4739    7.1249 H   0  0  0  0  0  0  0  0  0  0  0  0
   -0.0059   -1.3442    9.4245 H   0  0  0  0  0  0  0  0  0  0  0  0
    1.6033   -1.5435   11.3157 H   0  0  0  0  0  0  0  0  0  0  0  0
    3.5657   -0.0129   11.4537 H   0  0  0  0  0  0  0  0  0  0  0  0
    3.9204    1.7206    9.6980 H   0  0  0  0  0  0  0  0  0  0  0  0
    2.3089    1.9342    7.8103 H   0  0  0  0  0  0  0  0  0  0  0  0
   -2.7910   -1.8480    8.3320 H   0  0  0  0  0  0  0  0  0  0  0  0
   -5.2693   -2.0866    6.7613 H   0  0  0  0  0  0  0  0  0  0  0  0
   -3.5744   -4.0078    5.5211 H   0  0  0  0  0  0  0  0  0  0  0  0
   -2.9560   -6.4222    5.7695 H   0  0  0  0  0  0  0  0  0  0  0  0
   -3.3171   -7.5979    7.9378 H   0  0  0  0  0  0  0  0  0  0  0  0
   -4.3120   -6.3825    9.8879 H   0  0  0  0  0  0  0  0  0  0  0  0
   -5.9264   -4.0857   10.3257 H   0  0  0  0  0  0  0  0  0  0  0  0
   -4.3642   -3.3476   10.5956 H   0  0  0  0  0  0  0  0  0  0  0  0
   -6.6129   -2.4593    8.7101 H   0  0  0  0  0  0  0  0  0  0  0  0
   -5.7520   -0.4670    9.1930 H   0  0  0  0  0  0  0  0  0  0  0  0
  1  2  2  0
  2  3  1  0
  3  4  1  0
  4  5  1  0
  5  6  2  0
  6  7  1  0
  7  8  2  0
  8  9  1  0
  9 10  2  0
 10 11  1  0
 11 12  1  0
 12 13  1  0
  2 14  1  0
 14 15  1  0
 15 16  1  0
 16 17  1  0
 17 18  2  0
 18 19  1  0
 19 20  2  0
 20 21  1  0
 21 22  2  0
 14 23  1  0
 23 24  1  0
 23 25  1  0
 25 26  1  0
 25 27  1  0
 27 28  1  0
 28 29  1  0
 29 30  1  0
 30 31  2  0
 31 32  1  0
 32 33  2  0
 33 34  1  0
 34 35  2  0
 27 36  1  0
 36 37  2  0
 36 38  1  0
 38 39  1  0
 39 40  1  0
 40 41  2  0
 41 42  1  0
 42 43  2  0
 43 44  1  0
 44 45  2  0
 45 46  1  0
 46 47  1  0
 47 48  1  0
 12  4  1  0
 22 17  1  0
 35 30  1  0
 47 39  1  0
 10  5  1  0
 45 40  1  0
  3 49  1  0
  4 50  1  6
  6 51  1  0
  7 52  1  0
  8 53  1  0
  9 54  1  0
 11 55  1  0
 11 56  1  0
 12 57  1  1
 13 58  1  0
 14 59  1  1
 16 60  1  0
 16 61  1  0
 18 62  1  0
 19 63  1  0
 20 64  1  0
 21 65  1  0
 22 66  1  0
 23 67  1  1
 24 68  1  0
 25 69  1  1
 26 70  1  0
 27 71  1  6
 29 72  1  0
 29 73  1  0
 31 74  1  0
 32 75  1  0
 33 76  1  0
 34 77  1  0
 35 78  1  0
 38 79  1  0
 39 80  1  6
 41 81  1  0
 42 82  1  0
 43 83  1  0
 44 84  1  0
 46 85  1  0
 46 86  1  0
 47 87  1  6
 48 88  1  0
M  END
>  <meeko>  (3) 
{"is_sidechain": [false], "free_energy": -7.827, "intermolecular_energy": -14.263, "internal_energy": -5.041}

$$$$
1eby_ligand
     RDKit          3D

 88 93  0  0  0  0  0  0  0  0999 V2000
   -0.8670    4.1430   10.2160 O   0  0  0  0  0  0  0  0  0  0  0  0
   -1.5120    3.1150   10.0040 C   0  0  0  0  0  0  0  0  0  0  0  0
   -1.0080    1.8700   10.2950 N   0  0  0  0  0  0  0  0  0  0  0  0
    0.3820    1.7000   10.6380 C   0  0  1  0  0  0  0  0  0  0  0  0
    0.5850    1.0580   11.9840 C   0  0  0  0  0  0  0  0  0  0  0  0
   -0.0870    1.3080   13.1710 C   0  0  0  0  0  0  0  0  0  0  0  0
    0.3090    0.6190   14.3180 C   0  0  0  0  0  0  0  0  0  0  0  0
    1.3730   -0.2950   14.2720 C   0  0  0  0  0  0  0  0  0  0  0  0
    2.0550   -0.5330   13.0770 C   0  0  0  0  0  0  0  0  0  0  0  0
    1.6470    0.1450   11.9400 C   0  0  0  0  0  0  0  0  0  0  0  0
    2.2460    0.0770   10.5650 C   0  0  0  0  0  0  0  0  0  0  0  0
    1.1310    0.7020    9.7040 C   0  0  1  0  0  0  0  0  0  0  0  0
    0.2450   -0.3330    9.2320 O   0  0  0  0  0  0  0  0  0  0  0  0
   -2.9070    3.1200    9.3320 C   0  0  2  0  0  0  0  0  0  0  0  0
   -3.8840    3.5650   10.2870 O   0  0  0  0  0  0  0  0  0  0  0  0
   -4.2060    4.9490   10.1500 C   0  0  0  0  0  0  0  0  0  0  0  0
   -5.5520    5.2010   10.7820 C   0  0  0  0  0  0  0  0  0  0  0  0
   -6.3220    4.1430   11.2840 C   0  0  0  0  0  0  0  0  0  0  0  0
   -7.5440    4.3930   11.9120 C   0  0  0  0  0  0  0  0  0  0  0  0
   -8.0080    5.7010   12.0430 C   0  0  0  0  0  0  0  0  0  0  0  0
   -7.2510    6.7610   11.5480 C   0  0  0  0  0  0  0  0  0  0  0  0
   -6.0290    6.5140   10.9230 C   0  0  0  0  0  0  0  0  0  0  0  0
   -3.3180    1.7150    8.8230 C   0  0  2  0  0  0  0  0  0  0  0  0
   -2.2030    1.1380    8.1150 O   0  0  0  0  0  0  0  0  0  0  0  0
   -4.5740    1.8200    7.9120 C   0  0  1  0  0  0  0  0  0  0  0  0
   -4.2270    1.4800    6.5540 O   0  0  0  0  0  0  0  0  0  0  0  0
   -5.7870    0.9890    8.3760 C   0  0  1  0  0  0  0  0  0  0  0  0
   -6.8650    1.2580    7.4630 O   0  0  0  0  0  0  0  0  0  0  0  0
   -8.0020    0.4250    7.6830 C   0  0  0  0  0  0  0  0  0  0  0  0
   -8.3520   -0.2200    6.3690 C   0  0  0  0  0  0  0  0  0  0  0  0
   -7.5560    0.0010    5.2360 C   0  0  0  0  0  0  0  0  0  0  0  0
   -7.8630   -0.6190    4.0230 C   0  0  0  0  0  0  0  0  0  0  0  0
   -8.9620   -1.4710    3.9340 C   0  0  0  0  0  0  0  0  0  0  0  0
   -9.7540   -1.7060    5.0560 C   0  0  0  0  0  0  0  0  0  0  0  0
   -9.4500   -1.0840    6.2680 C   0  0  0  0  0  0  0  0  0  0  0  0
   -5.4210   -0.5000    8.3800 C   0  0  0  0  0  0  0  0  0  0  0  0
   -5.3020   -1.1340    9.4270 O   0  0  0  0  0  0  0  0  0  0  0  0
   -5.1480   -1.0060    7.1380 N   0  0  0  0  0  0  0  0  0  0  0  0
   -4.5620   -2.3050    6.9050 C   0  0  1  0  0  0  0  0  0  0  0  0
   -5.4330   -3.1410    6.0170 C   0  0  0  0  0  0  0  0  0  0  0  0
   -6.6260   -3.7670    6.3460 C   0  0  0  0  0  0  0  0  0  0  0  0
   -7.2980   -4.4800    5.3530 C   0  0  0  0  0  0  0  0  0  0  0  0
   -6.7790   -4.5530    4.0520 C   0  0  0  0  0  0  0  0  0  0  0  0
   -5.5790   -3.9170    3.7270 C   0  0  0  0  0  0  0  0  0  0  0  0
   -4.9130   -3.2190    4.7210 C   0  0  0  0  0  0  0  0  0  0  0  0
   -3.6420   -2.4410    4.5950 C   0  0  0  0  0  0  0  0  0  0  0  0
   -3.2530   -2.1870    6.0670 C   0  0  1  0  0  0  0  0  0  0  0  0
   -2.6260   -0.9060    6.1850 O   0  0  0  0  0  0  0  0  0  0  0  0
   -1.4820    1.0780    9.8650 H   0  0  0  0  0  0  0  0  0  0  0  0
    0.7608    2.7309   10.5759 H   0  0  0  0  0  0  0  0  0  0  0  0
   -0.9135    2.0330   13.2075 H   0  0  0  0  0  0  0  0  0  0  0  0
   -0.2180    0.7940   15.2676 H   0  0  0  0  0  0  0  0  0  0  0  0
    1.6725   -0.8289   15.1859 H   0  0  0  0  0  0  0  0  0  0  0  0
    2.8956   -1.2415   13.0394 H   0  0  0  0  0  0  0  0  0  0  0  0
    3.1752    0.6625   10.5035 H   0  0  0  0  0  0  0  0  0  0  0  0
    2.5328   -0.9383   10.2538 H   0  0  0  0  0  0  0  0  0  0  0  0
    1.5277    1.2178    8.8171 H   0  0  0  0  0  0  0  0  0  0  0  0
   -0.3990    0.0870    8.6380 H   0  0  0  0  0  0  0  0  0  0  0  0
   -2.8572    3.7954    8.4652 H   0  0  0  0  0  0  0  0  0  0  0  0
   -3.4412    5.5580   10.6543 H   0  0  0  0  0  0  0  0  0  0  0  0
   -4.2370    5.2213    9.0847 H   0  0  0  0  0  0  0  0  0  0  0  0
   -5.9614    3.1088   11.1827 H   0  0  0  0  0  0  0  0  0  0  0  0
   -8.1413    3.5566   12.3039 H   0  0  0  0  0  0  0  0  0  0  0  0
   -8.9713    5.8963   12.5369 H   0  0  0  0  0  0  0  0  0  0  0  0
   -7.6175    7.7931   11.6503 H   0  0  0  0  0  0  0  0  0  0  0  0
   -5.4339    7.3549   10.5373 H   0  0  0  0  0  0  0  0  0  0  0  0
   -3.5798    1.0651    9.6710 H   0  0  0  0  0  0  0  0  0  0  0  0
   -1.4350    1.7400    8.1970 H   0  0  0  0  0  0  0  0  0  0  0  0
   -4.8995    2.8685    7.9803 H   0  0  0  0  0  0  0  0  0  0  0  0
   -3.9910    2.3210    6.1160 H   0  0  0  0  0  0  0  0  0  0  0  0
   -6.0893    1.2576    9.3990 H   0  0  0  0  0  0  0  0  0  0  0  0
   -7.7628   -0.3476    8.4286 H   0  0  0  0  0  0  0  0  0  0  0  0
   -8.8484    1.0171    8.0613 H   0  0  0  0  0  0  0  0  0  0  0  0
   -6.6835    0.6675    5.3032 H   0  0  0  0  0  0  0  0  0  0  0  0
   -7.2370   -0.4347    3.1374 H   0  0  0  0  0  0  0  0  0  0  0  0
   -9.2043   -1.9581    2.9779 H   0  0  0  0  0  0  0  0  0  0  0  0
  -10.6191   -2.3819    4.9866 H   0  0  0  0  0  0  0  0  0  0  0  0
  -10.0778   -1.2738    7.1511 H   0  0  0  0  0  0  0  0  0  0  0  0
   -5.3050   -0.3980    6.3350 H   0  0  0  0  0  0  0  0  0  0  0  0
   -4.4100   -2.7361    7.9055 H   0  0  0  0  0  0  0  0  0  0  0  0
   -7.0328   -3.7028    7.3660 H   0  0  0  0  0  0  0  0  0  0  0  0
   -8.2431   -4.9894    5.5924 H   0  0  0  0  0  0  0  0  0  0  0  0
   -7.3228   -5.1170    3.2798 H   0  0  0  0  0  0  0  0  0  0  0  0
   -5.1724   -3.9691    2.7062 H   0  0  0  0  0  0  0  0  0  0  0  0
   -2.8687   -3.0259    4.0755 H   0  0  0  0  0  0  0  0  0  0  0  0
   -3.7514   -1.5180    4.0067 H   0  0  0  0  0  0  0  0  0  0  0  0
   -2.5219   -2.9194    6.4400 H   0  0  0  0  0  0  0  0  0  0  0  0
   -1.9860   -0.8140    5.4490 H   0  0  0  0  0  0  0  0  0  0  0  0
  1  2  2  0
  2  3  1  0
  3  4  1  0
  4  5  1  0
  5  6  2  0
  6  7  1  0
  7  8  2  0
  8  9  1  0
  9 10  2  0
 10 11  1  0
 11 12  1  0
 12 13  1  0
  2 14  1  0
 14 15  1  0
 15 16  1  0
 16 17  1  0
 17 18  2  0
 18 19  1  0
 19 20  2  0
 20 21  1  0
 21 22  2  0
 14 23  1  0
 23 24  1  0
 23 25  1  0
 25 26  1  0
 25 27  1  0
 27 28  1  0
 28 29  1  0
 29 30  1  0
 30 31  2  0
 31 32  1  0
 32 33  2  0
 33 34  1  0
 34 35  2  0
 27 36  1  0
 36 37  2  0
 36 38  1  0
 38 39  1  0
 39 40  1  0
 40 41  2  0
 41 42  1  0
 42 43  2  0
 43 44  1  0
 44 45  2  0
 45 46  1  0
 46 47  1  0
 47 48  1  0
 12  4  1  0
 22 17  1  0
 35 30  1  0
 47 39  1  0
 10  5  1  0
 45 40  1  0
  3 49  1  0
  4 50  1  1
  6 51  1  0
  7 52  1  0
  8 53  1  0
  9 54  1  0
 11 55  1  0
 11 56  1  0
 12 57  1  6
 13 58  1  0
 14 59  1  6
 16 60  1  0
 16 61  1  0
 18 62  1  0
 19 63  1  0
 20 64  1  0
 21 65  1  0
 22 66  1  0
 23 67  1  1
 24 68  1  0
 25 69  1  6
 26 70  1  0
 27 71  1  1
 29 72  1  0
 29 73  1  0
 31 74  1  0
 32 75  1  0
 33 76  1  0
 34 77  1  0
 35 78  1  0
 38 79  1  0
 39 80  1  1
 41 81  1  0
 42 82  1  0
 43 83  1  0
 44 84  1  0
 46 85  1  0
 46 86  1  0
 47 87  1  1
 48 88  1  0
M  END
>  <meeko>  (4) 
{"is_sidechain": [false], "free_energy": -7.826, "intermolecular_energy": -14.773, "internal_energy": -4.53}

$$$$
1eby_ligand
     RDKit          3D

 88 93  0  0  0  0  0  0  0  0999 V2000
   -9.2340    2.5670    5.4030 O   0  0  0  0  0  0  0  0  0  0  0  0
   -8.5960    1.8490    6.1740 C   0  0  0  0  0  0  0  0  0  0  0  0
   -7.9190    0.7370    5.7340 N   0  0  0  0  0  0  0  0  0  0  0  0
   -8.1190    0.2320    4.3980 C   0  0  1  0  0  0  0  0  0  0  0  0
   -7.0890   -0.7850    3.9890 C   0  0  0  0  0  0  0  0  0  0  0  0
   -5.7190   -0.7610    4.2010 C   0  0  0  0  0  0  0  0  0  0  0  0
   -4.9470   -1.8020    3.6830 C   0  0  0  0  0  0  0  0  0  0  0  0
   -5.5450   -2.8410    2.9530 C   0  0  0  0  0  0  0  0  0  0  0  0
   -6.9230   -2.8540    2.7310 C   0  0  0  0  0  0  0  0  0  0  0  0
   -7.6840   -1.8240    3.2600 C   0  0  0  0  0  0  0  0  0  0  0  0
   -9.1640   -1.6100    3.1220 C   0  0  0  0  0  0  0  0  0  0  0  0
   -9.4390   -0.5810    4.2370 C   0  0  1  0  0  0  0  0  0  0  0  0
   -9.7790   -1.2690    5.4580 O   0  0  0  0  0  0  0  0  0  0  0  0
   -8.5540    2.0830    7.7040 C   0  0  2  0  0  0  0  0  0  0  0  0
   -7.5510    3.0690    7.9980 O   0  0  0  0  0  0  0  0  0  0  0  0
   -8.1030    4.3170    8.4160 C   0  0  0  0  0  0  0  0  0  0  0  0
   -7.1170    5.0070    9.3260 C   0  0  0  0  0  0  0  0  0  0  0  0
   -7.5070    6.0950   10.1180 C   0  0  0  0  0  0  0  0  0  0  0  0
   -6.5990    6.6940   10.9940 C   0  0  0  0  0  0  0  0  0  0  0  0
   -5.2950    6.2110   11.0860 C   0  0  0  0  0  0  0  0  0  0  0  0
   -4.8950    5.1290   10.3040 C   0  0  0  0  0  0  0  0  0  0  0  0
   -5.8010    4.5290    9.4300 C   0  0  0  0  0  0  0  0  0  0  0  0
   -8.2180    0.7880    8.4870 C   0  0  2  0  0  0  0  0  0  0  0  0
   -9.3680    0.4110    9.2690 O   0  0  0  0  0  0  0  0  0  0  0  0
   -6.9690    1.0130    9.3860 C   0  0  1  0  0  0  0  0  0  0  0  0
   -7.3000    0.7420   10.7640 O   0  0  0  0  0  0  0  0  0  0  0  0
   -5.7150    0.2160    8.9730 C   0  0  1  0  0  0  0  0  0  0  0  0
   -6.1490   -0.8360    8.0940 O   0  0  0  0  0  0  0  0  0  0  0  0
   -5.1880   -1.8840    7.9650 C   0  0  0  0  0  0  0  0  0  0  0  0
   -5.8150   -2.9730    7.1380 C   0  0  0  0  0  0  0  0  0  0  0  0
   -5.0280   -4.0030    6.6040 C   0  0  0  0  0  0  0  0  0  0  0  0
   -5.6130   -5.0300    5.8620 C   0  0  0  0  0  0  0  0  0  0  0  0
   -6.9910   -5.0410    5.6520 C   0  0  0  0  0  0  0  0  0  0  0  0
   -7.7840   -4.0290    6.1860 C   0  0  0  0  0  0  0  0  0  0  0  0
   -7.2000   -2.9990    6.9260 C   0  0  0  0  0  0  0  0  0  0  0  0
   -4.7200    1.1480    8.2720 C   0  0  0  0  0  0  0  0  0  0  0  0
   -4.8830    1.5130    7.1090 O   0  0  0  0  0  0  0  0  0  0  0  0
   -3.6120    1.4390    9.0210 N   0  0  0  0  0  0  0  0  0  0  0  0
   -2.4370    2.0990    8.5030 C   0  0  1  0  0  0  0  0  0  0  0  0
   -1.5890    2.6450    9.6120 C   0  0  0  0  0  0  0  0  0  0  0  0
   -1.8380    3.7600   10.3980 C   0  0  0  0  0  0  0  0  0  0  0  0
   -0.9250    4.0820   11.4040 C   0  0  0  0  0  0  0  0  0  0  0  0
    0.2110    3.2870   11.6160 C   0  0  0  0  0  0  0  0  0  0  0  0
    0.4520    2.1630   10.8240 C   0  0  0  0  0  0  0  0  0  0  0  0
   -0.4530    1.8570    9.8210 C   0  0  0  0  0  0  0  0  0  0  0  0
   -0.4160    0.6940    8.8810 C   0  0  0  0  0  0  0  0  0  0  0  0
   -1.4740    1.0780    7.8250 C   0  0  1  0  0  0  0  0  0  0  0  0
   -2.1420   -0.1000    7.3630 O   0  0  0  0  0  0  0  0  0  0  0  0
   -7.6370    0.0660    6.4480 H   0  0  0  0  0  0  0  0  0  0  0  0
   -8.0935    1.1539    3.7985 H   0  0  0  0  0  0  0  0  0  0  0  0
   -5.2512    0.0597    4.7646 H   0  0  0  0  0  0  0  0  0  0  0  0
   -3.8595   -1.8082    3.8484 H   0  0  0  0  0  0  0  0  0  0  0  0
   -4.9213   -3.6534    2.5517 H   0  0  0  0  0  0  0  0  0  0  0  0
   -7.3930   -3.6617    2.1507 H   0  0  0  0  0  0  0  0  0  0  0  0
   -9.4196   -1.2053    2.1316 H   0  0  0  0  0  0  0  0  0  0  0  0
   -9.7576   -2.5319    3.2102 H   0  0  0  0  0  0  0  0  0  0  0  0
  -10.2815    0.0836    3.9949 H   0  0  0  0  0  0  0  0  0  0  0  0
  -10.4330   -1.9520    5.2320 H   0  0  0  0  0  0  0  0  0  0  0  0
   -9.5528    2.4209    8.0173 H   0  0  0  0  0  0  0  0  0  0  0  0
   -8.2976    4.9479    7.5362 H   0  0  0  0  0  0  0  0  0  0  0  0
   -9.0482    4.1457    8.9520 H   0  0  0  0  0  0  0  0  0  0  0  0
   -8.5352    6.4800   10.0494 H   0  0  0  0  0  0  0  0  0  0  0  0
   -6.9135    7.5479   11.6120 H   0  0  0  0  0  0  0  0  0  0  0  0
   -4.5810    6.6841   11.7763 H   0  0  0  0  0  0  0  0  0  0  0  0
   -3.8654    4.7485   10.3761 H   0  0  0  0  0  0  0  0  0  0  0  0
   -5.4817    3.6736    8.8166 H   0  0  0  0  0  0  0  0  0  0  0  0
   -7.9777   -0.0271    7.7885 H   0  0  0  0  0  0  0  0  0  0  0  0
  -10.1560    0.4100    8.6860 H   0  0  0  0  0  0  0  0  0  0  0  0
   -6.6960    2.0699    9.2501 H   0  0  0  0  0  0  0  0  0  0  0  0
   -6.5010    0.9620   11.2830 H   0  0  0  0  0  0  0  0  0  0  0  0
   -5.2058   -0.2137    9.8482 H   0  0  0  0  0  0  0  0  0  0  0  0
   -4.2844   -1.5055    7.4647 H   0  0  0  0  0  0  0  0  0  0  0  0
   -4.8975   -2.2673    8.9543 H   0  0  0  0  0  0  0  0  0  0  0  0
   -3.9408   -4.0016    6.7712 H   0  0  0  0  0  0  0  0  0  0  0  0
   -4.9865   -5.8311    5.4427 H   0  0  0  0  0  0  0  0  0  0  0  0
   -7.4516   -5.8489    5.0646 H   0  0  0  0  0  0  0  0  0  0  0  0
   -8.8721   -4.0409    6.0247 H   0  0  0  0  0  0  0  0  0  0  0  0
   -7.8317   -2.2022    7.3456 H   0  0  0  0  0  0  0  0  0  0  0  0
   -3.5910    1.1060    9.9840 H   0  0  0  0  0  0  0  0  0  0  0  0
   -2.8185    2.8708    7.8183 H   0  0  0  0  0  0  0  0  0  0  0  0
   -2.7340    4.3764   10.2327 H   0  0  0  0  0  0  0  0  0  0  0  0
   -1.0979    4.9661   12.0353 H   0  0  0  0  0  0  0  0  0  0  0  0
    0.9194    3.5520   12.4147 H   0  0  0  0  0  0  0  0  0  0  0  0
    1.3395    1.5353   10.9924 H   0  0  0  0  0  0  0  0  0  0  0  0
    0.5787    0.5845    8.4244 H   0  0  0  0  0  0  0  0  0  0  0  0
   -0.6179   -0.2700    9.3709 H   0  0  0  0  0  0  0  0  0  0  0  0
   -1.0276    1.5444    6.9344 H   0  0  0  0  0  0  0  0  0  0  0  0
   -2.5300    0.0960    6.4860 H   0  0  0  0  0  0  0  0  0  0  0  0
  1  2  2  0
  2  3  1  0
  3  4  1  0
  4  5  1  0
  5  6  2  0
  6  7  1  0
  7  8  2  0
  8  9  1  0
  9 10  2  0
 10 11  1  0
 11 12  1  0
 12 13  1  0
  2 14  1  0
 14 15  1  0
 15 16  1  0
 16 17  1  0
 17 18  2  0
 18 19  1  0
 19 20  2  0
 20 21  1  0
 21 22  2  0
 14 23  1  0
 23 24  1  0
 23 25  1  0
 25 26  1  0
 25 27  1  0
 27 28  1  0
 28 29  1  0
 29 30  1  0
 30 31  2  0
 31 32  1  0
 32 33  2  0
 33 34  1  0
 34 35  2  0
 27 36  1  0
 36 37  2  0
 36 38  1  0
 38 39  1  0
 39 40  1  0
 40 41  2  0
 41 42  1  0
 42 43  2  0
 43 44  1  0
 44 45  2  0
 45 46  1  0
 46 47  1  0
 47 48  1  0
 12  4  1  0
 22 17  1  0
 35 30  1  0
 47 39  1  0
 10  5  1  0
 45 40  1  0
  3 49  1  0
  4 50  1  6
  6 51  1  0
  7 52  1  0
  8 53  1  0
  9 54  1  0
 11 55  1  0
 11 56  1  0
 12 57  1  6
 13 58  1  0
 14 59  1  1
 16 60  1  0
 16 61  1  0
 18 62  1  0
 19 63  1  0
 20 64  1  0
 21 65  1  0
 22 66  1  0
 23 67  1  6
 24 68  1  0
 25 69  1  1
 26 70  1  0
 27 71  1  1
 29 72  1  0
 29 73  1  0
 31 74  1  0
 32 75  1  0
 33 76  1  0
 34 77  1  0
 35 78  1  0
 38 79  1  0
 39 80  1  6
 41 81  1  0
 42 82  1  0
 43 83  1  0
 44 84  1  0
 46 85  1  0
 46 86  1  0
 47 87  1  6
 48 88  1  0
M  END
>  <meeko>  (5) 
{"is_sidechain": [false], "free_energy": -7.815, "intermolecular_energy": -13.722, "internal_energy": -5.561}

$$$$
1eby_ligand
     RDKit          3D

 88 93  0  0  0  0  0  0  0  0999 V2000
   -8.0390    0.3940    9.2170 O   0  0  0  0  0  0  0  0  0  0  0  0
   -6.9260    0.6370    8.7470 C   0  0  0  0  0  0  0  0  0  0  0  0
   -6.3140    1.8540    8.9260 N   0  0  0  0  0  0  0  0  0  0  0  0
   -7.0440    2.9740    9.4670 C   0  0  1  0  0  0  0  0  0  0  0  0
   -6.1580    4.1210    9.8670 C   0  0  0  0  0  0  0  0  0  0  0  0
   -4.9430    4.0830   10.5340 C   0  0  0  0  0  0  0  0  0  0  0  0
   -4.3160    5.2900   10.8450 C   0  0  0  0  0  0  0  0  0  0  0  0
   -4.9100    6.5140   10.5030 C   0  0  0  0  0  0  0  0  0  0  0  0
   -6.1410    6.5480    9.8430 C   0  0  0  0  0  0  0  0  0  0  0  0
   -6.7500    5.3450    9.5260 C   0  0  0  0  0  0  0  0  0  0  0  0
   -8.0770    5.1350    8.8560 C   0  0  0  0  0  0  0  0  0  0  0  0
   -7.9860    3.6570    8.4300 C   0  0  1  0  0  0  0  0  0  0  0  0
   -7.4420    3.5690    7.0970 O   0  0  0  0  0  0  0  0  0  0  0  0
   -6.1490   -0.3660    7.8590 C   0  0  2  0  0  0  0  0  0  0  0  0
   -7.0220   -0.8470    6.8240 O   0  0  0  0  0  0  0  0  0  0  0  0
   -7.1250    0.0530    5.7200 C   0  0  0  0  0  0  0  0  0  0  0  0
   -8.5260   -0.0130    5.1650 C   0  0  0  0  0  0  0  0  0  0  0  0
   -8.8660    0.6630    3.9860 C   0  0  0  0  0  0  0  0  0  0  0  0
  -10.1530    0.5550    3.4550 C   0  0  0  0  0  0  0  0  0  0  0  0
  -11.1110   -0.2290    4.0970 C   0  0  0  0  0  0  0  0  0  0  0  0
  -10.7840   -0.9050    5.2700 C   0  0  0  0  0  0  0  0  0  0  0  0
   -9.4990   -0.8000    5.8010 C   0  0  0  0  0  0  0  0  0  0  0  0
   -5.6250   -1.5800    8.6660 C   0  0  2  0  0  0  0  0  0  0  0  0
   -5.6450   -1.2450   10.0670 O   0  0  0  0  0  0  0  0  0  0  0  0
   -4.1920   -1.9600    8.1950 C   0  0  1  0  0  0  0  0  0  0  0  0
   -4.0610   -3.3950    8.1270 O   0  0  0  0  0  0  0  0  0  0  0  0
   -3.7540   -1.3220    6.8610 C   0  0  1  0  0  0  0  0  0  0  0  0
   -2.4080   -0.8470    7.0360 O   0  0  0  0  0  0  0  0  0  0  0  0
   -2.2930    0.1310    8.0690 C   0  0  0  0  0  0  0  0  0  0  0  0
   -0.8270    0.3710    8.3020 C   0  0  0  0  0  0  0  0  0  0  0  0
    0.0800    0.3220    7.2340 C   0  0  0  0  0  0  0  0  0  0  0  0
    1.4370    0.5740    7.4440 C   0  0  0  0  0  0  0  0  0  0  0  0
    1.8990    0.8850    8.7220 C   0  0  0  0  0  0  0  0  0  0  0  0
    1.0060    0.9470    9.7890 C   0  0  0  0  0  0  0  0  0  0  0  0
   -0.3510    0.6920    9.5810 C   0  0  0  0  0  0  0  0  0  0  0  0
   -3.8330   -2.3650    5.7400 C   0  0  0  0  0  0  0  0  0  0  0  0
   -2.8310   -2.9450    5.3250 O   0  0  0  0  0  0  0  0  0  0  0  0
   -5.0810   -2.5020    5.1970 N   0  0  0  0  0  0  0  0  0  0  0  0
   -5.3610   -3.2420    3.9900 C   0  0  1  0  0  0  0  0  0  0  0  0
   -6.8240   -3.5410    3.8640 C   0  0  0  0  0  0  0  0  0  0  0  0
   -7.5610   -4.4760    4.5770 C   0  0  0  0  0  0  0  0  0  0  0  0
   -8.9300   -4.5760    4.3230 C   0  0  0  0  0  0  0  0  0  0  0  0
   -9.5420   -3.7430    3.3740 C   0  0  0  0  0  0  0  0  0  0  0  0
   -8.7940   -2.8020    2.6640 C   0  0  0  0  0  0  0  0  0  0  0  0
   -7.4340   -2.7160    2.9140 C   0  0  0  0  0  0  0  0  0  0  0  0
   -6.4510   -1.7690    2.3020 C   0  0  0  0  0  0  0  0  0  0  0  0
   -5.0940   -2.3720    2.7240 C   0  0  1  0  0  0  0  0  0  0  0  0
   -4.1530   -1.3180    2.9570 O   0  0  0  0  0  0  0  0  0  0  0  0
   -5.5320    2.0630    8.3070 H   0  0  0  0  0  0  0  0  0  0  0  0
   -7.5786    2.5119   10.3100 H   0  0  0  0  0  0  0  0  0  0  0  0
   -4.4837    3.1228   10.8117 H   0  0  0  0  0  0  0  0  0  0  0  0
   -3.3460    5.2817   11.3637 H   0  0  0  0  0  0  0  0  0  0  0  0
   -4.4018    7.4559   10.7569 H   0  0  0  0  0  0  0  0  0  0  0  0
   -6.6145    7.5059    9.5817 H   0  0  0  0  0  0  0  0  0  0  0  0
   -8.9094    5.2993    9.5561 H   0  0  0  0  0  0  0  0  0  0  0  0
   -8.2694    5.8272    8.0230 H   0  0  0  0  0  0  0  0  0  0  0  0
   -8.9703    3.1662    8.4111 H   0  0  0  0  0  0  0  0  0  0  0  0
   -6.5970    3.0920    7.1610 H   0  0  0  0  0  0  0  0  0  0  0  0
   -5.2816    0.1636    7.4382 H   0  0  0  0  0  0  0  0  0  0  0  0
   -6.9094    1.0775    6.0574 H   0  0  0  0  0  0  0  0  0  0  0  0
   -6.4017   -0.2288    4.9406 H   0  0  0  0  0  0  0  0  0  0  0  0
   -8.1144    1.2828    3.4753 H   0  0  0  0  0  0  0  0  0  0  0  0
  -10.4115    1.0892    2.5288 H   0  0  0  0  0  0  0  0  0  0  0  0
  -12.1243   -0.3135    3.6773 H   0  0  0  0  0  0  0  0  0  0  0  0
  -11.5399   -1.5221    5.7778 H   0  0  0  0  0  0  0  0  0  0  0  0
   -9.2456   -1.3384    6.7261 H   0  0  0  0  0  0  0  0  0  0  0  0
   -6.2700   -2.4550    8.4974 H   0  0  0  0  0  0  0  0  0  0  0  0
   -4.9450   -0.5810   10.2400 H   0  0  0  0  0  0  0  0  0  0  0  0
   -3.5129   -1.5414    8.9523 H   0  0  0  0  0  0  0  0  0  0  0  0
   -3.7980   -3.6000    7.2080 H   0  0  0  0  0  0  0  0  0  0  0  0
   -4.4116   -0.4857    6.5812 H   0  0  0  0  0  0  0  0  0  0  0  0
   -2.7819    1.0658    7.7574 H   0  0  0  0  0  0  0  0  0  0  0  0
   -2.7798   -0.2198    8.9910 H   0  0  0  0  0  0  0  0  0  0  0  0
   -0.2805    0.0831    6.2226 H   0  0  0  0  0  0  0  0  0  0  0  0
    2.1419    0.5271    6.6008 H   0  0  0  0  0  0  0  0  0  0  0  0
    2.9686    1.0814    8.8877 H   0  0  0  0  0  0  0  0  0  0  0  0
    1.3700    1.1971   10.7964 H   0  0  0  0  0  0  0  0  0  0  0  0
   -1.0519    0.7434   10.4272 H   0  0  0  0  0  0  0  0  0  0  0  0
   -5.8460   -1.9910    5.6360 H   0  0  0  0  0  0  0  0  0  0  0  0
   -4.7304   -4.1412    4.0516 H   0  0  0  0  0  0  0  0  0  0  0  0
   -7.0781   -5.1228    5.3243 H   0  0  0  0  0  0  0  0  0  0  0  0
   -9.5340   -5.3139    4.8713 H   0  0  0  0  0  0  0  0  0  0  0  0
  -10.6224   -3.8324    3.1875 H   0  0  0  0  0  0  0  0  0  0  0  0
   -9.2731   -2.1444    1.9236 H   0  0  0  0  0  0  0  0  0  0  0  0
   -6.5515   -1.7453    1.2069 H   0  0  0  0  0  0  0  0  0  0  0  0
   -6.5867   -0.7271    2.6275 H   0  0  0  0  0  0  0  0  0  0  0  0
   -4.6548   -3.0072    1.9406 H   0  0  0  0  0  0  0  0  0  0  0  0
   -3.5240   -1.3040    2.2060 H   0  0  0  0  0  0  0  0  0  0  0  0
  1  2  2  0
  2  3  1  0
  3  4  1  0
  4  5  1  0
  5  6  2  0
  6  7  1  0
  7  8  2  0
  8  9  1  0
  9 10  2  0
 10 11  1  0
 11 12  1  0
 12 13  1  0
  2 14  1  0
 14 15  1  0
 15 16  1  0
 16 17  1  0
 17 18  2  0
 18 19  1  0
 19 20  2  0
 20 21  1  0
 21 22  2  0
 14 23  1  0
 23 24  1  0
 23 25  1  0
 25 26  1  0
 25 27  1  0
 27 28  1  0
 28 29  1  0
 29 30  1  0
 30 31  2  0
 31 32  1  0
 32 33  2  0
 33 34  1  0
 34 35  2  0
 27 36  1  0
 36 37  2  0
 36 38  1  0
 38 39  1  0
 39 40  1  0
 40 41  2  0
 41 42  1  0
 42 43  2  0
 43 44  1  0
 44 45  2  0
 45 46  1  0
 46 47  1  0
 47 48  1  0
 12  4  1  0
 22 17  1  0
 35 30  1  0
 47 39  1  0
 10  5  1  0
 45 40  1  0
  3 49  1  0
  4 50  1  1
  6 51  1  0
  7 52  1  0
  8 53  1  0
  9 54  1  0
 11 55  1  0
 11 56  1  0
 12 57  1  6
 13 58  1  0
 14 59  1  6
 16 60  1  0
 16 61  1  0
 18 62  1  0
 19 63  1  0
 20 64  1  0
 21 65  1  0
 22 66  1  0
 23 67  1  1
 24 68  1  0
 25 69  1  1
 26 70  1  0
 27 71  1  6
 29 72  1  0
 29 73  1  0
 31 74  1  0
 32 75  1  0
 33 76  1  0
 34 77  1  0
 35 78  1  0
 38 79  1  0
 39 80  1  6
 41 81  1  0
 42 82  1  0
 43 83  1  0
 44 84  1  0
 46 85  1  0
 46 86  1  0
 47 87  1  6
 48 88  1  0
M  END
>  <meeko>  (6) 
{"is_sidechain": [false], "free_energy": -7.717, "intermolecular_energy": -13.823, "internal_energy": -5.274}

$$$$
1eby_ligand
     RDKit          3D

 88 93  0  0  0  0  0  0  0  0999 V2000
   -2.5060   -1.0170    7.0510 O   0  0  0  0  0  0  0  0  0  0  0  0
   -3.6930   -0.7870    7.2880 C   0  0  0  0  0  0  0  0  0  0  0  0
   -4.7000   -1.2970    6.5040 N   0  0  0  0  0  0  0  0  0  0  0  0
   -4.4040   -1.9250    5.2410 C   0  0  1  0  0  0  0  0  0  0  0  0
   -5.1420   -3.2210    5.0360 C   0  0  0  0  0  0  0  0  0  0  0  0
   -5.3560   -4.2450    5.9450 C   0  0  0  0  0  0  0  0  0  0  0  0
   -6.0330   -5.3870    5.5140 C   0  0  0  0  0  0  0  0  0  0  0  0
   -6.4720   -5.4990    4.1860 C   0  0  0  0  0  0  0  0  0  0  0  0
   -6.2420   -4.4700    3.2700 C   0  0  0  0  0  0  0  0  0  0  0  0
   -5.5810   -3.3350    3.7100 C   0  0  0  0  0  0  0  0  0  0  0  0
   -5.1940   -2.1270    2.9060 C   0  0  0  0  0  0  0  0  0  0  0  0
   -4.8870   -1.0970    4.0120 C   0  0  1  0  0  0  0  0  0  0  0  0
   -6.0810   -0.3510    4.3240 O   0  0  0  0  0  0  0  0  0  0  0  0
   -4.1580    0.1460    8.4330 C   0  0  2  0  0  0  0  0  0  0  0  0
   -5.5860    0.0460    8.5650 O   0  0  0  0  0  0  0  0  0  0  0  0
   -6.1380    1.0520    9.4130 C   0  0  0  0  0  0  0  0  0  0  0  0
   -7.3760    1.6160    8.7610 C   0  0  0  0  0  0  0  0  0  0  0  0
   -8.6470    1.3720    9.2970 C   0  0  0  0  0  0  0  0  0  0  0  0
   -9.7820    1.9400    8.7140 C   0  0  0  0  0  0  0  0  0  0  0  0
   -9.6560    2.7560    7.5900 C   0  0  0  0  0  0  0  0  0  0  0  0
   -8.3970    3.0060    7.0480 C   0  0  0  0  0  0  0  0  0  0  0  0
   -7.2630    2.4410    7.6310 C   0  0  0  0  0  0  0  0  0  0  0  0
   -3.7890    1.6280    8.1700 C   0  0  2  0  0  0  0  0  0  0  0  0
   -3.8990    1.8860    6.7570 O   0  0  0  0  0  0  0  0  0  0  0  0
   -2.3530    1.9230    8.6900 C   0  0  1  0  0  0  0  0  0  0  0  0
   -1.4030    1.7940    7.6120 O   0  0  0  0  0  0  0  0  0  0  0  0
   -2.1810    3.2860    9.3910 C   0  0  1  0  0  0  0  0  0  0  0  0
   -3.2830    3.4410   10.3010 O   0  0  0  0  0  0  0  0  0  0  0  0
   -3.6720    4.8030   10.4780 C   0  0  0  0  0  0  0  0  0  0  0  0
   -5.1740    4.8560   10.4120 C   0  0  0  0  0  0  0  0  0  0  0  0
   -5.9510    4.2040   11.3800 C   0  0  0  0  0  0  0  0  0  0  0  0
   -7.3440    4.2760   11.3360 C   0  0  0  0  0  0  0  0  0  0  0  0
   -7.9740    5.0070   10.3300 C   0  0  0  0  0  0  0  0  0  0  0  0
   -7.2120    5.6670    9.3680 C   0  0  0  0  0  0  0  0  0  0  0  0
   -5.8180    5.5930    9.4090 C   0  0  0  0  0  0  0  0  0  0  0  0
   -0.8400    3.3180   10.1330 C   0  0  0  0  0  0  0  0  0  0  0  0
   -0.4580    4.3200   10.7360 O   0  0  0  0  0  0  0  0  0  0  0  0
   -0.0900    2.1850    9.9710 N   0  0  0  0  0  0  0  0  0  0  0  0
    1.2920    2.0660   10.3740 C   0  0  1  0  0  0  0  0  0  0  0  0
    1.4120    1.3910   11.7060 C   0  0  0  0  0  0  0  0  0  0  0  0
    1.1210    1.9220   12.9540 C   0  0  0  0  0  0  0  0  0  0  0  0
    1.2770    1.1070   14.0760 C   0  0  0  0  0  0  0  0  0  0  0  0
    1.7090   -0.2200   13.9390 C   0  0  0  0  0  0  0  0  0  0  0  0
    1.9970   -0.7490   12.6790 C   0  0  0  0  0  0  0  0  0  0  0  0
    1.8500    0.0690   11.5710 C   0  0  0  0  0  0  0  0  0  0  0  0
    2.0650   -0.2890   10.1350 C   0  0  0  0  0  0  0  0  0  0  0  0
    2.0660    1.0880    9.4390 C   0  0  1  0  0  0  0  0  0  0  0  0
    1.4760    0.9700    8.1400 O   0  0  0  0  0  0  0  0  0  0  0  0
   -5.6170   -0.8650    6.6060 H   0  0  0  0  0  0  0  0  0  0  0  0
   -3.3113   -2.0403    5.2936 H   0  0  0  0  0  0  0  0  0  0  0  0
   -5.0004   -4.1597    6.9825 H   0  0  0  0  0  0  0  0  0  0  0  0
   -6.2242   -6.2068    6.2220 H   0  0  0  0  0  0  0  0  0  0  0  0
   -7.0028   -6.4067    3.8630 H   0  0  0  0  0  0  0  0  0  0  0  0
   -6.5771   -4.5586    2.2261 H   0  0  0  0  0  0  0  0  0  0  0  0
   -4.3071   -2.3256    2.2863 H   0  0  0  0  0  0  0  0  0  0  0  0
   -5.9661   -1.7996    2.1942 H   0  0  0  0  0  0  0  0  0  0  0  0
   -4.1215   -0.3692    3.7049 H   0  0  0  0  0  0  0  0  0  0  0  0
   -6.3850    0.0650    3.4990 H   0  0  0  0  0  0  0  0  0  0  0  0
   -3.6461   -0.1738    9.3526 H   0  0  0  0  0  0  0  0  0  0  0  0
   -6.4013    0.6111   10.3858 H   0  0  0  0  0  0  0  0  0  0  0  0
   -5.4009    1.8535    9.5687 H   0  0  0  0  0  0  0  0  0  0  0  0
   -8.7519    0.7287   10.1831 H   0  0  0  0  0  0  0  0  0  0  0  0
  -10.7762    1.7436    9.1418 H   0  0  0  0  0  0  0  0  0  0  0  0
  -10.5507    3.2023    7.1313 H   0  0  0  0  0  0  0  0  0  0  0  0
   -8.2975    3.6486    6.1608 H   0  0  0  0  0  0  0  0  0  0  0  0
   -6.2709    2.6438    7.2013 H   0  0  0  0  0  0  0  0  0  0  0  0
   -4.4785    2.2935    8.7101 H   0  0  0  0  0  0  0  0  0  0  0  0
   -3.1780    1.4090    6.2950 H   0  0  0  0  0  0  0  0  0  0  0  0
   -2.1625    1.1710    9.4698 H   0  0  0  0  0  0  0  0  0  0  0  0
   -0.5260    1.9860    8.0000 H   0  0  0  0  0  0  0  0  0  0  0  0
   -2.1774    4.1128    8.6655 H   0  0  0  0  0  0  0  0  0  0  0  0
   -3.3258    5.1685   11.4561 H   0  0  0  0  0  0  0  0  0  0  0  0
   -3.2271    5.4378    9.6976 H   0  0  0  0  0  0  0  0  0  0  0  0
   -5.4589    3.6315   12.1801 H   0  0  0  0  0  0  0  0  0  0  0  0
   -7.9454    3.7555   12.0958 H   0  0  0  0  0  0  0  0  0  0  0  0
   -9.0720    5.0628   10.2956 H   0  0  0  0  0  0  0  0  0  0  0  0
   -7.7087    6.2466    8.5759 H   0  0  0  0  0  0  0  0  0  0  0  0
   -5.2210    6.1172    8.6482 H   0  0  0  0  0  0  0  0  0  0  0  0
   -0.5140    1.4040    9.4730 H   0  0  0  0  0  0  0  0  0  0  0  0
    1.6843    3.0936   10.3634 H   0  0  0  0  0  0  0  0  0  0  0  0
    0.7754    2.9612   13.0569 H   0  0  0  0  0  0  0  0  0  0  0  0
    1.0592    1.5090   15.0765 H   0  0  0  0  0  0  0  0  0  0  0  0
    1.8222   -0.8507   14.8331 H   0  0  0  0  0  0  0  0  0  0  0  0
    2.3327   -1.7908   12.5691 H   0  0  0  0  0  0  0  0  0  0  0  0
    3.0261   -0.8052    9.9945 H   0  0  0  0  0  0  0  0  0  0  0  0
    1.3050   -0.9782    9.7383 H   0  0  0  0  0  0  0  0  0  0  0  0
    3.0825    1.4765    9.2785 H   0  0  0  0  0  0  0  0  0  0  0  0
    2.0020    0.3220    7.6270 H   0  0  0  0  0  0  0  0  0  0  0  0
  1  2  2  0
  2  3  1  0
  3  4  1  0
  4  5  1  0
  5  6  2  0
  6  7  1  0
  7  8  2  0
  8  9  1  0
  9 10  2  0
 10 11  1  0
 11 12  1  0
 12 13  1  0
  2 14  1  0
 14 15  1  0
 15 16  1  0
 16 17  1  0
 17 18  2  0
 18 19  1  0
 19 20  2  0
 20 21  1  0
 21 22  2  0
 14 23  1  0
 23 24  1  0
 23 25  1  0
 25 26  1  0
 25 27  1  0
 27 28  1  0
 28 29  1  0
 29 30  1  0
 30 31  2  0
 31 32  1  0
 32 33  2  0
 33 34  1  0
 34 35  2  0
 27 36  1  0
 36 37  2  0
 36 38  1  0
 38 39  1  0
 39 40  1  0
 40 41  2  0
 41 42  1  0
 42 43  2  0
 43 44  1  0
 44 45  2  0
 45 46  1  0
 46 47  1  0
 47 48  1  0
 12  4  1  0
 22 17  1  0
 35 30  1  0
 47 39  1  0
 10  5  1  0
 45 40  1  0
  3 49  1  0
  4 50  1  6
  6 51  1  0
  7 52  1  0
  8 53  1  0
  9 54  1  0
 11 55  1  0
 11 56  1  0
 12 57  1  6
 13 58  1  0
 14 59  1  1
 16 60  1  0
 16 61  1  0
 18 62  1  0
 19 63  1  0
 20 64  1  0
 21 65  1  0
 22 66  1  0
 23 67  1  1
 24 68  1  0
 25 69  1  1
 26 70  1  0
 27 71  1  6
 29 72  1  0
 29 73  1  0
 31 74  1  0
 32 75  1  0
 33 76  1  0
 34 77  1  0
 35 78  1  0
 38 79  1  0
 39 80  1  1
 41 81  1  0
 42 82  1  0
 43 83  1  0
 44 84  1  0
 46 85  1  0
 46 86  1  0
 47 87  1  6
 48 88  1  0
M  END
>  <meeko>  (7) 
{"is_sidechain": [false], "free_energy": -7.713, "intermolecular_energy": -14.277, "internal_energy": -4.814}

$$$$
1eby_ligand
     RDKit          3D

 88 93  0  0  0  0  0  0  0  0999 V2000
   -8.8480   -0.0290    9.6500 O   0  0  0  0  0  0  0  0  0  0  0  0
   -7.6470   -0.2360    9.4700 C   0  0  0  0  0  0  0  0  0  0  0  0
   -7.0810   -1.4660    9.7090 N   0  0  0  0  0  0  0  0  0  0  0  0
   -7.8180   -2.4940   10.4010 C   0  0  1  0  0  0  0  0  0  0  0  0
   -7.7650   -3.8290    9.7090 C   0  0  0  0  0  0  0  0  0  0  0  0
   -7.8800   -4.1050    8.3550 C   0  0  0  0  0  0  0  0  0  0  0  0
   -7.8490   -5.4380    7.9430 C   0  0  0  0  0  0  0  0  0  0  0  0
   -7.7190   -6.4740    8.8800 C   0  0  0  0  0  0  0  0  0  0  0  0
   -7.6170   -6.1910   10.2440 C   0  0  0  0  0  0  0  0  0  0  0  0
   -7.6350   -4.8650   10.6440 C   0  0  0  0  0  0  0  0  0  0  0  0
   -7.5750   -4.3260   12.0440 C   0  0  0  0  0  0  0  0  0  0  0  0
   -7.2220   -2.8460   11.7980 C   0  0  1  0  0  0  0  0  0  0  0  0
   -5.7890   -2.6820   11.8080 O   0  0  0  0  0  0  0  0  0  0  0  0
   -6.6560    0.8700    9.0320 C   0  0  2  0  0  0  0  0  0  0  0  0
   -7.1800    2.1480    9.4260 O   0  0  0  0  0  0  0  0  0  0  0  0
   -6.7640    3.2100    8.5680 C   0  0  0  0  0  0  0  0  0  0  0  0
   -6.3320    4.3820    9.4140 C   0  0  0  0  0  0  0  0  0  0  0  0
   -5.1360    4.3430   10.1420 C   0  0  0  0  0  0  0  0  0  0  0  0
   -4.7210    5.4510   10.8820 C   0  0  0  0  0  0  0  0  0  0  0  0
   -5.4980    6.6090   10.9020 C   0  0  0  0  0  0  0  0  0  0  0  0
   -6.6900    6.6600   10.1820 C   0  0  0  0  0  0  0  0  0  0  0  0
   -7.1040    5.5540    9.4400 C   0  0  0  0  0  0  0  0  0  0  0  0
   -6.4280    0.8810    7.5000 C   0  0  2  0  0  0  0  0  0  0  0  0
   -7.4700    0.1070    6.8740 O   0  0  0  0  0  0  0  0  0  0  0  0
   -5.0200    0.3140    7.1620 C   0  0  1  0  0  0  0  0  0  0  0  0
   -4.2890    1.2610    6.3560 O   0  0  0  0  0  0  0  0  0  0  0  0
   -4.1770   -0.1090    8.3830 C   0  0  1  0  0  0  0  0  0  0  0  0
   -3.6180   -1.4000    8.0890 O   0  0  0  0  0  0  0  0  0  0  0  0
   -4.4250   -2.1670    7.1960 C   0  0  0  0  0  0  0  0  0  0  0  0
   -4.3210   -3.6070    7.6170 C   0  0  0  0  0  0  0  0  0  0  0  0
   -4.2230   -4.6230    6.6550 C   0  0  0  0  0  0  0  0  0  0  0  0
   -4.0970   -5.9570    7.0440 C   0  0  0  0  0  0  0  0  0  0  0  0
   -4.0590   -6.2890    8.3970 C   0  0  0  0  0  0  0  0  0  0  0  0
   -4.1450   -5.2880    9.3610 C   0  0  0  0  0  0  0  0  0  0  0  0
   -4.2750   -3.9530    8.9740 C   0  0  0  0  0  0  0  0  0  0  0  0
   -3.0770    0.9290    8.6330 C   0  0  0  0  0  0  0  0  0  0  0  0
   -3.3410    2.0860    8.9580 O   0  0  0  0  0  0  0  0  0  0  0  0
   -1.8150    0.4740    8.3650 N   0  0  0  0  0  0  0  0  0  0  0  0
   -0.6470    1.3200    8.3020 C   0  0  1  0  0  0  0  0  0  0  0  0
    0.0960    1.3180    9.6030 C   0  0  0  0  0  0  0  0  0  0  0  0
   -0.2640    1.9470   10.7850 C   0  0  0  0  0  0  0  0  0  0  0  0
    0.5620    1.7930   11.8990 C   0  0  0  0  0  0  0  0  0  0  0  0
    1.7240    1.0110   11.8220 C   0  0  0  0  0  0  0  0  0  0  0  0
    2.0790    0.3770   10.6300 C   0  0  0  0  0  0  0  0  0  0  0  0
    1.2590    0.5440    9.5260 C   0  0  0  0  0  0  0  0  0  0  0  0
    1.4210   -0.0620    8.1680 C   0  0  0  0  0  0  0  0  0  0  0  0
    0.4130    0.7400    7.3170 C   0  0  1  0  0  0  0  0  0  0  0  0
   -0.1570   -0.1120    6.3180 O   0  0  0  0  0  0  0  0  0  0  0  0
   -6.0660   -1.4910    9.7830 H   0  0  0  0  0  0  0  0  0  0  0  0
   -8.8273   -2.0592   10.4486 H   0  0  0  0  0  0  0  0  0  0  0  0
   -7.9930   -3.2921    7.6226 H   0  0  0  0  0  0  0  0  0  0  0  0
   -7.9273   -5.6789    6.8726 H   0  0  0  0  0  0  0  0  0  0  0  0
   -7.6972   -7.5190    8.5373 H   0  0  0  0  0  0  0  0  0  0  0  0
   -7.5247   -7.0012   10.9823 H   0  0  0  0  0  0  0  0  0  0  0  0
   -8.5445   -4.4270   12.5538 H   0  0  0  0  0  0  0  0  0  0  0  0
   -6.8599   -4.8522   12.6934 H   0  0  0  0  0  0  0  0  0  0  0  0
   -7.6296   -2.1839   12.5761 H   0  0  0  0  0  0  0  0  0  0  0  0
   -5.4160   -3.4380   12.2930 H   0  0  0  0  0  0  0  0  0  0  0  0
   -5.6908    0.6646    9.5180 H   0  0  0  0  0  0  0  0  0  0  0  0
   -5.9216    2.8734    7.9459 H   0  0  0  0  0  0  0  0  0  0  0  0
   -7.5971    3.5092    7.9149 H   0  0  0  0  0  0  0  0  0  0  0  0
   -4.5193    3.4322   10.1303 H   0  0  0  0  0  0  0  0  0  0  0  0
   -3.7800    5.4110   11.4502 H   0  0  0  0  0  0  0  0  0  0  0  0
   -5.1701    7.4817   11.4859 H   0  0  0  0  0  0  0  0  0  0  0  0
   -7.3043    7.5724   10.1989 H   0  0  0  0  0  0  0  0  0  0  0  0
   -8.0437    5.6006    8.8702 H   0  0  0  0  0  0  0  0  0  0  0  0
   -6.4679    1.9116    7.1175 H   0  0  0  0  0  0  0  0  0  0  0  0
   -8.1650    0.7190    6.5530 H   0  0  0  0  0  0  0  0  0  0  0  0
   -5.2037   -0.6150    6.6023 H   0  0  0  0  0  0  0  0  0  0  0  0
   -4.9480    1.6800    5.7670 H   0  0  0  0  0  0  0  0  0  0  0  0
   -4.7900   -0.1670    9.2945 H   0  0  0  0  0  0  0  0  0  0  0  0
   -5.4715   -1.8331    7.2546 H   0  0  0  0  0  0  0  0  0  0  0  0
   -4.0822   -2.0408    6.1584 H   0  0  0  0  0  0  0  0  0  0  0  0
   -4.2457   -4.3661    5.5857 H   0  0  0  0  0  0  0  0  0  0  0  0
   -4.0276   -6.7474    6.2821 H   0  0  0  0  0  0  0  0  0  0  0  0
   -3.9611   -7.3410    8.7031 H   0  0  0  0  0  0  0  0  0  0  0  0
   -4.1105   -5.5494   10.4289 H   0  0  0  0  0  0  0  0  0  0  0  0
   -4.3418   -3.1667    9.7403 H   0  0  0  0  0  0  0  0  0  0  0  0
   -1.7080   -0.5110    8.1280 H   0  0  0  0  0  0  0  0  0  0  0  0
   -1.0259    2.3113    8.0125 H   0  0  0  0  0  0  0  0  0  0  0  0
   -1.1798    2.5535   10.8432 H   0  0  0  0  0  0  0  0  0  0  0  0
    0.2998    2.2888   12.8453 H   0  0  0  0  0  0  0  0  0  0  0  0
    2.3624    0.8961   12.7104 H   0  0  0  0  0  0  0  0  0  0  0  0
    2.9876   -0.2401   10.5689 H   0  0  0  0  0  0  0  0  0  0  0  0
    2.4476    0.0687    7.7951 H   0  0  0  0  0  0  0  0  0  0  0  0
    1.2421   -1.1472    8.1497 H   0  0  0  0  0  0  0  0  0  0  0  0
    0.8885    1.5704    6.7745 H   0  0  0  0  0  0  0  0  0  0  0  0
    0.1180   -1.0310    6.5120 H   0  0  0  0  0  0  0  0  0  0  0  0
  1  2  2  0
  2  3  1  0
  3  4  1  0
  4  5  1  0
  5  6  2  0
  6  7  1  0
  7  8  2  0
  8  9  1  0
  9 10  2  0
 10 11  1  0
 11 12  1  0
 12 13  1  0
  2 14  1  0
 14 15  1  0
 15 16  1  0
 16 17  1  0
 17 18  2  0
 18 19  1  0
 19 20  2  0
 20 21  1  0
 21 22  2  0
 14 23  1  0
 23 24  1  0
 23 25  1  0
 25 26  1  0
 25 27  1  0
 27 28  1  0
 28 29  1  0
 29 30  1  0
 30 31  2  0
 31 32  1  0
 32 33  2  0
 33 34  1  0
 34 35  2  0
 27 36  1  0
 36 37  2  0
 36 38  1  0
 38 39  1  0
 39 40  1  0
 40 41  2  0
 41 42  1  0
 42 43  2  0
 43 44  1  0
 44 45  2  0
 45 46  1  0
 46 47  1  0
 47 48  1  0
 12  4  1  0
 22 17  1  0
 35 30  1  0
 47 39  1  0
 10  5  1  0
 45 40  1  0
  3 49  1  0
  4 50  1  1
  6 51  1  0
  7 52  1  0
  8 53  1  0
  9 54  1  0
 11 55  1  0
 11 56  1  0
 12 57  1  1
 13 58  1  0
 14 59  1  1
 16 60  1  0
 16 61  1  0
 18 62  1  0
 19 63  1  0
 20 64  1  0
 21 65  1  0
 22 66  1  0
 23 67  1  6
 24 68  1  0
 25 69  1  6
 26 70  1  0
 27 71  1  1
 29 72  1  0
 29 73  1  0
 31 74  1  0
 32 75  1  0
 33 76  1  0
 34 77  1  0
 35 78  1  0
 38 79  1  0
 39 80  1  6
 41 81  1  0
 42 82  1  0
 43 83  1  0
 44 84  1  0
 46 85  1  0
 46 86  1  0
 47 87  1  6
 48 88  1  0
M  END
>  <meeko>  (8) 
{"is_sidechain": [false], "free_energy": -7.597, "intermolecular_energy": -13.457, "internal_energy": -5.416}

$$$$
1eby_ligand
     RDKit          3D

 88 93  0  0  0  0  0  0  0  0999 V2000
   -8.3160    0.6410   10.2820 O   0  0  0  0  0  0  0  0  0  0  0  0
   -7.8740    1.0500    9.2070 C   0  0  0  0  0  0  0  0  0  0  0  0
   -7.4430    2.3450    9.0470 N   0  0  0  0  0  0  0  0  0  0  0  0
   -7.7080    3.3400   10.0560 C   0  0  1  0  0  0  0  0  0  0  0  0
   -6.5930    4.3390   10.2090 C   0  0  0  0  0  0  0  0  0  0  0  0
   -5.2260    4.1110   10.2280 C   0  0  0  0  0  0  0  0  0  0  0  0
   -4.3730    5.1970   10.4340 C   0  0  0  0  0  0  0  0  0  0  0  0
   -4.8910    6.4860   10.6300 C   0  0  0  0  0  0  0  0  0  0  0  0
   -6.2700    6.7080   10.6240 C   0  0  0  0  0  0  0  0  0  0  0  0
   -7.1090    5.6270   10.4060 C   0  0  0  0  0  0  0  0  0  0  0  0
   -8.6100    5.6180   10.3900 C   0  0  0  0  0  0  0  0  0  0  0  0
   -8.9100    4.2690    9.7070 C   0  0  1  0  0  0  0  0  0  0  0  0
   -9.0220    4.4610    8.2820 O   0  0  0  0  0  0  0  0  0  0  0  0
   -7.8290    0.1780    7.9280 C   0  0  2  0  0  0  0  0  0  0  0  0
   -7.4930   -1.1710    8.2940 O   0  0  0  0  0  0  0  0  0  0  0  0
   -8.5490   -2.0970    8.0360 C   0  0  0  0  0  0  0  0  0  0  0  0
   -8.0050   -3.2420    7.2200 C   0  0  0  0  0  0  0  0  0  0  0  0
   -7.9150   -4.5320    7.7590 C   0  0  0  0  0  0  0  0  0  0  0  0
   -7.4570   -5.5950    6.9780 C   0  0  0  0  0  0  0  0  0  0  0  0
   -7.0840   -5.3790    5.6520 C   0  0  0  0  0  0  0  0  0  0  0  0
   -7.1690   -4.1000    5.1050 C   0  0  0  0  0  0  0  0  0  0  0  0
   -7.6280   -3.0380    5.8830 C   0  0  0  0  0  0  0  0  0  0  0  0
   -6.7800    0.6870    6.9070 C   0  0  2  0  0  0  0  0  0  0  0  0
   -7.3760    0.6860    5.5950 O   0  0  0  0  0  0  0  0  0  0  0  0
   -5.5080   -0.2060    6.9530 C   0  0  1  0  0  0  0  0  0  0  0  0
   -4.6810    0.0570    5.8000 O   0  0  0  0  0  0  0  0  0  0  0  0
   -4.6740   -0.0880    8.2440 C   0  0  1  0  0  0  0  0  0  0  0  0
   -3.9060   -1.2970    8.3700 O   0  0  0  0  0  0  0  0  0  0  0  0
   -4.6710   -2.3910    8.8740 C   0  0  0  0  0  0  0  0  0  0  0  0
   -4.2840   -3.6140    8.0870 C   0  0  0  0  0  0  0  0  0  0  0  0
   -3.9480   -3.5080    6.7290 C   0  0  0  0  0  0  0  0  0  0  0  0
   -3.5620   -4.6360    6.0050 C   0  0  0  0  0  0  0  0  0  0  0  0
   -3.4990   -5.8800    6.6320 C   0  0  0  0  0  0  0  0  0  0  0  0
   -3.8210   -5.9950    7.9820 C   0  0  0  0  0  0  0  0  0  0  0  0
   -4.2110   -4.8680    8.7070 C   0  0  0  0  0  0  0  0  0  0  0  0
   -3.7620    1.1420    8.1580 C   0  0  0  0  0  0  0  0  0  0  0  0
   -4.1220    2.1760    7.5980 O   0  0  0  0  0  0  0  0  0  0  0  0
   -2.5070    0.9370    8.6640 N   0  0  0  0  0  0  0  0  0  0  0  0
   -1.4060    1.8560    8.4910 C   0  0  1  0  0  0  0  0  0  0  0  0
   -0.8160    2.2490    9.8110 C   0  0  0  0  0  0  0  0  0  0  0  0
   -1.3530    3.1110   10.7550 C   0  0  0  0  0  0  0  0  0  0  0  0
   -0.6480    3.3200   11.9410 C   0  0  0  0  0  0  0  0  0  0  0  0
    0.5720    2.6650   12.1710 C   0  0  0  0  0  0  0  0  0  0  0  0
    1.1040    1.7960   11.2170 C   0  0  0  0  0  0  0  0  0  0  0  0
    0.4030    1.6020   10.0380 C   0  0  0  0  0  0  0  0  0  0  0  0
    0.7610    0.7000    8.9000 C   0  0  0  0  0  0  0  0  0  0  0  0
   -0.2020    1.1610    7.7860 C   0  0  1  0  0  0  0  0  0  0  0  0
   -0.5910    0.0360    6.9910 O   0  0  0  0  0  0  0  0  0  0  0  0
   -7.3360    2.6710    8.0870 H   0  0  0  0  0  0  0  0  0  0  0  0
   -7.8750    2.7208   10.9497 H   0  0  0  0  0  0  0  0  0  0  0  0
   -4.8224    3.0979   10.0841 H   0  0  0  0  0  0  0  0  0  0  0  0
   -3.2842    5.0404   10.4427 H   0  0  0  0  0  0  0  0  0  0  0  0
   -4.2043    7.3303   10.7900 H   0  0  0  0  0  0  0  0  0  0  0  0
   -6.6796    7.7156   10.7882 H   0  0  0  0  0  0  0  0  0  0  0  0
   -9.0216    5.6510   11.4096 H   0  0  0  0  0  0  0  0  0  0  0  0
   -9.0552    6.4846    9.8793 H   0  0  0  0  0  0  0  0  0  0  0  0
   -9.8581    3.8289   10.0498 H   0  0  0  0  0  0  0  0  0  0  0  0
   -9.9620    4.6130    8.0850 H   0  0  0  0  0  0  0  0  0  0  0  0
   -8.8202    0.2307    7.4539 H   0  0  0  0  0  0  0  0  0  0  0  0
   -8.9468   -2.4782    8.9881 H   0  0  0  0  0  0  0  0  0  0  0  0
   -9.3575   -1.5962    7.4833 H   0  0  0  0  0  0  0  0  0  0  0  0
   -8.2072   -4.7087    8.8047 H   0  0  0  0  0  0  0  0  0  0  0  0
   -7.3903   -6.6046    7.4096 H   0  0  0  0  0  0  0  0  0  0  0  0
   -6.7230   -6.2174    5.0382 H   0  0  0  0  0  0  0  0  0  0  0  0
   -6.8739   -3.9284    4.0593 H   0  0  0  0  0  0  0  0  0  0  0  0
   -7.6954   -2.0311    5.4453 H   0  0  0  0  0  0  0  0  0  0  0  0
   -6.4709    1.7122    7.1590 H   0  0  0  0  0  0  0  0  0  0  0  0
   -8.1330    0.0640    5.5970 H   0  0  0  0  0  0  0  0  0  0  0  0
   -5.8763   -1.2425    6.9419 H   0  0  0  0  0  0  0  0  0  0  0  0
   -3.9570    0.6340    6.1130 H   0  0  0  0  0  0  0  0  0  0  0  0
   -5.3179    0.0384    9.1269 H   0  0  0  0  0  0  0  0  0  0  0  0
   -4.4491   -2.5448    9.9404 H   0  0  0  0  0  0  0  0  0  0  0  0
   -5.7478   -2.1900    8.7731 H   0  0  0  0  0  0  0  0  0  0  0  0
   -3.9893   -2.5278    6.2314 H   0  0  0  0  0  0  0  0  0  0  0  0
   -3.3071   -4.5442    4.9389 H   0  0  0  0  0  0  0  0  0  0  0  0
   -3.1952   -6.7696    6.0608 H   0  0  0  0  0  0  0  0  0  0  0  0
   -3.7679   -6.9756    8.4777 H   0  0  0  0  0  0  0  0  0  0  0  0
   -4.4630   -4.9652    9.7733 H   0  0  0  0  0  0  0  0  0  0  0  0
   -2.3240    0.0500    9.1290 H   0  0  0  0  0  0  0  0  0  0  0  0
   -1.8230    2.7020    7.9250 H   0  0  0  0  0  0  0  0  0  0  0  0
   -2.3121    3.6181   10.5733 H   0  0  0  0  0  0  0  0  0  0  0  0
   -1.0518    4.0039   12.7021 H   0  0  0  0  0  0  0  0  0  0  0  0
    1.1141    2.8382   13.1123 H   0  0  0  0  0  0  0  0  0  0  0  0
    2.0573    1.2775   11.3971 H   0  0  0  0  0  0  0  0  0  0  0  0
    1.8102    0.8378    8.5995 H   0  0  0  0  0  0  0  0  0  0  0  0
    0.6671   -0.3685    9.1437 H   0  0  0  0  0  0  0  0  0  0  0  0
    0.2678    1.8754    7.0939 H   0  0  0  0  0  0  0  0  0  0  0  0
    0.1990   -0.2770    6.5030 H   0  0  0  0  0  0  0  0  0  0  0  0
  1  2  2  0
  2  3  1  0
  3  4  1  0
  4  5  1  0
  5  6  2  0
  6  7  1  0
  7  8  2  0
  8  9  1  0
  9 10  2  0
 10 11  1  0
 11 12  1  0
 12 13  1  0
  2 14  1  0
 14 15  1  0
 15 16  1  0
 16 17  1  0
 17 18  2  0
 18 19  1  0
 19 20  2  0
 20 21  1  0
 21 22  2  0
 14 23  1  0
 23 24  1  0
 23 25  1  0
 25 26  1  0
 25 27  1  0
 27 28  1  0
 28 29  1  0
 29 30  1  0
 30 31  2  0
 31 32  1  0
 32 33  2  0
 33 34  1  0
 34 35  2  0
 27 36  1  0
 36 37  2  0
 36 38  1  0
 38 39  1  0
 39 40  1  0
 40 41  2  0
 41 42  1  0
 42 43  2  0
 43 44  1  0
 44 45  2  0
 45 46  1  0
 46 47  1  0
 47 48  1  0
 12  4  1  0
 22 17  1  0
 35 30  1  0
 47 39  1  0
 10  5  1  0
 45 40  1  0
  3 49  1  0
  4 50  1  1
  6 51  1  0
  7 52  1  0
  8 53  1  0
  9 54  1  0
 11 55  1  0
 11 56  1  0
 12 57  1  1
 13 58  1  0
 14 59  1  6
 16 60  1  0
 16 61  1  0
 18 62  1  0
 19 63  1  0
 20 64  1  0
 21 65  1  0
 22 66  1  0
 23 67  1  1
 24 68  1  0
 25 69  1  6
 26 70  1  0
 27 71  1  1
 29 72  1  0
 29 73  1  0
 31 74  1  0
 32 75  1  0
 33 76  1  0
 34 77  1  0
 35 78  1  0
 38 79  1  0
 39 80  1  6
 41 81  1  0
 42 82  1  0
 43 83  1  0
 44 84  1  0
 46 85  1  0
 46 86  1  0
 47 87  1  6
 48 88  1  0
M  END
>  <meeko>  (9) 
{"is_sidechain": [false], "free_energy": -7.572, "intermolecular_energy": -14.115, "internal_energy": -4.711}

$$$$
