1ydr_ligand
     RDKit          3D

 38 40  0  0  0  0  0  0  0  0999 V2000
    5.9210   -9.7000    4.3080 C   0  0  0  0  0  0  0  0  0  0  0  0
    4.9740   -8.8380    3.4780 C   0  0  1  0  0  0  0  0  0  0  0  0
    3.5680   -8.7490    4.1260 C   0  0  0  0  0  0  0  0  0  0  0  0
    2.9680   -7.3900    3.9180 N   0  0  0  0  0  0  0  0  0  0  0  0
    3.7630   -6.2880    4.5590 C   0  0  0  0  0  0  0  0  0  0  0  0
    5.2780   -6.5140    4.3770 C   0  0  0  0  0  0  0  0  0  0  0  0
    5.6040   -7.4730    3.2660 N   0  0  0  0  0  0  0  0  0  0  0  0
    5.3890   -6.8780    1.6650 S   0  0  0  0  0  0  0  0  0  0  0  0
    5.2840   -5.4400    1.8570 O   0  0  0  0  0  0  0  0  0  0  0  0
    4.3090   -7.6170    1.0590 O   0  0  0  0  0  0  0  0  0  0  0  0
    6.9050   -7.2670    0.8350 C   0  0  0  0  0  0  0  0  0  0  0  0
    8.0140   -7.5710    1.6400 C   0  0  0  0  0  0  0  0  0  0  0  0
    9.2200   -7.9350    1.0510 C   0  0  0  0  0  0  0  0  0  0  0  0
    9.3180   -8.0000   -0.3350 C   0  0  0  0  0  0  0  0  0  0  0  0
    8.2180   -7.6860   -1.1540 C   0  0  0  0  0  0  0  0  0  0  0  0
    8.3180   -7.7470   -2.5460 C   0  0  0  0  0  0  0  0  0  0  0  0
    7.3140   -7.4580   -3.4000 N   0  0  0  0  0  0  0  0  0  0  0  0
    6.1520   -7.0640   -2.8540 C   0  0  0  0  0  0  0  0  0  0  0  0
    5.9400   -6.9730   -1.4860 C   0  0  0  0  0  0  0  0  0  0  0  0
    6.9840   -7.2980   -0.5860 C   0  0  0  0  0  0  0  0  0  0  0  0
    5.7314   -9.5274    5.3777 H   0  0  0  0  0  0  0  0  0  0  0  0
    5.7525  -10.7612    4.0723 H   0  0  0  0  0  0  0  0  0  0  0  0
    6.9617   -9.4328    4.0723 H   0  0  0  0  0  0  0  0  0  0  0  0
    4.8199   -9.3064    2.4947 H   0  0  0  0  0  0  0  0  0  0  0  0
    2.9127   -9.5057    3.6700 H   0  0  0  0  0  0  0  0  0  0  0  0
    3.6671   -8.9278    5.2068 H   0  0  0  0  0  0  0  0  0  0  0  0
    1.9840   -7.3570    4.2100 H   0  0  0  0  0  0  0  0  0  0  0  0
    2.9650   -7.1830    2.8960 H   0  0  0  0  0  0  0  0  0  0  0  0
    3.4852   -5.3294    4.0964 H   0  0  0  0  0  0  0  0  0  0  0  0
    3.5393   -6.2784    5.6360 H   0  0  0  0  0  0  0  0  0  0  0  0
    5.7516   -5.5465    4.1541 H   0  0  0  0  0  0  0  0  0  0  0  0
    5.6576   -6.9541    5.3109 H   0  0  0  0  0  0  0  0  0  0  0  0
    7.9292   -7.5214    2.7356 H   0  0  0  0  0  0  0  0  0  0  0  0
   10.0924   -8.1704    1.6783 H   0  0  0  0  0  0  0  0  0  0  0  0
   10.2695   -8.3013   -0.7975 H   0  0  0  0  0  0  0  0  0  0  0  0
    9.2833   -8.0521   -2.9763 H   0  0  0  0  0  0  0  0  0  0  0  0
    5.3238   -6.7992   -3.5277 H   0  0  0  0  0  0  0  0  0  0  0  0
    4.9620   -6.6487   -1.1008 H   0  0  0  0  0  0  0  0  0  0  0  0
  1  2  1  0
  2  3  1  0
  3  4  1  0
  4  5  1  0
  5  6  1  0
  6  7  1  0
  7  8  1  0
  8  9  2  0
  8 10  2  0
  8 11  1  0
 11 12  2  0
 12 13  1  0
 13 14  2  0
 14 15  1  0
 15 16  2  0
 16 17  1  0
 17 18  2  0
 18 19  1  0
 19 20  2  0
  7  2  1  0
 20 11  1  0
 20 15  1  0
  1 21  1  0
  1 22  1  0
  1 23  1  0
  2 24  1  6
  3 25  1  0
  3 26  1  0
  4 27  1  0
  4 28  1  0
  5 29  1  0
  5 30  1  0
  6 31  1  0
  6 32  1  0
 12 33  1  0
 13 34  1  0
 14 35  1  0
 16 36  1  0
 18 37  1  0
 19 38  1  0
M  CHG  1   4   1
M  END
>  <meeko>  (1) 
{"is_sidechain": [false], "free_energy": -7.609, "intermolecular_energy": -8.498, "internal_energy": -0.412}

$$$$
1ydr_ligand
     RDKit          3D

 38 40  0  0  0  0  0  0  0  0999 V2000
    3.9140   -6.8630    2.5420 C   0  0  0  0  0  0  0  0  0  0  0  0
    5.4140   -6.6350    2.7040 C   0  0  1  0  0  0  0  0  0  0  0  0
    5.7630   -6.1160    4.1240 C   0  0  0  0  0  0  0  0  0  0  0  0
    7.0730   -6.6780    4.5910 N   0  0  0  0  0  0  0  0  0  0  0  0
    7.0650   -8.1750    4.7140 C   0  0  0  0  0  0  0  0  0  0  0  0
    6.3050   -8.8270    3.5400 C   0  0  0  0  0  0  0  0  0  0  0  0
    6.1510   -7.9150    2.3550 N   0  0  0  0  0  0  0  0  0  0  0  0
    7.5720   -7.6380    1.4240 S   0  0  0  0  0  0  0  0  0  0  0  0
    8.3910   -8.8040    1.7140 O   0  0  0  0  0  0  0  0  0  0  0  0
    8.0500   -6.3120    1.7310 O   0  0  0  0  0  0  0  0  0  0  0  0
    7.0220   -7.6900   -0.2600 C   0  0  0  0  0  0  0  0  0  0  0  0
    5.6480   -7.8770   -0.4770 C   0  0  0  0  0  0  0  0  0  0  0  0
    5.1440   -7.8760   -1.7730 C   0  0  0  0  0  0  0  0  0  0  0  0
    6.0070   -7.6830   -2.8480 C   0  0  0  0  0  0  0  0  0  0  0  0
    7.3880   -7.5060   -2.6440 C   0  0  0  0  0  0  0  0  0  0  0  0
    8.2550   -7.3170   -3.7230 C   0  0  0  0  0  0  0  0  0  0  0  0
    9.5880   -7.1450   -3.6140 N   0  0  0  0  0  0  0  0  0  0  0  0
   10.1020   -7.1840   -2.3740 C   0  0  0  0  0  0  0  0  0  0  0  0
    9.3350   -7.3600   -1.2320 C   0  0  0  0  0  0  0  0  0  0  0  0
    7.9320   -7.5180   -1.3400 C   0  0  0  0  0  0  0  0  0  0  0  0
    3.4447   -6.9343    3.5343 H   0  0  0  0  0  0  0  0  0  0  0  0
    3.4730   -6.0216    1.9875 H   0  0  0  0  0  0  0  0  0  0  0  0
    3.7429   -7.7975    1.9875 H   0  0  0  0  0  0  0  0  0  0  0  0
    5.7405   -5.8463    2.0103 H   0  0  0  0  0  0  0  0  0  0  0  0
    5.8298   -5.0183    4.1002 H   0  0  0  0  0  0  0  0  0  0  0  0
    4.9740   -6.4373    4.8199 H   0  0  0  0  0  0  0  0  0  0  0  0
    7.3910   -6.2350    5.4620 H   0  0  0  0  0  0  0  0  0  0  0  0
    7.8020   -6.4540    3.8790 H   0  0  0  0  0  0  0  0  0  0  0  0
    8.1025   -8.5404    4.7169 H   0  0  0  0  0  0  0  0  0  0  0  0
    6.5563   -8.4449    5.6512 H   0  0  0  0  0  0  0  0  0  0  0  0
    6.8565   -9.7239    3.2216 H   0  0  0  0  0  0  0  0  0  0  0  0
    5.2941   -9.0695    3.8994 H   0  0  0  0  0  0  0  0  0  0  0  0
    4.9706   -8.0242    0.3771 H   0  0  0  0  0  0  0  0  0  0  0  0
    4.0685   -8.0270   -1.9479 H   0  0  0  0  0  0  0  0  0  0  0  0
    5.6038   -7.6686   -3.8713 H   0  0  0  0  0  0  0  0  0  0  0  0
    7.8194   -7.3078   -4.7330 H   0  0  0  0  0  0  0  0  0  0  0  0
   11.1899   -7.0702   -2.2578 H   0  0  0  0  0  0  0  0  0  0  0  0
    9.8162   -7.3768   -0.2430 H   0  0  0  0  0  0  0  0  0  0  0  0
  1  2  1  0
  2  3  1  0
  3  4  1  0
  4  5  1  0
  5  6  1  0
  6  7  1  0
  7  8  1  0
  8  9  2  0
  8 10  2  0
  8 11  1  0
 11 12  2  0
 12 13  1  0
 13 14  2  0
 14 15  1  0
 15 16  2  0
 16 17  1  0
 17 18  2  0
 18 19  1  0
 19 20  2  0
  7  2  1  0
 20 11  1  0
 20 15  1  0
  1 21  1  0
  1 22  1  0
  1 23  1  0
  2 24  1  6
  3 25  1  0
  3 26  1  0
  4 27  1  0
  4 28  1  0
  5 29  1  0
  5 30  1  0
  6 31  1  0
  6 32  1  0
 12 33  1  0
 13 34  1  0
 14 35  1  0
 16 36  1  0
 18 37  1  0
 19 38  1  0
M  CHG  1   4   1
M  END
>  <meeko>  (2) 
{"is_sidechain": [false], "free_energy": -7.316, "intermolecular_energy": -8.092, "internal_energy": -0.491}

$$$$
1ydr_ligand
     RDKit          3D

 38 40  0  0  0  0  0  0  0  0999 V2000
    4.8370   -4.8880    4.2270 C   0  0  0  0  0  0  0  0  0  0  0  0
    5.4850   -6.0510    4.9720 C   0  0  1  0  0  0  0  0  0  0  0  0
    5.1030   -6.0500    6.4760 C   0  0  0  0  0  0  0  0  0  0  0  0
    4.9480   -7.4500    6.9900 N   0  0  0  0  0  0  0  0  0  0  0  0
    3.8470   -8.2120    6.3080 C   0  0  0  0  0  0  0  0  0  0  0  0
    3.8250   -7.9250    4.7920 C   0  0  0  0  0  0  0  0  0  0  0  0
    5.1160   -7.3500    4.2790 N   0  0  0  0  0  0  0  0  0  0  0  0
    6.4380   -8.4460    4.1630 S   0  0  0  0  0  0  0  0  0  0  0  0
    5.7860   -9.7360    4.0020 O   0  0  0  0  0  0  0  0  0  0  0  0
    7.3150   -8.2030    5.2820 O   0  0  0  0  0  0  0  0  0  0  0  0
    7.2630   -7.9950    2.6610 C   0  0  0  0  0  0  0  0  0  0  0  0
    8.6570   -7.8390    2.7200 C   0  0  0  0  0  0  0  0  0  0  0  0
    9.3710   -7.5360    1.5670 C   0  0  0  0  0  0  0  0  0  0  0  0
    8.6980   -7.3940    0.3570 C   0  0  0  0  0  0  0  0  0  0  0  0
    7.3000   -7.5370    0.2860 C   0  0  0  0  0  0  0  0  0  0  0  0
    6.6240   -7.3910   -0.9270 C   0  0  0  0  0  0  0  0  0  0  0  0
    5.2880   -7.5070   -1.0800 N   0  0  0  0  0  0  0  0  0  0  0  0
    4.5740   -7.7590    0.0300 C   0  0  0  0  0  0  0  0  0  0  0  0
    5.1420   -7.9270    1.2840 C   0  0  0  0  0  0  0  0  0  0  0  0
    6.5450   -7.8300    1.4440 C   0  0  0  0  0  0  0  0  0  0  0  0
    4.4348   -4.1661    4.9530 H   0  0  0  0  0  0  0  0  0  0  0  0
    5.5891   -4.3925    3.5954 H   0  0  0  0  0  0  0  0  0  0  0  0
    4.0199   -5.2668    3.5954 H   0  0  0  0  0  0  0  0  0  0  0  0
    6.5790   -5.9399    4.9429 H   0  0  0  0  0  0  0  0  0  0  0  0
    5.8934   -5.5419    7.0479 H   0  0  0  0  0  0  0  0  0  0  0  0
    4.1442   -5.5241    6.5945 H   0  0  0  0  0  0  0  0  0  0  0  0
    4.8390   -7.4750    8.0110 H   0  0  0  0  0  0  0  0  0  0  0  0
    5.8260   -7.9760    6.7870 H   0  0  0  0  0  0  0  0  0  0  0  0
    4.0044   -9.2890    6.4669 H   0  0  0  0  0  0  0  0  0  0  0  0
    2.8855   -7.8928    6.7366 H   0  0  0  0  0  0  0  0  0  0  0  0
    3.6265   -8.8675    4.2607 H   0  0  0  0  0  0  0  0  0  0  0  0
    3.0396   -7.1761    4.6126 H   0  0  0  0  0  0  0  0  0  0  0  0
    9.1838   -7.9566    3.6785 H   0  0  0  0  0  0  0  0  0  0  0  0
   10.4628   -7.4090    1.6104 H   0  0  0  0  0  0  0  0  0  0  0  0
    9.2670   -7.1668   -0.5566 H   0  0  0  0  0  0  0  0  0  0  0  0
    7.2229   -7.1654   -1.8216 H   0  0  0  0  0  0  0  0  0  0  0  0
    3.4805   -7.8362   -0.0608 H   0  0  0  0  0  0  0  0  0  0  0  0
    4.5022   -8.1356    2.1542 H   0  0  0  0  0  0  0  0  0  0  0  0
  1  2  1  0
  2  3  1  0
  3  4  1  0
  4  5  1  0
  5  6  1  0
  6  7  1  0
  7  8  1  0
  8  9  2  0
  8 10  2  0
  8 11  1  0
 11 12  2  0
 12 13  1  0
 13 14  2  0
 14 15  1  0
 15 16  2  0
 16 17  1  0
 17 18  2  0
 18 19  1  0
 19 20  2  0
  7  2  1  0
 20 11  1  0
 20 15  1  0
  1 21  1  0
  1 22  1  0
  1 23  1  0
  2 24  1  1
  3 25  1  0
  3 26  1  0
  4 27  1  0
  4 28  1  0
  5 29  1  0
  5 30  1  0
  6 31  1  0
  6 32  1  0
 12 33  1  0
 13 34  1  0
 14 35  1  0
 16 36  1  0
 18 37  1  0
 19 38  1  0
M  CHG  1   4   1
M  END
>  <meeko>  (3) 
{"is_sidechain": [false], "free_energy": -6.815, "intermolecular_energy": -7.674, "internal_energy": -0.35}

$$$$
1ydr_ligand
     RDKit          3D

 38 40  0  0  0  0  0  0  0  0999 V2000
    5.7310   -9.7490    4.1120 C   0  0  0  0  0  0  0  0  0  0  0  0
    4.5190   -8.9900    3.5820 C   0  0  1  0  0  0  0  0  0  0  0  0
    3.3050   -9.1130    4.5390 C   0  0  0  0  0  0  0  0  0  0  0  0
    2.5140   -7.8390    4.5680 N   0  0  0  0  0  0  0  0  0  0  0  0
    3.2990   -6.6670    5.0830 C   0  0  0  0  0  0  0  0  0  0  0  0
    4.7450   -6.6820    4.5430 C   0  0  0  0  0  0  0  0  0  0  0  0
    4.9120   -7.5470    3.3240 N   0  0  0  0  0  0  0  0  0  0  0  0
    4.2560   -6.9240    1.8600 S   0  0  0  0  0  0  0  0  0  0  0  0
    4.2790   -5.4860    2.0710 O   0  0  0  0  0  0  0  0  0  0  0  0
    3.0110   -7.6080    1.6080 O   0  0  0  0  0  0  0  0  0  0  0  0
    5.4340   -7.3710    0.6150 C   0  0  0  0  0  0  0  0  0  0  0  0
    4.9390   -7.6150   -0.6760 C   0  0  0  0  0  0  0  0  0  0  0  0
    5.8170   -7.9190   -1.7100 C   0  0  0  0  0  0  0  0  0  0  0  0
    7.1850   -7.9750   -1.4590 C   0  0  0  0  0  0  0  0  0  0  0  0
    7.6930   -7.7450   -0.1680 C   0  0  0  0  0  0  0  0  0  0  0  0
    9.0650   -7.8050    0.0860 C   0  0  0  0  0  0  0  0  0  0  0  0
    9.6320   -7.6020    1.2930 N   0  0  0  0  0  0  0  0  0  0  0  0
    8.7990   -7.3470    2.3150 C   0  0  0  0  0  0  0  0  0  0  0  0
    7.4220   -7.2590    2.1770 C   0  0  0  0  0  0  0  0  0  0  0  0
    6.8250   -7.4480    0.9070 C   0  0  0  0  0  0  0  0  0  0  0  0
    5.7169   -9.7402    5.2119 H   0  0  0  0  0  0  0  0  0  0  0  0
    5.6984  -10.7883    3.7532 H   0  0  0  0  0  0  0  0  0  0  0  0
    6.6518   -9.2659    3.7532 H   0  0  0  0  0  0  0  0  0  0  0  0
    4.1949   -9.4375    2.6308 H   0  0  0  0  0  0  0  0  0  0  0  0
    2.6563   -9.9317    4.1942 H   0  0  0  0  0  0  0  0  0  0  0  0
    3.6771   -9.3183    5.5536 H   0  0  0  0  0  0  0  0  0  0  0  0
    1.6300   -7.9480    5.0790 H   0  0  0  0  0  0  0  0  0  0  0  0
    2.2450   -7.5950    3.5900 H   0  0  0  0  0  0  0  0  0  0  0  0
    2.8063   -5.7369    4.7632 H   0  0  0  0  0  0  0  0  0  0  0  0
    3.3368   -6.7287    6.1806 H   0  0  0  0  0  0  0  0  0  0  0  0
    5.0322   -5.6524    4.2834 H   0  0  0  0  0  0  0  0  0  0  0  0
    5.3851   -7.1021    5.3328 H   0  0  0  0  0  0  0  0  0  0  0  0
    3.8572   -7.5656   -0.8691 H   0  0  0  0  0  0  0  0  0  0  0  0
    5.4325   -8.1144   -2.7219 H   0  0  0  0  0  0  0  0  0  0  0  0
    7.8785   -8.2024   -2.2821 H   0  0  0  0  0  0  0  0  0  0  0  0
    9.7311   -8.0343   -0.7589 H   0  0  0  0  0  0  0  0  0  0  0  0
    9.2323   -7.2000    3.3153 H   0  0  0  0  0  0  0  0  0  0  0  0
    6.7938   -7.0425    3.0536 H   0  0  0  0  0  0  0  0  0  0  0  0
  1  2  1  0
  2  3  1  0
  3  4  1  0
  4  5  1  0
  5  6  1  0
  6  7  1  0
  7  8  1  0
  8  9  2  0
  8 10  2  0
  8 11  1  0
 11 12  2  0
 12 13  1  0
 13 14  2  0
 14 15  1  0
 15 16  2  0
 16 17  1  0
 17 18  2  0
 18 19  1  0
 19 20  2  0
  7  2  1  0
 20 11  1  0
 20 15  1  0
  1 21  1  0
  1 22  1  0
  1 23  1  0
  2 24  1  6
  3 25  1  0
  3 26  1  0
  4 27  1  0
  4 28  1  0
  5 29  1  0
  5 30  1  0
  6 31  1  0
  6 32  1  0
 12 33  1  0
 13 34  1  0
 14 35  1  0
 16 36  1  0
 18 37  1  0
 19 38  1  0
M  CHG  1   4   1
M  END
>  <meeko>  (4) 
{"is_sidechain": [false], "free_energy": -6.699, "intermolecular_energy": -7.851, "internal_energy": -0.043}

$$$$
1ydr_ligand
     RDKit          3D

 38 40  0  0  0  0  0  0  0  0999 V2000
    5.2560   -6.1390    6.3470 C   0  0  0  0  0  0  0  0  0  0  0  0
    4.7240   -6.7880    5.0730 C   0  0  1  0  0  0  0  0  0  0  0  0
    3.4550   -6.0640    4.5500 C   0  0  0  0  0  0  0  0  0  0  0  0
    3.4300   -6.0450    3.0510 N   0  0  0  0  0  0  0  0  0  0  0  0
    4.5830   -5.2930    2.4500 C   0  0  0  0  0  0  0  0  0  0  0  0
    5.8950   -5.5820    3.2090 C   0  0  0  0  0  0  0  0  0  0  0  0
    5.8350   -6.8340    4.0400 N   0  0  0  0  0  0  0  0  0  0  0  0
    5.8820   -8.3200    3.1720 S   0  0  0  0  0  0  0  0  0  0  0  0
    4.5470   -8.4150    2.6040 O   0  0  0  0  0  0  0  0  0  0  0  0
    6.3720   -9.3400    4.0670 O   0  0  0  0  0  0  0  0  0  0  0  0
    7.0680   -8.0500    1.8840 C   0  0  0  0  0  0  0  0  0  0  0  0
    8.4210   -8.0210    2.2580 C   0  0  0  0  0  0  0  0  0  0  0  0
    9.4050   -7.8640    1.2890 C   0  0  0  0  0  0  0  0  0  0  0  0
    9.0420   -7.7410   -0.0490 C   0  0  0  0  0  0  0  0  0  0  0  0
    7.6890   -7.7570   -0.4350 C   0  0  0  0  0  0  0  0  0  0  0  0
    7.3240   -7.6290   -1.7770 C   0  0  0  0  0  0  0  0  0  0  0  0
    6.0530   -7.6300   -2.2300 N   0  0  0  0  0  0  0  0  0  0  0  0
    5.0840   -7.7390   -1.3060 C   0  0  0  0  0  0  0  0  0  0  0  0
    5.3320   -7.8760    0.0520 C   0  0  0  0  0  0  0  0  0  0  0  0
    6.6650   -7.8990    0.5280 C   0  0  0  0  0  0  0  0  0  0  0  0
    4.8348   -6.6528    7.2237 H   0  0  0  0  0  0  0  0  0  0  0  0
    6.3530   -6.2175    6.3680 H   0  0  0  0  0  0  0  0  0  0  0  0
    4.9638   -5.0787    6.3680 H   0  0  0  0  0  0  0  0  0  0  0  0
    4.4093   -7.8191    5.2914 H   0  0  0  0  0  0  0  0  0  0  0  0
    2.5622   -6.5905    4.9185 H   0  0  0  0  0  0  0  0  0  0  0  0
    3.4667   -5.0263    4.9147 H   0  0  0  0  0  0  0  0  0  0  0  0
    2.5330   -5.7020    2.6870 H   0  0  0  0  0  0  0  0  0  0  0  0
    3.5180   -7.0250    2.7060 H   0  0  0  0  0  0  0  0  0  0  0  0
    4.7016   -5.5978    1.3998 H   0  0  0  0  0  0  0  0  0  0  0  0
    4.3704   -4.2160    2.5200 H   0  0  0  0  0  0  0  0  0  0  0  0
    6.7074   -5.6881    2.4750 H   0  0  0  0  0  0  0  0  0  0  0  0
    6.0669   -4.7410    3.8968 H   0  0  0  0  0  0  0  0  0  0  0  0
    8.7019   -8.1224    3.3167 H   0  0  0  0  0  0  0  0  0  0  0  0
   10.4659   -7.8371    1.5783 H   0  0  0  0  0  0  0  0  0  0  0  0
    9.8235   -7.6298   -0.8151 H   0  0  0  0  0  0  0  0  0  0  0  0
    8.1301   -7.5196   -2.5174 H   0  0  0  0  0  0  0  0  0  0  0  0
    4.0376   -7.7185   -1.6444 H   0  0  0  0  0  0  0  0  0  0  0  0
    4.4936   -7.9667    0.7583 H   0  0  0  0  0  0  0  0  0  0  0  0
  1  2  1  0
  2  3  1  0
  3  4  1  0
  4  5  1  0
  5  6  1  0
  6  7  1  0
  7  8  1  0
  8  9  2  0
  8 10  2  0
  8 11  1  0
 11 12  2  0
 12 13  1  0
 13 14  2  0
 14 15  1  0
 15 16  2  0
 16 17  1  0
 17 18  2  0
 18 19  1  0
 19 20  2  0
  7  2  1  0
 20 11  1  0
 20 15  1  0
  1 21  1  0
  1 22  1  0
  1 23  1  0
  2 24  1  1
  3 25  1  0
  3 26  1  0
  4 27  1  0
  4 28  1  0
  5 29  1  0
  5 30  1  0
  6 31  1  0
  6 32  1  0
 12 33  1  0
 13 34  1  0
 14 35  1  0
 16 36  1  0
 18 37  1  0
 19 38  1  0
M  CHG  1   4   1
M  END
>  <meeko>  (5) 
{"is_sidechain": [false], "free_energy": -6.599, "intermolecular_energy": -8.21, "internal_energy": 0.427}

$$$$
1ydr_ligand
     RDKit          3D

 38 40  0  0  0  0  0  0  0  0999 V2000
    5.3350  -10.2420    4.2780 C   0  0  0  0  0  0  0  0  0  0  0  0
    4.6210   -8.8950    4.3010 C   0  0  1  0  0  0  0  0  0  0  0  0
    3.9370   -8.6330    5.6690 C   0  0  0  0  0  0  0  0  0  0  0  0
    4.0130   -7.1810    6.0350 N   0  0  0  0  0  0  0  0  0  0  0  0
    5.4210   -6.6850    6.2010 C   0  0  0  0  0  0  0  0  0  0  0  0
    6.3510   -7.2710    5.1180 C   0  0  0  0  0  0  0  0  0  0  0  0
    5.6080   -7.8040    3.9250 N   0  0  0  0  0  0  0  0  0  0  0  0
    4.9340   -6.6270    2.8650 S   0  0  0  0  0  0  0  0  0  0  0  0
    5.7810   -5.4640    3.0800 O   0  0  0  0  0  0  0  0  0  0  0  0
    3.5160   -6.5580    3.1240 O   0  0  0  0  0  0  0  0  0  0  0  0
    5.2050   -7.2790    1.2410 C   0  0  0  0  0  0  0  0  0  0  0  0
    4.1250   -7.9320    0.6260 C   0  0  0  0  0  0  0  0  0  0  0  0
    4.2550   -8.4220   -0.6680 C   0  0  0  0  0  0  0  0  0  0  0  0
    5.4570   -8.2560   -1.3500 C   0  0  0  0  0  0  0  0  0  0  0  0
    6.5510   -7.6140   -0.7410 C   0  0  0  0  0  0  0  0  0  0  0  0
    7.7590   -7.4520   -1.4230 C   0  0  0  0  0  0  0  0  0  0  0  0
    8.8540   -6.8530   -0.9120 N   0  0  0  0  0  0  0  0  0  0  0  0
    8.7640   -6.4100    0.3530 C   0  0  0  0  0  0  0  0  0  0  0  0
    7.6130   -6.5140    1.1200 C   0  0  0  0  0  0  0  0  0  0  0  0
    6.4540   -7.1200    0.5790 C   0  0  0  0  0  0  0  0  0  0  0  0
    5.5140  -10.5797    5.3094 H   0  0  0  0  0  0  0  0  0  0  0  0
    4.7095  -10.9797    3.7540 H   0  0  0  0  0  0  0  0  0  0  0  0
    6.2966  -10.1384    3.7540 H   0  0  0  0  0  0  0  0  0  0  0  0
    3.8089   -8.8996    3.5591 H   0  0  0  0  0  0  0  0  0  0  0  0
    2.8808   -8.9342    5.6073 H   0  0  0  0  0  0  0  0  0  0  0  0
    4.4585   -9.2181    6.4408 H   0  0  0  0  0  0  0  0  0  0  0  0
    3.4430   -6.9640    6.8620 H   0  0  0  0  0  0  0  0  0  0  0  0
    3.6040   -6.6210    5.2560 H   0  0  0  0  0  0  0  0  0  0  0  0
    5.4263   -5.5878    6.1230 H   0  0  0  0  0  0  0  0  0  0  0  0
    5.7891   -7.0058    7.1867 H   0  0  0  0  0  0  0  0  0  0  0  0
    7.0350   -6.4792    4.7788 H   0  0  0  0  0  0  0  0  0  0  0  0
    6.8898   -8.1158    5.5719 H   0  0  0  0  0  0  0  0  0  0  0  0
    3.1760   -8.0558    1.1683 H   0  0  0  0  0  0  0  0  0  0  0  0
    3.4123   -8.9384   -1.1508 H   0  0  0  0  0  0  0  0  0  0  0  0
    5.5530   -8.6319   -2.3793 H   0  0  0  0  0  0  0  0  0  0  0  0
    7.8218   -7.8407   -2.4501 H   0  0  0  0  0  0  0  0  0  0  0  0
    9.6501   -5.9399    0.8045 H   0  0  0  0  0  0  0  0  0  0  0  0
    7.6010   -6.1254    2.1490 H   0  0  0  0  0  0  0  0  0  0  0  0
  1  2  1  0
  2  3  1  0
  3  4  1  0
  4  5  1  0
  5  6  1  0
  6  7  1  0
  7  8  1  0
  8  9  2  0
  8 10  2  0
  8 11  1  0
 11 12  2  0
 12 13  1  0
 13 14  2  0
 14 15  1  0
 15 16  2  0
 16 17  1  0
 17 18  2  0
 18 19  1  0
 19 20  2  0
  7  2  1  0
 20 11  1  0
 20 15  1  0
  1 21  1  0
  1 22  1  0
  1 23  1  0
  2 24  1  6
  3 25  1  0
  3 26  1  0
  4 27  1  0
  4 28  1  0
  5 29  1  0
  5 30  1  0
  6 31  1  0
  6 32  1  0
 12 33  1  0
 13 34  1  0
 14 35  1  0
 16 36  1  0
 18 37  1  0
 19 38  1  0
M  CHG  1   4   1
M  END
>  <meeko>  (6) 
{"is_sidechain": [false], "free_energy": -6.595, "intermolecular_energy": -7.538, "internal_energy": -0.239}

$$$$
1ydr_ligand
     RDKit          3D

 38 40  0  0  0  0  0  0  0  0999 V2000
    5.0550   -4.8960    4.8440 C   0  0  0  0  0  0  0  0  0  0  0  0
    5.2700   -6.3630    5.2000 C   0  0  1  0  0  0  0  0  0  0  0  0
    5.5880   -6.5460    6.7070 C   0  0  0  0  0  0  0  0  0  0  0  0
    4.9770   -7.8100    7.2340 N   0  0  0  0  0  0  0  0  0  0  0  0
    3.4770   -7.8230    7.1470 C   0  0  0  0  0  0  0  0  0  0  0  0
    2.9890   -7.2090    5.8180 C   0  0  0  0  0  0  0  0  0  0  0  0
    4.0560   -7.1630    4.7600 N   0  0  0  0  0  0  0  0  0  0  0  0
    4.4720   -8.6690    4.0380 S   0  0  0  0  0  0  0  0  0  0  0  0
    3.4070   -9.5540    4.4830 O   0  0  0  0  0  0  0  0  0  0  0  0
    5.8470   -8.9540    4.3680 O   0  0  0  0  0  0  0  0  0  0  0  0
    4.3320   -8.3850    2.2960 C   0  0  0  0  0  0  0  0  0  0  0  0
    3.1610   -8.8350    1.6670 C   0  0  0  0  0  0  0  0  0  0  0  0
    2.9650   -8.5970    0.3110 C   0  0  0  0  0  0  0  0  0  0  0  0
    3.9330   -7.9090   -0.4140 C   0  0  0  0  0  0  0  0  0  0  0  0
    5.1160   -7.4620    0.2010 C   0  0  0  0  0  0  0  0  0  0  0  0
    6.0900   -6.7750   -0.5280 C   0  0  0  0  0  0  0  0  0  0  0  0
    7.2510   -6.3180   -0.0160 N   0  0  0  0  0  0  0  0  0  0  0  0
    7.4790   -6.5730    1.2830 C   0  0  0  0  0  0  0  0  0  0  0  0
    6.5810   -7.2420    2.1020 C   0  0  0  0  0  0  0  0  0  0  0  0
    5.3510   -7.7020    1.5740 C   0  0  0  0  0  0  0  0  0  0  0  0
    4.9682   -4.3037    5.7668 H   0  0  0  0  0  0  0  0  0  0  0  0
    5.9095   -4.5328    4.2542 H   0  0  0  0  0  0  0  0  0  0  0  0
    4.1322   -4.7933    4.2542 H   0  0  0  0  0  0  0  0  0  0  0  0
    6.1511   -6.7434    4.6625 H   0  0  0  0  0  0  0  0  0  0  0  0
    6.6788   -6.5899    6.8420 H   0  0  0  0  0  0  0  0  0  0  0  0
    5.1659   -5.6945    7.2608 H   0  0  0  0  0  0  0  0  0  0  0  0
    5.2960   -8.0220    8.1870 H   0  0  0  0  0  0  0  0  0  0  0  0
    5.3030   -8.6060    6.6440 H   0  0  0  0  0  0  0  0  0  0  0  0
    3.1229   -8.8623    7.2133 H   0  0  0  0  0  0  0  0  0  0  0  0
    3.0751   -7.2222    7.9762 H   0  0  0  0  0  0  0  0  0  0  0  0
    2.1494   -7.8119    5.4418 H   0  0  0  0  0  0  0  0  0  0  0  0
    2.6911   -6.1710    6.0273 H   0  0  0  0  0  0  0  0  0  0  0  0
    2.3983   -9.3759    2.2465 H   0  0  0  0  0  0  0  0  0  0  0  0
    2.0496   -8.9508   -0.1858 H   0  0  0  0  0  0  0  0  0  0  0  0
    3.7705   -7.7119   -1.4839 H   0  0  0  0  0  0  0  0  0  0  0  0
    5.8961   -6.5940   -1.5955 H   0  0  0  0  0  0  0  0  0  0  0  0
    8.4290   -6.2330    1.7210 H   0  0  0  0  0  0  0  0  0  0  0  0
    6.8247   -7.4148    3.1607 H   0  0  0  0  0  0  0  0  0  0  0  0
  1  2  1  0
  2  3  1  0
  3  4  1  0
  4  5  1  0
  5  6  1  0
  6  7  1  0
  7  8  1  0
  8  9  2  0
  8 10  2  0
  8 11  1  0
 11 12  2  0
 12 13  1  0
 13 14  2  0
 14 15  1  0
 15 16  2  0
 16 17  1  0
 17 18  2  0
 18 19  1  0
 19 20  2  0
  7  2  1  0
 20 11  1  0
 20 15  1  0
  1 21  1  0
  1 22  1  0
  1 23  1  0
  2 24  1  6
  3 25  1  0
  3 26  1  0
  4 27  1  0
  4 28  1  0
  5 29  1  0
  5 30  1  0
  6 31  1  0
  6 32  1  0
 12 33  1  0
 13 34  1  0
 14 35  1  0
 16 36  1  0
 18 37  1  0
 19 38  1  0
M  CHG  1   4   1
M  END
>  <meeko>  (7) 
{"is_sidechain": [false], "free_energy": -6.458, "intermolecular_energy": -7.438, "internal_energy": -0.187}

$$$$
1ydr_ligand
     RDKit          3D

 38 40  0  0  0  0  0  0  0  0999 V2000
    3.1180   -8.3360    0.6390 C   0  0  0  0  0  0  0  0  0  0  0  0
    4.2480   -8.2100    1.6570 C   0  0  1  0  0  0  0  0  0  0  0  0
    5.5710   -7.7530    0.9890 C   0  0  0  0  0  0  0  0  0  0  0  0
    6.3430   -6.8440    1.8980 N   0  0  0  0  0  0  0  0  0  0  0  0
    5.6110   -5.5740    2.2240 C   0  0  0  0  0  0  0  0  0  0  0  0
    4.1110   -5.8390    2.4690 C   0  0  0  0  0  0  0  0  0  0  0  0
    3.8070   -7.2810    2.7730 N   0  0  0  0  0  0  0  0  0  0  0  0
    4.2730   -7.8390    4.3330 S   0  0  0  0  0  0  0  0  0  0  0  0
    4.3580   -6.6140    5.1120 O   0  0  0  0  0  0  0  0  0  0  0  0
    5.4290   -8.6870    4.1730 O   0  0  0  0  0  0  0  0  0  0  0  0
    2.9010   -8.8130    4.8880 C   0  0  0  0  0  0  0  0  0  0  0  0
    1.8880   -8.1460    5.5940 C   0  0  0  0  0  0  0  0  0  0  0  0
    0.7600   -8.8420    6.0120 C   0  0  0  0  0  0  0  0  0  0  0  0
    0.6400  -10.1980    5.7230 C   0  0  0  0  0  0  0  0  0  0  0  0
    1.6540  -10.8810    5.0270 C   0  0  0  0  0  0  0  0  0  0  0  0
    1.5360  -12.2430    4.7400 C   0  0  0  0  0  0  0  0  0  0  0  0
    2.4620  -12.9720    4.0820 N   0  0  0  0  0  0  0  0  0  0  0  0
    3.5780  -12.3280    3.7050 C   0  0  0  0  0  0  0  0  0  0  0  0
    3.7990  -10.9780    3.9330 C   0  0  0  0  0  0  0  0  0  0  0  0
    2.8190  -10.2050    4.6020 C   0  0  0  0  0  0  0  0  0  0  0  0
    2.1590   -8.4429    1.1671 H   0  0  0  0  0  0  0  0  0  0  0  0
    3.0907   -7.4353    0.0081 H   0  0  0  0  0  0  0  0  0  0  0  0
    3.2898   -9.2206    0.0081 H   0  0  0  0  0  0  0  0  0  0  0  0
    4.4613   -9.1979    2.0913 H   0  0  0  0  0  0  0  0  0  0  0  0
    6.1831   -8.6377    0.7597 H   0  0  0  0  0  0  0  0  0  0  0  0
    5.3281   -7.2046    0.0669 H   0  0  0  0  0  0  0  0  0  0  0  0
    7.2840   -6.6490    1.5360 H   0  0  0  0  0  0  0  0  0  0  0  0
    6.4870   -7.3320    2.8090 H   0  0  0  0  0  0  0  0  0  0  0  0
    6.0492   -5.1303    3.1301 H   0  0  0  0  0  0  0  0  0  0  0  0
    5.7075   -4.8883    1.3693 H   0  0  0  0  0  0  0  0  0  0  0  0
    3.7818   -5.2251    3.3203 H   0  0  0  0  0  0  0  0  0  0  0  0
    3.5772   -5.5801    1.5427 H   0  0  0  0  0  0  0  0  0  0  0  0
    1.9867   -7.0732    5.8163 H   0  0  0  0  0  0  0  0  0  0  0  0
   -0.0344   -8.3234    6.5688 H   0  0  0  0  0  0  0  0  0  0  0  0
   -0.2601  -10.7433    6.0432 H   0  0  0  0  0  0  0  0  0  0  0  0
    0.6233  -12.7582    5.0741 H   0  0  0  0  0  0  0  0  0  0  0  0
    4.3599  -12.9026    3.1869 H   0  0  0  0  0  0  0  0  0  0  0  0
    4.7343  -10.5082    3.5946 H   0  0  0  0  0  0  0  0  0  0  0  0
  1  2  1  0
  2  3  1  0
  3  4  1  0
  4  5  1  0
  5  6  1  0
  6  7  1  0
  7  8  1  0
  8  9  2  0
  8 10  2  0
  8 11  1  0
 11 12  2  0
 12 13  1  0
 13 14  2  0
 14 15  1  0
 15 16  2  0
 16 17  1  0
 17 18  2  0
 18 19  1  0
 19 20  2  0
  7  2  1  0
 20 11  1  0
 20 15  1  0
  1 21  1  0
  1 22  1  0
  1 23  1  0
  2 24  1  1
  3 25  1  0
  3 26  1  0
  4 27  1  0
  4 28  1  0
  5 29  1  0
  5 30  1  0
  6 31  1  0
  6 32  1  0
 12 33  1  0
 13 34  1  0
 14 35  1  0
 16 36  1  0
 18 37  1  0
 19 38  1  0
M  CHG  1   4   1
M  END
>  <meeko>  (8) 
{"is_sidechain": [false], "free_energy": -6.401, "intermolecular_energy": -7.382, "internal_energy": -0.18}

$$$$
1ydr_ligand
     RDKit          3D

 38 40  0  0  0  0  0  0  0  0999 V2000
    3.3380  -10.5090    2.7160 C   0  0  0  0  0  0  0  0  0  0  0  0
    3.1830   -9.0580    3.1600 C   0  0  1  0  0  0  0  0  0  0  0  0
    1.8170   -8.8160    3.8540 C   0  0  0  0  0  0  0  0  0  0  0  0
    1.9530   -7.8270    4.9730 N   0  0  0  0  0  0  0  0  0  0  0  0
    2.8700   -8.2950    6.0680 C   0  0  0  0  0  0  0  0  0  0  0  0
    4.1130   -9.0040    5.4910 C   0  0  0  0  0  0  0  0  0  0  0  0
    4.3590   -8.6820    4.0430 N   0  0  0  0  0  0  0  0  0  0  0  0
    4.9690   -7.1060    3.7110 S   0  0  0  0  0  0  0  0  0  0  0  0
    5.4110   -6.6410    5.0160 O   0  0  0  0  0  0  0  0  0  0  0  0
    3.9560   -6.3850    2.9800 O   0  0  0  0  0  0  0  0  0  0  0  0
    6.3690   -7.3800    2.6610 C   0  0  0  0  0  0  0  0  0  0  0  0
    7.6210   -7.4970    3.2830 C   0  0  0  0  0  0  0  0  0  0  0  0
    8.7530   -7.7640    2.5210 C   0  0  0  0  0  0  0  0  0  0  0  0
    8.6360   -7.9170    1.1430 C   0  0  0  0  0  0  0  0  0  0  0  0
    7.3880   -7.7900    0.5050 C   0  0  0  0  0  0  0  0  0  0  0  0
    7.2710   -7.9390   -0.8780 C   0  0  0  0  0  0  0  0  0  0  0  0
    6.1150   -7.8290   -1.5660 N   0  0  0  0  0  0  0  0  0  0  0  0
    5.0160   -7.5310   -0.8550 C   0  0  0  0  0  0  0  0  0  0  0  0
    5.0160   -7.3660    0.5220 C   0  0  0  0  0  0  0  0  0  0  0  0
    6.2220   -7.5040    1.2510 C   0  0  0  0  0  0  0  0  0  0  0  0
    3.4073  -11.1580    3.6014 H   0  0  0  0  0  0  0  0  0  0  0  0
    2.4662  -10.8031    2.1132 H   0  0  0  0  0  0  0  0  0  0  0  0
    4.2523  -10.6123    2.1132 H   0  0  0  0  0  0  0  0  0  0  0  0
    3.1881   -8.4026    2.2766 H   0  0  0  0  0  0  0  0  0  0  0  0
    1.1013   -8.4271    3.1147 H   0  0  0  0  0  0  0  0  0  0  0  0
    1.4600   -9.7699    4.2695 H   0  0  0  0  0  0  0  0  0  0  0  0
    1.0400   -7.5450    5.3490 H   0  0  0  0  0  0  0  0  0  0  0  0
    2.3840   -6.9560    4.5940 H   0  0  0  0  0  0  0  0  0  0  0  0
    3.1949   -7.4263    6.6595 H   0  0  0  0  0  0  0  0  0  0  0  0
    2.3222   -9.0110    6.6983 H   0  0  0  0  0  0  0  0  0  0  0  0
    4.9938   -8.6943    6.0727 H   0  0  0  0  0  0  0  0  0  0  0  0
    3.9331  -10.0870    5.5593 H   0  0  0  0  0  0  0  0  0  0  0  0
    7.7071   -7.3776    4.3731 H   0  0  0  0  0  0  0  0  0  0  0  0
    9.7365   -7.8539    3.0054 H   0  0  0  0  0  0  0  0  0  0  0  0
    9.5312   -8.1403    0.5440 H   0  0  0  0  0  0  0  0  0  0  0  0
    8.1855   -8.1618   -1.4473 H   0  0  0  0  0  0  0  0  0  0  0  0
    4.0643   -7.4113   -1.3935 H   0  0  0  0  0  0  0  0  0  0  0  0
    4.0795   -7.1280    1.0476 H   0  0  0  0  0  0  0  0  0  0  0  0
  1  2  1  0
  2  3  1  0
  3  4  1  0
  4  5  1  0
  5  6  1  0
  6  7  1  0
  7  8  1  0
  8  9  2  0
  8 10  2  0
  8 11  1  0
 11 12  2  0
 12 13  1  0
 13 14  2  0
 14 15  1  0
 15 16  2  0
 16 17  1  0
 17 18  2  0
 18 19  1  0
 19 20  2  0
  7  2  1  0
 20 11  1  0
 20 15  1  0
  1 21  1  0
  1 22  1  0
  1 23  1  0
  2 24  1  6
  3 25  1  0
  3 26  1  0
  4 27  1  0
  4 28  1  0
  5 29  1  0
  5 30  1  0
  6 31  1  0
  6 32  1  0
 12 33  1  0
 13 34  1  0
 14 35  1  0
 16 36  1  0
 18 37  1  0
 19 38  1  0
M  CHG  1   4   1
M  END
>  <meeko>  (9) 
{"is_sidechain": [false], "free_energy": -6.334, "intermolecular_energy": -7.321, "internal_energy": -0.166}

$$$$
