2y5h_ligand
     RDKit          3D

 60 64  0  0  0  0  0  0  0  0999 V2000
   16.8480    8.6960    8.0560 C   0  0  0  0  0  0  0  0  0  0  0  0
   16.6750    7.3190    7.4230 N   0  0  0  0  0  0  0  0  0  0  0  0
   18.0420    6.7540    7.0420 C   0  0  0  0  0  0  0  0  0  0  0  0
   16.0640    6.3880    8.4850 C   0  0  0  0  0  0  0  0  0  0  0  0
   15.7140    7.3520    6.2220 C   0  0  0  0  0  0  0  0  0  0  0  0
   14.7290    6.1800    6.1750 C   0  0  0  0  0  0  0  0  0  0  0  0
   13.8650    6.2650    4.9100 C   0  0  0  0  0  0  0  0  0  0  0  0
   14.1220    5.1650    3.9910 N   0  0  0  0  0  0  0  0  0  0  0  0
   15.0880    5.2060    3.0260 C   0  0  0  0  0  0  0  0  0  0  0  0
   15.8220    6.1450    2.7700 O   0  0  0  0  0  0  0  0  0  0  0  0
   15.0730    3.9070    2.2740 C   0  0  2  0  0  0  0  0  0  0  0  0
   14.2080    2.9930    3.1310 C   0  0  2  0  0  0  0  0  0  0  0  0
   13.5410    3.9330    4.0940 C   0  0  0  0  0  0  0  0  0  0  0  0
   12.6650    3.5960    4.8720 O   0  0  0  0  0  0  0  0  0  0  0  0
   15.1410    1.9930    3.8060 C   0  0  2  0  0  0  0  0  0  0  0  0
   15.6390    2.3880    5.1610 C   0  0  0  0  0  0  0  0  0  0  0  0
   16.7250    3.1410    5.5330 C   0  0  0  0  0  0  0  0  0  0  0  0
   16.7410    3.2080    6.8920 O   0  0  0  0  0  0  0  0  0  0  0  0
   15.6520    2.4770    7.3040 C   0  0  0  0  0  0  0  0  0  0  0  0
   15.3290    2.2580    8.6860 C   0  0  0  0  0  0  0  0  0  0  0  0
   15.8820    1.3160    9.5360 C   0  0  0  0  0  0  0  0  0  0  0  0
   15.3130    1.3660   10.8460 C   0  0  0  0  0  0  0  0  0  0  0  0
   14.3520    2.3370   10.9280 C   0  0  0  0  0  0  0  0  0  0  0  0
   13.4040    2.7320   12.3040 Cl  0  0  0  0  0  0  0  0  0  0  0  0
   14.1260    3.1870    9.4850 S   0  0  0  0  0  0  0  0  0  0  0  0
   14.9580    1.9800    6.2880 N   0  0  0  0  0  0  0  0  0  0  0  0
   16.3270    1.9200    2.8450 N   0  0  1  0  0  0  0  0  0  0  0  0
   16.2920    0.8490    1.7790 C   0  0  0  0  0  0  0  0  0  0  0  0
   16.1490    1.6130    0.4760 C   0  0  0  0  0  0  0  0  0  0  0  0
   16.8680    2.9220    0.7460 C   0  0  0  0  0  0  0  0  0  0  0  0
   16.4570    3.2850    2.1680 C   0  0  1  0  0  0  0  0  0  0  0  0
   16.8359    8.6000    9.1517 H   0  0  0  0  0  0  0  0  0  0  0  0
   17.8075    9.1286    7.7364 H   0  0  0  0  0  0  0  0  0  0  0  0
   16.0253    9.3525    7.7364 H   0  0  0  0  0  0  0  0  0  0  0  0
   18.6092    6.5196    7.9549 H   0  0  0  0  0  0  0  0  0  0  0  0
   17.9076    5.8377    6.4484 H   0  0  0  0  0  0  0  0  0  0  0  0
   18.5937    7.4978    6.4484 H   0  0  0  0  0  0  0  0  0  0  0  0
   16.3111    6.7646    9.4886 H   0  0  0  0  0  0  0  0  0  0  0  0
   14.9712    6.3598    8.3628 H   0  0  0  0  0  0  0  0  0  0  0  0
   16.4729    5.3742    8.3628 H   0  0  0  0  0  0  0  0  0  0  0  0
   15.1362    8.2869    6.2679 H   0  0  0  0  0  0  0  0  0  0  0  0
   16.3354    7.2797    5.3172 H   0  0  0  0  0  0  0  0  0  0  0  0
   15.2900    5.2338    6.1691 H   0  0  0  0  0  0  0  0  0  0  0  0
   14.0763    6.2238    7.0593 H   0  0  0  0  0  0  0  0  0  0  0  0
   12.8051    6.2409    5.2031 H   0  0  0  0  0  0  0  0  0  0  0  0
   14.1171    7.2023    4.3923 H   0  0  0  0  0  0  0  0  0  0  0  0
   14.7095    4.0557    1.2465 H   0  0  0  0  0  0  0  0  0  0  0  0
   13.4493    2.4048    2.5940 H   0  0  0  0  0  0  0  0  0  0  0  0
   14.6035    1.0502    3.9856 H   0  0  0  0  0  0  0  0  0  0  0  0
   17.4531    3.6074    4.8531 H   0  0  0  0  0  0  0  0  0  0  0  0
   16.6700    0.6091    9.2371 H   0  0  0  0  0  0  0  0  0  0  0  0
   15.6084    0.7106   11.6785 H   0  0  0  0  0  0  0  0  0  0  0  0
   17.1770    1.7770    3.4170 H   0  0  0  0  0  0  0  0  0  0  0  0
   17.2230    0.2632    1.7859 H   0  0  0  0  0  0  0  0  0  0  0  0
   15.4731    0.1312    1.9346 H   0  0  0  0  0  0  0  0  0  0  0  0
   16.6246    1.0679   -0.3526 H   0  0  0  0  0  0  0  0  0  0  0  0
   15.0997    1.7563    0.1787 H   0  0  0  0  0  0  0  0  0  0  0  0
   17.9579    2.7906    0.6760 H   0  0  0  0  0  0  0  0  0  0  0  0
   16.6077    3.7047    0.0183 H   0  0  0  0  0  0  0  0  0  0  0  0
   17.1781    4.0027    2.5862 H   0  0  0  0  0  0  0  0  0  0  0  0
  1  2  1  0
  2  3  1  0
  2  4  1  0
  2  5  1  0
  5  6  1  0
  6  7  1  0
  7  8  1  0
  8  9  1  0
  9 10  2  0
  9 11  1  0
 11 12  1  0
 12 13  1  0
 13 14  2  0
 12 15  1  0
 15 16  1  0
 16 17  2  0
 17 18  1  0
 18 19  1  0
 19 20  1  0
 20 21  2  0
 21 22  1  0
 22 23  2  0
 23 24  1  0
 23 25  1  0
 19 26  2  0
 15 27  1  0
 27 28  1  0
 28 29  1  0
 29 30  1  0
 30 31  1  0
 13  8  1  0
 26 16  1  0
 31 27  1  0
 31 11  1  0
 25 20  1  0
  1 32  1  0
  1 33  1  0
  1 34  1  0
  3 35  1  0
  3 36  1  0
  3 37  1  0
  4 38  1  0
  4 39  1  0
  4 40  1  0
  5 41  1  0
  5 42  1  0
  6 43  1  0
  6 44  1  0
  7 45  1  0
  7 46  1  0
 11 47  1  6
 12 48  1  6
 15 49  1  1
 17 50  1  0
 21 51  1  0
 22 52  1  0
 27 53  1  1
 28 54  1  0
 28 55  1  0
 29 56  1  0
 29 57  1  0
 30 58  1  0
 30 59  1  0
 31 60  1  1
M  CHG  2   2   1  27   1
M  END
>  <meeko>  (1) 
{"is_sidechain": [false], "free_energy": -6.368, "intermolecular_energy": -8.602, "internal_energy": -1.214}

$$$$
2y5h_ligand
     RDKit          3D

 60 64  0  0  0  0  0  0  0  0999 V2000
   16.2820    2.6350   10.6420 C   0  0  0  0  0  0  0  0  0  0  0  0
   15.1490    3.4410   10.0170 N   0  0  0  0  0  0  0  0  0  0  0  0
   13.8420    2.6590   10.1290 C   0  0  0  0  0  0  0  0  0  0  0  0
   14.9900    4.7370   10.8300 C   0  0  0  0  0  0  0  0  0  0  0  0
   15.4560    3.8360    8.5610 C   0  0  0  0  0  0  0  0  0  0  0  0
   14.5270    3.1940    7.5280 C   0  0  0  0  0  0  0  0  0  0  0  0
   15.2180    1.9950    6.8660 C   0  0  0  0  0  0  0  0  0  0  0  0
   15.6730    2.2960    5.5160 N   0  0  0  0  0  0  0  0  0  0  0  0
   14.8860    2.1420    4.4110 C   0  0  0  0  0  0  0  0  0  0  0  0
   13.7470    1.7080    4.3810 O   0  0  0  0  0  0  0  0  0  0  0  0
   15.6740    2.5480    3.1990 C   0  0  2  0  0  0  0  0  0  0  0  0
   16.8910    3.2610    3.7710 C   0  0  2  0  0  0  0  0  0  0  0  0
   16.8620    2.9030    5.2280 C   0  0  0  0  0  0  0  0  0  0  0  0
   17.7530    3.1830    6.0120 O   0  0  0  0  0  0  0  0  0  0  0  0
   16.7050    4.7520    3.5070 C   0  0  2  0  0  0  0  0  0  0  0  0
   16.0410    5.5230    4.6050 C   0  0  0  0  0  0  0  0  0  0  0  0
   14.7130    5.6620    4.9270 C   0  0  0  0  0  0  0  0  0  0  0  0
   14.6310    6.4730    6.0160 O   0  0  0  0  0  0  0  0  0  0  0  0
   15.9310    6.8090    6.3180 C   0  0  0  0  0  0  0  0  0  0  0  0
   16.2850    7.6970    7.3880 C   0  0  0  0  0  0  0  0  0  0  0  0
   16.4990    7.3670    8.7150 C   0  0  0  0  0  0  0  0  0  0  0  0
   16.8220    8.5070    9.5140 C   0  0  0  0  0  0  0  0  0  0  0  0
   16.8300    9.6500    8.7600 C   0  0  0  0  0  0  0  0  0  0  0  0
   17.1500   11.2430    9.3120 Cl  0  0  0  0  0  0  0  0  0  0  0  0
   16.4730    9.3850    7.1290 S   0  0  0  0  0  0  0  0  0  0  0  0
   16.8060    6.2420    5.4960 N   0  0  0  0  0  0  0  0  0  0  0  0
   15.8060    4.7770    2.2710 N   0  0  1  0  0  0  0  0  0  0  0  0
   16.4830    4.8370    0.9210 C   0  0  0  0  0  0  0  0  0  0  0  0
   16.1800    3.4940    0.2830 C   0  0  0  0  0  0  0  0  0  0  0  0
   14.8250    3.1210    0.8580 C   0  0  0  0  0  0  0  0  0  0  0  0
   14.9170    3.5330    2.3210 C   0  0  1  0  0  0  0  0  0  0  0  0
   16.2080    2.6876   11.7382 H   0  0  0  0  0  0  0  0  0  0  0  0
   16.2071    1.5860   10.3194 H   0  0  0  0  0  0  0  0  0  0  0  0
   17.2484    3.0498   10.3194 H   0  0  0  0  0  0  0  0  0  0  0  0
   13.5935    2.5103   11.1902 H   0  0  0  0  0  0  0  0  0  0  0  0
   13.0344    3.2224    9.6387 H   0  0  0  0  0  0  0  0  0  0  0  0
   13.9567    1.6810    9.6387 H   0  0  0  0  0  0  0  0  0  0  0  0
   15.0188    4.5019   11.9042 H   0  0  0  0  0  0  0  0  0  0  0  0
   15.8102    5.4274   10.5836 H   0  0  0  0  0  0  0  0  0  0  0  0
   14.0273    5.2086   10.5836 H   0  0  0  0  0  0  0  0  0  0  0  0
   15.3662    4.9289    8.4737 H   0  0  0  0  0  0  0  0  0  0  0  0
   16.4711    3.4731    8.3422 H   0  0  0  0  0  0  0  0  0  0  0  0
   13.6082    2.8533    8.0278 H   0  0  0  0  0  0  0  0  0  0  0  0
   14.2810    3.9376    6.7556 H   0  0  0  0  0  0  0  0  0  0  0  0
   16.0866    1.7062    7.4760 H   0  0  0  0  0  0  0  0  0  0  0  0
   14.4844    1.1781    6.7997 H   0  0  0  0  0  0  0  0  0  0  0  0
   15.9044    1.6736    2.5726 H   0  0  0  0  0  0  0  0  0  0  0  0
   17.8618    2.9821    3.3355 H   0  0  0  0  0  0  0  0  0  0  0  0
   17.6881    5.2339    3.4012 H   0  0  0  0  0  0  0  0  0  0  0  0
   13.8664    5.1997    4.3983 H   0  0  0  0  0  0  0  0  0  0  0  0
   16.4284    6.3428    9.1101 H   0  0  0  0  0  0  0  0  0  0  0  0
   17.0360    8.4710   10.5924 H   0  0  0  0  0  0  0  0  0  0  0  0
   15.1880    5.6010    2.3580 H   0  0  0  0  0  0  0  0  0  0  0  0
   16.0701    5.6571    0.3152 H   0  0  0  0  0  0  0  0  0  0  0  0
   17.5635    5.0263    1.0033 H   0  0  0  0  0  0  0  0  0  0  0  0
   16.1307    3.5821   -0.8124 H   0  0  0  0  0  0  0  0  0  0  0  0
   16.9534    2.7395    0.4892 H   0  0  0  0  0  0  0  0  0  0  0  0
   14.0197    3.6696    0.3476 H   0  0  0  0  0  0  0  0  0  0  0  0
   14.5928    2.0530    0.7337 H   0  0  0  0  0  0  0  0  0  0  0  0
   13.9034    3.6374    2.7354 H   0  0  0  0  0  0  0  0  0  0  0  0
  1  2  1  0
  2  3  1  0
  2  4  1  0
  2  5  1  0
  5  6  1  0
  6  7  1  0
  7  8  1  0
  8  9  1  0
  9 10  2  0
  9 11  1  0
 11 12  1  0
 12 13  1  0
 13 14  2  0
 12 15  1  0
 15 16  1  0
 16 17  2  0
 17 18  1  0
 18 19  1  0
 19 20  1  0
 20 21  2  0
 21 22  1  0
 22 23  2  0
 23 24  1  0
 23 25  1  0
 19 26  2  0
 15 27  1  0
 27 28  1  0
 28 29  1  0
 29 30  1  0
 30 31  1  0
 13  8  1  0
 26 16  1  0
 31 27  1  0
 31 11  1  0
 25 20  1  0
  1 32  1  0
  1 33  1  0
  1 34  1  0
  3 35  1  0
  3 36  1  0
  3 37  1  0
  4 38  1  0
  4 39  1  0
  4 40  1  0
  5 41  1  0
  5 42  1  0
  6 43  1  0
  6 44  1  0
  7 45  1  0
  7 46  1  0
 11 47  1  6
 12 48  1  6
 15 49  1  6
 17 50  1  0
 21 51  1  0
 22 52  1  0
 27 53  1  1
 28 54  1  0
 28 55  1  0
 29 56  1  0
 29 57  1  0
 30 58  1  0
 30 59  1  0
 31 60  1  1
M  CHG  2   2   1  27   1
M  END
>  <meeko>  (2) 
{"is_sidechain": [false], "free_energy": -5.989, "intermolecular_energy": -8.124, "internal_energy": -1.179}

$$$$
2y5h_ligand
     RDKit          3D

 60 64  0  0  0  0  0  0  0  0999 V2000
   16.7980    9.2880    3.7950 C   0  0  0  0  0  0  0  0  0  0  0  0
   15.9700    8.0360    3.5260 N   0  0  0  0  0  0  0  0  0  0  0  0
   14.8480    8.3660    2.5440 C   0  0  0  0  0  0  0  0  0  0  0  0
   16.8890    7.0010    2.8550 C   0  0  0  0  0  0  0  0  0  0  0  0
   15.4300    7.4110    4.8240 C   0  0  0  0  0  0  0  0  0  0  0  0
   16.1160    6.1020    5.2220 C   0  0  0  0  0  0  0  0  0  0  0  0
   16.9960    6.3190    6.4590 C   0  0  0  0  0  0  0  0  0  0  0  0
   16.8830    5.2270    7.4160 N   0  0  0  0  0  0  0  0  0  0  0  0
   16.0200    5.2470    8.4740 C   0  0  0  0  0  0  0  0  0  0  0  0
   15.2750    6.1590    8.7910 O   0  0  0  0  0  0  0  0  0  0  0  0
   16.1680    3.9640    9.2400 C   0  0  2  0  0  0  0  0  0  0  0  0
   16.9800    3.0710    8.3120 C   0  0  2  0  0  0  0  0  0  0  0  0
   17.5040    4.0190    7.2730 C   0  0  0  0  0  0  0  0  0  0  0  0
   18.3090    3.7040    6.4130 O   0  0  0  0  0  0  0  0  0  0  0  0
   16.0270    2.0190    7.7520 C   0  0  2  0  0  0  0  0  0  0  0  0
   15.3760    2.3670    6.4500 C   0  0  0  0  0  0  0  0  0  0  0  0
   14.1400    2.9000    6.1800 C   0  0  0  0  0  0  0  0  0  0  0  0
   14.0260    3.0250    4.8300 O   0  0  0  0  0  0  0  0  0  0  0  0
   15.2120    2.5500    4.3190 C   0  0  0  0  0  0  0  0  0  0  0  0
   15.4850    2.4660    2.9130 C   0  0  0  0  0  0  0  0  0  0  0  0
   16.1290    1.4390    2.2450 C   0  0  0  0  0  0  0  0  0  0  0  0
   16.2440    1.6900    0.8420 C   0  0  0  0  0  0  0  0  0  0  0  0
   15.6910    2.8990    0.5120 C   0  0  0  0  0  0  0  0  0  0  0  0
   15.6230    3.6060   -1.0500 Cl  0  0  0  0  0  0  0  0  0  0  0  0
   15.0350    3.7240    1.8340 S   0  0  0  0  0  0  0  0  0  0  0  0
   16.0540    2.1590    5.2680 N   0  0  0  0  0  0  0  0  0  0  0  0
   14.9500    1.9150    8.8310 N   0  0  1  0  0  0  0  0  0  0  0  0
   15.1410    0.8680    9.9040 C   0  0  0  0  0  0  0  0  0  0  0  0
   15.3820    1.6630   11.1740 C   0  0  0  0  0  0  0  0  0  0  0  0
   14.5830    2.9350   10.9600 C   0  0  0  0  0  0  0  0  0  0  0  0
   14.8310    3.2870    9.4980 C   0  0  1  0  0  0  0  0  0  0  0  0
   16.8962    9.4364    4.8805 H   0  0  0  0  0  0  0  0  0  0  0  0
   17.7967    9.1699    3.3493 H   0  0  0  0  0  0  0  0  0  0  0  0
   16.2984   10.1608    3.3493 H   0  0  0  0  0  0  0  0  0  0  0  0
   13.9388    8.6334    3.1025 H   0  0  0  0  0  0  0  0  0  0  0  0
   15.1519    9.2128    1.9111 H   0  0  0  0  0  0  0  0  0  0  0  0
   14.6451    7.4895    1.9111 H   0  0  0  0  0  0  0  0  0  0  0  0
   17.4084    6.4160    3.6283 H   0  0  0  0  0  0  0  0  0  0  0  0
   16.2863    6.3271    2.2284 H   0  0  0  0  0  0  0  0  0  0  0  0
   17.6295    7.5198    2.2284 H   0  0  0  0  0  0  0  0  0  0  0  0
   15.5693    8.1355    5.6399 H   0  0  0  0  0  0  0  0  0  0  0  0
   14.3717    7.1714    4.6433 H   0  0  0  0  0  0  0  0  0  0  0  0
   15.3506    5.3453    5.4490 H   0  0  0  0  0  0  0  0  0  0  0  0
   16.7472    5.7601    4.3885 H   0  0  0  0  0  0  0  0  0  0  0  0
   18.0447    6.4003    6.1372 H   0  0  0  0  0  0  0  0  0  0  0  0
   16.6561    7.2392    6.9567 H   0  0  0  0  0  0  0  0  0  0  0  0
   16.6276    4.1474   10.2224 H   0  0  0  0  0  0  0  0  0  0  0  0
   17.8147    2.5253    8.7761 H   0  0  0  0  0  0  0  0  0  0  0  0
   16.5839    1.0961    7.5324 H   0  0  0  0  0  0  0  0  0  0  0  0
   13.3775    3.1768    6.9229 H   0  0  0  0  0  0  0  0  0  0  0  0
   16.5094    0.5321    2.7378 H   0  0  0  0  0  0  0  0  0  0  0  0
   16.7143    1.0032    0.1229 H   0  0  0  0  0  0  0  0  0  0  0  0
   14.0530    1.7270    8.3530 H   0  0  0  0  0  0  0  0  0  0  0  0
   14.2411    0.2430   10.0017 H   0  0  0  0  0  0  0  0  0  0  0  0
   15.9710    0.1830    9.6762 H   0  0  0  0  0  0  0  0  0  0  0  0
   15.0175    1.1145   12.0551 H   0  0  0  0  0  0  0  0  0  0  0  0
   16.4489    1.8562   11.3596 H   0  0  0  0  0  0  0  0  0  0  0  0
   13.5127    2.7596   11.1435 H   0  0  0  0  0  0  0  0  0  0  0  0
   14.8815    3.7419   11.6454 H   0  0  0  0  0  0  0  0  0  0  0  0
   14.0405    3.9661    9.1460 H   0  0  0  0  0  0  0  0  0  0  0  0
  1  2  1  0
  2  3  1  0
  2  4  1  0
  2  5  1  0
  5  6  1  0
  6  7  1  0
  7  8  1  0
  8  9  1  0
  9 10  2  0
  9 11  1  0
 11 12  1  0
 12 13  1  0
 13 14  2  0
 12 15  1  0
 15 16  1  0
 16 17  2  0
 17 18  1  0
 18 19  1  0
 19 20  1  0
 20 21  2  0
 21 22  1  0
 22 23  2  0
 23 24  1  0
 23 25  1  0
 19 26  2  0
 15 27  1  0
 27 28  1  0
 28 29  1  0
 29 30  1  0
 30 31  1  0
 13  8  1  0
 26 16  1  0
 31 27  1  0
 31 11  1  0
 25 20  1  0
  1 32  1  0
  1 33  1  0
  1 34  1  0
  3 35  1  0
  3 36  1  0
  3 37  1  0
  4 38  1  0
  4 39  1  0
  4 40  1  0
  5 41  1  0
  5 42  1  0
  6 43  1  0
  6 44  1  0
  7 45  1  0
  7 46  1  0
 11 47  1  1
 12 48  1  1
 15 49  1  6
 17 50  1  0
 21 51  1  0
 22 52  1  0
 27 53  1  6
 28 54  1  0
 28 55  1  0
 29 56  1  0
 29 57  1  0
 30 58  1  0
 30 59  1  0
 31 60  1  6
M  CHG  2   2   1  27   1
M  END
>  <meeko>  (3) 
{"is_sidechain": [false], "free_energy": -5.912, "intermolecular_energy": -8.308, "internal_energy": -0.891}

$$$$
2y5h_ligand
     RDKit          3D

 60 64  0  0  0  0  0  0  0  0999 V2000
   15.4760    2.9960    0.3220 C   0  0  0  0  0  0  0  0  0  0  0  0
   15.6500    3.0070    1.8370 N   0  0  0  0  0  0  0  0  0  0  0  0
   16.0740    1.6200    2.3140 C   0  0  0  0  0  0  0  0  0  0  0  0
   16.7900    3.9850    2.1700 C   0  0  0  0  0  0  0  0  0  0  0  0
   14.3840    3.5000    2.5600 C   0  0  0  0  0  0  0  0  0  0  0  0
   13.8760    2.5510    3.6490 C   0  0  0  0  0  0  0  0  0  0  0  0
   13.7490    3.2960    4.9840 C   0  0  0  0  0  0  0  0  0  0  0  0
   14.9410    4.0710    5.2990 N   0  0  0  0  0  0  0  0  0  0  0  0
   14.9660    5.4370    5.2970 C   0  0  0  0  0  0  0  0  0  0  0  0
   14.0470    6.1830    5.0050 O   0  0  0  0  0  0  0  0  0  0  0  0
   16.3470    5.8930    5.6700 C   0  0  2  0  0  0  0  0  0  0  0  0
   17.0210    4.6360    6.2020 C   0  0  2  0  0  0  0  0  0  0  0  0
   16.1010    3.5300    5.7730 C   0  0  0  0  0  0  0  0  0  0  0  0
   16.3600    2.3450    5.9040 O   0  0  0  0  0  0  0  0  0  0  0  0
   17.1270    4.7880    7.7160 C   0  0  2  0  0  0  0  0  0  0  0  0
   15.9890    4.2160    8.5020 C   0  0  0  0  0  0  0  0  0  0  0  0
   14.7340    4.7140    8.7550 C   0  0  0  0  0  0  0  0  0  0  0  0
   14.0730    3.8080    9.5250 O   0  0  0  0  0  0  0  0  0  0  0  0
   14.9650    2.7790    9.7210 C   0  0  0  0  0  0  0  0  0  0  0  0
   14.6730    1.6280   10.5270 C   0  0  0  0  0  0  0  0  0  0  0  0
   13.4440    1.2620   11.0500 C   0  0  0  0  0  0  0  0  0  0  0  0
   13.5170    0.0610   11.8220 C   0  0  0  0  0  0  0  0  0  0  0  0
   14.7980   -0.4240   11.8560 C   0  0  0  0  0  0  0  0  0  0  0  0
   15.3430   -1.8280   12.6780 Cl  0  0  0  0  0  0  0  0  0  0  0  0
   15.8990    0.5160   10.9840 S   0  0  0  0  0  0  0  0  0  0  0  0
   16.1230    2.9860    9.1070 N   0  0  0  0  0  0  0  0  0  0  0  0
   17.1520    6.3030    7.9130 N   0  0  1  0  0  0  0  0  0  0  0  0
   18.5050    6.9750    7.9610 C   0  0  0  0  0  0  0  0  0  0  0  0
   18.5600    7.8150    6.7000 C   0  0  0  0  0  0  0  0  0  0  0  0
   17.1110    8.2000    6.4610 C   0  0  0  0  0  0  0  0  0  0  0  0
   16.3330    6.9300    6.7820 C   0  0  1  0  0  0  0  0  0  0  0  0
   14.4059    2.9284    0.0763 H   0  0  0  0  0  0  0  0  0  0  0  0
   15.8916    3.9222   -0.1015 H   0  0  0  0  0  0  0  0  0  0  0  0
   16.0049    2.1295   -0.1015 H   0  0  0  0  0  0  0  0  0  0  0  0
   16.0811    1.5968    3.4137 H   0  0  0  0  0  0  0  0  0  0  0  0
   15.3643    0.8694    1.9360 H   0  0  0  0  0  0  0  0  0  0  0  0
   17.0821    1.3945    1.9360 H   0  0  0  0  0  0  0  0  0  0  0  0
   16.8913    4.0719    3.2619 H   0  0  0  0  0  0  0  0  0  0  0  0
   17.7317    3.6095    1.7431 H   0  0  0  0  0  0  0  0  0  0  0  0
   16.5621    4.9728    1.7431 H   0  0  0  0  0  0  0  0  0  0  0  0
   14.6081    4.4712    3.0253 H   0  0  0  0  0  0  0  0  0  0  0  0
   13.5905    3.5653    1.8010 H   0  0  0  0  0  0  0  0  0  0  0  0
   12.8911    2.1574    3.3574 H   0  0  0  0  0  0  0  0  0  0  0  0
   14.5914    1.7237    3.7663 H   0  0  0  0  0  0  0  0  0  0  0  0
   12.8879    3.9782    4.9281 H   0  0  0  0  0  0  0  0  0  0  0  0
   13.6156    2.5456    5.7772 H   0  0  0  0  0  0  0  0  0  0  0  0
   16.8503    6.3561    4.8085 H   0  0  0  0  0  0  0  0  0  0  0  0
   18.0389    4.4413    5.8331 H   0  0  0  0  0  0  0  0  0  0  0  0
   18.0061    4.2372    8.0818 H   0  0  0  0  0  0  0  0  0  0  0  0
   14.3345    5.6748    8.3983 H   0  0  0  0  0  0  0  0  0  0  0  0
   12.5164    1.8311   10.8895 H   0  0  0  0  0  0  0  0  0  0  0  0
   12.6586   -0.4111   12.3223 H   0  0  0  0  0  0  0  0  0  0  0  0
   16.6600    6.5060    8.7990 H   0  0  0  0  0  0  0  0  0  0  0  0
   18.5915    7.6103    8.8548 H   0  0  0  0  0  0  0  0  0  0  0  0
   19.3296    6.2490    8.0148 H   0  0  0  0  0  0  0  0  0  0  0  0
   19.1836    8.7085    6.8507 H   0  0  0  0  0  0  0  0  0  0  0  0
   19.0045    7.2781    5.8490 H   0  0  0  0  0  0  0  0  0  0  0  0
   16.8100    9.0217    7.1275 H   0  0  0  0  0  0  0  0  0  0  0  0
   16.9321    8.5579    5.4363 H   0  0  0  0  0  0  0  0  0  0  0  0
   15.2827    7.1869    6.9842 H   0  0  0  0  0  0  0  0  0  0  0  0
  1  2  1  0
  2  3  1  0
  2  4  1  0
  2  5  1  0
  5  6  1  0
  6  7  1  0
  7  8  1  0
  8  9  1  0
  9 10  2  0
  9 11  1  0
 11 12  1  0
 12 13  1  0
 13 14  2  0
 12 15  1  0
 15 16  1  0
 16 17  2  0
 17 18  1  0
 18 19  1  0
 19 20  1  0
 20 21  2  0
 21 22  1  0
 22 23  2  0
 23 24  1  0
 23 25  1  0
 19 26  2  0
 15 27  1  0
 27 28  1  0
 28 29  1  0
 29 30  1  0
 30 31  1  0
 13  8  1  0
 26 16  1  0
 31 27  1  0
 31 11  1  0
 25 20  1  0
  1 32  1  0
  1 33  1  0
  1 34  1  0
  3 35  1  0
  3 36  1  0
  3 37  1  0
  4 38  1  0
  4 39  1  0
  4 40  1  0
  5 41  1  0
  5 42  1  0
  6 43  1  0
  6 44  1  0
  7 45  1  0
  7 46  1  0
 11 47  1  6
 12 48  1  6
 15 49  1  1
 17 50  1  0
 21 51  1  0
 22 52  1  0
 27 53  1  1
 28 54  1  0
 28 55  1  0
 29 56  1  0
 29 57  1  0
 30 58  1  0
 30 59  1  0
 31 60  1  1
M  CHG  2   2   1  27   1
M  END
>  <meeko>  (4) 
{"is_sidechain": [false], "free_energy": -5.839, "intermolecular_energy": -8.129, "internal_energy": -0.973}

$$$$
2y5h_ligand
     RDKit          3D

 60 64  0  0  0  0  0  0  0  0999 V2000
   19.0200    6.0300   -1.0500 C   0  0  0  0  0  0  0  0  0  0  0  0
   17.5220    6.0450   -0.7670 N   0  0  0  0  0  0  0  0  0  0  0  0
   17.2070    7.1250    0.2660 C   0  0  0  0  0  0  0  0  0  0  0  0
   16.8010    6.4210   -2.0720 C   0  0  0  0  0  0  0  0  0  0  0  0
   17.0040    4.6640   -0.3270 C   0  0  0  0  0  0  0  0  0  0  0  0
   16.6590    4.5690    1.1620 C   0  0  0  0  0  0  0  0  0  0  0  0
   15.3780    3.7480    1.3580 C   0  0  0  0  0  0  0  0  0  0  0  0
   14.9720    3.6850    2.7550 N   0  0  0  0  0  0  0  0  0  0  0  0
   15.3590    2.6850    3.6010 C   0  0  0  0  0  0  0  0  0  0  0  0
   16.0390    1.7130    3.3190 O   0  0  0  0  0  0  0  0  0  0  0  0
   14.7610    2.9420    4.9540 C   0  0  2  0  0  0  0  0  0  0  0  0
   14.2550    4.3750    4.8690 C   0  0  2  0  0  0  0  0  0  0  0  0
   14.2990    4.6830    3.4010 C   0  0  0  0  0  0  0  0  0  0  0  0
   13.8500    5.7040    2.9090 O   0  0  0  0  0  0  0  0  0  0  0  0
   15.2010    5.2370    5.7000 C   0  0  2  0  0  0  0  0  0  0  0  0
   16.3410    5.8520    4.9480 C   0  0  0  0  0  0  0  0  0  0  0  0
   16.4680    7.0900    4.3690 C   0  0  0  0  0  0  0  0  0  0  0  0
   17.7040    7.1620    3.8050 O   0  0  0  0  0  0  0  0  0  0  0  0
   18.2910    5.9440    4.0610 C   0  0  0  0  0  0  0  0  0  0  0  0
   19.6010    5.5890    3.5930 C   0  0  0  0  0  0  0  0  0  0  0  0
   20.1920    5.9610    2.3980 C   0  0  0  0  0  0  0  0  0  0  0  0
   21.5040    5.4130    2.2470 C   0  0  0  0  0  0  0  0  0  0  0  0
   21.8440    4.6450    3.3290 C   0  0  0  0  0  0  0  0  0  0  0  0
   23.3120    3.7870    3.5610 Cl  0  0  0  0  0  0  0  0  0  0  0  0
   20.6390    4.5760    4.5130 S   0  0  0  0  0  0  0  0  0  0  0  0
   17.5030    5.1360    4.7600 N   0  0  0  0  0  0  0  0  0  0  0  0
   15.7600    4.2510    6.7250 N   0  0  1  0  0  0  0  0  0  0  0  0
   15.0370    4.1400    8.0480 C   0  0  0  0  0  0  0  0  0  0  0  0
   14.4360    2.7470    8.0380 C   0  0  0  0  0  0  0  0  0  0  0  0
   15.4170    1.9370    7.2100 C   0  0  0  0  0  0  0  0  0  0  0  0
   15.7950    2.8700    6.0660 C   0  0  1  0  0  0  0  0  0  0  0  0
   19.5728    6.0245   -0.0990 H   0  0  0  0  0  0  0  0  0  0  0  0
   19.2750    5.1293   -1.6276 H   0  0  0  0  0  0  0  0  0  0  0  0
   19.2930    6.9255   -1.6276 H   0  0  0  0  0  0  0  0  0  0  0  0
   17.3278    6.7109    1.2779 H   0  0  0  0  0  0  0  0  0  0  0  0
   17.8954    7.9724    0.1320 H   0  0  0  0  0  0  0  0  0  0  0  0
   16.1710    7.4695    0.1320 H   0  0  0  0  0  0  0  0  0  0  0  0
   15.8486    6.9177   -1.8347 H   0  0  0  0  0  0  0  0  0  0  0  0
   17.4346    7.1035   -2.6574 H   0  0  0  0  0  0  0  0  0  0  0  0
   16.6040    5.5108   -2.6574 H   0  0  0  0  0  0  0  0  0  0  0  0
   16.0976    4.4347   -0.9066 H   0  0  0  0  0  0  0  0  0  0  0  0
   17.8186    3.9477   -0.5094 H   0  0  0  0  0  0  0  0  0  0  0  0
   17.4879    4.0821    1.6966 H   0  0  0  0  0  0  0  0  0  0  0  0
   16.4998    5.5825    1.5588 H   0  0  0  0  0  0  0  0  0  0  0  0
   14.5683    4.2106    0.7745 H   0  0  0  0  0  0  0  0  0  0  0  0
   15.5804    2.7213    1.0191 H   0  0  0  0  0  0  0  0  0  0  0  0
   13.9890    2.1939    5.1873 H   0  0  0  0  0  0  0  0  0  0  0  0
   13.2418    4.5518    5.2590 H   0  0  0  0  0  0  0  0  0  0  0  0
   14.6535    6.1004    6.1060 H   0  0  0  0  0  0  0  0  0  0  0  0
   15.7058    7.8831    4.3622 H   0  0  0  0  0  0  0  0  0  0  0  0
   19.7074    6.6051    1.6495 H   0  0  0  0  0  0  0  0  0  0  0  0
   22.1544    5.5854    1.3768 H   0  0  0  0  0  0  0  0  0  0  0  0
   16.7380    4.5260    6.9150 H   0  0  0  0  0  0  0  0  0  0  0  0
   15.7404    4.2538    8.8860 H   0  0  0  0  0  0  0  0  0  0  0  0
   14.2748    4.9230    8.1746 H   0  0  0  0  0  0  0  0  0  0  0  0
   14.3597    2.3455    9.0593 H   0  0  0  0  0  0  0  0  0  0  0  0
   13.4150    2.7265    7.6293 H   0  0  0  0  0  0  0  0  0  0  0  0
   16.3027    1.6695    7.8049 H   0  0  0  0  0  0  0  0  0  0  0  0
   14.9888    0.9873    6.8569 H   0  0  0  0  0  0  0  0  0  0  0  0
   16.7419    2.5341    5.6182 H   0  0  0  0  0  0  0  0  0  0  0  0
  1  2  1  0
  2  3  1  0
  2  4  1  0
  2  5  1  0
  5  6  1  0
  6  7  1  0
  7  8  1  0
  8  9  1  0
  9 10  2  0
  9 11  1  0
 11 12  1  0
 12 13  1  0
 13 14  2  0
 12 15  1  0
 15 16  1  0
 16 17  2  0
 17 18  1  0
 18 19  1  0
 19 20  1  0
 20 21  2  0
 21 22  1  0
 22 23  2  0
 23 24  1  0
 23 25  1  0
 19 26  2  0
 15 27  1  0
 27 28  1  0
 28 29  1  0
 29 30  1  0
 30 31  1  0
 13  8  1  0
 26 16  1  0
 31 27  1  0
 31 11  1  0
 25 20  1  0
  1 32  1  0
  1 33  1  0
  1 34  1  0
  3 35  1  0
  3 36  1  0
  3 37  1  0
  4 38  1  0
  4 39  1  0
  4 40  1  0
  5 41  1  0
  5 42  1  0
  6 43  1  0
  6 44  1  0
  7 45  1  0
  7 46  1  0
 11 47  1  1
 12 48  1  1
 15 49  1  1
 17 50  1  0
 21 51  1  0
 22 52  1  0
 27 53  1  1
 28 54  1  0
 28 55  1  0
 29 56  1  0
 29 57  1  0
 30 58  1  0
 30 59  1  0
 31 60  1  6
M  CHG  2   2   1  27   1
M  END
>  <meeko>  (5) 
{"is_sidechain": [false], "free_energy": -5.809, "intermolecular_energy": -7.892, "internal_energy": -1.169}

$$$$
2y5h_ligand
     RDKit          3D

 60 64  0  0  0  0  0  0  0  0999 V2000
   15.6400    6.3740   10.2020 C   0  0  0  0  0  0  0  0  0  0  0  0
   16.6940    6.2480    9.1070 N   0  0  0  0  0  0  0  0  0  0  0  0
   17.7210    7.3690    9.2530 C   0  0  0  0  0  0  0  0  0  0  0  0
   17.4280    4.9120    9.3130 C   0  0  0  0  0  0  0  0  0  0  0  0
   16.0660    6.2260    7.7020 C   0  0  0  0  0  0  0  0  0  0  0  0
   17.0510    6.5360    6.5710 C   0  0  0  0  0  0  0  0  0  0  0  0
   16.3730    7.3990    5.5000 C   0  0  0  0  0  0  0  0  0  0  0  0
   15.9760    6.6220    4.3340 N   0  0  0  0  0  0  0  0  0  0  0  0
   16.8300    6.3160    3.3140 C   0  0  0  0  0  0  0  0  0  0  0  0
   17.9930    6.6660    3.2070 O   0  0  0  0  0  0  0  0  0  0  0  0
   16.0870    5.5060    2.2910 C   0  0  2  0  0  0  0  0  0  0  0  0
   14.7990    5.1070    2.9990 C   0  0  2  0  0  0  0  0  0  0  0  0
   14.7700    5.9930    4.2100 C   0  0  0  0  0  0  0  0  0  0  0  0
   13.8220    6.0640    4.9740 O   0  0  0  0  0  0  0  0  0  0  0  0
   14.9100    3.6230    3.3330 C   0  0  2  0  0  0  0  0  0  0  0  0
   15.4650    3.3060    4.6860 C   0  0  0  0  0  0  0  0  0  0  0  0
   16.7630    3.1720    5.1140 C   0  0  0  0  0  0  0  0  0  0  0  0
   16.7350    2.8770    6.4420 O   0  0  0  0  0  0  0  0  0  0  0  0
   15.4020    2.8360    6.7770 C   0  0  0  0  0  0  0  0  0  0  0  0
   14.9330    2.5100    8.0940 C   0  0  0  0  0  0  0  0  0  0  0  0
   14.0220    3.2190    8.8580 C   0  0  0  0  0  0  0  0  0  0  0  0
   13.7940    2.6150   10.1330 C   0  0  0  0  0  0  0  0  0  0  0  0
   14.5470    1.4800   10.2810 C   0  0  0  0  0  0  0  0  0  0  0  0
   14.5990    0.4530   11.6550 Cl  0  0  0  0  0  0  0  0  0  0  0  0
   15.5040    1.1240    8.9330 S   0  0  0  0  0  0  0  0  0  0  0  0
   14.6100    3.1040    5.7470 N   0  0  0  0  0  0  0  0  0  0  0  0
   15.8720    3.0970    2.2680 N   0  0  1  0  0  0  0  0  0  0  0  0
   15.2680    2.5510    0.9950 C   0  0  0  0  0  0  0  0  0  0  0  0
   15.6860    3.5380   -0.0790 C   0  0  0  0  0  0  0  0  0  0  0  0
   17.0260    4.0550    0.4090 C   0  0  0  0  0  0  0  0  0  0  0  0
   16.8300    4.2350    1.9090 C   0  0  1  0  0  0  0  0  0  0  0  0
   16.1260    6.3159   11.1871 H   0  0  0  0  0  0  0  0  0  0  0  0
   15.1235    7.3403   10.1043 H   0  0  0  0  0  0  0  0  0  0  0  0
   14.9103    5.5567   10.1043 H   0  0  0  0  0  0  0  0  0  0  0  0
   17.9006    7.5650   10.3204 H   0  0  0  0  0  0  0  0  0  0  0  0
   18.6633    7.0680    8.7719 H   0  0  0  0  0  0  0  0  0  0  0  0
   17.3388    8.2814    8.7719 H   0  0  0  0  0  0  0  0  0  0  0  0
   17.5361    4.7153   10.3899 H   0  0  0  0  0  0  0  0  0  0  0  0
   16.8492    4.1002    8.8482 H   0  0  0  0  0  0  0  0  0  0  0  0
   18.4236    4.9651    8.8482 H   0  0  0  0  0  0  0  0  0  0  0  0
   15.6443    5.2251    7.5279 H   0  0  0  0  0  0  0  0  0  0  0  0
   15.3029    7.0181    7.6836 H   0  0  0  0  0  0  0  0  0  0  0  0
   17.9158    7.0784    6.9808 H   0  0  0  0  0  0  0  0  0  0  0  0
   17.3820    5.5916    6.1144 H   0  0  0  0  0  0  0  0  0  0  0  0
   15.4772    7.8652    5.9362 H   0  0  0  0  0  0  0  0  0  0  0  0
   17.0989    8.1561    5.1687 H   0  0  0  0  0  0  0  0  0  0  0  0
   15.9447    6.0832    1.3655 H   0  0  0  0  0  0  0  0  0  0  0  0
   13.8717    5.2314    2.4205 H   0  0  0  0  0  0  0  0  0  0  0  0
   13.9068    3.1719    3.3455 H   0  0  0  0  0  0  0  0  0  0  0  0
   17.6646    3.2833    4.4938 H   0  0  0  0  0  0  0  0  0  0  0  0
   13.5292    4.1431    8.5216 H   0  0  0  0  0  0  0  0  0  0  0  0
   13.1052    3.0092   10.8947 H   0  0  0  0  0  0  0  0  0  0  0  0
   16.4340    2.3480    2.7050 H   0  0  0  0  0  0  0  0  0  0  0  0
   15.6634    1.5481    0.7763 H   0  0  0  0  0  0  0  0  0  0  0  0
   14.1752    2.4453    1.0629 H   0  0  0  0  0  0  0  0  0  0  0  0
   15.7899    3.0372   -1.0529 H   0  0  0  0  0  0  0  0  0  0  0  0
   14.9491    4.3405   -0.2303 H   0  0  0  0  0  0  0  0  0  0  0  0
   17.8240    3.3262    0.2040 H   0  0  0  0  0  0  0  0  0  0  0  0
   17.3275    4.9865   -0.0925 H   0  0  0  0  0  0  0  0  0  0  0  0
   17.8112    4.2611    2.4055 H   0  0  0  0  0  0  0  0  0  0  0  0
  1  2  1  0
  2  3  1  0
  2  4  1  0
  2  5  1  0
  5  6  1  0
  6  7  1  0
  7  8  1  0
  8  9  1  0
  9 10  2  0
  9 11  1  0
 11 12  1  0
 12 13  1  0
 13 14  2  0
 12 15  1  0
 15 16  1  0
 16 17  2  0
 17 18  1  0
 18 19  1  0
 19 20  1  0
 20 21  2  0
 21 22  1  0
 22 23  2  0
 23 24  1  0
 23 25  1  0
 19 26  2  0
 15 27  1  0
 27 28  1  0
 28 29  1  0
 29 30  1  0
 30 31  1  0
 13  8  1  0
 26 16  1  0
 31 27  1  0
 31 11  1  0
 25 20  1  0
  1 32  1  0
  1 33  1  0
  1 34  1  0
  3 35  1  0
  3 36  1  0
  3 37  1  0
  4 38  1  0
  4 39  1  0
  4 40  1  0
  5 41  1  0
  5 42  1  0
  6 43  1  0
  6 44  1  0
  7 45  1  0
  7 46  1  0
 11 47  1  6
 12 48  1  6
 15 49  1  6
 17 50  1  0
 21 51  1  0
 22 52  1  0
 27 53  1  1
 28 54  1  0
 28 55  1  0
 29 56  1  0
 29 57  1  0
 30 58  1  0
 30 59  1  0
 31 60  1  1
M  CHG  2   2   1  27   1
M  END
>  <meeko>  (6) 
{"is_sidechain": [false], "free_energy": -5.734, "intermolecular_energy": -7.572, "internal_energy": -1.387}

$$$$
2y5h_ligand
     RDKit          3D

 60 64  0  0  0  0  0  0  0  0999 V2000
   13.5580    1.3540   10.7480 C   0  0  0  0  0  0  0  0  0  0  0  0
   14.8190    2.0620   10.2660 N   0  0  0  0  0  0  0  0  0  0  0  0
   15.8170    2.1730   11.4160 C   0  0  0  0  0  0  0  0  0  0  0  0
   15.4590    1.1890    9.1730 C   0  0  0  0  0  0  0  0  0  0  0  0
   14.5070    3.4350    9.6440 C   0  0  0  0  0  0  0  0  0  0  0  0
   15.7090    4.1060    8.9730 C   0  0  0  0  0  0  0  0  0  0  0  0
   15.2870    4.7430    7.6430 C   0  0  0  0  0  0  0  0  0  0  0  0
   15.7220    3.9610    6.4940 N   0  0  0  0  0  0  0  0  0  0  0  0
   14.9680    2.9670    5.9380 C   0  0  0  0  0  0  0  0  0  0  0  0
   13.8830    2.5700    6.3270 O   0  0  0  0  0  0  0  0  0  0  0  0
   15.7210    2.3840    4.7770 C   0  0  2  0  0  0  0  0  0  0  0  0
   16.8480    3.3770    4.5310 C   0  0  2  0  0  0  0  0  0  0  0  0
   16.8420    4.2360    5.7630 C   0  0  0  0  0  0  0  0  0  0  0  0
   17.6880    5.0800    6.0040 O   0  0  0  0  0  0  0  0  0  0  0  0
   16.5060    4.1400    3.2560 C   0  0  2  0  0  0  0  0  0  0  0  0
   15.7510    5.4180    3.4510 C   0  0  0  0  0  0  0  0  0  0  0  0
   14.4110    5.6460    3.6500 C   0  0  0  0  0  0  0  0  0  0  0  0
   14.2310    6.9890    3.7720 O   0  0  0  0  0  0  0  0  0  0  0  0
   15.4850    7.5380    3.6330 C   0  0  0  0  0  0  0  0  0  0  0  0
   15.7300    8.9520    3.6550 C   0  0  0  0  0  0  0  0  0  0  0  0
   15.6510    9.8320    2.5890 C   0  0  0  0  0  0  0  0  0  0  0  0
   15.9770   11.1720    2.9650 C   0  0  0  0  0  0  0  0  0  0  0  0
   16.2960   11.2460    4.2950 C   0  0  0  0  0  0  0  0  0  0  0  0
   16.7640   12.6500    5.1630 Cl  0  0  0  0  0  0  0  0  0  0  0  0
   16.2040    9.7590    5.0950 S   0  0  0  0  0  0  0  0  0  0  0  0
   16.4250    6.6190    3.4540 N   0  0  0  0  0  0  0  0  0  0  0  0
   15.6240    3.1570    2.4880 N   0  0  1  0  0  0  0  0  0  0  0  0
   16.3050    2.2350    1.5040 C   0  0  0  0  0  0  0  0  0  0  0  0
   16.1550    0.8520    2.1100 C   0  0  0  0  0  0  0  0  0  0  0  0
   14.8430    0.9320    2.8680 C   0  0  0  0  0  0  0  0  0  0  0  0
   14.8730    2.3090    3.5170 C   0  0  1  0  0  0  0  0  0  0  0  0
   13.5406    1.3442   11.8478 H   0  0  0  0  0  0  0  0  0  0  0  0
   12.6720    1.8866   10.3720 H   0  0  0  0  0  0  0  0  0  0  0  0
   13.5514    0.3203   10.3720 H   0  0  0  0  0  0  0  0  0  0  0  0
   15.2803    2.1133   12.3743 H   0  0  0  0  0  0  0  0  0  0  0  0
   16.5442    1.3502   11.3511 H   0  0  0  0  0  0  0  0  0  0  0  0
   16.3456    3.1355   11.3511 H   0  0  0  0  0  0  0  0  0  0  0  0
   16.0472    0.3866    9.6423 H   0  0  0  0  0  0  0  0  0  0  0  0
   14.6694    0.7470    8.5476 H   0  0  0  0  0  0  0  0  0  0  0  0
   16.1181    1.8091    8.5476 H   0  0  0  0  0  0  0  0  0  0  0  0
   13.7198    3.3005    8.8875 H   0  0  0  0  0  0  0  0  0  0  0  0
   14.1962    4.0932   10.4687 H   0  0  0  0  0  0  0  0  0  0  0  0
   16.1081    4.8856    9.6386 H   0  0  0  0  0  0  0  0  0  0  0  0
   16.4808    3.3468    8.7780 H   0  0  0  0  0  0  0  0  0  0  0  0
   14.1902    4.8236    7.6215 H   0  0  0  0  0  0  0  0  0  0  0  0
   15.7634    5.7323    7.5771 H   0  0  0  0  0  0  0  0  0  0  0  0
   16.0506    1.3588    5.0015 H   0  0  0  0  0  0  0  0  0  0  0  0
   17.8478    2.9436    4.3806 H   0  0  0  0  0  0  0  0  0  0  0  0
   17.4333    4.4539    2.7544 H   0  0  0  0  0  0  0  0  0  0  0  0
   13.6239    4.8794    3.7015 H   0  0  0  0  0  0  0  0  0  0  0  0
   15.3693    9.5337    1.5684 H   0  0  0  0  0  0  0  0  0  0  0  0
   15.9723   12.0304    2.2771 H   0  0  0  0  0  0  0  0  0  0  0  0
   14.9190    3.7120    1.9740 H   0  0  0  0  0  0  0  0  0  0  0  0
   15.8132    2.2840    0.5213 H   0  0  0  0  0  0  0  0  0  0  0  0
   17.3580    2.5061    1.3377 H   0  0  0  0  0  0  0  0  0  0  0  0
   16.1083    0.0827    1.3251 H   0  0  0  0  0  0  0  0  0  0  0  0
   17.0029    0.5742    2.7534 H   0  0  0  0  0  0  0  0  0  0  0  0
   13.9888    0.8427    2.1807 H   0  0  0  0  0  0  0  0  0  0  0  0
   14.7295    0.1212    3.6027 H   0  0  0  0  0  0  0  0  0  0  0  0
   13.8492    2.6085    3.7858 H   0  0  0  0  0  0  0  0  0  0  0  0
  1  2  1  0
  2  3  1  0
  2  4  1  0
  2  5  1  0
  5  6  1  0
  6  7  1  0
  7  8  1  0
  8  9  1  0
  9 10  2  0
  9 11  1  0
 11 12  1  0
 12 13  1  0
 13 14  2  0
 12 15  1  0
 15 16  1  0
 16 17  2  0
 17 18  1  0
 18 19  1  0
 19 20  1  0
 20 21  2  0
 21 22  1  0
 22 23  2  0
 23 24  1  0
 23 25  1  0
 19 26  2  0
 15 27  1  0
 27 28  1  0
 28 29  1  0
 29 30  1  0
 30 31  1  0
 13  8  1  0
 26 16  1  0
 31 27  1  0
 31 11  1  0
 25 20  1  0
  1 32  1  0
  1 33  1  0
  1 34  1  0
  3 35  1  0
  3 36  1  0
  3 37  1  0
  4 38  1  0
  4 39  1  0
  4 40  1  0
  5 41  1  0
  5 42  1  0
  6 43  1  0
  6 44  1  0
  7 45  1  0
  7 46  1  0
 11 47  1  1
 12 48  1  6
 15 49  1  6
 17 50  1  0
 21 51  1  0
 22 52  1  0
 27 53  1  6
 28 54  1  0
 28 55  1  0
 29 56  1  0
 29 57  1  0
 30 58  1  0
 30 59  1  0
 31 60  1  1
M  CHG  2   2   1  27   1
M  END
>  <meeko>  (7) 
{"is_sidechain": [false], "free_energy": -5.691, "intermolecular_energy": -8.036, "internal_energy": -0.864}

$$$$
2y5h_ligand
     RDKit          3D

 60 64  0  0  0  0  0  0  0  0999 V2000
   16.1030    6.5940    3.7330 C   0  0  0  0  0  0  0  0  0  0  0  0
   15.6180    7.0050    5.1190 N   0  0  0  0  0  0  0  0  0  0  0  0
   15.8690    8.4970    5.3290 C   0  0  0  0  0  0  0  0  0  0  0  0
   14.0980    6.7750    5.1720 C   0  0  0  0  0  0  0  0  0  0  0  0
   16.2590    6.1550    6.2300 C   0  0  0  0  0  0  0  0  0  0  0  0
   15.4380    6.0890    7.5210 C   0  0  0  0  0  0  0  0  0  0  0  0
   16.3580    6.2160    8.7410 C   0  0  0  0  0  0  0  0  0  0  0  0
   16.5990    4.9330    9.3870 N   0  0  0  0  0  0  0  0  0  0  0  0
   15.9120    4.5100   10.4890 C   0  0  0  0  0  0  0  0  0  0  0  0
   15.0590    5.1310   11.1000 O   0  0  0  0  0  0  0  0  0  0  0  0
   16.4160    3.1500   10.8770 C   0  0  2  0  0  0  0  0  0  0  0  0
   17.2420    2.7050    9.6780 C   0  0  2  0  0  0  0  0  0  0  0  0
   17.4150    3.9630    8.8770 C   0  0  0  0  0  0  0  0  0  0  0  0
   18.1320    4.0470    7.8950 O   0  0  0  0  0  0  0  0  0  0  0  0
   16.4400    1.6280    8.9540 C   0  0  2  0  0  0  0  0  0  0  0  0
   15.5510    2.1170    7.8530 C   0  0  0  0  0  0  0  0  0  0  0  0
   14.2580    2.5780    7.8830 C   0  0  0  0  0  0  0  0  0  0  0  0
   13.9010    2.9010    6.6100 O   0  0  0  0  0  0  0  0  0  0  0  0
   15.0040    2.6140    5.8390 C   0  0  0  0  0  0  0  0  0  0  0  0
   15.0300    2.7720    4.4130 C   0  0  0  0  0  0  0  0  0  0  0  0
   14.1170    3.4570    3.6300 C   0  0  0  0  0  0  0  0  0  0  0  0
   14.4410    3.3990    2.2390 C   0  0  0  0  0  0  0  0  0  0  0  0
   15.5800    2.6670    2.0300 C   0  0  0  0  0  0  0  0  0  0  0  0
   16.3200    2.3270    0.5200 Cl  0  0  0  0  0  0  0  0  0  0  0  0
   16.2650    2.0630    3.4530 S   0  0  0  0  0  0  0  0  0  0  0  0
   16.0210    2.1530    6.5580 N   0  0  0  0  0  0  0  0  0  0  0  0
   15.5720    1.0350   10.0630 N   0  0  1  0  0  0  0  0  0  0  0  0
   16.1160   -0.1640   10.8040 C   0  0  0  0  0  0  0  0  0  0  0  0
   16.3820    0.3430   12.2090 C   0  0  0  0  0  0  0  0  0  0  0  0
   15.3280    1.4180   12.4080 C   0  0  0  0  0  0  0  0  0  0  0  0
   15.2880    2.1500   11.0730 C   0  0  1  0  0  0  0  0  0  0  0  0
   16.9388    5.8857    3.8321 H   0  0  0  0  0  0  0  0  0  0  0  0
   15.2794    6.1147    3.1835 H   0  0  0  0  0  0  0  0  0  0  0  0
   16.4407    7.4851    3.1835 H   0  0  0  0  0  0  0  0  0  0  0  0
   15.9056    8.7145    6.4067 H   0  0  0  0  0  0  0  0  0  0  0  0
   16.8268    8.7765    4.8658 H   0  0  0  0  0  0  0  0  0  0  0  0
   15.0554    9.0745    4.8658 H   0  0  0  0  0  0  0  0  0  0  0  0
   13.7710    6.7255    6.2211 H   0  0  0  0  0  0  0  0  0  0  0  0
   13.5836    7.6055    4.6664 H   0  0  0  0  0  0  0  0  0  0  0  0
   13.8524    5.8295    4.6664 H   0  0  0  0  0  0  0  0  0  0  0  0
   16.3878    5.1307    5.8501 H   0  0  0  0  0  0  0  0  0  0  0  0
   17.2139    6.6371    6.4864 H   0  0  0  0  0  0  0  0  0  0  0  0
   14.7077    6.9115    7.5295 H   0  0  0  0  0  0  0  0  0  0  0  0
   14.9154    5.1221    7.5648 H   0  0  0  0  0  0  0  0  0  0  0  0
   17.3217    6.6348    8.4154 H   0  0  0  0  0  0  0  0  0  0  0  0
   15.8610    6.8723    9.4706 H   0  0  0  0  0  0  0  0  0  0  0  0
   16.9700    3.1959   11.8262 H   0  0  0  0  0  0  0  0  0  0  0  0
   18.2252    2.2673    9.9055 H   0  0  0  0  0  0  0  0  0  0  0  0
   17.1274    0.9315    8.4515 H   0  0  0  0  0  0  0  0  0  0  0  0
   13.6235    2.6699    8.7769 H   0  0  0  0  0  0  0  0  0  0  0  0
   13.2409    3.9863    4.0328 H   0  0  0  0  0  0  0  0  0  0  0  0
   13.8537    3.8785    1.4421 H   0  0  0  0  0  0  0  0  0  0  0  0
   14.6690    0.7680    9.6370 H   0  0  0  0  0  0  0  0  0  0  0  0
   15.3777   -0.9793   10.8186 H   0  0  0  0  0  0  0  0  0  0  0  0
   17.0205   -0.5725   10.3296 H   0  0  0  0  0  0  0  0  0  0  0  0
   16.2633   -0.4644   12.9466 H   0  0  0  0  0  0  0  0  0  0  0  0
   17.4068    0.7208   12.3395 H   0  0  0  0  0  0  0  0  0  0  0  0
   14.3503    0.9688   12.6366 H   0  0  0  0  0  0  0  0  0  0  0  0
   15.5606    2.0869   13.2497 H   0  0  0  0  0  0  0  0  0  0  0  0
   14.3386    2.6985   10.9855 H   0  0  0  0  0  0  0  0  0  0  0  0
  1  2  1  0
  2  3  1  0
  2  4  1  0
  2  5  1  0
  5  6  1  0
  6  7  1  0
  7  8  1  0
  8  9  1  0
  9 10  2  0
  9 11  1  0
 11 12  1  0
 12 13  1  0
 13 14  2  0
 12 15  1  0
 15 16  1  0
 16 17  2  0
 17 18  1  0
 18 19  1  0
 19 20  1  0
 20 21  2  0
 21 22  1  0
 22 23  2  0
 23 24  1  0
 23 25  1  0
 19 26  2  0
 15 27  1  0
 27 28  1  0
 28 29  1  0
 29 30  1  0
 30 31  1  0
 13  8  1  0
 26 16  1  0
 31 27  1  0
 31 11  1  0
 25 20  1  0
  1 32  1  0
  1 33  1  0
  1 34  1  0
  3 35  1  0
  3 36  1  0
  3 37  1  0
  4 38  1  0
  4 39  1  0
  4 40  1  0
  5 41  1  0
  5 42  1  0
  6 43  1  0
  6 44  1  0
  7 45  1  0
  7 46  1  0
 11 47  1  1
 12 48  1  1
 15 49  1  6
 17 50  1  0
 21 51  1  0
 22 52  1  0
 27 53  1  6
 28 54  1  0
 28 55  1  0
 29 56  1  0
 29 57  1  0
 30 58  1  0
 30 59  1  0
 31 60  1  6
M  CHG  2   2   1  27   1
M  END
>  <meeko>  (8) 
{"is_sidechain": [false], "free_energy": -5.645, "intermolecular_energy": -7.64, "internal_energy": -1.199}

$$$$
2y5h_ligand
     RDKit          3D

 60 64  0  0  0  0  0  0  0  0999 V2000
   15.7810   11.3750    3.5950 C   0  0  0  0  0  0  0  0  0  0  0  0
   16.1900    9.9070    3.6570 N   0  0  0  0  0  0  0  0  0  0  0  0
   15.3460    9.0980    2.6740 C   0  0  0  0  0  0  0  0  0  0  0  0
   17.6570    9.8090    3.2040 C   0  0  0  0  0  0  0  0  0  0  0  0
   16.1030    9.3440    5.0860 C   0  0  0  0  0  0  0  0  0  0  0  0
   17.3460    8.5690    5.5310 C   0  0  0  0  0  0  0  0  0  0  0  0
   16.9720    7.1230    5.8830 C   0  0  0  0  0  0  0  0  0  0  0  0
   16.3910    6.4120    4.7520 N   0  0  0  0  0  0  0  0  0  0  0  0
   17.1250    5.9770    3.6860 C   0  0  0  0  0  0  0  0  0  0  0  0
   18.3190    6.1450    3.5050 O   0  0  0  0  0  0  0  0  0  0  0  0
   16.2070    5.2860    2.7200 C   0  0  2  0  0  0  0  0  0  0  0  0
   14.9190    5.0900    3.5080 C   0  0  2  0  0  0  0  0  0  0  0  0
   15.0980    5.9740    4.7090 C   0  0  0  0  0  0  0  0  0  0  0  0
   14.2210    6.1900    5.5270 O   0  0  0  0  0  0  0  0  0  0  0  0
   14.8230    3.6080    3.8530 C   0  0  2  0  0  0  0  0  0  0  0  0
   15.4050    3.2140    5.1740 C   0  0  0  0  0  0  0  0  0  0  0  0
   16.7100    3.0200    5.5570 C   0  0  0  0  0  0  0  0  0  0  0  0
   16.7100    2.6680    6.8720 O   0  0  0  0  0  0  0  0  0  0  0  0
   15.3860    2.6540    7.2440 C   0  0  0  0  0  0  0  0  0  0  0  0
   14.9440    2.2850    8.5590 C   0  0  0  0  0  0  0  0  0  0  0  0
   13.9660    2.9050    9.3180 C   0  0  0  0  0  0  0  0  0  0  0  0
   13.7910    2.2820   10.5930 C   0  0  0  0  0  0  0  0  0  0  0  0
   14.6470    1.2240   10.7450 C   0  0  0  0  0  0  0  0  0  0  0  0
   14.7900    0.2070   12.1200 Cl  0  0  0  0  0  0  0  0  0  0  0  0
   15.6400    0.9600    9.4020 S   0  0  0  0  0  0  0  0  0  0  0  0
   14.5750    2.9920    6.2500 N   0  0  0  0  0  0  0  0  0  0  0  0
   15.6270    2.9390    2.7390 N   0  0  1  0  0  0  0  0  0  0  0  0
   14.8710    2.4870    1.5110 C   0  0  0  0  0  0  0  0  0  0  0  0
   15.3670    3.3960    0.4020 C   0  0  0  0  0  0  0  0  0  0  0  0
   16.7980    3.7040    0.8030 C   0  0  0  0  0  0  0  0  0  0  0  0
   16.7240    3.9160    2.3100 C   0  0  1  0  0  0  0  0  0  0  0  0
   15.6714   11.7685    4.6163 H   0  0  0  0  0  0  0  0  0  0  0  0
   16.5535   11.9487    3.0620 H   0  0  0  0  0  0  0  0  0  0  0  0
   14.8231   11.4666    3.0620 H   0  0  0  0  0  0  0  0  0  0  0  0
   14.6616    8.4420    3.2318 H   0  0  0  0  0  0  0  0  0  0  0  0
   14.7628    9.7831    2.0411 H   0  0  0  0  0  0  0  0  0  0  0  0
   16.0058    8.4863    2.0411 H   0  0  0  0  0  0  0  0  0  0  0  0
   18.3113    9.7653    4.0872 H   0  0  0  0  0  0  0  0  0  0  0  0
   17.7944    8.8997    2.6005 H   0  0  0  0  0  0  0  0  0  0  0  0
   17.9142   10.6920    2.6005 H   0  0  0  0  0  0  0  0  0  0  0  0
   15.9537   10.1846    5.7796 H   0  0  0  0  0  0  0  0  0  0  0  0
   15.2655    8.6309    5.0948 H   0  0  0  0  0  0  0  0  0  0  0  0
   18.0832    8.5650    4.7146 H   0  0  0  0  0  0  0  0  0  0  0  0
   17.7727    9.0557    6.4204 H   0  0  0  0  0  0  0  0  0  0  0  0
   17.8791    6.5917    6.2069 H   0  0  0  0  0  0  0  0  0  0  0  0
   16.2184    7.1554    6.6837 H   0  0  0  0  0  0  0  0  0  0  0  0
   16.0977    5.8752    1.7975 H   0  0  0  0  0  0  0  0  0  0  0  0
   13.9884    5.3528    2.9836 H   0  0  0  0  0  0  0  0  0  0  0  0
   13.7656    3.3151    3.9314 H   0  0  0  0  0  0  0  0  0  0  0  0
   17.5968    3.1296    4.9155 H   0  0  0  0  0  0  0  0  0  0  0  0
   13.3890    3.7779    8.9786 H   0  0  0  0  0  0  0  0  0  0  0  0
   13.0647    2.6093   11.3516 H   0  0  0  0  0  0  0  0  0  0  0  0
   16.0950    2.1130    3.1500 H   0  0  0  0  0  0  0  0  0  0  0  0
   15.0963    1.4351    1.2812 H   0  0  0  0  0  0  0  0  0  0  0  0
   13.7810    2.5483    1.6453 H   0  0  0  0  0  0  0  0  0  0  0  0
   15.3338    2.8827   -0.5703 H   0  0  0  0  0  0  0  0  0  0  0  0
   14.7526    4.3009    0.2854 H   0  0  0  0  0  0  0  0  0  0  0  0
   17.4618    2.8614    0.5593 H   0  0  0  0  0  0  0  0  0  0  0  0
   17.2063    4.5773    0.2733 H   0  0  0  0  0  0  0  0  0  0  0  0
   17.7262    3.7933    2.7465 H   0  0  0  0  0  0  0  0  0  0  0  0
  1  2  1  0
  2  3  1  0
  2  4  1  0
  2  5  1  0
  5  6  1  0
  6  7  1  0
  7  8  1  0
  8  9  1  0
  9 10  2  0
  9 11  1  0
 11 12  1  0
 12 13  1  0
 13 14  2  0
 12 15  1  0
 15 16  1  0
 16 17  2  0
 17 18  1  0
 18 19  1  0
 19 20  1  0
 20 21  2  0
 21 22  1  0
 22 23  2  0
 23 24  1  0
 23 25  1  0
 19 26  2  0
 15 27  1  0
 27 28  1  0
 28 29  1  0
 29 30  1  0
 30 31  1  0
 13  8  1  0
 26 16  1  0
 31 27  1  0
 31 11  1  0
 25 20  1  0
  1 32  1  0
  1 33  1  0
  1 34  1  0
  3 35  1  0
  3 36  1  0
  3 37  1  0
  4 38  1  0
  4 39  1  0
  4 40  1  0
  5 41  1  0
  5 42  1  0
  6 43  1  0
  6 44  1  0
  7 45  1  0
  7 46  1  0
 11 47  1  6
 12 48  1  6
 15 49  1  1
 17 50  1  0
 21 51  1  0
 22 52  1  0
 27 53  1  1
 28 54  1  0
 28 55  1  0
 29 56  1  0
 29 57  1  0
 30 58  1  0
 30 59  1  0
 31 60  1  1
M  CHG  2   2   1  27   1
M  END
>  <meeko>  (9) 
{"is_sidechain": [false], "free_energy": -5.5, "intermolecular_energy": -7.635, "internal_energy": -1.008}

$$$$
