
     RDKit          3D

 21 22  0  0  0  0  0  0  0  0999 V2000
   -3.3360   24.4850   -3.8370 C   0  0  0  0  0  0  0  0  0  0  0  0
   -2.0040   23.9820   -3.4990 N   0  0  0  0  0  0  0  0  0  0  0  0
   -0.9090   24.7550   -3.6220 C   0  0  0  0  0  0  0  0  0  0  0  0
   -0.9710   25.9000   -4.0060 O   0  0  0  0  0  0  0  0  0  0  0  0
    0.4310   24.1410   -3.2860 C   0  0  2  0  0  0  0  0  0  0  0  0
    1.4460   25.1840   -3.0400 N   0  0  0  0  0  0  0  0  0  0  0  0
    0.8160   23.2680   -4.4890 C   0  0  0  0  0  0  0  0  0  0  0  0
    1.3700   21.9170   -4.1590 C   0  0  0  0  0  0  0  0  0  0  0  0
    1.0260   21.1980   -3.0060 C   0  0  0  0  0  0  0  0  0  0  0  0
    1.5390   19.9060   -2.7940 C   0  0  0  0  0  0  0  0  0  0  0  0
    2.3830   19.3330   -3.7290 C   0  0  0  0  0  0  0  0  0  0  0  0
    2.8370   18.0290   -3.5380 O   0  0  0  0  0  0  0  0  0  0  0  0
    2.9610   17.1880   -4.7060 C   0  0  0  0  0  0  0  0  0  0  0  0
    3.3600   15.7730   -4.3930 C   0  0  0  0  0  0  0  0  0  0  0  0
    4.1440   15.0560   -5.3180 C   0  0  0  0  0  0  0  0  0  0  0  0
    4.5320   13.7380   -5.0320 C   0  0  0  0  0  0  0  0  0  0  0  0
    4.1350   13.1230   -3.8380 C   0  0  0  0  0  0  0  0  0  0  0  0
    3.3630   13.8330   -2.9270 C   0  0  0  0  0  0  0  0  0  0  0  0
    2.9780   15.1440   -3.2100 C   0  0  0  0  0  0  0  0  0  0  0  0
    2.7390   20.0400   -4.8510 C   0  0  0  0  0  0  0  0  0  0  0  0
    2.2480   21.3370   -5.0610 C   0  0  0  0  0  0  0  0  0  0  0  0
  2  1  1  0
  3  2  1  0
  4  3  2  0
  5  3  1  0
  5  6  1  6
  7  5  1  0
  8  7  1  0
  9  8  2  0
 10  9  1  0
 11 10  2  0
 12 11  1  0
 13 12  1  0
 14 13  1  0
 15 14  2  0
 16 15  1  0
 17 16  2  0
 18 17  1  0
 19 18  2  0
 19 14  1  0
 20 11  1  0
 21 20  2  0
 21  8  1  0
M  CHG  1   6   1
M  END
$$$$
