3qqs_ligand
     RDKit          3D

 28 29  0  0  0  0  0  0  0  0999 V2000
   -2.9670   -0.4470   -4.0470 O   0  0  0  0  0  0  0  0  0  0  0  0
   -3.1730   -0.3970   -5.3040 C   0  0  0  0  0  0  0  0  0  0  0  0
   -3.1060   -1.4000   -6.0920 O   0  0  0  0  0  0  0  0  0  0  0  0
   -3.5530    0.9440   -5.9050 C   0  0  0  0  0  0  0  0  0  0  0  0
   -4.2490    1.8720   -5.0960 C   0  0  0  0  0  0  0  0  0  0  0  0
   -4.6010    3.1370   -5.5670 C   0  0  0  0  0  0  0  0  0  0  0  0
   -4.2670    3.5040   -6.8620 C   0  0  0  0  0  0  0  0  0  0  0  0
   -3.5830    2.6060   -7.6830 C   0  0  0  0  0  0  0  0  0  0  0  0
   -3.2160    1.3270   -7.2270 C   0  0  0  0  0  0  0  0  0  0  0  0
   -2.5470    0.4330   -8.1320 N   0  0  0  0  0  0  0  0  0  0  0  0
   -1.3820    0.8350   -8.8540 C   0  0  0  0  0  0  0  0  0  0  0  0
   -1.5450    1.1430  -10.2220 C   0  0  0  0  0  0  0  0  0  0  0  0
   -0.4580    1.4640  -11.0370 C   0  0  0  0  0  0  0  0  0  0  0  0
    0.8230    1.4700  -10.5030 C   0  0  0  0  0  0  0  0  0  0  0  0
    1.0070    1.1590   -9.1560 C   0  0  0  0  0  0  0  0  0  0  0  0
   -0.0830    0.8410   -8.3130 C   0  0  0  0  0  0  0  0  0  0  0  0
    0.2440    0.5510   -6.8750 C   0  0  0  0  0  0  0  0  0  0  0  0
    1.0340   -0.4290   -6.6600 O   0  0  0  0  0  0  0  0  0  0  0  0
   -0.1650    1.3740   -5.9940 O   0  0  0  0  0  0  0  0  0  0  0  0
   -4.5199    1.5888   -4.0682 H   0  0  0  0  0  0  0  0  0  0  0  0
   -5.1405    3.8395   -4.9148 H   0  0  0  0  0  0  0  0  0  0  0  0
   -4.5403    4.4998   -7.2410 H   0  0  0  0  0  0  0  0  0  0  0  0
   -3.3252    2.9053   -8.7096 H   0  0  0  0  0  0  0  0  0  0  0  0
   -2.2780   -0.3810   -7.5420 H   0  0  0  0  0  0  0  0  0  0  0  0
   -2.5551    1.1297  -10.6572 H   0  0  0  0  0  0  0  0  0  0  0  0
   -0.6160    1.7110  -12.0972 H   0  0  0  0  0  0  0  0  0  0  0  0
    1.6867    1.7182  -11.1374 H   0  0  0  0  0  0  0  0  0  0  0  0
    2.0249    1.1611   -8.7391 H   0  0  0  0  0  0  0  0  0  0  0  0
  1  2  2  0
  2  3  1  0
  2  4  1  0
  4  5  2  0
  5  6  1  0
  6  7  2  0
  7  8  1  0
  8  9  2  0
  9 10  1  0
 10 11  1  0
 11 12  2  0
 12 13  1  0
 13 14  2  0
 14 15  1  0
 15 16  2  0
 16 17  1  0
 17 18  2  0
 17 19  1  0
  9  4  1  0
 16 11  1  0
  5 20  1  0
  6 21  1  0
  7 22  1  0
  8 23  1  0
 10 24  1  0
 12 25  1  0
 13 26  1  0
 14 27  1  0
 15 28  1  0
M  CHG  2   3  -1  19  -1
M  END
>  <meeko>  (1) 
{"is_sidechain": [false], "free_energy": -7.162, "intermolecular_energy": -8.836, "internal_energy": -0.995}

$$$$
3qqs_ligand
     RDKit          3D

 28 29  0  0  0  0  0  0  0  0999 V2000
    1.0050   -0.3720   -6.5930 O   0  0  0  0  0  0  0  0  0  0  0  0
    0.3090    0.6730   -6.8190 C   0  0  0  0  0  0  0  0  0  0  0  0
   -0.1400    1.4560   -5.9160 O   0  0  0  0  0  0  0  0  0  0  0  0
    0.0150    1.0260   -8.2660 C   0  0  0  0  0  0  0  0  0  0  0  0
    1.0630    1.5480   -9.0590 C   0  0  0  0  0  0  0  0  0  0  0  0
    0.8780    1.8640  -10.4050 C   0  0  0  0  0  0  0  0  0  0  0  0
   -0.3640    1.6670  -10.9920 C   0  0  0  0  0  0  0  0  0  0  0  0
   -1.4170    1.1570  -10.2310 C   0  0  0  0  0  0  0  0  0  0  0  0
   -1.2510    0.8290   -8.8720 C   0  0  0  0  0  0  0  0  0  0  0  0
   -2.3830    0.3440   -8.1330 N   0  0  0  0  0  0  0  0  0  0  0  0
   -3.1690    1.2130   -7.3160 C   0  0  0  0  0  0  0  0  0  0  0  0
   -3.5380    2.4590   -7.8680 C   0  0  0  0  0  0  0  0  0  0  0  0
   -4.2330    3.4150   -7.1250 C   0  0  0  0  0  0  0  0  0  0  0  0
   -4.5630    3.1510   -5.8040 C   0  0  0  0  0  0  0  0  0  0  0  0
   -4.2000    1.9300   -5.2360 C   0  0  0  0  0  0  0  0  0  0  0  0
   -3.5040    0.9460   -5.9760 C   0  0  0  0  0  0  0  0  0  0  0  0
   -3.1940   -0.3380   -5.2580 C   0  0  0  0  0  0  0  0  0  0  0  0
   -3.1420   -0.2760   -3.9840 O   0  0  0  0  0  0  0  0  0  0  0  0
   -3.1470   -1.4070   -5.9460 O   0  0  0  0  0  0  0  0  0  0  0  0
    2.0506    1.7092   -8.6022 H   0  0  0  0  0  0  0  0  0  0  0  0
    1.7121    2.2672  -10.9980 H   0  0  0  0  0  0  0  0  0  0  0  0
   -0.5180    1.9119  -12.0533 H   0  0  0  0  0  0  0  0  0  0  0  0
   -2.3989    1.0079  -10.7038 H   0  0  0  0  0  0  0  0  0  0  0  0
   -3.0150   -0.0550   -8.8570 H   0  0  0  0  0  0  0  0  0  0  0  0
   -3.2707    2.6825   -8.9114 H   0  0  0  0  0  0  0  0  0  0  0  0
   -4.5175    4.3729   -7.5850 H   0  0  0  0  0  0  0  0  0  0  0  0
   -5.1070    3.8991   -5.2087 H   0  0  0  0  0  0  0  0  0  0  0  0
   -4.4614    1.7274   -4.1869 H   0  0  0  0  0  0  0  0  0  0  0  0
  1  2  2  0
  2  3  1  0
  2  4  1  0
  4  5  2  0
  5  6  1  0
  6  7  2  0
  7  8  1  0
  8  9  2  0
  9 10  1  0
 10 11  1  0
 11 12  2  0
 12 13  1  0
 13 14  2  0
 14 15  1  0
 15 16  2  0
 16 17  1  0
 17 18  2  0
 17 19  1  0
  9  4  1  0
 16 11  1  0
  5 20  1  0
  6 21  1  0
  7 22  1  0
  8 23  1  0
 10 24  1  0
 12 25  1  0
 13 26  1  0
 14 27  1  0
 15 28  1  0
M  CHG  2   3  -1  19  -1
M  END
>  <meeko>  (2) 
{"is_sidechain": [false], "free_energy": -7.144, "intermolecular_energy": -8.826, "internal_energy": -0.984}

$$$$
3qqs_ligand
     RDKit          3D

 28 29  0  0  0  0  0  0  0  0999 V2000
    0.8380   -0.3110   -6.7700 O   0  0  0  0  0  0  0  0  0  0  0  0
    0.1540   -0.3150   -7.8450 C   0  0  0  0  0  0  0  0  0  0  0  0
   -0.3910   -1.3510   -8.3560 O   0  0  0  0  0  0  0  0  0  0  0  0
   -0.0530    1.0100   -8.5560 C   0  0  0  0  0  0  0  0  0  0  0  0
    1.0810    1.6840   -9.0680 C   0  0  0  0  0  0  0  0  0  0  0  0
    0.9670    2.8890   -9.7620 C   0  0  0  0  0  0  0  0  0  0  0  0
   -0.2860    3.4510   -9.9610 C   0  0  0  0  0  0  0  0  0  0  0  0
   -1.4210    2.8080   -9.4630 C   0  0  0  0  0  0  0  0  0  0  0  0
   -1.3290    1.5910   -8.7630 C   0  0  0  0  0  0  0  0  0  0  0  0
   -2.5290    0.9980   -8.2420 N   0  0  0  0  0  0  0  0  0  0  0  0
   -3.2040    1.5490   -7.1100 C   0  0  0  0  0  0  0  0  0  0  0  0
   -3.8520    2.7910   -7.2870 C   0  0  0  0  0  0  0  0  0  0  0  0
   -4.4680    3.4560   -6.2250 C   0  0  0  0  0  0  0  0  0  0  0  0
   -4.4370    2.8980   -4.9550 C   0  0  0  0  0  0  0  0  0  0  0  0
   -3.7940    1.6760   -4.7570 C   0  0  0  0  0  0  0  0  0  0  0  0
   -3.1730    0.9850   -5.8220 C   0  0  0  0  0  0  0  0  0  0  0  0
   -2.5370   -0.3350   -5.4840 C   0  0  0  0  0  0  0  0  0  0  0  0
   -1.7850   -0.3530   -4.4520 O   0  0  0  0  0  0  0  0  0  0  0  0
   -2.8980   -1.3570   -6.1500 O   0  0  0  0  0  0  0  0  0  0  0  0
    2.0785    1.2464   -8.9148 H   0  0  0  0  0  0  0  0  0  0  0  0
    1.8659    3.3910  -10.1494 H   0  0  0  0  0  0  0  0  0  0  0  0
   -0.3848    4.3996  -10.5091 H   0  0  0  0  0  0  0  0  0  0  0  0
   -2.4097    3.2633   -9.6216 H   0  0  0  0  0  0  0  0  0  0  0  0
   -3.1970    1.0190   -9.0400 H   0  0  0  0  0  0  0  0  0  0  0  0
   -3.8720    3.2467   -8.2880 H   0  0  0  0  0  0  0  0  0  0  0  0
   -4.9752    4.4173   -6.3943 H   0  0  0  0  0  0  0  0  0  0  0  0
   -4.9159    3.4154   -4.1106 H   0  0  0  0  0  0  0  0  0  0  0  0
   -3.7697    1.2397   -3.7475 H   0  0  0  0  0  0  0  0  0  0  0  0
  1  2  2  0
  2  3  1  0
  2  4  1  0
  4  5  2  0
  5  6  1  0
  6  7  2  0
  7  8  1  0
  8  9  2  0
  9 10  1  0
 10 11  1  0
 11 12  2  0
 12 13  1  0
 13 14  2  0
 14 15  1  0
 15 16  2  0
 16 17  1  0
 17 18  2  0
 17 19  1  0
  9  4  1  0
 16 11  1  0
  5 20  1  0
  6 21  1  0
  7 22  1  0
  8 23  1  0
 10 24  1  0
 12 25  1  0
 13 26  1  0
 14 27  1  0
 15 28  1  0
M  CHG  2   3  -1  19  -1
M  END
>  <meeko>  (3) 
{"is_sidechain": [false], "free_energy": -7.052, "intermolecular_energy": -8.633, "internal_energy": -1.064}

$$$$
3qqs_ligand
     RDKit          3D

 28 29  0  0  0  0  0  0  0  0999 V2000
   -1.3330    2.5320   -7.9230 O   0  0  0  0  0  0  0  0  0  0  0  0
   -0.9190    1.5390   -7.2390 C   0  0  0  0  0  0  0  0  0  0  0  0
    0.2430    1.0200   -7.3430 O   0  0  0  0  0  0  0  0  0  0  0  0
   -1.8630    0.9480   -6.2080 C   0  0  0  0  0  0  0  0  0  0  0  0
   -2.3100   -0.3820   -6.3880 C   0  0  0  0  0  0  0  0  0  0  0  0
   -3.1510   -1.0050   -5.4650 C   0  0  0  0  0  0  0  0  0  0  0  0
   -3.5680   -0.3100   -4.3390 C   0  0  0  0  0  0  0  0  0  0  0  0
   -3.1450    1.0050   -4.1390 C   0  0  0  0  0  0  0  0  0  0  0  0
   -2.2940    1.6510   -5.0550 C   0  0  0  0  0  0  0  0  0  0  0  0
   -1.9240    3.0170   -4.8140 N   0  0  0  0  0  0  0  0  0  0  0  0
   -2.8930    4.0670   -4.8270 C   0  0  0  0  0  0  0  0  0  0  0  0
   -3.5350    4.3380   -6.0550 C   0  0  0  0  0  0  0  0  0  0  0  0
   -4.4350    5.3970   -6.1960 C   0  0  0  0  0  0  0  0  0  0  0  0
   -4.7020    6.2190   -5.1110 C   0  0  0  0  0  0  0  0  0  0  0  0
   -4.0710    5.9750   -3.8910 C   0  0  0  0  0  0  0  0  0  0  0  0
   -3.1650    4.9020   -3.7280 C   0  0  0  0  0  0  0  0  0  0  0  0
   -2.5720    4.7280   -2.3570 C   0  0  0  0  0  0  0  0  0  0  0  0
   -2.0150    5.7580   -1.8460 O   0  0  0  0  0  0  0  0  0  0  0  0
   -2.7880    3.6300   -1.7500 O   0  0  0  0  0  0  0  0  0  0  0  0
   -1.9861   -0.9398   -7.2790 H   0  0  0  0  0  0  0  0  0  0  0  0
   -3.4814   -2.0413   -5.6293 H   0  0  0  0  0  0  0  0  0  0  0  0
   -4.2301   -0.7939   -3.6059 H   0  0  0  0  0  0  0  0  0  0  0  0
   -3.4845    1.5488   -3.2451 H   0  0  0  0  0  0  0  0  0  0  0  0
   -1.4940    3.0070   -3.8660 H   0  0  0  0  0  0  0  0  0  0  0  0
   -3.3208    3.6982   -6.9238 H   0  0  0  0  0  0  0  0  0  0  0  0
   -4.9292    5.5780   -7.1619 H   0  0  0  0  0  0  0  0  0  0  0  0
   -5.4066    7.0577   -5.2119 H   0  0  0  0  0  0  0  0  0  0  0  0
   -4.2834    6.6331   -3.0355 H   0  0  0  0  0  0  0  0  0  0  0  0
  1  2  2  0
  2  3  1  0
  2  4  1  0
  4  5  2  0
  5  6  1  0
  6  7  2  0
  7  8  1  0
  8  9  2  0
  9 10  1  0
 10 11  1  0
 11 12  2  0
 12 13  1  0
 13 14  2  0
 14 15  1  0
 15 16  2  0
 16 17  1  0
 17 18  2  0
 17 19  1  0
  9  4  1  0
 16 11  1  0
  5 20  1  0
  6 21  1  0
  7 22  1  0
  8 23  1  0
 10 24  1  0
 12 25  1  0
 13 26  1  0
 14 27  1  0
 15 28  1  0
M  CHG  2   3  -1  19  -1
M  END
>  <meeko>  (4) 
{"is_sidechain": [false], "free_energy": -6.98, "intermolecular_energy": -8.397, "internal_energy": -1.21}

$$$$
3qqs_ligand
     RDKit          3D

 28 29  0  0  0  0  0  0  0  0999 V2000
   -0.0070    1.6470   -7.5690 O   0  0  0  0  0  0  0  0  0  0  0  0
   -1.1860    1.2000   -7.7570 C   0  0  0  0  0  0  0  0  0  0  0  0
   -1.7570    1.1130   -8.8960 O   0  0  0  0  0  0  0  0  0  0  0  0
   -1.9580    0.7110   -6.5450 C   0  0  0  0  0  0  0  0  0  0  0  0
   -2.4670   -0.6080   -6.5570 C   0  0  0  0  0  0  0  0  0  0  0  0
   -3.1560   -1.1400   -5.4670 C   0  0  0  0  0  0  0  0  0  0  0  0
   -3.3550   -0.3610   -4.3350 C   0  0  0  0  0  0  0  0  0  0  0  0
   -2.8660    0.9450   -4.2980 C   0  0  0  0  0  0  0  0  0  0  0  0
   -2.1650    1.5000   -5.3860 C   0  0  0  0  0  0  0  0  0  0  0  0
   -1.7200    2.8630   -5.3020 N   0  0  0  0  0  0  0  0  0  0  0  0
   -2.6370    3.9360   -5.0850 C   0  0  0  0  0  0  0  0  0  0  0  0
   -2.8260    4.3650   -3.7540 C   0  0  0  0  0  0  0  0  0  0  0  0
   -3.7610    5.3480   -3.4240 C   0  0  0  0  0  0  0  0  0  0  0  0
   -4.5420    5.9150   -4.4210 C   0  0  0  0  0  0  0  0  0  0  0  0
   -4.3780    5.4980   -5.7420 C   0  0  0  0  0  0  0  0  0  0  0  0
   -3.4300    4.5110   -6.0950 C   0  0  0  0  0  0  0  0  0  0  0  0
   -3.3320    4.1680   -7.5560 C   0  0  0  0  0  0  0  0  0  0  0  0
   -2.2330    4.4660   -8.1340 O   0  0  0  0  0  0  0  0  0  0  0  0
   -4.2760    3.4880   -8.0720 O   0  0  0  0  0  0  0  0  0  0  0  0
   -2.3155   -1.2317   -7.4503 H   0  0  0  0  0  0  0  0  0  0  0  0
   -3.5393   -2.1704   -5.5040 H   0  0  0  0  0  0  0  0  0  0  0  0
   -3.8964   -0.7723   -3.4703 H   0  0  0  0  0  0  0  0  0  0  0  0
   -3.0318    1.5555   -3.3981 H   0  0  0  0  0  0  0  0  0  0  0  0
   -1.0460    2.8680   -4.5080 H   0  0  0  0  0  0  0  0  0  0  0  0
   -2.2203    3.9127   -2.9549 H   0  0  0  0  0  0  0  0  0  0  0  0
   -3.8779    5.6713   -2.3791 H   0  0  0  0  0  0  0  0  0  0  0  0
   -5.2846    6.6872   -4.1716 H   0  0  0  0  0  0  0  0  0  0  0  0
   -5.0018    5.9484   -6.5282 H   0  0  0  0  0  0  0  0  0  0  0  0
  1  2  2  0
  2  3  1  0
  2  4  1  0
  4  5  2  0
  5  6  1  0
  6  7  2  0
  7  8  1  0
  8  9  2  0
  9 10  1  0
 10 11  1  0
 11 12  2  0
 12 13  1  0
 13 14  2  0
 14 15  1  0
 15 16  2  0
 16 17  1  0
 17 18  2  0
 17 19  1  0
  9  4  1  0
 16 11  1  0
  5 20  1  0
  6 21  1  0
  7 22  1  0
  8 23  1  0
 10 24  1  0
 12 25  1  0
 13 26  1  0
 14 27  1  0
 15 28  1  0
M  CHG  2   3  -1  19  -1
M  END
>  <meeko>  (5) 
{"is_sidechain": [false], "free_energy": -6.952, "intermolecular_energy": -8.342, "internal_energy": -1.231}

$$$$
3qqs_ligand
     RDKit          3D

 28 29  0  0  0  0  0  0  0  0999 V2000
   -2.9940    3.4630   -1.8860 O   0  0  0  0  0  0  0  0  0  0  0  0
   -2.6650    4.5540   -2.4590 C   0  0  0  0  0  0  0  0  0  0  0  0
   -1.8960    5.4380   -1.9520 O   0  0  0  0  0  0  0  0  0  0  0  0
   -3.2040    4.8090   -3.8560 C   0  0  0  0  0  0  0  0  0  0  0  0
   -4.0930    5.8910   -4.0480 C   0  0  0  0  0  0  0  0  0  0  0  0
   -4.6020    6.2080   -5.3080 C   0  0  0  0  0  0  0  0  0  0  0  0
   -4.2350    5.4470   -6.4080 C   0  0  0  0  0  0  0  0  0  0  0  0
   -3.3610    4.3700   -6.2450 C   0  0  0  0  0  0  0  0  0  0  0  0
   -2.8330    4.0360   -4.9840 C   0  0  0  0  0  0  0  0  0  0  0  0
   -1.9690    2.8940   -4.8750 N   0  0  0  0  0  0  0  0  0  0  0  0
   -2.4320    1.5760   -5.1730 C   0  0  0  0  0  0  0  0  0  0  0  0
   -3.1280    0.8900   -4.1540 C   0  0  0  0  0  0  0  0  0  0  0  0
   -3.5490   -0.4320   -4.3120 C   0  0  0  0  0  0  0  0  0  0  0  0
   -3.2680   -1.1050   -5.4920 C   0  0  0  0  0  0  0  0  0  0  0  0
   -2.5720   -0.4500   -6.5080 C   0  0  0  0  0  0  0  0  0  0  0  0
   -2.1470    0.8910   -6.3690 C   0  0  0  0  0  0  0  0  0  0  0  0
   -1.4300    1.4930   -7.5450 C   0  0  0  0  0  0  0  0  0  0  0  0
   -2.1430    1.7420   -8.5750 O   0  0  0  0  0  0  0  0  0  0  0  0
   -0.2150    1.8390   -7.3890 O   0  0  0  0  0  0  0  0  0  0  0  0
   -4.3915    6.4992   -3.1814 H   0  0  0  0  0  0  0  0  0  0  0  0
   -5.2908    7.0571   -5.4283 H   0  0  0  0  0  0  0  0  0  0  0  0
   -4.6308    5.6908   -7.4049 H   0  0  0  0  0  0  0  0  0  0  0  0
   -3.0789    3.7691   -7.1222 H   0  0  0  0  0  0  0  0  0  0  0  0
   -1.1830    3.0990   -5.5260 H   0  0  0  0  0  0  0  0  0  0  0  0
   -3.3445    1.4112   -3.2098 H   0  0  0  0  0  0  0  0  0  0  0  0
   -4.1004   -0.9370   -3.5052 H   0  0  0  0  0  0  0  0  0  0  0  0
   -3.5917   -2.1478   -5.6255 H   0  0  0  0  0  0  0  0  0  0  0  0
   -2.3485   -0.9900   -7.4399 H   0  0  0  0  0  0  0  0  0  0  0  0
  1  2  2  0
  2  3  1  0
  2  4  1  0
  4  5  2  0
  5  6  1  0
  6  7  2  0
  7  8  1  0
  8  9  2  0
  9 10  1  0
 10 11  1  0
 11 12  2  0
 12 13  1  0
 13 14  2  0
 14 15  1  0
 15 16  2  0
 16 17  1  0
 17 18  2  0
 17 19  1  0
  9  4  1  0
 16 11  1  0
  5 20  1  0
  6 21  1  0
  7 22  1  0
  8 23  1  0
 10 24  1  0
 12 25  1  0
 13 26  1  0
 14 27  1  0
 15 28  1  0
M  CHG  2   3  -1  19  -1
M  END
>  <meeko>  (6) 
{"is_sidechain": [false], "free_energy": -6.948, "intermolecular_energy": -8.376, "internal_energy": -1.192}

$$$$
3qqs_ligand
     RDKit          3D

 28 29  0  0  0  0  0  0  0  0999 V2000
   -1.4160    3.4140   -9.5770 O   0  0  0  0  0  0  0  0  0  0  0  0
   -1.7480    2.3200   -9.0120 C   0  0  0  0  0  0  0  0  0  0  0  0
   -2.9310    2.0290   -8.6300 O   0  0  0  0  0  0  0  0  0  0  0  0
   -0.6660    1.2770   -8.8020 C   0  0  0  0  0  0  0  0  0  0  0  0
   -0.2500    0.5050   -9.9120 C   0  0  0  0  0  0  0  0  0  0  0  0
    0.7630   -0.4490   -9.8040 C   0  0  0  0  0  0  0  0  0  0  0  0
    1.3850   -0.6550   -8.5810 C   0  0  0  0  0  0  0  0  0  0  0  0
    0.9910    0.0910   -7.4690 C   0  0  0  0  0  0  0  0  0  0  0  0
   -0.0260    1.0600   -7.5560 C   0  0  0  0  0  0  0  0  0  0  0  0
   -0.4130    1.7680   -6.3680 N   0  0  0  0  0  0  0  0  0  0  0  0
   -1.4400    1.2750   -5.5060 C   0  0  0  0  0  0  0  0  0  0  0  0
   -1.5070   -0.1220   -5.3150 C   0  0  0  0  0  0  0  0  0  0  0  0
   -2.5230   -0.7130   -4.5610 C   0  0  0  0  0  0  0  0  0  0  0  0
   -3.5060    0.0830   -3.9900 C   0  0  0  0  0  0  0  0  0  0  0  0
   -3.4640    1.4650   -4.1750 C   0  0  0  0  0  0  0  0  0  0  0  0
   -2.4380    2.0810   -4.9270 C   0  0  0  0  0  0  0  0  0  0  0  0
   -2.4890    3.5800   -5.0290 C   0  0  0  0  0  0  0  0  0  0  0  0
   -2.5170    4.2220   -3.9250 O   0  0  0  0  0  0  0  0  0  0  0  0
   -2.3580    4.1030   -6.1820 O   0  0  0  0  0  0  0  0  0  0  0  0
   -0.7376    0.6606  -10.8856 H   0  0  0  0  0  0  0  0  0  0  0  0
    1.0668   -1.0347  -10.6842 H   0  0  0  0  0  0  0  0  0  0  0  0
    2.1857   -1.4035   -8.4881 H   0  0  0  0  0  0  0  0  0  0  0  0
    1.4867   -0.0824   -6.5025 H   0  0  0  0  0  0  0  0  0  0  0  0
    0.4600    1.8280   -5.8050 H   0  0  0  0  0  0  0  0  0  0  0  0
   -0.7383   -0.7622   -5.7724 H   0  0  0  0  0  0  0  0  0  0  0  0
   -2.5441   -1.8038   -4.4204 H   0  0  0  0  0  0  0  0  0  0  0  0
   -4.3121   -0.3724   -3.3960 H   0  0  0  0  0  0  0  0  0  0  0  0
   -4.2486    2.0907   -3.7246 H   0  0  0  0  0  0  0  0  0  0  0  0
  1  2  2  0
  2  3  1  0
  2  4  1  0
  4  5  2  0
  5  6  1  0
  6  7  2  0
  7  8  1  0
  8  9  2  0
  9 10  1  0
 10 11  1  0
 11 12  2  0
 12 13  1  0
 13 14  2  0
 14 15  1  0
 15 16  2  0
 16 17  1  0
 17 18  2  0
 17 19  1  0
  9  4  1  0
 16 11  1  0
  5 20  1  0
  6 21  1  0
  7 22  1  0
  8 23  1  0
 10 24  1  0
 12 25  1  0
 13 26  1  0
 14 27  1  0
 15 28  1  0
M  CHG  2   3  -1  19  -1
M  END
>  <meeko>  (7) 
{"is_sidechain": [false], "free_energy": -6.933, "intermolecular_energy": -8.568, "internal_energy": -0.981}

$$$$
3qqs_ligand
     RDKit          3D

 28 29  0  0  0  0  0  0  0  0999 V2000
   -3.5790    4.1820   -6.3770 O   0  0  0  0  0  0  0  0  0  0  0  0
   -3.9860    3.0600   -6.8260 C   0  0  0  0  0  0  0  0  0  0  0  0
   -4.7560    2.9170   -7.8340 O   0  0  0  0  0  0  0  0  0  0  0  0
   -3.5000    1.8020   -6.1290 C   0  0  0  0  0  0  0  0  0  0  0  0
   -3.7530    1.6570   -4.7450 C   0  0  0  0  0  0  0  0  0  0  0  0
   -3.3670    0.5140   -4.0440 C   0  0  0  0  0  0  0  0  0  0  0  0
   -2.7160   -0.5130   -4.7120 C   0  0  0  0  0  0  0  0  0  0  0  0
   -2.4510   -0.3950   -6.0770 C   0  0  0  0  0  0  0  0  0  0  0  0
   -2.8350    0.7480   -6.8040 C   0  0  0  0  0  0  0  0  0  0  0  0
   -2.5000    0.8270   -8.1980 N   0  0  0  0  0  0  0  0  0  0  0  0
   -1.3330    1.5170   -8.6480 C   0  0  0  0  0  0  0  0  0  0  0  0
   -1.5190    2.7910   -9.2270 C   0  0  0  0  0  0  0  0  0  0  0  0
   -0.4570    3.5130   -9.7750 C   0  0  0  0  0  0  0  0  0  0  0  0
    0.8190    2.9660   -9.7690 C   0  0  0  0  0  0  0  0  0  0  0  0
    1.0230    1.7040   -9.2110 C   0  0  0  0  0  0  0  0  0  0  0  0
   -0.0390    0.9640   -8.6440 C   0  0  0  0  0  0  0  0  0  0  0  0
    0.3150   -0.3710   -8.0510 C   0  0  0  0  0  0  0  0  0  0  0  0
   -0.1930   -1.3960   -8.6190 O   0  0  0  0  0  0  0  0  0  0  0  0
    1.1950   -0.3990   -7.1310 O   0  0  0  0  0  0  0  0  0  0  0  0
   -4.2677    2.4668   -4.2070 H   0  0  0  0  0  0  0  0  0  0  0  0
   -3.5777    0.4277   -2.9678 H   0  0  0  0  0  0  0  0  0  0  0  0
   -2.4095   -1.4180   -4.1670 H   0  0  0  0  0  0  0  0  0  0  0  0
   -1.9306   -1.2131   -6.5965 H   0  0  0  0  0  0  0  0  0  0  0  0
   -2.4070   -0.1640   -8.5010 H   0  0  0  0  0  0  0  0  0  0  0  0
   -2.5287    3.2270   -9.2470 H   0  0  0  0  0  0  0  0  0  0  0  0
   -0.6302    4.5089  -10.2087 H   0  0  0  0  0  0  0  0  0  0  0  0
    1.6629    3.5237  -10.2011 H   0  0  0  0  0  0  0  0  0  0  0  0
    2.0356    1.2742   -9.2123 H   0  0  0  0  0  0  0  0  0  0  0  0
  1  2  2  0
  2  3  1  0
  2  4  1  0
  4  5  2  0
  5  6  1  0
  6  7  2  0
  7  8  1  0
  8  9  2  0
  9 10  1  0
 10 11  1  0
 11 12  2  0
 12 13  1  0
 13 14  2  0
 14 15  1  0
 15 16  2  0
 16 17  1  0
 17 18  2  0
 17 19  1  0
  9  4  1  0
 16 11  1  0
  5 20  1  0
  6 21  1  0
  7 22  1  0
  8 23  1  0
 10 24  1  0
 12 25  1  0
 13 26  1  0
 14 27  1  0
 15 28  1  0
M  CHG  2   3  -1  19  -1
M  END
>  <meeko>  (8) 
{"is_sidechain": [false], "free_energy": -6.875, "intermolecular_energy": -8.531, "internal_energy": -0.946}

$$$$
3qqs_ligand
     RDKit          3D

 28 29  0  0  0  0  0  0  0  0999 V2000
   -2.3720    4.1640   -6.1260 O   0  0  0  0  0  0  0  0  0  0  0  0
   -2.4190    3.6140   -4.9760 C   0  0  0  0  0  0  0  0  0  0  0  0
   -2.4590    4.2470   -3.8690 O   0  0  0  0  0  0  0  0  0  0  0  0
   -2.4560    2.0970   -4.9210 C   0  0  0  0  0  0  0  0  0  0  0  0
   -3.4460    1.4770   -4.1240 C   0  0  0  0  0  0  0  0  0  0  0  0
   -3.5650    0.0880   -4.0500 C   0  0  0  0  0  0  0  0  0  0  0  0
   -2.6930   -0.7140   -4.7710 C   0  0  0  0  0  0  0  0  0  0  0  0
   -1.7040   -0.1280   -5.5620 C   0  0  0  0  0  0  0  0  0  0  0  0
   -1.5680    1.2700   -5.6530 C   0  0  0  0  0  0  0  0  0  0  0  0
   -0.5070    1.8140   -6.4540 N   0  0  0  0  0  0  0  0  0  0  0  0
   -0.1110    1.2040   -7.6830 C   0  0  0  0  0  0  0  0  0  0  0  0
    0.8830    0.2030   -7.6170 C   0  0  0  0  0  0  0  0  0  0  0  0
    1.4010   -0.3960   -8.7670 C   0  0  0  0  0  0  0  0  0  0  0  0
    0.9450    0.0050  -10.0140 C   0  0  0  0  0  0  0  0  0  0  0  0
   -0.0290    0.9990  -10.1030 C   0  0  0  0  0  0  0  0  0  0  0  0
   -0.5720    1.6100   -8.9490 C   0  0  0  0  0  0  0  0  0  0  0  0
   -1.6340    2.6490   -9.1770 C   0  0  0  0  0  0  0  0  0  0  0  0
   -2.8190    2.3360   -8.8150 O   0  0  0  0  0  0  0  0  0  0  0  0
   -1.2650    3.8000   -9.5740 O   0  0  0  0  0  0  0  0  0  0  0  0
   -4.1405    2.1056   -3.5473 H   0  0  0  0  0  0  0  0  0  0  0  0
   -4.3459   -0.3677   -3.4235 H   0  0  0  0  0  0  0  0  0  0  0  0
   -2.7808   -1.8093   -4.7195 H   0  0  0  0  0  0  0  0  0  0  0  0
   -1.0152   -0.7731   -6.1271 H   0  0  0  0  0  0  0  0  0  0  0  0
   -0.8180    2.7820   -6.6770 H   0  0  0  0  0  0  0  0  0  0  0  0
    1.2593   -0.1134   -6.6330 H   0  0  0  0  0  0  0  0  0  0  0  0
    2.1665   -1.1816   -8.6845 H   0  0  0  0  0  0  0  0  0  0  0  0
    1.3489   -0.4579  -10.9265 H   0  0  0  0  0  0  0  0  0  0  0  0
   -0.3836    1.3155  -11.0950 H   0  0  0  0  0  0  0  0  0  0  0  0
  1  2  2  0
  2  3  1  0
  2  4  1  0
  4  5  2  0
  5  6  1  0
  6  7  2  0
  7  8  1  0
  8  9  2  0
  9 10  1  0
 10 11  1  0
 11 12  2  0
 12 13  1  0
 13 14  2  0
 14 15  1  0
 15 16  2  0
 16 17  1  0
 17 18  2  0
 17 19  1  0
  9  4  1  0
 16 11  1  0
  5 20  1  0
  6 21  1  0
  7 22  1  0
  8 23  1  0
 10 24  1  0
 12 25  1  0
 13 26  1  0
 14 27  1  0
 15 28  1  0
M  CHG  2   3  -1  19  -1
M  END
>  <meeko>  (9) 
{"is_sidechain": [false], "free_energy": -6.86, "intermolecular_energy": -8.464, "internal_energy": -0.995}

$$$$
