
     RDKit          3D

 22 25  0  0  0  0  0  0  0  0999 V2000
   -8.3600    0.5660    1.5180 C   0  0  0  0  0  0  0  0  0  0  0  0
   -9.7280    0.4750    0.9010 C   0  0  0  0  0  0  0  0  0  0  0  0
  -10.0280    0.9260   -0.3030 N   0  0  0  0  0  0  0  0  0  0  0  0
  -11.3410    0.6760   -0.5450 N   0  0  0  0  0  0  0  0  0  0  0  0
  -11.8390    0.0580    0.5300 C   0  0  0  0  0  0  0  0  0  0  0  0
  -10.8680   -0.0740    1.4540 N   0  0  0  0  0  0  0  0  0  0  0  0
  -11.0440   -0.6800    2.7070 C   0  0  0  0  0  0  0  0  0  0  0  0
  -10.0700   -1.5890    3.1740 C   0  0  0  0  0  0  0  0  0  0  0  0
  -10.1900   -2.2000    4.4110 C   0  0  0  0  0  0  0  0  0  0  0  0
  -11.2920   -1.9240    5.2230 C   0  0  0  0  0  0  0  0  0  0  0  0
  -11.4300   -2.7180    6.7580 Cl  0  0  0  0  0  0  0  0  0  0  0  0
  -12.2880   -1.0480    4.7780 C   0  0  0  0  0  0  0  0  0  0  0  0
  -12.1970   -0.4250    3.5220 C   0  0  0  0  0  0  0  0  0  0  0  0
  -13.2460    0.5140    3.1100 C   0  0  0  0  0  0  0  0  0  0  0  0
  -13.7590    1.4970    4.1120 C   0  0  0  0  0  0  0  0  0  0  0  0
  -12.9870    1.8740    5.2340 C   0  0  0  0  0  0  0  0  0  0  0  0
  -13.4450    2.8210    6.1320 C   0  0  0  0  0  0  0  0  0  0  0  0
  -14.6900    3.4190    5.9200 C   0  0  0  0  0  0  0  0  0  0  0  0
  -15.4530    3.0840    4.8150 C   0  0  0  0  0  0  0  0  0  0  0  0
  -14.9680    2.1320    3.9110 C   0  0  0  0  0  0  0  0  0  0  0  0
  -13.7440    0.5310    1.8780 N   0  0  0  0  0  0  0  0  0  0  0  0
  -13.2410   -0.3410    0.7950 C   0  0  0  0  0  0  0  0  0  0  0  0
  2  1  1  0
  3  2  2  0
  4  3  1  0
  5  4  2  0
  6  5  1  0
  6  2  1  0
  7  6  1  0
  8  7  2  0
  9  8  1  0
 10  9  2  0
 11 10  1  0
 12 10  1  0
 13 12  2  0
 13  7  1  0
 14 13  1  0
 15 14  1  0
 16 15  2  0
 17 16  1  0
 18 17  2  0
 19 18  1  0
 20 19  2  0
 20 15  1  0
 21 14  2  0
 22 21  1  0
 22  5  1  0
M  END
$$$$
