2p4y_ligand
     RDKit          3D

 61 65  0  0  0  0  0  0  0  0999 V2000
    0.9780   16.8970    0.6630 C   0  0  0  0  0  0  0  0  0  0  0  0
    1.2120   17.4320    1.9610 O   0  0  0  0  0  0  0  0  0  0  0  0
    2.3690   17.0500    2.5890 C   0  0  0  0  0  0  0  0  0  0  0  0
    2.3040   15.7870    3.1930 C   0  0  0  0  0  0  0  0  0  0  0  0
    3.3980   15.2410    3.8800 C   0  0  0  0  0  0  0  0  0  0  0  0
    4.5790   15.9980    3.9590 C   0  0  0  0  0  0  0  0  0  0  0  0
    5.8770   15.8740    4.5150 C   0  0  0  0  0  0  0  0  0  0  0  0
    6.3500   14.7170    5.2750 C   0  0  0  0  0  0  0  0  0  0  0  0
    6.9110   14.7030    6.5410 C   0  0  0  0  0  0  0  0  0  0  0  0
    7.2230   15.8340    7.4610 C   0  0  0  0  0  0  0  0  0  0  0  0
    7.1840   13.3760    6.8500 N   0  0  0  0  0  0  0  0  0  0  0  0
    7.7520   12.9050    8.1200 C   0  0  0  0  0  0  0  0  0  0  0  0
    9.1900   12.4490    8.0550 C   0  0  0  0  0  0  0  0  0  0  0  0
    9.4310   11.0650    8.1600 C   0  0  0  0  0  0  0  0  0  0  0  0
   10.7280   10.5560    8.1680 C   0  0  0  0  0  0  0  0  0  0  0  0
   10.9650    9.2140    8.2610 O   0  0  0  0  0  0  0  0  0  0  0  0
   11.6840    8.7040    7.1060 C   0  0  2  0  0  0  0  0  0  0  0  0
   10.8090    7.6230    6.4840 C   0  0  0  0  0  0  0  0  0  0  0  0
   13.0610    8.1160    7.5230 C   0  0  0  0  0  0  0  0  0  0  0  0
   13.3630    8.2910    8.7440 O   0  0  0  0  0  0  0  0  0  0  0  0
   13.7400    7.5490    6.6190 O   0  0  0  0  0  0  0  0  0  0  0  0
   11.8150   11.4060    8.0180 C   0  0  0  0  0  0  0  0  0  0  0  0
   11.6020   12.7810    7.9290 C   0  0  0  0  0  0  0  0  0  0  0  0
   10.3000   13.3020    7.9650 C   0  0  0  0  0  0  0  0  0  0  0  0
   10.1530   15.0230    7.9330 Cl  0  0  0  0  0  0  0  0  0  0  0  0
    6.7420   12.5530    5.8230 C   0  0  0  0  0  0  0  0  0  0  0  0
    6.7270   11.1510    5.6930 C   0  0  0  0  0  0  0  0  0  0  0  0
    6.2450   10.5730    4.5100 C   0  0  0  0  0  0  0  0  0  0  0  0
    6.2890    9.2070    4.5020 O   0  0  0  0  0  0  0  0  0  0  0  0
    7.4110    8.5830    3.9090 C   0  0  0  0  0  0  0  0  0  0  0  0
    7.0400    7.3770    3.4220 F   0  0  0  0  0  0  0  0  0  0  0  0
    8.3970    8.3800    4.8100 F   0  0  0  0  0  0  0  0  0  0  0  0
    7.8940    9.3140    2.8790 F   0  0  0  0  0  0  0  0  0  0  0  0
    5.7780   11.3860    3.4810 C   0  0  0  0  0  0  0  0  0  0  0  0
    5.7770   12.7800    3.6210 C   0  0  0  0  0  0  0  0  0  0  0  0
    6.2590   13.3780    4.8050 C   0  0  0  0  0  0  0  0  0  0  0  0
    6.6460   16.9350    4.2390 N   0  0  0  0  0  0  0  0  0  0  0  0
    5.8400   17.7970    3.5120 O   0  0  0  0  0  0  0  0  0  0  0  0
    4.6110   17.2370    3.3430 C   0  0  0  0  0  0  0  0  0  0  0  0
    3.5420   17.8090    2.6530 C   0  0  0  0  0  0  0  0  0  0  0  0
    0.5387   15.8926    0.7541 H   0  0  0  0  0  0  0  0  0  0  0  0
    0.2843   17.5524    0.1159 H   0  0  0  0  0  0  0  0  0  0  0  0
    1.9301   16.8325    0.1159 H   0  0  0  0  0  0  0  0  0  0  0  0
    1.3706   15.2089    3.1265 H   0  0  0  0  0  0  0  0  0  0  0  0
    3.3331   14.2461    4.3448 H   0  0  0  0  0  0  0  0  0  0  0  0
    7.1295   15.4952    8.5034 H   0  0  0  0  0  0  0  0  0  0  0  0
    8.2506   16.1818    7.2792 H   0  0  0  0  0  0  0  0  0  0  0  0
    6.5190   16.6594    7.2792 H   0  0  0  0  0  0  0  0  0  0  0  0
    7.6894   13.7287    8.8463 H   0  0  0  0  0  0  0  0  0  0  0  0
    7.1651   12.0195    8.4054 H   0  0  0  0  0  0  0  0  0  0  0  0
    8.5793   10.3732    8.2371 H   0  0  0  0  0  0  0  0  0  0  0  0
   11.8850    9.5123    6.3875 H   0  0  0  0  0  0  0  0  0  0  0  0
   10.3320    7.0337    7.2810 H   0  0  0  0  0  0  0  0  0  0  0  0
   10.0335    8.0925    5.8609 H   0  0  0  0  0  0  0  0  0  0  0  0
   11.4297    6.9623    5.8609 H   0  0  0  0  0  0  0  0  0  0  0  0
   12.8355   10.9984    7.9698 H   0  0  0  0  0  0  0  0  0  0  0  0
   12.4604   13.4617    7.8299 H   0  0  0  0  0  0  0  0  0  0  0  0
    7.0905   10.5143    6.5130 H   0  0  0  0  0  0  0  0  0  0  0  0
    5.4070   10.9305    2.5510 H   0  0  0  0  0  0  0  0  0  0  0  0
    5.3986   13.4117    2.8038 H   0  0  0  0  0  0  0  0  0  0  0  0
    3.6174   18.8017    2.1853 H   0  0  0  0  0  0  0  0  0  0  0  0
  1  2  1  0
  2  3  1  0
  3  4  2  0
  4  5  1  0
  5  6  2  0
  6  7  1  0
  7  8  1  0
  8  9  2  0
  9 10  1  0
  9 11  1  0
 11 12  1  0
 12 13  1  0
 13 14  2  0
 14 15  1  0
 15 16  1  0
 16 17  1  0
 17 18  1  0
 17 19  1  0
 19 20  2  0
 19 21  1  0
 15 22  2  0
 22 23  1  0
 23 24  2  0
 24 25  1  0
 11 26  1  0
 26 27  2  0
 27 28  1  0
 28 29  1  0
 29 30  1  0
 30 31  1  0
 30 32  1  0
 30 33  1  0
 28 34  2  0
 34 35  1  0
 35 36  2  0
  7 37  2  0
 37 38  1  0
 38 39  1  0
 39 40  2  0
 40  3  1  0
 39  6  1  0
 36  8  1  0
 24 13  1  0
 36 26  1  0
  1 41  1  0
  1 42  1  0
  1 43  1  0
  4 44  1  0
  5 45  1  0
 10 46  1  0
 10 47  1  0
 10 48  1  0
 12 49  1  0
 12 50  1  0
 14 51  1  0
 17 52  1  6
 18 53  1  0
 18 54  1  0
 18 55  1  0
 22 56  1  0
 23 57  1  0
 27 58  1  0
 34 59  1  0
 35 60  1  0
 40 61  1  0
M  CHG  1  21  -1
M  END
>  <meeko>  (1) 
{"is_sidechain": [false], "free_energy": -9.782, "intermolecular_energy": -14.929, "internal_energy": -1.793}

$$$$
2p4y_ligand
     RDKit          3D

 61 65  0  0  0  0  0  0  0  0999 V2000
   13.2350   15.8500    8.3920 C   0  0  0  0  0  0  0  0  0  0  0  0
   12.7780   14.5460    8.7330 O   0  0  0  0  0  0  0  0  0  0  0  0
   11.5380   14.1840    8.2730 C   0  0  0  0  0  0  0  0  0  0  0  0
   11.2660   14.6080    6.9640 C   0  0  0  0  0  0  0  0  0  0  0  0
   10.0430   14.3240    6.3370 C   0  0  0  0  0  0  0  0  0  0  0  0
    9.0790   13.6000    7.0570 C   0  0  0  0  0  0  0  0  0  0  0  0
    7.7670   13.1010    6.8560 C   0  0  0  0  0  0  0  0  0  0  0  0
    6.9900   13.2700    5.6270 C   0  0  0  0  0  0  0  0  0  0  0  0
    6.5770   12.2890    4.7420 C   0  0  0  0  0  0  0  0  0  0  0  0
    6.8250   10.8190    4.7590 C   0  0  0  0  0  0  0  0  0  0  0  0
    5.8540   12.9250    3.7400 N   0  0  0  0  0  0  0  0  0  0  0  0
    5.1990   12.2470    2.6130 C   0  0  0  0  0  0  0  0  0  0  0  0
    5.8920   12.3950    1.2790 C   0  0  0  0  0  0  0  0  0  0  0  0
    7.2010   11.8830    1.1740 C   0  0  0  0  0  0  0  0  0  0  0  0
    7.9400   12.0250    0.0030 C   0  0  0  0  0  0  0  0  0  0  0  0
    9.2060   11.5220   -0.1060 O   0  0  0  0  0  0  0  0  0  0  0  0
    9.2060   10.1160   -0.4720 C   0  0  2  0  0  0  0  0  0  0  0  0
   10.0630    9.3910    0.5580 C   0  0  0  0  0  0  0  0  0  0  0  0
    9.7850    9.9140   -1.9000 C   0  0  0  0  0  0  0  0  0  0  0  0
   11.0510    9.9830   -1.9720 O   0  0  0  0  0  0  0  0  0  0  0  0
    8.9550    9.7240   -2.8350 O   0  0  0  0  0  0  0  0  0  0  0  0
    7.3780   12.6330   -1.1110 C   0  0  0  0  0  0  0  0  0  0  0  0
    6.0910   13.1620   -1.0260 C   0  0  0  0  0  0  0  0  0  0  0  0
    5.3590   13.0610    0.1660 C   0  0  0  0  0  0  0  0  0  0  0  0
    3.8100   13.8240    0.1910 Cl  0  0  0  0  0  0  0  0  0  0  0  0
    5.7530   14.2810    4.0190 C   0  0  0  0  0  0  0  0  0  0  0  0
    5.0740   15.3210    3.3570 C   0  0  0  0  0  0  0  0  0  0  0  0
    5.1720   16.6300    3.8490 C   0  0  0  0  0  0  0  0  0  0  0  0
    4.4760   17.5510    3.1150 O   0  0  0  0  0  0  0  0  0  0  0  0
    3.1840   17.9150    3.5600 C   0  0  0  0  0  0  0  0  0  0  0  0
    2.5100   18.4890    2.5380 F   0  0  0  0  0  0  0  0  0  0  0  0
    3.2440   18.8110    4.5710 F   0  0  0  0  0  0  0  0  0  0  0  0
    2.4800   16.8340    3.9650 F   0  0  0  0  0  0  0  0  0  0  0  0
    5.9280   16.8890    4.9880 C   0  0  0  0  0  0  0  0  0  0  0  0
    6.5870   15.8490    5.6560 C   0  0  0  0  0  0  0  0  0  0  0  0
    6.5000   14.5260    5.1740 C   0  0  0  0  0  0  0  0  0  0  0  0
    7.3200   12.4190    7.9180 N   0  0  0  0  0  0  0  0  0  0  0  0
    8.3380   12.4900    8.8570 O   0  0  0  0  0  0  0  0  0  0  0  0
    9.3850   13.1900    8.3420 C   0  0  0  0  0  0  0  0  0  0  0  0
   10.5880   13.4550    8.9950 C   0  0  0  0  0  0  0  0  0  0  0  0
   13.4349   16.4205    9.3110 H   0  0  0  0  0  0  0  0  0  0  0  0
   14.1592   15.7717    7.8007 H   0  0  0  0  0  0  0  0  0  0  0  0
   12.4640   16.3658    7.8007 H   0  0  0  0  0  0  0  0  0  0  0  0
   12.0305   15.1774    6.4151 H   0  0  0  0  0  0  0  0  0  0  0  0
    9.8447   14.6598    5.3084 H   0  0  0  0  0  0  0  0  0  0  0  0
    6.8840   10.4691    5.8002 H   0  0  0  0  0  0  0  0  0  0  0  0
    6.0013   10.3022    4.2447 H   0  0  0  0  0  0  0  0  0  0  0  0
    7.7726   10.6010    4.2447 H   0  0  0  0  0  0  0  0  0  0  0  0
    5.1416   11.1741    2.8489 H   0  0  0  0  0  0  0  0  0  0  0  0
    4.2157   12.7268    2.4996 H   0  0  0  0  0  0  0  0  0  0  0  0
    7.6470   11.3614    2.0337 H   0  0  0  0  0  0  0  0  0  0  0  0
    8.1802    9.7190   -0.4820 H   0  0  0  0  0  0  0  0  0  0  0  0
    9.7340    9.6694    1.5700 H   0  0  0  0  0  0  0  0  0  0  0  0
    9.9568    8.3044    0.4238 H   0  0  0  0  0  0  0  0  0  0  0  0
   11.1170    9.6758    0.4238 H   0  0  0  0  0  0  0  0  0  0  0  0
    7.9431   12.6969   -2.0526 H   0  0  0  0  0  0  0  0  0  0  0  0
    5.6468   13.6618   -1.8994 H   0  0  0  0  0  0  0  0  0  0  0  0
    4.4717   15.1085    2.4614 H   0  0  0  0  0  0  0  0  0  0  0  0
    6.0088   17.9185    5.3669 H   0  0  0  0  0  0  0  0  0  0  0  0
    7.1749   16.0648    6.5603 H   0  0  0  0  0  0  0  0  0  0  0  0
   10.7793   13.1096   10.0217 H   0  0  0  0  0  0  0  0  0  0  0  0
  1  2  1  0
  2  3  1  0
  3  4  2  0
  4  5  1  0
  5  6  2  0
  6  7  1  0
  7  8  1  0
  8  9  2  0
  9 10  1  0
  9 11  1  0
 11 12  1  0
 12 13  1  0
 13 14  2  0
 14 15  1  0
 15 16  1  0
 16 17  1  0
 17 18  1  0
 17 19  1  0
 19 20  2  0
 19 21  1  0
 15 22  2  0
 22 23  1  0
 23 24  2  0
 24 25  1  0
 11 26  1  0
 26 27  2  0
 27 28  1  0
 28 29  1  0
 29 30  1  0
 30 31  1  0
 30 32  1  0
 30 33  1  0
 28 34  2  0
 34 35  1  0
 35 36  2  0
  7 37  2  0
 37 38  1  0
 38 39  1  0
 39 40  2  0
 40  3  1  0
 39  6  1  0
 36  8  1  0
 24 13  1  0
 36 26  1  0
  1 41  1  0
  1 42  1  0
  1 43  1  0
  4 44  1  0
  5 45  1  0
 10 46  1  0
 10 47  1  0
 10 48  1  0
 12 49  1  0
 12 50  1  0
 14 51  1  0
 17 52  1  6
 18 53  1  0
 18 54  1  0
 18 55  1  0
 22 56  1  0
 23 57  1  0
 27 58  1  0
 34 59  1  0
 35 60  1  0
 40 61  1  0
M  CHG  1  21  -1
M  END
>  <meeko>  (2) 
{"is_sidechain": [false], "free_energy": -8.262, "intermolecular_energy": -11.943, "internal_energy": -2.46}

$$$$
2p4y_ligand
     RDKit          3D

 61 65  0  0  0  0  0  0  0  0999 V2000
   19.9090   10.0710   -4.1480 C   0  0  0  0  0  0  0  0  0  0  0  0
   18.9720   10.4300   -3.1390 O   0  0  0  0  0  0  0  0  0  0  0  0
   17.6440   10.2720   -3.4410 C   0  0  0  0  0  0  0  0  0  0  0  0
   16.7780   11.0260   -2.6370 C   0  0  0  0  0  0  0  0  0  0  0  0
   15.3870   10.9830   -2.8100 C   0  0  0  0  0  0  0  0  0  0  0  0
   14.8670   10.1520   -3.8160 C   0  0  0  0  0  0  0  0  0  0  0  0
   13.5980    9.7960   -4.3390 C   0  0  0  0  0  0  0  0  0  0  0  0
   12.3200   10.3100   -3.8470 C   0  0  0  0  0  0  0  0  0  0  0  0
   11.1900    9.5870   -3.5000 C   0  0  0  0  0  0  0  0  0  0  0  0
   10.9390    8.1190   -3.5600 C   0  0  0  0  0  0  0  0  0  0  0  0
   10.2370   10.5040   -3.0720 N   0  0  0  0  0  0  0  0  0  0  0  0
    8.8990   10.1580   -2.5750 C   0  0  0  0  0  0  0  0  0  0  0  0
    8.6000   10.6030   -1.1640 C   0  0  0  0  0  0  0  0  0  0  0  0
    7.6470   11.6290   -1.0010 C   0  0  0  0  0  0  0  0  0  0  0  0
    7.3490   12.1440    0.2580 C   0  0  0  0  0  0  0  0  0  0  0  0
    6.4200   13.1320    0.4210 O   0  0  0  0  0  0  0  0  0  0  0  0
    5.0910   12.5980    0.6670 C   0  0  2  0  0  0  0  0  0  0  0  0
    4.1240   13.4080   -0.1870 C   0  0  0  0  0  0  0  0  0  0  0  0
    4.7160   12.7140    2.1710 C   0  0  0  0  0  0  0  0  0  0  0  0
    4.6530   11.6060    2.7880 O   0  0  0  0  0  0  0  0  0  0  0  0
    4.4950   13.8760    2.6200 O   0  0  0  0  0  0  0  0  0  0  0  0
    7.9520   11.6170    1.3920 C   0  0  0  0  0  0  0  0  0  0  0  0
    8.9100   10.6130    1.2540 C   0  0  0  0  0  0  0  0  0  0  0  0
    9.2470   10.1220   -0.0150 C   0  0  0  0  0  0  0  0  0  0  0  0
   10.5050    8.9410   -0.0810 Cl  0  0  0  0  0  0  0  0  0  0  0  0
   10.7760   11.7830   -3.0840 C   0  0  0  0  0  0  0  0  0  0  0  0
   10.2430   13.0220   -2.6800 C   0  0  0  0  0  0  0  0  0  0  0  0
   11.0090   14.1860   -2.8370 C   0  0  0  0  0  0  0  0  0  0  0  0
   10.3800   15.3250   -2.4160 O   0  0  0  0  0  0  0  0  0  0  0  0
    9.7390   16.1260   -3.3890 C   0  0  0  0  0  0  0  0  0  0  0  0
    8.4230   16.2150   -3.0910 F   0  0  0  0  0  0  0  0  0  0  0  0
    9.8480   15.5860   -4.6230 F   0  0  0  0  0  0  0  0  0  0  0  0
   10.2440   17.3800   -3.4060 F   0  0  0  0  0  0  0  0  0  0  0  0
   12.2880   14.1070   -3.3790 C   0  0  0  0  0  0  0  0  0  0  0  0
   12.8230   12.8700   -3.7610 C   0  0  0  0  0  0  0  0  0  0  0  0
   12.0660   11.6890   -3.6110 C   0  0  0  0  0  0  0  0  0  0  0  0
   13.7000    8.9490   -5.3720 N   0  0  0  0  0  0  0  0  0  0  0  0
   15.0580    8.7100   -5.5210 O   0  0  0  0  0  0  0  0  0  0  0  0
   15.7510    9.4290   -4.5970 C   0  0  0  0  0  0  0  0  0  0  0  0
   17.1380    9.4490   -4.4520 C   0  0  0  0  0  0  0  0  0  0  0  0
   20.8371    9.7154   -3.6767 H   0  0  0  0  0  0  0  0  0  0  0  0
   19.4858    9.2713   -4.7736 H   0  0  0  0  0  0  0  0  0  0  0  0
   20.1284   10.9487   -4.7736 H   0  0  0  0  0  0  0  0  0  0  0  0
   17.2004   11.6680   -1.8500 H   0  0  0  0  0  0  0  0  0  0  0  0
   14.7205   11.5844   -2.1744 H   0  0  0  0  0  0  0  0  0  0  0  0
   10.8702    7.7167   -2.5385 H   0  0  0  0  0  0  0  0  0  0  0  0
    9.9955    7.9298   -4.0929 H   0  0  0  0  0  0  0  0  0  0  0  0
   11.7661    7.6271   -4.0929 H   0  0  0  0  0  0  0  0  0  0  0  0
    8.1580   10.6227   -3.2421 H   0  0  0  0  0  0  0  0  0  0  0  0
    8.8536    9.0590   -2.5634 H   0  0  0  0  0  0  0  0  0  0  0  0
    7.1292   12.0302   -1.8847 H   0  0  0  0  0  0  0  0  0  0  0  0
    5.0488   11.5302    0.4064 H   0  0  0  0  0  0  0  0  0  0  0  0
    3.4455   13.9763    0.4662 H   0  0  0  0  0  0  0  0  0  0  0  0
    4.6908   14.1048   -0.8220 H   0  0  0  0  0  0  0  0  0  0  0  0
    3.5374   12.7278   -0.8220 H   0  0  0  0  0  0  0  0  0  0  0  0
    7.6767   11.9880    2.3903 H   0  0  0  0  0  0  0  0  0  0  0  0
    9.4046   10.2035    2.1471 H   0  0  0  0  0  0  0  0  0  0  0  0
    9.2342   13.0764   -2.2449 H   0  0  0  0  0  0  0  0  0  0  0  0
   12.8835   15.0227   -3.5085 H   0  0  0  0  0  0  0  0  0  0  0  0
   13.8387   12.8192   -4.1801 H   0  0  0  0  0  0  0  0  0  0  0  0
   17.7976    8.8503   -5.0974 H   0  0  0  0  0  0  0  0  0  0  0  0
  1  2  1  0
  2  3  1  0
  3  4  2  0
  4  5  1  0
  5  6  2  0
  6  7  1  0
  7  8  1  0
  8  9  2  0
  9 10  1  0
  9 11  1  0
 11 12  1  0
 12 13  1  0
 13 14  2  0
 14 15  1  0
 15 16  1  0
 16 17  1  0
 17 18  1  0
 17 19  1  0
 19 20  2  0
 19 21  1  0
 15 22  2  0
 22 23  1  0
 23 24  2  0
 24 25  1  0
 11 26  1  0
 26 27  2  0
 27 28  1  0
 28 29  1  0
 29 30  1  0
 30 31  1  0
 30 32  1  0
 30 33  1  0
 28 34  2  0
 34 35  1  0
 35 36  2  0
  7 37  2  0
 37 38  1  0
 38 39  1  0
 39 40  2  0
 40  3  1  0
 39  6  1  0
 36  8  1  0
 24 13  1  0
 36 26  1  0
  1 41  1  0
  1 42  1  0
  1 43  1  0
  4 44  1  0
  5 45  1  0
 10 46  1  0
 10 47  1  0
 10 48  1  0
 12 49  1  0
 12 50  1  0
 14 51  1  0
 17 52  1  6
 18 53  1  0
 18 54  1  0
 18 55  1  0
 22 56  1  0
 23 57  1  0
 27 58  1  0
 34 59  1  0
 35 60  1  0
 40 61  1  0
M  CHG  1  21  -1
M  END
>  <meeko>  (3) 
{"is_sidechain": [false], "free_energy": -8.239, "intermolecular_energy": -12.674, "internal_energy": -1.693}

$$$$
2p4y_ligand
     RDKit          3D

 61 65  0  0  0  0  0  0  0  0999 V2000
   11.0930    8.1650   -4.5730 C   0  0  0  0  0  0  0  0  0  0  0  0
   11.6490    9.3920   -4.1160 O   0  0  0  0  0  0  0  0  0  0  0  0
   10.8200   10.2230   -3.4080 C   0  0  0  0  0  0  0  0  0  0  0  0
    9.8220    9.5570   -2.6830 C   0  0  0  0  0  0  0  0  0  0  0  0
    8.8870   10.2540   -1.9040 C   0  0  0  0  0  0  0  0  0  0  0  0
    8.9660   11.6560   -1.8670 C   0  0  0  0  0  0  0  0  0  0  0  0
    8.2790   12.7360   -1.2550 C   0  0  0  0  0  0  0  0  0  0  0  0
    7.1230   12.5940   -0.3710 C   0  0  0  0  0  0  0  0  0  0  0  0
    7.0640   11.9540    0.8570 C   0  0  0  0  0  0  0  0  0  0  0  0
    8.1240   11.2110    1.5990 C   0  0  0  0  0  0  0  0  0  0  0  0
    5.7650   12.0960    1.3280 N   0  0  0  0  0  0  0  0  0  0  0  0
    5.2780   11.5970    2.6200 C   0  0  0  0  0  0  0  0  0  0  0  0
    5.7110   12.3980    3.8260 C   0  0  0  0  0  0  0  0  0  0  0  0
    5.4030   13.7730    3.8290 C   0  0  0  0  0  0  0  0  0  0  0  0
    5.8120   14.6020    4.8700 C   0  0  0  0  0  0  0  0  0  0  0  0
    5.5090   15.9340    4.8810 O   0  0  0  0  0  0  0  0  0  0  0  0
    4.6900   16.3170    3.7440 C   0  0  2  0  0  0  0  0  0  0  0  0
    5.3260   17.5630    3.1410 C   0  0  0  0  0  0  0  0  0  0  0  0
    3.2290   16.6130    4.1860 C   0  0  0  0  0  0  0  0  0  0  0  0
    3.0120   17.8180    4.5210 O   0  0  0  0  0  0  0  0  0  0  0  0
    2.4210   15.6390    4.1870 O   0  0  0  0  0  0  0  0  0  0  0  0
    6.4920   14.0750    5.9600 C   0  0  0  0  0  0  0  0  0  0  0  0
    6.8220   12.7200    5.9710 C   0  0  0  0  0  0  0  0  0  0  0  0
    6.4510   11.8900    4.9040 C   0  0  0  0  0  0  0  0  0  0  0  0
    6.9820   10.2480    4.9780 Cl  0  0  0  0  0  0  0  0  0  0  0  0
    5.0260   12.8720    0.4450 C   0  0  0  0  0  0  0  0  0  0  0  0
    3.7040   13.3510    0.5070 C   0  0  0  0  0  0  0  0  0  0  0  0
    3.1910   14.1000   -0.5620 C   0  0  0  0  0  0  0  0  0  0  0  0
    1.8950   14.4990   -0.3880 O   0  0  0  0  0  0  0  0  0  0  0  0
    1.6390   15.8840   -0.2610 C   0  0  0  0  0  0  0  0  0  0  0  0
    2.4430   16.3960    0.6980 F   0  0  0  0  0  0  0  0  0  0  0  0
    0.3590   16.1180    0.1050 F   0  0  0  0  0  0  0  0  0  0  0  0
    1.9000   16.5410   -1.4130 F   0  0  0  0  0  0  0  0  0  0  0  0
    3.9930   14.3710   -1.6670 C   0  0  0  0  0  0  0  0  0  0  0  0
    5.3140   13.9100   -1.7170 C   0  0  0  0  0  0  0  0  0  0  0  0
    5.8460   13.1540   -0.6500 C   0  0  0  0  0  0  0  0  0  0  0  0
    8.8330   13.9180   -1.5540 N   0  0  0  0  0  0  0  0  0  0  0  0
    9.8890   13.6260   -2.4040 O   0  0  0  0  0  0  0  0  0  0  0  0
    9.9690   12.2800   -2.5870 C   0  0  0  0  0  0  0  0  0  0  0  0
   10.9130   11.6180   -3.3710 C   0  0  0  0  0  0  0  0  0  0  0  0
   10.8122    7.5453   -3.7087 H   0  0  0  0  0  0  0  0  0  0  0  0
   10.2004    8.3712   -5.1819 H   0  0  0  0  0  0  0  0  0  0  0  0
   11.8365    7.6298   -5.1819 H   0  0  0  0  0  0  0  0  0  0  0  0
    9.7709    8.4590   -2.7262 H   0  0  0  0  0  0  0  0  0  0  0  0
    8.1123    9.7170   -1.3370 H   0  0  0  0  0  0  0  0  0  0  0  0
    7.9622   11.3244    2.6811 H   0  0  0  0  0  0  0  0  0  0  0  0
    8.0801   10.1449    1.3315 H   0  0  0  0  0  0  0  0  0  0  0  0
    9.1112   11.6159    1.3315 H   0  0  0  0  0  0  0  0  0  0  0  0
    4.1784   11.5943    2.5907 H   0  0  0  0  0  0  0  0  0  0  0  0
    5.7178   10.5966    2.7452 H   0  0  0  0  0  0  0  0  0  0  0  0
    4.8287   14.1993    2.9933 H   0  0  0  0  0  0  0  0  0  0  0  0
    4.6443   15.5006    3.0082 H   0  0  0  0  0  0  0  0  0  0  0  0
    5.6657   18.2285    3.9482 H   0  0  0  0  0  0  0  0  0  0  0  0
    6.1857   17.2718    2.5197 H   0  0  0  0  0  0  0  0  0  0  0  0
    4.5858   18.0884    2.5197 H   0  0  0  0  0  0  0  0  0  0  0  0
    6.7679   14.7203    6.8070 H   0  0  0  0  0  0  0  0  0  0  0  0
    7.3771   12.2998    6.8226 H   0  0  0  0  0  0  0  0  0  0  0  0
    3.0783   13.1396    1.3867 H   0  0  0  0  0  0  0  0  0  0  0  0
    3.5856   14.9520   -2.5076 H   0  0  0  0  0  0  0  0  0  0  0  0
    5.9405   14.1380   -2.5920 H   0  0  0  0  0  0  0  0  0  0  0  0
   11.6882   12.1629   -3.9297 H   0  0  0  0  0  0  0  0  0  0  0  0
  1  2  1  0
  2  3  1  0
  3  4  2  0
  4  5  1  0
  5  6  2  0
  6  7  1  0
  7  8  1  0
  8  9  2  0
  9 10  1  0
  9 11  1  0
 11 12  1  0
 12 13  1  0
 13 14  2  0
 14 15  1  0
 15 16  1  0
 16 17  1  0
 17 18  1  0
 17 19  1  0
 19 20  2  0
 19 21  1  0
 15 22  2  0
 22 23  1  0
 23 24  2  0
 24 25  1  0
 11 26  1  0
 26 27  2  0
 27 28  1  0
 28 29  1  0
 29 30  1  0
 30 31  1  0
 30 32  1  0
 30 33  1  0
 28 34  2  0
 34 35  1  0
 35 36  2  0
  7 37  2  0
 37 38  1  0
 38 39  1  0
 39 40  2  0
 40  3  1  0
 39  6  1  0
 36  8  1  0
 24 13  1  0
 36 26  1  0
  1 41  1  0
  1 42  1  0
  1 43  1  0
  4 44  1  0
  5 45  1  0
 10 46  1  0
 10 47  1  0
 10 48  1  0
 12 49  1  0
 12 50  1  0
 14 51  1  0
 17 52  1  6
 18 53  1  0
 18 54  1  0
 18 55  1  0
 22 56  1  0
 23 57  1  0
 27 58  1  0
 34 59  1  0
 35 60  1  0
 40 61  1  0
M  CHG  1  21  -1
M  END
>  <meeko>  (4) 
{"is_sidechain": [false], "free_energy": -7.936, "intermolecular_energy": -11.351, "internal_energy": -2.553}

$$$$
2p4y_ligand
     RDKit          3D

 61 65  0  0  0  0  0  0  0  0999 V2000
    9.0160   15.8120    8.4490 C   0  0  0  0  0  0  0  0  0  0  0  0
    7.6700   15.7030    8.0030 O   0  0  0  0  0  0  0  0  0  0  0  0
    7.4280   14.8300    6.9730 C   0  0  0  0  0  0  0  0  0  0  0  0
    7.4310   15.4260    5.7040 C   0  0  0  0  0  0  0  0  0  0  0  0
    7.2000   14.6790    4.5390 C   0  0  0  0  0  0  0  0  0  0  0  0
    6.9550   13.3020    4.6690 C   0  0  0  0  0  0  0  0  0  0  0  0
    6.6840   12.1950    3.8260 C   0  0  0  0  0  0  0  0  0  0  0  0
    6.5730   12.2640    2.3690 C   0  0  0  0  0  0  0  0  0  0  0  0
    7.3540   11.6180    1.4260 C   0  0  0  0  0  0  0  0  0  0  0  0
    8.5290   10.7170    1.6120 C   0  0  0  0  0  0  0  0  0  0  0  0
    6.8610   11.9740    0.1770 N   0  0  0  0  0  0  0  0  0  0  0  0
    7.3780   11.4800   -1.1060 C   0  0  0  0  0  0  0  0  0  0  0  0
    8.4880   12.3030   -1.7150 C   0  0  0  0  0  0  0  0  0  0  0  0
    8.1500   13.5840   -2.1950 C   0  0  0  0  0  0  0  0  0  0  0  0
    9.0940   14.3920   -2.8240 C   0  0  0  0  0  0  0  0  0  0  0  0
    8.7730   15.6370   -3.2840 O   0  0  0  0  0  0  0  0  0  0  0  0
    8.7610   15.6980   -4.7350 C   0  0  2  0  0  0  0  0  0  0  0  0
    9.5660   16.9290   -5.1320 C   0  0  0  0  0  0  0  0  0  0  0  0
    7.3070   15.8030   -5.2750 C   0  0  0  0  0  0  0  0  0  0  0  0
    6.8790   16.9900   -5.4150 O   0  0  0  0  0  0  0  0  0  0  0  0
    6.6980   14.7170   -5.4980 O   0  0  0  0  0  0  0  0  0  0  0  0
   10.4100   13.9680   -2.9440 C   0  0  0  0  0  0  0  0  0  0  0  0
   10.7650   12.6980   -2.4900 C   0  0  0  0  0  0  0  0  0  0  0  0
    9.8080   11.8630   -1.8960 C   0  0  0  0  0  0  0  0  0  0  0  0
   10.3320   10.2800   -1.4480 Cl  0  0  0  0  0  0  0  0  0  0  0  0
    5.7410   12.7810    0.3250 C   0  0  0  0  0  0  0  0  0  0  0  0
    4.8590   13.3340   -0.6220 C   0  0  0  0  0  0  0  0  0  0  0  0
    3.8090   14.1560   -0.1890 C   0  0  0  0  0  0  0  0  0  0  0  0
    3.0280   14.6390   -1.2020 O   0  0  0  0  0  0  0  0  0  0  0  0
    1.9680   15.5110   -0.8650 C   0  0  0  0  0  0  0  0  0  0  0  0
    0.8490   14.7830   -0.6500 F   0  0  0  0  0  0  0  0  0  0  0  0
    1.7090   16.3840   -1.8640 F   0  0  0  0  0  0  0  0  0  0  0  0
    2.2370   16.1990    0.2680 F   0  0  0  0  0  0  0  0  0  0  0  0
    3.6420   14.4100    1.1690 C   0  0  0  0  0  0  0  0  0  0  0  0
    4.5100   13.8420    2.1110 C   0  0  0  0  0  0  0  0  0  0  0  0
    5.5720   13.0130    1.6920 C   0  0  0  0  0  0  0  0  0  0  0  0
    6.5690   11.0530    4.5180 N   0  0  0  0  0  0  0  0  0  0  0  0
    6.7360   11.4090    5.8470 O   0  0  0  0  0  0  0  0  0  0  0  0
    6.9690   12.7460    5.9360 C   0  0  0  0  0  0  0  0  0  0  0  0
    7.1950   13.4590    7.1140 C   0  0  0  0  0  0  0  0  0  0  0  0
    9.0388   15.8139    9.5488 H   0  0  0  0  0  0  0  0  0  0  0  0
    9.5976   14.9580    8.0716 H   0  0  0  0  0  0  0  0  0  0  0  0
    9.4526   16.7484    8.0716 H   0  0  0  0  0  0  0  0  0  0  0  0
    7.6192   16.5065    5.6196 H   0  0  0  0  0  0  0  0  0  0  0  0
    7.2105   15.1593    3.5494 H   0  0  0  0  0  0  0  0  0  0  0  0
    8.7151   10.5743    2.6867 H   0  0  0  0  0  0  0  0  0  0  0  0
    8.3225    9.7436    1.1432 H   0  0  0  0  0  0  0  0  0  0  0  0
    9.4155   11.1690    1.1432 H   0  0  0  0  0  0  0  0  0  0  0  0
    7.7584   10.4599   -0.9489 H   0  0  0  0  0  0  0  0  0  0  0  0
    6.5372   11.5331   -1.8132 H   0  0  0  0  0  0  0  0  0  0  0  0
    7.1212   13.9528   -2.0706 H   0  0  0  0  0  0  0  0  0  0  0  0
    9.1980   14.7842   -5.1638 H   0  0  0  0  0  0  0  0  0  0  0  0
    9.9077   17.4515   -4.2263 H   0  0  0  0  0  0  0  0  0  0  0  0
   10.4375   16.6206   -5.7282 H   0  0  0  0  0  0  0  0  0  0  0  0
    8.9341   17.6037   -5.7282 H   0  0  0  0  0  0  0  0  0  0  0  0
   11.1666   14.6280   -3.3934 H   0  0  0  0  0  0  0  0  0  0  0  0
   11.8025   12.3491   -2.5986 H   0  0  0  0  0  0  0  0  0  0  0  0
    4.9923   13.1230   -1.6933 H   0  0  0  0  0  0  0  0  0  0  0  0
    2.8222   15.0617    1.5055 H   0  0  0  0  0  0  0  0  0  0  0  0
    4.3627   14.0434    3.1823 H   0  0  0  0  0  0  0  0  0  0  0  0
    7.1901   12.9693    8.0990 H   0  0  0  0  0  0  0  0  0  0  0  0
  1  2  1  0
  2  3  1  0
  3  4  2  0
  4  5  1  0
  5  6  2  0
  6  7  1  0
  7  8  1  0
  8  9  2  0
  9 10  1  0
  9 11  1  0
 11 12  1  0
 12 13  1  0
 13 14  2  0
 14 15  1  0
 15 16  1  0
 16 17  1  0
 17 18  1  0
 17 19  1  0
 19 20  2  0
 19 21  1  0
 15 22  2  0
 22 23  1  0
 23 24  2  0
 24 25  1  0
 11 26  1  0
 26 27  2  0
 27 28  1  0
 28 29  1  0
 29 30  1  0
 30 31  1  0
 30 32  1  0
 30 33  1  0
 28 34  2  0
 34 35  1  0
 35 36  2  0
  7 37  2  0
 37 38  1  0
 38 39  1  0
 39 40  2  0
 40  3  1  0
 39  6  1  0
 36  8  1  0
 24 13  1  0
 36 26  1  0
  1 41  1  0
  1 42  1  0
  1 43  1  0
  4 44  1  0
  5 45  1  0
 10 46  1  0
 10 47  1  0
 10 48  1  0
 12 49  1  0
 12 50  1  0
 14 51  1  0
 17 52  1  6
 18 53  1  0
 18 54  1  0
 18 55  1  0
 22 56  1  0
 23 57  1  0
 27 58  1  0
 34 59  1  0
 35 60  1  0
 40 61  1  0
M  CHG  1  21  -1
M  END
>  <meeko>  (5) 
{"is_sidechain": [false], "free_energy": -7.735, "intermolecular_energy": -11.885, "internal_energy": -1.713}

$$$$
2p4y_ligand
     RDKit          3D

 61 65  0  0  0  0  0  0  0  0999 V2000
   11.0490    7.9570   -4.5650 C   0  0  0  0  0  0  0  0  0  0  0  0
   11.4640    9.3180   -4.5350 O   0  0  0  0  0  0  0  0  0  0  0  0
   10.6960   10.1840   -3.7990 C   0  0  0  0  0  0  0  0  0  0  0  0
    9.7250    9.5570   -3.0060 C   0  0  0  0  0  0  0  0  0  0  0  0
    8.8530   10.2940   -2.1900 C   0  0  0  0  0  0  0  0  0  0  0  0
    8.9690   11.6940   -2.1860 C   0  0  0  0  0  0  0  0  0  0  0  0
    8.3450   12.8020   -1.5590 C   0  0  0  0  0  0  0  0  0  0  0  0
    7.2370   12.7070   -0.6080 C   0  0  0  0  0  0  0  0  0  0  0  0
    5.9820   13.2850   -0.7050 C   0  0  0  0  0  0  0  0  0  0  0  0
    5.4210   14.1790   -1.7580 C   0  0  0  0  0  0  0  0  0  0  0  0
    5.2690   12.8980    0.4220 N   0  0  0  0  0  0  0  0  0  0  0  0
    3.8730   13.2600    0.7020 C   0  0  0  0  0  0  0  0  0  0  0  0
    3.6840   14.4830    1.5660 C   0  0  0  0  0  0  0  0  0  0  0  0
    4.2800   14.4670    2.8430 C   0  0  0  0  0  0  0  0  0  0  0  0
    4.1120   15.5250    3.7320 C   0  0  0  0  0  0  0  0  0  0  0  0
    4.6950   15.5160    4.9680 O   0  0  0  0  0  0  0  0  0  0  0  0
    5.7520   14.5240    5.0670 C   0  0  2  0  0  0  0  0  0  0  0  0
    6.1040   14.4000    6.5440 C   0  0  0  0  0  0  0  0  0  0  0  0
    6.9990   14.9570    4.2460 C   0  0  0  0  0  0  0  0  0  0  0  0
    7.6470   13.9980    3.7240 O   0  0  0  0  0  0  0  0  0  0  0  0
    7.2510   16.1960    4.1960 O   0  0  0  0  0  0  0  0  0  0  0  0
    3.3920   16.6500    3.3550 C   0  0  0  0  0  0  0  0  0  0  0  0
    2.7790   16.6820    2.1020 C   0  0  0  0  0  0  0  0  0  0  0  0
    2.9080   15.6000    1.2200 C   0  0  0  0  0  0  0  0  0  0  0  0
    2.0400   15.7060   -0.2690 Cl  0  0  0  0  0  0  0  0  0  0  0  0
    6.0350   12.0320    1.1910 C   0  0  0  0  0  0  0  0  0  0  0  0
    5.7400   11.3240    2.3710 C   0  0  0  0  0  0  0  0  0  0  0  0
    6.7320   10.5310    2.9660 C   0  0  0  0  0  0  0  0  0  0  0  0
    6.3260    9.9020    4.1100 O   0  0  0  0  0  0  0  0  0  0  0  0
    6.9570    8.6850    4.4570 C   0  0  0  0  0  0  0  0  0  0  0  0
    8.0870    8.9550    5.1490 F   0  0  0  0  0  0  0  0  0  0  0  0
    7.3050    7.9780    3.3580 F   0  0  0  0  0  0  0  0  0  0  0  0
    6.1620    7.9240    5.2430 F   0  0  0  0  0  0  0  0  0  0  0  0
    7.9920   10.4440    2.3820 C   0  0  0  0  0  0  0  0  0  0  0  0
    8.2770   11.1340    1.1970 C   0  0  0  0  0  0  0  0  0  0  0  0
    7.2900   11.9370    0.5860 C   0  0  0  0  0  0  0  0  0  0  0  0
    8.9110   13.9630   -1.9120 N   0  0  0  0  0  0  0  0  0  0  0  0
    9.9090   13.6280   -2.8140 O   0  0  0  0  0  0  0  0  0  0  0  0
    9.9450   12.2780   -2.9740 C   0  0  0  0  0  0  0  0  0  0  0  0
   10.8270   11.5760   -3.7960 C   0  0  0  0  0  0  0  0  0  0  0  0
   10.9357    7.5854   -3.5359 H   0  0  0  0  0  0  0  0  0  0  0  0
   10.0862    7.8788   -5.0912 H   0  0  0  0  0  0  0  0  0  0  0  0
   11.8044    7.3548   -5.0912 H   0  0  0  0  0  0  0  0  0  0  0  0
    9.6445    8.4601   -3.0237 H   0  0  0  0  0  0  0  0  0  0  0  0
    8.0982    9.7886   -1.5696 H   0  0  0  0  0  0  0  0  0  0  0  0
    4.8937   15.0193   -1.2828 H   0  0  0  0  0  0  0  0  0  0  0  0
    6.2385   14.5660   -2.3841 H   0  0  0  0  0  0  0  0  0  0  0  0
    4.7169   13.6113   -2.3841 H   0  0  0  0  0  0  0  0  0  0  0  0
    3.3699   13.4420   -0.2591 H   0  0  0  0  0  0  0  0  0  0  0  0
    3.4488   12.4185    1.2695 H   0  0  0  0  0  0  0  0  0  0  0  0
    4.8896   13.6019    3.1430 H   0  0  0  0  0  0  0  0  0  0  0  0
    5.4168   13.5595    4.6578 H   0  0  0  0  0  0  0  0  0  0  0  0
    5.2404   14.7042    7.1536 H   0  0  0  0  0  0  0  0  0  0  0  0
    6.3645   13.3560    6.7725 H   0  0  0  0  0  0  0  0  0  0  0  0
    6.9613   15.0502    6.7725 H   0  0  0  0  0  0  0  0  0  0  0  0
    3.3054   17.5083    4.0375 H   0  0  0  0  0  0  0  0  0  0  0  0
    2.1905   17.5623    1.8042 H   0  0  0  0  0  0  0  0  0  0  0  0
    4.7395   11.3921    2.8230 H   0  0  0  0  0  0  0  0  0  0  0  0
    8.7709    9.8280    2.8551 H   0  0  0  0  0  0  0  0  0  0  0  0
    9.2743   11.0498    0.7405 H   0  0  0  0  0  0  0  0  0  0  0  0
   11.5835   12.0892   -4.4078 H   0  0  0  0  0  0  0  0  0  0  0  0
  1  2  1  0
  2  3  1  0
  3  4  2  0
  4  5  1  0
  5  6  2  0
  6  7  1  0
  7  8  1  0
  8  9  2  0
  9 10  1  0
  9 11  1  0
 11 12  1  0
 12 13  1  0
 13 14  2  0
 14 15  1  0
 15 16  1  0
 16 17  1  0
 17 18  1  0
 17 19  1  0
 19 20  2  0
 19 21  1  0
 15 22  2  0
 22 23  1  0
 23 24  2  0
 24 25  1  0
 11 26  1  0
 26 27  2  0
 27 28  1  0
 28 29  1  0
 29 30  1  0
 30 31  1  0
 30 32  1  0
 30 33  1  0
 28 34  2  0
 34 35  1  0
 35 36  2  0
  7 37  2  0
 37 38  1  0
 38 39  1  0
 39 40  2  0
 40  3  1  0
 39  6  1  0
 36  8  1  0
 24 13  1  0
 36 26  1  0
  1 41  1  0
  1 42  1  0
  1 43  1  0
  4 44  1  0
  5 45  1  0
 10 46  1  0
 10 47  1  0
 10 48  1  0
 12 49  1  0
 12 50  1  0
 14 51  1  0
 17 52  1  6
 18 53  1  0
 18 54  1  0
 18 55  1  0
 22 56  1  0
 23 57  1  0
 27 58  1  0
 34 59  1  0
 35 60  1  0
 40 61  1  0
M  CHG  1  21  -1
M  END
>  <meeko>  (6) 
{"is_sidechain": [false], "free_energy": -7.694, "intermolecular_energy": -11.837, "internal_energy": -1.698}

$$$$
2p4y_ligand
     RDKit          3D

 61 65  0  0  0  0  0  0  0  0999 V2000
   13.7250   16.5370    8.6840 C   0  0  0  0  0  0  0  0  0  0  0  0
   13.1270   15.2540    8.5320 O   0  0  0  0  0  0  0  0  0  0  0  0
   11.8230   15.2250    8.1110 C   0  0  0  0  0  0  0  0  0  0  0  0
   11.5950   14.3950    7.0050 C   0  0  0  0  0  0  0  0  0  0  0  0
   10.3180   14.2480    6.4440 C   0  0  0  0  0  0  0  0  0  0  0  0
    9.2540   14.9640    7.0160 C   0  0  0  0  0  0  0  0  0  0  0  0
    7.8610   15.1290    6.8090 C   0  0  0  0  0  0  0  0  0  0  0  0
    7.0920   14.4710    5.7530 C   0  0  0  0  0  0  0  0  0  0  0  0
    7.0300   13.1170    5.4640 C   0  0  0  0  0  0  0  0  0  0  0  0
    7.7380   11.9700    6.1020 C   0  0  0  0  0  0  0  0  0  0  0  0
    6.1580   12.9700    4.3920 N   0  0  0  0  0  0  0  0  0  0  0  0
    5.7750   11.6880    3.7870 C   0  0  0  0  0  0  0  0  0  0  0  0
    6.8350   11.0350    2.9330 C   0  0  0  0  0  0  0  0  0  0  0  0
    7.4010   11.8130    1.9040 C   0  0  0  0  0  0  0  0  0  0  0  0
    8.3440   11.2790    1.0290 C   0  0  0  0  0  0  0  0  0  0  0  0
    8.9010   12.0330    0.0350 O   0  0  0  0  0  0  0  0  0  0  0  0
    8.0960   12.0240   -1.1750 C   0  0  2  0  0  0  0  0  0  0  0  0
    8.7000   10.9750   -2.1000 C   0  0  0  0  0  0  0  0  0  0  0  0
    8.1050   13.4200   -1.8580 C   0  0  0  0  0  0  0  0  0  0  0  0
    6.9540   13.8890   -2.1190 O   0  0  0  0  0  0  0  0  0  0  0  0
    9.2350   13.9340   -2.0990 O   0  0  0  0  0  0  0  0  0  0  0  0
    8.7870    9.9730    1.1880 C   0  0  0  0  0  0  0  0  0  0  0  0
    8.2290    9.1780    2.1890 C   0  0  0  0  0  0  0  0  0  0  0  0
    7.2470    9.6980    3.0450 C   0  0  0  0  0  0  0  0  0  0  0  0
    6.5630    8.6060    4.1940 Cl  0  0  0  0  0  0  0  0  0  0  0  0
    5.6220   14.2040    4.0480 C   0  0  0  0  0  0  0  0  0  0  0  0
    4.6560   14.5650    3.0900 C   0  0  0  0  0  0  0  0  0  0  0  0
    4.3180   15.9170    2.9280 C   0  0  0  0  0  0  0  0  0  0  0  0
    3.3760   16.1410    1.9630 O   0  0  0  0  0  0  0  0  0  0  0  0
    2.2420   16.9120    2.3090 C   0  0  0  0  0  0  0  0  0  0  0  0
    1.2820   16.7280    1.3750 F   0  0  0  0  0  0  0  0  0  0  0  0
    2.5360   18.2300    2.3470 F   0  0  0  0  0  0  0  0  0  0  0  0
    1.7350   16.5330    3.5040 F   0  0  0  0  0  0  0  0  0  0  0  0
    4.9320   16.8850    3.7170 C   0  0  0  0  0  0  0  0  0  0  0  0
    5.8790   16.5200    4.6820 C   0  0  0  0  0  0  0  0  0  0  0  0
    6.2310   15.1640    4.8590 C   0  0  0  0  0  0  0  0  0  0  0  0
    7.3100   15.9420    7.7190 N   0  0  0  0  0  0  0  0  0  0  0  0
    8.3570   16.3520    8.5310 O   0  0  0  0  0  0  0  0  0  0  0  0
    9.5120   15.7660    8.1130 C   0  0  0  0  0  0  0  0  0  0  0  0
   10.7690   15.9350    8.6950 C   0  0  0  0  0  0  0  0  0  0  0  0
   13.8322   16.7671    9.7543 H   0  0  0  0  0  0  0  0  0  0  0  0
   14.7165   16.5382    8.2076 H   0  0  0  0  0  0  0  0  0  0  0  0
   13.0883   17.2971    8.2076 H   0  0  0  0  0  0  0  0  0  0  0  0
   12.4397   13.8444    6.5654 H   0  0  0  0  0  0  0  0  0  0  0  0
   10.1542   13.5891    5.5786 H   0  0  0  0  0  0  0  0  0  0  0  0
    7.6790   12.0655    7.1963 H   0  0  0  0  0  0  0  0  0  0  0  0
    7.2643   11.0274    5.7902 H   0  0  0  0  0  0  0  0  0  0  0  0
    8.7929   11.9710    5.7902 H   0  0  0  0  0  0  0  0  0  0  0  0
    5.5171   10.9925    4.5993 H   0  0  0  0  0  0  0  0  0  0  0  0
    4.9347   11.9091    3.1124 H   0  0  0  0  0  0  0  0  0  0  0  0
    7.0923   12.8625    1.7893 H   0  0  0  0  0  0  0  0  0  0  0  0
    7.0477   11.7873   -0.9403 H   0  0  0  0  0  0  0  0  0  0  0  0
    9.1596   10.1768   -1.4986 H   0  0  0  0  0  0  0  0  0  0  0  0
    7.9099   10.5472   -2.7347 H   0  0  0  0  0  0  0  0  0  0  0  0
    9.4666   11.4435   -2.7347 H   0  0  0  0  0  0  0  0  0  0  0  0
    9.5709    9.5689    0.5306 H   0  0  0  0  0  0  0  0  0  0  0  0
    8.5613    8.1362    2.3080 H   0  0  0  0  0  0  0  0  0  0  0  0
    4.1704   13.7940    2.4738 H   0  0  0  0  0  0  0  0  0  0  0  0
    4.6715   17.9451    3.5816 H   0  0  0  0  0  0  0  0  0  0  0  0
    6.3511   17.2937    5.3053 H   0  0  0  0  0  0  0  0  0  0  0  0
   10.9224   16.5904    9.5650 H   0  0  0  0  0  0  0  0  0  0  0  0
  1  2  1  0
  2  3  1  0
  3  4  2  0
  4  5  1  0
  5  6  2  0
  6  7  1  0
  7  8  1  0
  8  9  2  0
  9 10  1  0
  9 11  1  0
 11 12  1  0
 12 13  1  0
 13 14  2  0
 14 15  1  0
 15 16  1  0
 16 17  1  0
 17 18  1  0
 17 19  1  0
 19 20  2  0
 19 21  1  0
 15 22  2  0
 22 23  1  0
 23 24  2  0
 24 25  1  0
 11 26  1  0
 26 27  2  0
 27 28  1  0
 28 29  1  0
 29 30  1  0
 30 31  1  0
 30 32  1  0
 30 33  1  0
 28 34  2  0
 34 35  1  0
 35 36  2  0
  7 37  2  0
 37 38  1  0
 38 39  1  0
 39 40  2  0
 40  3  1  0
 39  6  1  0
 36  8  1  0
 24 13  1  0
 36 26  1  0
  1 41  1  0
  1 42  1  0
  1 43  1  0
  4 44  1  0
  5 45  1  0
 10 46  1  0
 10 47  1  0
 10 48  1  0
 12 49  1  0
 12 50  1  0
 14 51  1  0
 17 52  1  1
 18 53  1  0
 18 54  1  0
 18 55  1  0
 22 56  1  0
 23 57  1  0
 27 58  1  0
 34 59  1  0
 35 60  1  0
 40 61  1  0
M  CHG  1  21  -1
M  END
>  <meeko>  (7) 
{"is_sidechain": [false], "free_energy": -7.431, "intermolecular_energy": -11.225, "internal_energy": -1.91}

$$$$
2p4y_ligand
     RDKit          3D

 61 65  0  0  0  0  0  0  0  0999 V2000
   10.5640   16.9520   -4.9500 C   0  0  0  0  0  0  0  0  0  0  0  0
   11.1910   15.7110   -4.6480 O   0  0  0  0  0  0  0  0  0  0  0  0
   10.4740   14.8240   -3.8860 C   0  0  0  0  0  0  0  0  0  0  0  0
    9.6740   15.4260   -2.9060 C   0  0  0  0  0  0  0  0  0  0  0  0
    8.8760   14.6670   -2.0370 C   0  0  0  0  0  0  0  0  0  0  0  0
    8.8970   13.2680   -2.1660 C   0  0  0  0  0  0  0  0  0  0  0  0
    8.2930   12.1430   -1.5510 C   0  0  0  0  0  0  0  0  0  0  0  0
    7.3460   12.2100   -0.4380 C   0  0  0  0  0  0  0  0  0  0  0  0
    6.1850   12.9600   -0.3540 C   0  0  0  0  0  0  0  0  0  0  0  0
    5.5950   13.9200   -1.3300 C   0  0  0  0  0  0  0  0  0  0  0  0
    5.6100   12.6830    0.8810 N   0  0  0  0  0  0  0  0  0  0  0  0
    4.3400   13.2400    1.3630 C   0  0  0  0  0  0  0  0  0  0  0  0
    4.4650   14.4550    2.2520 C   0  0  0  0  0  0  0  0  0  0  0  0
    5.4090   14.3940    3.2960 C   0  0  0  0  0  0  0  0  0  0  0  0
    5.5550   15.4430    4.2010 C   0  0  0  0  0  0  0  0  0  0  0  0
    6.4750   15.3910    5.2090 O   0  0  0  0  0  0  0  0  0  0  0  0
    6.3660   14.1680    5.9870 C   0  0  2  0  0  0  0  0  0  0  0  0
    5.7960   14.5570    7.3450 C   0  0  0  0  0  0  0  0  0  0  0  0
    7.7550   13.4910    6.1550 C   0  0  0  0  0  0  0  0  0  0  0  0
    7.7130   12.2380    6.3510 O   0  0  0  0  0  0  0  0  0  0  0  0
    8.7710   14.2440    6.1000 O   0  0  0  0  0  0  0  0  0  0  0  0
    4.8010   16.6000    4.0590 C   0  0  0  0  0  0  0  0  0  0  0  0
    3.8490   16.6770    3.0430 C   0  0  0  0  0  0  0  0  0  0  0  0
    3.6670   15.6060    2.1570 C   0  0  0  0  0  0  0  0  0  0  0  0
    2.4050   15.7700    0.9910 Cl  0  0  0  0  0  0  0  0  0  0  0  0
    6.3600   11.7210    1.5440 C   0  0  0  0  0  0  0  0  0  0  0  0
    6.1580   11.0670    2.7740 C   0  0  0  0  0  0  0  0  0  0  0  0
    7.1110   10.1440    3.2280 C   0  0  0  0  0  0  0  0  0  0  0  0
    6.8070    9.5830    4.4380 O   0  0  0  0  0  0  0  0  0  0  0  0
    7.2370    8.2590    4.6820 C   0  0  0  0  0  0  0  0  0  0  0  0
    6.4950    7.7310    5.6820 F   0  0  0  0  0  0  0  0  0  0  0  0
    8.5330    8.2220    5.0630 F   0  0  0  0  0  0  0  0  0  0  0  0
    7.0720    7.4790    3.5900 F   0  0  0  0  0  0  0  0  0  0  0  0
    8.2390    9.8760    2.4590 C   0  0  0  0  0  0  0  0  0  0  0  0
    8.4280   10.5140    1.2260 C   0  0  0  0  0  0  0  0  0  0  0  0
    7.4790   11.4460    0.7540 C   0  0  0  0  0  0  0  0  0  0  0  0
    8.6650   10.9930   -2.1290 N   0  0  0  0  0  0  0  0  0  0  0  0
    9.5570   11.3550   -3.1280 O   0  0  0  0  0  0  0  0  0  0  0  0
    9.6910   12.7080   -3.1510 C   0  0  0  0  0  0  0  0  0  0  0  0
   10.4960   13.4330   -4.0300 C   0  0  0  0  0  0  0  0  0  0  0  0
   10.3032   17.4683   -4.0144 H   0  0  0  0  0  0  0  0  0  0  0  0
   11.2537   17.5786   -5.5346 H   0  0  0  0  0  0  0  0  0  0  0  0
    9.6504   16.7686   -5.5346 H   0  0  0  0  0  0  0  0  0  0  0  0
    9.6715   16.5223   -2.8156 H   0  0  0  0  0  0  0  0  0  0  0  0
    8.2503   15.1543   -1.2747 H   0  0  0  0  0  0  0  0  0  0  0  0
    5.0944   14.7346   -0.7861 H   0  0  0  0  0  0  0  0  0  0  0  0
    6.3928   14.3372   -1.9620 H   0  0  0  0  0  0  0  0  0  0  0  0
    4.8625   13.3966   -1.9620 H   0  0  0  0  0  0  0  0  0  0  0  0
    3.7373   13.5205    0.4866 H   0  0  0  0  0  0  0  0  0  0  0  0
    3.8789   12.4560    1.9817 H   0  0  0  0  0  0  0  0  0  0  0  0
    6.0430   13.5009    3.3985 H   0  0  0  0  0  0  0  0  0  0  0  0
    5.7141   13.4429    5.4778 H   0  0  0  0  0  0  0  0  0  0  0  0
    6.4225   14.1295    8.1417 H   0  0  0  0  0  0  0  0  0  0  0  0
    5.7832   15.6531    7.4370 H   0  0  0  0  0  0  0  0  0  0  0  0
    4.7707   14.1694    7.4370 H   0  0  0  0  0  0  0  0  0  0  0  0
    4.9532   17.4487    4.7421 H   0  0  0  0  0  0  0  0  0  0  0  0
    3.2366   17.5845    2.9360 H   0  0  0  0  0  0  0  0  0  0  0  0
    5.2604   11.2781    3.3738 H   0  0  0  0  0  0  0  0  0  0  0  0
    8.9886    9.1574    2.8220 H   0  0  0  0  0  0  0  0  0  0  0  0
    9.3199   10.2875    0.6232 H   0  0  0  0  0  0  0  0  0  0  0  0
   11.1137   12.9381   -4.7939 H   0  0  0  0  0  0  0  0  0  0  0  0
  1  2  1  0
  2  3  1  0
  3  4  2  0
  4  5  1  0
  5  6  2  0
  6  7  1  0
  7  8  1  0
  8  9  2  0
  9 10  1  0
  9 11  1  0
 11 12  1  0
 12 13  1  0
 13 14  2  0
 14 15  1  0
 15 16  1  0
 16 17  1  0
 17 18  1  0
 17 19  1  0
 19 20  2  0
 19 21  1  0
 15 22  2  0
 22 23  1  0
 23 24  2  0
 24 25  1  0
 11 26  1  0
 26 27  2  0
 27 28  1  0
 28 29  1  0
 29 30  1  0
 30 31  1  0
 30 32  1  0
 30 33  1  0
 28 34  2  0
 34 35  1  0
 35 36  2  0
  7 37  2  0
 37 38  1  0
 38 39  1  0
 39 40  2  0
 40  3  1  0
 39  6  1  0
 36  8  1  0
 24 13  1  0
 36 26  1  0
  1 41  1  0
  1 42  1  0
  1 43  1  0
  4 44  1  0
  5 45  1  0
 10 46  1  0
 10 47  1  0
 10 48  1  0
 12 49  1  0
 12 50  1  0
 14 51  1  0
 17 52  1  6
 18 53  1  0
 18 54  1  0
 18 55  1  0
 22 56  1  0
 23 57  1  0
 27 58  1  0
 34 59  1  0
 35 60  1  0
 40 61  1  0
M  CHG  1  21  -1
M  END
>  <meeko>  (8) 
{"is_sidechain": [false], "free_energy": -7.34, "intermolecular_energy": -11.193, "internal_energy": -1.801}

$$$$
2p4y_ligand
     RDKit          3D

 61 65  0  0  0  0  0  0  0  0999 V2000
   10.8970    8.1080   -4.4510 C   0  0  0  0  0  0  0  0  0  0  0  0
   11.5140    9.2540   -3.8750 O   0  0  0  0  0  0  0  0  0  0  0  0
   10.6920   10.1430   -3.2310 C   0  0  0  0  0  0  0  0  0  0  0  0
    9.7250    9.5410   -2.4140 C   0  0  0  0  0  0  0  0  0  0  0  0
    8.8010   10.3030   -1.6820 C   0  0  0  0  0  0  0  0  0  0  0  0
    8.8600   11.7020   -1.7890 C   0  0  0  0  0  0  0  0  0  0  0  0
    8.1750   12.8300   -1.2700 C   0  0  0  0  0  0  0  0  0  0  0  0
    7.0460   12.7640   -0.3420 C   0  0  0  0  0  0  0  0  0  0  0  0
    7.0310   12.2490    0.9440 C   0  0  0  0  0  0  0  0  0  0  0  0
    8.1200   11.5950    1.7240 C   0  0  0  0  0  0  0  0  0  0  0  0
    5.7430   12.4240    1.4360 N   0  0  0  0  0  0  0  0  0  0  0  0
    5.2990   12.0500    2.7850 C   0  0  0  0  0  0  0  0  0  0  0  0
    5.8200   12.9250    3.9010 C   0  0  0  0  0  0  0  0  0  0  0  0
    6.7070   12.3320    4.8220 C   0  0  0  0  0  0  0  0  0  0  0  0
    7.1940   13.0430    5.9160 C   0  0  0  0  0  0  0  0  0  0  0  0
    8.0600   12.4750    6.8060 O   0  0  0  0  0  0  0  0  0  0  0  0
    9.0350   13.4290    7.3050 C   0  0  2  0  0  0  0  0  0  0  0  0
   10.3140   12.6490    7.5840 C   0  0  0  0  0  0  0  0  0  0  0  0
    8.5250   14.1170    8.6020 C   0  0  0  0  0  0  0  0  0  0  0  0
    7.8820   13.3550    9.3880 O   0  0  0  0  0  0  0  0  0  0  0  0
    8.7780   15.3490    8.7360 O   0  0  0  0  0  0  0  0  0  0  0  0
    6.8530   14.3770    6.0930 C   0  0  0  0  0  0  0  0  0  0  0  0
    5.9640   14.9800    5.2040 C   0  0  0  0  0  0  0  0  0  0  0  0
    5.4350   14.2550    4.1260 C   0  0  0  0  0  0  0  0  0  0  0  0
    4.2790   15.0710    3.1360 Cl  0  0  0  0  0  0  0  0  0  0  0  0
    4.9700   13.1000    0.5020 C   0  0  0  0  0  0  0  0  0  0  0  0
    3.6430   13.5690    0.5550 C   0  0  0  0  0  0  0  0  0  0  0  0
    3.0910   14.2030   -0.5670 C   0  0  0  0  0  0  0  0  0  0  0  0
    1.7950   14.6040   -0.3950 O   0  0  0  0  0  0  0  0  0  0  0  0
    1.5440   15.9870   -0.2390 C   0  0  0  0  0  0  0  0  0  0  0  0
    0.2570   16.1630    0.1360 F   0  0  0  0  0  0  0  0  0  0  0  0
    1.7320   16.6570   -1.3980 F   0  0  0  0  0  0  0  0  0  0  0  0
    2.3310   16.5260    0.7190 F   0  0  0  0  0  0  0  0  0  0  0  0
    3.8580   14.3710   -1.7160 C   0  0  0  0  0  0  0  0  0  0  0  0
    5.1840   13.9210   -1.7590 C   0  0  0  0  0  0  0  0  0  0  0  0
    5.7550   13.2810   -0.6380 C   0  0  0  0  0  0  0  0  0  0  0  0
    8.7040   13.9820   -1.7020 N   0  0  0  0  0  0  0  0  0  0  0  0
    9.7390   13.6180   -2.5490 O   0  0  0  0  0  0  0  0  0  0  0  0
    9.8340   12.2620   -2.5970 C   0  0  0  0  0  0  0  0  0  0  0  0
   10.7660   11.5350   -3.3380 C   0  0  0  0  0  0  0  0  0  0  0  0
   10.5391    7.4432   -3.6510 H   0  0  0  0  0  0  0  0  0  0  0  0
   10.0467    8.4233   -5.0736 H   0  0  0  0  0  0  0  0  0  0  0  0
   11.6283    7.5718   -5.0736 H   0  0  0  0  0  0  0  0  0  0  0  0
    9.6894    8.4438   -2.3448 H   0  0  0  0  0  0  0  0  0  0  0  0
    8.0504    9.8171   -1.0414 H   0  0  0  0  0  0  0  0  0  0  0  0
    7.9226   11.7135    2.7996 H   0  0  0  0  0  0  0  0  0  0  0  0
    8.1581   10.5245    1.4740 H   0  0  0  0  0  0  0  0  0  0  0  0
    9.0829   12.0644    1.4740 H   0  0  0  0  0  0  0  0  0  0  0  0
    4.2000   12.0918    2.8050 H   0  0  0  0  0  0  0  0  0  0  0  0
    5.7048   11.0447    2.9714 H   0  0  0  0  0  0  0  0  0  0  0  0
    7.0205   11.2881    4.6739 H   0  0  0  0  0  0  0  0  0  0  0  0
    9.2105   14.2248    6.5662 H   0  0  0  0  0  0  0  0  0  0  0  0
   10.4596   12.5602    8.6707 H   0  0  0  0  0  0  0  0  0  0  0  0
   10.2352   11.6451    7.1414 H   0  0  0  0  0  0  0  0  0  0  0  0
   11.1704   13.1787    7.1414 H   0  0  0  0  0  0  0  0  0  0  0  0
    7.2802   14.9531    6.9270 H   0  0  0  0  0  0  0  0  0  0  0  0
    5.6755   16.0315    5.3491 H   0  0  0  0  0  0  0  0  0  0  0  0
    3.0448   13.4390    1.4689 H   0  0  0  0  0  0  0  0  0  0  0  0
    3.4195   14.8612   -2.5977 H   0  0  0  0  0  0  0  0  0  0  0  0
    5.7827   14.0670   -2.6702 H   0  0  0  0  0  0  0  0  0  0  0  0
   11.5173   12.0295   -3.9712 H   0  0  0  0  0  0  0  0  0  0  0  0
  1  2  1  0
  2  3  1  0
  3  4  2  0
  4  5  1  0
  5  6  2  0
  6  7  1  0
  7  8  1  0
  8  9  2  0
  9 10  1  0
  9 11  1  0
 11 12  1  0
 12 13  1  0
 13 14  2  0
 14 15  1  0
 15 16  1  0
 16 17  1  0
 17 18  1  0
 17 19  1  0
 19 20  2  0
 19 21  1  0
 15 22  2  0
 22 23  1  0
 23 24  2  0
 24 25  1  0
 11 26  1  0
 26 27  2  0
 27 28  1  0
 28 29  1  0
 29 30  1  0
 30 31  1  0
 30 32  1  0
 30 33  1  0
 28 34  2  0
 34 35  1  0
 35 36  2  0
  7 37  2  0
 37 38  1  0
 38 39  1  0
 39 40  2  0
 40  3  1  0
 39  6  1  0
 36  8  1  0
 24 13  1  0
 36 26  1  0
  1 41  1  0
  1 42  1  0
  1 43  1  0
  4 44  1  0
  5 45  1  0
 10 46  1  0
 10 47  1  0
 10 48  1  0
 12 49  1  0
 12 50  1  0
 14 51  1  0
 17 52  1  6
 18 53  1  0
 18 54  1  0
 18 55  1  0
 22 56  1  0
 23 57  1  0
 27 58  1  0
 34 59  1  0
 35 60  1  0
 40 61  1  0
M  CHG  1  21  -1
M  END
>  <meeko>  (9) 
{"is_sidechain": [false], "free_energy": -7.268, "intermolecular_energy": -11.657, "internal_energy": -1.227}

$$$$
