
     RDKit          3D

 67 69  0  0  0  0  0  0  0  0999 V2000
  -11.3470   -3.8840    2.1250 N   0  0  0  0  0  0  0  0  0  0  0  0
  -12.2040   -4.6890    2.5740 C   0  0  0  0  0  0  0  0  0  0  0  0
  -11.8470   -5.8040    3.1780 N   0  0  0  0  0  0  0  0  0  0  0  0
  -13.5000   -4.4160    2.4530 N   0  0  0  0  0  0  0  0  0  0  0  0
  -14.0760   -3.2990    1.8260 C   0  0  0  0  0  0  0  0  0  0  0  0
  -15.3440   -3.7160    1.1830 C   0  0  0  0  0  0  0  0  0  0  0  0
  -15.2650   -3.5550   -0.2970 C   0  0  0  0  0  0  0  0  0  0  0  0
  -15.3320   -4.8560   -1.0330 C   0  0  2  0  0  0  0  0  0  0  0  0
  -14.0150   -5.1570   -1.5790 N   0  0  0  0  0  0  0  0  0  0  0  0
  -13.6740   -6.3780   -1.9750 C   0  0  0  0  0  0  0  0  0  0  0  0
  -14.4250   -7.3120   -1.8510 O   0  0  0  0  0  0  0  0  0  0  0  0
  -12.2820   -6.5150   -2.5610 C   0  0  2  0  0  0  0  0  0  0  0  0
  -12.4360   -6.9310   -4.0460 C   0  0  0  0  0  0  0  0  0  0  0  0
  -11.6340   -6.0680   -4.9930 C   0  0  0  0  0  0  0  0  0  0  0  0
  -11.8990   -4.6390   -4.7680 C   0  0  0  0  0  0  0  0  0  0  0  0
  -11.7210   -3.8880   -5.9800 N   0  0  0  0  0  0  0  0  0  0  0  0
  -11.3160   -2.6400   -6.0470 C   0  0  0  0  0  0  0  0  0  0  0  0
  -11.7110   -1.9040   -7.0360 N   0  0  0  0  0  0  0  0  0  0  0  0
  -10.5160   -2.1430   -5.0910 N   0  0  0  0  0  0  0  0  0  0  0  0
  -11.5080   -7.5220   -1.8140 N   0  0  0  0  0  0  0  0  0  0  0  0
  -10.4890   -7.2480   -1.0020 C   0  0  0  0  0  0  0  0  0  0  0  0
  -10.1860   -6.1130   -0.7560 O   0  0  0  0  0  0  0  0  0  0  0  0
   -9.7350   -8.4000   -0.4360 C   0  0  0  0  0  0  0  0  0  0  0  0
  -10.4740   -9.1770    0.5630 C   0  0  0  0  0  0  0  0  0  0  0  0
   -9.6780  -10.3560    1.0170 C   0  0  0  0  0  0  0  0  0  0  0  0
  -10.3650  -11.1000    2.0620 C   0  0  0  0  0  0  0  0  0  0  0  0
   -9.7560  -12.4210    2.3570 C   0  0  0  0  0  0  0  0  0  0  0  0
   -8.3920  -12.4730    2.7350 N   0  0  0  0  0  0  0  0  0  0  0  0
   -7.7600  -11.7350    3.6790 C   0  0  0  0  0  0  0  0  0  0  0  0
   -8.2800  -10.8160    4.2520 O   0  0  0  0  0  0  0  0  0  0  0  0
   -6.3400  -12.1220    3.9820 C   0  0  1  0  0  0  0  0  0  0  0  0
   -5.4040  -11.8960    2.8390 C   0  0  0  0  0  0  0  0  0  0  0  0
   -4.3690  -12.9950    2.7790 C   0  0  0  0  0  0  0  0  0  0  0  0
   -3.1750  -12.6220    2.0080 C   0  0  0  0  0  0  0  0  0  0  0  0
   -1.9090  -12.7240    2.8220 C   0  0  0  0  0  0  0  0  0  0  0  0
   -1.9530  -11.8680    4.0110 N   0  0  0  0  0  0  0  0  0  0  0  0
   -5.8550  -11.4550    5.1600 N   0  0  0  0  0  0  0  0  0  0  0  0
   -6.2690  -11.7180    6.4170 C   0  0  0  0  0  0  0  0  0  0  0  0
   -7.1210  -12.5590    6.6260 O   0  0  0  0  0  0  0  0  0  0  0  0
   -5.6320  -10.9250    7.5600 C   0  0  0  0  0  0  0  0  0  0  0  0
   -6.6090   -9.8950    8.1680 C   0  0  0  0  0  0  0  0  0  0  0  0
   -6.9210   -8.8400    7.1780 C   0  0  0  0  0  0  0  0  0  0  0  0
   -7.8010   -7.7420    7.7150 C   0  0  0  0  0  0  0  0  0  0  0  0
   -8.0790   -6.8260    6.5750 C   0  0  0  0  0  0  0  0  0  0  0  0
   -8.8130   -5.6710    6.9380 N   0  0  0  0  0  0  0  0  0  0  0  0
   -8.2180   -4.4660    7.2280 C   0  0  0  0  0  0  0  0  0  0  0  0
   -7.0300   -4.2960    7.3040 O   0  0  0  0  0  0  0  0  0  0  0  0
   -9.1430   -3.3230    7.4640 C   0  0  1  0  0  0  0  0  0  0  0  0
   -9.0370   -2.9210    8.8430 O   0  0  0  0  0  0  0  0  0  0  0  0
   -9.0710   -1.5120    8.9200 C   0  0  1  0  0  0  0  0  0  0  0  0
   -7.7650   -1.1060    9.4050 N   0  0  0  0  0  0  0  0  0  0  0  0
   -6.5790   -1.7300    9.2540 C   0  0  0  0  0  0  0  0  0  0  0  0
   -5.5970   -1.0620    9.8350 N   0  0  0  0  0  0  0  0  0  0  0  0
   -6.1440    0.0300   10.3660 C   0  0  0  0  0  0  0  0  0  0  0  0
   -5.6170    1.1250   11.0900 C   0  0  0  0  0  0  0  0  0  0  0  0
   -4.3190    1.2300   11.3800 N   0  0  0  0  0  0  0  0  0  0  0  0
   -6.4660    2.1000   11.5170 N   0  0  0  0  0  0  0  0  0  0  0  0
   -7.7670    1.9920   11.2210 C   0  0  0  0  0  0  0  0  0  0  0  0
   -8.3320    0.9820   10.5390 N   0  0  0  0  0  0  0  0  0  0  0  0
   -7.5130    0.0140   10.1100 C   0  0  0  0  0  0  0  0  0  0  0  0
   -9.3570   -0.9930    7.5490 C   0  0  2  0  0  0  0  0  0  0  0  0
  -10.7760   -0.8890    7.3680 O   0  0  0  0  0  0  0  0  0  0  0  0
   -8.8180   -2.0770    6.6880 C   0  0  2  0  0  0  0  0  0  0  0  0
   -9.4140   -2.1070    5.3940 O   0  0  0  0  0  0  0  0  0  0  0  0
  -16.3340   -4.7910   -2.1430 C   0  0  0  0  0  0  0  0  0  0  0  0
  -17.5260   -5.3530   -1.9980 N   0  0  0  0  0  0  0  0  0  0  0  0
  -16.0350   -4.2460   -3.1860 O   0  0  0  0  0  0  0  0  0  0  0  0
  2  1  2  0
  3  2  1  0
  4  2  1  0
  5  4  1  0
  6  5  1  0
  7  6  1  0
  8  7  1  6
  9  8  1  0
 10  9  1  0
 11 10  2  0
 12 10  1  0
 12 13  1  6
 14 13  1  0
 15 14  1  0
 16 15  1  0
 17 16  1  0
 18 17  2  0
 19 17  1  0
 20 12  1  0
 21 20  1  0
 22 21  2  0
 23 21  1  0
 24 23  1  0
 25 24  1  0
 26 25  1  0
 27 26  1  0
 28 27  1  0
 29 28  1  0
 30 29  2  0
 31 29  1  0
 31 32  1  6
 33 32  1  0
 34 33  1  0
 35 34  1  0
 36 35  1  0
 37 31  1  0
 38 37  1  0
 39 38  2  0
 40 38  1  0
 41 40  1  0
 42 41  1  0
 43 42  1  0
 44 43  1  0
 45 44  1  0
 46 45  1  0
 47 46  2  0
 48 46  1  6
 49 48  1  0
 50 49  1  0
 50 51  1  6
 52 51  1  0
 53 52  2  0
 54 53  1  0
 55 54  2  0
 56 55  1  0
 57 55  1  0
 58 57  2  0
 59 58  1  0
 60 59  2  0
 60 54  1  0
 60 51  1  0
 61 50  1  0
 61 62  1  1
 63 61  1  0
 63 48  1  0
 63 64  1  6
 65  8  1  0
 66 65  1  0
 67 65  2  0
M  CHG  3   1   1  18   1  36   1
M  END
$$$$
