
     RDKit          3D

 28 31  0  0  0  0  0  0  0  0999 V2000
   -3.2510    3.9700   -2.6870 C   0  0  0  0  0  0  0  0  0  0  0  0
   -2.2970    4.9170   -3.1330 O   0  0  0  0  0  0  0  0  0  0  0  0
   -2.6070    5.7190   -4.2070 C   0  0  0  0  0  0  0  0  0  0  0  0
   -3.9170    6.0570   -4.5680 C   0  0  0  0  0  0  0  0  0  0  0  0
   -4.1530    6.8660   -5.6880 C   0  0  0  0  0  0  0  0  0  0  0  0
   -3.0740    7.3420   -6.4420 C   0  0  0  0  0  0  0  0  0  0  0  0
   -1.7530    7.0120   -6.0730 C   0  0  0  0  0  0  0  0  0  0  0  0
   -0.5980    7.4710   -6.8910 C   0  0  0  0  0  0  0  0  0  0  0  0
   -0.5160    8.7890   -7.3740 C   0  0  0  0  0  0  0  0  0  0  0  0
    0.5630    9.1930   -8.1800 C   0  0  0  0  0  0  0  0  0  0  0  0
    1.5630    8.2500   -8.5070 C   0  0  0  0  0  0  0  0  0  0  0  0
    1.4950    6.9440   -8.0120 C   0  0  0  0  0  0  0  0  0  0  0  0
    2.5360    5.8810   -8.3920 C   0  0  1  0  0  0  0  0  0  0  0  0
    3.7880    6.4700   -9.0490 C   0  0  0  0  0  0  0  0  0  0  0  0
    4.0840    6.2840  -10.4160 C   0  0  0  0  0  0  0  0  0  0  0  0
    5.2450    6.8290  -11.0190 C   0  0  0  0  0  0  0  0  0  0  0  0
    6.1510    7.5470  -10.2270 C   0  0  0  0  0  0  0  0  0  0  0  0
    5.8960    7.7350   -8.8490 C   0  0  0  0  0  0  0  0  0  0  0  0
    4.7270    7.1760   -8.2780 C   0  0  0  0  0  0  0  0  0  0  0  0
    2.9690    5.0630   -7.2410 N   0  0  0  0  0  0  0  0  0  0  0  0
    2.6360    3.7690   -7.4320 C   0  0  0  0  0  0  0  0  0  0  0  0
    2.9150    2.7920   -6.6320 N   0  0  0  0  0  0  0  0  0  0  0  0
    1.9350    3.6230   -8.6250 N   0  0  0  0  0  0  0  0  0  0  0  0
    1.3710    2.3580   -9.1420 C   0  0  0  0  0  0  0  0  0  0  0  0
    1.8280    4.8380   -9.2480 C   0  0  0  0  0  0  0  0  0  0  0  0
    1.2300    5.0270  -10.2900 O   0  0  0  0  0  0  0  0  0  0  0  0
    0.4080    6.5430   -7.2090 C   0  0  0  0  0  0  0  0  0  0  0  0
   -1.5140    6.2060   -4.9500 C   0  0  0  0  0  0  0  0  0  0  0  0
  2  1  1  0
  3  2  1  0
  4  3  2  0
  5  4  1  0
  6  5  2  0
  7  6  1  0
  8  7  1  0
  9  8  2  0
 10  9  1  0
 11 10  2  0
 12 11  1  0
 13 12  1  1
 14 13  1  0
 15 14  2  0
 16 15  1  0
 17 16  2  0
 18 17  1  0
 19 14  1  0
 19 18  2  0
 20 13  1  0
 21 20  1  0
 22 21  2  0
 23 21  1  0
 24 23  1  0
 25 23  1  0
 25 13  1  0
 26 25  2  0
 27 12  2  0
 27  8  1  0
 28  7  2  0
 28  3  1  0
M  CHG  1  22   1
M  END
$$$$
