2zcr_ligand
     RDKit          3D

 53 54  0  0  0  0  0  0  0  0999 V2000
    7.0170    5.7520    0.0850 C   0  0  0  0  0  0  0  0  0  0  0  0
    6.2790    7.0770   -0.0230 C   0  0  0  0  0  0  0  0  0  0  0  0
    6.1010    7.5640   -1.4650 C   0  0  0  0  0  0  0  0  0  0  0  0
    4.6770    7.4520   -2.0220 C   0  0  0  0  0  0  0  0  0  0  0  0
    3.9810    6.1630   -1.6660 C   0  0  0  0  0  0  0  0  0  0  0  0
    4.3700    4.9550   -2.2570 C   0  0  0  0  0  0  0  0  0  0  0  0
    3.7200    3.7610   -1.9290 C   0  0  0  0  0  0  0  0  0  0  0  0
    2.6660    3.7380   -1.0020 C   0  0  0  0  0  0  0  0  0  0  0  0
    1.9810    2.4810   -0.6560 C   0  0  0  0  0  0  0  0  0  0  0  0
    1.1900    2.3810    0.5000 C   0  0  0  0  0  0  0  0  0  0  0  0
    0.5540    1.1810    0.8370 C   0  0  0  0  0  0  0  0  0  0  0  0
    0.6860    0.0500    0.0230 C   0  0  0  0  0  0  0  0  0  0  0  0
    0.0160   -1.2520    0.4040 C   0  0  0  0  0  0  0  0  0  0  0  0
   -1.3980   -1.3910   -0.1670 C   0  0  0  0  0  0  0  0  0  0  0  0
   -2.5340   -1.4300    0.8640 C   0  0  0  0  0  0  0  0  0  0  0  0
   -2.2230   -0.9280    2.2910 C   0  0  2  0  0  0  0  0  0  0  0  0
   -1.6000   -2.1840    3.4340 P   0  0  2  0  0  5  0  0  0  0  0  0
   -0.1130   -2.1150    3.6730 O   0  0  0  0  0  0  0  0  0  0  0  0
   -2.1680   -3.5270    3.0030 O   0  0  0  0  0  0  0  0  0  0  0  0
   -2.3410   -1.8140    4.8320 O   0  0  0  0  0  0  0  0  0  0  0  0
   -3.6940   -0.2030    3.0250 S   0  0  0  0  0  0  0  0  0  0  0  0
   -3.2390    0.6330    4.1320 O   0  0  0  0  0  0  0  0  0  0  0  0
   -4.5540   -1.3330    3.3950 O   0  0  0  0  0  0  0  0  0  0  0  0
   -4.2740    0.6070    1.9440 O   0  0  0  0  0  0  0  0  0  0  0  0
    1.4710    0.1410   -1.1300 C   0  0  0  0  0  0  0  0  0  0  0  0
    2.1100    1.3390   -1.4620 C   0  0  0  0  0  0  0  0  0  0  0  0
    2.2860    4.9540   -0.4120 C   0  0  0  0  0  0  0  0  0  0  0  0
    2.9330    6.1500   -0.7390 C   0  0  0  0  0  0  0  0  0  0  0  0
    7.1591    5.4968    1.1455 H   0  0  0  0  0  0  0  0  0  0  0  0
    6.4282    4.9633   -0.4062 H   0  0  0  0  0  0  0  0  0  0  0  0
    7.9975    5.8373   -0.4062 H   0  0  0  0  0  0  0  0  0  0  0  0
    5.2834    6.9585    0.4295 H   0  0  0  0  0  0  0  0  0  0  0  0
    6.8886    7.8294    0.4988 H   0  0  0  0  0  0  0  0  0  0  0  0
    6.4000    8.6218   -1.5061 H   0  0  0  0  0  0  0  0  0  0  0  0
    6.7245    6.9059   -2.0880 H   0  0  0  0  0  0  0  0  0  0  0  0
    4.0828    8.2877   -1.6240 H   0  0  0  0  0  0  0  0  0  0  0  0
    4.7604    7.4773   -3.1185 H   0  0  0  0  0  0  0  0  0  0  0  0
    5.1940    4.9449   -2.9856 H   0  0  0  0  0  0  0  0  0  0  0  0
    4.0404    2.8230   -2.4059 H   0  0  0  0  0  0  0  0  0  0  0  0
    1.0685    3.2596    1.1507 H   0  0  0  0  0  0  0  0  0  0  0  0
   -0.0558    1.1260    1.7508 H   0  0  0  0  0  0  0  0  0  0  0  0
    0.6288   -2.0842    0.0272 H   0  0  0  0  0  0  0  0  0  0  0  0
   -0.0707   -1.2670    1.5005 H   0  0  0  0  0  0  0  0  0  0  0  0
   -1.5778   -0.5357   -0.8350 H   0  0  0  0  0  0  0  0  0  0  0  0
   -1.4209   -2.3671   -0.6736 H   0  0  0  0  0  0  0  0  0  0  0  0
   -3.3564   -0.8144    0.4707 H   0  0  0  0  0  0  0  0  0  0  0  0
   -2.7618   -2.4990    0.9878 H   0  0  0  0  0  0  0  0  0  0  0  0
   -1.4166   -0.1929    2.1521 H   0  0  0  0  0  0  0  0  0  0  0  0
   -1.6410   -1.8040    5.5410 H   0  0  0  0  0  0  0  0  0  0  0  0
    1.5869   -0.7376   -1.7816 H   0  0  0  0  0  0  0  0  0  0  0  0
    2.7257    1.3878   -2.3722 H   0  0  0  0  0  0  0  0  0  0  0  0
    1.4651    4.9662    0.3202 H   0  0  0  0  0  0  0  0  0  0  0  0
    2.6150    7.0893   -0.2630 H   0  0  0  0  0  0  0  0  0  0  0  0
  1  2  1  0
  2  3  1  0
  3  4  1  0
  4  5  1  0
  5  6  2  0
  6  7  1  0
  7  8  2  0
  8  9  1  0
  9 10  2  0
 10 11  1  0
 11 12  2  0
 12 13  1  0
 13 14  1  0
 14 15  1  0
 15 16  1  0
 16 17  1  0
 17 18  2  0
 17 19  1  6
 17 20  1  0
 16 21  1  0
 21 22  2  0
 21 23  2  0
 21 24  1  0
 12 25  1  0
 25 26  2  0
  8 27  1  0
 27 28  2  0
 28  5  1  0
 26  9  1  0
  1 29  1  0
  1 30  1  0
  1 31  1  0
  2 32  1  0
  2 33  1  0
  3 34  1  0
  3 35  1  0
  4 36  1  0
  4 37  1  0
  6 38  1  0
  7 39  1  0
 10 40  1  0
 11 41  1  0
 13 42  1  0
 13 43  1  0
 14 44  1  0
 14 45  1  0
 15 46  1  0
 15 47  1  0
 16 48  1  6
 20 49  1  0
 25 50  1  0
 26 51  1  0
 27 52  1  0
 28 53  1  0
M  CHG  2  19  -1  24  -1
M  END
>  <meeko>  (1) 
{"is_sidechain": [false], "free_energy": -8.226, "intermolecular_energy": -13.276, "internal_energy": -1.538}

$$$$
2zcr_ligand
     RDKit          3D

 53 54  0  0  0  0  0  0  0  0999 V2000
    4.9180    5.8420   -0.2620 C   0  0  0  0  0  0  0  0  0  0  0  0
    4.1530    4.8740   -1.1500 C   0  0  0  0  0  0  0  0  0  0  0  0
    2.6760    4.7300   -0.7680 C   0  0  0  0  0  0  0  0  0  0  0  0
    1.9140    3.6230   -1.5060 C   0  0  0  0  0  0  0  0  0  0  0  0
    1.6230    2.4120   -0.6570 C   0  0  0  0  0  0  0  0  0  0  0  0
    1.1490    2.5540    0.6520 C   0  0  0  0  0  0  0  0  0  0  0  0
    0.8840    1.4280    1.4390 C   0  0  0  0  0  0  0  0  0  0  0  0
    1.0830    0.1310    0.9410 C   0  0  0  0  0  0  0  0  0  0  0  0
    0.8050   -1.0540    1.7700 C   0  0  0  0  0  0  0  0  0  0  0  0
    1.0440   -1.0450    3.1540 C   0  0  0  0  0  0  0  0  0  0  0  0
    0.7970   -2.1780    3.9370 C   0  0  0  0  0  0  0  0  0  0  0  0
    0.2970   -3.3500    3.3590 C   0  0  0  0  0  0  0  0  0  0  0  0
    0.0530   -4.5790    4.2050 C   0  0  0  0  0  0  0  0  0  0  0  0
    1.1860   -5.6060    4.1170 C   0  0  0  0  0  0  0  0  0  0  0  0
    2.3550   -5.3970    5.0900 C   0  0  0  0  0  0  0  0  0  0  0  0
    3.4060   -6.5240    5.1980 C   0  0  2  0  0  0  0  0  0  0  0  0
    3.0690   -7.7770    6.4590 P   0  0  2  0  0  5  0  0  0  0  0  0
    3.6670   -9.1280    6.1590 O   0  0  0  0  0  0  0  0  0  0  0  0
    1.5820   -7.7350    6.7700 O   0  0  0  0  0  0  0  0  0  0  0  0
    3.8170   -7.1890    7.7760 O   0  0  0  0  0  0  0  0  0  0  0  0
    5.0250   -5.8250    5.5410 S   0  0  0  0  0  0  0  0  0  0  0  0
    5.9180   -6.9510    5.8030 O   0  0  0  0  0  0  0  0  0  0  0  0
    4.8310   -4.8970    6.6610 O   0  0  0  0  0  0  0  0  0  0  0  0
    5.3880   -5.1300    4.2980 O   0  0  0  0  0  0  0  0  0  0  0  0
    0.0550   -3.3680    1.9820 C   0  0  0  0  0  0  0  0  0  0  0  0
    0.3070   -2.2370    1.2000 C   0  0  0  0  0  0  0  0  0  0  0  0
    1.5550   -0.0010   -0.3730 C   0  0  0  0  0  0  0  0  0  0  0  0
    1.8220    1.1220   -1.1630 C   0  0  0  0  0  0  0  0  0  0  0  0
    4.7269    5.6002    0.7939 H   0  0  0  0  0  0  0  0  0  0  0  0
    5.9950    5.7563   -0.4687 H   0  0  0  0  0  0  0  0  0  0  0  0
    4.5857    6.8700   -0.4687 H   0  0  0  0  0  0  0  0  0  0  0  0
    4.2106    5.2340   -2.1878 H   0  0  0  0  0  0  0  0  0  0  0  0
    4.6172    3.8846   -1.0249 H   0  0  0  0  0  0  0  0  0  0  0  0
    2.6227    4.5187    0.3102 H   0  0  0  0  0  0  0  0  0  0  0  0
    2.1935    5.6757   -1.0558 H   0  0  0  0  0  0  0  0  0  0  0  0
    0.9577    4.0366   -1.8588 H   0  0  0  0  0  0  0  0  0  0  0  0
    2.5588    3.2870   -2.3315 H   0  0  0  0  0  0  0  0  0  0  0  0
    0.9833    3.5597    1.0658 H   0  0  0  0  0  0  0  0  0  0  0  0
    0.5132    1.5616    2.4660 H   0  0  0  0  0  0  0  0  0  0  0  0
    1.4317   -0.1323    3.6301 H   0  0  0  0  0  0  0  0  0  0  0  0
    0.9980   -2.1470    5.0180 H   0  0  0  0  0  0  0  0  0  0  0  0
   -0.0544   -4.2658    5.2540 H   0  0  0  0  0  0  0  0  0  0  0  0
   -0.8579   -5.0633    3.8234 H   0  0  0  0  0  0  0  0  0  0  0  0
    0.7568   -6.5995    4.3137 H   0  0  0  0  0  0  0  0  0  0  0  0
    1.6127   -5.4941    3.1093 H   0  0  0  0  0  0  0  0  0  0  0  0
    2.8829   -4.4835    4.7788 H   0  0  0  0  0  0  0  0  0  0  0  0
    1.8867   -5.3556    6.0845 H   0  0  0  0  0  0  0  0  0  0  0  0
    3.3648   -7.0319    4.2231 H   0  0  0  0  0  0  0  0  0  0  0  0
    3.1080   -6.9410    8.4300 H   0  0  0  0  0  0  0  0  0  0  0  0
   -0.3373   -4.2806    1.5096 H   0  0  0  0  0  0  0  0  0  0  0  0
    0.1116   -2.2743    0.1181 H   0  0  0  0  0  0  0  0  0  0  0  0
    1.7182   -1.0058   -0.7899 H   0  0  0  0  0  0  0  0  0  0  0  0
    2.1915    0.9904   -2.1907 H   0  0  0  0  0  0  0  0  0  0  0  0
  1  2  1  0
  2  3  1  0
  3  4  1  0
  4  5  1  0
  5  6  2  0
  6  7  1  0
  7  8  2  0
  8  9  1  0
  9 10  2  0
 10 11  1  0
 11 12  2  0
 12 13  1  0
 13 14  1  0
 14 15  1  0
 15 16  1  0
 16 17  1  0
 17 18  2  0
 17 19  1  1
 17 20  1  0
 16 21  1  0
 21 22  2  0
 21 23  2  0
 21 24  1  0
 12 25  1  0
 25 26  2  0
  8 27  1  0
 27 28  2  0
 28  5  1  0
 26  9  1  0
  1 29  1  0
  1 30  1  0
  1 31  1  0
  2 32  1  0
  2 33  1  0
  3 34  1  0
  3 35  1  0
  4 36  1  0
  4 37  1  0
  6 38  1  0
  7 39  1  0
 10 40  1  0
 11 41  1  0
 13 42  1  0
 13 43  1  0
 14 44  1  0
 14 45  1  0
 15 46  1  0
 15 47  1  0
 16 48  1  6
 20 49  1  0
 25 50  1  0
 26 51  1  0
 27 52  1  0
 28 53  1  0
M  CHG  2  19  -1  24  -1
M  END
>  <meeko>  (2) 
{"is_sidechain": [false], "free_energy": -7.838, "intermolecular_energy": -12.723, "internal_energy": -1.464}

$$$$
2zcr_ligand
     RDKit          3D

 53 54  0  0  0  0  0  0  0  0999 V2000
    4.8030    5.9710   -0.7110 C   0  0  0  0  0  0  0  0  0  0  0  0
    4.7680    4.4500   -0.7250 C   0  0  0  0  0  0  0  0  0  0  0  0
    3.5770    3.8730   -1.4980 C   0  0  0  0  0  0  0  0  0  0  0  0
    2.2230    3.9750   -0.7870 C   0  0  0  0  0  0  0  0  0  0  0  0
    1.6670    2.6480   -0.3400 C   0  0  0  0  0  0  0  0  0  0  0  0
    1.0610    2.5120    0.9150 C   0  0  0  0  0  0  0  0  0  0  0  0
    0.5500    1.2780    1.3290 C   0  0  0  0  0  0  0  0  0  0  0  0
    0.6260    0.1460    0.5030 C   0  0  0  0  0  0  0  0  0  0  0  0
    0.0890   -1.1540    0.9380 C   0  0  0  0  0  0  0  0  0  0  0  0
    0.7170   -1.8970    1.9510 C   0  0  0  0  0  0  0  0  0  0  0  0
    0.2160   -3.1400    2.3510 C   0  0  0  0  0  0  0  0  0  0  0  0
   -0.9330   -3.6720    1.7550 C   0  0  0  0  0  0  0  0  0  0  0  0
   -1.4570   -5.0270    2.1740 C   0  0  0  0  0  0  0  0  0  0  0  0
   -1.4150   -6.0650    1.0490 C   0  0  0  0  0  0  0  0  0  0  0  0
   -2.7080   -6.8620    0.8260 C   0  0  0  0  0  0  0  0  0  0  0  0
   -3.2700   -6.9270   -0.6110 C   0  0  2  0  0  0  0  0  0  0  0  0
   -4.9830   -6.3760   -0.7960 P   0  0  2  0  0  5  0  0  0  0  0  0
   -5.1240   -4.9840   -1.3590 O   0  0  0  0  0  0  0  0  0  0  0  0
   -5.7090   -6.6700    0.5060 O   0  0  0  0  0  0  0  0  0  0  0  0
   -5.5900   -7.4120   -1.8910 O   0  0  0  0  0  0  0  0  0  0  0  0
   -3.1650   -8.6060   -1.2400 S   0  0  0  0  0  0  0  0  0  0  0  0
   -3.2660   -8.5150   -2.6940 O   0  0  0  0  0  0  0  0  0  0  0  0
   -4.2420   -9.3490   -0.5750 O   0  0  0  0  0  0  0  0  0  0  0  0
   -1.8320   -9.0650   -0.8230 O   0  0  0  0  0  0  0  0  0  0  0  0
   -1.5660   -2.9390    0.7470 C   0  0  0  0  0  0  0  0  0  0  0  0
   -1.0600   -1.6990    0.3440 C   0  0  0  0  0  0  0  0  0  0  0  0
    1.2320    0.2930   -0.7550 C   0  0  0  0  0  0  0  0  0  0  0  0
    1.7450    1.5250   -1.1720 C   0  0  0  0  0  0  0  0  0  0  0  0
    4.8112    6.3280    0.3294 H   0  0  0  0  0  0  0  0  0  0  0  0
    5.7095    6.3217   -1.2261 H   0  0  0  0  0  0  0  0  0  0  0  0
    3.9136    6.3630   -1.2261 H   0  0  0  0  0  0  0  0  0  0  0  0
    5.6952    4.0847   -1.1906 H   0  0  0  0  0  0  0  0  0  0  0  0
    4.6670    4.1191    0.3192 H   0  0  0  0  0  0  0  0  0  0  0  0
    3.4999    4.4108   -2.4544 H   0  0  0  0  0  0  0  0  0  0  0  0
    3.7804    2.7980   -1.6119 H   0  0  0  0  0  0  0  0  0  0  0  0
    2.3443    4.6158    0.0988 H   0  0  0  0  0  0  0  0  0  0  0  0
    1.5107    4.3910   -1.5147 H   0  0  0  0  0  0  0  0  0  0  0  0
    0.9862    3.3840    1.5814 H   0  0  0  0  0  0  0  0  0  0  0  0
    0.0800    1.1930    2.3199 H   0  0  0  0  0  0  0  0  0  0  0  0
    1.6177   -1.4947    2.4378 H   0  0  0  0  0  0  0  0  0  0  0  0
    0.7304   -3.7052    3.1422 H   0  0  0  0  0  0  0  0  0  0  0  0
   -0.8457   -5.3944    3.0115 H   0  0  0  0  0  0  0  0  0  0  0  0
   -2.5116   -4.8958    2.4581 H   0  0  0  0  0  0  0  0  0  0  0  0
   -1.1775   -5.5385    0.1128 H   0  0  0  0  0  0  0  0  0  0  0  0
   -0.6578   -6.8032    1.3520 H   0  0  0  0  0  0  0  0  0  0  0  0
   -2.5178   -7.8953    1.1519 H   0  0  0  0  0  0  0  0  0  0  0  0
   -3.4730   -6.3190    1.4004 H   0  0  0  0  0  0  0  0  0  0  0  0
   -2.6439   -6.2251   -1.1814 H   0  0  0  0  0  0  0  0  0  0  0  0
   -6.3660   -6.9610   -2.3220 H   0  0  0  0  0  0  0  0  0  0  0  0
   -2.4701   -3.3410    0.2665 H   0  0  0  0  0  0  0  0  0  0  0  0
   -1.5721   -1.1404   -0.4534 H   0  0  0  0  0  0  0  0  0  0  0  0
    1.3045   -0.5768   -1.4245 H   0  0  0  0  0  0  0  0  0  0  0  0
    2.2142    1.6126   -2.1630 H   0  0  0  0  0  0  0  0  0  0  0  0
  1  2  1  0
  2  3  1  0
  3  4  1  0
  4  5  1  0
  5  6  2  0
  6  7  1  0
  7  8  2  0
  8  9  1  0
  9 10  2  0
 10 11  1  0
 11 12  2  0
 12 13  1  0
 13 14  1  0
 14 15  1  0
 15 16  1  0
 16 17  1  0
 17 18  2  0
 17 19  1  1
 17 20  1  0
 16 21  1  0
 21 22  2  0
 21 23  2  0
 21 24  1  0
 12 25  1  0
 25 26  2  0
  8 27  1  0
 27 28  2  0
 28  5  1  0
 26  9  1  0
  1 29  1  0
  1 30  1  0
  1 31  1  0
  2 32  1  0
  2 33  1  0
  3 34  1  0
  3 35  1  0
  4 36  1  0
  4 37  1  0
  6 38  1  0
  7 39  1  0
 10 40  1  0
 11 41  1  0
 13 42  1  0
 13 43  1  0
 14 44  1  0
 14 45  1  0
 15 46  1  0
 15 47  1  0
 16 48  1  6
 20 49  1  0
 25 50  1  0
 26 51  1  0
 27 52  1  0
 28 53  1  0
M  CHG  2  19  -1  24  -1
M  END
>  <meeko>  (3) 
{"is_sidechain": [false], "free_energy": -7.669, "intermolecular_energy": -12.548, "internal_energy": -1.366}

$$$$
2zcr_ligand
     RDKit          3D

 53 54  0  0  0  0  0  0  0  0999 V2000
    4.8720    6.1260   -0.1980 C   0  0  0  0  0  0  0  0  0  0  0  0
    4.9710    4.6860   -0.6760 C   0  0  0  0  0  0  0  0  0  0  0  0
    3.7390    4.2130   -1.4550 C   0  0  0  0  0  0  0  0  0  0  0  0
    2.4060    4.3340   -0.7070 C   0  0  0  0  0  0  0  0  0  0  0  0
    1.7820    3.0080   -0.3540 C   0  0  0  0  0  0  0  0  0  0  0  0
    1.1350    2.8270    0.8730 C   0  0  0  0  0  0  0  0  0  0  0  0
    0.5610    1.5940    1.2000 C   0  0  0  0  0  0  0  0  0  0  0  0
    0.6150    0.5100    0.3120 C   0  0  0  0  0  0  0  0  0  0  0  0
    0.0110   -0.7890    0.6560 C   0  0  0  0  0  0  0  0  0  0  0  0
    0.6300   -1.6580    1.5690 C   0  0  0  0  0  0  0  0  0  0  0  0
    0.0640   -2.8990    1.8810 C   0  0  0  0  0  0  0  0  0  0  0  0
   -1.1390   -3.3040    1.2940 C   0  0  0  0  0  0  0  0  0  0  0  0
   -1.7340   -4.6560    1.6160 C   0  0  0  0  0  0  0  0  0  0  0  0
   -2.7200   -5.1500    0.5540 C   0  0  0  0  0  0  0  0  0  0  0  0
   -2.4150   -6.5260   -0.0530 C   0  0  0  0  0  0  0  0  0  0  0  0
   -3.4210   -7.6670    0.2190 C   0  0  2  0  0  0  0  0  0  0  0  0
   -2.8060   -9.0050    1.2710 P   0  0  2  0  0  5  0  0  0  0  0  0
   -3.8710   -9.6680    2.1080 O   0  0  0  0  0  0  0  0  0  0  0  0
   -1.5740   -8.4950    1.9990 O   0  0  0  0  0  0  0  0  0  0  0  0
   -2.2700  -10.1020    0.1990 O   0  0  0  0  0  0  0  0  0  0  0  0
   -3.9630   -8.3950   -1.3310 S   0  0  0  0  0  0  0  0  0  0  0  0
   -4.7370   -9.5840   -0.9860 O   0  0  0  0  0  0  0  0  0  0  0  0
   -2.7410   -8.6370   -2.1070 O   0  0  0  0  0  0  0  0  0  0  0  0
   -4.8110   -7.3590   -1.9380 O   0  0  0  0  0  0  0  0  0  0  0  0
   -1.7630   -2.4450    0.3840 C   0  0  0  0  0  0  0  0  0  0  0  0
   -1.1940   -1.2070    0.0690 C   0  0  0  0  0  0  0  0  0  0  0  0
    1.2630    0.7020   -0.9180 C   0  0  0  0  0  0  0  0  0  0  0  0
    1.8390    1.9330   -1.2480 C   0  0  0  0  0  0  0  0  0  0  0  0
    4.8705    6.1480    0.9018 H   0  0  0  0  0  0  0  0  0  0  0  0
    5.7330    6.6975   -0.5750 H   0  0  0  0  0  0  0  0  0  0  0  0
    3.9409    6.5743   -0.5750 H   0  0  0  0  0  0  0  0  0  0  0  0
    5.8514    4.5960   -1.3293 H   0  0  0  0  0  0  0  0  0  0  0  0
    5.0491    4.0529    0.2201 H   0  0  0  0  0  0  0  0  0  0  0  0
    3.6681    4.8115   -2.3752 H   0  0  0  0  0  0  0  0  0  0  0  0
    3.8887    3.1389   -1.6390 H   0  0  0  0  0  0  0  0  0  0  0  0
    2.5806    4.8935    0.2238 H   0  0  0  0  0  0  0  0  0  0  0  0
    1.7058    4.8470   -1.3827 H   0  0  0  0  0  0  0  0  0  0  0  0
    1.0771    3.6617    1.5871 H   0  0  0  0  0  0  0  0  0  0  0  0
    0.0584    1.4725    2.1709 H   0  0  0  0  0  0  0  0  0  0  0  0
    1.5746   -1.3584    2.0464 H   0  0  0  0  0  0  0  0  0  0  0  0
    0.5710   -3.5636    2.5961 H   0  0  0  0  0  0  0  0  0  0  0  0
   -0.9161   -5.3867    1.7004 H   0  0  0  0  0  0  0  0  0  0  0  0
   -2.2933   -4.5509    2.5573 H   0  0  0  0  0  0  0  0  0  0  0  0
   -3.7171   -5.1986    1.0160 H   0  0  0  0  0  0  0  0  0  0  0  0
   -2.6462   -4.4339   -0.2778 H   0  0  0  0  0  0  0  0  0  0  0  0
   -2.3501   -6.3975   -1.1435 H   0  0  0  0  0  0  0  0  0  0  0  0
   -1.4863   -6.8491    0.4401 H   0  0  0  0  0  0  0  0  0  0  0  0
   -4.2435   -7.1821    0.7653 H   0  0  0  0  0  0  0  0  0  0  0  0
   -3.0210  -10.7320    0.0240 H   0  0  0  0  0  0  0  0  0  0  0  0
   -2.7098   -2.7457   -0.0883 H   0  0  0  0  0  0  0  0  0  0  0  0
   -1.7000   -0.5483   -0.6522 H   0  0  0  0  0  0  0  0  0  0  0  0
    1.3188   -0.1303   -1.6351 H   0  0  0  0  0  0  0  0  0  0  0  0
    2.3412    2.0572   -2.2188 H   0  0  0  0  0  0  0  0  0  0  0  0
  1  2  1  0
  2  3  1  0
  3  4  1  0
  4  5  1  0
  5  6  2  0
  6  7  1  0
  7  8  2  0
  8  9  1  0
  9 10  2  0
 10 11  1  0
 11 12  2  0
 12 13  1  0
 13 14  1  0
 14 15  1  0
 15 16  1  0
 16 17  1  0
 17 18  2  0
 17 19  1  1
 17 20  1  0
 16 21  1  0
 21 22  2  0
 21 23  2  0
 21 24  1  0
 12 25  1  0
 25 26  2  0
  8 27  1  0
 27 28  2  0
 28  5  1  0
 26  9  1  0
  1 29  1  0
  1 30  1  0
  1 31  1  0
  2 32  1  0
  2 33  1  0
  3 34  1  0
  3 35  1  0
  4 36  1  0
  4 37  1  0
  6 38  1  0
  7 39  1  0
 10 40  1  0
 11 41  1  0
 13 42  1  0
 13 43  1  0
 14 44  1  0
 14 45  1  0
 15 46  1  0
 15 47  1  0
 16 48  1  1
 20 49  1  0
 25 50  1  0
 26 51  1  0
 27 52  1  0
 28 53  1  0
M  CHG  2  19  -1  24  -1
M  END
>  <meeko>  (4) 
{"is_sidechain": [false], "free_energy": -7.658, "intermolecular_energy": -12.437, "internal_energy": -1.46}

$$$$
2zcr_ligand
     RDKit          3D

 53 54  0  0  0  0  0  0  0  0999 V2000
    4.1720    6.0880   -0.8950 C   0  0  0  0  0  0  0  0  0  0  0  0
    4.0320    5.0250   -1.9730 C   0  0  0  0  0  0  0  0  0  0  0  0
    3.4910    3.6900   -1.4500 C   0  0  0  0  0  0  0  0  0  0  0  0
    2.1710    3.7780   -0.6750 C   0  0  0  0  0  0  0  0  0  0  0  0
    1.6160    2.4390   -0.2620 C   0  0  0  0  0  0  0  0  0  0  0  0
    1.7600    1.3190   -1.0880 C   0  0  0  0  0  0  0  0  0  0  0  0
    1.2400    0.0790   -0.7050 C   0  0  0  0  0  0  0  0  0  0  0  0
    0.5640   -0.0790    0.5140 C   0  0  0  0  0  0  0  0  0  0  0  0
    0.0150   -1.3840    0.9190 C   0  0  0  0  0  0  0  0  0  0  0  0
   -1.1790   -1.8730    0.3640 C   0  0  0  0  0  0  0  0  0  0  0  0
   -1.7090   -3.1050    0.7630 C   0  0  0  0  0  0  0  0  0  0  0  0
   -1.0560   -3.8870    1.7220 C   0  0  0  0  0  0  0  0  0  0  0  0
   -1.6450   -5.2070    2.1670 C   0  0  0  0  0  0  0  0  0  0  0  0
   -1.0190   -6.4140    1.4620 C   0  0  0  0  0  0  0  0  0  0  0  0
   -1.7500   -6.9060    0.2060 C   0  0  0  0  0  0  0  0  0  0  0  0
   -3.0270   -7.7520    0.4060 C   0  0  2  0  0  0  0  0  0  0  0  0
   -2.8980   -9.4810   -0.1120 P   0  0  2  0  0  5  0  0  0  0  0  0
   -2.6750  -10.4480    1.0230 O   0  0  0  0  0  0  0  0  0  0  0  0
   -1.9220   -9.5450   -1.2750 O   0  0  0  0  0  0  0  0  0  0  0  0
   -4.3640   -9.7900   -0.7410 O   0  0  0  0  0  0  0  0  0  0  0  0
   -4.4020   -7.0150   -0.4850 S   0  0  0  0  0  0  0  0  0  0  0  0
   -5.6220   -7.5450    0.1170 O   0  0  0  0  0  0  0  0  0  0  0  0
   -4.1910   -7.3580   -1.8970 O   0  0  0  0  0  0  0  0  0  0  0  0
   -4.2620   -5.5740   -0.2360 O   0  0  0  0  0  0  0  0  0  0  0  0
    0.1340   -3.4080    2.2800 C   0  0  0  0  0  0  0  0  0  0  0  0
    0.6590   -2.1750    1.8840 C   0  0  0  0  0  0  0  0  0  0  0  0
    0.4270    1.0490    1.3390 C   0  0  0  0  0  0  0  0  0  0  0  0
    0.9450    2.2910    0.9580 C   0  0  0  0  0  0  0  0  0  0  0  0
    4.1097    5.6153    0.0963 H   0  0  0  0  0  0  0  0  0  0  0  0
    5.1442    6.5916   -1.0007 H   0  0  0  0  0  0  0  0  0  0  0  0
    3.3633    6.8261   -1.0007 H   0  0  0  0  0  0  0  0  0  0  0  0
    3.3443    5.4007   -2.7449 H   0  0  0  0  0  0  0  0  0  0  0  0
    5.0398    4.8322   -2.3694 H   0  0  0  0  0  0  0  0  0  0  0  0
    3.3355    3.0248   -2.3122 H   0  0  0  0  0  0  0  0  0  0  0  0
    4.2395    3.3166   -0.7357 H   0  0  0  0  0  0  0  0  0  0  0  0
    2.3408    4.3773    0.2316 H   0  0  0  0  0  0  0  0  0  0  0  0
    1.4333    4.2352   -1.3509 H   0  0  0  0  0  0  0  0  0  0  0  0
    2.2876    1.4150   -2.0484 H   0  0  0  0  0  0  0  0  0  0  0  0
    1.3631   -0.7877   -1.3711 H   0  0  0  0  0  0  0  0  0  0  0  0
   -1.7059   -1.2779   -0.3965 H   0  0  0  0  0  0  0  0  0  0  0  0
   -2.6492   -3.4626    0.3179 H   0  0  0  0  0  0  0  0  0  0  0  0
   -1.4862   -5.3135    3.2503 H   0  0  0  0  0  0  0  0  0  0  0  0
   -2.7135   -5.1933    1.9060 H   0  0  0  0  0  0  0  0  0  0  0  0
    0.0060   -6.1407    1.1708 H   0  0  0  0  0  0  0  0  0  0  0  0
   -1.0730   -7.2427    2.1833 H   0  0  0  0  0  0  0  0  0  0  0  0
   -2.0318   -6.0184   -0.3795 H   0  0  0  0  0  0  0  0  0  0  0  0
   -1.0377   -7.5872   -0.2825 H   0  0  0  0  0  0  0  0  0  0  0  0
   -3.1853   -7.7548    1.4945 H   0  0  0  0  0  0  0  0  0  0  0  0
   -4.4410   -9.2600   -1.5810 H   0  0  0  0  0  0  0  0  0  0  0  0
    0.6611   -4.0072    3.0371 H   0  0  0  0  0  0  0  0  0  0  0  0
    1.5952   -1.8170    2.3372 H   0  0  0  0  0  0  0  0  0  0  0  0
   -0.0968    0.9541    2.3016 H   0  0  0  0  0  0  0  0  0  0  0  0
    0.8242    3.1592    1.6226 H   0  0  0  0  0  0  0  0  0  0  0  0
  1  2  1  0
  2  3  1  0
  3  4  1  0
  4  5  1  0
  5  6  2  0
  6  7  1  0
  7  8  2  0
  8  9  1  0
  9 10  2  0
 10 11  1  0
 11 12  2  0
 12 13  1  0
 13 14  1  0
 14 15  1  0
 15 16  1  0
 16 17  1  0
 17 18  2  0
 17 19  1  6
 17 20  1  0
 16 21  1  0
 21 22  2  0
 21 23  2  0
 21 24  1  0
 12 25  1  0
 25 26  2  0
  8 27  1  0
 27 28  2  0
 28  5  1  0
 26  9  1  0
  1 29  1  0
  1 30  1  0
  1 31  1  0
  2 32  1  0
  2 33  1  0
  3 34  1  0
  3 35  1  0
  4 36  1  0
  4 37  1  0
  6 38  1  0
  7 39  1  0
 10 40  1  0
 11 41  1  0
 13 42  1  0
 13 43  1  0
 14 44  1  0
 14 45  1  0
 15 46  1  0
 15 47  1  0
 16 48  1  1
 20 49  1  0
 25 50  1  0
 26 51  1  0
 27 52  1  0
 28 53  1  0
M  CHG  2  19  -1  24  -1
M  END
>  <meeko>  (5) 
{"is_sidechain": [false], "free_energy": -7.621, "intermolecular_energy": -12.371, "internal_energy": -1.466}

$$$$
2zcr_ligand
     RDKit          3D

 53 54  0  0  0  0  0  0  0  0999 V2000
    4.7300    6.5030   -0.2110 C   0  0  0  0  0  0  0  0  0  0  0  0
    5.0130    5.0160   -0.3560 C   0  0  0  0  0  0  0  0  0  0  0  0
    4.0160    4.2890   -1.2640 C   0  0  0  0  0  0  0  0  0  0  0  0
    2.5420    4.4380   -0.8690 C   0  0  0  0  0  0  0  0  0  0  0  0
    1.8700    3.1360   -0.5150 C   0  0  0  0  0  0  0  0  0  0  0  0
    1.7630    2.1070   -1.4580 C   0  0  0  0  0  0  0  0  0  0  0  0
    1.1350    0.9020   -1.1280 C   0  0  0  0  0  0  0  0  0  0  0  0
    0.5990    0.6890    0.1510 C   0  0  0  0  0  0  0  0  0  0  0  0
   -0.0630   -0.5800    0.4990 C   0  0  0  0  0  0  0  0  0  0  0  0
    0.5520   -1.5080    1.3540 C   0  0  0  0  0  0  0  0  0  0  0  0
   -0.0700   -2.7220    1.6700 C   0  0  0  0  0  0  0  0  0  0  0  0
   -1.3280   -3.0370    1.1450 C   0  0  0  0  0  0  0  0  0  0  0  0
   -1.9860   -4.3590    1.4700 C   0  0  0  0  0  0  0  0  0  0  0  0
   -1.8310   -5.3990    0.3560 C   0  0  0  0  0  0  0  0  0  0  0  0
   -3.0390   -6.3180    0.1280 C   0  0  0  0  0  0  0  0  0  0  0  0
   -2.7630   -7.8220   -0.0930 C   0  0  2  0  0  0  0  0  0  0  0  0
   -3.3460   -8.4910   -1.6700 P   0  0  2  0  0  5  0  0  0  0  0  0
   -2.2470   -8.7720   -2.6620 O   0  0  0  0  0  0  0  0  0  0  0  0
   -4.4990   -7.6220   -2.1450 O   0  0  0  0  0  0  0  0  0  0  0  0
   -4.0050   -9.9150   -1.2480 O   0  0  0  0  0  0  0  0  0  0  0  0
   -3.5160   -8.7870    1.2220 S   0  0  0  0  0  0  0  0  0  0  0  0
   -2.8820  -10.1020    1.1890 O   0  0  0  0  0  0  0  0  0  0  0  0
   -4.9580   -8.7710    0.9530 O   0  0  0  0  0  0  0  0  0  0  0  0
   -3.1700   -8.0550    2.4490 O   0  0  0  0  0  0  0  0  0  0  0  0
   -1.9490   -2.1180    0.2940 C   0  0  0  0  0  0  0  0  0  0  0  0
   -1.3240   -0.9080   -0.0250 C   0  0  0  0  0  0  0  0  0  0  0  0
    0.7140    1.7250    1.0910 C   0  0  0  0  0  0  0  0  0  0  0  0
    1.3400    2.9320    0.7640 C   0  0  0  0  0  0  0  0  0  0  0  0
    4.6803    6.7644    0.8563 H   0  0  0  0  0  0  0  0  0  0  0  0
    5.5348    7.0781   -0.6922 H   0  0  0  0  0  0  0  0  0  0  0  0
    3.7702    6.7422   -0.6922 H   0  0  0  0  0  0  0  0  0  0  0  0
    6.0215    4.8932   -0.7778 H   0  0  0  0  0  0  0  0  0  0  0  0
    4.9221    4.5706    0.6457 H   0  0  0  0  0  0  0  0  0  0  0  0
    4.1360    4.6823   -2.2843 H   0  0  0  0  0  0  0  0  0  0  0  0
    4.2483    3.2175   -1.1750 H   0  0  0  0  0  0  0  0  0  0  0  0
    2.4829    5.1065    0.0026 H   0  0  0  0  0  0  0  0  0  0  0  0
    2.0154    4.8409   -1.7467 H   0  0  0  0  0  0  0  0  0  0  0  0
    2.1766    2.2476   -2.4675 H   0  0  0  0  0  0  0  0  0  0  0  0
    1.0599    0.1070   -1.8845 H   0  0  0  0  0  0  0  0  0  0  0  0
    1.5385   -1.2778    1.7827 H   0  0  0  0  0  0  0  0  0  0  0  0
    0.4355   -3.4352    2.3377 H   0  0  0  0  0  0  0  0  0  0  0  0
   -1.5316   -4.7595    2.3882 H   0  0  0  0  0  0  0  0  0  0  0  0
   -3.0624   -4.1677    1.5918 H   0  0  0  0  0  0  0  0  0  0  0  0
   -1.6341   -4.8610   -0.5831 H   0  0  0  0  0  0  0  0  0  0  0  0
   -1.0099   -6.0580    0.6744 H   0  0  0  0  0  0  0  0  0  0  0  0
   -3.6908   -6.2293    1.0096 H   0  0  0  0  0  0  0  0  0  0  0  0
   -3.4773   -5.9726   -0.8199 H   0  0  0  0  0  0  0  0  0  0  0  0
   -1.6659   -7.9014   -0.0972 H   0  0  0  0  0  0  0  0  0  0  0  0
   -4.8410   -9.7140   -0.7450 H   0  0  0  0  0  0  0  0  0  0  0  0
   -2.9381   -2.3485   -0.1286 H   0  0  0  0  0  0  0  0  0  0  0  0
   -1.8294   -0.2004   -0.6986 H   0  0  0  0  0  0  0  0  0  0  0  0
    0.3046    1.5851    2.1024 H   0  0  0  0  0  0  0  0  0  0  0  0
    1.4165    3.7283    1.5190 H   0  0  0  0  0  0  0  0  0  0  0  0
  1  2  1  0
  2  3  1  0
  3  4  1  0
  4  5  1  0
  5  6  2  0
  6  7  1  0
  7  8  2  0
  8  9  1  0
  9 10  2  0
 10 11  1  0
 11 12  2  0
 12 13  1  0
 13 14  1  0
 14 15  1  0
 15 16  1  0
 16 17  1  0
 17 18  2  0
 17 19  1  6
 17 20  1  0
 16 21  1  0
 21 22  2  0
 21 23  2  0
 21 24  1  0
 12 25  1  0
 25 26  2  0
  8 27  1  0
 27 28  2  0
 28  5  1  0
 26  9  1  0
  1 29  1  0
  1 30  1  0
  1 31  1  0
  2 32  1  0
  2 33  1  0
  3 34  1  0
  3 35  1  0
  4 36  1  0
  4 37  1  0
  6 38  1  0
  7 39  1  0
 10 40  1  0
 11 41  1  0
 13 42  1  0
 13 43  1  0
 14 44  1  0
 14 45  1  0
 15 46  1  0
 15 47  1  0
 16 48  1  6
 20 49  1  0
 25 50  1  0
 26 51  1  0
 27 52  1  0
 28 53  1  0
M  CHG  2  19  -1  24  -1
M  END
>  <meeko>  (6) 
{"is_sidechain": [false], "free_energy": -7.59, "intermolecular_energy": -12.487, "internal_energy": -1.3}

$$$$
2zcr_ligand
     RDKit          3D

 53 54  0  0  0  0  0  0  0  0999 V2000
    4.0700    7.0960   -1.1390 C   0  0  0  0  0  0  0  0  0  0  0  0
    4.9060    6.1160   -0.3300 C   0  0  0  0  0  0  0  0  0  0  0  0
    4.7240    4.6570   -0.7590 C   0  0  0  0  0  0  0  0  0  0  0  0
    3.5060    4.3830   -1.6480 C   0  0  0  0  0  0  0  0  0  0  0  0
    2.5270    3.4000   -1.0570 C   0  0  0  0  0  0  0  0  0  0  0  0
    1.9480    3.6340    0.1960 C   0  0  0  0  0  0  0  0  0  0  0  0
    1.0440    2.7180    0.7440 C   0  0  0  0  0  0  0  0  0  0  0  0
    0.6910    1.5470    0.0580 C   0  0  0  0  0  0  0  0  0  0  0  0
   -0.2600    0.5820    0.6340 C   0  0  0  0  0  0  0  0  0  0  0  0
   -0.2670    0.3040    2.0110 C   0  0  0  0  0  0  0  0  0  0  0  0
   -1.1600   -0.6260    2.5550 C   0  0  0  0  0  0  0  0  0  0  0  0
   -2.0750   -1.3000    1.7390 C   0  0  0  0  0  0  0  0  0  0  0  0
   -3.0210   -2.3220    2.3280 C   0  0  0  0  0  0  0  0  0  0  0  0
   -2.3640   -3.6840    2.5690 C   0  0  0  0  0  0  0  0  0  0  0  0
   -2.3320   -4.6320    1.3630 C   0  0  0  0  0  0  0  0  0  0  0  0
   -2.6280   -6.1260    1.6190 C   0  0  2  0  0  0  0  0  0  0  0  0
   -1.3110   -7.0420    2.4560 P   0  0  2  0  0  5  0  0  0  0  0  0
   -1.5780   -7.3080    3.9160 O   0  0  0  0  0  0  0  0  0  0  0  0
    0.0110   -6.3790    2.1060 O   0  0  0  0  0  0  0  0  0  0  0  0
   -1.3090   -8.4740    1.6870 O   0  0  0  0  0  0  0  0  0  0  0  0
   -2.9750   -6.9620    0.0670 S   0  0  0  0  0  0  0  0  0  0  0  0
   -3.6580   -8.2070    0.4070 O   0  0  0  0  0  0  0  0  0  0  0  0
   -1.6780   -7.1130   -0.6030 O   0  0  0  0  0  0  0  0  0  0  0  0
   -3.8660   -6.0380   -0.6480 O   0  0  0  0  0  0  0  0  0  0  0  0
   -2.0760   -1.0290    0.3680 C   0  0  0  0  0  0  0  0  0  0  0  0
   -1.1800   -0.1030   -0.1760 C   0  0  0  0  0  0  0  0  0  0  0  0
    1.2740    1.3230   -1.1990 C   0  0  0  0  0  0  0  0  0  0  0  0
    2.1790    2.2360   -1.7510 C   0  0  0  0  0  0  0  0  0  0  0  0
    3.5105    7.7519   -0.4558 H   0  0  0  0  0  0  0  0  0  0  0  0
    4.7308    7.7053   -1.7731 H   0  0  0  0  0  0  0  0  0  0  0  0
    3.3642    6.5395   -1.7731 H   0  0  0  0  0  0  0  0  0  0  0  0
    5.9665    6.3836   -0.4474 H   0  0  0  0  0  0  0  0  0  0  0  0
    4.5698    6.1900    0.7147 H   0  0  0  0  0  0  0  0  0  0  0  0
    5.6242    4.3505   -1.3119 H   0  0  0  0  0  0  0  0  0  0  0  0
    4.5597    4.0859    0.1667 H   0  0  0  0  0  0  0  0  0  0  0  0
    2.9810    5.3344   -1.8190 H   0  0  0  0  0  0  0  0  0  0  0  0
    3.8844    3.9361   -2.5792 H   0  0  0  0  0  0  0  0  0  0  0  0
    2.2062    4.5460    0.7543 H   0  0  0  0  0  0  0  0  0  0  0  0
    0.6020    2.9199    1.7309 H   0  0  0  0  0  0  0  0  0  0  0  0
    0.4407    0.8256    2.6721 H   0  0  0  0  0  0  0  0  0  0  0  0
   -1.1423   -0.8293    3.6359 H   0  0  0  0  0  0  0  0  0  0  0  0
   -3.3948   -1.9392    3.2891 H   0  0  0  0  0  0  0  0  0  0  0  0
   -3.8317   -2.4744    1.6003 H   0  0  0  0  0  0  0  0  0  0  0  0
   -1.3259   -3.5066    2.8866 H   0  0  0  0  0  0  0  0  0  0  0  0
   -2.9840   -4.1852    3.3269 H   0  0  0  0  0  0  0  0  0  0  0  0
   -3.0762   -4.2686    0.6390 H   0  0  0  0  0  0  0  0  0  0  0  0
   -1.2877   -4.6096    1.0181 H   0  0  0  0  0  0  0  0  0  0  0  0
   -3.4951   -6.1210    2.2959 H   0  0  0  0  0  0  0  0  0  0  0  0
   -1.7180   -8.3270    0.7910 H   0  0  0  0  0  0  0  0  0  0  0  0
   -2.7883   -1.5489   -0.2895 H   0  0  0  0  0  0  0  0  0  0  0  0
   -1.1963    0.0923   -1.2584 H   0  0  0  0  0  0  0  0  0  0  0  0
    1.0147    0.4132   -1.7602 H   0  0  0  0  0  0  0  0  0  0  0  0
    2.6206    2.0371   -2.7387 H   0  0  0  0  0  0  0  0  0  0  0  0
  1  2  1  0
  2  3  1  0
  3  4  1  0
  4  5  1  0
  5  6  2  0
  6  7  1  0
  7  8  2  0
  8  9  1  0
  9 10  2  0
 10 11  1  0
 11 12  2  0
 12 13  1  0
 13 14  1  0
 14 15  1  0
 15 16  1  0
 16 17  1  0
 17 18  2  0
 17 19  1  1
 17 20  1  0
 16 21  1  0
 21 22  2  0
 21 23  2  0
 21 24  1  0
 12 25  1  0
 25 26  2  0
  8 27  1  0
 27 28  2  0
 28  5  1  0
 26  9  1  0
  1 29  1  0
  1 30  1  0
  1 31  1  0
  2 32  1  0
  2 33  1  0
  3 34  1  0
  3 35  1  0
  4 36  1  0
  4 37  1  0
  6 38  1  0
  7 39  1  0
 10 40  1  0
 11 41  1  0
 13 42  1  0
 13 43  1  0
 14 44  1  0
 14 45  1  0
 15 46  1  0
 15 47  1  0
 16 48  1  1
 20 49  1  0
 25 50  1  0
 26 51  1  0
 27 52  1  0
 28 53  1  0
M  CHG  2  19  -1  24  -1
M  END
>  <meeko>  (7) 
{"is_sidechain": [false], "free_energy": -7.447, "intermolecular_energy": -12.009, "internal_energy": -1.546}

$$$$
2zcr_ligand
     RDKit          3D

 53 54  0  0  0  0  0  0  0  0999 V2000
    3.7220    5.3610   -0.6100 C   0  0  0  0  0  0  0  0  0  0  0  0
    3.8570    4.3270   -1.7170 C   0  0  0  0  0  0  0  0  0  0  0  0
    2.9850    3.0850   -1.5030 C   0  0  0  0  0  0  0  0  0  0  0  0
    1.9850    3.1790   -0.3460 C   0  0  0  0  0  0  0  0  0  0  0  0
    1.4170    1.8490    0.0800 C   0  0  0  0  0  0  0  0  0  0  0  0
    1.5440    0.7220   -0.7400 C   0  0  0  0  0  0  0  0  0  0  0  0
    1.0120   -0.5090   -0.3440 C   0  0  0  0  0  0  0  0  0  0  0  0
    0.3420   -0.6510    0.8800 C   0  0  0  0  0  0  0  0  0  0  0  0
   -0.2180   -1.9480    1.2970 C   0  0  0  0  0  0  0  0  0  0  0  0
   -1.4120   -2.4350    0.7410 C   0  0  0  0  0  0  0  0  0  0  0  0
   -1.9530   -3.6590    1.1510 C   0  0  0  0  0  0  0  0  0  0  0  0
   -1.3120   -4.4330    2.1250 C   0  0  0  0  0  0  0  0  0  0  0  0
   -1.9130   -5.7430    2.5820 C   0  0  0  0  0  0  0  0  0  0  0  0
   -1.6820   -6.8900    1.5930 C   0  0  0  0  0  0  0  0  0  0  0  0
   -2.9470   -7.5670    1.0490 C   0  0  0  0  0  0  0  0  0  0  0  0
   -3.2620   -7.3910   -0.4530 C   0  0  2  0  0  0  0  0  0  0  0  0
   -4.7910   -6.4960   -0.8210 P   0  0  2  0  0  5  0  0  0  0  0  0
   -4.5890   -5.0340   -1.1310 O   0  0  0  0  0  0  0  0  0  0  0  0
   -5.8020   -6.8380    0.2600 O   0  0  0  0  0  0  0  0  0  0  0  0
   -5.3260   -7.2170   -2.1770 O   0  0  0  0  0  0  0  0  0  0  0  0
   -3.3610   -8.9960   -1.2550 S   0  0  0  0  0  0  0  0  0  0  0  0
   -3.1060   -8.7690   -2.6760 O   0  0  0  0  0  0  0  0  0  0  0  0
   -4.6900   -9.5250   -0.9260 O   0  0  0  0  0  0  0  0  0  0  0  0
   -2.2820   -9.7760   -0.6340 O   0  0  0  0  0  0  0  0  0  0  0  0
   -0.1220   -3.9560    2.6830 C   0  0  0  0  0  0  0  0  0  0  0  0
    0.4150   -2.7310    2.2760 C   0  0  0  0  0  0  0  0  0  0  0  0
    0.2240    0.4830    1.6980 C   0  0  0  0  0  0  0  0  0  0  0  0
    0.7530    1.7170    1.3050 C   0  0  0  0  0  0  0  0  0  0  0  0
    3.7872    4.8617    0.3680 H   0  0  0  0  0  0  0  0  0  0  0  0
    4.5312    6.1009   -0.6987 H   0  0  0  0  0  0  0  0  0  0  0  0
    2.7500    5.8683   -0.6987 H   0  0  0  0  0  0  0  0  0  0  0  0
    3.5672    4.7961   -2.6688 H   0  0  0  0  0  0  0  0  0  0  0  0
    4.9043    3.9905   -1.7195 H   0  0  0  0  0  0  0  0  0  0  0  0
    2.4183    2.9040   -2.4282 H   0  0  0  0  0  0  0  0  0  0  0  0
    3.6757    2.2694   -1.2428 H   0  0  0  0  0  0  0  0  0  0  0  0
    2.4958    3.6301    0.5175 H   0  0  0  0  0  0  0  0  0  0  0  0
    1.1407    3.7874   -0.7023 H   0  0  0  0  0  0  0  0  0  0  0  0
    2.0668    0.8053   -1.7042 H   0  0  0  0  0  0  0  0  0  0  0  0
    1.1209   -1.3819   -1.0044 H   0  0  0  0  0  0  0  0  0  0  0  0
   -1.9305   -1.8450   -0.0292 H   0  0  0  0  0  0  0  0  0  0  0  0
   -2.8919   -4.0164    0.7030 H   0  0  0  0  0  0  0  0  0  0  0  0
   -1.4616   -6.0171    3.5470 H   0  0  0  0  0  0  0  0  0  0  0  0
   -2.9999   -5.5940    2.6620 H   0  0  0  0  0  0  0  0  0  0  0  0
   -1.1188   -6.4895    0.7372 H   0  0  0  0  0  0  0  0  0  0  0  0
   -1.1457   -7.6675    2.1568 H   0  0  0  0  0  0  0  0  0  0  0  0
   -2.8516   -8.6459    1.2412 H   0  0  0  0  0  0  0  0  0  0  0  0
   -3.7774   -7.0672    1.5693 H   0  0  0  0  0  0  0  0  0  0  0  0
   -2.4321   -6.7800   -0.8376 H   0  0  0  0  0  0  0  0  0  0  0  0
   -5.6920   -6.5010   -2.7640 H   0  0  0  0  0  0  0  0  0  0  0  0
    0.3967   -4.5503    3.4496 H   0  0  0  0  0  0  0  0  0  0  0  0
    1.3506   -2.3739    2.7310 H   0  0  0  0  0  0  0  0  0  0  0  0
   -0.2935    0.4002    2.6651 H   0  0  0  0  0  0  0  0  0  0  0  0
    0.6462    2.5910    1.9643 H   0  0  0  0  0  0  0  0  0  0  0  0
  1  2  1  0
  2  3  1  0
  3  4  1  0
  4  5  1  0
  5  6  2  0
  6  7  1  0
  7  8  2  0
  8  9  1  0
  9 10  2  0
 10 11  1  0
 11 12  2  0
 12 13  1  0
 13 14  1  0
 14 15  1  0
 15 16  1  0
 16 17  1  0
 17 18  2  0
 17 19  1  1
 17 20  1  0
 16 21  1  0
 21 22  2  0
 21 23  2  0
 21 24  1  0
 12 25  1  0
 25 26  2  0
  8 27  1  0
 27 28  2  0
 28  5  1  0
 26  9  1  0
  1 29  1  0
  1 30  1  0
  1 31  1  0
  2 32  1  0
  2 33  1  0
  3 34  1  0
  3 35  1  0
  4 36  1  0
  4 37  1  0
  6 38  1  0
  7 39  1  0
 10 40  1  0
 11 41  1  0
 13 42  1  0
 13 43  1  0
 14 44  1  0
 14 45  1  0
 15 46  1  0
 15 47  1  0
 16 48  1  6
 20 49  1  0
 25 50  1  0
 26 51  1  0
 27 52  1  0
 28 53  1  0
M  CHG  2  19  -1  24  -1
M  END
>  <meeko>  (8) 
{"is_sidechain": [false], "free_energy": -7.447, "intermolecular_energy": -12.109, "internal_energy": -1.447}

$$$$
2zcr_ligand
     RDKit          3D

 53 54  0  0  0  0  0  0  0  0999 V2000
    5.9790    6.5610   -0.1040 C   0  0  0  0  0  0  0  0  0  0  0  0
    5.3840    7.2470   -1.3240 C   0  0  0  0  0  0  0  0  0  0  0  0
    4.0750    6.6120   -1.8060 C   0  0  0  0  0  0  0  0  0  0  0  0
    4.1780    5.1420   -2.2300 C   0  0  0  0  0  0  0  0  0  0  0  0
    3.2170    4.2310   -1.5110 C   0  0  0  0  0  0  0  0  0  0  0  0
    3.0680    2.8960   -1.9030 C   0  0  0  0  0  0  0  0  0  0  0  0
    2.1720    2.0540   -1.2370 C   0  0  0  0  0  0  0  0  0  0  0  0
    1.4020    2.5190   -0.1610 C   0  0  0  0  0  0  0  0  0  0  0  0
    0.4570    1.6330    0.5410 C   0  0  0  0  0  0  0  0  0  0  0  0
   -0.3580    0.7360   -0.1670 C   0  0  0  0  0  0  0  0  0  0  0  0
   -1.2680   -0.0930    0.4990 C   0  0  0  0  0  0  0  0  0  0  0  0
   -1.3830   -0.0520    1.8930 C   0  0  0  0  0  0  0  0  0  0  0  0
   -2.3850   -0.9320    2.6060 C   0  0  0  0  0  0  0  0  0  0  0  0
   -2.7420   -2.1980    1.8210 C   0  0  0  0  0  0  0  0  0  0  0  0
   -2.4510   -3.5280    2.5290 C   0  0  0  0  0  0  0  0  0  0  0  0
   -1.2670   -4.3720    2.0070 C   0  0  2  0  0  0  0  0  0  0  0  0
   -1.5090   -6.1640    2.0690 P   0  0  2  0  0  5  0  0  0  0  0  0
   -0.7180   -6.9280    1.0370 O   0  0  0  0  0  0  0  0  0  0  0  0
   -3.0050   -6.4290    2.1270 O   0  0  0  0  0  0  0  0  0  0  0  0
   -0.9270   -6.5660    3.5320 O   0  0  0  0  0  0  0  0  0  0  0  0
    0.2220   -3.9890    2.9370 S   0  0  0  0  0  0  0  0  0  0  0  0
    1.1630   -5.0770    2.6850 O   0  0  0  0  0  0  0  0  0  0  0  0
   -0.2090   -3.8330    4.3320 O   0  0  0  0  0  0  0  0  0  0  0  0
    0.6940   -2.7240    2.3560 O   0  0  0  0  0  0  0  0  0  0  0  0
   -0.5740    0.8370    2.6060 C   0  0  0  0  0  0  0  0  0  0  0  0
    0.3310    1.6680    1.9390 C   0  0  0  0  0  0  0  0  0  0  0  0
    1.5610    3.8580    0.2280 C   0  0  0  0  0  0  0  0  0  0  0  0
    2.4550    4.7040   -0.4360 C   0  0  0  0  0  0  0  0  0  0  0  0
    5.5773    7.0241    0.8094 H   0  0  0  0  0  0  0  0  0  0  0  0
    5.7165    5.4929   -0.1195 H   0  0  0  0  0  0  0  0  0  0  0  0
    7.0735    6.6699   -0.1195 H   0  0  0  0  0  0  0  0  0  0  0  0
    5.1876    8.2992   -1.0704 H   0  0  0  0  0  0  0  0  0  0  0  0
    6.1134    7.1433   -2.1408 H   0  0  0  0  0  0  0  0  0  0  0  0
    3.3429    6.6794   -0.9877 H   0  0  0  0  0  0  0  0  0  0  0  0
    3.7801    7.1691   -2.7075 H   0  0  0  0  0  0  0  0  0  0  0  0
    3.9748    5.0776   -3.3092 H   0  0  0  0  0  0  0  0  0  0  0  0
    5.1925    4.8050   -1.9707 H   0  0  0  0  0  0  0  0  0  0  0  0
    3.6612    2.5053   -2.7429 H   0  0  0  0  0  0  0  0  0  0  0  0
    2.0693    1.0084   -1.5628 H   0  0  0  0  0  0  0  0  0  0  0  0
   -0.2803    0.6837   -1.2630 H   0  0  0  0  0  0  0  0  0  0  0  0
   -1.8992   -0.7838   -0.0792 H   0  0  0  0  0  0  0  0  0  0  0  0
   -1.9606   -1.2301    3.5761 H   0  0  0  0  0  0  0  0  0  0  0  0
   -3.3096   -0.3474    2.7218 H   0  0  0  0  0  0  0  0  0  0  0  0
   -3.8184   -2.1636    1.5968 H   0  0  0  0  0  0  0  0  0  0  0  0
   -2.0982   -2.1876    0.9291 H   0  0  0  0  0  0  0  0  0  0  0  0
   -2.2523   -3.3011    3.5868 H   0  0  0  0  0  0  0  0  0  0  0  0
   -3.3405   -4.1465    2.3383 H   0  0  0  0  0  0  0  0  0  0  0  0
   -1.1817   -4.0965    0.9455 H   0  0  0  0  0  0  0  0  0  0  0  0
   -1.1910   -7.5120    3.7020 H   0  0  0  0  0  0  0  0  0  0  0  0
   -0.6500    0.8833    3.7024 H   0  0  0  0  0  0  0  0  0  0  0  0
    0.9559    2.3621    2.5201 H   0  0  0  0  0  0  0  0  0  0  0  0
    0.9718    4.2492    1.0705 H   0  0  0  0  0  0  0  0  0  0  0  0
    2.5603    5.7496   -0.1110 H   0  0  0  0  0  0  0  0  0  0  0  0
  1  2  1  0
  2  3  1  0
  3  4  1  0
  4  5  1  0
  5  6  2  0
  6  7  1  0
  7  8  2  0
  8  9  1  0
  9 10  2  0
 10 11  1  0
 11 12  2  0
 12 13  1  0
 13 14  1  0
 14 15  1  0
 15 16  1  0
 16 17  1  0
 17 18  2  0
 17 19  1  1
 17 20  1  0
 16 21  1  0
 21 22  2  0
 21 23  2  0
 21 24  1  0
 12 25  1  0
 25 26  2  0
  8 27  1  0
 27 28  2  0
 28  5  1  0
 26  9  1  0
  1 29  1  0
  1 30  1  0
  1 31  1  0
  2 32  1  0
  2 33  1  0
  3 34  1  0
  3 35  1  0
  4 36  1  0
  4 37  1  0
  6 38  1  0
  7 39  1  0
 10 40  1  0
 11 41  1  0
 13 42  1  0
 13 43  1  0
 14 44  1  0
 14 45  1  0
 15 46  1  0
 15 47  1  0
 16 48  1  6
 20 49  1  0
 25 50  1  0
 26 51  1  0
 27 52  1  0
 28 53  1  0
M  CHG  2  19  -1  24  -1
M  END
>  <meeko>  (9) 
{"is_sidechain": [false], "free_energy": -7.341, "intermolecular_energy": -11.659, "internal_energy": -1.725}

$$$$
