1q8u_ligand
     RDKit          3D

 44 46  0  0  0  0  0  0  0  0999 V2000
    3.9170   -8.2940   -0.6930 C   0  0  0  0  0  0  0  0  0  0  0  0
    5.3650   -8.0270   -0.9910 C   0  0  0  0  0  0  0  0  0  0  0  0
    5.6660   -7.8070   -2.3400 C   0  0  0  0  0  0  0  0  0  0  0  0
    6.9050   -7.6880   -2.8360 N   0  0  0  0  0  0  0  0  0  0  0  0
    7.9110   -7.8490   -1.9600 C   0  0  0  0  0  0  0  0  0  0  0  0
    7.7490   -8.0450   -0.5880 C   0  0  0  0  0  0  0  0  0  0  0  0
    8.8940   -8.2410    0.2030 C   0  0  0  0  0  0  0  0  0  0  0  0
    8.7970   -8.4490    1.5710 C   0  0  0  0  0  0  0  0  0  0  0  0
    7.5520   -8.3860    2.1720 C   0  0  0  0  0  0  0  0  0  0  0  0
    6.3970   -8.1350    1.4020 C   0  0  0  0  0  0  0  0  0  0  0  0
    4.9440   -7.7510    2.3440 S   0  0  0  0  0  0  0  0  0  0  0  0
    4.3600   -6.4850    1.9370 O   0  0  0  0  0  0  0  0  0  0  0  0
    4.1300   -8.9390    2.4500 O   0  0  0  0  0  0  0  0  0  0  0  0
    5.5010   -7.3590    3.9270 N   0  0  0  0  0  0  0  0  0  0  0  0
    5.2510   -5.9660    4.4080 C   0  0  0  0  0  0  0  0  0  0  0  0
    4.1780   -5.8070    5.4770 C   0  0  0  0  0  0  0  0  0  0  0  0
    2.8580   -6.4970    5.1860 C   0  0  0  0  0  0  0  0  0  0  0  0
    2.9790   -7.9770    5.1320 N   0  0  0  0  0  0  0  0  0  0  0  0
    4.1820   -8.5940    5.7770 C   0  0  0  0  0  0  0  0  0  0  0  0
    5.4670   -8.4900    4.9150 C   0  0  2  0  0  0  0  0  0  0  0  0
    6.7390   -8.4990    5.7620 C   0  0  0  0  0  0  0  0  0  0  0  0
    6.4390   -8.0560   -0.0320 C   0  0  0  0  0  0  0  0  0  0  0  0
    3.7659   -8.3219    0.3962 H   0  0  0  0  0  0  0  0  0  0  0  0
    3.2996   -7.4946   -1.1285 H   0  0  0  0  0  0  0  0  0  0  0  0
    3.6253   -9.2611   -1.1285 H   0  0  0  0  0  0  0  0  0  0  0  0
    4.8246   -7.7259   -3.0439 H   0  0  0  0  0  0  0  0  0  0  0  0
    8.9380   -7.8245   -2.3534 H   0  0  0  0  0  0  0  0  0  0  0  0
    9.8862   -8.2292   -0.2718 H   0  0  0  0  0  0  0  0  0  0  0  0
    9.6957   -8.6607    2.1689 H   0  0  0  0  0  0  0  0  0  0  0  0
    7.4624   -8.5328    3.2585 H   0  0  0  0  0  0  0  0  0  0  0  0
    6.1947   -5.5784    4.8193 H   0  0  0  0  0  0  0  0  0  0  0  0
    4.8786   -5.4142    3.5323 H   0  0  0  0  0  0  0  0  0  0  0  0
    4.5740   -6.2163    6.4181 H   0  0  0  0  0  0  0  0  0  0  0  0
    3.9529   -4.7312    5.5211 H   0  0  0  0  0  0  0  0  0  0  0  0
    2.1414   -6.2320    5.9774 H   0  0  0  0  0  0  0  0  0  0  0  0
    2.5189   -6.1571    4.1963 H   0  0  0  0  0  0  0  0  0  0  0  0
    2.9440   -8.2500    4.1280 H   0  0  0  0  0  0  0  0  0  0  0  0
    2.1250   -8.3960    5.5200 H   0  0  0  0  0  0  0  0  0  0  0  0
    4.3631   -8.0848    6.7351 H   0  0  0  0  0  0  0  0  0  0  0  0
    3.9658   -9.6645    5.9082 H   0  0  0  0  0  0  0  0  0  0  0  0
    5.4315   -9.4054    4.3061 H   0  0  0  0  0  0  0  0  0  0  0  0
    6.4694   -8.4971    6.8285 H   0  0  0  0  0  0  0  0  0  0  0  0
    7.3252   -9.4013    5.5336 H   0  0  0  0  0  0  0  0  0  0  0  0
    7.3379   -7.6051    5.5336 H   0  0  0  0  0  0  0  0  0  0  0  0
  1  2  1  0
  2  3  2  0
  3  4  1  0
  4  5  2  0
  5  6  1  0
  6  7  2  0
  7  8  1  0
  8  9  2  0
  9 10  1  0
 10 11  1  0
 11 12  2  0
 11 13  2  0
 11 14  1  0
 14 15  1  0
 15 16  1  0
 16 17  1  0
 17 18  1  0
 18 19  1  0
 19 20  1  0
 20 21  1  0
 10 22  2  0
 22  2  1  0
 22  6  1  0
 20 14  1  0
  1 23  1  0
  1 24  1  0
  1 25  1  0
  3 26  1  0
  5 27  1  0
  7 28  1  0
  8 29  1  0
  9 30  1  0
 15 31  1  0
 15 32  1  0
 16 33  1  0
 16 34  1  0
 17 35  1  0
 17 36  1  0
 18 37  1  0
 18 38  1  0
 19 39  1  0
 19 40  1  0
 20 41  1  6
 21 42  1  0
 21 43  1  0
 21 44  1  0
M  CHG  1  18   1
M  END
>  <meeko>  (1) 
{"is_sidechain": [false], "free_energy": -6.117, "intermolecular_energy": -8.977, "internal_energy": 0.153}

$$$$
1q8u_ligand
     RDKit          3D

 44 46  0  0  0  0  0  0  0  0999 V2000
    8.8190   -8.0260    1.9130 C   0  0  0  0  0  0  0  0  0  0  0  0
    8.1230   -8.1650    0.5890 C   0  0  0  0  0  0  0  0  0  0  0  0
    8.9690   -8.2480   -0.5230 C   0  0  0  0  0  0  0  0  0  0  0  0
    8.5570   -8.2380   -1.7980 N   0  0  0  0  0  0  0  0  0  0  0  0
    7.2360   -8.0820   -1.9910 C   0  0  0  0  0  0  0  0  0  0  0  0
    6.2840   -8.0150   -0.9730 C   0  0  0  0  0  0  0  0  0  0  0  0
    4.9390   -7.8070   -1.3240 C   0  0  0  0  0  0  0  0  0  0  0  0
    3.9490   -7.7240   -0.3560 C   0  0  0  0  0  0  0  0  0  0  0  0
    4.2870   -7.9230    0.9700 C   0  0  0  0  0  0  0  0  0  0  0  0
    5.6240   -8.1890    1.3350 C   0  0  0  0  0  0  0  0  0  0  0  0
    5.8420   -8.7510    3.0030 S   0  0  0  0  0  0  0  0  0  0  0  0
    6.4280  -10.0790    3.0480 O   0  0  0  0  0  0  0  0  0  0  0  0
    6.3950   -7.6740    3.7900 O   0  0  0  0  0  0  0  0  0  0  0  0
    4.2580   -9.0730    3.6000 N   0  0  0  0  0  0  0  0  0  0  0  0
    3.7320  -10.4590    3.4140 C   0  0  0  0  0  0  0  0  0  0  0  0
    2.2270  -10.5850    3.2140 C   0  0  0  0  0  0  0  0  0  0  0  0
    1.3970  -10.5850    4.4840 C   0  0  0  0  0  0  0  0  0  0  0  0
    1.5580   -9.3410    5.2800 N   0  0  0  0  0  0  0  0  0  0  0  0
    2.9180   -9.0550    5.8410 C   0  0  0  0  0  0  0  0  0  0  0  0
    3.8720   -8.3040    4.8320 C   0  0  2  0  0  0  0  0  0  0  0  0
    3.3410   -6.9220    4.4550 C   0  0  0  0  0  0  0  0  0  0  0  0
    6.6990   -8.1420    0.3820 C   0  0  0  0  0  0  0  0  0  0  0  0
    8.0925   -8.1711    2.7261 H   0  0  0  0  0  0  0  0  0  0  0  0
    9.6129   -8.7833    1.9912 H   0  0  0  0  0  0  0  0  0  0  0  0
    9.2612   -7.0218    1.9912 H   0  0  0  0  0  0  0  0  0  0  0  0
   10.0502   -8.3272   -0.3368 H   0  0  0  0  0  0  0  0  0  0  0  0
    6.8789   -8.0012   -3.0283 H   0  0  0  0  0  0  0  0  0  0  0  0
    4.6666   -7.7083   -2.3852 H   0  0  0  0  0  0  0  0  0  0  0  0
    2.9093   -7.5029   -0.6393 H   0  0  0  0  0  0  0  0  0  0  0  0
    3.5085   -7.8736    1.7455 H   0  0  0  0  0  0  0  0  0  0  0  0
    4.2254  -10.8896    2.5302 H   0  0  0  0  0  0  0  0  0  0  0  0
    3.9495  -10.9856    4.3549 H   0  0  0  0  0  0  0  0  0  0  0  0
    1.8958   -9.7399    2.5927 H   0  0  0  0  0  0  0  0  0  0  0  0
    2.0656  -11.5682    2.7478 H   0  0  0  0  0  0  0  0  0  0  0  0
    0.3369  -10.6919    4.2105 H   0  0  0  0  0  0  0  0  0  0  0  0
    1.7457  -11.4224    5.1062 H   0  0  0  0  0  0  0  0  0  0  0  0
    0.8640   -9.3810    6.0540 H   0  0  0  0  0  0  0  0  0  0  0  0
    1.2400   -8.5420    4.7180 H   0  0  0  0  0  0  0  0  0  0  0  0
    2.7997   -8.4301    6.7385 H   0  0  0  0  0  0  0  0  0  0  0  0
    3.3851  -10.0252    6.0657 H   0  0  0  0  0  0  0  0  0  0  0  0
    4.8042   -8.1929    5.4053 H   0  0  0  0  0  0  0  0  0  0  0  0
    3.1218   -6.3514    5.3695 H   0  0  0  0  0  0  0  0  0  0  0  0
    4.0978   -6.3876    3.8620 H   0  0  0  0  0  0  0  0  0  0  0  0
    2.4211   -7.0319    3.8620 H   0  0  0  0  0  0  0  0  0  0  0  0
  1  2  1  0
  2  3  2  0
  3  4  1  0
  4  5  2  0
  5  6  1  0
  6  7  2  0
  7  8  1  0
  8  9  2  0
  9 10  1  0
 10 11  1  0
 11 12  2  0
 11 13  2  0
 11 14  1  0
 14 15  1  0
 15 16  1  0
 16 17  1  0
 17 18  1  0
 18 19  1  0
 19 20  1  0
 20 21  1  0
 10 22  2  0
 22  2  1  0
 22  6  1  0
 20 14  1  0
  1 23  1  0
  1 24  1  0
  1 25  1  0
  3 26  1  0
  5 27  1  0
  7 28  1  0
  8 29  1  0
  9 30  1  0
 15 31  1  0
 15 32  1  0
 16 33  1  0
 16 34  1  0
 17 35  1  0
 17 36  1  0
 18 37  1  0
 18 38  1  0
 19 39  1  0
 19 40  1  0
 20 41  1  1
 21 42  1  0
 21 43  1  0
 21 44  1  0
M  CHG  1  18   1
M  END
>  <meeko>  (2) 
{"is_sidechain": [false], "free_energy": -5.578, "intermolecular_energy": -8.498, "internal_energy": 0.465}

$$$$
1q8u_ligand
     RDKit          3D

 44 46  0  0  0  0  0  0  0  0999 V2000
    4.5380   -8.0750   -1.8420 C   0  0  0  0  0  0  0  0  0  0  0  0
    6.0180   -7.8860   -1.6660 C   0  0  0  0  0  0  0  0  0  0  0  0
    6.7190   -7.5450   -2.8290 C   0  0  0  0  0  0  0  0  0  0  0  0
    8.0530   -7.4660   -2.9210 N   0  0  0  0  0  0  0  0  0  0  0  0
    8.7430   -7.7950   -1.8160 C   0  0  0  0  0  0  0  0  0  0  0  0
    8.1690   -8.1260   -0.5880 C   0  0  0  0  0  0  0  0  0  0  0  0
    9.0170   -8.4900    0.4720 C   0  0  0  0  0  0  0  0  0  0  0  0
    8.5050   -8.8370    1.7150 C   0  0  0  0  0  0  0  0  0  0  0  0
    7.1410   -8.7470    1.9280 C   0  0  0  0  0  0  0  0  0  0  0  0
    6.2810   -8.3280    0.8910 C   0  0  0  0  0  0  0  0  0  0  0  0
    4.6280   -7.9410    1.4060 S   0  0  0  0  0  0  0  0  0  0  0  0
    4.3990   -6.5070    1.4360 O   0  0  0  0  0  0  0  0  0  0  0  0
    3.7090   -8.8210    0.7250 O   0  0  0  0  0  0  0  0  0  0  0  0
    4.5610   -8.3170    3.0870 N   0  0  0  0  0  0  0  0  0  0  0  0
    4.8610   -7.2080    4.0420 C   0  0  0  0  0  0  0  0  0  0  0  0
    3.6980   -6.2920    4.3960 C   0  0  0  0  0  0  0  0  0  0  0  0
    2.8380   -6.7480    5.5620 C   0  0  0  0  0  0  0  0  0  0  0  0
    2.5890   -8.2120    5.5580 N   0  0  0  0  0  0  0  0  0  0  0  0
    2.2830   -8.8540    4.2390 C   0  0  0  0  0  0  0  0  0  0  0  0
    3.5430   -9.3550    3.4680 C   0  0  2  0  0  0  0  0  0  0  0  0
    4.2170  -10.5310    4.1740 C   0  0  0  0  0  0  0  0  0  0  0  0
    6.7540   -8.0980   -0.4460 C   0  0  0  0  0  0  0  0  0  0  0  0
    4.0563   -8.1365   -0.8550 H   0  0  0  0  0  0  0  0  0  0  0  0
    4.1233   -7.2225   -2.3999 H   0  0  0  0  0  0  0  0  0  0  0  0
    4.3508   -9.0043   -2.3999 H   0  0  0  0  0  0  0  0  0  0  0  0
    6.1316   -7.3260   -3.7329 H   0  0  0  0  0  0  0  0  0  0  0  0
    9.8408   -7.8041   -1.8845 H   0  0  0  0  0  0  0  0  0  0  0  0
   10.1056   -8.5002    0.3140 H   0  0  0  0  0  0  0  0  0  0  0  0
    9.1740   -9.1785    2.5186 H   0  0  0  0  0  0  0  0  0  0  0  0
    6.7240   -9.0040    2.9129 H   0  0  0  0  0  0  0  0  0  0  0  0
    5.2287   -7.6593    4.9753 H   0  0  0  0  0  0  0  0  0  0  0  0
    5.5937   -6.5680    3.5286 H   0  0  0  0  0  0  0  0  0  0  0  0
    4.1094   -5.3027    4.6449 H   0  0  0  0  0  0  0  0  0  0  0  0
    3.0374   -6.2890    3.5165 H   0  0  0  0  0  0  0  0  0  0  0  0
    3.3476   -6.4811    6.4996 H   0  0  0  0  0  0  0  0  0  0  0  0
    1.8632   -6.2469    5.4692 H   0  0  0  0  0  0  0  0  0  0  0  0
    1.8080   -8.3910    6.2210 H   0  0  0  0  0  0  0  0  0  0  0  0
    3.3870   -8.6870    5.9980 H   0  0  0  0  0  0  0  0  0  0  0  0
    1.6227   -9.7152    4.4187 H   0  0  0  0  0  0  0  0  0  0  0  0
    1.8128   -8.0824    3.6117 H   0  0  0  0  0  0  0  0  0  0  0  0
    3.1190   -9.6859    2.5085 H   0  0  0  0  0  0  0  0  0  0  0  0
    4.1405  -10.3975    5.2632 H   0  0  0  0  0  0  0  0  0  0  0  0
    3.7186  -11.4676    3.8835 H   0  0  0  0  0  0  0  0  0  0  0  0
    5.2771  -10.5744    3.8835 H   0  0  0  0  0  0  0  0  0  0  0  0
  1  2  1  0
  2  3  2  0
  3  4  1  0
  4  5  2  0
  5  6  1  0
  6  7  2  0
  7  8  1  0
  8  9  2  0
  9 10  1  0
 10 11  1  0
 11 12  2  0
 11 13  2  0
 11 14  1  0
 14 15  1  0
 15 16  1  0
 16 17  1  0
 17 18  1  0
 18 19  1  0
 19 20  1  0
 20 21  1  0
 10 22  2  0
 22  2  1  0
 22  6  1  0
 20 14  1  0
  1 23  1  0
  1 24  1  0
  1 25  1  0
  3 26  1  0
  5 27  1  0
  7 28  1  0
  8 29  1  0
  9 30  1  0
 15 31  1  0
 15 32  1  0
 16 33  1  0
 16 34  1  0
 17 35  1  0
 17 36  1  0
 18 37  1  0
 18 38  1  0
 19 39  1  0
 19 40  1  0
 20 41  1  6
 21 42  1  0
 21 43  1  0
 21 44  1  0
M  CHG  1  18   1
M  END
>  <meeko>  (3) 
{"is_sidechain": [false], "free_energy": -5.56, "intermolecular_energy": -8.797, "internal_energy": 0.79}

$$$$
1q8u_ligand
     RDKit          3D

 44 46  0  0  0  0  0  0  0  0999 V2000
    6.5420   -5.6010    1.1570 C   0  0  0  0  0  0  0  0  0  0  0  0
    5.8920   -6.7500    0.4410 C   0  0  0  0  0  0  0  0  0  0  0  0
    6.3770   -7.0020   -0.8480 C   0  0  0  0  0  0  0  0  0  0  0  0
    5.8460   -7.8850   -1.7040 N   0  0  0  0  0  0  0  0  0  0  0  0
    4.7380   -8.5200   -1.2880 C   0  0  0  0  0  0  0  0  0  0  0  0
    4.1680   -8.3820   -0.0210 C   0  0  0  0  0  0  0  0  0  0  0  0
    2.9810   -9.0790    0.2610 C   0  0  0  0  0  0  0  0  0  0  0  0
    2.3640   -8.9760    1.4990 C   0  0  0  0  0  0  0  0  0  0  0  0
    2.9740   -8.2310    2.4930 C   0  0  0  0  0  0  0  0  0  0  0  0
    4.1950   -7.5700    2.2450 C   0  0  0  0  0  0  0  0  0  0  0  0
    5.0120   -6.9470    3.6910 S   0  0  0  0  0  0  0  0  0  0  0  0
    6.3190   -7.5540    3.8700 O   0  0  0  0  0  0  0  0  0  0  0  0
    4.8520   -5.5130    3.7360 O   0  0  0  0  0  0  0  0  0  0  0  0
    4.1580   -7.6100    5.0330 N   0  0  0  0  0  0  0  0  0  0  0  0
    4.9330   -8.4830    5.9660 C   0  0  0  0  0  0  0  0  0  0  0  0
    5.2190   -7.9050    7.3460 C   0  0  0  0  0  0  0  0  0  0  0  0
    5.8510   -6.5250    7.3590 C   0  0  0  0  0  0  0  0  0  0  0  0
    4.9770   -5.4840    6.7580 N   0  0  0  0  0  0  0  0  0  0  0  0
    3.5040   -5.7580    6.7230 C   0  0  0  0  0  0  0  0  0  0  0  0
    3.0640   -6.7410    5.5860 C   0  0  2  0  0  0  0  0  0  0  0  0
    1.8560   -7.5900    5.9820 C   0  0  0  0  0  0  0  0  0  0  0  0
    4.7910   -7.5350    0.9370 C   0  0  0  0  0  0  0  0  0  0  0  0
    6.4572   -5.7508    2.2434 H   0  0  0  0  0  0  0  0  0  0  0  0
    7.6042   -5.5475    0.8760 H   0  0  0  0  0  0  0  0  0  0  0  0
    6.0407   -4.6631    0.8760 H   0  0  0  0  0  0  0  0  0  0  0  0
    7.2577   -6.4338   -1.1819 H   0  0  0  0  0  0  0  0  0  0  0  0
    4.2431   -9.1989   -1.9980 H   0  0  0  0  0  0  0  0  0  0  0  0
    2.5329   -9.7180   -0.5142 H   0  0  0  0  0  0  0  0  0  0  0  0
    1.4041   -9.4790    1.6879 H   0  0  0  0  0  0  0  0  0  0  0  0
    2.5030   -8.1538    3.4841 H   0  0  0  0  0  0  0  0  0  0  0  0
    4.3649   -9.4149    6.1035 H   0  0  0  0  0  0  0  0  0  0  0  0
    5.9172   -8.6183    5.4936 H   0  0  0  0  0  0  0  0  0  0  0  0
    4.2664   -7.8465    7.8929 H   0  0  0  0  0  0  0  0  0  0  0  0
    5.9555   -8.5785    7.8085 H   0  0  0  0  0  0  0  0  0  0  0  0
    6.0636   -6.2459    8.4016 H   0  0  0  0  0  0  0  0  0  0  0  0
    6.7684   -6.5759    6.7541 H   0  0  0  0  0  0  0  0  0  0  0  0
    5.3230   -5.3160    5.7920 H   0  0  0  0  0  0  0  0  0  0  0  0
    5.1520   -4.5890    7.2320 H   0  0  0  0  0  0  0  0  0  0  0  0
    3.2105   -6.1939    7.6894 H   0  0  0  0  0  0  0  0  0  0  0  0
    3.0071   -4.7974    6.5221 H   0  0  0  0  0  0  0  0  0  0  0  0
    2.7731   -6.0683    4.7657 H   0  0  0  0  0  0  0  0  0  0  0  0
    1.7861   -7.6392    7.0787 H   0  0  0  0  0  0  0  0  0  0  0  0
    0.9399   -7.1361    5.5761 H   0  0  0  0  0  0  0  0  0  0  0  0
    1.9728   -8.6057    5.5761 H   0  0  0  0  0  0  0  0  0  0  0  0
  1  2  1  0
  2  3  2  0
  3  4  1  0
  4  5  2  0
  5  6  1  0
  6  7  2  0
  7  8  1  0
  8  9  2  0
  9 10  1  0
 10 11  1  0
 11 12  2  0
 11 13  2  0
 11 14  1  0
 14 15  1  0
 15 16  1  0
 16 17  1  0
 17 18  1  0
 18 19  1  0
 19 20  1  0
 20 21  1  0
 10 22  2  0
 22  2  1  0
 22  6  1  0
 20 14  1  0
  1 23  1  0
  1 24  1  0
  1 25  1  0
  3 26  1  0
  5 27  1  0
  7 28  1  0
  8 29  1  0
  9 30  1  0
 15 31  1  0
 15 32  1  0
 16 33  1  0
 16 34  1  0
 17 35  1  0
 17 36  1  0
 18 37  1  0
 18 38  1  0
 19 39  1  0
 19 40  1  0
 20 41  1  6
 21 42  1  0
 21 43  1  0
 21 44  1  0
M  CHG  1  18   1
M  END
>  <meeko>  (4) 
{"is_sidechain": [false], "free_energy": -5.333, "intermolecular_energy": -7.874, "internal_energy": 0.2}

$$$$
1q8u_ligand
     RDKit          3D

 44 46  0  0  0  0  0  0  0  0999 V2000
    7.7720   -8.1060    2.3070 C   0  0  0  0  0  0  0  0  0  0  0  0
    6.9040   -8.1790    1.0830 C   0  0  0  0  0  0  0  0  0  0  0  0
    7.5830   -8.0620   -0.1370 C   0  0  0  0  0  0  0  0  0  0  0  0
    6.9890   -7.9630   -1.3340 N   0  0  0  0  0  0  0  0  0  0  0  0
    5.6460   -7.9240   -1.3260 C   0  0  0  0  0  0  0  0  0  0  0  0
    4.8510   -8.0580   -0.1870 C   0  0  0  0  0  0  0  0  0  0  0  0
    3.4560   -7.9530   -0.3260 C   0  0  0  0  0  0  0  0  0  0  0  0
    2.6140   -8.0700    0.7710 C   0  0  0  0  0  0  0  0  0  0  0  0
    3.1590   -8.3690    2.0070 C   0  0  0  0  0  0  0  0  0  0  0  0
    4.5520   -8.5330    2.1530 C   0  0  0  0  0  0  0  0  0  0  0  0
    5.0600   -9.2380    3.7000 S   0  0  0  0  0  0  0  0  0  0  0  0
    3.9210   -9.5350    4.5520 O   0  0  0  0  0  0  0  0  0  0  0  0
    6.0720  -10.2350    3.4480 O   0  0  0  0  0  0  0  0  0  0  0  0
    5.8000   -7.9550    4.5800 N   0  0  0  0  0  0  0  0  0  0  0  0
    5.2000   -6.5950    4.4280 C   0  0  0  0  0  0  0  0  0  0  0  0
    3.7740   -6.4280    4.9370 C   0  0  0  0  0  0  0  0  0  0  0  0
    3.6100   -6.4600    6.4450 C   0  0  0  0  0  0  0  0  0  0  0  0
    4.1970   -7.6760    7.0640 N   0  0  0  0  0  0  0  0  0  0  0  0
    5.6900   -7.7410    7.1740 C   0  0  0  0  0  0  0  0  0  0  0  0
    6.3950   -8.3470    5.9030 C   0  0  2  0  0  0  0  0  0  0  0  0
    7.9070   -8.1250    5.8970 C   0  0  0  0  0  0  0  0  0  0  0  0
    5.4680   -8.2800    1.0750 C   0  0  0  0  0  0  0  0  0  0  0  0
    7.1419   -8.1590    3.2071 H   0  0  0  0  0  0  0  0  0  0  0  0
    8.4801   -8.9478    2.3051 H   0  0  0  0  0  0  0  0  0  0  0  0
    8.3296   -7.1578    2.3051 H   0  0  0  0  0  0  0  0  0  0  0  0
    8.6826   -8.0506   -0.1102 H   0  0  0  0  0  0  0  0  0  0  0  0
    5.1352   -7.7754   -2.2888 H   0  0  0  0  0  0  0  0  0  0  0  0
    3.0242   -7.7750   -1.3219 H   0  0  0  0  0  0  0  0  0  0  0  0
    1.5290   -7.9271    0.6594 H   0  0  0  0  0  0  0  0  0  0  0  0
    2.5013   -8.4796    2.8817 H   0  0  0  0  0  0  0  0  0  0  0  0
    5.8369   -5.8842    4.9749 H   0  0  0  0  0  0  0  0  0  0  0  0
    5.1484   -6.4156    3.3439 H   0  0  0  0  0  0  0  0  0  0  0  0
    3.3965   -5.4600    4.5757 H   0  0  0  0  0  0  0  0  0  0  0  0
    3.2137   -7.2938    4.5542 H   0  0  0  0  0  0  0  0  0  0  0  0
    4.1055   -5.5751    6.8709 H   0  0  0  0  0  0  0  0  0  0  0  0
    2.5312   -6.4678    6.6599 H   0  0  0  0  0  0  0  0  0  0  0  0
    3.8520   -8.4930    6.5200 H   0  0  0  0  0  0  0  0  0  0  0  0
    3.7750   -7.8150    7.9910 H   0  0  0  0  0  0  0  0  0  0  0  0
    6.0711   -6.7208    7.3287 H   0  0  0  0  0  0  0  0  0  0  0  0
    5.9204   -8.4088    8.0172 H   0  0  0  0  0  0  0  0  0  0  0  0
    6.1966   -9.4238    6.0081 H   0  0  0  0  0  0  0  0  0  0  0  0
    8.2738   -8.0711    6.9326 H   0  0  0  0  0  0  0  0  0  0  0  0
    8.3982   -8.9606    5.3770 H   0  0  0  0  0  0  0  0  0  0  0  0
    8.1373   -7.1834    5.3770 H   0  0  0  0  0  0  0  0  0  0  0  0
  1  2  1  0
  2  3  2  0
  3  4  1  0
  4  5  2  0
  5  6  1  0
  6  7  2  0
  7  8  1  0
  8  9  2  0
  9 10  1  0
 10 11  1  0
 11 12  2  0
 11 13  2  0
 11 14  1  0
 14 15  1  0
 15 16  1  0
 16 17  1  0
 17 18  1  0
 18 19  1  0
 19 20  1  0
 20 21  1  0
 10 22  2  0
 22  2  1  0
 22  6  1  0
 20 14  1  0
  1 23  1  0
  1 24  1  0
  1 25  1  0
  3 26  1  0
  5 27  1  0
  7 28  1  0
  8 29  1  0
  9 30  1  0
 15 31  1  0
 15 32  1  0
 16 33  1  0
 16 34  1  0
 17 35  1  0
 17 36  1  0
 18 37  1  0
 18 38  1  0
 19 39  1  0
 19 40  1  0
 20 41  1  1
 21 42  1  0
 21 43  1  0
 21 44  1  0
M  CHG  1  18   1
M  END
>  <meeko>  (5) 
{"is_sidechain": [false], "free_energy": -5.0, "intermolecular_energy": -7.816, "internal_energy": 0.63}

$$$$
1q8u_ligand
     RDKit          3D

 44 46  0  0  0  0  0  0  0  0999 V2000
    0.8410   -8.9060   10.4150 C   0  0  0  0  0  0  0  0  0  0  0  0
   -0.4300   -8.8170    9.6190 C   0  0  0  0  0  0  0  0  0  0  0  0
   -1.6070   -8.7760   10.3760 C   0  0  0  0  0  0  0  0  0  0  0  0
   -2.8440   -8.8350    9.8660 N   0  0  0  0  0  0  0  0  0  0  0  0
   -2.9290   -8.9970    8.5350 C   0  0  0  0  0  0  0  0  0  0  0  0
   -1.8390   -9.0250    7.6650 C   0  0  0  0  0  0  0  0  0  0  0  0
   -2.0770   -9.2440    6.2970 C   0  0  0  0  0  0  0  0  0  0  0  0
   -1.0330   -9.2910    5.3850 C   0  0  0  0  0  0  0  0  0  0  0  0
    0.2550   -9.0420    5.8240 C   0  0  0  0  0  0  0  0  0  0  0  0
    0.5050   -8.7630    7.1840 C   0  0  0  0  0  0  0  0  0  0  0  0
    2.1300   -8.1380    7.5290 S   0  0  0  0  0  0  0  0  0  0  0  0
    2.0770   -6.8410    8.1810 O   0  0  0  0  0  0  0  0  0  0  0  0
    2.9330   -9.2060    8.0750 O   0  0  0  0  0  0  0  0  0  0  0  0
    2.8010   -7.7090    6.0010 N   0  0  0  0  0  0  0  0  0  0  0  0
    2.8250   -6.2560    5.6550 C   0  0  0  0  0  0  0  0  0  0  0  0
    4.0520   -5.4770    6.1100 C   0  0  0  0  0  0  0  0  0  0  0  0
    5.2250   -5.4850    5.1470 C   0  0  0  0  0  0  0  0  0  0  0  0
    5.5800   -6.8500    4.6810 N   0  0  0  0  0  0  0  0  0  0  0  0
    5.3530   -7.9840    5.6340 C   0  0  0  0  0  0  0  0  0  0  0  0
    3.9190   -8.5920    5.5250 C   0  0  2  0  0  0  0  0  0  0  0  0
    3.6140   -9.1360    4.1300 C   0  0  0  0  0  0  0  0  0  0  0  0
   -0.5260   -8.8470    8.1820 C   0  0  0  0  0  0  0  0  0  0  0  0
    0.6030   -8.8893   11.4888 H   0  0  0  0  0  0  0  0  0  0  0  0
    1.3626   -9.8429   10.1695 H   0  0  0  0  0  0  0  0  0  0  0  0
    1.4880   -8.0510   10.1695 H   0  0  0  0  0  0  0  0  0  0  0  0
   -1.5087   -8.6891   11.4681 H   0  0  0  0  0  0  0  0  0  0  0  0
   -3.9319   -9.1163    8.0992 H   0  0  0  0  0  0  0  0  0  0  0  0
   -3.1096   -9.3805    5.9435 H   0  0  0  0  0  0  0  0  0  0  0  0
   -1.2265   -9.5231    4.3273 H   0  0  0  0  0  0  0  0  0  0  0  0
    1.0897   -9.0617    5.1079 H   0  0  0  0  0  0  0  0  0  0  0  0
    2.7600   -6.1705    4.5603 H   0  0  0  0  0  0  0  0  0  0  0  0
    1.9764   -5.8106    6.1949 H   0  0  0  0  0  0  0  0  0  0  0  0
    3.7501   -4.4311    6.2677 H   0  0  0  0  0  0  0  0  0  0  0  0
    4.4069   -5.9784    7.0225 H   0  0  0  0  0  0  0  0  0  0  0  0
    4.9649   -4.8717    4.2717 H   0  0  0  0  0  0  0  0  0  0  0  0
    6.0963   -5.0822    5.6842 H   0  0  0  0  0  0  0  0  0  0  0  0
    6.5820   -6.8270    4.4010 H   0  0  0  0  0  0  0  0  0  0  0  0
    5.0910   -7.0380    3.7960 H   0  0  0  0  0  0  0  0  0  0  0  0
    6.0867   -8.7749    5.4194 H   0  0  0  0  0  0  0  0  0  0  0  0
    5.4660   -7.5861    6.6532 H   0  0  0  0  0  0  0  0  0  0  0  0
    3.9534   -9.4310    6.2356 H   0  0  0  0  0  0  0  0  0  0  0  0
    3.0778  -10.0924    4.2185 H   0  0  0  0  0  0  0  0  0  0  0  0
    2.9889   -8.4144    3.5836 H   0  0  0  0  0  0  0  0  0  0  0  0
    4.5557   -9.2928    3.5836 H   0  0  0  0  0  0  0  0  0  0  0  0
  1  2  1  0
  2  3  2  0
  3  4  1  0
  4  5  2  0
  5  6  1  0
  6  7  2  0
  7  8  1  0
  8  9  2  0
  9 10  1  0
 10 11  1  0
 11 12  2  0
 11 13  2  0
 11 14  1  0
 14 15  1  0
 15 16  1  0
 16 17  1  0
 17 18  1  0
 18 19  1  0
 19 20  1  0
 20 21  1  0
 10 22  2  0
 22  2  1  0
 22  6  1  0
 20 14  1  0
  1 23  1  0
  1 24  1  0
  1 25  1  0
  3 26  1  0
  5 27  1  0
  7 28  1  0
  8 29  1  0
  9 30  1  0
 15 31  1  0
 15 32  1  0
 16 33  1  0
 16 34  1  0
 17 35  1  0
 17 36  1  0
 18 37  1  0
 18 38  1  0
 19 39  1  0
 19 40  1  0
 20 41  1  1
 21 42  1  0
 21 43  1  0
 21 44  1  0
M  CHG  1  18   1
M  END
>  <meeko>  (6) 
{"is_sidechain": [false], "free_energy": -4.918, "intermolecular_energy": -7.367, "internal_energy": 0.303}

$$$$
1q8u_ligand
     RDKit          3D

 44 46  0  0  0  0  0  0  0  0999 V2000
    4.6030   -5.6850    4.6750 C   0  0  0  0  0  0  0  0  0  0  0  0
    4.4940   -6.8180    3.6940 C   0  0  0  0  0  0  0  0  0  0  0  0
    5.3620   -6.7440    2.5980 C   0  0  0  0  0  0  0  0  0  0  0  0
    5.3330   -7.5720    1.5450 N   0  0  0  0  0  0  0  0  0  0  0  0
    4.3570   -8.4950    1.5450 C   0  0  0  0  0  0  0  0  0  0  0  0
    3.4470   -8.6930    2.5830 C   0  0  0  0  0  0  0  0  0  0  0  0
    2.4500   -9.6710    2.4260 C   0  0  0  0  0  0  0  0  0  0  0  0
    1.5120   -9.9080    3.4200 C   0  0  0  0  0  0  0  0  0  0  0  0
    1.6110   -9.2180    4.6150 C   0  0  0  0  0  0  0  0  0  0  0  0
    2.6400   -8.2730    4.8120 C   0  0  0  0  0  0  0  0  0  0  0  0
    2.8380   -7.7280    6.4880 S   0  0  0  0  0  0  0  0  0  0  0  0
    4.1360   -8.1010    7.0220 O   0  0  0  0  0  0  0  0  0  0  0  0
    2.3590   -6.3710    6.5970 O   0  0  0  0  0  0  0  0  0  0  0  0
    1.7980   -8.7260    7.4320 N   0  0  0  0  0  0  0  0  0  0  0  0
    2.4400   -9.5710    8.4840 C   0  0  0  0  0  0  0  0  0  0  0  0
    2.2490   -9.1120    9.9240 C   0  0  0  0  0  0  0  0  0  0  0  0
    2.5170   -7.6400   10.1810 C   0  0  0  0  0  0  0  0  0  0  0  0
    1.5520   -6.7470    9.4890 N   0  0  0  0  0  0  0  0  0  0  0  0
    0.2700   -7.3580    9.0100 C   0  0  0  0  0  0  0  0  0  0  0  0
    0.4270   -8.1630    7.6820 C   0  0  2  0  0  0  0  0  0  0  0  0
   -0.6350   -9.2490    7.5210 C   0  0  0  0  0  0  0  0  0  0  0  0
    3.5420   -7.8960    3.7580 C   0  0  0  0  0  0  0  0  0  0  0  0
    4.5648   -6.0825    5.7000 H   0  0  0  0  0  0  0  0  0  0  0  0
    5.5560   -5.1576    4.5216 H   0  0  0  0  0  0  0  0  0  0  0  0
    3.7680   -4.9855    4.5216 H   0  0  0  0  0  0  0  0  0  0  0  0
    6.1223   -5.9491    2.6016 H   0  0  0  0  0  0  0  0  0  0  0  0
    4.2690   -9.1429    0.6604 H   0  0  0  0  0  0  0  0  0  0  0  0
    2.4128  -10.2596    1.4974 H   0  0  0  0  0  0  0  0  0  0  0  0
    0.7012  -10.6340    3.2604 H   0  0  0  0  0  0  0  0  0  0  0  0
    0.8825   -9.4074    5.4171 H   0  0  0  0  0  0  0  0  0  0  0  0
    2.0262  -10.5865    8.3977 H   0  0  0  0  0  0  0  0  0  0  0  0
    3.5217   -9.5055    8.2950 H   0  0  0  0  0  0  0  0  0  0  0  0
    1.2084   -9.3224   10.2117 H   0  0  0  0  0  0  0  0  0  0  0  0
    2.9929   -9.6630   10.5181 H   0  0  0  0  0  0  0  0  0  0  0  0
    2.4521   -7.4552   11.2634 H   0  0  0  0  0  0  0  0  0  0  0  0
    3.5183   -7.4130    9.7862 H   0  0  0  0  0  0  0  0  0  0  0  0
    2.0540   -6.3180    8.6850 H   0  0  0  0  0  0  0  0  0  0  0  0
    1.3470   -5.9440   10.0960 H   0  0  0  0  0  0  0  0  0  0  0  0
   -0.1044   -8.0389    9.7886 H   0  0  0  0  0  0  0  0  0  0  0  0
   -0.4289   -6.5326    8.8095 H   0  0  0  0  0  0  0  0  0  0  0  0
    0.2711   -7.3993    6.9058 H   0  0  0  0  0  0  0  0  0  0  0  0
   -0.9664   -9.5878    8.5137 H   0  0  0  0  0  0  0  0  0  0  0  0
   -1.4939   -8.8427    6.9667 H   0  0  0  0  0  0  0  0  0  0  0  0
   -0.2096  -10.0986    6.9667 H   0  0  0  0  0  0  0  0  0  0  0  0
  1  2  1  0
  2  3  2  0
  3  4  1  0
  4  5  2  0
  5  6  1  0
  6  7  2  0
  7  8  1  0
  8  9  2  0
  9 10  1  0
 10 11  1  0
 11 12  2  0
 11 13  2  0
 11 14  1  0
 14 15  1  0
 15 16  1  0
 16 17  1  0
 17 18  1  0
 18 19  1  0
 19 20  1  0
 20 21  1  0
 10 22  2  0
 22  2  1  0
 22  6  1  0
 20 14  1  0
  1 23  1  0
  1 24  1  0
  1 25  1  0
  3 26  1  0
  5 27  1  0
  7 28  1  0
  8 29  1  0
  9 30  1  0
 15 31  1  0
 15 32  1  0
 16 33  1  0
 16 34  1  0
 17 35  1  0
 17 36  1  0
 18 37  1  0
 18 38  1  0
 19 39  1  0
 19 40  1  0
 20 41  1  6
 21 42  1  0
 21 43  1  0
 21 44  1  0
M  CHG  1  18   1
M  END
>  <meeko>  (7) 
{"is_sidechain": [false], "free_energy": -4.918, "intermolecular_energy": -7.266, "internal_energy": 0.202}

$$$$
1q8u_ligand
     RDKit          3D

 44 46  0  0  0  0  0  0  0  0999 V2000
    8.2240   -8.0090    1.7360 C   0  0  0  0  0  0  0  0  0  0  0  0
    7.2810   -8.1100    0.5710 C   0  0  0  0  0  0  0  0  0  0  0  0
    7.8890   -8.1260   -0.6900 C   0  0  0  0  0  0  0  0  0  0  0  0
    7.2300   -8.0730   -1.8550 N   0  0  0  0  0  0  0  0  0  0  0  0
    5.8960   -7.9410   -1.7750 C   0  0  0  0  0  0  0  0  0  0  0  0
    5.1650   -7.9390   -0.5860 C   0  0  0  0  0  0  0  0  0  0  0  0
    3.7740   -7.7500   -0.6530 C   0  0  0  0  0  0  0  0  0  0  0  0
    2.9950   -7.7300    0.4950 C   0  0  0  0  0  0  0  0  0  0  0  0
    3.5950   -7.9770    1.7170 C   0  0  0  0  0  0  0  0  0  0  0  0
    4.9810   -8.2250    1.7960 C   0  0  0  0  0  0  0  0  0  0  0  0
    5.5360   -8.8510    3.3610 S   0  0  0  0  0  0  0  0  0  0  0  0
    6.3750  -10.0250    3.2000 O   0  0  0  0  0  0  0  0  0  0  0  0
    5.9680   -7.7430    4.1800 O   0  0  0  0  0  0  0  0  0  0  0  0
    4.1470   -9.5420    4.1090 N   0  0  0  0  0  0  0  0  0  0  0  0
    3.4030   -8.6850    5.0810 C   0  0  0  0  0  0  0  0  0  0  0  0
    2.6050   -9.4190    6.1500 C   0  0  0  0  0  0  0  0  0  0  0  0
    1.2190   -9.8770    5.7320 C   0  0  0  0  0  0  0  0  0  0  0  0
    1.2450  -10.8380    4.6000 N   0  0  0  0  0  0  0  0  0  0  0  0
    1.8370  -10.3630    3.3080 C   0  0  0  0  0  0  0  0  0  0  0  0
    3.3810  -10.5150    3.2580 C   0  0  2  0  0  0  0  0  0  0  0  0
    3.8410  -11.9460    3.5360 C   0  0  0  0  0  0  0  0  0  0  0  0
    5.8430   -8.1130    0.6520 C   0  0  0  0  0  0  0  0  0  0  0  0
    7.6545   -8.0700    2.6751 H   0  0  0  0  0  0  0  0  0  0  0  0
    8.9497   -8.8346    1.6930 H   0  0  0  0  0  0  0  0  0  0  0  0
    8.7584   -7.0485    1.6930 H   0  0  0  0  0  0  0  0  0  0  0  0
    8.9867   -8.1864   -0.7267 H   0  0  0  0  0  0  0  0  0  0  0  0
    5.3382   -7.8260   -2.7161 H   0  0  0  0  0  0  0  0  0  0  0  0
    3.2940   -7.6155   -1.6336 H   0  0  0  0  0  0  0  0  0  0  0  0
    1.9167   -7.5209    0.4345 H   0  0  0  0  0  0  0  0  0  0  0  0
    2.9866   -7.9800    2.6334 H   0  0  0  0  0  0  0  0  0  0  0  0
    4.1356   -8.0422    5.5911 H   0  0  0  0  0  0  0  0  0  0  0  0
    2.6599   -8.1376    4.4825 H   0  0  0  0  0  0  0  0  0  0  0  0
    3.1791  -10.3077    6.4511 H   0  0  0  0  0  0  0  0  0  0  0  0
    2.4511   -8.6941    6.9629 H   0  0  0  0  0  0  0  0  0  0  0  0
    0.7350  -10.3616    6.5928 H   0  0  0  0  0  0  0  0  0  0  0  0
    0.6643   -8.9879    5.3976 H   0  0  0  0  0  0  0  0  0  0  0  0
    0.2650  -11.1480    4.4400 H   0  0  0  0  0  0  0  0  0  0  0  0
    1.7200  -11.6980    4.9030 H   0  0  0  0  0  0  0  0  0  0  0  0
    1.4000  -10.9485    2.4856 H   0  0  0  0  0  0  0  0  0  0  0  0
    1.6080   -9.2911    3.2147 H   0  0  0  0  0  0  0  0  0  0  0  0
    3.6265  -10.2605    2.2164 H   0  0  0  0  0  0  0  0  0  0  0  0
    3.8936  -12.1097    4.6225 H   0  0  0  0  0  0  0  0  0  0  0  0
    3.1251  -12.6539    3.0928 H   0  0  0  0  0  0  0  0  0  0  0  0
    4.8353  -12.1042    3.0928 H   0  0  0  0  0  0  0  0  0  0  0  0
  1  2  1  0
  2  3  2  0
  3  4  1  0
  4  5  2  0
  5  6  1  0
  6  7  2  0
  7  8  1  0
  8  9  2  0
  9 10  1  0
 10 11  1  0
 11 12  2  0
 11 13  2  0
 11 14  1  0
 14 15  1  0
 15 16  1  0
 16 17  1  0
 17 18  1  0
 18 19  1  0
 19 20  1  0
 20 21  1  0
 10 22  2  0
 22  2  1  0
 22  6  1  0
 20 14  1  0
  1 23  1  0
  1 24  1  0
  1 25  1  0
  3 26  1  0
  5 27  1  0
  7 28  1  0
  8 29  1  0
  9 30  1  0
 15 31  1  0
 15 32  1  0
 16 33  1  0
 16 34  1  0
 17 35  1  0
 17 36  1  0
 18 37  1  0
 18 38  1  0
 19 39  1  0
 19 40  1  0
 20 41  1  6
 21 42  1  0
 21 43  1  0
 21 44  1  0
M  CHG  1  18   1
M  END
>  <meeko>  (8) 
{"is_sidechain": [false], "free_energy": -4.737, "intermolecular_energy": -8.159, "internal_energy": 1.361}

$$$$
1q8u_ligand
     RDKit          3D

 44 46  0  0  0  0  0  0  0  0999 V2000
    2.0110  -10.2010    3.1310 C   0  0  0  0  0  0  0  0  0  0  0  0
    2.5080   -8.9680    2.4310 C   0  0  0  0  0  0  0  0  0  0  0  0
    2.2750   -8.9300    1.0510 C   0  0  0  0  0  0  0  0  0  0  0  0
    2.7550   -7.9940    0.2210 N   0  0  0  0  0  0  0  0  0  0  0  0
    3.5570   -7.0680    0.7750 C   0  0  0  0  0  0  0  0  0  0  0  0
    3.8480   -6.9770    2.1360 C   0  0  0  0  0  0  0  0  0  0  0  0
    4.7390   -5.9790    2.5670 C   0  0  0  0  0  0  0  0  0  0  0  0
    5.0720   -5.8440    3.9070 C   0  0  0  0  0  0  0  0  0  0  0  0
    4.4550   -6.6590    4.8380 C   0  0  0  0  0  0  0  0  0  0  0  0
    3.5150   -7.6280    4.4300 C   0  0  0  0  0  0  0  0  0  0  0  0
    2.5710   -8.3510    5.7460 S   0  0  0  0  0  0  0  0  0  0  0  0
    1.1630   -8.0100    5.6460 O   0  0  0  0  0  0  0  0  0  0  0  0
    2.9880   -9.7220    5.9190 O   0  0  0  0  0  0  0  0  0  0  0  0
    3.0140   -7.4880    7.1700 N   0  0  0  0  0  0  0  0  0  0  0  0
    1.9620   -6.6370    7.8030 C   0  0  0  0  0  0  0  0  0  0  0  0
    1.2300   -7.2470    8.9910 C   0  0  0  0  0  0  0  0  0  0  0  0
    0.9210   -8.7290    8.8790 C   0  0  0  0  0  0  0  0  0  0  0  0
    2.1260   -9.5840    9.0350 N   0  0  0  0  0  0  0  0  0  0  0  0
    3.4290   -8.8940    9.2990 C   0  0  0  0  0  0  0  0  0  0  0  0
    4.0220   -8.1770    8.0470 C   0  0  2  0  0  0  0  0  0  0  0  0
    5.1620   -7.2240    8.4020 C   0  0  0  0  0  0  0  0  0  0  0  0
    3.2490   -7.8960    3.0430 C   0  0  0  0  0  0  0  0  0  0  0  0
    2.0704  -10.0538    4.2195 H   0  0  0  0  0  0  0  0  0  0  0  0
    0.9664  -10.3902    2.8430 H   0  0  0  0  0  0  0  0  0  0  0  0
    2.6324  -11.0618    2.8430 H   0  0  0  0  0  0  0  0  0  0  0  0
    1.6527   -9.7263    0.6166 H   0  0  0  0  0  0  0  0  0  0  0  0
    4.0179   -6.3271    0.1051 H   0  0  0  0  0  0  0  0  0  0  0  0
    5.1800   -5.2930    1.8289 H   0  0  0  0  0  0  0  0  0  0  0  0
    5.8165   -5.0990    4.2243 H   0  0  0  0  0  0  0  0  0  0  0  0
    4.6992   -6.5508    5.9051 H   0  0  0  0  0  0  0  0  0  0  0  0
    2.4422   -5.7084    8.1452 H   0  0  0  0  0  0  0  0  0  0  0  0
    1.1954   -6.4906    7.0279 H   0  0  0  0  0  0  0  0  0  0  0  0
    1.8526   -7.0975    9.8855 H   0  0  0  0  0  0  0  0  0  0  0  0
    0.2556   -6.7387    9.0381 H   0  0  0  0  0  0  0  0  0  0  0  0
    0.1968   -8.9968    9.6625 H   0  0  0  0  0  0  0  0  0  0  0  0
    0.5180   -8.9070    7.8711 H   0  0  0  0  0  0  0  0  0  0  0  0
    2.2050  -10.1610    8.1730 H   0  0  0  0  0  0  0  0  0  0  0  0
    1.9470  -10.2800    9.7700 H   0  0  0  0  0  0  0  0  0  0  0  0
    3.2712   -8.1432   10.0873 H   0  0  0  0  0  0  0  0  0  0  0  0
    4.1496   -9.6697    9.5975 H   0  0  0  0  0  0  0  0  0  0  0  0
    4.4269   -9.0049    7.4464 H   0  0  0  0  0  0  0  0  0  0  0  0
    5.2507   -7.1498    9.4959 H   0  0  0  0  0  0  0  0  0  0  0  0
    6.1041   -7.6071    7.9829 H   0  0  0  0  0  0  0  0  0  0  0  0
    4.9520   -6.2289    7.9829 H   0  0  0  0  0  0  0  0  0  0  0  0
  1  2  1  0
  2  3  2  0
  3  4  1  0
  4  5  2  0
  5  6  1  0
  6  7  2  0
  7  8  1  0
  8  9  2  0
  9 10  1  0
 10 11  1  0
 11 12  2  0
 11 13  2  0
 11 14  1  0
 14 15  1  0
 15 16  1  0
 16 17  1  0
 17 18  1  0
 18 19  1  0
 19 20  1  0
 20 21  1  0
 10 22  2  0
 22  2  1  0
 22  6  1  0
 20 14  1  0
  1 23  1  0
  1 24  1  0
  1 25  1  0
  3 26  1  0
  5 27  1  0
  7 28  1  0
  8 29  1  0
  9 30  1  0
 15 31  1  0
 15 32  1  0
 16 33  1  0
 16 34  1  0
 17 35  1  0
 17 36  1  0
 18 37  1  0
 18 38  1  0
 19 39  1  0
 19 40  1  0
 20 41  1  6
 21 42  1  0
 21 43  1  0
 21 44  1  0
M  CHG  1  18   1
M  END
>  <meeko>  (9) 
{"is_sidechain": [false], "free_energy": -4.724, "intermolecular_energy": -7.091, "internal_energy": 0.311}

$$$$
