3dx1_ligand
     RDKit          3D

 21 21  0  0  0  0  0  0  0  0999 V2000
   -4.0890   18.6580    7.0360 N   0  0  0  0  0  0  0  0  0  0  0  0
   -2.8660   18.3950    7.8620 C   0  0  2  0  0  0  0  0  0  0  0  0
   -3.2770   17.7260    9.1710 C   0  0  0  0  0  0  0  0  0  0  0  0
   -3.7600   18.9120    9.9980 C   0  0  2  0  0  0  0  0  0  0  0  0
   -5.0060   19.3540    9.4390 O   0  0  0  0  0  0  0  0  0  0  0  0
   -2.6680   19.9610    9.7500 C   0  0  2  0  0  0  0  0  0  0  0  0
   -3.1350   21.2850    9.9790 O   0  0  0  0  0  0  0  0  0  0  0  0
   -2.2800   19.7680    8.2670 C   0  0  2  0  0  0  0  0  0  0  0  0
   -2.8480   20.7850    7.4250 O   0  0  0  0  0  0  0  0  0  0  0  0
   -4.9650   18.7510    7.5550 H   0  0  0  0  0  0  0  0  0  0  0  0
   -4.1570   17.8940    6.3390 H   0  0  0  0  0  0  0  0  0  0  0  0
   -3.9290   19.5100    6.4640 H   0  0  0  0  0  0  0  0  0  0  0  0
   -2.1604   17.7708    7.2941 H   0  0  0  0  0  0  0  0  0  0  0  0
   -4.0842   16.9962    9.0102 H   0  0  0  0  0  0  0  0  0  0  0  0
   -2.4681   17.1537    9.6485 H   0  0  0  0  0  0  0  0  0  0  0  0
   -3.9168   18.7033   11.0666 H   0  0  0  0  0  0  0  0  0  0  0  0
   -5.4450   18.5460    9.0920 H   0  0  0  0  0  0  0  0  0  0  0  0
   -1.8185   19.8294   10.4363 H   0  0  0  0  0  0  0  0  0  0  0  0
   -3.7340   21.2680   10.7520 H   0  0  0  0  0  0  0  0  0  0  0  0
   -1.1881   19.8268    8.1475 H   0  0  0  0  0  0  0  0  0  0  0  0
   -3.2760   21.4200    8.0450 H   0  0  0  0  0  0  0  0  0  0  0  0
  1  2  1  0
  2  3  1  0
  3  4  1  0
  4  5  1  0
  4  6  1  0
  6  7  1  0
  6  8  1  0
  8  9  1  0
  8  2  1  0
  1 10  1  0
  1 11  1  0
  1 12  1  0
  2 13  1  6
  3 14  1  0
  3 15  1  0
  4 16  1  1
  5 17  1  0
  6 18  1  1
  7 19  1  0
  8 20  1  1
  9 21  1  0
M  CHG  1   1   1
M  END
>  <meeko>  (1) 
{"is_sidechain": [false], "free_energy": -4.773, "intermolecular_energy": -5.331, "internal_energy": 0.0}

$$$$
3dx1_ligand
     RDKit          3D

 21 21  0  0  0  0  0  0  0  0999 V2000
   -2.9980   20.5780    7.5590 N   0  0  0  0  0  0  0  0  0  0  0  0
   -2.5670   19.5420    8.5530 C   0  0  2  0  0  0  0  0  0  0  0  0
   -2.4340   18.1940    7.8500 C   0  0  0  0  0  0  0  0  0  0  0  0
   -3.8840   17.7290    7.7740 C   0  0  2  0  0  0  0  0  0  0  0  0
   -4.5540   18.5500    6.8060 O   0  0  0  0  0  0  0  0  0  0  0  0
   -4.4090   18.0370    9.1830 C   0  0  2  0  0  0  0  0  0  0  0  0
   -5.8250   18.1780    9.2080 O   0  0  0  0  0  0  0  0  0  0  0  0
   -3.7230   19.3670    9.5660 C   0  0  2  0  0  0  0  0  0  0  0  0
   -4.6160   20.4870    9.4530 O   0  0  0  0  0  0  0  0  0  0  0  0
   -3.3110   20.2220    6.6530 H   0  0  0  0  0  0  0  0  0  0  0  0
   -2.2050   21.2350    7.4380 H   0  0  0  0  0  0  0  0  0  0  0  0
   -3.7460   21.1600    7.9850 H   0  0  0  0  0  0  0  0  0  0  0  0
   -1.6198   19.8472    9.0217 H   0  0  0  0  0  0  0  0  0  0  0  0
   -1.9982   18.3083    6.8465 H   0  0  0  0  0  0  0  0  0  0  0  0
   -1.7694   17.4878    8.3691 H   0  0  0  0  0  0  0  0  0  0  0  0
   -4.0229   16.6761    7.4873 H   0  0  0  0  0  0  0  0  0  0  0  0
   -5.1290   17.9420    6.2910 H   0  0  0  0  0  0  0  0  0  0  0  0
   -4.1844   17.2203    9.8848 H   0  0  0  0  0  0  0  0  0  0  0  0
   -6.1530   17.8080   10.0520 H   0  0  0  0  0  0  0  0  0  0  0  0
   -3.3838   19.3333   10.6118 H   0  0  0  0  0  0  0  0  0  0  0  0
   -5.3410   20.3020   10.0940 H   0  0  0  0  0  0  0  0  0  0  0  0
  1  2  1  0
  2  3  1  0
  3  4  1  0
  4  5  1  0
  4  6  1  0
  6  7  1  0
  6  8  1  0
  8  9  1  0
  8  2  1  0
  1 10  1  0
  1 11  1  0
  1 12  1  0
  2 13  1  1
  3 14  1  0
  3 15  1  0
  4 16  1  6
  5 17  1  0
  6 18  1  1
  7 19  1  0
  8 20  1  1
  9 21  1  0
M  CHG  1   1   1
M  END
>  <meeko>  (2) 
{"is_sidechain": [false], "free_energy": -4.671, "intermolecular_energy": -5.217, "internal_energy": 0.0}

$$$$
3dx1_ligand
     RDKit          3D

 21 21  0  0  0  0  0  0  0  0999 V2000
   -2.7780   20.5940   10.1110 N   0  0  0  0  0  0  0  0  0  0  0  0
   -4.0590   20.0540    9.5510 C   0  0  2  0  0  0  0  0  0  0  0  0
   -4.2880   18.6430   10.0870 C   0  0  0  0  0  0  0  0  0  0  0  0
   -3.3760   17.8100    9.1940 C   0  0  2  0  0  0  0  0  0  0  0  0
   -2.0200   18.0970    9.5680 O   0  0  0  0  0  0  0  0  0  0  0  0
   -3.6700   18.3730    7.7970 C   0  0  2  0  0  0  0  0  0  0  0  0
   -2.6020   18.1340    6.8880 O   0  0  0  0  0  0  0  0  0  0  0  0
   -3.8620   19.8890    8.0260 C   0  0  2  0  0  0  0  0  0  0  0  0
   -2.7090   20.6460    7.6200 O   0  0  0  0  0  0  0  0  0  0  0  0
   -2.4480   20.1520   10.9720 H   0  0  0  0  0  0  0  0  0  0  0  0
   -2.9100   21.6130   10.2510 H   0  0  0  0  0  0  0  0  0  0  0  0
   -2.0410   20.5310    9.3810 H   0  0  0  0  0  0  0  0  0  0  0  0
   -4.8910   20.7245    9.8123 H   0  0  0  0  0  0  0  0  0  0  0  0
   -3.9924   18.5644   11.1436 H   0  0  0  0  0  0  0  0  0  0  0  0
   -5.3410   18.3259   10.0626 H   0  0  0  0  0  0  0  0  0  0  0  0
   -3.5271   16.7222    9.2565 H   0  0  0  0  0  0  0  0  0  0  0  0
   -1.4730   17.3960    9.1500 H   0  0  0  0  0  0  0  0  0  0  0  0
   -4.5505   17.8927    7.3453 H   0  0  0  0  0  0  0  0  0  0  0  0
   -1.8550   17.7500    7.3880 H   0  0  0  0  0  0  0  0  0  0  0  0
   -4.7123   20.2594    7.4346 H   0  0  0  0  0  0  0  0  0  0  0  0
   -1.9390   20.0600    7.8090 H   0  0  0  0  0  0  0  0  0  0  0  0
  1  2  1  0
  2  3  1  0
  3  4  1  0
  4  5  1  0
  4  6  1  0
  6  7  1  0
  6  8  1  0
  8  9  1  0
  8  2  1  0
  1 10  1  0
  1 11  1  0
  1 12  1  0
  2 13  1  6
  3 14  1  0
  3 15  1  0
  4 16  1  6
  5 17  1  0
  6 18  1  6
  7 19  1  0
  8 20  1  6
  9 21  1  0
M  CHG  1   1   1
M  END
>  <meeko>  (3) 
{"is_sidechain": [false], "free_energy": -4.658, "intermolecular_energy": -5.202, "internal_energy": 0.0}

$$$$
3dx1_ligand
     RDKit          3D

 21 21  0  0  0  0  0  0  0  0999 V2000
   -1.7100   17.8180    8.8820 N   0  0  0  0  0  0  0  0  0  0  0  0
   -3.1490   17.5870    9.2300 C   0  0  2  0  0  0  0  0  0  0  0  0
   -3.9900   17.6390    7.9570 C   0  0  0  0  0  0  0  0  0  0  0  0
   -4.1330   19.1390    7.7280 C   0  0  2  0  0  0  0  0  0  0  0  0
   -2.8550   19.6390    7.3090 O   0  0  0  0  0  0  0  0  0  0  0  0
   -4.4710   19.6610    9.1310 C   0  0  2  0  0  0  0  0  0  0  0  0
   -4.1470   21.0380    9.2830 O   0  0  0  0  0  0  0  0  0  0  0  0
   -3.6160   18.7920   10.0800 C   0  0  2  0  0  0  0  0  0  0  0  0
   -2.4610   19.4980   10.5630 O   0  0  0  0  0  0  0  0  0  0  0  0
   -1.1910   18.4300    9.5150 H   0  0  0  0  0  0  0  0  0  0  0  0
   -1.6840   18.1880    7.9140 H   0  0  0  0  0  0  0  0  0  0  0  0
   -1.2310   16.8980    8.8140 H   0  0  0  0  0  0  0  0  0  0  0  0
   -3.2564   16.6214    9.7457 H   0  0  0  0  0  0  0  0  0  0  0  0
   -3.4717   17.1546    7.1163 H   0  0  0  0  0  0  0  0  0  0  0  0
   -4.9514   17.1110    8.0405 H   0  0  0  0  0  0  0  0  0  0  0  0
   -4.8795   19.4277    6.9735 H   0  0  0  0  0  0  0  0  0  0  0  0
   -2.6030   20.3200    7.9720 H   0  0  0  0  0  0  0  0  0  0  0  0
   -5.5489   19.5908    9.3389 H   0  0  0  0  0  0  0  0  0  0  0  0
   -3.6170   21.1380   10.0980 H   0  0  0  0  0  0  0  0  0  0  0  0
   -4.2044   18.4993   10.9621 H   0  0  0  0  0  0  0  0  0  0  0  0
   -2.7640   19.9550   11.3810 H   0  0  0  0  0  0  0  0  0  0  0  0
  1  2  1  0
  2  3  1  0
  3  4  1  0
  4  5  1  0
  4  6  1  0
  6  7  1  0
  6  8  1  0
  8  9  1  0
  8  2  1  0
  1 10  1  0
  1 11  1  0
  1 12  1  0
  2 13  1  1
  3 14  1  0
  3 15  1  0
  4 16  1  6
  5 17  1  0
  6 18  1  1
  7 19  1  0
  8 20  1  1
  9 21  1  0
M  CHG  1   1   1
M  END
>  <meeko>  (4) 
{"is_sidechain": [false], "free_energy": -4.583, "intermolecular_energy": -5.118, "internal_energy": 0.0}

$$$$
3dx1_ligand
     RDKit          3D

 21 21  0  0  0  0  0  0  0  0999 V2000
   -5.1700   17.0640   10.0040 N   0  0  0  0  0  0  0  0  0  0  0  0
   -5.3400   18.0840    8.9190 C   0  0  2  0  0  0  0  0  0  0  0  0
   -4.7410   17.5450    7.6230 C   0  0  0  0  0  0  0  0  0  0  0  0
   -3.2510   17.7980    7.8290 C   0  0  2  0  0  0  0  0  0  0  0  0
   -2.7880   16.8750    8.8250 O   0  0  0  0  0  0  0  0  0  0  0  0
   -3.2290   19.2290    8.3830 C   0  0  2  0  0  0  0  0  0  0  0  0
   -2.0440   19.4980    9.1230 O   0  0  0  0  0  0  0  0  0  0  0  0
   -4.4710   19.3070    9.2970 C   0  0  2  0  0  0  0  0  0  0  0  0
   -4.1240   19.2210   10.6880 O   0  0  0  0  0  0  0  0  0  0  0  0
   -4.4370   16.3680    9.8490 H   0  0  0  0  0  0  0  0  0  0  0  0
   -6.0890   16.6030   10.1370 H   0  0  0  0  0  0  0  0  0  0  0  0
   -5.0000   17.5570   10.9030 H   0  0  0  0  0  0  0  0  0  0  0  0
   -6.4062   18.3269    8.8002 H   0  0  0  0  0  0  0  0  0  0  0  0
   -4.9507   16.4719    7.5024 H   0  0  0  0  0  0  0  0  0  0  0  0
   -5.1487   18.0177    6.7173 H   0  0  0  0  0  0  0  0  0  0  0  0
   -2.6268   17.6778    6.9313 H   0  0  0  0  0  0  0  0  0  0  0  0
   -2.3650   16.1380    8.3300 H   0  0  0  0  0  0  0  0  0  0  0  0
   -3.2443   19.9748    7.5746 H   0  0  0  0  0  0  0  0  0  0  0  0
   -2.2420   19.3730   10.0720 H   0  0  0  0  0  0  0  0  0  0  0  0
   -4.9876   20.2679    9.1559 H   0  0  0  0  0  0  0  0  0  0  0  0
   -3.7280   18.3250   10.7980 H   0  0  0  0  0  0  0  0  0  0  0  0
  1  2  1  0
  2  3  1  0
  3  4  1  0
  4  5  1  0
  4  6  1  0
  6  7  1  0
  6  8  1  0
  8  9  1  0
  8  2  1  0
  1 10  1  0
  1 11  1  0
  1 12  1  0
  2 13  1  6
  3 14  1  0
  3 15  1  0
  4 16  1  6
  5 17  1  0
  6 18  1  6
  7 19  1  0
  8 20  1  1
  9 21  1  0
M  CHG  1   1   1
M  END
>  <meeko>  (5) 
{"is_sidechain": [false], "free_energy": -4.504, "intermolecular_energy": -5.031, "internal_energy": 0.0}

$$$$
3dx1_ligand
     RDKit          3D

 21 21  0  0  0  0  0  0  0  0999 V2000
   -4.2710   19.6280   10.1820 N   0  0  0  0  0  0  0  0  0  0  0  0
   -3.4680   18.4090    9.8460 C   0  0  2  0  0  0  0  0  0  0  0  0
   -2.1690   18.8340    9.1650 C   0  0  0  0  0  0  0  0  0  0  0  0
   -2.6300   19.1040    7.7370 C   0  0  2  0  0  0  0  0  0  0  0  0
   -3.4120   20.3070    7.7530 O   0  0  0  0  0  0  0  0  0  0  0  0
   -3.5260   17.8950    7.4400 C   0  0  2  0  0  0  0  0  0  0  0  0
   -4.4620   18.1630    6.4020 O   0  0  0  0  0  0  0  0  0  0  0  0
   -4.2560   17.6200    8.7740 C   0  0  2  0  0  0  0  0  0  0  0  0
   -5.6130   18.0900    8.7520 O   0  0  0  0  0  0  0  0  0  0  0  0
   -3.7390   20.4310   10.5250 H   0  0  0  0  0  0  0  0  0  0  0  0
   -4.9860   19.3420   10.8760 H   0  0  0  0  0  0  0  0  0  0  0  0
   -4.8250   19.9060    9.3480 H   0  0  0  0  0  0  0  0  0  0  0  0
   -3.2734   17.8278   10.7594 H   0  0  0  0  0  0  0  0  0  0  0  0
   -1.7534   19.7409    9.6285 H   0  0  0  0  0  0  0  0  0  0  0  0
   -1.3664   18.0852    9.2367 H   0  0  0  0  0  0  0  0  0  0  0  0
   -1.8225   19.2280    7.0004 H   0  0  0  0  0  0  0  0  0  0  0  0
   -2.8640   20.9770    8.2200 H   0  0  0  0  0  0  0  0  0  0  0  0
   -2.9380   17.0349    7.0873 H   0  0  0  0  0  0  0  0  0  0  0  0
   -4.4580   19.1260    6.2300 H   0  0  0  0  0  0  0  0  0  0  0  0
   -4.2954   16.5386    8.9716 H   0  0  0  0  0  0  0  0  0  0  0  0
   -5.6890   18.6170    7.9230 H   0  0  0  0  0  0  0  0  0  0  0  0
  1  2  1  0
  2  3  1  0
  3  4  1  0
  4  5  1  0
  4  6  1  0
  6  7  1  0
  6  8  1  0
  8  9  1  0
  8  2  1  0
  1 10  1  0
  1 11  1  0
  1 12  1  0
  2 13  1  1
  3 14  1  0
  3 15  1  0
  4 16  1  6
  5 17  1  0
  6 18  1  6
  7 19  1  0
  8 20  1  1
  9 21  1  0
M  CHG  1   1   1
M  END
>  <meeko>  (6) 
{"is_sidechain": [false], "free_energy": -4.437, "intermolecular_energy": -4.956, "internal_energy": 0.0}

$$$$
3dx1_ligand
     RDKit          3D

 21 21  0  0  0  0  0  0  0  0999 V2000
   -3.1050   20.5470    7.7960 N   0  0  0  0  0  0  0  0  0  0  0  0
   -4.1450   19.4790    7.9530 C   0  0  2  0  0  0  0  0  0  0  0  0
   -4.5910   19.4220    9.4120 C   0  0  0  0  0  0  0  0  0  0  0  0
   -3.4640   18.6260   10.0600 C   0  0  2  0  0  0  0  0  0  0  0  0
   -2.3020   19.4680   10.0960 O   0  0  0  0  0  0  0  0  0  0  0  0
   -3.2540   17.4750    9.0690 C   0  0  2  0  0  0  0  0  0  0  0  0
   -1.9530   16.9080    9.1750 O   0  0  0  0  0  0  0  0  0  0  0  0
   -3.4550   18.1210    7.6810 C   0  0  2  0  0  0  0  0  0  0  0  0
   -2.2060   18.3590    7.0100 O   0  0  0  0  0  0  0  0  0  0  0  0
   -2.1340   20.2350    7.8590 H   0  0  0  0  0  0  0  0  0  0  0  0
   -3.3020   21.2730    8.5090 H   0  0  0  0  0  0  0  0  0  0  0  0
   -3.2590   21.0320    6.8900 H   0  0  0  0  0  0  0  0  0  0  0  0
   -4.9908   19.6810    7.2793 H   0  0  0  0  0  0  0  0  0  0  0  0
   -4.6682   20.4300    9.8455 H   0  0  0  0  0  0  0  0  0  0  0  0
   -5.5862   18.9752    9.5533 H   0  0  0  0  0  0  0  0  0  0  0  0
   -3.6665   18.2759   11.0830 H   0  0  0  0  0  0  0  0  0  0  0  0
   -1.8910   19.3190   10.9760 H   0  0  0  0  0  0  0  0  0  0  0  0
   -3.9505   16.6455    9.2607 H   0  0  0  0  0  0  0  0  0  0  0  0
   -2.0450   15.9950    9.5130 H   0  0  0  0  0  0  0  0  0  0  0  0
   -4.0442   17.4553    7.0332 H   0  0  0  0  0  0  0  0  0  0  0  0
   -1.6650   18.8740    7.6530 H   0  0  0  0  0  0  0  0  0  0  0  0
  1  2  1  0
  2  3  1  0
  3  4  1  0
  4  5  1  0
  4  6  1  0
  6  7  1  0
  6  8  1  0
  8  9  1  0
  8  2  1  0
  1 10  1  0
  1 11  1  0
  1 12  1  0
  2 13  1  6
  3 14  1  0
  3 15  1  0
  4 16  1  1
  5 17  1  0
  6 18  1  1
  7 19  1  0
  8 20  1  6
  9 21  1  0
M  CHG  1   1   1
M  END
>  <meeko>  (7) 
{"is_sidechain": [false], "free_energy": -4.371, "intermolecular_energy": -4.882, "internal_energy": 0.0}

$$$$
3dx1_ligand
     RDKit          3D

 21 21  0  0  0  0  0  0  0  0999 V2000
   -1.8370   19.0590    9.1740 N   0  0  0  0  0  0  0  0  0  0  0  0
   -2.9280   18.9660    8.1510 C   0  0  2  0  0  0  0  0  0  0  0  0
   -4.0160   19.9850    8.4810 C   0  0  0  0  0  0  0  0  0  0  0  0
   -4.7920   19.2770    9.5860 C   0  0  2  0  0  0  0  0  0  0  0  0
   -3.9670   19.2720   10.7610 O   0  0  0  0  0  0  0  0  0  0  0  0
   -4.9370   17.8530    9.0340 C   0  0  2  0  0  0  0  0  0  0  0  0
   -5.1550   16.8990   10.0660 O   0  0  0  0  0  0  0  0  0  0  0  0
   -3.5970   17.5820    8.3150 C   0  0  2  0  0  0  0  0  0  0  0  0
   -2.7320   16.7340    9.0880 O   0  0  0  0  0  0  0  0  0  0  0  0
   -1.7650   18.2700    9.8200 H   0  0  0  0  0  0  0  0  0  0  0  0
   -1.9800   19.9440    9.6950 H   0  0  0  0  0  0  0  0  0  0  0  0
   -0.9310   19.1960    8.6850 H   0  0  0  0  0  0  0  0  0  0  0  0
   -2.5110   19.1317    7.1467 H   0  0  0  0  0  0  0  0  0  0  0  0
   -3.5823   20.9300    8.8401 H   0  0  0  0  0  0  0  0  0  0  0  0
   -4.6349   20.2673    7.6166 H   0  0  0  0  0  0  0  0  0  0  0  0
   -5.7584   19.7336    9.8461 H   0  0  0  0  0  0  0  0  0  0  0  0
   -3.7480   18.3290   10.9290 H   0  0  0  0  0  0  0  0  0  0  0  0
   -5.8072   17.7648    8.3669 H   0  0  0  0  0  0  0  0  0  0  0  0
   -4.8430   16.0280    9.7480 H   0  0  0  0  0  0  0  0  0  0  0  0
   -3.7753   17.0696    7.3581 H   0  0  0  0  0  0  0  0  0  0  0  0
   -2.9280   15.8190    8.7790 H   0  0  0  0  0  0  0  0  0  0  0  0
  1  2  1  0
  2  3  1  0
  3  4  1  0
  4  5  1  0
  4  6  1  0
  6  7  1  0
  6  8  1  0
  8  9  1  0
  8  2  1  0
  1 10  1  0
  1 11  1  0
  1 12  1  0
  2 13  1  6
  3 14  1  0
  3 15  1  0
  4 16  1  1
  5 17  1  0
  6 18  1  6
  7 19  1  0
  8 20  1  6
  9 21  1  0
M  CHG  1   1   1
M  END
>  <meeko>  (8) 
{"is_sidechain": [false], "free_energy": -4.369, "intermolecular_energy": -4.879, "internal_energy": 0.0}

$$$$
3dx1_ligand
     RDKit          3D

 21 21  0  0  0  0  0  0  0  0999 V2000
    2.1390   22.7580    0.5680 N   0  0  0  0  0  0  0  0  0  0  0  0
    2.6420   23.5640   -0.5910 C   0  0  2  0  0  0  0  0  0  0  0  0
    3.9220   22.9280   -1.1290 C   0  0  0  0  0  0  0  0  0  0  0  0
    4.9670   23.4280   -0.1380 C   0  0  2  0  0  0  0  0  0  0  0  0
    4.7490   22.7470    1.1060 O   0  0  0  0  0  0  0  0  0  0  0  0
    4.6110   24.9140    0.0020 C   0  0  2  0  0  0  0  0  0  0  0  0
    5.0900   25.4670    1.2230 O   0  0  0  0  0  0  0  0  0  0  0  0
    3.0680   24.9450   -0.0420 C   0  0  2  0  0  0  0  0  0  0  0  0
    2.4940   25.1260    1.2630 O   0  0  0  0  0  0  0  0  0  0  0  0
    2.6710   21.9130    0.7870 H   0  0  0  0  0  0  0  0  0  0  0  0
    1.1480   22.5250    0.3720 H   0  0  0  0  0  0  0  0  0  0  0  0
    2.0940   23.3700    1.4070 H   0  0  0  0  0  0  0  0  0  0  0  0
    1.8645   23.6249   -1.3667 H   0  0  0  0  0  0  0  0  0  0  0  0
    3.8566   21.8300   -1.1204 H   0  0  0  0  0  0  0  0  0  0  0  0
    4.1416   23.1906   -2.1744 H   0  0  0  0  0  0  0  0  0  0  0  0
    6.0124   23.2659   -0.4393 H   0  0  0  0  0  0  0  0  0  0  0  0
    4.1640   21.9860    0.8950 H   0  0  0  0  0  0  0  0  0  0  0  0
    5.0749   25.5168   -0.7926 H   0  0  0  0  0  0  0  0  0  0  0  0
    5.8210   24.9030    1.5460 H   0  0  0  0  0  0  0  0  0  0  0  0
    2.7219   25.7850   -0.6623 H   0  0  0  0  0  0  0  0  0  0  0  0
    2.3450   24.2130    1.6050 H   0  0  0  0  0  0  0  0  0  0  0  0
  1  2  1  0
  2  3  1  0
  3  4  1  0
  4  5  1  0
  4  6  1  0
  6  7  1  0
  6  8  1  0
  8  9  1  0
  8  2  1  0
  1 10  1  0
  1 11  1  0
  1 12  1  0
  2 13  1  6
  3 14  1  0
  3 15  1  0
  4 16  1  6
  5 17  1  0
  6 18  1  6
  7 19  1  0
  8 20  1  6
  9 21  1  0
M  CHG  1   1   1
M  END
>  <meeko>  (9) 
{"is_sidechain": [false], "free_energy": -4.269, "intermolecular_energy": -4.769, "internal_energy": 0.0}

$$$$
