
     RDKit          3D

 23 25  0  0  0  0  0  0  0  0999 V2000
   -7.2470   -5.0030    2.6440 C   0  0  0  0  0  0  0  0  0  0  0  0
   -6.8920   -4.7640    1.3060 O   0  0  0  0  0  0  0  0  0  0  0  0
   -5.5690   -4.5820    1.0370 C   0  0  0  0  0  0  0  0  0  0  0  0
   -4.5690   -4.6940    1.9920 C   0  0  0  0  0  0  0  0  0  0  0  0
   -3.2330   -4.4740    1.6630 C   0  0  0  0  0  0  0  0  0  0  0  0
   -2.2130   -4.6430    2.7030 C   0  0  0  0  0  0  0  0  0  0  0  0
   -2.1840   -5.8360    3.3330 N   0  0  0  0  0  0  0  0  0  0  0  0
   -1.2580   -6.0940    4.2840 C   0  0  0  0  0  0  0  0  0  0  0  0
   -1.2370   -7.4320    4.9530 C   0  0  0  0  0  0  0  0  0  0  0  0
   -0.3390   -5.1720    4.6480 N   0  0  0  0  0  0  0  0  0  0  0  0
   -0.3730   -3.9700    4.0560 C   0  0  0  0  0  0  0  0  0  0  0  0
    0.4170   -2.8940    4.2640 N   0  0  0  0  0  0  0  0  0  0  0  0
    0.0180   -1.8840    3.4720 C   0  0  0  0  0  0  0  0  0  0  0  0
    0.6450   -0.5440    3.4170 C   0  0  0  0  0  0  0  0  0  0  0  0
   -1.0670   -2.3140    2.7200 C   0  0  0  0  0  0  0  0  0  0  0  0
   -1.7530   -1.4860    1.8280 C   0  0  0  0  0  0  0  0  0  0  0  0
   -2.3390   -0.7370    1.1260 N   0  0  0  0  0  0  0  0  0  0  0  0
   -1.3020   -3.6530    3.0880 C   0  0  0  0  0  0  0  0  0  0  0  0
   -2.8990   -4.1350    0.3270 C   0  0  0  0  0  0  0  0  0  0  0  0
   -1.2500   -3.8780   -0.1950 Cl  0  0  0  0  0  0  0  0  0  0  0  0
   -3.9130   -4.0310   -0.6270 C   0  0  0  0  0  0  0  0  0  0  0  0
   -5.2330   -4.2500   -0.2790 C   0  0  0  0  0  0  0  0  0  0  0  0
   -6.4860   -4.1440   -1.4900 Cl  0  0  0  0  0  0  0  0  0  0  0  0
  2  1  1  0
  3  2  1  0
  4  3  2  0
  5  4  1  0
  6  5  1  0
  7  6  2  0
  8  7  1  0
  9  8  1  0
 10  8  2  0
 11 10  1  0
 12 11  1  0
 13 12  1  0
 14 13  1  0
 15 13  2  0
 16 15  1  0
 17 16  3  0
 18 15  1  0
 18 11  2  0
 18  6  1  0
 19  5  2  0
 20 19  1  0
 21 19  1  0
 22  3  1  0
 22 21  2  0
 23 22  1  0
M  END
$$$$
