1z6e_ligand
     RDKit          3D

 60 64  0  0  0  0  0  0  0  0999 V2000
   15.9350    8.4130    0.1910 C   0  0  0  0  0  0  0  0  0  0  0  0
   15.5040    7.6190    1.3870 N   0  0  0  0  0  0  0  0  0  0  0  0
   14.9190    8.4690    2.4650 C   0  0  0  0  0  0  0  0  0  0  0  0
   14.6540    6.4110    1.0260 C   0  0  0  0  0  0  0  0  0  0  0  0
   15.4000    5.1620    1.3620 C   0  0  0  0  0  0  0  0  0  0  0  0
   16.0260    4.4660    0.4250 N   0  0  0  0  0  0  0  0  0  0  0  0
   16.4240    3.3100    1.0290 C   0  0  0  0  0  0  0  0  0  0  0  0
   16.0330    3.2990    2.3450 C   0  0  0  0  0  0  0  0  0  0  0  0
   15.4270    4.5130    2.5920 N   0  0  0  0  0  0  0  0  0  0  0  0
   14.9350    4.9420    3.8580 C   0  0  0  0  0  0  0  0  0  0  0  0
   13.6150    4.6900    4.2580 C   0  0  0  0  0  0  0  0  0  0  0  0
   13.1480    5.1330    5.5090 C   0  0  0  0  0  0  0  0  0  0  0  0
   13.9930    5.8240    6.3760 C   0  0  0  0  0  0  0  0  0  0  0  0
   13.6390    6.2640    7.6700 N   0  0  0  0  0  0  0  0  0  0  0  0
   13.7670    5.5870    8.8690 C   0  0  0  0  0  0  0  0  0  0  0  0
   14.0430    4.3950    8.9530 O   0  0  0  0  0  0  0  0  0  0  0  0
   13.5430    6.4230   10.0310 C   0  0  0  0  0  0  0  0  0  0  0  0
   13.2700    7.7850   10.0500 C   0  0  0  0  0  0  0  0  0  0  0  0
   13.3700    8.1990   11.3950 C   0  0  0  0  0  0  0  0  0  0  0  0
   13.2150    9.6050   11.9270 C   0  0  0  0  0  0  0  0  0  0  0  0
   14.2270    9.9520   12.7620 F   0  0  0  0  0  0  0  0  0  0  0  0
   12.0500    9.7700   12.6030 F   0  0  0  0  0  0  0  0  0  0  0  0
   13.2130   10.5140   10.9150 F   0  0  0  0  0  0  0  0  0  0  0  0
   13.6710    7.1530   12.1770 N   0  0  0  0  0  0  0  0  0  0  0  0
   13.6810    6.0600   11.3680 N   0  0  0  0  0  0  0  0  0  0  0  0
   13.7560    4.7760   12.0020 C   0  0  0  0  0  0  0  0  0  0  0  0
   12.5520    4.1670   12.4170 C   0  0  0  0  0  0  0  0  0  0  0  0
   12.5160    2.9000   13.0120 C   0  0  0  0  0  0  0  0  0  0  0  0
   13.7330    2.2460   13.1660 C   0  0  0  0  0  0  0  0  0  0  0  0
   13.8790    0.9920   13.7190 O   0  0  0  0  0  0  0  0  0  0  0  0
   15.2810    0.7330   13.6500 N   0  0  0  0  0  0  0  0  0  0  0  0
   15.9180    1.8050   13.0810 C   0  0  0  0  0  0  0  0  0  0  0  0
   17.2870    1.8650   12.8710 N   0  0  0  0  0  0  0  0  0  0  0  0
   14.9590    2.8060   12.7540 C   0  0  0  0  0  0  0  0  0  0  0  0
   14.9710    4.0870   12.1580 C   0  0  0  0  0  0  0  0  0  0  0  0
   15.3040    6.0750    5.9600 C   0  0  0  0  0  0  0  0  0  0  0  0
   16.1400    6.7280    6.7840 F   0  0  0  0  0  0  0  0  0  0  0  0
   15.7770    5.6590    4.7170 C   0  0  0  0  0  0  0  0  0  0  0  0
   16.4352    9.3345    0.5235 H   0  0  0  0  0  0  0  0  0  0  0  0
   16.6324    7.8151   -0.4141 H   0  0  0  0  0  0  0  0  0  0  0  0
   15.0537    8.6721   -0.4141 H   0  0  0  0  0  0  0  0  0  0  0  0
   16.3730    7.1900    1.7560 H   0  0  0  0  0  0  0  0  0  0  0  0
   15.2000    8.0607    3.4470 H   0  0  0  0  0  0  0  0  0  0  0  0
   15.3027    9.4956    2.3713 H   0  0  0  0  0  0  0  0  0  0  0  0
   13.8230    8.4772    2.3713 H   0  0  0  0  0  0  0  0  0  0  0  0
   13.7131    6.4409    1.5951 H   0  0  0  0  0  0  0  0  0  0  0  0
   14.4306    6.4273   -0.0509 H   0  0  0  0  0  0  0  0  0  0  0  0
   16.9796    2.5010    0.5322 H   0  0  0  0  0  0  0  0  0  0  0  0
   16.1757    2.4792    3.0644 H   0  0  0  0  0  0  0  0  0  0  0  0
   12.9380    4.1406    3.5872 H   0  0  0  0  0  0  0  0  0  0  0  0
   12.1078    4.9325    5.8053 H   0  0  0  0  0  0  0  0  0  0  0  0
   13.2280    7.1930    7.6980 H   0  0  0  0  0  0  0  0  0  0  0  0
   13.0237    8.4177    9.1845 H   0  0  0  0  0  0  0  0  0  0  0  0
   11.6062    4.7083   12.2673 H   0  0  0  0  0  0  0  0  0  0  0  0
   11.5706    2.4443   13.3416 H   0  0  0  0  0  0  0  0  0  0  0  0
   15.6510   -0.1450   13.9940 H   0  0  0  0  0  0  0  0  0  0  0  0
   17.9750    1.4990   13.5220 H   0  0  0  0  0  0  0  0  0  0  0  0
   17.6460    2.2950   12.0210 H   0  0  0  0  0  0  0  0  0  0  0  0
   15.9162    4.5379   11.8215 H   0  0  0  0  0  0  0  0  0  0  0  0
   16.8076    5.8929    4.4118 H   0  0  0  0  0  0  0  0  0  0  0  0
  1  2  1  0
  2  3  1  0
  2  4  1  0
  4  5  1  0
  5  6  2  0
  6  7  1  0
  7  8  2  0
  8  9  1  0
  9 10  1  0
 10 11  2  0
 11 12  1  0
 12 13  2  0
 13 14  1  0
 14 15  1  0
 15 16  2  0
 15 17  1  0
 17 18  2  0
 18 19  1  0
 19 20  1  0
 20 21  1  0
 20 22  1  0
 20 23  1  0
 19 24  2  0
 24 25  1  0
 25 26  1  0
 26 27  2  0
 27 28  1  0
 28 29  2  0
 29 30  1  0
 30 31  1  0
 31 32  2  0
 32 33  1  0
 32 34  1  0
 34 35  2  0
 13 36  1  0
 36 37  1  0
 36 38  2  0
  9  5  1  0
 38 10  1  0
 25 17  1  0
 35 26  1  0
 34 29  1  0
  1 39  1  0
  1 40  1  0
  1 41  1  0
  2 42  1  0
  3 43  1  0
  3 44  1  0
  3 45  1  0
  4 46  1  0
  4 47  1  0
  7 48  1  0
  8 49  1  0
 11 50  1  0
 12 51  1  0
 14 52  1  0
 18 53  1  0
 27 54  1  0
 28 55  1  0
 31 56  1  0
 33 57  1  0
 33 58  1  0
 35 59  1  0
 38 60  1  0
M  CHG  2   2   1  31   1
M  END
>  <meeko>  (1) 
{"is_sidechain": [false], "free_energy": -7.444, "intermolecular_energy": -10.708, "internal_energy": -1.361}

$$$$
1z6e_ligand
     RDKit          3D

 60 64  0  0  0  0  0  0  0  0999 V2000
   16.7820    1.9800   10.9930 C   0  0  0  0  0  0  0  0  0  0  0  0
   16.9220    2.8150   12.2300 N   0  0  0  0  0  0  0  0  0  0  0  0
   18.3450    3.0430   12.6180 C   0  0  0  0  0  0  0  0  0  0  0  0
   16.0840    4.0840   12.1910 C   0  0  0  0  0  0  0  0  0  0  0  0
   14.6370    3.7250   12.2630 C   0  0  0  0  0  0  0  0  0  0  0  0
   14.1760    2.9270   13.2150 N   0  0  0  0  0  0  0  0  0  0  0  0
   12.8840    2.6550   12.8750 C   0  0  0  0  0  0  0  0  0  0  0  0
   12.5540    3.2900   11.7030 C   0  0  0  0  0  0  0  0  0  0  0  0
   13.6540    4.0350   11.3290 N   0  0  0  0  0  0  0  0  0  0  0  0
   13.7120    4.9010   10.2010 C   0  0  0  0  0  0  0  0  0  0  0  0
   14.2100    4.4670    8.9640 C   0  0  0  0  0  0  0  0  0  0  0  0
   14.2670    5.3450    7.8660 C   0  0  0  0  0  0  0  0  0  0  0  0
   13.8230    6.6610    7.9880 C   0  0  0  0  0  0  0  0  0  0  0  0
   13.7900    7.6030    6.9350 N   0  0  0  0  0  0  0  0  0  0  0  0
   14.7820    8.4820    6.5430 C   0  0  0  0  0  0  0  0  0  0  0  0
   15.7950    8.7030    7.1970 O   0  0  0  0  0  0  0  0  0  0  0  0
   14.5140    9.1260    5.2730 C   0  0  0  0  0  0  0  0  0  0  0  0
   14.2610   10.4740    5.0480 C   0  0  0  0  0  0  0  0  0  0  0  0
   13.8240   10.5850    3.7110 C   0  0  0  0  0  0  0  0  0  0  0  0
   13.3740   11.8420    3.0030 C   0  0  0  0  0  0  0  0  0  0  0  0
   12.7840   12.7240    3.8480 F   0  0  0  0  0  0  0  0  0  0  0  0
   12.4930   11.5790    2.0040 F   0  0  0  0  0  0  0  0  0  0  0  0
   14.4280   12.4880    2.4350 F   0  0  0  0  0  0  0  0  0  0  0  0
   13.8200    9.3790    3.1270 N   0  0  0  0  0  0  0  0  0  0  0  0
   14.3280    8.5090    4.0390 N   0  0  0  0  0  0  0  0  0  0  0  0
   14.6410    7.1860    3.5810 C   0  0  0  0  0  0  0  0  0  0  0  0
   15.6370    7.0430    2.5910 C   0  0  0  0  0  0  0  0  0  0  0  0
   16.0390    5.7920    2.1050 C   0  0  0  0  0  0  0  0  0  0  0  0
   15.4190    4.6770    2.6570 C   0  0  0  0  0  0  0  0  0  0  0  0
   15.7010    3.3750    2.3050 O   0  0  0  0  0  0  0  0  0  0  0  0
   14.8470    2.5880    3.1360 N   0  0  0  0  0  0  0  0  0  0  0  0
   14.0970    3.4120    3.9330 C   0  0  0  0  0  0  0  0  0  0  0  0
   13.1680    2.9550    4.8550 N   0  0  0  0  0  0  0  0  0  0  0  0
   14.4300    4.7690    3.6580 C   0  0  0  0  0  0  0  0  0  0  0  0
   14.0390    6.0410    4.1320 C   0  0  0  0  0  0  0  0  0  0  0  0
   13.3360    7.0820    9.2290 C   0  0  0  0  0  0  0  0  0  0  0  0
   12.8920    8.3420    9.3650 F   0  0  0  0  0  0  0  0  0  0  0  0
   13.2900    6.2310   10.3310 C   0  0  0  0  0  0  0  0  0  0  0  0
   16.6062    0.9317   11.2762 H   0  0  0  0  0  0  0  0  0  0  0  0
   15.9327    2.3463   10.3975 H   0  0  0  0  0  0  0  0  0  0  0  0
   17.7043    2.0493   10.3975 H   0  0  0  0  0  0  0  0  0  0  0  0
   16.4710    2.2630   12.9840 H   0  0  0  0  0  0  0  0  0  0  0  0
   18.4284    3.0564   13.7148 H   0  0  0  0  0  0  0  0  0  0  0  0
   18.9698    2.2335   12.2126 H   0  0  0  0  0  0  0  0  0  0  0  0
   18.6856    4.0072   12.2126 H   0  0  0  0  0  0  0  0  0  0  0  0
   16.3465    4.7235   13.0466 H   0  0  0  0  0  0  0  0  0  0  0  0
   16.2819    4.6263   11.2547 H   0  0  0  0  0  0  0  0  0  0  0  0
   12.2025    2.0172   13.4571 H   0  0  0  0  0  0  0  0  0  0  0  0
   11.5969    3.2186   11.1655 H   0  0  0  0  0  0  0  0  0  0  0  0
   14.5595    3.4301    8.8510 H   0  0  0  0  0  0  0  0  0  0  0  0
   14.6650    4.9903    6.9038 H   0  0  0  0  0  0  0  0  0  0  0  0
   12.9120    7.6280    6.4240 H   0  0  0  0  0  0  0  0  0  0  0  0
   14.3785   11.2944    5.7713 H   0  0  0  0  0  0  0  0  0  0  0  0
   16.1152    7.9471    2.1862 H   0  0  0  0  0  0  0  0  0  0  0  0
   16.8081    5.6967    1.3243 H   0  0  0  0  0  0  0  0  0  0  0  0
   14.8710    1.5780    3.0710 H   0  0  0  0  0  0  0  0  0  0  0  0
   12.5450    2.1710    4.6880 H   0  0  0  0  0  0  0  0  0  0  0  0
   13.0910    3.4150    5.7600 H   0  0  0  0  0  0  0  0  0  0  0  0
   13.2762    6.1342    4.9191 H   0  0  0  0  0  0  0  0  0  0  0  0
   12.9237    6.6017   11.2997 H   0  0  0  0  0  0  0  0  0  0  0  0
  1  2  1  0
  2  3  1  0
  2  4  1  0
  4  5  1  0
  5  6  2  0
  6  7  1  0
  7  8  2  0
  8  9  1  0
  9 10  1  0
 10 11  2  0
 11 12  1  0
 12 13  2  0
 13 14  1  0
 14 15  1  0
 15 16  2  0
 15 17  1  0
 17 18  2  0
 18 19  1  0
 19 20  1  0
 20 21  1  0
 20 22  1  0
 20 23  1  0
 19 24  2  0
 24 25  1  0
 25 26  1  0
 26 27  2  0
 27 28  1  0
 28 29  2  0
 29 30  1  0
 30 31  1  0
 31 32  2  0
 32 33  1  0
 32 34  1  0
 34 35  2  0
 13 36  1  0
 36 37  1  0
 36 38  2  0
  9  5  1  0
 38 10  1  0
 25 17  1  0
 35 26  1  0
 34 29  1  0
  1 39  1  0
  1 40  1  0
  1 41  1  0
  2 42  1  0
  3 43  1  0
  3 44  1  0
  3 45  1  0
  4 46  1  0
  4 47  1  0
  7 48  1  0
  8 49  1  0
 11 50  1  0
 12 51  1  0
 14 52  1  0
 18 53  1  0
 27 54  1  0
 28 55  1  0
 31 56  1  0
 33 57  1  0
 33 58  1  0
 35 59  1  0
 38 60  1  0
M  CHG  2   2   1  31   1
M  END
>  <meeko>  (2) 
{"is_sidechain": [false], "free_energy": -7.333, "intermolecular_energy": -10.366, "internal_energy": -1.543}

$$$$
1z6e_ligand
     RDKit          3D

 60 64  0  0  0  0  0  0  0  0999 V2000
   12.4990    5.6810   11.7340 C   0  0  0  0  0  0  0  0  0  0  0  0
   13.0670    4.6140   12.6220 N   0  0  0  0  0  0  0  0  0  0  0  0
   12.8030    3.2370   12.1140 C   0  0  0  0  0  0  0  0  0  0  0  0
   14.5200    4.8640   12.9990 C   0  0  0  0  0  0  0  0  0  0  0  0
   15.3830    3.8290   12.3570 C   0  0  0  0  0  0  0  0  0  0  0  0
   15.8400    2.7950   13.0460 N   0  0  0  0  0  0  0  0  0  0  0  0
   16.7340    2.1720   12.2280 C   0  0  0  0  0  0  0  0  0  0  0  0
   16.8280    2.8350   11.0290 C   0  0  0  0  0  0  0  0  0  0  0  0
   15.9160    3.8690   11.0720 N   0  0  0  0  0  0  0  0  0  0  0  0
   15.6420    4.7660   10.0010 C   0  0  0  0  0  0  0  0  0  0  0  0
   16.3130    5.9910    9.8760 C   0  0  0  0  0  0  0  0  0  0  0  0
   16.0180    6.8660    8.8150 C   0  0  0  0  0  0  0  0  0  0  0  0
   15.0560    6.5260    7.8650 C   0  0  0  0  0  0  0  0  0  0  0  0
   14.7240    7.3090    6.7360 N   0  0  0  0  0  0  0  0  0  0  0  0
   13.8040    8.3370    6.6490 C   0  0  0  0  0  0  0  0  0  0  0  0
   12.9860    8.5960    7.5240 O   0  0  0  0  0  0  0  0  0  0  0  0
   13.8950    9.0900    5.4150 C   0  0  0  0  0  0  0  0  0  0  0  0
   13.7370   10.4610    5.2500 C   0  0  0  0  0  0  0  0  0  0  0  0
   13.6750   10.6960    3.8600 C   0  0  0  0  0  0  0  0  0  0  0  0
   13.4530   12.0230    3.1720 C   0  0  0  0  0  0  0  0  0  0  0  0
   12.7550   11.8920    2.0160 F   0  0  0  0  0  0  0  0  0  0  0  0
   14.6220   12.6480    2.8770 F   0  0  0  0  0  0  0  0  0  0  0  0
   12.7440   12.8720    3.9640 F   0  0  0  0  0  0  0  0  0  0  0  0
   13.8050    9.5410    3.1920 N   0  0  0  0  0  0  0  0  0  0  0  0
   14.0350    8.5810    4.1270 N   0  0  0  0  0  0  0  0  0  0  0  0
   14.4340    7.2880    3.6530 C   0  0  0  0  0  0  0  0  0  0  0  0
   15.4800    7.2180    2.7070 C   0  0  0  0  0  0  0  0  0  0  0  0
   15.9650    6.0020    2.2120 C   0  0  0  0  0  0  0  0  0  0  0  0
   15.3780    4.8440    2.7080 C   0  0  0  0  0  0  0  0  0  0  0  0
   15.7410    3.5660    2.3400 O   0  0  0  0  0  0  0  0  0  0  0  0
   14.8900    2.7180    3.1120 N   0  0  0  0  0  0  0  0  0  0  0  0
   14.0640    3.4830    3.8920 C   0  0  0  0  0  0  0  0  0  0  0  0
   13.1190    2.9580    4.7590 N   0  0  0  0  0  0  0  0  0  0  0  0
   14.3410    4.8620    3.6640 C   0  0  0  0  0  0  0  0  0  0  0  0
   13.8660    6.1010    4.1480 C   0  0  0  0  0  0  0  0  0  0  0  0
   14.3890    5.3060    8.0060 C   0  0  0  0  0  0  0  0  0  0  0  0
   13.4670    4.9530    7.0960 F   0  0  0  0  0  0  0  0  0  0  0  0
   14.6560    4.4370    9.0620 C   0  0  0  0  0  0  0  0  0  0  0  0
   12.0716    6.4838   12.3527 H   0  0  0  0  0  0  0  0  0  0  0  0
   13.2972    6.0929   11.0990 H   0  0  0  0  0  0  0  0  0  0  0  0
   11.7116    5.2488   11.0990 H   0  0  0  0  0  0  0  0  0  0  0  0
   12.5710    4.7210   13.5260 H   0  0  0  0  0  0  0  0  0  0  0  0
   12.6716    2.5515   12.9642 H   0  0  0  0  0  0  0  0  0  0  0  0
   11.8893    3.2410   11.5016 H   0  0  0  0  0  0  0  0  0  0  0  0
   13.6534    2.9028   11.5016 H   0  0  0  0  0  0  0  0  0  0  0  0
   14.8231    5.8624   12.6506 H   0  0  0  0  0  0  0  0  0  0  0  0
   14.6311    4.8091   14.0920 H   0  0  0  0  0  0  0  0  0  0  0  0
   17.3002    1.2663   12.4908 H   0  0  0  0  0  0  0  0  0  0  0  0
   17.5012    2.5888   10.1946 H   0  0  0  0  0  0  0  0  0  0  0  0
   17.0780    6.2705   10.6154 H   0  0  0  0  0  0  0  0  0  0  0  0
   16.5501    7.8253    8.7342 H   0  0  0  0  0  0  0  0  0  0  0  0
   15.2290    7.0580    5.8910 H   0  0  0  0  0  0  0  0  0  0  0  0
   13.6728   11.2158    6.0476 H   0  0  0  0  0  0  0  0  0  0  0  0
   15.9305    8.1542    2.3456 H   0  0  0  0  0  0  0  0  0  0  0  0
   16.7724    5.9646    1.4659 H   0  0  0  0  0  0  0  0  0  0  0  0
   14.9680    1.7120    3.0250 H   0  0  0  0  0  0  0  0  0  0  0  0
   13.1950    2.9990    5.7710 H   0  0  0  0  0  0  0  0  0  0  0  0
   12.2900    2.5030    4.3820 H   0  0  0  0  0  0  0  0  0  0  0  0
   13.0643    6.1366    4.9004 H   0  0  0  0  0  0  0  0  0  0  0  0
   14.0945    3.4960    9.1579 H   0  0  0  0  0  0  0  0  0  0  0  0
  1  2  1  0
  2  3  1  0
  2  4  1  0
  4  5  1  0
  5  6  2  0
  6  7  1  0
  7  8  2  0
  8  9  1  0
  9 10  1  0
 10 11  2  0
 11 12  1  0
 12 13  2  0
 13 14  1  0
 14 15  1  0
 15 16  2  0
 15 17  1  0
 17 18  2  0
 18 19  1  0
 19 20  1  0
 20 21  1  0
 20 22  1  0
 20 23  1  0
 19 24  2  0
 24 25  1  0
 25 26  1  0
 26 27  2  0
 27 28  1  0
 28 29  2  0
 29 30  1  0
 30 31  1  0
 31 32  2  0
 32 33  1  0
 32 34  1  0
 34 35  2  0
 13 36  1  0
 36 37  1  0
 36 38  2  0
  9  5  1  0
 38 10  1  0
 25 17  1  0
 35 26  1  0
 34 29  1  0
  1 39  1  0
  1 40  1  0
  1 41  1  0
  2 42  1  0
  3 43  1  0
  3 44  1  0
  3 45  1  0
  4 46  1  0
  4 47  1  0
  7 48  1  0
  8 49  1  0
 11 50  1  0
 12 51  1  0
 14 52  1  0
 18 53  1  0
 27 54  1  0
 28 55  1  0
 31 56  1  0
 33 57  1  0
 33 58  1  0
 35 59  1  0
 38 60  1  0
M  CHG  2   2   1  31   1
M  END
>  <meeko>  (3) 
{"is_sidechain": [false], "free_energy": -7.136, "intermolecular_energy": -10.773, "internal_energy": -0.853}

$$$$
1z6e_ligand
     RDKit          3D

 60 64  0  0  0  0  0  0  0  0999 V2000
   15.8850   15.6790   -0.7860 C   0  0  0  0  0  0  0  0  0  0  0  0
   14.9970   14.8870    0.1260 N   0  0  0  0  0  0  0  0  0  0  0  0
   15.1900   13.4140   -0.0130 C   0  0  0  0  0  0  0  0  0  0  0  0
   15.0290   15.3790    1.5650 C   0  0  0  0  0  0  0  0  0  0  0  0
   13.6460   15.7380    1.9970 C   0  0  0  0  0  0  0  0  0  0  0  0
   13.0520   16.8340    1.5510 N   0  0  0  0  0  0  0  0  0  0  0  0
   11.9080   16.9570    2.2820 C   0  0  0  0  0  0  0  0  0  0  0  0
   11.8050   15.9280    3.1860 C   0  0  0  0  0  0  0  0  0  0  0  0
   12.8860   15.0980    2.9710 N   0  0  0  0  0  0  0  0  0  0  0  0
   13.1260   13.8720    3.6530 C   0  0  0  0  0  0  0  0  0  0  0  0
   13.1640   12.6460    2.9730 C   0  0  0  0  0  0  0  0  0  0  0  0
   13.3920   11.4460    3.6700 C   0  0  0  0  0  0  0  0  0  0  0  0
   13.5910   11.4550    5.0490 C   0  0  0  0  0  0  0  0  0  0  0  0
   13.8780   10.3150    5.8320 N   0  0  0  0  0  0  0  0  0  0  0  0
   13.1640    9.1330    5.9170 C   0  0  0  0  0  0  0  0  0  0  0  0
   12.0420    8.9800    5.4480 O   0  0  0  0  0  0  0  0  0  0  0  0
   13.8720    8.0800    6.6160 C   0  0  0  0  0  0  0  0  0  0  0  0
   13.9130    7.8580    7.9870 C   0  0  0  0  0  0  0  0  0  0  0  0
   14.9080    6.8830    8.2090 C   0  0  0  0  0  0  0  0  0  0  0  0
   15.3700    6.3420    9.5420 C   0  0  0  0  0  0  0  0  0  0  0  0
   15.7000    5.0280    9.4770 F   0  0  0  0  0  0  0  0  0  0  0  0
   14.4240    6.4800   10.5060 F   0  0  0  0  0  0  0  0  0  0  0  0
   16.4750    7.0020    9.9820 F   0  0  0  0  0  0  0  0  0  0  0  0
   15.4480    6.5030    7.0420 N   0  0  0  0  0  0  0  0  0  0  0  0
   14.7560    7.1540    6.0700 N   0  0  0  0  0  0  0  0  0  0  0  0
   14.9900    6.7470    4.7150 C   0  0  0  0  0  0  0  0  0  0  0  0
   15.0700    7.7480    3.7230 C   0  0  0  0  0  0  0  0  0  0  0  0
   15.3310    7.4550    2.3780 C   0  0  0  0  0  0  0  0  0  0  0  0
   15.5290    6.1180    2.0560 C   0  0  0  0  0  0  0  0  0  0  0  0
   15.8080    5.6550    0.7880 O   0  0  0  0  0  0  0  0  0  0  0  0
   15.9470    4.2430    0.9470 N   0  0  0  0  0  0  0  0  0  0  0  0
   15.7490    3.9070    2.2600 C   0  0  0  0  0  0  0  0  0  0  0  0
   15.8170    2.6090    2.7420 N   0  0  0  0  0  0  0  0  0  0  0  0
   15.4750    5.0840    3.0140 C   0  0  0  0  0  0  0  0  0  0  0  0
   15.2070    5.4030    4.3640 C   0  0  0  0  0  0  0  0  0  0  0  0
   13.5420   12.6830    5.7160 C   0  0  0  0  0  0  0  0  0  0  0  0
   13.7430   12.7170    7.0430 F   0  0  0  0  0  0  0  0  0  0  0  0
   13.2990   13.8790    5.0430 C   0  0  0  0  0  0  0  0  0  0  0  0
   16.5730   16.2926   -0.1859 H   0  0  0  0  0  0  0  0  0  0  0  0
   16.4646   14.9925   -1.4206 H   0  0  0  0  0  0  0  0  0  0  0  0
   15.2690   16.3330   -1.4206 H   0  0  0  0  0  0  0  0  0  0  0  0
   14.0300   15.1110   -0.1740 H   0  0  0  0  0  0  0  0  0  0  0  0
   15.2500   12.9562    0.9854 H   0  0  0  0  0  0  0  0  0  0  0  0
   14.3406   12.9832   -0.5634 H   0  0  0  0  0  0  0  0  0  0  0  0
   16.1217   13.2166   -0.5634 H   0  0  0  0  0  0  0  0  0  0  0  0
   15.4222   14.5842    2.2160 H   0  0  0  0  0  0  0  0  0  0  0  0
   15.6777   16.2645    1.6363 H   0  0  0  0  0  0  0  0  0  0  0  0
   11.1717   17.7657    2.1646 H   0  0  0  0  0  0  0  0  0  0  0  0
   11.0129   15.7918    3.9370 H   0  0  0  0  0  0  0  0  0  0  0  0
   13.0140   12.6228    1.8835 H   0  0  0  0  0  0  0  0  0  0  0  0
   13.4134   10.4925    3.1220 H   0  0  0  0  0  0  0  0  0  0  0  0
   14.7120   10.4010    6.4070 H   0  0  0  0  0  0  0  0  0  0  0  0
   13.2907    8.3473    8.7507 H   0  0  0  0  0  0  0  0  0  0  0  0
   14.9219    8.7976    4.0170 H   0  0  0  0  0  0  0  0  0  0  0  0
   15.3769    8.2451    1.6140 H   0  0  0  0  0  0  0  0  0  0  0  0
   16.1640    3.6630    0.1450 H   0  0  0  0  0  0  0  0  0  0  0  0
   15.0080    2.0060    2.8560 H   0  0  0  0  0  0  0  0  0  0  0  0
   16.7200    2.2150    3.0000 H   0  0  0  0  0  0  0  0  0  0  0  0
   15.1687    4.6126    5.1281 H   0  0  0  0  0  0  0  0  0  0  0  0
   13.2433   14.8251    5.6014 H   0  0  0  0  0  0  0  0  0  0  0  0
  1  2  1  0
  2  3  1  0
  2  4  1  0
  4  5  1  0
  5  6  2  0
  6  7  1  0
  7  8  2  0
  8  9  1  0
  9 10  1  0
 10 11  2  0
 11 12  1  0
 12 13  2  0
 13 14  1  0
 14 15  1  0
 15 16  2  0
 15 17  1  0
 17 18  2  0
 18 19  1  0
 19 20  1  0
 20 21  1  0
 20 22  1  0
 20 23  1  0
 19 24  2  0
 24 25  1  0
 25 26  1  0
 26 27  2  0
 27 28  1  0
 28 29  2  0
 29 30  1  0
 30 31  1  0
 31 32  2  0
 32 33  1  0
 32 34  1  0
 34 35  2  0
 13 36  1  0
 36 37  1  0
 36 38  2  0
  9  5  1  0
 38 10  1  0
 25 17  1  0
 35 26  1  0
 34 29  1  0
  1 39  1  0
  1 40  1  0
  1 41  1  0
  2 42  1  0
  3 43  1  0
  3 44  1  0
  3 45  1  0
  4 46  1  0
  4 47  1  0
  7 48  1  0
  8 49  1  0
 11 50  1  0
 12 51  1  0
 14 52  1  0
 18 53  1  0
 27 54  1  0
 28 55  1  0
 31 56  1  0
 33 57  1  0
 33 58  1  0
 35 59  1  0
 38 60  1  0
M  CHG  2   2   1  31   1
M  END
>  <meeko>  (4) 
{"is_sidechain": [false], "free_energy": -6.897, "intermolecular_energy": -10.02, "internal_energy": -1.262}

$$$$
1z6e_ligand
     RDKit          3D

 60 64  0  0  0  0  0  0  0  0999 V2000
   24.3530   12.1510    6.0290 C   0  0  0  0  0  0  0  0  0  0  0  0
   23.1990   11.3110    5.5720 N   0  0  0  0  0  0  0  0  0  0  0  0
   22.1330   11.1770    6.6080 C   0  0  0  0  0  0  0  0  0  0  0  0
   22.6770   11.7100    4.2000 C   0  0  0  0  0  0  0  0  0  0  0  0
   22.9700   10.6200    3.2220 C   0  0  0  0  0  0  0  0  0  0  0  0
   23.9450   10.7400    2.3340 N   0  0  0  0  0  0  0  0  0  0  0  0
   23.8090    9.6760    1.4920 C   0  0  0  0  0  0  0  0  0  0  0  0
   22.7400    8.9030    1.8670 C   0  0  0  0  0  0  0  0  0  0  0  0
   22.2260    9.4620    3.0190 N   0  0  0  0  0  0  0  0  0  0  0  0
   21.1460    8.9290    3.7790 C   0  0  0  0  0  0  0  0  0  0  0  0
   19.8230    9.3470    3.5720 C   0  0  0  0  0  0  0  0  0  0  0  0
   18.7740    8.8130    4.3430 C   0  0  0  0  0  0  0  0  0  0  0  0
   19.0310    7.8550    5.3210 C   0  0  0  0  0  0  0  0  0  0  0  0
   18.0460    7.2210    6.1100 N   0  0  0  0  0  0  0  0  0  0  0  0
   17.0420    7.8070    6.8590 C   0  0  0  0  0  0  0  0  0  0  0  0
   16.9830    9.0080    7.0990 O   0  0  0  0  0  0  0  0  0  0  0  0
   16.0540    6.8630    7.3390 C   0  0  0  0  0  0  0  0  0  0  0  0
   15.8250    6.4780    8.6550 C   0  0  0  0  0  0  0  0  0  0  0  0
   14.9440    5.3760    8.6060 C   0  0  0  0  0  0  0  0  0  0  0  0
   14.4380    4.5650    9.7760 C   0  0  0  0  0  0  0  0  0  0  0  0
   15.0040    3.3330    9.8300 F   0  0  0  0  0  0  0  0  0  0  0  0
   13.0910    4.3970    9.7370 F   0  0  0  0  0  0  0  0  0  0  0  0
   14.7220    5.1780   10.9560 F   0  0  0  0  0  0  0  0  0  0  0  0
   14.6260    5.0980    7.3340 N   0  0  0  0  0  0  0  0  0  0  0  0
   15.2190    6.0560    6.5720 N   0  0  0  0  0  0  0  0  0  0  0  0
   14.8460    6.1160    5.1890 C   0  0  0  0  0  0  0  0  0  0  0  0
   13.8750    7.0630    4.8010 C   0  0  0  0  0  0  0  0  0  0  0  0
   13.4710    7.2240    3.4690 C   0  0  0  0  0  0  0  0  0  0  0  0
   14.0870    6.4110    2.5260 C   0  0  0  0  0  0  0  0  0  0  0  0
   13.8200    6.4460    1.1740 O   0  0  0  0  0  0  0  0  0  0  0  0
   14.6920    5.4650    0.6130 N   0  0  0  0  0  0  0  0  0  0  0  0
   15.4300    4.8830    1.6100 C   0  0  0  0  0  0  0  0  0  0  0  0
   16.3730    3.8900    1.3920 N   0  0  0  0  0  0  0  0  0  0  0  0
   15.0730    5.4610    2.8620 C   0  0  0  0  0  0  0  0  0  0  0  0
   15.4630    5.3150    4.2120 C   0  0  0  0  0  0  0  0  0  0  0  0
   20.3560    7.4540    5.5220 C   0  0  0  0  0  0  0  0  0  0  0  0
   20.6250    6.5230    6.4510 F   0  0  0  0  0  0  0  0  0  0  0  0
   21.4080    7.9860    4.7800 C   0  0  0  0  0  0  0  0  0  0  0  0
   24.3797   12.1704    7.1285 H   0  0  0  0  0  0  0  0  0  0  0  0
   25.2917   11.7234    5.6470 H   0  0  0  0  0  0  0  0  0  0  0  0
   24.2346   13.1757    5.6470 H   0  0  0  0  0  0  0  0  0  0  0  0
   23.5990   10.3690    5.4030 H   0  0  0  0  0  0  0  0  0  0  0  0
   22.5854   11.2339    7.6091 H   0  0  0  0  0  0  0  0  0  0  0  0
   21.4020   11.9903    6.4892 H   0  0  0  0  0  0  0  0  0  0  0  0
   21.6260   10.2081    6.4892 H   0  0  0  0  0  0  0  0  0  0  0  0
   21.5904   11.8727    4.2537 H   0  0  0  0  0  0  0  0  0  0  0  0
   23.1699   12.6380    3.8747 H   0  0  0  0  0  0  0  0  0  0  0  0
   24.4641    9.4672    0.6334 H   0  0  0  0  0  0  0  0  0  0  0  0
   22.3643    8.0085    1.3486 H   0  0  0  0  0  0  0  0  0  0  0  0
   19.6036   10.0991    2.7999 H   0  0  0  0  0  0  0  0  0  0  0  0
   17.7426    9.1549    4.1720 H   0  0  0  0  0  0  0  0  0  0  0  0
   18.1100    6.2070    6.1240 H   0  0  0  0  0  0  0  0  0  0  0  0
   16.2479    6.9417    9.5584 H   0  0  0  0  0  0  0  0  0  0  0  0
   13.4178    7.6990    5.5733 H   0  0  0  0  0  0  0  0  0  0  0  0
   12.7034    7.9585    3.1839 H   0  0  0  0  0  0  0  0  0  0  0  0
   14.6910    5.3000   -0.3870 H   0  0  0  0  0  0  0  0  0  0  0  0
   17.3130    4.0680    1.0520 H   0  0  0  0  0  0  0  0  0  0  0  0
   16.1310    2.9190    1.5790 H   0  0  0  0  0  0  0  0  0  0  0  0
   16.2371    4.5862    4.4943 H   0  0  0  0  0  0  0  0  0  0  0  0
   22.4413    7.6662    4.9799 H   0  0  0  0  0  0  0  0  0  0  0  0
  1  2  1  0
  2  3  1  0
  2  4  1  0
  4  5  1  0
  5  6  2  0
  6  7  1  0
  7  8  2  0
  8  9  1  0
  9 10  1  0
 10 11  2  0
 11 12  1  0
 12 13  2  0
 13 14  1  0
 14 15  1  0
 15 16  2  0
 15 17  1  0
 17 18  2  0
 18 19  1  0
 19 20  1  0
 20 21  1  0
 20 22  1  0
 20 23  1  0
 19 24  2  0
 24 25  1  0
 25 26  1  0
 26 27  2  0
 27 28  1  0
 28 29  2  0
 29 30  1  0
 30 31  1  0
 31 32  2  0
 32 33  1  0
 32 34  1  0
 34 35  2  0
 13 36  1  0
 36 37  1  0
 36 38  2  0
  9  5  1  0
 38 10  1  0
 25 17  1  0
 35 26  1  0
 34 29  1  0
  1 39  1  0
  1 40  1  0
  1 41  1  0
  2 42  1  0
  3 43  1  0
  3 44  1  0
  3 45  1  0
  4 46  1  0
  4 47  1  0
  7 48  1  0
  8 49  1  0
 11 50  1  0
 12 51  1  0
 14 52  1  0
 18 53  1  0
 27 54  1  0
 28 55  1  0
 31 56  1  0
 33 57  1  0
 33 58  1  0
 35 59  1  0
 38 60  1  0
M  CHG  2   2   1  31   1
M  END
>  <meeko>  (5) 
{"is_sidechain": [false], "free_energy": -6.798, "intermolecular_energy": -9.488, "internal_energy": -1.652}

$$$$
1z6e_ligand
     RDKit          3D

 60 64  0  0  0  0  0  0  0  0999 V2000
   16.4740    3.1430   11.0000 C   0  0  0  0  0  0  0  0  0  0  0  0
   16.7530    3.6220   12.3920 N   0  0  0  0  0  0  0  0  0  0  0  0
   18.1970    3.5300   12.7570 C   0  0  0  0  0  0  0  0  0  0  0  0
   16.1270    4.9760   12.6940 C   0  0  0  0  0  0  0  0  0  0  0  0
   14.6830    4.7910   13.0230 C   0  0  0  0  0  0  0  0  0  0  0  0
   14.3050    4.0980   14.0860 N   0  0  0  0  0  0  0  0  0  0  0  0
   12.9530    3.9640   13.9780 C   0  0  0  0  0  0  0  0  0  0  0  0
   12.5020    4.5770   12.8350 C   0  0  0  0  0  0  0  0  0  0  0  0
   13.5960    5.1700   12.2410 N   0  0  0  0  0  0  0  0  0  0  0  0
   13.5570    5.9700   11.0640 C   0  0  0  0  0  0  0  0  0  0  0  0
   13.2610    7.3400   11.1140 C   0  0  0  0  0  0  0  0  0  0  0  0
   13.2170    8.1080    9.9360 C   0  0  0  0  0  0  0  0  0  0  0  0
   13.4730    7.5210    8.6980 C   0  0  0  0  0  0  0  0  0  0  0  0
   13.5050    8.2120    7.4670 N   0  0  0  0  0  0  0  0  0  0  0  0
   14.5050    9.0270    6.9690 C   0  0  0  0  0  0  0  0  0  0  0  0
   15.4550    9.4250    7.6340 O   0  0  0  0  0  0  0  0  0  0  0  0
   14.3270    9.3710    5.5730 C   0  0  0  0  0  0  0  0  0  0  0  0
   14.5170   10.6130    4.9790 C   0  0  0  0  0  0  0  0  0  0  0  0
   13.9960   10.5200    3.6710 C   0  0  0  0  0  0  0  0  0  0  0  0
   13.9170   11.6250    2.6440 C   0  0  0  0  0  0  0  0  0  0  0  0
   14.8580   11.4950    1.6750 F   0  0  0  0  0  0  0  0  0  0  0  0
   14.0680   12.8540    3.2010 F   0  0  0  0  0  0  0  0  0  0  0  0
   12.7080   11.6250    2.0180 F   0  0  0  0  0  0  0  0  0  0  0  0
   13.5230    9.2850    3.4520 N   0  0  0  0  0  0  0  0  0  0  0  0
   13.8090    8.5610    4.5660 N   0  0  0  0  0  0  0  0  0  0  0  0
   13.6070    7.1430    4.4950 C   0  0  0  0  0  0  0  0  0  0  0  0
   12.3750    6.6220    4.9440 C   0  0  0  0  0  0  0  0  0  0  0  0
   12.0680    5.2570    4.8830 C   0  0  0  0  0  0  0  0  0  0  0  0
   13.0350    4.4220    4.3370 C   0  0  0  0  0  0  0  0  0  0  0  0
   12.8940    3.0580    4.1890 O   0  0  0  0  0  0  0  0  0  0  0  0
   14.1130    2.6390    3.5760 N   0  0  0  0  0  0  0  0  0  0  0  0
   14.9280    3.7240    3.3840 C   0  0  0  0  0  0  0  0  0  0  0  0
   16.1860    3.6500    2.8070 N   0  0  0  0  0  0  0  0  0  0  0  0
   14.2750    4.8960    3.8610 C   0  0  0  0  0  0  0  0  0  0  0  0
   14.5630    6.2770    3.9350 C   0  0  0  0  0  0  0  0  0  0  0  0
   13.7580    6.1520    8.6620 C   0  0  0  0  0  0  0  0  0  0  0  0
   14.0200    5.5680    7.4820 F   0  0  0  0  0  0  0  0  0  0  0  0
   13.7880    5.3740    9.8180 C   0  0  0  0  0  0  0  0  0  0  0  0
   15.9208    2.1932   11.0430 H   0  0  0  0  0  0  0  0  0  0  0  0
   15.8721    3.8941   10.4675 H   0  0  0  0  0  0  0  0  0  0  0  0
   17.4243    2.9900   10.4675 H   0  0  0  0  0  0  0  0  0  0  0  0
   16.2260    2.9800   13.0120 H   0  0  0  0  0  0  0  0  0  0  0  0
   18.2987    3.5235   13.8523 H   0  0  0  0  0  0  0  0  0  0  0  0
   18.6213    2.6030   12.3439 H   0  0  0  0  0  0  0  0  0  0  0  0
   18.7355    4.3957   12.3439 H   0  0  0  0  0  0  0  0  0  0  0  0
   16.6426    5.4362   13.5498 H   0  0  0  0  0  0  0  0  0  0  0  0
   16.2232    5.6301   11.8148 H   0  0  0  0  0  0  0  0  0  0  0  0
   12.3139    3.4393   14.7034 H   0  0  0  0  0  0  0  0  0  0  0  0
   11.4665    4.5921   12.4643 H   0  0  0  0  0  0  0  0  0  0  0  0
   13.0612    7.8188   12.0839 H   0  0  0  0  0  0  0  0  0  0  0  0
   12.9786    9.1804    9.9925 H   0  0  0  0  0  0  0  0  0  0  0  0
   12.6720    8.0900    6.8970 H   0  0  0  0  0  0  0  0  0  0  0  0
   14.9830   11.4968    5.4391 H   0  0  0  0  0  0  0  0  0  0  0  0
   11.6271    7.3144    5.3578 H   0  0  0  0  0  0  0  0  0  0  0  0
   11.1078    4.8649    5.2496 H   0  0  0  0  0  0  0  0  0  0  0  0
   14.2560    1.6610    3.3530 H   0  0  0  0  0  0  0  0  0  0  0  0
   16.9900    4.1750    3.1370 H   0  0  0  0  0  0  0  0  0  0  0  0
   16.3370    3.0380    2.0070 H   0  0  0  0  0  0  0  0  0  0  0  0
   15.5202    6.6688    3.5604 H   0  0  0  0  0  0  0  0  0  0  0  0
   13.9925    4.2952    9.7518 H   0  0  0  0  0  0  0  0  0  0  0  0
  1  2  1  0
  2  3  1  0
  2  4  1  0
  4  5  1  0
  5  6  2  0
  6  7  1  0
  7  8  2  0
  8  9  1  0
  9 10  1  0
 10 11  2  0
 11 12  1  0
 12 13  2  0
 13 14  1  0
 14 15  1  0
 15 16  2  0
 15 17  1  0
 17 18  2  0
 18 19  1  0
 19 20  1  0
 20 21  1  0
 20 22  1  0
 20 23  1  0
 19 24  2  0
 24 25  1  0
 25 26  1  0
 26 27  2  0
 27 28  1  0
 28 29  2  0
 29 30  1  0
 30 31  1  0
 31 32  2  0
 32 33  1  0
 32 34  1  0
 34 35  2  0
 13 36  1  0
 36 37  1  0
 36 38  2  0
  9  5  1  0
 38 10  1  0
 25 17  1  0
 35 26  1  0
 34 29  1  0
  1 39  1  0
  1 40  1  0
  1 41  1  0
  2 42  1  0
  3 43  1  0
  3 44  1  0
  3 45  1  0
  4 46  1  0
  4 47  1  0
  7 48  1  0
  8 49  1  0
 11 50  1  0
 12 51  1  0
 14 52  1  0
 18 53  1  0
 27 54  1  0
 28 55  1  0
 31 56  1  0
 33 57  1  0
 33 58  1  0
 35 59  1  0
 38 60  1  0
M  CHG  2   2   1  31   1
M  END
>  <meeko>  (6) 
{"is_sidechain": [false], "free_energy": -6.721, "intermolecular_energy": -9.456, "internal_energy": -1.572}

$$$$
1z6e_ligand
     RDKit          3D

 60 64  0  0  0  0  0  0  0  0999 V2000
   16.6650   -0.1120   10.6770 C   0  0  0  0  0  0  0  0  0  0  0  0
   15.5110   -0.0000   11.6270 N   0  0  0  0  0  0  0  0  0  0  0  0
   15.0340   -1.3260   12.1170 C   0  0  0  0  0  0  0  0  0  0  0  0
   15.7450    1.0180   12.7330 C   0  0  0  0  0  0  0  0  0  0  0  0
   14.4300    1.4850   13.2640 C   0  0  0  0  0  0  0  0  0  0  0  0
   13.8590    0.8900   14.2990 N   0  0  0  0  0  0  0  0  0  0  0  0
   12.6090    1.4270   14.3900 C   0  0  0  0  0  0  0  0  0  0  0  0
   12.4150    2.3560   13.3990 C   0  0  0  0  0  0  0  0  0  0  0  0
   13.6020    2.4520   12.7020 N   0  0  0  0  0  0  0  0  0  0  0  0
   13.8540    3.3540   11.6300 C   0  0  0  0  0  0  0  0  0  0  0  0
   15.1440    3.5470   11.1170 C   0  0  0  0  0  0  0  0  0  0  0  0
   15.3700    4.4520   10.0640 C   0  0  0  0  0  0  0  0  0  0  0  0
   14.3120    5.1700    9.5090 C   0  0  0  0  0  0  0  0  0  0  0  0
   14.4240    6.0610    8.4190 N   0  0  0  0  0  0  0  0  0  0  0  0
   14.1460    5.8220    7.0860 C   0  0  0  0  0  0  0  0  0  0  0  0
   13.9330    4.7070    6.6230 O   0  0  0  0  0  0  0  0  0  0  0  0
   14.1260    7.0230    6.2760 C   0  0  0  0  0  0  0  0  0  0  0  0
   13.0920    7.4770    5.4650 C   0  0  0  0  0  0  0  0  0  0  0  0
   13.6150    8.5390    4.6990 C   0  0  0  0  0  0  0  0  0  0  0  0
   12.8970    9.3280    3.6290 C   0  0  0  0  0  0  0  0  0  0  0  0
   13.7020    9.6150    2.5760 F   0  0  0  0  0  0  0  0  0  0  0  0
   12.4040   10.5010    4.1010 F   0  0  0  0  0  0  0  0  0  0  0  0
   11.8390    8.6300    3.1340 F   0  0  0  0  0  0  0  0  0  0  0  0
   14.8980    8.7510    5.0230 N   0  0  0  0  0  0  0  0  0  0  0  0
   15.1810    7.9000    6.0440 N   0  0  0  0  0  0  0  0  0  0  0  0
   16.4300    8.0860    6.7260 C   0  0  0  0  0  0  0  0  0  0  0  0
   16.4490    8.9200    7.8650 C   0  0  0  0  0  0  0  0  0  0  0  0
   17.6090    9.1350    8.6190 C   0  0  0  0  0  0  0  0  0  0  0  0
   18.7580    8.4720    8.2040 C   0  0  0  0  0  0  0  0  0  0  0  0
   19.9800    8.5610    8.8360 O   0  0  0  0  0  0  0  0  0  0  0  0
   20.8360    7.7070    8.0770 N   0  0  0  0  0  0  0  0  0  0  0  0
   20.1310    7.1520    7.0420 C   0  0  0  0  0  0  0  0  0  0  0  0
   20.6780    6.2740    6.1190 N   0  0  0  0  0  0  0  0  0  0  0  0
   18.7850    7.6180    7.0830 C   0  0  0  0  0  0  0  0  0  0  0  0
   17.6030    7.4170    6.3360 C   0  0  0  0  0  0  0  0  0  0  0  0
   13.0320    4.9740   10.0360 C   0  0  0  0  0  0  0  0  0  0  0  0
   11.9950    5.6450    9.5080 F   0  0  0  0  0  0  0  0  0  0  0  0
   12.7940    4.0950   11.0900 C   0  0  0  0  0  0  0  0  0  0  0  0
   17.6015   -0.2029   11.2468 H   0  0  0  0  0  0  0  0  0  0  0  0
   16.5334   -1.0016   10.0435 H   0  0  0  0  0  0  0  0  0  0  0  0
   16.7069    0.7863   10.0435 H   0  0  0  0  0  0  0  0  0  0  0  0
   14.7450    0.4300   11.0750 H   0  0  0  0  0  0  0  0  0  0  0  0
   15.0321   -1.3314   13.2170 H   0  0  0  0  0  0  0  0  0  0  0  0
   14.0140   -1.5081   11.7476 H   0  0  0  0  0  0  0  0  0  0  0  0
   15.7042   -2.1162   11.7476 H   0  0  0  0  0  0  0  0  0  0  0  0
   16.3237    0.5520   13.5442 H   0  0  0  0  0  0  0  0  0  0  0  0
   16.3041    1.8756   12.3305 H   0  0  0  0  0  0  0  0  0  0  0  0
   11.8621    1.1542   15.1500 H   0  0  0  0  0  0  0  0  0  0  0  0
   11.4902    2.9169   13.1985 H   0  0  0  0  0  0  0  0  0  0  0  0
   15.9885    2.9849   11.5422 H   0  0  0  0  0  0  0  0  0  0  0  0
   16.3893    4.5941    9.6757 H   0  0  0  0  0  0  0  0  0  0  0  0
   14.7660    6.9850    8.6680 H   0  0  0  0  0  0  0  0  0  0  0  0
   12.0653    7.0840    5.4281 H   0  0  0  0  0  0  0  0  0  0  0  0
   15.5180    9.4194    8.1714 H   0  0  0  0  0  0  0  0  0  0  0  0
   17.6109    9.7968    9.4976 H   0  0  0  0  0  0  0  0  0  0  0  0
   21.8060    7.5940    8.3480 H   0  0  0  0  0  0  0  0  0  0  0  0
   20.1270    5.6650    5.5230 H   0  0  0  0  0  0  0  0  0  0  0  0
   21.6900    6.2230    6.0140 H   0  0  0  0  0  0  0  0  0  0  0  0
   17.6006    6.7476    5.4631 H   0  0  0  0  0  0  0  0  0  0  0  0
   11.7782    3.9829   11.4969 H   0  0  0  0  0  0  0  0  0  0  0  0
  1  2  1  0
  2  3  1  0
  2  4  1  0
  4  5  1  0
  5  6  2  0
  6  7  1  0
  7  8  2  0
  8  9  1  0
  9 10  1  0
 10 11  2  0
 11 12  1  0
 12 13  2  0
 13 14  1  0
 14 15  1  0
 15 16  2  0
 15 17  1  0
 17 18  2  0
 18 19  1  0
 19 20  1  0
 20 21  1  0
 20 22  1  0
 20 23  1  0
 19 24  2  0
 24 25  1  0
 25 26  1  0
 26 27  2  0
 27 28  1  0
 28 29  2  0
 29 30  1  0
 30 31  1  0
 31 32  2  0
 32 33  1  0
 32 34  1  0
 34 35  2  0
 13 36  1  0
 36 37  1  0
 36 38  2  0
  9  5  1  0
 38 10  1  0
 25 17  1  0
 35 26  1  0
 34 29  1  0
  1 39  1  0
  1 40  1  0
  1 41  1  0
  2 42  1  0
  3 43  1  0
  3 44  1  0
  3 45  1  0
  4 46  1  0
  4 47  1  0
  7 48  1  0
  8 49  1  0
 11 50  1  0
 12 51  1  0
 14 52  1  0
 18 53  1  0
 27 54  1  0
 28 55  1  0
 31 56  1  0
 33 57  1  0
 33 58  1  0
 35 59  1  0
 38 60  1  0
M  CHG  2   2   1  31   1
M  END
>  <meeko>  (7) 
{"is_sidechain": [false], "free_energy": -6.718, "intermolecular_energy": -10.092, "internal_energy": -0.933}

$$$$
1z6e_ligand
     RDKit          3D

 60 64  0  0  0  0  0  0  0  0999 V2000
   13.5210   10.7810   -3.0050 C   0  0  0  0  0  0  0  0  0  0  0  0
   14.5080   11.1710   -4.0640 N   0  0  0  0  0  0  0  0  0  0  0  0
   13.8620   11.4640   -5.3770 C   0  0  0  0  0  0  0  0  0  0  0  0
   15.4820   12.2450   -3.6040 C   0  0  0  0  0  0  0  0  0  0  0  0
   16.8810   11.7690   -3.8180 C   0  0  0  0  0  0  0  0  0  0  0  0
   17.5600   12.1030   -4.9050 N   0  0  0  0  0  0  0  0  0  0  0  0
   18.6990   11.3550   -4.8730 C   0  0  0  0  0  0  0  0  0  0  0  0
   18.7130   10.5540   -3.7590 C   0  0  0  0  0  0  0  0  0  0  0  0
   17.5780   10.8550   -3.0340 N   0  0  0  0  0  0  0  0  0  0  0  0
   17.2400   10.2960   -1.7700 C   0  0  0  0  0  0  0  0  0  0  0  0
   17.7230   10.8400   -0.5710 C   0  0  0  0  0  0  0  0  0  0  0  0
   17.3840   10.2640    0.6660 C   0  0  0  0  0  0  0  0  0  0  0  0
   16.5550    9.1450    0.7230 C   0  0  0  0  0  0  0  0  0  0  0  0
   16.1150    8.5240    1.9130 N   0  0  0  0  0  0  0  0  0  0  0  0
   15.0530    8.8830    2.7220 C   0  0  0  0  0  0  0  0  0  0  0  0
   14.4400    9.9390    2.6140 O   0  0  0  0  0  0  0  0  0  0  0  0
   14.7250    7.8860    3.7210 C   0  0  0  0  0  0  0  0  0  0  0  0
   13.6810    6.9690    3.6860 C   0  0  0  0  0  0  0  0  0  0  0  0
   13.6180    6.3800    4.9660 C   0  0  0  0  0  0  0  0  0  0  0  0
   12.6130    5.3600    5.4490 C   0  0  0  0  0  0  0  0  0  0  0  0
   11.3430    5.6860    5.1010 F   0  0  0  0  0  0  0  0  0  0  0  0
   12.6430    5.2100    6.7980 F   0  0  0  0  0  0  0  0  0  0  0  0
   12.8640    4.1350    4.9130 F   0  0  0  0  0  0  0  0  0  0  0  0
   14.5780    6.8850    5.7530 N   0  0  0  0  0  0  0  0  0  0  0  0
   15.3100    7.7250    4.9730 N   0  0  0  0  0  0  0  0  0  0  0  0
   16.5390    8.2230    5.5210 C   0  0  0  0  0  0  0  0  0  0  0  0
   16.5530    9.5340    6.0420 C   0  0  0  0  0  0  0  0  0  0  0  0
   17.6930   10.0970    6.6300 C   0  0  0  0  0  0  0  0  0  0  0  0
   18.8250    9.2940    6.6970 C   0  0  0  0  0  0  0  0  0  0  0  0
   20.0250    9.6830    7.2520 O   0  0  0  0  0  0  0  0  0  0  0  0
   20.8690    8.5400    7.1120 N   0  0  0  0  0  0  0  0  0  0  0  0
   20.1780    7.5320    6.4930 C   0  0  0  0  0  0  0  0  0  0  0  0
   20.7200    6.2870    6.2100 N   0  0  0  0  0  0  0  0  0  0  0  0
   18.8550    7.9730    6.2040 C   0  0  0  0  0  0  0  0  0  0  0  0
   17.6940    7.4270    5.6130 C   0  0  0  0  0  0  0  0  0  0  0  0
   16.0870    8.6080   -0.4810 C   0  0  0  0  0  0  0  0  0  0  0  0
   15.2780    7.5370   -0.4500 F   0  0  0  0  0  0  0  0  0  0  0  0
   16.4290    9.1550   -1.7160 C   0  0  0  0  0  0  0  0  0  0  0  0
   13.9609   10.9548   -2.0119 H   0  0  0  0  0  0  0  0  0  0  0  0
   12.6089   11.3863   -3.1131 H   0  0  0  0  0  0  0  0  0  0  0  0
   13.2690    9.7157   -3.1131 H   0  0  0  0  0  0  0  0  0  0  0  0
   15.1180   10.3420   -4.1870 H   0  0  0  0  0  0  0  0  0  0  0  0
   12.8723   11.9129   -5.2066 H   0  0  0  0  0  0  0  0  0  0  0  0
   14.4898   12.1655   -5.9461 H   0  0  0  0  0  0  0  0  0  0  0  0
   13.7478   10.5296   -5.9461 H   0  0  0  0  0  0  0  0  0  0  0  0
   15.3145   13.1650   -4.1833 H   0  0  0  0  0  0  0  0  0  0  0  0
   15.3233   12.4521   -2.5354 H   0  0  0  0  0  0  0  0  0  0  0  0
   19.4941   11.3887   -5.6324 H   0  0  0  0  0  0  0  0  0  0  0  0
   19.4821    9.8134   -3.4944 H   0  0  0  0  0  0  0  0  0  0  0  0
   18.3737   11.7264   -0.5986 H   0  0  0  0  0  0  0  0  0  0  0  0
   17.7763   10.7001    1.5965 H   0  0  0  0  0  0  0  0  0  0  0  0
   16.6710    7.7220    2.1970 H   0  0  0  0  0  0  0  0  0  0  0  0
   13.0306    6.7461    2.8273 H   0  0  0  0  0  0  0  0  0  0  0  0
   15.6345   10.1365    5.9843 H   0  0  0  0  0  0  0  0  0  0  0  0
   17.6921   11.1255    7.0200 H   0  0  0  0  0  0  0  0  0  0  0  0
   21.8210    8.5700    7.4560 H   0  0  0  0  0  0  0  0  0  0  0  0
   21.3180    6.1000    5.4110 H   0  0  0  0  0  0  0  0  0  0  0  0
   20.5220    5.5020    6.8270 H   0  0  0  0  0  0  0  0  0  0  0  0
   17.6937    6.3955    5.2309 H   0  0  0  0  0  0  0  0  0  0  0  0
   16.0636    8.6928   -2.6449 H   0  0  0  0  0  0  0  0  0  0  0  0
  1  2  1  0
  2  3  1  0
  2  4  1  0
  4  5  1  0
  5  6  2  0
  6  7  1  0
  7  8  2  0
  8  9  1  0
  9 10  1  0
 10 11  2  0
 11 12  1  0
 12 13  2  0
 13 14  1  0
 14 15  1  0
 15 16  2  0
 15 17  1  0
 17 18  2  0
 18 19  1  0
 19 20  1  0
 20 21  1  0
 20 22  1  0
 20 23  1  0
 19 24  2  0
 24 25  1  0
 25 26  1  0
 26 27  2  0
 27 28  1  0
 28 29  2  0
 29 30  1  0
 30 31  1  0
 31 32  2  0
 32 33  1  0
 32 34  1  0
 34 35  2  0
 13 36  1  0
 36 37  1  0
 36 38  2  0
  9  5  1  0
 38 10  1  0
 25 17  1  0
 35 26  1  0
 34 29  1  0
  1 39  1  0
  1 40  1  0
  1 41  1  0
  2 42  1  0
  3 43  1  0
  3 44  1  0
  3 45  1  0
  4 46  1  0
  4 47  1  0
  7 48  1  0
  8 49  1  0
 11 50  1  0
 12 51  1  0
 14 52  1  0
 18 53  1  0
 27 54  1  0
 28 55  1  0
 31 56  1  0
 33 57  1  0
 33 58  1  0
 35 59  1  0
 38 60  1  0
M  CHG  2   2   1  31   1
M  END
>  <meeko>  (8) 
{"is_sidechain": [false], "free_energy": -6.653, "intermolecular_energy": -9.289, "internal_energy": -1.642}

$$$$
1z6e_ligand
     RDKit          3D

 60 64  0  0  0  0  0  0  0  0999 V2000
   11.7150   15.9610    9.8290 C   0  0  0  0  0  0  0  0  0  0  0  0
   11.4130   15.5720   11.2450 N   0  0  0  0  0  0  0  0  0  0  0  0
   10.0020   15.8590   11.6360 C   0  0  0  0  0  0  0  0  0  0  0  0
   11.8720   14.1630   11.5870 C   0  0  0  0  0  0  0  0  0  0  0  0
   13.3260   14.1820   11.9220 C   0  0  0  0  0  0  0  0  0  0  0  0
   13.8120   15.0300   12.8160 N   0  0  0  0  0  0  0  0  0  0  0  0
   15.1680   14.9170   12.7340 C   0  0  0  0  0  0  0  0  0  0  0  0
   15.5130   13.9950   11.7770 C   0  0  0  0  0  0  0  0  0  0  0  0
   14.3360   13.4660   11.2890 N   0  0  0  0  0  0  0  0  0  0  0  0
   14.2450   12.4230   10.3240 C   0  0  0  0  0  0  0  0  0  0  0  0
   14.4110   12.6700    8.9540 C   0  0  0  0  0  0  0  0  0  0  0  0
   14.3050   11.6250    8.0180 C   0  0  0  0  0  0  0  0  0  0  0  0
   14.0390   10.3230    8.4390 C   0  0  0  0  0  0  0  0  0  0  0  0
   13.9650    9.1980    7.5870 N   0  0  0  0  0  0  0  0  0  0  0  0
   14.9500    8.2670    7.3120 C   0  0  0  0  0  0  0  0  0  0  0  0
   16.1250    8.4010    7.6360 O   0  0  0  0  0  0  0  0  0  0  0  0
   14.4620    7.1050    6.5980 C   0  0  0  0  0  0  0  0  0  0  0  0
   14.3790    6.9340    5.2210 C   0  0  0  0  0  0  0  0  0  0  0  0
   13.6280    5.7590    5.0050 C   0  0  0  0  0  0  0  0  0  0  0  0
   13.2140    5.1780    3.6730 C   0  0  0  0  0  0  0  0  0  0  0  0
   14.1630    4.3600    3.1520 F   0  0  0  0  0  0  0  0  0  0  0  0
   12.9520    6.1410    2.7530 F   0  0  0  0  0  0  0  0  0  0  0  0
   12.0810    4.4350    3.7950 F   0  0  0  0  0  0  0  0  0  0  0  0
   13.2760    5.2160    6.1790 N   0  0  0  0  0  0  0  0  0  0  0  0
   13.8610    5.9740    7.1430 N   0  0  0  0  0  0  0  0  0  0  0  0
   13.8250    5.4690    8.4850 C   0  0  0  0  0  0  0  0  0  0  0  0
   12.8180    5.9490    9.3500 C   0  0  0  0  0  0  0  0  0  0  0  0
   12.6760    5.4910   10.6660 C   0  0  0  0  0  0  0  0  0  0  0  0
   13.5720    4.5160   11.0890 C   0  0  0  0  0  0  0  0  0  0  0  0
   13.5680    3.9470   12.3450 O   0  0  0  0  0  0  0  0  0  0  0  0
   14.6370    3.0010   12.3100 N   0  0  0  0  0  0  0  0  0  0  0  0
   15.2370    3.0310   11.0790 C   0  0  0  0  0  0  0  0  0  0  0  0
   16.3100    2.2280   10.7250 N   0  0  0  0  0  0  0  0  0  0  0  0
   14.5840    3.9950   10.2580 C   0  0  0  0  0  0  0  0  0  0  0  0
   14.7100    4.4730    8.9350 C   0  0  0  0  0  0  0  0  0  0  0  0
   13.8680   10.0920    9.8070 C   0  0  0  0  0  0  0  0  0  0  0  0
   13.6240    8.8430   10.2360 F   0  0  0  0  0  0  0  0  0  0  0  0
   13.9510   11.1190   10.7450 C   0  0  0  0  0  0  0  0  0  0  0  0
   12.3896   16.8299    9.8234 H   0  0  0  0  0  0  0  0  0  0  0  0
   12.1980   15.1185    9.3123 H   0  0  0  0  0  0  0  0  0  0  0  0
   10.7791   16.2200    9.3123 H   0  0  0  0  0  0  0  0  0  0  0  0
   12.0330   16.1660   11.8280 H   0  0  0  0  0  0  0  0  0  0  0  0
    9.9216   15.8754   12.7329 H   0  0  0  0  0  0  0  0  0  0  0  0
    9.7011   16.8367   11.2317 H   0  0  0  0  0  0  0  0  0  0  0  0
    9.3431   15.0765   11.2317 H   0  0  0  0  0  0  0  0  0  0  0  0
   11.3014   13.7908   12.4507 H   0  0  0  0  0  0  0  0  0  0  0  0
   11.7028   13.5022   10.7240 H   0  0  0  0  0  0  0  0  0  0  0  0
   15.8839   15.4839   13.3473 H   0  0  0  0  0  0  0  0  0  0  0  0
   16.5323   13.7291   11.4602 H   0  0  0  0  0  0  0  0  0  0  0  0
   14.6264   13.6915    8.6073 H   0  0  0  0  0  0  0  0  0  0  0  0
   14.4330   11.8369    6.9462 H   0  0  0  0  0  0  0  0  0  0  0  0
   13.0700    9.0860    7.1200 H   0  0  0  0  0  0  0  0  0  0  0  0
   14.8139    7.5872    4.4501 H   0  0  0  0  0  0  0  0  0  0  0  0
   12.1185    6.7114    8.9765 H   0  0  0  0  0  0  0  0  0  0  0  0
   11.8937    5.8836   11.3322 H   0  0  0  0  0  0  0  0  0  0  0  0
   14.8390    2.4370   13.1270 H   0  0  0  0  0  0  0  0  0  0  0  0
   16.4350    1.8270    9.8000 H   0  0  0  0  0  0  0  0  0  0  0  0
   17.0280    2.0170   11.4150 H   0  0  0  0  0  0  0  0  0  0  0  0
   15.4875    4.0729    8.2676 H   0  0  0  0  0  0  0  0  0  0  0  0
   13.7864   10.9071   11.8118 H   0  0  0  0  0  0  0  0  0  0  0  0
  1  2  1  0
  2  3  1  0
  2  4  1  0
  4  5  1  0
  5  6  2  0
  6  7  1  0
  7  8  2  0
  8  9  1  0
  9 10  1  0
 10 11  2  0
 11 12  1  0
 12 13  2  0
 13 14  1  0
 14 15  1  0
 15 16  2  0
 15 17  1  0
 17 18  2  0
 18 19  1  0
 19 20  1  0
 20 21  1  0
 20 22  1  0
 20 23  1  0
 19 24  2  0
 24 25  1  0
 25 26  1  0
 26 27  2  0
 27 28  1  0
 28 29  2  0
 29 30  1  0
 30 31  1  0
 31 32  2  0
 32 33  1  0
 32 34  1  0
 34 35  2  0
 13 36  1  0
 36 37  1  0
 36 38  2  0
  9  5  1  0
 38 10  1  0
 25 17  1  0
 35 26  1  0
 34 29  1  0
  1 39  1  0
  1 40  1  0
  1 41  1  0
  2 42  1  0
  3 43  1  0
  3 44  1  0
  3 45  1  0
  4 46  1  0
  4 47  1  0
  7 48  1  0
  8 49  1  0
 11 50  1  0
 12 51  1  0
 14 52  1  0
 18 53  1  0
 27 54  1  0
 28 55  1  0
 31 56  1  0
 33 57  1  0
 33 58  1  0
 35 59  1  0
 38 60  1  0
M  CHG  2   2   1  31   1
M  END
>  <meeko>  (9) 
{"is_sidechain": [false], "free_energy": -6.634, "intermolecular_energy": -9.193, "internal_energy": -1.712}

$$$$
