
     RDKit          3D

 32 32  0  0  0  0  0  0  0  0999 V2000
    4.7320    0.3050   12.8710 C   0  0  0  0  0  0  0  0  0  0  0  0
    3.3360    0.5490   12.3170 C   0  0  1  0  0  0  0  0  0  0  0  0
    2.4210   -0.5490   12.8510 C   0  0  0  0  0  0  0  0  0  0  0  0
    2.8330    1.9350   12.7820 C   0  0  0  0  0  0  0  0  0  0  0  0
    1.9270    2.6700   11.8110 C   0  0  2  0  0  0  0  0  0  0  0  0
    0.6950    1.9040   11.5840 N   0  0  0  0  0  0  0  0  0  0  0  0
   -0.4180    2.1370   12.3040 C   0  0  0  0  0  0  0  0  0  0  0  0
   -0.4930    2.9660   13.2170 O   0  0  0  0  0  0  0  0  0  0  0  0
   -1.6350    1.2870   11.9450 C   0  0  2  0  0  0  0  0  0  0  0  0
   -1.5100   -0.0770   12.6250 C   0  0  0  0  0  0  0  0  0  0  0  0
   -1.4670   -0.0070   14.1390 C   0  0  1  0  0  0  0  0  0  0  0  0
   -2.8340    0.3990   14.6750 C   0  0  0  0  0  0  0  0  0  0  0  0
   -1.0600   -1.3600   14.6850 C   0  0  0  0  0  0  0  0  0  0  0  0
   -1.7230    1.0580   10.5110 N   0  0  0  0  0  0  0  0  0  0  0  0
   -2.3490    2.2710    9.5010 P   0  0  0  0  0  0  0  0  0  0  0  0
   -2.2480    3.6080   10.1630 O   0  0  0  0  0  0  0  0  0  0  0  0
   -3.7250    1.8890    9.0990 O   0  0  0  0  0  0  0  0  0  0  0  0
   -1.3060    2.2340    8.0500 C   0  0  0  0  0  0  0  0  0  0  0  0
   -1.9220    2.9960    6.9470 N   0  0  0  0  0  0  0  0  0  0  0  0
   -1.3000    3.2100    5.7480 C   0  0  0  0  0  0  0  0  0  0  0  0
   -0.1880    2.7810    5.4690 O   0  0  0  0  0  0  0  0  0  0  0  0
   -2.0630    3.9700    4.8450 O   0  0  0  0  0  0  0  0  0  0  0  0
   -1.4920    4.2270    3.5510 C   0  0  0  0  0  0  0  0  0  0  0  0
   -2.0610    3.2890    2.4850 C   0  0  0  0  0  0  0  0  0  0  0  0
   -1.4980    2.0150    2.3010 C   0  0  0  0  0  0  0  0  0  0  0  0
   -2.0180    1.1250    1.3120 C   0  0  0  0  0  0  0  0  0  0  0  0
   -3.0830    1.5290    0.5090 C   0  0  0  0  0  0  0  0  0  0  0  0
   -3.6400    2.8160    0.6770 C   0  0  0  0  0  0  0  0  0  0  0  0
   -3.1210    3.6970    1.6650 C   0  0  0  0  0  0  0  0  0  0  0  0
    2.5700    2.9630   10.4410 C   0  0  0  0  0  0  0  0  0  0  0  0
    1.9980    2.5470    9.4150 O   0  0  0  0  0  0  0  0  0  0  0  0
    3.5840    3.6670   10.4150 O   0  0  0  0  0  0  0  0  0  0  0  0
  2  1  1  1
  3  2  1  0
  4  2  1  0
  5  4  1  1
  6  5  1  0
  7  6  1  0
  8  7  2  0
  9  7  1  0
  9 10  1  1
 11 10  1  0
 11 12  1  1
 13 11  1  0
 14  9  1  0
 15 14  1  0
 16 15  2  0
 17 15  1  0
 18 15  1  0
 19 18  1  0
 20 19  1  0
 21 20  2  0
 22 20  1  0
 23 22  1  0
 24 23  1  0
 25 24  2  0
 26 25  1  0
 27 26  2  0
 28 27  1  0
 29 28  2  0
 29 24  1  0
 30  5  1  0
 31 30  2  0
 32 30  1  0
M  CHG  2  17  -1  32  -1
M  END
$$$$
