
     RDKit          3D

 35 39  0  0  0  0  0  0  0  0999 V2000
    7.3690   -8.3570    0.8010 C   0  0  0  0  0  0  0  0  0  0  0  0
    8.3210   -7.3210    0.8690 O   0  0  0  0  0  0  0  0  0  0  0  0
    8.5890   -6.8880    2.2110 C   0  0  1  0  0  0  0  0  0  0  0  0
    9.6790   -5.8090    2.1590 C   0  0  0  0  0  0  0  0  0  0  0  0
   10.0110   -5.3090    1.1110 O   0  0  0  0  0  0  0  0  0  0  0  0
   10.2460   -5.3860    3.3120 N   0  0  0  0  0  0  0  0  0  0  0  0
   11.2100   -4.3020    3.3550 C   0  0  0  0  0  0  0  0  0  0  0  0
   11.4530   -4.1420    4.8060 C   0  0  0  0  0  0  0  0  0  0  0  0
   12.1380   -3.3670    5.6230 N   0  0  0  0  0  0  0  0  0  0  0  0
   11.8870   -3.7650    6.8890 N   0  0  0  0  0  0  0  0  0  0  0  0
   11.0400   -4.8020    6.8600 C   0  0  0  0  0  0  0  0  0  0  0  0
   10.6130   -5.4130    8.0550 N   0  0  0  0  0  0  0  0  0  0  0  0
    9.8680   -6.5470    8.1690 C   0  0  0  0  0  0  0  0  0  0  0  0
    9.4810   -7.1520    7.2030 O   0  0  0  0  0  0  0  0  0  0  0  0
    9.5270   -7.0150    9.5460 C   0  0  0  0  0  0  0  0  0  0  0  0
   10.1100   -6.4750   10.6820 C   0  0  0  0  0  0  0  0  0  0  0  0
    9.7450   -6.9540   11.9540 C   0  0  0  0  0  0  0  0  0  0  0  0
    8.7980   -7.9650   12.0960 C   0  0  0  0  0  0  0  0  0  0  0  0
    8.4050   -8.4530   13.3480 N   0  0  0  0  0  0  0  0  0  0  0  0
    7.6010   -7.5210   14.1910 C   0  0  0  0  0  0  0  0  0  0  0  0
    6.9360   -8.3260   15.3120 C   0  0  0  0  0  0  0  0  0  0  0  0
    7.9690   -9.0390   16.0780 N   0  0  0  0  0  0  0  0  0  0  0  0
    7.3600   -9.7880   17.1830 C   0  0  0  0  0  0  0  0  0  0  0  0
    8.7360   -9.9650   15.2130 C   0  0  0  0  0  0  0  0  0  0  0  0
    9.4300   -9.1900   14.1060 C   0  0  0  0  0  0  0  0  0  0  0  0
    8.2220   -8.5080   10.9570 C   0  0  0  0  0  0  0  0  0  0  0  0
    8.5740   -8.0430    9.6740 C   0  0  0  0  0  0  0  0  0  0  0  0
   10.7560   -5.0570    5.5340 C   0  0  0  0  0  0  0  0  0  0  0  0
    9.9850   -5.9120    4.6260 C   0  0  0  0  0  0  0  0  0  0  0  0
    7.3460   -6.3050    2.8640 C   0  0  0  0  0  0  0  0  0  0  0  0
    6.7930   -6.9410    3.9970 C   0  0  0  0  0  0  0  0  0  0  0  0
    5.6650   -6.4260    4.6230 C   0  0  0  0  0  0  0  0  0  0  0  0
    5.0670   -5.2600    4.1090 C   0  0  0  0  0  0  0  0  0  0  0  0
    5.6110   -4.6110    3.0060 C   0  0  0  0  0  0  0  0  0  0  0  0
    6.7540   -5.1500    2.3800 C   0  0  0  0  0  0  0  0  0  0  0  0
  2  1  1  0
  3  2  1  6
  4  3  1  0
  5  4  2  0
  6  4  1  0
  7  6  1  0
  8  7  1  0
  9  8  1  0
 10  9  1  0
 11 10  2  0
 12 11  1  0
 13 12  1  0
 14 13  2  0
 15 13  1  0
 16 15  2  0
 17 16  1  0
 18 17  2  0
 19 18  1  0
 20 19  1  0
 21 20  1  0
 22 21  1  0
 23 22  1  0
 24 22  1  0
 25 24  1  0
 25 19  1  0
 26 18  1  0
 27 15  1  0
 27 26  2  0
 28  8  2  0
 28 11  1  0
 29  6  1  0
 29 28  1  0
 30  3  1  0
 31 30  2  0
 32 31  1  0
 33 32  2  0
 34 33  1  0
 35 30  1  0
 35 34  2  0
M  CHG  2  10   1  22   1
M  END
$$$$
