4w9i_ligand
     RDKit          3D

 61 64  0  0  0  0  0  0  0  0999 V2000
   -6.7560   27.1690   18.4640 C   0  0  0  0  0  0  0  0  0  0  0  0
   -5.6790   28.2140   18.6010 C   0  0  0  0  0  0  0  0  0  0  0  0
   -4.9680   28.5260   17.6430 O   0  0  0  0  0  0  0  0  0  0  0  0
   -5.5440   28.8030   19.8350 N   0  0  0  0  0  0  0  0  0  0  0  0
   -5.1080   28.1730   21.0720 C   0  0  0  0  0  0  0  0  0  0  0  0
   -5.6730   29.0900   22.1520 C   0  0  2  0  0  0  0  0  0  0  0  0
   -7.0340   28.7550   22.4280 O   0  0  0  0  0  0  0  0  0  0  0  0
   -5.5980   30.4800   21.5280 C   0  0  0  0  0  0  0  0  0  0  0  0
   -5.8100   30.2330   20.0270 C   0  0  1  0  0  0  0  0  0  0  0  0
   -4.8020   31.0840   19.2280 C   0  0  0  0  0  0  0  0  0  0  0  0
   -3.5880   31.0080   19.4480 O   0  0  0  0  0  0  0  0  0  0  0  0
   -5.3430   32.0530   18.3670 N   0  0  0  0  0  0  0  0  0  0  0  0
   -6.8040   32.0240   18.2880 C   0  0  0  0  0  0  0  0  0  0  0  0
   -7.2970   33.1450   19.2300 C   0  0  2  0  0  0  0  0  0  0  0  0
   -8.1230   34.0700   18.5260 O   0  0  0  0  0  0  0  0  0  0  0  0
   -6.0250   33.8760   19.6830 C   0  0  0  0  0  0  0  0  0  0  0  0
   -5.0230   33.4690   18.6040 C   0  0  1  0  0  0  0  0  0  0  0  0
   -3.5820   33.9880   18.7440 C   0  0  0  0  0  0  0  0  0  0  0  0
   -3.2600   34.7210   19.6790 O   0  0  0  0  0  0  0  0  0  0  0  0
   -2.7180   33.6720   17.7250 N   0  0  0  0  0  0  0  0  0  0  0  0
   -1.3340   34.0870   17.7430 C   0  0  0  0  0  0  0  0  0  0  0  0
   -0.4260   32.8970   17.9040 C   0  0  0  0  0  0  0  0  0  0  0  0
    0.2600   32.3670   16.8030 C   0  0  0  0  0  0  0  0  0  0  0  0
    1.0830   31.2460   16.9540 C   0  0  0  0  0  0  0  0  0  0  0  0
    1.2260   30.6280   18.2020 C   0  0  0  0  0  0  0  0  0  0  0  0
    2.0970   29.4630   18.3500 C   0  0  0  0  0  0  0  0  0  0  0  0
    3.7790   29.6720   18.6360 S   0  0  0  0  0  0  0  0  0  0  0  0
    3.9670   27.9720   18.7010 C   0  0  0  0  0  0  0  0  0  0  0  0
    2.8770   27.2620   18.5250 N   0  0  0  0  0  0  0  0  0  0  0  0
    1.7960   28.1080   18.3190 C   0  0  0  0  0  0  0  0  0  0  0  0
    0.4610   27.4930   18.0870 C   0  0  0  0  0  0  0  0  0  0  0  0
    0.5300   31.1510   19.3000 C   0  0  0  0  0  0  0  0  0  0  0  0
   -0.2920   32.2730   19.1510 C   0  0  0  0  0  0  0  0  0  0  0  0
   -7.0857   26.8491   19.4635 H   0  0  0  0  0  0  0  0  0  0  0  0
   -7.6097   27.5921   17.9143 H   0  0  0  0  0  0  0  0  0  0  0  0
   -6.3588   26.3030   17.9143 H   0  0  0  0  0  0  0  0  0  0  0  0
   -5.5197   27.1570   21.1630 H   0  0  0  0  0  0  0  0  0  0  0  0
   -4.0159   28.0574   21.1341 H   0  0  0  0  0  0  0  0  0  0  0  0
   -5.1246   29.0124   23.1024 H   0  0  0  0  0  0  0  0  0  0  0  0
   -7.2170   27.8820   22.0370 H   0  0  0  0  0  0  0  0  0  0  0  0
   -6.3874   31.1314   21.9312 H   0  0  0  0  0  0  0  0  0  0  0  0
   -4.6445   30.9856   21.7406 H   0  0  0  0  0  0  0  0  0  0  0  0
   -6.8199   30.5050   19.6862 H   0  0  0  0  0  0  0  0  0  0  0  0
   -7.1361   32.2160   17.2570 H   0  0  0  0  0  0  0  0  0  0  0  0
   -7.2066   31.0428   18.5798 H   0  0  0  0  0  0  0  0  0  0  0  0
   -7.8836   32.7330   20.0644 H   0  0  0  0  0  0  0  0  0  0  0  0
   -8.8420   34.3360   19.1260 H   0  0  0  0  0  0  0  0  0  0  0  0
   -6.1745   34.9657   19.6989 H   0  0  0  0  0  0  0  0  0  0  0  0
   -5.7059   33.6193   20.7039 H   0  0  0  0  0  0  0  0  0  0  0  0
   -5.1183   34.0073   17.6495 H   0  0  0  0  0  0  0  0  0  0  0  0
   -3.0980   33.4660   16.8020 H   0  0  0  0  0  0  0  0  0  0  0  0
   -1.0972   34.5971   16.7976 H   0  0  0  0  0  0  0  0  0  0  0  0
   -1.1792   34.7687   18.5923 H   0  0  0  0  0  0  0  0  0  0  0  0
    0.1506   32.8354   15.8138 H   0  0  0  0  0  0  0  0  0  0  0  0
    1.6233   30.8460   16.0833 H   0  0  0  0  0  0  0  0  0  0  0  0
    4.9450   27.5014   18.8800 H   0  0  0  0  0  0  0  0  0  0  0  0
   -0.0148   27.2738   19.0542 H   0  0  0  0  0  0  0  0  0  0  0  0
   -0.1703   28.1910   17.5176 H   0  0  0  0  0  0  0  0  0  0  0  0
    0.5813   26.5595   17.5176 H   0  0  0  0  0  0  0  0  0  0  0  0
    0.6308   30.6755   20.2868 H   0  0  0  0  0  0  0  0  0  0  0  0
   -0.8377   32.6686   20.0203 H   0  0  0  0  0  0  0  0  0  0  0  0
  1  2  1  0
  2  3  2  0
  2  4  1  0
  4  5  1  0
  5  6  1  0
  6  7  1  0
  6  8  1  0
  8  9  1  0
  9 10  1  0
 10 11  2  0
 10 12  1  0
 12 13  1  0
 13 14  1  0
 14 15  1  0
 14 16  1  0
 16 17  1  0
 17 18  1  0
 18 19  2  0
 18 20  1  0
 20 21  1  0
 21 22  1  0
 22 23  2  0
 23 24  1  0
 24 25  2  0
 25 26  1  0
 26 27  1  0
 27 28  1  0
 28 29  2  0
 29 30  1  0
 30 31  1  0
 25 32  1  0
 32 33  2  0
  9  4  1  0
 17 12  1  0
 33 22  1  0
 30 26  2  0
  1 34  1  0
  1 35  1  0
  1 36  1  0
  5 37  1  0
  5 38  1  0
  6 39  1  1
  7 40  1  0
  8 41  1  0
  8 42  1  0
  9 43  1  6
 13 44  1  0
 13 45  1  0
 14 46  1  1
 15 47  1  0
 16 48  1  0
 16 49  1  0
 17 50  1  6
 20 51  1  0
 21 52  1  0
 21 53  1  0
 23 54  1  0
 24 55  1  0
 28 56  1  0
 31 57  1  0
 31 58  1  0
 31 59  1  0
 32 60  1  0
 33 61  1  0
M  END
>  <meeko>  (1) 
{"is_sidechain": [false], "free_energy": -5.665, "intermolecular_energy": -8.314, "internal_energy": -1.412}

$$$$
4w9i_ligand
     RDKit          3D

 61 64  0  0  0  0  0  0  0  0999 V2000
   -4.3110   24.9270   22.4620 C   0  0  0  0  0  0  0  0  0  0  0  0
   -5.2840   25.7200   21.6300 C   0  0  0  0  0  0  0  0  0  0  0  0
   -5.6280   25.3350   20.5110 O   0  0  0  0  0  0  0  0  0  0  0  0
   -5.7710   26.8780   22.1860 N   0  0  0  0  0  0  0  0  0  0  0  0
   -6.2420   27.0740   23.5490 C   0  0  0  0  0  0  0  0  0  0  0  0
   -7.1430   28.3000   23.4380 C   0  0  2  0  0  0  0  0  0  0  0  0
   -8.4520   27.9200   23.0090 O   0  0  0  0  0  0  0  0  0  0  0  0
   -6.4720   29.1490   22.3630 C   0  0  0  0  0  0  0  0  0  0  0  0
   -5.8320   28.1240   21.4150 C   0  0  1  0  0  0  0  0  0  0  0  0
   -4.4130   28.6000   21.0410 C   0  0  0  0  0  0  0  0  0  0  0  0
   -3.5290   28.7050   21.8990 O   0  0  0  0  0  0  0  0  0  0  0  0
   -4.2310   29.0570   19.7260 N   0  0  0  0  0  0  0  0  0  0  0  0
   -5.3860   29.7760   19.1840 C   0  0  0  0  0  0  0  0  0  0  0  0
   -5.0550   31.2780   19.3400 C   0  0  2  0  0  0  0  0  0  0  0  0
   -5.1210   31.9420   18.0800 O   0  0  0  0  0  0  0  0  0  0  0  0
   -3.6020   31.3180   19.8360 C   0  0  0  0  0  0  0  0  0  0  0  0
   -3.0900   29.9370   19.4330 C   0  0  1  0  0  0  0  0  0  0  0  0
   -1.6420   29.5810   19.8110 C   0  0  0  0  0  0  0  0  0  0  0  0
   -0.8670   30.4410   20.2310 O   0  0  0  0  0  0  0  0  0  0  0  0
   -1.2460   28.2910   19.5610 N   0  0  0  0  0  0  0  0  0  0  0  0
    0.0850   27.8270   19.8840 C   0  0  0  0  0  0  0  0  0  0  0  0
    0.0220   26.6590   20.8320 C   0  0  0  0  0  0  0  0  0  0  0  0
   -0.7150   26.7410   22.0210 C   0  0  0  0  0  0  0  0  0  0  0  0
   -0.7500   25.6620   22.9090 C   0  0  0  0  0  0  0  0  0  0  0  0
   -0.0410   24.4870   22.6330 C   0  0  0  0  0  0  0  0  0  0  0  0
   -0.0920   23.3620   23.5640 C   0  0  0  0  0  0  0  0  0  0  0  0
    1.0930   23.2070   24.8010 S   0  0  0  0  0  0  0  0  0  0  0  0
    0.3100   21.7920   25.3580 C   0  0  0  0  0  0  0  0  0  0  0  0
   -0.7630   21.4240   24.6960 N   0  0  0  0  0  0  0  0  0  0  0  0
   -1.0020   22.3170   23.6610 C   0  0  0  0  0  0  0  0  0  0  0  0
   -2.1750   22.0680   22.7800 C   0  0  0  0  0  0  0  0  0  0  0  0
    0.7060   24.4100   21.4500 C   0  0  0  0  0  0  0  0  0  0  0  0
    0.7400   25.4880   20.5600 C   0  0  0  0  0  0  0  0  0  0  0  0
   -4.5182   25.0959   23.5290 H   0  0  0  0  0  0  0  0  0  0  0  0
   -4.4194   23.8567   22.2324 H   0  0  0  0  0  0  0  0  0  0  0  0
   -3.2846   25.2491   22.2324 H   0  0  0  0  0  0  0  0  0  0  0  0
   -6.8091   26.1990   23.8993 H   0  0  0  0  0  0  0  0  0  0  0  0
   -5.4234   27.2063   24.2717 H   0  0  0  0  0  0  0  0  0  0  0  0
   -7.2607   28.8273   24.3962 H   0  0  0  0  0  0  0  0  0  0  0  0
   -8.9690   27.6700   23.7960 H   0  0  0  0  0  0  0  0  0  0  0  0
   -7.2143   29.7618   21.8307 H   0  0  0  0  0  0  0  0  0  0  0  0
   -5.7362   29.8519   22.7809 H   0  0  0  0  0  0  0  0  0  0  0  0
   -6.3972   27.9930   20.4805 H   0  0  0  0  0  0  0  0  0  0  0  0
   -5.5316   29.5236   18.1233 H   0  0  0  0  0  0  0  0  0  0  0  0
   -6.3142   29.5082   19.7100 H   0  0  0  0  0  0  0  0  0  0  0  0
   -5.7620   31.7727   20.0222 H   0  0  0  0  0  0  0  0  0  0  0  0
   -4.3360   32.5120   18.0080 H   0  0  0  0  0  0  0  0  0  0  0  0
   -3.0318   32.1164   19.3385 H   0  0  0  0  0  0  0  0  0  0  0  0
   -3.5064   31.5298   20.9112 H   0  0  0  0  0  0  0  0  0  0  0  0
   -2.8349   29.8252   18.3689 H   0  0  0  0  0  0  0  0  0  0  0  0
   -1.7290   27.7580   18.8400 H   0  0  0  0  0  0  0  0  0  0  0  0
    0.5938   27.5157   18.9598 H   0  0  0  0  0  0  0  0  0  0  0  0
    0.6395   28.6459   20.3656 H   0  0  0  0  0  0  0  0  0  0  0  0
   -1.2699   27.6609   22.2572 H   0  0  0  0  0  0  0  0  0  0  0  0
   -1.3406   25.7370   23.8340 H   0  0  0  0  0  0  0  0  0  0  0  0
    0.6839   21.2225   26.2217 H   0  0  0  0  0  0  0  0  0  0  0  0
   -3.0647   21.8791   23.3987 H   0  0  0  0  0  0  0  0  0  0  0  0
   -2.3502   22.9490   22.1450 H   0  0  0  0  0  0  0  0  0  0  0  0
   -1.9772   21.1918   22.1450 H   0  0  0  0  0  0  0  0  0  0  0  0
    1.2702   23.4942   21.2196 H   0  0  0  0  0  0  0  0  0  0  0  0
    1.3359   25.4155   19.6383 H   0  0  0  0  0  0  0  0  0  0  0  0
  1  2  1  0
  2  3  2  0
  2  4  1  0
  4  5  1  0
  5  6  1  0
  6  7  1  0
  6  8  1  0
  8  9  1  0
  9 10  1  0
 10 11  2  0
 10 12  1  0
 12 13  1  0
 13 14  1  0
 14 15  1  0
 14 16  1  0
 16 17  1  0
 17 18  1  0
 18 19  2  0
 18 20  1  0
 20 21  1  0
 21 22  1  0
 22 23  2  0
 23 24  1  0
 24 25  2  0
 25 26  1  0
 26 27  1  0
 27 28  1  0
 28 29  2  0
 29 30  1  0
 30 31  1  0
 25 32  1  0
 32 33  2  0
  9  4  1  0
 17 12  1  0
 33 22  1  0
 30 26  2  0
  1 34  1  0
  1 35  1  0
  1 36  1  0
  5 37  1  0
  5 38  1  0
  6 39  1  1
  7 40  1  0
  8 41  1  0
  8 42  1  0
  9 43  1  6
 13 44  1  0
 13 45  1  0
 14 46  1  1
 15 47  1  0
 16 48  1  0
 16 49  1  0
 17 50  1  6
 20 51  1  0
 21 52  1  0
 21 53  1  0
 23 54  1  0
 24 55  1  0
 28 56  1  0
 31 57  1  0
 31 58  1  0
 31 59  1  0
 32 60  1  0
 33 61  1  0
M  END
>  <meeko>  (2) 
{"is_sidechain": [false], "free_energy": -5.62, "intermolecular_energy": -8.047, "internal_energy": -1.614}

$$$$
4w9i_ligand
     RDKit          3D

 61 64  0  0  0  0  0  0  0  0999 V2000
    1.6740   34.5430   19.1470 C   0  0  0  0  0  0  0  0  0  0  0  0
    1.1480   33.5320   18.1620 C   0  0  0  0  0  0  0  0  0  0  0  0
    1.8900   33.0050   17.3310 O   0  0  0  0  0  0  0  0  0  0  0  0
   -0.1890   33.2250   18.2480 N   0  0  0  0  0  0  0  0  0  0  0  0
   -1.1850   33.3080   17.1900 C   0  0  0  0  0  0  0  0  0  0  0  0
   -2.5020   33.4040   17.9540 C   0  0  2  0  0  0  0  0  0  0  0  0
   -2.7570   34.7550   18.3400 O   0  0  0  0  0  0  0  0  0  0  0  0
   -2.2690   32.5460   19.1930 C   0  0  0  0  0  0  0  0  0  0  0  0
   -0.7720   32.7120   19.4920 C   0  0  1  0  0  0  0  0  0  0  0  0
   -0.1720   31.3350   19.8450 C   0  0  0  0  0  0  0  0  0  0  0  0
    0.6140   31.2050   20.7890 O   0  0  0  0  0  0  0  0  0  0  0  0
   -0.4340   30.2880   18.9460 N   0  0  0  0  0  0  0  0  0  0  0  0
    0.7640   29.7470   18.3010 C   0  0  0  0  0  0  0  0  0  0  0  0
    1.1190   28.4650   19.0880 C   0  0  2  0  0  0  0  0  0  0  0  0
    1.1730   27.3370   18.2170 O   0  0  0  0  0  0  0  0  0  0  0  0
   -0.0420   28.2640   20.0720 C   0  0  0  0  0  0  0  0  0  0  0  0
   -1.1490   29.0990   19.4320 C   0  0  1  0  0  0  0  0  0  0  0  0
   -2.4940   29.1780   20.1750 C   0  0  0  0  0  0  0  0  0  0  0  0
   -2.5350   29.3000   21.4000 O   0  0  0  0  0  0  0  0  0  0  0  0
   -3.6230   29.0060   19.4130 N   0  0  0  0  0  0  0  0  0  0  0  0
   -4.9470   29.0720   19.9880 C   0  0  0  0  0  0  0  0  0  0  0  0
   -5.5590   30.4280   19.7540 C   0  0  0  0  0  0  0  0  0  0  0  0
   -5.6310   30.9670   18.4630 C   0  0  0  0  0  0  0  0  0  0  0  0
   -6.1780   32.2370   18.2550 C   0  0  0  0  0  0  0  0  0  0  0  0
   -6.6520   32.9950   19.3330 C   0  0  0  0  0  0  0  0  0  0  0  0
   -7.2310   34.3170   19.1020 C   0  0  0  0  0  0  0  0  0  0  0  0
   -6.2090   35.6840   18.8890 S   0  0  0  0  0  0  0  0  0  0  0  0
   -7.5920   36.6680   18.6700 C   0  0  0  0  0  0  0  0  0  0  0  0
   -8.7540   36.0610   18.7430 N   0  0  0  0  0  0  0  0  0  0  0  0
   -8.5590   34.7100   18.9950 C   0  0  0  0  0  0  0  0  0  0  0  0
   -9.7610   33.8430   19.1260 C   0  0  0  0  0  0  0  0  0  0  0  0
   -6.5690   32.4610   20.6250 C   0  0  0  0  0  0  0  0  0  0  0  0
   -6.0230   31.1900   20.8340 C   0  0  0  0  0  0  0  0  0  0  0  0
    1.4890   34.1875   20.1714 H   0  0  0  0  0  0  0  0  0  0  0  0
    2.7553   34.6754   18.9944 H   0  0  0  0  0  0  0  0  0  0  0  0
    1.1618   35.5044   18.9944 H   0  0  0  0  0  0  0  0  0  0  0  0
   -1.0248   34.2005   16.5673 H   0  0  0  0  0  0  0  0  0  0  0  0
   -1.1502   32.4535   16.4982 H   0  0  0  0  0  0  0  0  0  0  0  0
   -3.3638   33.0742   17.3552 H   0  0  0  0  0  0  0  0  0  0  0  0
   -2.7470   35.3080   17.5380 H   0  0  0  0  0  0  0  0  0  0  0  0
   -2.8772   32.9055   20.0362 H   0  0  0  0  0  0  0  0  0  0  0  0
   -2.5527   31.4948   19.0363 H   0  0  0  0  0  0  0  0  0  0  0  0
   -0.5763   33.3878   20.3376 H   0  0  0  0  0  0  0  0  0  0  0  0
    0.5570   29.5058   17.2479 H   0  0  0  0  0  0  0  0  0  0  0  0
    1.5920   30.4711   18.3092 H   0  0  0  0  0  0  0  0  0  0  0  0
    2.0972   28.5604   19.5821 H   0  0  0  0  0  0  0  0  0  0  0  0
    1.9280   26.7890   18.4940 H   0  0  0  0  0  0  0  0  0  0  0  0
   -0.3293   27.2044   20.1401 H   0  0  0  0  0  0  0  0  0  0  0  0
    0.1957   28.5595   21.1046 H   0  0  0  0  0  0  0  0  0  0  0  0
   -1.6544   28.6292   18.5753 H   0  0  0  0  0  0  0  0  0  0  0  0
   -3.5530   28.4870   18.5400 H   0  0  0  0  0  0  0  0  0  0  0  0
   -5.5819   28.3036   19.5229 H   0  0  0  0  0  0  0  0  0  0  0  0
   -4.8723   28.8987   21.0717 H   0  0  0  0  0  0  0  0  0  0  0  0
   -5.2547   30.3873   17.6072 H   0  0  0  0  0  0  0  0  0  0  0  0
   -6.2365   32.6445   17.2350 H   0  0  0  0  0  0  0  0  0  0  0  0
   -7.5119   37.7483   18.4788 H   0  0  0  0  0  0  0  0  0  0  0  0
   -9.9832   33.6828   20.1913 H   0  0  0  0  0  0  0  0  0  0  0  0
  -10.6197   34.3310   18.6418 H   0  0  0  0  0  0  0  0  0  0  0  0
   -9.5688   32.8742   18.6418 H   0  0  0  0  0  0  0  0  0  0  0  0
   -6.9358   33.0452   21.4818 H   0  0  0  0  0  0  0  0  0  0  0  0
   -5.9575   30.7856   21.8549 H   0  0  0  0  0  0  0  0  0  0  0  0
  1  2  1  0
  2  3  2  0
  2  4  1  0
  4  5  1  0
  5  6  1  0
  6  7  1  0
  6  8  1  0
  8  9  1  0
  9 10  1  0
 10 11  2  0
 10 12  1  0
 12 13  1  0
 13 14  1  0
 14 15  1  0
 14 16  1  0
 16 17  1  0
 17 18  1  0
 18 19  2  0
 18 20  1  0
 20 21  1  0
 21 22  1  0
 22 23  2  0
 23 24  1  0
 24 25  2  0
 25 26  1  0
 26 27  1  0
 27 28  1  0
 28 29  2  0
 29 30  1  0
 30 31  1  0
 25 32  1  0
 32 33  2  0
  9  4  1  0
 17 12  1  0
 33 22  1  0
 30 26  2  0
  1 34  1  0
  1 35  1  0
  1 36  1  0
  5 37  1  0
  5 38  1  0
  6 39  1  6
  7 40  1  0
  8 41  1  0
  8 42  1  0
  9 43  1  1
 13 44  1  0
 13 45  1  0
 14 46  1  1
 15 47  1  0
 16 48  1  0
 16 49  1  0
 17 50  1  6
 20 51  1  0
 21 52  1  0
 21 53  1  0
 23 54  1  0
 24 55  1  0
 28 56  1  0
 31 57  1  0
 31 58  1  0
 31 59  1  0
 32 60  1  0
 33 61  1  0
M  END
>  <meeko>  (3) 
{"is_sidechain": [false], "free_energy": -5.609, "intermolecular_energy": -7.669, "internal_energy": -1.976}

$$$$
4w9i_ligand
     RDKit          3D

 61 64  0  0  0  0  0  0  0  0999 V2000
   -1.1490   33.5350   15.5720 C   0  0  0  0  0  0  0  0  0  0  0  0
   -0.0610   32.8840   16.3870 C   0  0  0  0  0  0  0  0  0  0  0  0
    0.6640   32.0130   15.9020 O   0  0  0  0  0  0  0  0  0  0  0  0
    0.0840   33.3200   17.6820 N   0  0  0  0  0  0  0  0  0  0  0  0
   -0.0080   34.6880   18.1700 C   0  0  0  0  0  0  0  0  0  0  0  0
    0.7640   34.6460   19.4840 C   0  0  2  0  0  0  0  0  0  0  0  0
    2.1640   34.7950   19.2450 O   0  0  0  0  0  0  0  0  0  0  0  0
    0.4770   33.2510   20.0310 C   0  0  0  0  0  0  0  0  0  0  0  0
    0.3260   32.3770   18.7780 C   0  0  1  0  0  0  0  0  0  0  0  0
   -0.8830   31.4360   18.9610 C   0  0  0  0  0  0  0  0  0  0  0  0
   -2.0100   31.8860   19.1950 O   0  0  0  0  0  0  0  0  0  0  0  0
   -0.6060   30.0600   19.0100 N   0  0  0  0  0  0  0  0  0  0  0  0
    0.8230   29.7430   18.9700 C   0  0  0  0  0  0  0  0  0  0  0  0
    1.2350   29.4840   20.4380 C   0  0  2  0  0  0  0  0  0  0  0  0
    1.8160   28.1900   20.5780 O   0  0  0  0  0  0  0  0  0  0  0  0
   -0.0780   29.5170   21.2330 C   0  0  0  0  0  0  0  0  0  0  0  0
   -1.1180   29.2740   20.1420 C   0  0  1  0  0  0  0  0  0  0  0  0
   -2.5980   29.2790   20.5610 C   0  0  0  0  0  0  0  0  0  0  0  0
   -2.9220   29.4070   21.7420 O   0  0  0  0  0  0  0  0  0  0  0  0
   -3.5140   29.0350   19.5680 N   0  0  0  0  0  0  0  0  0  0  0  0
   -4.9360   29.0280   19.8280 C   0  0  0  0  0  0  0  0  0  0  0  0
   -5.5170   30.4030   19.6370 C   0  0  0  0  0  0  0  0  0  0  0  0
   -5.9920   31.1380   20.7310 C   0  0  0  0  0  0  0  0  0  0  0  0
   -6.5520   32.4050   20.5450 C   0  0  0  0  0  0  0  0  0  0  0  0
   -6.6590   32.9570   19.2620 C   0  0  0  0  0  0  0  0  0  0  0  0
   -7.2370   34.2870   19.0800 C   0  0  0  0  0  0  0  0  0  0  0  0
   -6.2160   35.6490   18.8390 S   0  0  0  0  0  0  0  0  0  0  0  0
   -7.5990   36.6470   18.7010 C   0  0  0  0  0  0  0  0  0  0  0  0
   -8.7610   36.0470   18.8200 N   0  0  0  0  0  0  0  0  0  0  0  0
   -8.5660   34.6910   19.0420 C   0  0  0  0  0  0  0  0  0  0  0  0
   -9.7670   33.8310   19.2170 C   0  0  0  0  0  0  0  0  0  0  0  0
   -6.1940   32.2170   18.1670 C   0  0  0  0  0  0  0  0  0  0  0  0
   -5.6320   30.9500   18.3530 C   0  0  0  0  0  0  0  0  0  0  0  0
   -1.8949   33.9813   16.2461 H   0  0  0  0  0  0  0  0  0  0  0  0
   -0.7119   34.3201   14.9375 H   0  0  0  0  0  0  0  0  0  0  0  0
   -1.6342   32.7787   14.9375 H   0  0  0  0  0  0  0  0  0  0  0  0
    0.4567   35.3905   17.4625 H   0  0  0  0  0  0  0  0  0  0  0  0
   -1.0457   35.0320   18.2919 H   0  0  0  0  0  0  0  0  0  0  0  0
    0.4700   35.4508   20.1738 H   0  0  0  0  0  0  0  0  0  0  0  0
    2.5990   34.9860   20.0950 H   0  0  0  0  0  0  0  0  0  0  0  0
    1.3114   32.8975   20.6546 H   0  0  0  0  0  0  0  0  0  0  0  0
   -0.4169   33.2260   20.6715 H   0  0  0  0  0  0  0  0  0  0  0  0
    1.2093   31.7509   18.5836 H   0  0  0  0  0  0  0  0  0  0  0  0
    1.0000   28.8463   18.3580 H   0  0  0  0  0  0  0  0  0  0  0  0
    1.4079   30.5599   18.5221 H   0  0  0  0  0  0  0  0  0  0  0  0
    1.9714   30.2254   20.7816 H   0  0  0  0  0  0  0  0  0  0  0  0
    2.6220   28.1700   20.0320 H   0  0  0  0  0  0  0  0  0  0  0  0
   -0.1043   28.7230   21.9938 H   0  0  0  0  0  0  0  0  0  0  0  0
   -0.2334   30.4511   21.7927 H   0  0  0  0  0  0  0  0  0  0  0  0
   -1.2189   28.2282   19.8164 H   0  0  0  0  0  0  0  0  0  0  0  0
   -3.2200   28.5150   18.7430 H   0  0  0  0  0  0  0  0  0  0  0  0
   -5.4266   28.3289   19.1348 H   0  0  0  0  0  0  0  0  0  0  0  0
   -5.1043   28.7137   20.8686 H   0  0  0  0  0  0  0  0  0  0  0  0
   -5.9237   30.7148   21.7440 H   0  0  0  0  0  0  0  0  0  0  0  0
   -6.9122   32.9742   21.4146 H   0  0  0  0  0  0  0  0  0  0  0  0
   -7.5193   37.7295   18.5228 H   0  0  0  0  0  0  0  0  0  0  0  0
   -9.9638   33.6900   20.2900 H   0  0  0  0  0  0  0  0  0  0  0  0
  -10.6355   34.3137   18.7452 H   0  0  0  0  0  0  0  0  0  0  0  0
   -9.5898   32.8533   18.7452 H   0  0  0  0  0  0  0  0  0  0  0  0
   -6.2716   32.6359   17.1529 H   0  0  0  0  0  0  0  0  0  0  0  0
   -5.2771   30.3780   17.4830 H   0  0  0  0  0  0  0  0  0  0  0  0
  1  2  1  0
  2  3  2  0
  2  4  1  0
  4  5  1  0
  5  6  1  0
  6  7  1  0
  6  8  1  0
  8  9  1  0
  9 10  1  0
 10 11  2  0
 10 12  1  0
 12 13  1  0
 13 14  1  0
 14 15  1  0
 14 16  1  0
 16 17  1  0
 17 18  1  0
 18 19  2  0
 18 20  1  0
 20 21  1  0
 21 22  1  0
 22 23  2  0
 23 24  1  0
 24 25  2  0
 25 26  1  0
 26 27  1  0
 27 28  1  0
 28 29  2  0
 29 30  1  0
 30 31  1  0
 25 32  1  0
 32 33  2  0
  9  4  1  0
 17 12  1  0
 33 22  1  0
 30 26  2  0
  1 34  1  0
  1 35  1  0
  1 36  1  0
  5 37  1  0
  5 38  1  0
  6 39  1  1
  7 40  1  0
  8 41  1  0
  8 42  1  0
  9 43  1  6
 13 44  1  0
 13 45  1  0
 14 46  1  1
 15 47  1  0
 16 48  1  0
 16 49  1  0
 17 50  1  6
 20 51  1  0
 21 52  1  0
 21 53  1  0
 23 54  1  0
 24 55  1  0
 28 56  1  0
 31 57  1  0
 31 58  1  0
 31 59  1  0
 32 60  1  0
 33 61  1  0
M  END
>  <meeko>  (4) 
{"is_sidechain": [false], "free_energy": -5.502, "intermolecular_energy": -7.698, "internal_energy": -1.789}

$$$$
4w9i_ligand
     RDKit          3D

 61 64  0  0  0  0  0  0  0  0999 V2000
   -8.0930   27.1630   24.7710 C   0  0  0  0  0  0  0  0  0  0  0  0
   -6.6690   27.6460   24.6880 C   0  0  0  0  0  0  0  0  0  0  0  0
   -6.1530   28.2740   25.6140 O   0  0  0  0  0  0  0  0  0  0  0  0
   -5.9790   27.3380   23.5390 N   0  0  0  0  0  0  0  0  0  0  0  0
   -5.4920   28.2620   22.5270 C   0  0  0  0  0  0  0  0  0  0  0  0
   -5.3370   27.3810   21.2910 C   0  0  2  0  0  0  0  0  0  0  0  0
   -6.5860   27.2510   20.6110 O   0  0  0  0  0  0  0  0  0  0  0  0
   -4.9110   26.0300   21.8570 C   0  0  0  0  0  0  0  0  0  0  0  0
   -5.6110   25.9540   23.2220 C   0  0  1  0  0  0  0  0  0  0  0  0
   -4.6200   25.4030   24.2680 C   0  0  0  0  0  0  0  0  0  0  0  0
   -3.5310   25.9520   24.4640 O   0  0  0  0  0  0  0  0  0  0  0  0
   -4.9490   24.1700   24.8540 N   0  0  0  0  0  0  0  0  0  0  0  0
   -6.3630   23.8140   24.7290 C   0  0  0  0  0  0  0  0  0  0  0  0
   -6.4430   22.8290   23.5400 C   0  0  2  0  0  0  0  0  0  0  0  0
   -7.0420   21.5990   23.9410 O   0  0  0  0  0  0  0  0  0  0  0  0
   -4.9830   22.5550   23.1490 C   0  0  0  0  0  0  0  0  0  0  0  0
   -4.2330   22.9630   24.4150 C   0  0  1  0  0  0  0  0  0  0  0  0
   -2.6980   22.8650   24.3910 C   0  0  0  0  0  0  0  0  0  0  0  0
   -2.0690   22.5160   25.3900 O   0  0  0  0  0  0  0  0  0  0  0  0
   -2.0790   23.2820   23.2390 N   0  0  0  0  0  0  0  0  0  0  0  0
   -0.6430   23.2280   23.0830 C   0  0  0  0  0  0  0  0  0  0  0  0
   -0.1660   24.3330   22.1790 C   0  0  0  0  0  0  0  0  0  0  0  0
   -0.7260   25.6150   22.2590 C   0  0  0  0  0  0  0  0  0  0  0  0
   -0.2960   26.6310   21.4000 C   0  0  0  0  0  0  0  0  0  0  0  0
    0.6920   26.3830   20.4400 C   0  0  0  0  0  0  0  0  0  0  0  0
    1.1410   27.4550   19.5540 C   0  0  0  0  0  0  0  0  0  0  0  0
    0.0090   28.2960   18.5700 S   0  0  0  0  0  0  0  0  0  0  0  0
    1.2760   29.2780   17.9710 C   0  0  0  0  0  0  0  0  0  0  0  0
    2.4750   29.0290   18.4440 N   0  0  0  0  0  0  0  0  0  0  0  0
    2.4110   27.9820   19.3520 C   0  0  0  0  0  0  0  0  0  0  0  0
    3.6760   27.5370   19.9970 C   0  0  0  0  0  0  0  0  0  0  0  0
    1.2440   25.0980   20.3520 C   0  0  0  0  0  0  0  0  0  0  0  0
    0.8160   24.0810   21.2110 C   0  0  0  0  0  0  0  0  0  0  0  0
   -8.3856   27.0638   25.8267 H   0  0  0  0  0  0  0  0  0  0  0  0
   -8.7553   27.8868   24.2735 H   0  0  0  0  0  0  0  0  0  0  0  0
   -8.1783   26.1857   24.2735 H   0  0  0  0  0  0  0  0  0  0  0  0
   -6.2185   29.0682   22.3474 H   0  0  0  0  0  0  0  0  0  0  0  0
   -4.5572   28.7639   22.8172 H   0  0  0  0  0  0  0  0  0  0  0  0
   -4.6196   27.7919   20.5654 H   0  0  0  0  0  0  0  0  0  0  0  0
   -6.6940   28.0200   20.0230 H   0  0  0  0  0  0  0  0  0  0  0  0
   -5.2432   25.2108   21.2024 H   0  0  0  0  0  0  0  0  0  0  0  0
   -3.8183   25.9337   21.9386 H   0  0  0  0  0  0  0  0  0  0  0  0
   -6.4908   25.2937   23.2163 H   0  0  0  0  0  0  0  0  0  0  0  0
   -6.7201   23.3320   25.6510 H   0  0  0  0  0  0  0  0  0  0  0  0
   -6.9920   24.7013   24.5642 H   0  0  0  0  0  0  0  0  0  0  0  0
   -7.0439   23.2461   22.7185 H   0  0  0  0  0  0  0  0  0  0  0  0
   -7.4920   21.7570   24.7900 H   0  0  0  0  0  0  0  0  0  0  0  0
   -4.8246   21.4917   22.9158 H   0  0  0  0  0  0  0  0  0  0  0  0
   -4.6568   23.0940   22.2473 H   0  0  0  0  0  0  0  0  0  0  0  0
   -4.2626   22.2287   25.2335 H   0  0  0  0  0  0  0  0  0  0  0  0
   -2.5560   23.9500   22.6360 H   0  0  0  0  0  0  0  0  0  0  0  0
   -0.1679   23.3373   24.0691 H   0  0  0  0  0  0  0  0  0  0  0  0
   -0.3713   22.2610   22.6346 H   0  0  0  0  0  0  0  0  0  0  0  0
   -1.5092   25.8235   23.0027 H   0  0  0  0  0  0  0  0  0  0  0  0
   -0.7385   27.6350   21.4794 H   0  0  0  0  0  0  0  0  0  0  0  0
    1.0960   30.0725   17.2318 H   0  0  0  0  0  0  0  0  0  0  0  0
    3.5636   27.5765   21.0905 H   0  0  0  0  0  0  0  0  0  0  0  0
    3.9017   26.5055   19.6886 H   0  0  0  0  0  0  0  0  0  0  0  0
    4.4978   28.2000   19.6886 H   0  0  0  0  0  0  0  0  0  0  0  0
    2.0201   24.8877   19.6013 H   0  0  0  0  0  0  0  0  0  0  0  0
    1.2534   23.0753   21.1264 H   0  0  0  0  0  0  0  0  0  0  0  0
  1  2  1  0
  2  3  2  0
  2  4  1  0
  4  5  1  0
  5  6  1  0
  6  7  1  0
  6  8  1  0
  8  9  1  0
  9 10  1  0
 10 11  2  0
 10 12  1  0
 12 13  1  0
 13 14  1  0
 14 15  1  0
 14 16  1  0
 16 17  1  0
 17 18  1  0
 18 19  2  0
 18 20  1  0
 20 21  1  0
 21 22  1  0
 22 23  2  0
 23 24  1  0
 24 25  2  0
 25 26  1  0
 26 27  1  0
 27 28  1  0
 28 29  2  0
 29 30  1  0
 30 31  1  0
 25 32  1  0
 32 33  2  0
  9  4  1  0
 17 12  1  0
 33 22  1  0
 30 26  2  0
  1 34  1  0
  1 35  1  0
  1 36  1  0
  5 37  1  0
  5 38  1  0
  6 39  1  6
  7 40  1  0
  8 41  1  0
  8 42  1  0
  9 43  1  6
 13 44  1  0
 13 45  1  0
 14 46  1  6
 15 47  1  0
 16 48  1  0
 16 49  1  0
 17 50  1  1
 20 51  1  0
 21 52  1  0
 21 53  1  0
 23 54  1  0
 24 55  1  0
 28 56  1  0
 31 57  1  0
 31 58  1  0
 31 59  1  0
 32 60  1  0
 33 61  1  0
M  END
>  <meeko>  (5) 
{"is_sidechain": [false], "free_energy": -5.498, "intermolecular_energy": -7.988, "internal_energy": -1.493}

$$$$
4w9i_ligand
     RDKit          3D

 61 64  0  0  0  0  0  0  0  0999 V2000
   -2.2850   21.5830   22.8860 C   0  0  0  0  0  0  0  0  0  0  0  0
   -2.7620   22.4680   24.0080 C   0  0  0  0  0  0  0  0  0  0  0  0
   -2.0010   22.8200   24.9110 O   0  0  0  0  0  0  0  0  0  0  0  0
   -4.0770   22.8670   23.9620 N   0  0  0  0  0  0  0  0  0  0  0  0
   -5.1200   22.5840   24.9350 C   0  0  0  0  0  0  0  0  0  0  0  0
   -6.4060   22.7600   24.1340 C   0  0  2  0  0  0  0  0  0  0  0  0
   -6.7130   21.5650   23.4150 O   0  0  0  0  0  0  0  0  0  0  0  0
   -6.0760   23.8830   23.1560 C   0  0  0  0  0  0  0  0  0  0  0  0
   -4.5780   23.7070   22.8700 C   0  0  1  0  0  0  0  0  0  0  0  0
   -3.8930   25.0900   22.8910 C   0  0  0  0  0  0  0  0  0  0  0  0
   -2.7410   25.2370   22.4710 O   0  0  0  0  0  0  0  0  0  0  0  0
   -4.5800   26.1190   23.5550 N   0  0  0  0  0  0  0  0  0  0  0  0
   -4.0910   26.3800   24.9090 C   0  0  0  0  0  0  0  0  0  0  0  0
   -3.1580   27.6070   24.7890 C   0  0  2  0  0  0  0  0  0  0  0  0
   -3.5880   28.6550   25.6550 O   0  0  0  0  0  0  0  0  0  0  0  0
   -3.3100   28.0830   23.3370 C   0  0  0  0  0  0  0  0  0  0  0  0
   -4.6390   27.4490   22.9310 C   0  0  1  0  0  0  0  0  0  0  0  0
   -5.1190   27.6740   21.4870 C   0  0  0  0  0  0  0  0  0  0  0  0
   -5.9220   26.9050   20.9590 O   0  0  0  0  0  0  0  0  0  0  0  0
   -4.5280   28.7080   20.8030 N   0  0  0  0  0  0  0  0  0  0  0  0
   -4.9000   29.0320   19.4440 C   0  0  0  0  0  0  0  0  0  0  0  0
   -5.5120   30.4060   19.3760 C   0  0  0  0  0  0  0  0  0  0  0  0
   -6.0400   31.0120   20.5240 C   0  0  0  0  0  0  0  0  0  0  0  0
   -6.6290   32.2780   20.4510 C   0  0  0  0  0  0  0  0  0  0  0  0
   -6.7120   32.9560   19.2290 C   0  0  0  0  0  0  0  0  0  0  0  0
   -7.3210   34.2840   19.1650 C   0  0  0  0  0  0  0  0  0  0  0  0
   -6.3300   35.6880   19.1150 S   0  0  0  0  0  0  0  0  0  0  0  0
   -7.7350   36.6610   19.0250 C   0  0  0  0  0  0  0  0  0  0  0  0
   -8.8830   36.0240   19.0310 N   0  0  0  0  0  0  0  0  0  0  0  0
   -8.6570   34.6570   19.1140 C   0  0  0  0  0  0  0  0  0  0  0  0
   -9.8400   33.7550   19.1450 C   0  0  0  0  0  0  0  0  0  0  0  0
   -6.1950   32.3450   18.0790 C   0  0  0  0  0  0  0  0  0  0  0  0
   -5.6040   31.0800   18.1520 C   0  0  0  0  0  0  0  0  0  0  0  0
   -1.8024   20.6877   23.3050 H   0  0  0  0  0  0  0  0  0  0  0  0
   -3.1428   21.2814   22.2669 H   0  0  0  0  0  0  0  0  0  0  0  0
   -1.5615   22.1337   22.2669 H   0  0  0  0  0  0  0  0  0  0  0  0
   -5.0325   21.5568   25.3187 H   0  0  0  0  0  0  0  0  0  0  0  0
   -5.0716   23.2365   25.8193 H   0  0  0  0  0  0  0  0  0  0  0  0
   -7.2747   22.9821   24.7712 H   0  0  0  0  0  0  0  0  0  0  0  0
   -6.1400   20.8520   23.7500 H   0  0  0  0  0  0  0  0  0  0  0  0
   -6.6640   23.7807   22.2320 H   0  0  0  0  0  0  0  0  0  0  0  0
   -6.3129   24.8776   23.5618 H   0  0  0  0  0  0  0  0  0  0  0  0
   -4.3803   23.2522   21.8881 H   0  0  0  0  0  0  0  0  0  0  0  0
   -4.9309   26.6017   25.5838 H   0  0  0  0  0  0  0  0  0  0  0  0
   -3.5636   25.5087   25.3246 H   0  0  0  0  0  0  0  0  0  0  0  0
   -2.1232   27.3479   25.0576 H   0  0  0  0  0  0  0  0  0  0  0  0
   -4.2310   29.1950   25.1640 H   0  0  0  0  0  0  0  0  0  0  0  0
   -3.3568   29.1805   23.2792 H   0  0  0  0  0  0  0  0  0  0  0  0
   -2.4680   27.8008   22.6879 H   0  0  0  0  0  0  0  0  0  0  0  0
   -5.5366   27.9640   23.3039 H   0  0  0  0  0  0  0  0  0  0  0  0
   -3.6020   29.0220   21.0860 H   0  0  0  0  0  0  0  0  0  0  0  0
   -4.0036   29.0035   18.8071 H   0  0  0  0  0  0  0  0  0  0  0  0
   -5.6391   28.2966   19.0934 H   0  0  0  0  0  0  0  0  0  0  0  0
   -5.9907   30.4877   21.4898 H   0  0  0  0  0  0  0  0  0  0  0  0
   -7.0308   32.7455   21.3620 H   0  0  0  0  0  0  0  0  0  0  0  0
   -7.6794   37.7580   18.9655 H   0  0  0  0  0  0  0  0  0  0  0  0
  -10.1143   33.5458   20.1895 H   0  0  0  0  0  0  0  0  0  0  0  0
  -10.6847   34.2404   18.6342 H   0  0  0  0  0  0  0  0  0  0  0  0
   -9.5955   32.8120   18.6342 H   0  0  0  0  0  0  0  0  0  0  0  0
   -6.2545   32.8646   17.1113 H   0  0  0  0  0  0  0  0  0  0  0  0
   -5.2078   30.6100   17.2398 H   0  0  0  0  0  0  0  0  0  0  0  0
  1  2  1  0
  2  3  2  0
  2  4  1  0
  4  5  1  0
  5  6  1  0
  6  7  1  0
  6  8  1  0
  8  9  1  0
  9 10  1  0
 10 11  2  0
 10 12  1  0
 12 13  1  0
 13 14  1  0
 14 15  1  0
 14 16  1  0
 16 17  1  0
 17 18  1  0
 18 19  2  0
 18 20  1  0
 20 21  1  0
 21 22  1  0
 22 23  2  0
 23 24  1  0
 24 25  2  0
 25 26  1  0
 26 27  1  0
 27 28  1  0
 28 29  2  0
 29 30  1  0
 30 31  1  0
 25 32  1  0
 32 33  2  0
  9  4  1  0
 17 12  1  0
 33 22  1  0
 30 26  2  0
  1 34  1  0
  1 35  1  0
  1 36  1  0
  5 37  1  0
  5 38  1  0
  6 39  1  1
  7 40  1  0
  8 41  1  0
  8 42  1  0
  9 43  1  6
 13 44  1  0
 13 45  1  0
 14 46  1  1
 15 47  1  0
 16 48  1  0
 16 49  1  0
 17 50  1  1
 20 51  1  0
 21 52  1  0
 21 53  1  0
 23 54  1  0
 24 55  1  0
 28 56  1  0
 31 57  1  0
 31 58  1  0
 31 59  1  0
 32 60  1  0
 33 61  1  0
M  END
>  <meeko>  (6) 
{"is_sidechain": [false], "free_energy": -5.386, "intermolecular_energy": -8.301, "internal_energy": -1.016}

$$$$
4w9i_ligand
     RDKit          3D

 61 64  0  0  0  0  0  0  0  0999 V2000
   -6.7830   32.8440   22.5010 C   0  0  0  0  0  0  0  0  0  0  0  0
   -5.5380   33.0190   21.6720 C   0  0  0  0  0  0  0  0  0  0  0  0
   -4.5760   33.6650   22.0930 O   0  0  0  0  0  0  0  0  0  0  0  0
   -5.5280   32.4150   20.4370 N   0  0  0  0  0  0  0  0  0  0  0  0
   -5.3160   33.0480   19.1450 C   0  0  0  0  0  0  0  0  0  0  0  0
   -5.9530   32.0690   18.1640 C   0  0  2  0  0  0  0  0  0  0  0  0
   -7.3600   32.2960   18.0750 O   0  0  0  0  0  0  0  0  0  0  0  0
   -5.6860   30.7020   18.7870 C   0  0  0  0  0  0  0  0  0  0  0  0
   -5.7080   30.9660   20.3000 C   0  0  1  0  0  0  0  0  0  0  0  0
   -4.5370   30.2090   20.9620 C   0  0  0  0  0  0  0  0  0  0  0  0
   -3.4180   30.1860   20.4400 O   0  0  0  0  0  0  0  0  0  0  0  0
   -4.8520   29.4260   22.0840 N   0  0  0  0  0  0  0  0  0  0  0  0
   -6.2680   29.0660   22.1770 C   0  0  0  0  0  0  0  0  0  0  0  0
   -6.3710   27.6260   21.6250 C   0  0  2  0  0  0  0  0  0  0  0  0
   -6.9610   26.7570   22.5900 O   0  0  0  0  0  0  0  0  0  0  0  0
   -4.9200   27.1820   21.3920 C   0  0  0  0  0  0  0  0  0  0  0  0
   -4.1440   28.1520   22.2800 C   0  0  1  0  0  0  0  0  0  0  0  0
   -2.6100   28.0400   22.2770 C   0  0  0  0  0  0  0  0  0  0  0  0
   -1.9420   28.4510   23.2270 O   0  0  0  0  0  0  0  0  0  0  0  0
   -2.0350   27.5560   21.1280 N   0  0  0  0  0  0  0  0  0  0  0  0
   -0.6050   27.3900   21.0030 C   0  0  0  0  0  0  0  0  0  0  0  0
   -0.0370   28.3970   20.0380 C   0  0  0  0  0  0  0  0  0  0  0  0
    0.4430   27.9950   18.7850 C   0  0  0  0  0  0  0  0  0  0  0  0
    0.9910   28.9310   17.9020 C   0  0  0  0  0  0  0  0  0  0  0  0
    1.0810   30.2820   18.2600 C   0  0  0  0  0  0  0  0  0  0  0  0
    1.6470   31.2530   17.3260 C   0  0  0  0  0  0  0  0  0  0  0  0
    0.6480   31.9970   16.1410 S   0  0  0  0  0  0  0  0  0  0  0  0
    1.9930   32.9010   15.5920 C   0  0  0  0  0  0  0  0  0  0  0  0
    3.1270   32.6930   16.2200 N   0  0  0  0  0  0  0  0  0  0  0  0
    2.9410   31.7460   17.2170 C   0  0  0  0  0  0  0  0  0  0  0  0
    4.1180   31.3590   18.0420 C   0  0  0  0  0  0  0  0  0  0  0  0
    0.6120   30.6810   19.5180 C   0  0  0  0  0  0  0  0  0  0  0  0
    0.0620   29.7460   20.4010 C   0  0  0  0  0  0  0  0  0  0  0  0
   -6.5208   32.8809   23.5687 H   0  0  0  0  0  0  0  0  0  0  0  0
   -7.4938   33.6511   22.2699 H   0  0  0  0  0  0  0  0  0  0  0  0
   -7.2438   31.8723   22.2699 H   0  0  0  0  0  0  0  0  0  0  0  0
   -5.8123   34.0287   19.1008 H   0  0  0  0  0  0  0  0  0  0  0  0
   -4.2547   33.2421   18.9305 H   0  0  0  0  0  0  0  0  0  0  0  0
   -5.5487   32.1669   17.1457 H   0  0  0  0  0  0  0  0  0  0  0  0
   -7.5150   32.9800   17.4000 H   0  0  0  0  0  0  0  0  0  0  0  0
   -6.4708   29.9848   18.5048 H   0  0  0  0  0  0  0  0  0  0  0  0
   -4.7350   30.2640   18.4497 H   0  0  0  0  0  0  0  0  0  0  0  0
   -6.6380   30.6278   20.7804 H   0  0  0  0  0  0  0  0  0  0  0  0
   -6.6045   29.1004   23.2237 H   0  0  0  0  0  0  0  0  0  0  0  0
   -6.9022   29.7640   21.6108 H   0  0  0  0  0  0  0  0  0  0  0  0
   -6.9881   27.5917   20.7151 H   0  0  0  0  0  0  0  0  0  0  0  0
   -6.2370   26.3430   23.0910 H   0  0  0  0  0  0  0  0  0  0  0  0
   -4.7654   26.1398   21.7082 H   0  0  0  0  0  0  0  0  0  0  0  0
   -4.6133   27.2058   20.3359 H   0  0  0  0  0  0  0  0  0  0  0  0
   -4.1556   27.9149   23.3541 H   0  0  0  0  0  0  0  0  0  0  0  0
   -2.5410   27.6470   20.2480 H   0  0  0  0  0  0  0  0  0  0  0  0
   -0.1372   27.5301   21.9887 H   0  0  0  0  0  0  0  0  0  0  0  0
   -0.3972   26.3787   20.6235 H   0  0  0  0  0  0  0  0  0  0  0  0
    0.3886   26.9357   18.4934 H   0  0  0  0  0  0  0  0  0  0  0  0
    1.3547   28.6030   16.9171 H   0  0  0  0  0  0  0  0  0  0  0  0
    1.9121   33.6160   14.7600 H   0  0  0  0  0  0  0  0  0  0  0  0
    3.8619   31.4432   19.1084 H   0  0  0  0  0  0  0  0  0  0  0  0
    4.4004   30.3207   17.8136 H   0  0  0  0  0  0  0  0  0  0  0  0
    4.9615   32.0271   17.8136 H   0  0  0  0  0  0  0  0  0  0  0  0
    0.6767   31.7384   19.8140 H   0  0  0  0  0  0  0  0  0  0  0  0
   -0.2957   30.0729   21.3885 H   0  0  0  0  0  0  0  0  0  0  0  0
  1  2  1  0
  2  3  2  0
  2  4  1  0
  4  5  1  0
  5  6  1  0
  6  7  1  0
  6  8  1  0
  8  9  1  0
  9 10  1  0
 10 11  2  0
 10 12  1  0
 12 13  1  0
 13 14  1  0
 14 15  1  0
 14 16  1  0
 16 17  1  0
 17 18  1  0
 18 19  2  0
 18 20  1  0
 20 21  1  0
 21 22  1  0
 22 23  2  0
 23 24  1  0
 24 25  2  0
 25 26  1  0
 26 27  1  0
 27 28  1  0
 28 29  2  0
 29 30  1  0
 30 31  1  0
 25 32  1  0
 32 33  2  0
  9  4  1  0
 17 12  1  0
 33 22  1  0
 30 26  2  0
  1 34  1  0
  1 35  1  0
  1 36  1  0
  5 37  1  0
  5 38  1  0
  6 39  1  6
  7 40  1  0
  8 41  1  0
  8 42  1  0
  9 43  1  1
 13 44  1  0
 13 45  1  0
 14 46  1  6
 15 47  1  0
 16 48  1  0
 16 49  1  0
 17 50  1  1
 20 51  1  0
 21 52  1  0
 21 53  1  0
 23 54  1  0
 24 55  1  0
 28 56  1  0
 31 57  1  0
 31 58  1  0
 31 59  1  0
 32 60  1  0
 33 61  1  0
M  END
>  <meeko>  (7) 
{"is_sidechain": [false], "free_energy": -5.384, "intermolecular_energy": -7.513, "internal_energy": -1.801}

$$$$
4w9i_ligand
     RDKit          3D

 61 64  0  0  0  0  0  0  0  0999 V2000
   -2.9440   33.1810   18.0580 C   0  0  0  0  0  0  0  0  0  0  0  0
   -3.2430   32.8230   19.4900 C   0  0  0  0  0  0  0  0  0  0  0  0
   -2.8920   33.5550   20.4170 O   0  0  0  0  0  0  0  0  0  0  0  0
   -3.9320   31.6530   19.7030 N   0  0  0  0  0  0  0  0  0  0  0  0
   -3.5640   30.5580   20.5870 C   0  0  0  0  0  0  0  0  0  0  0  0
   -4.3310   29.3700   20.0140 C   0  0  2  0  0  0  0  0  0  0  0  0
   -3.6050   28.7810   18.9350 O   0  0  0  0  0  0  0  0  0  0  0  0
   -5.6240   29.9880   19.4930 C   0  0  0  0  0  0  0  0  0  0  0  0
   -5.2150   31.3960   19.0390 C   0  0  1  0  0  0  0  0  0  0  0  0
   -6.2810   32.4080   19.5090 C   0  0  0  0  0  0  0  0  0  0  0  0
   -6.7570   32.3490   20.6470 O   0  0  0  0  0  0  0  0  0  0  0  0
   -6.7900   33.2810   18.5340 N   0  0  0  0  0  0  0  0  0  0  0  0
   -8.1080   32.8980   18.0270 C   0  0  0  0  0  0  0  0  0  0  0  0
   -9.1230   33.7800   18.7900 C   0  0  2  0  0  0  0  0  0  0  0  0
   -9.9270   34.5260   17.8790 O   0  0  0  0  0  0  0  0  0  0  0  0
   -8.2670   34.7620   19.6020 C   0  0  0  0  0  0  0  0  0  0  0  0
   -6.9310   34.7070   18.8630 C   0  0  1  0  0  0  0  0  0  0  0  0
   -5.7760   35.5530   19.4260 C   0  0  0  0  0  0  0  0  0  0  0  0
   -5.5190   35.5550   20.6300 O   0  0  0  0  0  0  0  0  0  0  0  0
   -5.1280   36.3700   18.5330 N   0  0  0  0  0  0  0  0  0  0  0  0
   -4.0170   37.2040   18.9320 C   0  0  0  0  0  0  0  0  0  0  0  0
   -2.7470   36.7510   18.2620 C   0  0  0  0  0  0  0  0  0  0  0  0
   -1.6240   36.3960   19.0210 C   0  0  0  0  0  0  0  0  0  0  0  0
   -0.4400   35.9990   18.3920 C   0  0  0  0  0  0  0  0  0  0  0  0
   -0.3520   35.9610   16.9950 C   0  0  0  0  0  0  0  0  0  0  0  0
    0.8880   35.5350   16.3480 C   0  0  0  0  0  0  0  0  0  0  0  0
    2.1920   36.6410   16.1660 S   0  0  0  0  0  0  0  0  0  0  0  0
    3.1190   35.4070   15.4270 C   0  0  0  0  0  0  0  0  0  0  0  0
    2.5350   34.2380   15.3030 N   0  0  0  0  0  0  0  0  0  0  0  0
    1.2510   34.3000   15.8260 C   0  0  0  0  0  0  0  0  0  0  0  0
    0.4130   33.0720   15.7720 C   0  0  0  0  0  0  0  0  0  0  0  0
   -1.4710   36.3270   16.2360 C   0  0  0  0  0  0  0  0  0  0  0  0
   -2.6560   36.7230   16.8640 C   0  0  0  0  0  0  0  0  0  0  0  0
   -2.2391   34.0250   18.0306 H   0  0  0  0  0  0  0  0  0  0  0  0
   -2.4979   32.3140   17.5488 H   0  0  0  0  0  0  0  0  0  0  0  0
   -3.8766   33.4655   17.5488 H   0  0  0  0  0  0  0  0  0  0  0  0
   -2.4794   30.3769   20.5593 H   0  0  0  0  0  0  0  0  0  0  0  0
   -3.8049   30.7572   21.6417 H   0  0  0  0  0  0  0  0  0  0  0  0
   -4.4990   28.5763   20.7568 H   0  0  0  0  0  0  0  0  0  0  0  0
   -2.8270   29.3380   18.7520 H   0  0  0  0  0  0  0  0  0  0  0  0
   -6.0213   29.4062   18.6482 H   0  0  0  0  0  0  0  0  0  0  0  0
   -6.4180   30.0058   20.2541 H   0  0  0  0  0  0  0  0  0  0  0  0
   -5.1290   31.4857   17.9460 H   0  0  0  0  0  0  0  0  0  0  0  0
   -8.1726   33.0873   16.9453 H   0  0  0  0  0  0  0  0  0  0  0  0
   -8.3059   31.8268   18.1798 H   0  0  0  0  0  0  0  0  0  0  0  0
   -9.7935   33.1691   19.4123 H   0  0  0  0  0  0  0  0  0  0  0  0
   -9.6570   35.4590   17.9470 H   0  0  0  0  0  0  0  0  0  0  0  0
   -8.6937   35.7757   19.5811 H   0  0  0  0  0  0  0  0  0  0  0  0
   -8.1935   34.5076   20.6697 H   0  0  0  0  0  0  0  0  0  0  0  0
   -6.8894   35.2818   17.9261 H   0  0  0  0  0  0  0  0  0  0  0  0
   -5.6200   36.6730   17.6940 H   0  0  0  0  0  0  0  0  0  0  0  0
   -4.2254   38.2453   18.6453 H   0  0  0  0  0  0  0  0  0  0  0  0
   -3.8897   37.1276   20.0219 H   0  0  0  0  0  0  0  0  0  0  0  0
   -1.6742   36.4299   20.1193 H   0  0  0  0  0  0  0  0  0  0  0  0
    0.4308   35.7138   19.0005 H   0  0  0  0  0  0  0  0  0  0  0  0
    4.1463   35.5834   15.0757 H   0  0  0  0  0  0  0  0  0  0  0  0
    0.1852   32.7382   16.7951 H   0  0  0  0  0  0  0  0  0  0  0  0
   -0.5248   33.2911   15.2405 H   0  0  0  0  0  0  0  0  0  0  0  0
    0.9589   32.2786   15.2405 H   0  0  0  0  0  0  0  0  0  0  0  0
   -1.4172   36.3027   15.1376 H   0  0  0  0  0  0  0  0  0  0  0  0
   -3.5244   37.0151   16.2552 H   0  0  0  0  0  0  0  0  0  0  0  0
  1  2  1  0
  2  3  2  0
  2  4  1  0
  4  5  1  0
  5  6  1  0
  6  7  1  0
  6  8  1  0
  8  9  1  0
  9 10  1  0
 10 11  2  0
 10 12  1  0
 12 13  1  0
 13 14  1  0
 14 15  1  0
 14 16  1  0
 16 17  1  0
 17 18  1  0
 18 19  2  0
 18 20  1  0
 20 21  1  0
 21 22  1  0
 22 23  2  0
 23 24  1  0
 24 25  2  0
 25 26  1  0
 26 27  1  0
 27 28  1  0
 28 29  2  0
 29 30  1  0
 30 31  1  0
 25 32  1  0
 32 33  2  0
  9  4  1  0
 17 12  1  0
 33 22  1  0
 30 26  2  0
  1 34  1  0
  1 35  1  0
  1 36  1  0
  5 37  1  0
  5 38  1  0
  6 39  1  1
  7 40  1  0
  8 41  1  0
  8 42  1  0
  9 43  1  6
 13 44  1  0
 13 45  1  0
 14 46  1  1
 15 47  1  0
 16 48  1  0
 16 49  1  0
 17 50  1  6
 20 51  1  0
 21 52  1  0
 21 53  1  0
 23 54  1  0
 24 55  1  0
 28 56  1  0
 31 57  1  0
 31 58  1  0
 31 59  1  0
 32 60  1  0
 33 61  1  0
M  END
>  <meeko>  (8) 
{"is_sidechain": [false], "free_energy": -5.324, "intermolecular_energy": -7.134, "internal_energy": -2.092}

$$$$
4w9i_ligand
     RDKit          3D

 61 64  0  0  0  0  0  0  0  0999 V2000
   -7.9290   34.9100   22.1800 C   0  0  0  0  0  0  0  0  0  0  0  0
   -6.9370   34.9600   21.0480 C   0  0  0  0  0  0  0  0  0  0  0  0
   -5.8810   35.5870   21.1530 O   0  0  0  0  0  0  0  0  0  0  0  0
   -7.2650   34.2660   19.9090 N   0  0  0  0  0  0  0  0  0  0  0  0
   -7.4820   34.8060   18.5750 C   0  0  0  0  0  0  0  0  0  0  0  0
   -8.3300   33.7360   17.8950 C   0  0  2  0  0  0  0  0  0  0  0  0
   -9.7090   33.9110   18.2220 O   0  0  0  0  0  0  0  0  0  0  0  0
   -7.8170   32.4300   18.4930 C   0  0  0  0  0  0  0  0  0  0  0  0
   -7.4000   32.8050   19.9220 C   0  0  1  0  0  0  0  0  0  0  0  0
   -6.0470   32.1380   20.2450 C   0  0  0  0  0  0  0  0  0  0  0  0
   -5.6650   32.0050   21.4130 O   0  0  0  0  0  0  0  0  0  0  0  0
   -5.2140   31.8470   19.1520 N   0  0  0  0  0  0  0  0  0  0  0  0
   -4.1790   32.8530   18.9130 C   0  0  0  0  0  0  0  0  0  0  0  0
   -2.8890   32.2860   19.5490 C   0  0  2  0  0  0  0  0  0  0  0  0
   -1.8420   32.2070   18.5840 O   0  0  0  0  0  0  0  0  0  0  0  0
   -3.2540   30.8620   19.9900 C   0  0  0  0  0  0  0  0  0  0  0  0
   -4.4860   30.5700   19.1370 C   0  0  1  0  0  0  0  0  0  0  0  0
   -5.1790   29.2110   19.3350 C   0  0  0  0  0  0  0  0  0  0  0  0
   -5.6180   28.5770   18.3760 O   0  0  0  0  0  0  0  0  0  0  0  0
   -5.3640   28.8050   20.6340 N   0  0  0  0  0  0  0  0  0  0  0  0
   -5.9890   27.5420   20.9550 C   0  0  0  0  0  0  0  0  0  0  0  0
   -5.0140   26.6310   21.6530 C   0  0  0  0  0  0  0  0  0  0  0  0
   -3.7860   27.1190   22.1190 C   0  0  0  0  0  0  0  0  0  0  0  0
   -2.8750   26.2630   22.7450 C   0  0  0  0  0  0  0  0  0  0  0  0
   -3.1680   24.9040   22.9060 C   0  0  0  0  0  0  0  0  0  0  0  0
   -2.2120   24.0200   23.5710 C   0  0  0  0  0  0  0  0  0  0  0  0
   -2.6710   23.1560   24.9850 S   0  0  0  0  0  0  0  0  0  0  0  0
   -1.1180   22.4400   25.0380 C   0  0  0  0  0  0  0  0  0  0  0  0
   -0.2840   22.7940   24.0870 N   0  0  0  0  0  0  0  0  0  0  0  0
   -0.9010   23.7040   23.2400 C   0  0  0  0  0  0  0  0  0  0  0  0
   -0.1130   24.2390   22.0970 C   0  0  0  0  0  0  0  0  0  0  0  0
   -4.3910   24.4140   22.4300 C   0  0  0  0  0  0  0  0  0  0  0  0
   -5.3040   25.2690   21.8050 C   0  0  0  0  0  0  0  0  0  0  0  0
   -7.3920   34.9371   23.1396 H   0  0  0  0  0  0  0  0  0  0  0  0
   -8.6050   35.7752   22.1136 H   0  0  0  0  0  0  0  0  0  0  0  0
   -8.5146   33.9812   22.1136 H   0  0  0  0  0  0  0  0  0  0  0  0
   -8.0199   35.7644   18.6209 H   0  0  0  0  0  0  0  0  0  0  0  0
   -6.5448   35.0165   18.0389 H   0  0  0  0  0  0  0  0  0  0  0  0
   -8.2546   33.7691   16.7981 H   0  0  0  0  0  0  0  0  0  0  0  0
  -10.2110   33.1790   17.8210 H   0  0  0  0  0  0  0  0  0  0  0  0
   -8.6111   31.6689   18.5059 H   0  0  0  0  0  0  0  0  0  0  0  0
   -6.9878   31.9992   17.9126 H   0  0  0  0  0  0  0  0  0  0  0  0
   -8.1244   32.4736   20.6806 H   0  0  0  0  0  0  0  0  0  0  0  0
   -4.0377   33.0088   17.8333 H   0  0  0  0  0  0  0  0  0  0  0  0
   -4.4514   33.8264   19.3469 H   0  0  0  0  0  0  0  0  0  0  0  0
   -2.5400   32.9224   20.3756 H   0  0  0  0  0  0  0  0  0  0  0  0
   -1.2950   33.0060   18.6810 H   0  0  0  0  0  0  0  0  0  0  0  0
   -2.4401   30.1551   19.7713 H   0  0  0  0  0  0  0  0  0  0  0  0
   -3.4307   30.7648   21.0713 H   0  0  0  0  0  0  0  0  0  0  0  0
   -4.2778   30.3051   18.0899 H   0  0  0  0  0  0  0  0  0  0  0  0
   -5.4010   29.5080   21.3700 H   0  0  0  0  0  0  0  0  0  0  0  0
   -6.8510   27.7223   21.6142 H   0  0  0  0  0  0  0  0  0  0  0  0
   -6.3179   27.0615   20.0218 H   0  0  0  0  0  0  0  0  0  0  0  0
   -3.5370   28.1828   21.9914 H   0  0  0  0  0  0  0  0  0  0  0  0
   -1.9187   26.6615   23.1146 H   0  0  0  0  0  0  0  0  0  0  0  0
   -0.8342   21.7242   25.8235 H   0  0  0  0  0  0  0  0  0  0  0  0
    0.7404   24.8184   22.4792 H   0  0  0  0  0  0  0  0  0  0  0  0
    0.2561   23.4040   21.4834 H   0  0  0  0  0  0  0  0  0  0  0  0
   -0.7529   24.8902   21.4834 H   0  0  0  0  0  0  0  0  0  0  0  0
   -4.6351   23.3480   22.5489 H   0  0  0  0  0  0  0  0  0  0  0  0
   -6.2575   24.8689   21.4297 H   0  0  0  0  0  0  0  0  0  0  0  0
  1  2  1  0
  2  3  2  0
  2  4  1  0
  4  5  1  0
  5  6  1  0
  6  7  1  0
  6  8  1  0
  8  9  1  0
  9 10  1  0
 10 11  2  0
 10 12  1  0
 12 13  1  0
 13 14  1  0
 14 15  1  0
 14 16  1  0
 16 17  1  0
 17 18  1  0
 18 19  2  0
 18 20  1  0
 20 21  1  0
 21 22  1  0
 22 23  2  0
 23 24  1  0
 24 25  2  0
 25 26  1  0
 26 27  1  0
 27 28  1  0
 28 29  2  0
 29 30  1  0
 30 31  1  0
 25 32  1  0
 32 33  2  0
  9  4  1  0
 17 12  1  0
 33 22  1  0
 30 26  2  0
  1 34  1  0
  1 35  1  0
  1 36  1  0
  5 37  1  0
  5 38  1  0
  6 39  1  6
  7 40  1  0
  8 41  1  0
  8 42  1  0
  9 43  1  1
 13 44  1  0
 13 45  1  0
 14 46  1  1
 15 47  1  0
 16 48  1  0
 16 49  1  0
 17 50  1  6
 20 51  1  0
 21 52  1  0
 21 53  1  0
 23 54  1  0
 24 55  1  0
 28 56  1  0
 31 57  1  0
 31 58  1  0
 31 59  1  0
 32 60  1  0
 33 61  1  0
M  END
>  <meeko>  (9) 
{"is_sidechain": [false], "free_energy": -5.253, "intermolecular_energy": -7.938, "internal_energy": -1.184}

$$$$
