
     RDKit          3D

 28 29  0  0  0  0  0  0  0  0999 V2000
   -5.6010   -2.3760   10.5560 C   0  0  0  0  0  0  0  0  0  0  0  0
   -4.4090   -1.4180   10.3210 C   0  0  2  0  0  0  0  0  0  0  0  0
   -3.6260   -1.4010   11.5260 O   0  0  0  0  0  0  0  0  0  0  0  0
   -4.9020   -0.0210   10.0100 C   0  0  0  0  0  0  0  0  0  0  0  0
   -3.7540    0.7390    9.5640 O   0  0  0  0  0  0  0  0  0  0  0  0
   -3.9430    1.8960    8.8500 C   0  0  0  0  0  0  0  0  0  0  0  0
   -2.9170    2.3490    8.0040 C   0  0  0  0  0  0  0  0  0  0  0  0
   -3.1040    3.5080    7.2630 C   0  0  0  0  0  0  0  0  0  0  0  0
   -4.2980    4.2170    7.3960 C   0  0  0  0  0  0  0  0  0  0  0  0
   -4.5530    5.6620    6.4990 Cl  0  0  0  0  0  0  0  0  0  0  0  0
   -5.2950    3.7560    8.2470 C   0  0  0  0  0  0  0  0  0  0  0  0
   -6.4460    4.4260    8.3720 F   0  0  0  0  0  0  0  0  0  0  0  0
   -5.1080    2.5880    8.9810 C   0  0  0  0  0  0  0  0  0  0  0  0
   -3.5720   -1.9140    9.1720 C   0  0  0  0  0  0  0  0  0  0  0  0
   -4.0830   -2.2310    8.1270 O   0  0  0  0  0  0  0  0  0  0  0  0
   -2.2300   -1.8920    9.3970 N   0  0  0  0  0  0  0  0  0  0  0  0
   -1.2340   -2.2550    8.5040 C   0  0  0  0  0  0  0  0  0  0  0  0
    0.0680   -2.2500    8.9890 C   0  0  0  0  0  0  0  0  0  0  0  0
    1.1050   -2.5830    8.1560 C   0  0  0  0  0  0  0  0  0  0  0  0
    0.8710   -2.9310    6.8260 C   0  0  0  0  0  0  0  0  0  0  0  0
    1.9910   -3.2700    6.0190 C   0  0  0  0  0  0  0  0  0  0  0  0
    2.9370   -3.5530    5.3810 N   0  0  0  0  0  0  0  0  0  0  0  0
   -0.4540   -2.9360    6.3310 C   0  0  0  0  0  0  0  0  0  0  0  0
   -0.7940   -3.2870    4.9050 C   0  0  1  0  0  0  0  0  0  0  0  0
   -1.5610   -2.3080    4.3690 F   0  0  0  0  0  0  0  0  0  0  0  0
    0.2470   -3.4210    4.0830 F   0  0  0  0  0  0  0  0  0  0  0  0
   -1.4960   -4.4240    4.8450 F   0  0  0  0  0  0  0  0  0  0  0  0
   -1.4970   -2.5930    7.1820 C   0  0  0  0  0  0  0  0  0  0  0  0
  2  1  1  1
  3  2  1  0
  4  2  1  0
  5  4  1  0
  6  5  1  0
  7  6  2  0
  8  7  1  0
  9  8  2  0
 10  9  1  0
 11  9  1  0
 12 11  1  0
 13 11  2  0
 13  6  1  0
 14  2  1  0
 15 14  2  0
 16 14  1  0
 17 16  1  0
 18 17  2  0
 19 18  1  0
 20 19  2  0
 21 20  1  0
 22 21  3  0
 23 20  1  0
 24 23  1  0
 24 25  1  6
 26 24  1  0
 27 24  1  0
 28 23  2  0
 28 17  1  0
M  END
$$$$
