
     RDKit          3D

 13 13  0  0  0  0  0  0  0  0999 V2000
   -4.3390   15.8060   -6.7690 C   0  0  0  0  0  0  0  0  0  0  0  0
   -4.2380   14.9880   -8.0150 C   0  0  0  0  0  0  0  0  0  0  0  0
   -5.3100   14.3810   -8.5960 O   0  0  0  0  0  0  0  0  0  0  0  0
   -4.8720   13.7470   -9.7280 N   0  0  0  0  0  0  0  0  0  0  0  0
   -3.5240   13.9360   -9.8860 C   0  0  0  0  0  0  0  0  0  0  0  0
   -2.8460   13.4950  -10.8070 O   0  0  0  0  0  0  0  0  0  0  0  0
   -3.1060   14.7430   -8.7840 C   0  0  0  0  0  0  0  0  0  0  0  0
   -1.6920   15.1840   -8.5280 C   0  0  0  0  0  0  0  0  0  0  0  0
   -0.8030   13.9510   -8.1720 C   0  0  2  0  0  0  0  0  0  0  0  0
   -0.9420   13.6020   -6.7190 N   0  0  0  0  0  0  0  0  0  0  0  0
    0.6670   14.2230   -8.5170 C   0  0  0  0  0  0  0  0  0  0  0  0
    1.5140   14.0700   -7.6350 O   0  0  0  0  0  0  0  0  0  0  0  0
    0.9580   14.5190   -9.6810 O   0  0  0  0  0  0  0  0  0  0  0  0
  2  1  1  0
  3  2  1  0
  4  3  1  0
  5  4  1  0
  6  5  2  0
  7  5  1  0
  7  2  2  0
  8  7  1  0
  9  8  1  0
  9 10  1  1
 11  9  1  0
 12 11  1  0
 13 11  2  0
M  CHG  2  10   1  12  -1
M  END
$$$$
