
     RDKit          3D

 13 14  0  0  0  0  0  0  0  0999 V2000
  -15.9490   -0.7590  -38.6070 N   0  0  0  0  0  0  0  0  0  0  0  0
  -15.2390   -1.9390  -39.0580 C   0  0  0  0  0  0  0  0  0  0  0  0
  -16.0920   -3.2130  -39.1390 C   0  0  0  0  0  0  0  0  0  0  0  0
  -16.8460   -3.4460  -37.8650 C   0  0  0  0  0  0  0  0  0  0  0  0
  -16.3140   -3.7560  -36.6250 C   0  0  0  0  0  0  0  0  0  0  0  0
  -17.2930   -3.9100  -35.7200 N   0  0  0  0  0  0  0  0  0  0  0  0
  -18.4990   -3.6950  -36.3750 C   0  0  0  0  0  0  0  0  0  0  0  0
  -19.8000   -3.7430  -35.8750 C   0  0  0  0  0  0  0  0  0  0  0  0
  -20.8440   -3.4870  -36.7390 C   0  0  0  0  0  0  0  0  0  0  0  0
  -20.6050   -3.1810  -38.0980 C   0  0  0  0  0  0  0  0  0  0  0  0
  -21.6790   -2.9280  -38.9130 O   0  0  0  0  0  0  0  0  0  0  0  0
  -19.3070   -3.1480  -38.5960 C   0  0  0  0  0  0  0  0  0  0  0  0
  -18.2510   -3.4050  -37.7140 C   0  0  0  0  0  0  0  0  0  0  0  0
  2  1  1  0
  3  2  1  0
  4  3  1  0
  5  4  2  0
  6  5  1  0
  7  6  1  0
  8  7  2  0
  9  8  1  0
 10  9  2  0
 11 10  1  0
 12 10  1  0
 13 12  2  0
 13  7  1  0
 13  4  1  0
M  CHG  1   1   1
M  END
$$$$
