3rsx_ligand
     RDKit          3D

 26 28  0  0  0  0  0  0  0  0999 V2000
    0.2900    2.0410   -7.9560 N   0  0  0  0  0  0  0  0  0  0  0  0
    1.6770    1.9090   -7.9490 C   0  0  0  0  0  0  0  0  0  0  0  0
    2.4780    2.8920   -8.5030 C   0  0  0  0  0  0  0  0  0  0  0  0
    3.8570    2.7130   -8.4920 C   0  0  0  0  0  0  0  0  0  0  0  0
    4.3970    1.5500   -7.9330 C   0  0  0  0  0  0  0  0  0  0  0  0
    5.7850    1.3190   -7.8990 C   0  0  0  0  0  0  0  0  0  0  0  0
    6.3000    0.1430   -7.3420 C   0  0  0  0  0  0  0  0  0  0  0  0
    7.7400   -0.0830   -7.3060 C   0  0  0  0  0  0  0  0  0  0  0  0
    8.5260   -0.7980   -8.2670 C   0  0  0  0  0  0  0  0  0  0  0  0
    9.8620   -0.8400   -7.9340 C   0  0  0  0  0  0  0  0  0  0  0  0
   10.1800   -0.0320   -6.4620 S   0  0  0  0  0  0  0  0  0  0  0  0
    8.5280    0.3770   -6.2680 C   0  0  0  0  0  0  0  0  0  0  0  0
    5.4090   -0.7950   -6.8150 C   0  0  0  0  0  0  0  0  0  0  0  0
    4.0290   -0.5580   -6.8520 C   0  0  0  0  0  0  0  0  0  0  0  0
    3.5000    0.6010   -7.4030 C   0  0  0  0  0  0  0  0  0  0  0  0
    2.1680    0.7800   -7.4130 N   0  0  0  0  0  0  0  0  0  0  0  0
   -0.0540    1.5630   -7.1260 H   0  0  0  0  0  0  0  0  0  0  0  0
    0.0090    3.0140   -7.9740 H   0  0  0  0  0  0  0  0  0  0  0  0
    2.0330    3.7966   -8.9431 H   0  0  0  0  0  0  0  0  0  0  0  0
    4.5186    3.4806   -8.9199 H   0  0  0  0  0  0  0  0  0  0  0  0
    6.4722    2.0707   -8.3146 H   0  0  0  0  0  0  0  0  0  0  0  0
    8.1082   -1.2628   -9.1722 H   0  0  0  0  0  0  0  0  0  0  0  0
   10.6327   -1.3349   -8.5432 H   0  0  0  0  0  0  0  0  0  0  0  0
    8.1368    0.9441   -5.4105 H   0  0  0  0  0  0  0  0  0  0  0  0
    5.7930   -1.7242   -6.3688 H   0  0  0  0  0  0  0  0  0  0  0  0
    3.3456   -1.3112   -6.4328 H   0  0  0  0  0  0  0  0  0  0  0  0
  1  2  1  0
  2  3  2  0
  3  4  1  0
  4  5  2  0
  5  6  1  0
  6  7  2  0
  7  8  1  0
  8  9  1  0
  9 10  2  0
 10 11  1  0
 11 12  1  0
  7 13  1  0
 13 14  2  0
 14 15  1  0
 15 16  2  0
 16  2  1  0
 15  5  1  0
 12  8  2  0
  1 17  1  0
  1 18  1  0
  3 19  1  0
  4 20  1  0
  6 21  1  0
  9 22  1  0
 10 23  1  0
 12 24  1  0
 13 25  1  0
 14 26  1  0
M  END
>  <meeko>  (1) 
{"is_sidechain": [false], "free_energy": -7.122, "intermolecular_energy": -7.746, "internal_energy": -0.152}

$$$$
3rsx_ligand
     RDKit          3D

 26 28  0  0  0  0  0  0  0  0999 V2000
    9.3290   -2.3320   -6.3160 N   0  0  0  0  0  0  0  0  0  0  0  0
    8.3760   -1.4040   -6.7280 C   0  0  0  0  0  0  0  0  0  0  0  0
    8.7450   -0.3120   -7.4950 C   0  0  0  0  0  0  0  0  0  0  0  0
    7.7660    0.6010   -7.8690 C   0  0  0  0  0  0  0  0  0  0  0  0
    6.4430    0.4000   -7.4600 C   0  0  0  0  0  0  0  0  0  0  0  0
    5.4140    1.2950   -7.8100 C   0  0  0  0  0  0  0  0  0  0  0  0
    4.1010    1.0770   -7.3810 C   0  0  0  0  0  0  0  0  0  0  0  0
    3.0420    2.0080   -7.7540 C   0  0  0  0  0  0  0  0  0  0  0  0
    3.1300    3.4370   -7.8170 C   0  0  0  0  0  0  0  0  0  0  0  0
    1.9440    4.0250   -8.1960 C   0  0  0  0  0  0  0  0  0  0  0  0
    0.7140    2.8690   -8.4660 S   0  0  0  0  0  0  0  0  0  0  0  0
    1.7690    1.5780   -8.0780 C   0  0  0  0  0  0  0  0  0  0  0  0
    3.8290   -0.0500   -6.6020 C   0  0  0  0  0  0  0  0  0  0  0  0
    4.8570   -0.9370   -6.2580 C   0  0  0  0  0  0  0  0  0  0  0  0
    6.1660   -0.7350   -6.6730 C   0  0  0  0  0  0  0  0  0  0  0  0
    7.1160   -1.6170   -6.3150 N   0  0  0  0  0  0  0  0  0  0  0  0
    9.5090   -2.1500   -5.3310 H   0  0  0  0  0  0  0  0  0  0  0  0
    9.0160   -3.2830   -6.4720 H   0  0  0  0  0  0  0  0  0  0  0  0
    9.7916   -0.1699   -7.8021 H   0  0  0  0  0  0  0  0  0  0  0  0
    8.0294    1.4754   -8.4822 H   0  0  0  0  0  0  0  0  0  0  0  0
    5.6454    2.1753   -8.4276 H   0  0  0  0  0  0  0  0  0  0  0  0
    4.0452    4.0025   -7.5876 H   0  0  0  0  0  0  0  0  0  0  0  0
    1.8046    5.1100   -8.3114 H   0  0  0  0  0  0  0  0  0  0  0  0
    1.4665    0.5204   -8.0857 H   0  0  0  0  0  0  0  0  0  0  0  0
    2.8023   -0.2419   -6.2569 H   0  0  0  0  0  0  0  0  0  0  0  0
    4.6206   -1.8174   -5.6424 H   0  0  0  0  0  0  0  0  0  0  0  0
  1  2  1  0
  2  3  2  0
  3  4  1  0
  4  5  2  0
  5  6  1  0
  6  7  2  0
  7  8  1  0
  8  9  1  0
  9 10  2  0
 10 11  1  0
 11 12  1  0
  7 13  1  0
 13 14  2  0
 14 15  1  0
 15 16  2  0
 16  2  1  0
 15  5  1  0
 12  8  2  0
  1 17  1  0
  1 18  1  0
  3 19  1  0
  4 20  1  0
  6 21  1  0
  9 22  1  0
 10 23  1  0
 12 24  1  0
 13 25  1  0
 14 26  1  0
M  END
>  <meeko>  (2) 
{"is_sidechain": [false], "free_energy": -7.022, "intermolecular_energy": -7.626, "internal_energy": -0.165}

$$$$
3rsx_ligand
     RDKit          3D

 26 28  0  0  0  0  0  0  0  0999 V2000
    9.6300   -1.9580   -6.6550 N   0  0  0  0  0  0  0  0  0  0  0  0
    8.3410   -1.4440   -6.7690 C   0  0  0  0  0  0  0  0  0  0  0  0
    7.2470   -2.1990   -6.3820 C   0  0  0  0  0  0  0  0  0  0  0  0
    5.9760   -1.6560   -6.5310 C   0  0  0  0  0  0  0  0  0  0  0  0
    5.8330   -0.3730   -7.0690 C   0  0  0  0  0  0  0  0  0  0  0  0
    4.5690    0.2230   -7.2420 C   0  0  0  0  0  0  0  0  0  0  0  0
    4.4520    1.5040   -7.7920 C   0  0  0  0  0  0  0  0  0  0  0  0
    3.1380    2.1130   -7.9610 C   0  0  0  0  0  0  0  0  0  0  0  0
    1.9070    1.4430   -8.2590 C   0  0  0  0  0  0  0  0  0  0  0  0
    0.8430    2.3110   -8.3650 C   0  0  0  0  0  0  0  0  0  0  0  0
    1.3150    3.9350   -8.1190 S   0  0  0  0  0  0  0  0  0  0  0  0
    2.9460    3.4780   -7.8680 C   0  0  0  0  0  0  0  0  0  0  0  0
    5.6150    2.1840   -8.1600 C   0  0  0  0  0  0  0  0  0  0  0  0
    6.8690    1.5860   -7.9840 C   0  0  0  0  0  0  0  0  0  0  0  0
    7.0040    0.3150   -7.4430 C   0  0  0  0  0  0  0  0  0  0  0  0
    8.2320   -0.2130   -7.2960 N   0  0  0  0  0  0  0  0  0  0  0  0
    9.5380   -2.8960   -6.2710 H   0  0  0  0  0  0  0  0  0  0  0  0
   10.1100   -1.9620   -7.5470 H   0  0  0  0  0  0  0  0  0  0  0  0
    7.3808   -3.2081   -5.9651 H   0  0  0  0  0  0  0  0  0  0  0  0
    5.0889   -2.2315   -6.2279 H   0  0  0  0  0  0  0  0  0  0  0  0
    3.6636   -0.3247   -6.9414 H   0  0  0  0  0  0  0  0  0  0  0  0
    1.8211    0.3541   -8.3889 H   0  0  0  0  0  0  0  0  0  0  0  0
   -0.1884    1.9963   -8.5823 H   0  0  0  0  0  0  0  0  0  0  0  0
    3.7537    4.1939   -7.6556 H   0  0  0  0  0  0  0  0  0  0  0  0
    5.5457    3.1940   -8.5901 H   0  0  0  0  0  0  0  0  0  0  0  0
    7.7719    2.1388   -8.2827 H   0  0  0  0  0  0  0  0  0  0  0  0
  1  2  1  0
  2  3  2  0
  3  4  1  0
  4  5  2  0
  5  6  1  0
  6  7  2  0
  7  8  1  0
  8  9  1  0
  9 10  2  0
 10 11  1  0
 11 12  1  0
  7 13  1  0
 13 14  2  0
 14 15  1  0
 15 16  2  0
 16  2  1  0
 15  5  1  0
 12  8  2  0
  1 17  1  0
  1 18  1  0
  3 19  1  0
  4 20  1  0
  6 21  1  0
  9 22  1  0
 10 23  1  0
 12 24  1  0
 13 25  1  0
 14 26  1  0
M  END
>  <meeko>  (3) 
{"is_sidechain": [false], "free_energy": -7.003, "intermolecular_energy": -7.603, "internal_energy": -0.167}

$$$$
3rsx_ligand
     RDKit          3D

 26 28  0  0  0  0  0  0  0  0999 V2000
    1.0050    1.7690   -8.0480 N   0  0  0  0  0  0  0  0  0  0  0  0
    2.3260    1.4090   -7.7920 C   0  0  0  0  0  0  0  0  0  0  0  0
    2.6150    0.2610   -7.0760 C   0  0  0  0  0  0  0  0  0  0  0  0
    3.9460   -0.0520   -6.8260 C   0  0  0  0  0  0  0  0  0  0  0  0
    4.9540    0.7980   -7.2930 C   0  0  0  0  0  0  0  0  0  0  0  0
    6.3160    0.5290   -7.0660 C   0  0  0  0  0  0  0  0  0  0  0  0
    7.3050    1.3990   -7.5360 C   0  0  0  0  0  0  0  0  0  0  0  0
    8.7140    1.1070   -7.3000 C   0  0  0  0  0  0  0  0  0  0  0  0
    9.3830   -0.1440   -7.5030 C   0  0  0  0  0  0  0  0  0  0  0  0
   10.7190   -0.0910   -7.1740 C   0  0  0  0  0  0  0  0  0  0  0  0
   11.1770    1.4550   -6.6070 S   0  0  0  0  0  0  0  0  0  0  0  0
    9.5860    2.0570   -6.8040 C   0  0  0  0  0  0  0  0  0  0  0  0
    6.9130    2.5400   -8.2420 C   0  0  0  0  0  0  0  0  0  0  0  0
    5.5560    2.8010   -8.4650 C   0  0  0  0  0  0  0  0  0  0  0  0
    4.5610    1.9500   -8.0040 C   0  0  0  0  0  0  0  0  0  0  0  0
    3.2720    2.2470   -8.2450 N   0  0  0  0  0  0  0  0  0  0  0  0
    0.4400    1.3560   -7.3090 H   0  0  0  0  0  0  0  0  0  0  0  0
    0.8940    2.7750   -8.0880 H   0  0  0  0  0  0  0  0  0  0  0  0
    1.8075   -0.3911   -6.7118 H   0  0  0  0  0  0  0  0  0  0  0  0
    4.2049   -0.9619   -6.2647 H   0  0  0  0  0  0  0  0  0  0  0  0
    6.6065   -0.3761   -6.5124 H   0  0  0  0  0  0  0  0  0  0  0  0
    8.8835   -1.0484   -7.8806 H   0  0  0  0  0  0  0  0  0  0  0  0
   11.4095   -0.9424   -7.2652 H   0  0  0  0  0  0  0  0  0  0  0  0
    9.2903    3.0885   -6.5618 H   0  0  0  0  0  0  0  0  0  0  0  0
    7.6744    3.2359   -8.6241 H   0  0  0  0  0  0  0  0  0  0  0  0
    5.2701    3.7059   -9.0212 H   0  0  0  0  0  0  0  0  0  0  0  0
  1  2  1  0
  2  3  2  0
  3  4  1  0
  4  5  2  0
  5  6  1  0
  6  7  2  0
  7  8  1  0
  8  9  1  0
  9 10  2  0
 10 11  1  0
 11 12  1  0
  7 13  1  0
 13 14  2  0
 14 15  1  0
 15 16  2  0
 16  2  1  0
 15  5  1  0
 12  8  2  0
  1 17  1  0
  1 18  1  0
  3 19  1  0
  4 20  1  0
  6 21  1  0
  9 22  1  0
 10 23  1  0
 12 24  1  0
 13 25  1  0
 14 26  1  0
M  END
>  <meeko>  (4) 
{"is_sidechain": [false], "free_energy": -6.772, "intermolecular_energy": -7.357, "internal_energy": -0.162}

$$$$
3rsx_ligand
     RDKit          3D

 26 28  0  0  0  0  0  0  0  0999 V2000
   12.5350    0.0600   -6.7490 N   0  0  0  0  0  0  0  0  0  0  0  0
   11.2030    0.4540   -6.8500 C   0  0  0  0  0  0  0  0  0  0  0  0
   10.8500    1.7820   -6.6850 C   0  0  0  0  0  0  0  0  0  0  0  0
    9.5070    2.1300   -6.7740 C   0  0  0  0  0  0  0  0  0  0  0  0
    8.5520    1.1380   -7.0190 C   0  0  0  0  0  0  0  0  0  0  0  0
    7.1800    1.4380   -7.1160 C   0  0  0  0  0  0  0  0  0  0  0  0
    6.2430    0.4260   -7.3540 C   0  0  0  0  0  0  0  0  0  0  0  0
    4.8250    0.7490   -7.4590 C   0  0  0  0  0  0  0  0  0  0  0  0
    3.7200   -0.0660   -7.0470 C   0  0  0  0  0  0  0  0  0  0  0  0
    2.5020    0.5270   -7.2960 C   0  0  0  0  0  0  0  0  0  0  0  0
    2.6740    2.0580   -8.0350 S   0  0  0  0  0  0  0  0  0  0  0  0
    4.3820    1.9310   -8.0220 C   0  0  0  0  0  0  0  0  0  0  0  0
    6.6970   -0.8870   -7.4980 C   0  0  0  0  0  0  0  0  0  0  0  0
    8.0630   -1.1770   -7.4010 C   0  0  0  0  0  0  0  0  0  0  0  0
    9.0060   -0.1870   -7.1630 C   0  0  0  0  0  0  0  0  0  0  0  0
   10.3070   -0.5200   -7.0780 N   0  0  0  0  0  0  0  0  0  0  0  0
   12.8560    0.3460   -5.8270 H   0  0  0  0  0  0  0  0  0  0  0  0
   12.6400   -0.9380   -6.8920 H   0  0  0  0  0  0  0  0  0  0  0  0
   11.6161    2.5462   -6.4875 H   0  0  0  0  0  0  0  0  0  0  0  0
    9.1975    3.1786   -6.6525 H   0  0  0  0  0  0  0  0  0  0  0  0
    6.8409    2.4784   -7.0036 H   0  0  0  0  0  0  0  0  0  0  0  0
    3.8325   -1.0568   -6.5827 H   0  0  0  0  0  0  0  0  0  0  0  0
    1.5330    0.0691   -7.0484 H   0  0  0  0  0  0  0  0  0  0  0  0
    5.0538    2.7064   -8.4188 H   0  0  0  0  0  0  0  0  0  0  0  0
    5.9777   -1.6971   -7.6886 H   0  0  0  0  0  0  0  0  0  0  0  0
    8.3982   -2.2183   -7.5166 H   0  0  0  0  0  0  0  0  0  0  0  0
  1  2  1  0
  2  3  2  0
  3  4  1  0
  4  5  2  0
  5  6  1  0
  6  7  2  0
  7  8  1  0
  8  9  1  0
  9 10  2  0
 10 11  1  0
 11 12  1  0
  7 13  1  0
 13 14  2  0
 14 15  1  0
 15 16  2  0
 16  2  1  0
 15  5  1  0
 12  8  2  0
  1 17  1  0
  1 18  1  0
  3 19  1  0
  4 20  1  0
  6 21  1  0
  9 22  1  0
 10 23  1  0
 12 24  1  0
 13 25  1  0
 14 26  1  0
M  END
>  <meeko>  (5) 
{"is_sidechain": [false], "free_energy": -6.769, "intermolecular_energy": -7.349, "internal_energy": -0.165}

$$$$
3rsx_ligand
     RDKit          3D

 26 28  0  0  0  0  0  0  0  0999 V2000
    1.2080    3.4800   -9.0520 N   0  0  0  0  0  0  0  0  0  0  0  0
    2.1080    2.5560   -8.5250 C   0  0  0  0  0  0  0  0  0  0  0  0
    1.6500    1.4050   -7.9080 C   0  0  0  0  0  0  0  0  0  0  0  0
    2.5800    0.5180   -7.3790 C   0  0  0  0  0  0  0  0  0  0  0  0
    3.9440    0.8100   -7.4750 C   0  0  0  0  0  0  0  0  0  0  0  0
    4.9270   -0.0540   -6.9550 C   0  0  0  0  0  0  0  0  0  0  0  0
    6.2850    0.2660   -7.0560 C   0  0  0  0  0  0  0  0  0  0  0  0
    7.2940   -0.6390   -6.5190 C   0  0  0  0  0  0  0  0  0  0  0  0
    7.5210   -2.0030   -6.8960 C   0  0  0  0  0  0  0  0  0  0  0  0
    8.5490   -2.5860   -6.1870 C   0  0  0  0  0  0  0  0  0  0  0  0
    9.2390   -1.5050   -5.0570 S   0  0  0  0  0  0  0  0  0  0  0  0
    8.1640   -0.2540   -5.5160 C   0  0  0  0  0  0  0  0  0  0  0  0
    6.6480    1.4560   -7.6900 C   0  0  0  0  0  0  0  0  0  0  0  0
    5.6660    2.3100   -8.2070 C   0  0  0  0  0  0  0  0  0  0  0  0
    4.3130    2.0110   -8.1120 C   0  0  0  0  0  0  0  0  0  0  0  0
    3.4100    2.8650   -8.6250 N   0  0  0  0  0  0  0  0  0  0  0  0
    0.8190    3.9930   -8.2630 H   0  0  0  0  0  0  0  0  0  0  0  0
    1.6560    4.0980   -9.7180 H   0  0  0  0  0  0  0  0  0  0  0  0
    0.5722    1.1965   -7.8377 H   0  0  0  0  0  0  0  0  0  0  0  0
    2.2452   -0.4077   -6.8880 H   0  0  0  0  0  0  0  0  0  0  0  0
    4.6237   -0.9905   -6.4642 H   0  0  0  0  0  0  0  0  0  0  0  0
    6.9381   -2.5275   -7.6674 H   0  0  0  0  0  0  0  0  0  0  0  0
    8.8854   -3.6233   -6.3311 H   0  0  0  0  0  0  0  0  0  0  0  0
    8.1654    0.7479   -5.0619 H   0  0  0  0  0  0  0  0  0  0  0  0
    7.7107    1.7240   -7.7838 H   0  0  0  0  0  0  0  0  0  0  0  0
    5.9745    3.2428   -8.7017 H   0  0  0  0  0  0  0  0  0  0  0  0
  1  2  1  0
  2  3  2  0
  3  4  1  0
  4  5  2  0
  5  6  1  0
  6  7  2  0
  7  8  1  0
  8  9  1  0
  9 10  2  0
 10 11  1  0
 11 12  1  0
  7 13  1  0
 13 14  2  0
 14 15  1  0
 15 16  2  0
 16  2  1  0
 15  5  1  0
 12  8  2  0
  1 17  1  0
  1 18  1  0
  3 19  1  0
  4 20  1  0
  6 21  1  0
  9 22  1  0
 10 23  1  0
 12 24  1  0
 13 25  1  0
 14 26  1  0
M  END
>  <meeko>  (6) 
{"is_sidechain": [false], "free_energy": -6.589, "intermolecular_energy": -7.162, "internal_energy": -0.158}

$$$$
3rsx_ligand
     RDKit          3D

 26 28  0  0  0  0  0  0  0  0999 V2000
    2.0600   -0.0900   -6.9870 N   0  0  0  0  0  0  0  0  0  0  0  0
    3.3960    0.3000   -7.0530 C   0  0  0  0  0  0  0  0  0  0  0  0
    3.7620    1.4320   -7.7590 C   0  0  0  0  0  0  0  0  0  0  0  0
    5.1080    1.7750   -7.8170 C   0  0  0  0  0  0  0  0  0  0  0  0
    6.0530    0.9710   -7.1720 C   0  0  0  0  0  0  0  0  0  0  0  0
    7.4280    1.2720   -7.2020 C   0  0  0  0  0  0  0  0  0  0  0  0
    8.3550    0.4470   -6.5560 C   0  0  0  0  0  0  0  0  0  0  0  0
    9.7760    0.7730   -6.5880 C   0  0  0  0  0  0  0  0  0  0  0  0
   10.8730   -0.1480   -6.5830 C   0  0  0  0  0  0  0  0  0  0  0  0
   12.0970    0.4840   -6.6080 C   0  0  0  0  0  0  0  0  0  0  0  0
   11.9370    2.1860   -6.6250 S   0  0  0  0  0  0  0  0  0  0  0  0
   10.2280    2.0780   -6.6010 C   0  0  0  0  0  0  0  0  0  0  0  0
    7.8880   -0.6800   -5.8750 C   0  0  0  0  0  0  0  0  0  0  0  0
    6.5190   -0.9740   -5.8500 C   0  0  0  0  0  0  0  0  0  0  0  0
    5.5860   -0.1680   -6.4870 C   0  0  0  0  0  0  0  0  0  0  0  0
    4.2820   -0.4950   -6.4320 N   0  0  0  0  0  0  0  0  0  0  0  0
    1.5640    0.6480   -6.4920 H   0  0  0  0  0  0  0  0  0  0  0  0
    1.6730   -0.2510   -7.9090 H   0  0  0  0  0  0  0  0  0  0  0  0
    3.0035    2.0481   -8.2641 H   0  0  0  0  0  0  0  0  0  0  0  0
    5.4275    2.6727   -8.3665 H   0  0  0  0  0  0  0  0  0  0  0  0
    7.7774    2.1659   -7.7394 H   0  0  0  0  0  0  0  0  0  0  0  0
   10.7514   -1.2411   -6.5615 H   0  0  0  0  0  0  0  0  0  0  0  0
   13.0622   -0.0436   -6.6161 H   0  0  0  0  0  0  0  0  0  0  0  0
    9.5621    2.9536   -6.5964 H   0  0  0  0  0  0  0  0  0  0  0  0
    8.5990   -1.3396   -5.3560 H   0  0  0  0  0  0  0  0  0  0  0  0
    6.1737   -1.8684   -5.3106 H   0  0  0  0  0  0  0  0  0  0  0  0
  1  2  1  0
  2  3  2  0
  3  4  1  0
  4  5  2  0
  5  6  1  0
  6  7  2  0
  7  8  1  0
  8  9  1  0
  9 10  2  0
 10 11  1  0
 11 12  1  0
  7 13  1  0
 13 14  2  0
 14 15  1  0
 15 16  2  0
 16  2  1  0
 15  5  1  0
 12  8  2  0
  1 17  1  0
  1 18  1  0
  3 19  1  0
  4 20  1  0
  6 21  1  0
  9 22  1  0
 10 23  1  0
 12 24  1  0
 13 25  1  0
 14 26  1  0
M  END
>  <meeko>  (7) 
{"is_sidechain": [false], "free_energy": -6.392, "intermolecular_energy": -6.939, "internal_energy": -0.166}

$$$$
3rsx_ligand
     RDKit          3D

 26 28  0  0  0  0  0  0  0  0999 V2000
    9.2680   -0.1120   -5.8560 N   0  0  0  0  0  0  0  0  0  0  0  0
    8.1720    0.4280   -6.5250 C   0  0  0  0  0  0  0  0  0  0  0  0
    8.3350    1.4910   -7.3950 C   0  0  0  0  0  0  0  0  0  0  0  0
    7.2120    2.0130   -8.0280 C   0  0  0  0  0  0  0  0  0  0  0  0
    5.9540    1.4610   -7.7660 C   0  0  0  0  0  0  0  0  0  0  0  0
    4.7860    1.9530   -8.3780 C   0  0  0  0  0  0  0  0  0  0  0  0
    3.5380    1.3880   -8.0930 C   0  0  0  0  0  0  0  0  0  0  0  0
    2.3350    1.9020   -8.7370 C   0  0  0  0  0  0  0  0  0  0  0  0
    1.7550    1.4530   -9.9690 C   0  0  0  0  0  0  0  0  0  0  0  0
    0.6210    2.1570  -10.3090 C   0  0  0  0  0  0  0  0  0  0  0  0
    0.2510    3.3670   -9.1610 S   0  0  0  0  0  0  0  0  0  0  0  0
    1.6090    2.9500   -8.2040 C   0  0  0  0  0  0  0  0  0  0  0  0
    3.4740    0.3220   -7.1920 C   0  0  0  0  0  0  0  0  0  0  0  0
    4.6410   -0.1630   -6.5880 C   0  0  0  0  0  0  0  0  0  0  0  0
    5.8870    0.3870   -6.8570 C   0  0  0  0  0  0  0  0  0  0  0  0
    6.9760   -0.1170   -6.2490 N   0  0  0  0  0  0  0  0  0  0  0  0
   10.0420   -0.1150   -6.5170 H   0  0  0  0  0  0  0  0  0  0  0  0
    9.4900    0.4140   -5.0190 H   0  0  0  0  0  0  0  0  0  0  0  0
    9.3326    1.9149   -7.5824 H   0  0  0  0  0  0  0  0  0  0  0  0
    7.3126    2.8541   -8.7298 H   0  0  0  0  0  0  0  0  0  0  0  0
    4.8549    2.7905   -9.0878 H   0  0  0  0  0  0  0  0  0  0  0  0
    2.1704    0.6354  -10.5764 H   0  0  0  0  0  0  0  0  0  0  0  0
    0.0243    1.9632  -11.2126 H   0  0  0  0  0  0  0  0  0  0  0  0
    1.8744    3.4610   -7.2668 H   0  0  0  0  0  0  0  0  0  0  0  0
    2.5032   -0.1382   -6.9560 H   0  0  0  0  0  0  0  0  0  0  0  0
    4.5682   -1.0027   -5.8811 H   0  0  0  0  0  0  0  0  0  0  0  0
  1  2  1  0
  2  3  2  0
  3  4  1  0
  4  5  2  0
  5  6  1  0
  6  7  2  0
  7  8  1  0
  8  9  1  0
  9 10  2  0
 10 11  1  0
 11 12  1  0
  7 13  1  0
 13 14  2  0
 14 15  1  0
 15 16  2  0
 16  2  1  0
 15  5  1  0
 12  8  2  0
  1 17  1  0
  1 18  1  0
  3 19  1  0
  4 20  1  0
  6 21  1  0
  9 22  1  0
 10 23  1  0
 12 24  1  0
 13 25  1  0
 14 26  1  0
M  END
>  <meeko>  (8) 
{"is_sidechain": [false], "free_energy": -6.279, "intermolecular_energy": -6.829, "internal_energy": -0.153}

$$$$
3rsx_ligand
     RDKit          3D

 26 28  0  0  0  0  0  0  0  0999 V2000
   -0.4850   -1.9190  -15.2880 N   0  0  0  0  0  0  0  0  0  0  0  0
   -0.0120   -1.3360  -14.1150 C   0  0  0  0  0  0  0  0  0  0  0  0
   -0.1620   -1.9820  -12.9000 C   0  0  0  0  0  0  0  0  0  0  0  0
    0.3070   -1.3570  -11.7500 C   0  0  0  0  0  0  0  0  0  0  0  0
    0.9080   -0.0970  -11.8470 C   0  0  0  0  0  0  0  0  0  0  0  0
    1.3980    0.5790  -10.7130 C   0  0  0  0  0  0  0  0  0  0  0  0
    1.9870    1.8430  -10.8350 C   0  0  0  0  0  0  0  0  0  0  0  0
    2.4960    2.5320   -9.6550 C   0  0  0  0  0  0  0  0  0  0  0  0
    3.6610    2.1920   -8.8910 C   0  0  0  0  0  0  0  0  0  0  0  0
    3.8610    3.0400   -7.8250 C   0  0  0  0  0  0  0  0  0  0  0  0
    2.6490    4.2410   -7.7250 S   0  0  0  0  0  0  0  0  0  0  0  0
    1.8540    3.6280   -9.1120 C   0  0  0  0  0  0  0  0  0  0  0  0
    2.0850    2.4170  -12.1040 C   0  0  0  0  0  0  0  0  0  0  0  0
    1.5970    1.7380  -13.2270 C   0  0  0  0  0  0  0  0  0  0  0  0
    1.0070    0.4850  -13.1250 C   0  0  0  0  0  0  0  0  0  0  0  0
    0.5540   -0.1240  -14.2350 N   0  0  0  0  0  0  0  0  0  0  0  0
    0.0150   -2.7980  -15.4010 H   0  0  0  0  0  0  0  0  0  0  0  0
   -1.4880   -2.0580  -15.2560 H   0  0  0  0  0  0  0  0  0  0  0  0
   -0.6426   -2.9700  -12.8454 H   0  0  0  0  0  0  0  0  0  0  0  0
    0.2064   -1.8492  -10.7714 H   0  0  0  0  0  0  0  0  0  0  0  0
    1.3171    0.1092   -9.7217 H   0  0  0  0  0  0  0  0  0  0  0  0
    4.3224    1.3463   -9.1305 H   0  0  0  0  0  0  0  0  0  0  0  0
    4.7017    2.9547   -7.1207 H   0  0  0  0  0  0  0  0  0  0  0  0
    0.9312    4.0604   -9.5262 H   0  0  0  0  0  0  0  0  0  0  0  0
    2.5480    3.4078  -12.2221 H   0  0  0  0  0  0  0  0  0  0  0  0
    1.6833    2.2098  -14.2169 H   0  0  0  0  0  0  0  0  0  0  0  0
  1  2  1  0
  2  3  2  0
  3  4  1  0
  4  5  2  0
  5  6  1  0
  6  7  2  0
  7  8  1  0
  8  9  1  0
  9 10  2  0
 10 11  1  0
 11 12  1  0
  7 13  1  0
 13 14  2  0
 14 15  1  0
 15 16  2  0
 16  2  1  0
 15  5  1  0
 12  8  2  0
  1 17  1  0
  1 18  1  0
  3 19  1  0
  4 20  1  0
  6 21  1  0
  9 22  1  0
 10 23  1  0
 12 24  1  0
 13 25  1  0
 14 26  1  0
M  END
>  <meeko>  (9) 
{"is_sidechain": [false], "free_energy": -6.19, "intermolecular_energy": -6.731, "internal_energy": -0.155}

$$$$
