2pog_ligand
     RDKit          3D

 39 42  0  0  0  0  0  0  0  0999 V2000
    7.3010  -21.3470    2.6910 O   0  0  0  0  0  0  0  0  0  0  0  0
    7.0130  -20.5220    3.7380 C   0  0  0  0  0  0  0  0  0  0  0  0
    7.5770  -20.8200    4.9720 C   0  0  0  0  0  0  0  0  0  0  0  0
    7.3080  -20.0030    6.0720 C   0  0  0  0  0  0  0  0  0  0  0  0
    6.4760  -18.8800    5.9440 C   0  0  0  0  0  0  0  0  0  0  0  0
    6.1480  -17.9840    7.1300 C   0  0  2  0  0  0  0  0  0  0  0  0
    5.2600  -16.9330    6.7240 O   0  0  0  0  0  0  0  0  0  0  0  0
    4.8790  -16.1340    7.7690 C   0  0  0  0  0  0  0  0  0  0  0  0
    3.6370  -15.5130    7.6420 C   0  0  0  0  0  0  0  0  0  0  0  0
    3.1520  -14.7020    8.6650 C   0  0  0  0  0  0  0  0  0  0  0  0
    3.9120  -14.5120    9.8170 C   0  0  0  0  0  0  0  0  0  0  0  0
    5.1650  -15.1180    9.9260 C   0  0  0  0  0  0  0  0  0  0  0  0
    5.9120  -14.9360   11.0570 O   0  0  0  0  0  0  0  0  0  0  0  0
    5.6800  -15.9190    8.8980 C   0  0  0  0  0  0  0  0  0  0  0  0
    7.0600  -16.5300    8.9950 C   0  0  2  0  0  0  0  0  0  0  0  0
    8.1740  -15.4610    9.0430 C   0  0  0  0  0  0  0  0  0  0  0  0
    9.1360  -15.7890    7.9080 C   0  0  0  0  0  0  0  0  0  0  0  0
    8.2690  -16.5160    6.8960 C   0  0  0  0  0  0  0  0  0  0  0  0
    7.4100  -17.4210    7.7870 C   0  0  2  0  0  0  0  0  0  0  0  0
    5.9130  -18.6010    4.6850 C   0  0  0  0  0  0  0  0  0  0  0  0
    6.1810  -19.4190    3.5840 C   0  0  0  0  0  0  0  0  0  0  0  0
    8.0660  -21.8950    2.9310 H   0  0  0  0  0  0  0  0  0  0  0  0
    8.2329  -21.6961    5.0822 H   0  0  0  0  0  0  0  0  0  0  0  0
    7.7529  -20.2421    7.0492 H   0  0  0  0  0  0  0  0  0  0  0  0
    5.6424  -18.5984    7.8895 H   0  0  0  0  0  0  0  0  0  0  0  0
    3.0387  -15.6641    6.7314 H   0  0  0  0  0  0  0  0  0  0  0  0
    2.1719  -14.2130    8.5637 H   0  0  0  0  0  0  0  0  0  0  0  0
    3.5268  -13.8876   10.6366 H   0  0  0  0  0  0  0  0  0  0  0  0
    5.3960  -15.2280   11.8250 H   0  0  0  0  0  0  0  0  0  0  0  0
    7.0194  -17.1187    9.9233 H   0  0  0  0  0  0  0  0  0  0  0  0
    7.7451  -14.4582    8.9000 H   0  0  0  0  0  0  0  0  0  0  0  0
    8.6887  -15.4656   10.0151 H   0  0  0  0  0  0  0  0  0  0  0  0
    9.5578  -14.8704    7.4742 H   0  0  0  0  0  0  0  0  0  0  0  0
    9.9961  -16.3891    8.2398 H   0  0  0  0  0  0  0  0  0  0  0  0
    7.6456  -15.8108    6.3267 H   0  0  0  0  0  0  0  0  0  0  0  0
    8.8460  -17.0659    6.1379 H   0  0  0  0  0  0  0  0  0  0  0  0
    7.9696  -18.3321    8.0451 H   0  0  0  0  0  0  0  0  0  0  0  0
    5.2539  -17.7284    4.5659 H   0  0  0  0  0  0  0  0  0  0  0  0
    5.7372  -19.1919    2.6035 H   0  0  0  0  0  0  0  0  0  0  0  0
  1  2  1  0
  2  3  2  0
  3  4  1  0
  4  5  2  0
  5  6  1  0
  6  7  1  0
  7  8  1  0
  8  9  2  0
  9 10  1  0
 10 11  2  0
 11 12  1  0
 12 13  1  0
 12 14  2  0
 14 15  1  0
 15 16  1  0
 16 17  1  0
 17 18  1  0
 18 19  1  0
  5 20  1  0
 20 21  2  0
 21  2  1  0
 19  6  1  0
 14  8  1  0
 19 15  1  0
  1 22  1  0
  3 23  1  0
  4 24  1  0
  6 25  1  1
  9 26  1  0
 10 27  1  0
 11 28  1  0
 13 29  1  0
 15 30  1  1
 16 31  1  0
 16 32  1  0
 17 33  1  0
 17 34  1  0
 18 35  1  0
 18 36  1  0
 19 37  1  1
 20 38  1  0
 21 39  1  0
M  END
>  <meeko>  (1) 
{"is_sidechain": [false], "free_energy": -9.143, "intermolecular_energy": -10.212, "internal_energy": -0.562}

$$$$
2pog_ligand
     RDKit          3D

 39 42  0  0  0  0  0  0  0  0999 V2000
    7.4090  -21.5610    2.2810 O   0  0  0  0  0  0  0  0  0  0  0  0
    7.4110  -20.6960    3.3350 C   0  0  0  0  0  0  0  0  0  0  0  0
    7.4510  -21.2330    4.6140 C   0  0  0  0  0  0  0  0  0  0  0  0
    7.4530  -20.3840    5.7230 C   0  0  0  0  0  0  0  0  0  0  0  0
    7.4180  -18.9900    5.5570 C   0  0  0  0  0  0  0  0  0  0  0  0
    7.3970  -18.0410    6.7470 C   0  0  2  0  0  0  0  0  0  0  0  0
    7.2430  -18.7800    7.9660 O   0  0  0  0  0  0  0  0  0  0  0  0
    7.2840  -17.9790    9.0760 C   0  0  0  0  0  0  0  0  0  0  0  0
    7.7350  -18.5840   10.2500 C   0  0  0  0  0  0  0  0  0  0  0  0
    7.8370  -17.8420   11.4240 C   0  0  0  0  0  0  0  0  0  0  0  0
    7.4860  -16.4940   11.4240 C   0  0  0  0  0  0  0  0  0  0  0  0
    7.0130  -15.9030   10.2520 C   0  0  0  0  0  0  0  0  0  0  0  0
    6.6700  -14.5790   10.2480 O   0  0  0  0  0  0  0  0  0  0  0  0
    6.8810  -16.6380    9.0650 C   0  0  0  0  0  0  0  0  0  0  0  0
    6.3170  -16.0090    7.8110 C   0  0  2  0  0  0  0  0  0  0  0  0
    4.8460  -15.5730    7.9830 C   0  0  0  0  0  0  0  0  0  0  0  0
    4.0610  -16.2500    6.8670 C   0  0  0  0  0  0  0  0  0  0  0  0
    4.8730  -17.4950    6.5560 C   0  0  0  0  0  0  0  0  0  0  0  0
    6.3130  -16.9710    6.6060 C   0  0  2  0  0  0  0  0  0  0  0  0
    7.3730  -18.4700    4.2510 C   0  0  0  0  0  0  0  0  0  0  0  0
    7.3710  -19.3190    3.1420 C   0  0  0  0  0  0  0  0  0  0  0  0
    7.4220  -22.4680    2.6270 H   0  0  0  0  0  0  0  0  0  0  0  0
    7.4810  -22.3237    4.7539 H   0  0  0  0  0  0  0  0  0  0  0  0
    7.4823  -20.8114    6.7362 H   0  0  0  0  0  0  0  0  0  0  0  0
    8.3615  -17.5128    6.7756 H   0  0  0  0  0  0  0  0  0  0  0  0
    8.0104  -19.6490   10.2480 H   0  0  0  0  0  0  0  0  0  0  0  0
    8.1937  -18.3190   12.3487 H   0  0  0  0  0  0  0  0  0  0  0  0
    7.5813  -15.8982   12.3438 H   0  0  0  0  0  0  0  0  0  0  0  0
    7.3180  -14.0860   10.7760 H   0  0  0  0  0  0  0  0  0  0  0  0
    6.9783  -15.1488    7.6302 H   0  0  0  0  0  0  0  0  0  0  0  0
    4.4664  -15.8949    8.9640 H   0  0  0  0  0  0  0  0  0  0  0  0
    4.7469  -14.4787    7.9318 H   0  0  0  0  0  0  0  0  0  0  0  0
    3.0491  -16.5168    7.2059 H   0  0  0  0  0  0  0  0  0  0  0  0
    3.9243  -15.6012    5.9893 H   0  0  0  0  0  0  0  0  0  0  0  0
    4.7077  -18.2768    7.3119 H   0  0  0  0  0  0  0  0  0  0  0  0
    4.6091  -17.9630    5.5962 H   0  0  0  0  0  0  0  0  0  0  0  0
    6.5725  -16.4958    5.6485 H   0  0  0  0  0  0  0  0  0  0  0  0
    7.3389  -17.3808    4.1011 H   0  0  0  0  0  0  0  0  0  0  0  0
    7.3381  -18.9023    2.1245 H   0  0  0  0  0  0  0  0  0  0  0  0
  1  2  1  0
  2  3  2  0
  3  4  1  0
  4  5  2  0
  5  6  1  0
  6  7  1  0
  7  8  1  0
  8  9  2  0
  9 10  1  0
 10 11  2  0
 11 12  1  0
 12 13  1  0
 12 14  2  0
 14 15  1  0
 15 16  1  0
 16 17  1  0
 17 18  1  0
 18 19  1  0
  5 20  1  0
 20 21  2  0
 21  2  1  0
 19  6  1  0
 14  8  1  0
 19 15  1  0
  1 22  1  0
  3 23  1  0
  4 24  1  0
  6 25  1  1
  9 26  1  0
 10 27  1  0
 11 28  1  0
 13 29  1  0
 15 30  1  6
 16 31  1  0
 16 32  1  0
 17 33  1  0
 17 34  1  0
 18 35  1  0
 18 36  1  0
 19 37  1  6
 20 38  1  0
 21 39  1  0
M  END
>  <meeko>  (2) 
{"is_sidechain": [false], "free_energy": -8.441, "intermolecular_energy": -9.475, "internal_energy": -0.516}

$$$$
2pog_ligand
     RDKit          3D

 39 42  0  0  0  0  0  0  0  0999 V2000
   10.2690  -18.6060   13.1590 O   0  0  0  0  0  0  0  0  0  0  0  0
    9.5870  -18.2300   12.0390 C   0  0  0  0  0  0  0  0  0  0  0  0
    8.4300  -18.9290   11.7200 C   0  0  0  0  0  0  0  0  0  0  0  0
    7.7010  -18.5780   10.5820 C   0  0  0  0  0  0  0  0  0  0  0  0
    8.1230  -17.5230    9.7580 C   0  0  0  0  0  0  0  0  0  0  0  0
    7.3600  -17.1330    8.5000 C   0  0  2  0  0  0  0  0  0  0  0  0
    5.9520  -17.0950    8.7680 O   0  0  0  0  0  0  0  0  0  0  0  0
    5.2210  -16.6840    7.6850 C   0  0  0  0  0  0  0  0  0  0  0  0
    4.0090  -16.0560    7.9690 C   0  0  0  0  0  0  0  0  0  0  0  0
    3.2090  -15.5800    6.9340 C   0  0  0  0  0  0  0  0  0  0  0  0
    3.6220  -15.7340    5.6110 C   0  0  0  0  0  0  0  0  0  0  0  0
    4.8250  -16.3850    5.3350 C   0  0  0  0  0  0  0  0  0  0  0  0
    5.2350  -16.5350    4.0390 O   0  0  0  0  0  0  0  0  0  0  0  0
    5.6340  -16.8920    6.3620 C   0  0  0  0  0  0  0  0  0  0  0  0
    6.9090  -17.6450    6.0580 C   0  0  2  0  0  0  0  0  0  0  0  0
    6.6460  -18.9610    5.2930 C   0  0  0  0  0  0  0  0  0  0  0  0
    7.2960  -20.0710    6.1090 C   0  0  0  0  0  0  0  0  0  0  0  0
    7.2860  -19.5320    7.5280 C   0  0  0  0  0  0  0  0  0  0  0  0
    7.6770  -18.0640    7.3270 C   0  0  2  0  0  0  0  0  0  0  0  0
    9.3010  -16.8340   10.0990 C   0  0  0  0  0  0  0  0  0  0  0  0
   10.0310  -17.1840   11.2380 C   0  0  0  0  0  0  0  0  0  0  0  0
   11.1520  -18.2020   13.1330 H   0  0  0  0  0  0  0  0  0  0  0  0
    8.0895  -19.7555   12.3610 H   0  0  0  0  0  0  0  0  0  0  0  0
    6.7864  -19.1341   10.3286 H   0  0  0  0  0  0  0  0  0  0  0  0
    7.6888  -16.1262    8.2031 H   0  0  0  0  0  0  0  0  0  0  0  0
    3.6843  -15.9364    9.0132 H   0  0  0  0  0  0  0  0  0  0  0  0
    2.2535  -15.0837    7.1592 H   0  0  0  0  0  0  0  0  0  0  0  0
    3.0029  -15.3444    4.7895 H   0  0  0  0  0  0  0  0  0  0  0  0
    6.0110  -15.9720    3.8890 H   0  0  0  0  0  0  0  0  0  0  0  0
    7.4947  -16.9341    5.4567 H   0  0  0  0  0  0  0  0  0  0  0  0
    5.5642  -19.1388    5.2029 H   0  0  0  0  0  0  0  0  0  0  0  0
    7.0606  -18.9198    4.2750 H   0  0  0  0  0  0  0  0  0  0  0  0
    6.7131  -21.0012    6.0392 H   0  0  0  0  0  0  0  0  0  0  0  0
    8.3075  -20.3210    5.7565 H   0  0  0  0  0  0  0  0  0  0  0  0
    6.2867  -19.6191    7.9794 H   0  0  0  0  0  0  0  0  0  0  0  0
    7.9575  -20.0758    8.2087 H   0  0  0  0  0  0  0  0  0  0  0  0
    8.7702  -17.9753    7.2426 H   0  0  0  0  0  0  0  0  0  0  0  0
    9.6519  -16.0094    9.4611 H   0  0  0  0  0  0  0  0  0  0  0  0
   10.9489  -16.6367   11.4986 H   0  0  0  0  0  0  0  0  0  0  0  0
  1  2  1  0
  2  3  2  0
  3  4  1  0
  4  5  2  0
  5  6  1  0
  6  7  1  0
  7  8  1  0
  8  9  2  0
  9 10  1  0
 10 11  2  0
 11 12  1  0
 12 13  1  0
 12 14  2  0
 14 15  1  0
 15 16  1  0
 16 17  1  0
 17 18  1  0
 18 19  1  0
  5 20  1  0
 20 21  2  0
 21  2  1  0
 19  6  1  0
 14  8  1  0
 19 15  1  0
  1 22  1  0
  3 23  1  0
  4 24  1  0
  6 25  1  6
  9 26  1  0
 10 27  1  0
 11 28  1  0
 13 29  1  0
 15 30  1  6
 16 31  1  0
 16 32  1  0
 17 33  1  0
 17 34  1  0
 18 35  1  0
 18 36  1  0
 19 37  1  6
 20 38  1  0
 21 39  1  0
M  END
>  <meeko>  (3) 
{"is_sidechain": [false], "free_energy": -8.13, "intermolecular_energy": -9.404, "internal_energy": -0.24}

$$$$
2pog_ligand
     RDKit          3D

 39 42  0  0  0  0  0  0  0  0999 V2000
   12.4230  -16.4940   12.4950 O   0  0  0  0  0  0  0  0  0  0  0  0
   11.3180  -16.6180   11.7050 C   0  0  0  0  0  0  0  0  0  0  0  0
   10.3750  -17.5750   12.0560 C   0  0  0  0  0  0  0  0  0  0  0  0
    9.2290  -17.7380   11.2760 C   0  0  0  0  0  0  0  0  0  0  0  0
    9.0170  -16.9410   10.1390 C   0  0  0  0  0  0  0  0  0  0  0  0
    7.7880  -17.1100    9.2580 C   0  0  2  0  0  0  0  0  0  0  0  0
    8.1010  -16.7620    7.9020 O   0  0  0  0  0  0  0  0  0  0  0  0
    7.0460  -16.9600    7.0510 C   0  0  0  0  0  0  0  0  0  0  0  0
    7.3760  -17.2330    5.7230 C   0  0  0  0  0  0  0  0  0  0  0  0
    6.3710  -17.4750    4.7900 C   0  0  0  0  0  0  0  0  0  0  0  0
    5.0350  -17.4410    5.1850 C   0  0  0  0  0  0  0  0  0  0  0  0
    4.7140  -17.1440    6.5100 C   0  0  0  0  0  0  0  0  0  0  0  0
    3.4040  -17.1140    6.9020 O   0  0  0  0  0  0  0  0  0  0  0  0
    5.7090  -16.8760    7.4600 C   0  0  0  0  0  0  0  0  0  0  0  0
    5.3560  -16.4990    8.8810 C   0  0  2  0  0  0  0  0  0  0  0  0
    4.5860  -15.1640    8.9630 C   0  0  0  0  0  0  0  0  0  0  0  0
    5.3680  -14.2710    9.9170 C   0  0  0  0  0  0  0  0  0  0  0  0
    6.7930  -14.7840    9.8080 C   0  0  0  0  0  0  0  0  0  0  0  0
    6.5960  -16.3030    9.7770 C   0  0  2  0  0  0  0  0  0  0  0  0
    9.9890  -15.9810    9.8020 C   0  0  0  0  0  0  0  0  0  0  0  0
   11.1360  -15.8180   10.5830 C   0  0  0  0  0  0  0  0  0  0  0  0
   12.6590  -17.3720   12.8350 H   0  0  0  0  0  0  0  0  0  0  0  0
   10.5306  -18.2026   12.9459 H   0  0  0  0  0  0  0  0  0  0  0  0
    8.4844  -18.4983   11.5545 H   0  0  0  0  0  0  0  0  0  0  0  0
    7.4913  -18.1687    9.2906 H   0  0  0  0  0  0  0  0  0  0  0  0
    8.4311  -17.2571    5.4128 H   0  0  0  0  0  0  0  0  0  0  0  0
    6.6311  -17.6925    3.7436 H   0  0  0  0  0  0  0  0  0  0  0  0
    4.2376  -17.6473    4.4559 H   0  0  0  0  0  0  0  0  0  0  0  0
    3.3470  -17.4080    7.8250 H   0  0  0  0  0  0  0  0  0  0  0  0
    4.7434  -17.3439    9.2288 H   0  0  0  0  0  0  0  0  0  0  0  0
    4.5270  -14.6977    7.9685 H   0  0  0  0  0  0  0  0  0  0  0  0
    3.5567  -15.3199    9.3181 H   0  0  0  0  0  0  0  0  0  0  0  0
    5.3061  -13.2174    9.6070 H   0  0  0  0  0  0  0  0  0  0  0  0
    4.9809  -14.3062   10.9460 H   0  0  0  0  0  0  0  0  0  0  0  0
    7.2749  -14.4266    8.8860 H   0  0  0  0  0  0  0  0  0  0  0  0
    7.4460  -14.4427   10.6247 H   0  0  0  0  0  0  0  0  0  0  0  0
    6.4781  -16.6866   10.8012 H   0  0  0  0  0  0  0  0  0  0  0  0
    9.8440  -15.3507    8.9122 H   0  0  0  0  0  0  0  0  0  0  0  0
   11.8887  -15.0629   10.3122 H   0  0  0  0  0  0  0  0  0  0  0  0
  1  2  1  0
  2  3  2  0
  3  4  1  0
  4  5  2  0
  5  6  1  0
  6  7  1  0
  7  8  1  0
  8  9  2  0
  9 10  1  0
 10 11  2  0
 11 12  1  0
 12 13  1  0
 12 14  2  0
 14 15  1  0
 15 16  1  0
 16 17  1  0
 17 18  1  0
 18 19  1  0
  5 20  1  0
 20 21  2  0
 21  2  1  0
 19  6  1  0
 14  8  1  0
 19 15  1  0
  1 22  1  0
  3 23  1  0
  4 24  1  0
  6 25  1  6
  9 26  1  0
 10 27  1  0
 11 28  1  0
 13 29  1  0
 15 30  1  1
 16 31  1  0
 16 32  1  0
 17 33  1  0
 17 34  1  0
 18 35  1  0
 18 36  1  0
 19 37  1  1
 20 38  1  0
 21 39  1  0
M  END
>  <meeko>  (4) 
{"is_sidechain": [false], "free_energy": -8.019, "intermolecular_energy": -9.113, "internal_energy": -0.406}

$$$$
2pog_ligand
     RDKit          3D

 39 42  0  0  0  0  0  0  0  0999 V2000
    7.0780  -20.9020    2.7600 O   0  0  0  0  0  0  0  0  0  0  0  0
    6.7470  -19.9270    3.6560 C   0  0  0  0  0  0  0  0  0  0  0  0
    5.9350  -18.8910    3.2150 C   0  0  0  0  0  0  0  0  0  0  0  0
    5.5720  -17.8720    4.0970 C   0  0  0  0  0  0  0  0  0  0  0  0
    6.0180  -17.8840    5.4290 C   0  0  0  0  0  0  0  0  0  0  0  0
    5.6570  -16.7760    6.4070 C   0  0  2  0  0  0  0  0  0  0  0  0
    6.3380  -16.9760    7.6540 O   0  0  0  0  0  0  0  0  0  0  0  0
    6.0990  -15.9680    8.5510 C   0  0  0  0  0  0  0  0  0  0  0  0
    7.1050  -15.7370    9.4900 C   0  0  0  0  0  0  0  0  0  0  0  0
    6.9650  -14.7150   10.4260 C   0  0  0  0  0  0  0  0  0  0  0  0
    5.8160  -13.9260   10.4240 C   0  0  0  0  0  0  0  0  0  0  0  0
    4.8060  -14.1800    9.4960 C   0  0  0  0  0  0  0  0  0  0  0  0
    3.6790  -13.4050    9.4880 O   0  0  0  0  0  0  0  0  0  0  0  0
    4.9170  -15.2180    8.5600 C   0  0  0  0  0  0  0  0  0  0  0  0
    3.7960  -15.5260    7.5920 C   0  0  2  0  0  0  0  0  0  0  0  0
    2.5110  -15.9930    8.3100 C   0  0  0  0  0  0  0  0  0  0  0  0
    2.1430  -17.3400    7.7030 C   0  0  0  0  0  0  0  0  0  0  0  0
    3.4700  -17.8970    7.2220 C   0  0  0  0  0  0  0  0  0  0  0  0
    4.1450  -16.6640    6.6120 C   0  0  2  0  0  0  0  0  0  0  0  0
    6.8440  -18.9420    5.8500 C   0  0  0  0  0  0  0  0  0  0  0  0
    7.2070  -19.9630    4.9670 C   0  0  0  0  0  0  0  0  0  0  0  0
    7.4000  -21.6750    3.2510 H   0  0  0  0  0  0  0  0  0  0  0  0
    5.5790  -18.8732    2.1743 H   0  0  0  0  0  0  0  0  0  0  0  0
    4.9300  -17.0509    3.7454 H   0  0  0  0  0  0  0  0  0  0  0  0
    5.9892  -15.8209    5.9740 H   0  0  0  0  0  0  0  0  0  0  0  0
    8.0097  -16.3627    9.4910 H   0  0  0  0  0  0  0  0  0  0  0  0
    7.7590  -14.5311   11.1647 H   0  0  0  0  0  0  0  0  0  0  0  0
    5.7062  -13.1073   11.1504 H   0  0  0  0  0  0  0  0  0  0  0  0
    3.9070  -12.5170    9.8070 H   0  0  0  0  0  0  0  0  0  0  0  0
    3.6424  -14.5759    7.0593 H   0  0  0  0  0  0  0  0  0  0  0  0
    2.6959  -16.1000    9.3890 H   0  0  0  0  0  0  0  0  0  0  0  0
    1.6971  -15.2638    8.1841 H   0  0  0  0  0  0  0  0  0  0  0  0
    1.6922  -18.0000    8.4587 H   0  0  0  0  0  0  0  0  0  0  0  0
    1.4010  -17.2535    6.8955 H   0  0  0  0  0  0  0  0  0  0  0  0
    4.0592  -18.2995    8.0592 H   0  0  0  0  0  0  0  0  0  0  0  0
    3.3645  -18.7338    6.5159 H   0  0  0  0  0  0  0  0  0  0  0  0
    3.7788  -16.5048    5.5870 H   0  0  0  0  0  0  0  0  0  0  0  0
    7.2089  -18.9662    6.8874 H   0  0  0  0  0  0  0  0  0  0  0  0
    7.8510  -20.7876    5.3067 H   0  0  0  0  0  0  0  0  0  0  0  0
  1  2  1  0
  2  3  2  0
  3  4  1  0
  4  5  2  0
  5  6  1  0
  6  7  1  0
  7  8  1  0
  8  9  2  0
  9 10  1  0
 10 11  2  0
 11 12  1  0
 12 13  1  0
 12 14  2  0
 14 15  1  0
 15 16  1  0
 16 17  1  0
 17 18  1  0
 18 19  1  0
  5 20  1  0
 20 21  2  0
 21  2  1  0
 19  6  1  0
 14  8  1  0
 19 15  1  0
  1 22  1  0
  3 23  1  0
  4 24  1  0
  6 25  1  6
  9 26  1  0
 10 27  1  0
 11 28  1  0
 13 29  1  0
 15 30  1  6
 16 31  1  0
 16 32  1  0
 17 33  1  0
 17 34  1  0
 18 35  1  0
 18 36  1  0
 19 37  1  6
 20 38  1  0
 21 39  1  0
M  END
>  <meeko>  (5) 
{"is_sidechain": [false], "free_energy": -7.941, "intermolecular_energy": -8.866, "internal_energy": -0.566}

$$$$
2pog_ligand
     RDKit          3D

 39 42  0  0  0  0  0  0  0  0999 V2000
   10.3640  -18.6060   13.6810 O   0  0  0  0  0  0  0  0  0  0  0  0
    9.5340  -18.4240   12.6140 C   0  0  0  0  0  0  0  0  0  0  0  0
    9.9810  -17.6170   11.5770 C   0  0  0  0  0  0  0  0  0  0  0  0
    9.1640  -17.4020   10.4650 C   0  0  0  0  0  0  0  0  0  0  0  0
    7.8960  -17.9980   10.3820 C   0  0  0  0  0  0  0  0  0  0  0  0
    6.9750  -17.7650    9.1930 C   0  0  2  0  0  0  0  0  0  0  0  0
    7.7490  -17.5370    8.0070 O   0  0  0  0  0  0  0  0  0  0  0  0
    6.9690  -17.3860    6.8910 C   0  0  0  0  0  0  0  0  0  0  0  0
    7.5580  -17.7510    5.6810 C   0  0  0  0  0  0  0  0  0  0  0  0
    6.8340  -17.6590    4.4950 C   0  0  0  0  0  0  0  0  0  0  0  0
    5.5190  -17.1980    4.5200 C   0  0  0  0  0  0  0  0  0  0  0  0
    4.9460  -16.8120    5.7320 C   0  0  0  0  0  0  0  0  0  0  0  0
    3.6540  -16.3630    5.7610 O   0  0  0  0  0  0  0  0  0  0  0  0
    5.6650  -16.8770    6.9340 C   0  0  0  0  0  0  0  0  0  0  0  0
    5.0600  -16.4060    8.2370 C   0  0  2  0  0  0  0  0  0  0  0  0
    4.7490  -14.8930    8.2290 C   0  0  0  0  0  0  0  0  0  0  0  0
    5.4660  -14.2990    9.4340 C   0  0  0  0  0  0  0  0  0  0  0  0
    6.6330  -15.2420    9.6640 C   0  0  0  0  0  0  0  0  0  0  0  0
    5.9940  -16.6170    9.4450 C   0  0  2  0  0  0  0  0  0  0  0  0
    7.4640  -18.8080   11.4480 C   0  0  0  0  0  0  0  0  0  0  0  0
    8.2810  -19.0230   12.5610 C   0  0  0  0  0  0  0  0  0  0  0  0
   10.3000  -19.5320   13.9670 H   0  0  0  0  0  0  0  0  0  0  0  0
   10.9748  -17.1486   11.6308 H   0  0  0  0  0  0  0  0  0  0  0  0
    9.5179  -16.7589    9.6457 H   0  0  0  0  0  0  0  0  0  0  0  0
    6.3699  -18.6724    9.0500 H   0  0  0  0  0  0  0  0  0  0  0  0
    8.5968  -18.1124    5.6632 H   0  0  0  0  0  0  0  0  0  0  0  0
    7.2987  -17.9494    3.5412 H   0  0  0  0  0  0  0  0  0  0  0  0
    4.9360  -17.1388    3.5891 H   0  0  0  0  0  0  0  0  0  0  0  0
    3.1910  -16.6890    4.9730 H   0  0  0  0  0  0  0  0  0  0  0  0
    4.1453  -17.0096    8.3318 H   0  0  0  0  0  0  0  0  0  0  0  0
    5.1202  -14.4334    7.3011 H   0  0  0  0  0  0  0  0  0  0  0  0
    3.6657  -14.7088    8.2795 H   0  0  0  0  0  0  0  0  0  0  0  0
    5.8220  -13.2814    9.2154 H   0  0  0  0  0  0  0  0  0  0  0  0
    4.8131  -14.2084   10.3146 H   0  0  0  0  0  0  0  0  0  0  0  0
    7.4410  -15.0590    8.9403 H   0  0  0  0  0  0  0  0  0  0  0  0
    7.1016  -15.1279   10.6526 H   0  0  0  0  0  0  0  0  0  0  0  0
    5.4795  -16.9409   10.3617 H   0  0  0  0  0  0  0  0  0  0  0  0
    6.4704  -19.2781   11.4048 H   0  0  0  0  0  0  0  0  0  0  0  0
    7.9355  -19.6607   13.3880 H   0  0  0  0  0  0  0  0  0  0  0  0
  1  2  1  0
  2  3  2  0
  3  4  1  0
  4  5  2  0
  5  6  1  0
  6  7  1  0
  7  8  1  0
  8  9  2  0
  9 10  1  0
 10 11  2  0
 11 12  1  0
 12 13  1  0
 12 14  2  0
 14 15  1  0
 15 16  1  0
 16 17  1  0
 17 18  1  0
 18 19  1  0
  5 20  1  0
 20 21  2  0
 21  2  1  0
 19  6  1  0
 14  8  1  0
 19 15  1  0
  1 22  1  0
  3 23  1  0
  4 24  1  0
  6 25  1  6
  9 26  1  0
 10 27  1  0
 11 28  1  0
 13 29  1  0
 15 30  1  1
 16 31  1  0
 16 32  1  0
 17 33  1  0
 17 34  1  0
 18 35  1  0
 18 36  1  0
 19 37  1  1
 20 38  1  0
 21 39  1  0
M  END
>  <meeko>  (6) 
{"is_sidechain": [false], "free_energy": -7.765, "intermolecular_energy": -8.825, "internal_energy": -0.411}

$$$$
2pog_ligand
     RDKit          3D

 39 42  0  0  0  0  0  0  0  0999 V2000
   13.1220  -17.3070   12.0710 O   0  0  0  0  0  0  0  0  0  0  0  0
   11.9620  -16.9820   11.4310 C   0  0  0  0  0  0  0  0  0  0  0  0
   10.7910  -17.5880   11.8650 C   0  0  0  0  0  0  0  0  0  0  0  0
    9.5800  -17.2860   11.2380 C   0  0  0  0  0  0  0  0  0  0  0  0
    9.5350  -16.3720   10.1730 C   0  0  0  0  0  0  0  0  0  0  0  0
    8.2340  -16.0390    9.4560 C   0  0  2  0  0  0  0  0  0  0  0  0
    7.1940  -15.7870   10.4120 O   0  0  0  0  0  0  0  0  0  0  0  0
    6.0150  -15.4180    9.8210 C   0  0  0  0  0  0  0  0  0  0  0  0
    5.1750  -14.6090   10.5870 C   0  0  0  0  0  0  0  0  0  0  0  0
    3.9670  -14.1590   10.0600 C   0  0  0  0  0  0  0  0  0  0  0  0
    3.5970  -14.5220    8.7670 C   0  0  0  0  0  0  0  0  0  0  0  0
    4.4320  -15.3510    8.0160 C   0  0  0  0  0  0  0  0  0  0  0  0
    4.0730  -15.7070    6.7450 O   0  0  0  0  0  0  0  0  0  0  0  0
    5.6420  -15.8320    8.5360 C   0  0  0  0  0  0  0  0  0  0  0  0
    6.5170  -16.7750    7.7420 C   0  0  2  0  0  0  0  0  0  0  0  0
    5.8260  -18.1270    7.4640 C   0  0  0  0  0  0  0  0  0  0  0  0
    6.7600  -19.2070    7.9930 C   0  0  0  0  0  0  0  0  0  0  0  0
    7.5400  -18.5060    9.0920 C   0  0  0  0  0  0  0  0  0  0  0  0
    7.8280  -17.1360    8.4700 C   0  0  2  0  0  0  0  0  0  0  0  0
   10.7350  -15.7740    9.7480 C   0  0  0  0  0  0  0  0  0  0  0  0
   11.9460  -16.0770   10.3760 C   0  0  0  0  0  0  0  0  0  0  0  0
   13.8630  -16.9050   11.5900 H   0  0  0  0  0  0  0  0  0  0  0  0
   10.8167  -18.3037   12.6999 H   0  0  0  0  0  0  0  0  0  0  0  0
    8.6531  -17.7685   11.5816 H   0  0  0  0  0  0  0  0  0  0  0  0
    8.3968  -15.1261    8.8643 H   0  0  0  0  0  0  0  0  0  0  0  0
    5.4674  -14.3261   11.6090 H   0  0  0  0  0  0  0  0  0  0  0  0
    3.3067  -13.5186   10.6632 H   0  0  0  0  0  0  0  0  0  0  0  0
    2.6513  -14.1571    8.3398 H   0  0  0  0  0  0  0  0  0  0  0  0
    4.4180  -16.5950    6.5600 H   0  0  0  0  0  0  0  0  0  0  0  0
    6.7178  -16.2220    6.8125 H   0  0  0  0  0  0  0  0  0  0  0  0
    4.8582  -18.1732    7.9847 H   0  0  0  0  0  0  0  0  0  0  0  0
    5.6315  -18.2607    6.3896 H   0  0  0  0  0  0  0  0  0  0  0  0
    6.1885  -20.0551    8.3981 H   0  0  0  0  0  0  0  0  0  0  0  0
    7.4104  -19.6267    7.2115 H   0  0  0  0  0  0  0  0  0  0  0  0
    6.9376  -18.4086   10.0072 H   0  0  0  0  0  0  0  0  0  0  0  0
    8.4464  -19.0473    9.4008 H   0  0  0  0  0  0  0  0  0  0  0  0
    8.7070  -17.2006    7.8118 H   0  0  0  0  0  0  0  0  0  0  0  0
   10.7201  -15.0596    8.9117 H   0  0  0  0  0  0  0  0  0  0  0  0
   12.8794  -15.6030   10.0381 H   0  0  0  0  0  0  0  0  0  0  0  0
  1  2  1  0
  2  3  2  0
  3  4  1  0
  4  5  2  0
  5  6  1  0
  6  7  1  0
  7  8  1  0
  8  9  2  0
  9 10  1  0
 10 11  2  0
 11 12  1  0
 12 13  1  0
 12 14  2  0
 14 15  1  0
 15 16  1  0
 16 17  1  0
 17 18  1  0
 18 19  1  0
  5 20  1  0
 20 21  2  0
 21  2  1  0
 19  6  1  0
 14  8  1  0
 19 15  1  0
  1 22  1  0
  3 23  1  0
  4 24  1  0
  6 25  1  6
  9 26  1  0
 10 27  1  0
 11 28  1  0
 13 29  1  0
 15 30  1  6
 16 31  1  0
 16 32  1  0
 17 33  1  0
 17 34  1  0
 18 35  1  0
 18 36  1  0
 19 37  1  6
 20 38  1  0
 21 39  1  0
M  END
>  <meeko>  (7) 
{"is_sidechain": [false], "free_energy": -7.241, "intermolecular_energy": -8.436, "internal_energy": -0.214}

$$$$
2pog_ligand
     RDKit          3D

 39 42  0  0  0  0  0  0  0  0999 V2000
    4.8420  -16.0160    5.6600 O   0  0  0  0  0  0  0  0  0  0  0  0
    5.8110  -15.9680    6.6180 C   0  0  0  0  0  0  0  0  0  0  0  0
    7.1010  -16.3310    6.2550 C   0  0  0  0  0  0  0  0  0  0  0  0
    8.1240  -16.2990    7.2040 C   0  0  0  0  0  0  0  0  0  0  0  0
    7.8630  -15.8980    8.5250 C   0  0  0  0  0  0  0  0  0  0  0  0
    8.9530  -15.8730    9.5860 C   0  0  2  0  0  0  0  0  0  0  0  0
   10.2320  -16.1290    8.9870 O   0  0  0  0  0  0  0  0  0  0  0  0
   11.2600  -16.0530    9.8890 C   0  0  0  0  0  0  0  0  0  0  0  0
   12.5030  -15.6930    9.3680 C   0  0  0  0  0  0  0  0  0  0  0  0
   13.6030  -15.5630   10.2130 C   0  0  0  0  0  0  0  0  0  0  0  0
   13.4590  -15.7950   11.5790 C   0  0  0  0  0  0  0  0  0  0  0  0
   12.2170  -16.1780   12.0880 C   0  0  0  0  0  0  0  0  0  0  0  0
   12.0720  -16.4040   13.4280 O   0  0  0  0  0  0  0  0  0  0  0  0
   11.1030  -16.3360   11.2520 C   0  0  0  0  0  0  0  0  0  0  0  0
    9.7730  -16.8050   11.7970 C   0  0  2  0  0  0  0  0  0  0  0  0
    9.8430  -18.2370   12.3700 C   0  0  0  0  0  0  0  0  0  0  0  0
    8.7680  -19.0420   11.6520 C   0  0  0  0  0  0  0  0  0  0  0  0
    8.6110  -18.3320   10.3200 C   0  0  0  0  0  0  0  0  0  0  0  0
    8.6670  -16.8550   10.7240 C   0  0  2  0  0  0  0  0  0  0  0  0
    6.5470  -15.5390    8.8700 C   0  0  0  0  0  0  0  0  0  0  0  0
    5.5230  -15.5720    7.9200 C   0  0  0  0  0  0  0  0  0  0  0  0
    5.1960  -16.4850    4.8870 H   0  0  0  0  0  0  0  0  0  0  0  0
    7.3162  -16.6430    5.2224 H   0  0  0  0  0  0  0  0  0  0  0  0
    9.1445  -16.5906    6.9148 H   0  0  0  0  0  0  0  0  0  0  0  0
    8.9678  -14.8675   10.0319 H   0  0  0  0  0  0  0  0  0  0  0  0
   12.6147  -15.5116    8.2888 H   0  0  0  0  0  0  0  0  0  0  0  0
   14.5829  -15.2778    9.8025 H   0  0  0  0  0  0  0  0  0  0  0  0
   14.3200  -15.6769   12.2533 H   0  0  0  0  0  0  0  0  0  0  0  0
   11.1870  -16.1120   13.7010 H   0  0  0  0  0  0  0  0  0  0  0  0
    9.5367  -16.0659   12.5766 H   0  0  0  0  0  0  0  0  0  0  0  0
   10.8347  -18.6739   12.1814 H   0  0  0  0  0  0  0  0  0  0  0  0
    9.6817  -18.2388   13.4581 H   0  0  0  0  0  0  0  0  0  0  0  0
    9.0910  -20.0832   11.5051 H   0  0  0  0  0  0  0  0  0  0  0  0
    7.8268  -19.0944   12.2190 H   0  0  0  0  0  0  0  0  0  0  0  0
    9.4317  -18.5880    9.6337 H   0  0  0  0  0  0  0  0  0  0  0  0
    7.6910  -18.6055    9.7826 H   0  0  0  0  0  0  0  0  0  0  0  0
    7.6793  -16.5252   11.0785 H   0  0  0  0  0  0  0  0  0  0  0  0
    6.3215  -15.2284    9.9008 H   0  0  0  0  0  0  0  0  0  0  0  0
    4.4979  -15.2873    8.1993 H   0  0  0  0  0  0  0  0  0  0  0  0
  1  2  1  0
  2  3  2  0
  3  4  1  0
  4  5  2  0
  5  6  1  0
  6  7  1  0
  7  8  1  0
  8  9  2  0
  9 10  1  0
 10 11  2  0
 11 12  1  0
 12 13  1  0
 12 14  2  0
 14 15  1  0
 15 16  1  0
 16 17  1  0
 17 18  1  0
 18 19  1  0
  5 20  1  0
 20 21  2  0
 21  2  1  0
 19  6  1  0
 14  8  1  0
 19 15  1  0
  1 22  1  0
  3 23  1  0
  4 24  1  0
  6 25  1  1
  9 26  1  0
 10 27  1  0
 11 28  1  0
 13 29  1  0
 15 30  1  1
 16 31  1  0
 16 32  1  0
 17 33  1  0
 17 34  1  0
 18 35  1  0
 18 36  1  0
 19 37  1  1
 20 38  1  0
 21 39  1  0
M  END
>  <meeko>  (8) 
{"is_sidechain": [false], "free_energy": -6.624, "intermolecular_energy": -7.397, "internal_energy": -0.565}

$$$$
2pog_ligand
     RDKit          3D

 39 42  0  0  0  0  0  0  0  0999 V2000
   15.0750  -15.2630   11.9570 O   0  0  0  0  0  0  0  0  0  0  0  0
   13.8330  -15.6710   11.5670 C   0  0  0  0  0  0  0  0  0  0  0  0
   13.6250  -17.0320   11.3900 C   0  0  0  0  0  0  0  0  0  0  0  0
   12.3690  -17.4950   10.9910 C   0  0  0  0  0  0  0  0  0  0  0  0
   11.3120  -16.5970   10.7690 C   0  0  0  0  0  0  0  0  0  0  0  0
    9.9400  -17.0710   10.3130 C   0  0  2  0  0  0  0  0  0  0  0  0
    9.0070  -15.9820   10.3420 O   0  0  0  0  0  0  0  0  0  0  0  0
    7.7680  -16.3370    9.8770 C   0  0  0  0  0  0  0  0  0  0  0  0
    7.0110  -15.3110    9.3130 C   0  0  0  0  0  0  0  0  0  0  0  0
    5.7490  -15.5810    8.7880 C   0  0  0  0  0  0  0  0  0  0  0  0
    5.2450  -16.8790    8.8300 C   0  0  0  0  0  0  0  0  0  0  0  0
    6.0000  -17.8950    9.4170 C   0  0  0  0  0  0  0  0  0  0  0  0
    5.5100  -19.1710    9.4570 O   0  0  0  0  0  0  0  0  0  0  0  0
    7.2620  -17.6390    9.9720 C   0  0  0  0  0  0  0  0  0  0  0  0
    8.0540  -18.7300   10.6570 C   0  0  2  0  0  0  0  0  0  0  0  0
    7.3460  -19.2660   11.9200 C   0  0  0  0  0  0  0  0  0  0  0  0
    8.3400  -19.1230   13.0650 C   0  0  0  0  0  0  0  0  0  0  0  0
    9.2280  -17.9700   12.6340 C   0  0  0  0  0  0  0  0  0  0  0  0
    9.4380  -18.2540   11.1430 C   0  0  2  0  0  0  0  0  0  0  0  0
   11.5490  -15.2230   10.9510 C   0  0  0  0  0  0  0  0  0  0  0  0
   12.8060  -14.7600   11.3510 C   0  0  0  0  0  0  0  0  0  0  0  0
   15.1600  -15.4060   12.9140 H   0  0  0  0  0  0  0  0  0  0  0  0
   14.4461  -17.7431   11.5633 H   0  0  0  0  0  0  0  0  0  0  0  0
   12.2061  -18.5736   10.8492 H   0  0  0  0  0  0  0  0  0  0  0  0
   10.0324  -17.4284    9.2768 H   0  0  0  0  0  0  0  0  0  0  0  0
    7.4108  -14.2867    9.2825 H   0  0  0  0  0  0  0  0  0  0  0  0
    5.1524  -14.7717    8.3417 H   0  0  0  0  0  0  0  0  0  0  0  0
    4.2564  -17.1019    8.4024 H   0  0  0  0  0  0  0  0  0  0  0  0
    4.8910  -19.2920    8.7190 H   0  0  0  0  0  0  0  0  0  0  0  0
    8.1505  -19.5064    9.8837 H   0  0  0  0  0  0  0  0  0  0  0  0
    6.4403  -18.6771   12.1270 H   0  0  0  0  0  0  0  0  0  0  0  0
    7.0372  -20.3136   11.7892 H   0  0  0  0  0  0  0  0  0  0  0  0
    7.8218  -18.8875   14.0063 H   0  0  0  0  0  0  0  0  0  0  0  0
    8.9058  -20.0472   13.2541 H   0  0  0  0  0  0  0  0  0  0  0  0
    8.7269  -17.0030   12.7879 H   0  0  0  0  0  0  0  0  0  0  0  0
   10.1662  -17.9016   13.2042 H   0  0  0  0  0  0  0  0  0  0  0  0
   10.2417  -18.9935   11.0117 H   0  0  0  0  0  0  0  0  0  0  0  0
   10.7354  -14.5036   10.7765 H   0  0  0  0  0  0  0  0  0  0  0  0
   12.9807  -13.6834   11.4936 H   0  0  0  0  0  0  0  0  0  0  0  0
  1  2  1  0
  2  3  2  0
  3  4  1  0
  4  5  2  0
  5  6  1  0
  6  7  1  0
  7  8  1  0
  8  9  2  0
  9 10  1  0
 10 11  2  0
 11 12  1  0
 12 13  1  0
 12 14  2  0
 14 15  1  0
 15 16  1  0
 16 17  1  0
 17 18  1  0
 18 19  1  0
  5 20  1  0
 20 21  2  0
 21  2  1  0
 19  6  1  0
 14  8  1  0
 19 15  1  0
  1 22  1  0
  3 23  1  0
  4 24  1  0
  6 25  1  6
  9 26  1  0
 10 27  1  0
 11 28  1  0
 13 29  1  0
 15 30  1  6
 16 31  1  0
 16 32  1  0
 17 33  1  0
 17 34  1  0
 18 35  1  0
 18 36  1  0
 19 37  1  1
 20 38  1  0
 21 39  1  0
M  END
>  <meeko>  (9) 
{"is_sidechain": [false], "free_energy": -6.326, "intermolecular_energy": -7.1, "internal_energy": -0.527}

$$$$
