1h23_ligand
     RDKit          3D

 84 87  0  0  0  0  0  0  0  0999 V2000
   -3.2040    7.4240   -8.0570 O   0  0  0  0  0  0  0  0  0  0  0  0
   -2.2360    6.9110   -7.5170 C   0  0  0  0  0  0  0  0  0  0  0  0
   -1.1030    7.7310   -7.0240 C   0  0  0  0  0  0  0  0  0  0  0  0
   -0.0700    7.1370   -6.4090 C   0  0  0  0  0  0  0  0  0  0  0  0
   -0.0410    5.6940   -6.1930 C   0  0  0  0  0  0  0  0  0  0  0  0
   -1.0480    4.9470   -6.6980 C   0  0  0  0  0  0  0  0  0  0  0  0
   -2.1060    5.5580   -7.3290 N   0  0  0  0  0  0  0  0  0  0  0  0
   -1.0820    3.4420   -6.6390 C   0  0  0  0  0  0  0  0  0  0  0  0
    0.2850    2.8460   -6.3050 C   0  0  0  0  0  0  0  0  0  0  0  0
    0.9180    3.5840   -5.1310 C   0  0  0  0  0  0  0  0  0  0  0  0
    1.1280    5.0790   -5.4490 C   0  0  2  0  0  0  0  0  0  0  0  0
    1.4110    5.7740   -4.1290 N   0  0  0  0  0  0  0  0  0  0  0  0
    0.5140    5.4240   -2.9830 C   0  0  0  0  0  0  0  0  0  0  0  0
   -0.2200    6.6670   -2.4850 C   0  0  0  0  0  0  0  0  0  0  0  0
   -1.7390    6.4700   -2.4050 C   0  0  0  0  0  0  0  0  0  0  0  0
   -2.5090    7.1010   -3.5710 C   0  0  0  0  0  0  0  0  0  0  0  0
   -2.1960    8.5970   -3.6850 C   0  0  0  0  0  0  0  0  0  0  0  0
   -3.3660    9.4960   -3.2690 C   0  0  0  0  0  0  0  0  0  0  0  0
   -3.1930   10.9560   -3.7050 C   0  0  0  0  0  0  0  0  0  0  0  0
   -3.9810   11.9440   -2.8330 C   0  0  0  0  0  0  0  0  0  0  0  0
   -4.8990   11.3040   -1.7840 C   0  0  0  0  0  0  0  0  0  0  0  0
   -5.8050   12.2910   -1.0350 C   0  0  0  0  0  0  0  0  0  0  0  0
   -5.9490   13.6470   -1.7250 C   0  0  0  0  0  0  0  0  0  0  0  0
   -7.3860   14.1700   -1.7570 C   0  0  0  0  0  0  0  0  0  0  0  0
   -7.8360   14.4760   -3.1520 N   0  0  0  0  0  0  0  0  0  0  0  0
   -8.7280   13.4540   -3.8310 C   0  0  1  0  0  0  0  0  0  0  0  0
   -9.9960   14.2130   -4.2740 C   0  0  0  0  0  0  0  0  0  0  0  0
  -10.8360   13.3870   -5.2410 C   0  0  0  0  0  0  0  0  0  0  0  0
  -10.0380   13.0720   -6.5040 C   0  0  0  0  0  0  0  0  0  0  0  0
   -8.6390   12.6050   -6.1950 C   0  0  0  0  0  0  0  0  0  0  0  0
   -7.9660   11.9920   -7.2290 N   0  0  0  0  0  0  0  0  0  0  0  0
   -6.7010   11.4720   -7.1450 C   0  0  0  0  0  0  0  0  0  0  0  0
   -6.1210   10.9590   -8.0900 O   0  0  0  0  0  0  0  0  0  0  0  0
   -6.0680   11.5640   -5.8100 C   0  0  0  0  0  0  0  0  0  0  0  0
   -6.7200   12.1600   -4.8020 C   0  0  0  0  0  0  0  0  0  0  0  0
   -8.0460   12.7410   -4.9890 C   0  0  0  0  0  0  0  0  0  0  0  0
   -1.1099    8.8223   -7.1623 H   0  0  0  0  0  0  0  0  0  0  0  0
    0.7736    7.7505   -6.0598 H   0  0  0  0  0  0  0  0  0  0  0  0
   -2.8750    5.0070   -7.7030 H   0  0  0  0  0  0  0  0  0  0  0  0
   -1.8012    3.1340   -5.8657 H   0  0  0  0  0  0  0  0  0  0  0  0
   -1.3782    3.0719   -7.6316 H   0  0  0  0  0  0  0  0  0  0  0  0
    0.1626    1.7850   -6.0418 H   0  0  0  0  0  0  0  0  0  0  0  0
    0.9404    2.9463   -7.1827 H   0  0  0  0  0  0  0  0  0  0  0  0
    0.2587    3.4942   -4.2551 H   0  0  0  0  0  0  0  0  0  0  0  0
    1.9008    3.1329   -4.9296 H   0  0  0  0  0  0  0  0  0  0  0  0
    1.9768    5.2034   -6.1375 H   0  0  0  0  0  0  0  0  0  0  0  0
    1.4120    6.7940   -4.2550 H   0  0  0  0  0  0  0  0  0  0  0  0
    2.3840    5.5570   -3.8690 H   0  0  0  0  0  0  0  0  0  0  0  0
   -0.2219    4.6762   -3.3136 H   0  0  0  0  0  0  0  0  0  0  0  0
    1.1237    5.0163   -2.1632 H   0  0  0  0  0  0  0  0  0  0  0  0
    0.1549    6.9178   -1.4817 H   0  0  0  0  0  0  0  0  0  0  0  0
   -0.0290    7.4749   -3.2066 H   0  0  0  0  0  0  0  0  0  0  0  0
   -1.9483    5.3901   -2.3956 H   0  0  0  0  0  0  0  0  0  0  0  0
   -2.0787    6.9737   -1.4880 H   0  0  0  0  0  0  0  0  0  0  0  0
   -2.2203    6.6000   -4.5068 H   0  0  0  0  0  0  0  0  0  0  0  0
   -3.5869    6.9797   -3.3879 H   0  0  0  0  0  0  0  0  0  0  0  0
   -1.3350    8.8236   -3.0389 H   0  0  0  0  0  0  0  0  0  0  0  0
   -1.9862    8.8056   -4.7445 H   0  0  0  0  0  0  0  0  0  0  0  0
   -4.2874    9.1027   -3.7232 H   0  0  0  0  0  0  0  0  0  0  0  0
   -3.4096    9.4868   -2.1699 H   0  0  0  0  0  0  0  0  0  0  0  0
   -2.1252   11.2139   -3.6481 H   0  0  0  0  0  0  0  0  0  0  0  0
   -3.5838   11.0401   -4.7298 H   0  0  0  0  0  0  0  0  0  0  0  0
   -3.2579   12.5843   -2.3066 H   0  0  0  0  0  0  0  0  0  0  0  0
   -4.6407   12.4959   -3.5186 H   0  0  0  0  0  0  0  0  0  0  0  0
   -5.5401   10.5691   -2.2928 H   0  0  0  0  0  0  0  0  0  0  0  0
   -4.2391   10.8536   -1.0279 H   0  0  0  0  0  0  0  0  0  0  0  0
   -6.8048   11.8416   -0.9428 H   0  0  0  0  0  0  0  0  0  0  0  0
   -5.3340   12.4784   -0.0588 H   0  0  0  0  0  0  0  0  0  0  0  0
   -5.3252   14.3775   -1.1891 H   0  0  0  0  0  0  0  0  0  0  0  0
   -5.6323   13.5118   -2.7697 H   0  0  0  0  0  0  0  0  0  0  0  0
   -8.0521   13.4072   -1.3274 H   0  0  0  0  0  0  0  0  0  0  0  0
   -7.4235   15.1019   -1.1737 H   0  0  0  0  0  0  0  0  0  0  0  0
   -7.0060   14.5890   -3.7530 H   0  0  0  0  0  0  0  0  0  0  0  0
   -8.2830   15.4020   -3.1670 H   0  0  0  0  0  0  0  0  0  0  0  0
   -8.9776   12.6425   -3.1316 H   0  0  0  0  0  0  0  0  0  0  0  0
  -10.6009   14.4464   -3.3854 H   0  0  0  0  0  0  0  0  0  0  0  0
   -9.6834   15.1330   -4.7896 H   0  0  0  0  0  0  0  0  0  0  0  0
  -11.1293   12.4456   -4.7534 H   0  0  0  0  0  0  0  0  0  0  0  0
  -11.7307   13.9636   -5.5187 H   0  0  0  0  0  0  0  0  0  0  0  0
  -10.5593   12.2815   -7.0638 H   0  0  0  0  0  0  0  0  0  0  0  0
   -9.9613   13.9977   -7.0932 H   0  0  0  0  0  0  0  0  0  0  0  0
   -8.4000   11.8930   -8.1430 H   0  0  0  0  0  0  0  0  0  0  0  0
   -5.0647   11.1441   -5.6456 H   0  0  0  0  0  0  0  0  0  0  0  0
   -6.2451   12.2125   -3.8112 H   0  0  0  0  0  0  0  0  0  0  0  0
  1  2  2  0
  2  3  1  0
  3  4  2  0
  4  5  1  0
  5  6  2  0
  6  7  1  0
  6  8  1  0
  8  9  1  0
  9 10  1  0
 10 11  1  0
 11 12  1  0
 12 13  1  0
 13 14  1  0
 14 15  1  0
 15 16  1  0
 16 17  1  0
 17 18  1  0
 18 19  1  0
 19 20  1  0
 20 21  1  0
 21 22  1  0
 22 23  1  0
 23 24  1  0
 24 25  1  0
 25 26  1  0
 26 27  1  0
 27 28  1  0
 28 29  1  0
 29 30  1  0
 30 31  1  0
 31 32  1  0
 32 33  2  0
 32 34  1  0
 34 35  2  0
 35 36  1  0
  7  2  1  0
 36 26  1  0
 11  5  1  0
 36 30  2  0
  3 37  1  0
  4 38  1  0
  7 39  1  0
  8 40  1  0
  8 41  1  0
  9 42  1  0
  9 43  1  0
 10 44  1  0
 10 45  1  0
 11 46  1  6
 12 47  1  0
 12 48  1  0
 13 49  1  0
 13 50  1  0
 14 51  1  0
 14 52  1  0
 15 53  1  0
 15 54  1  0
 16 55  1  0
 16 56  1  0
 17 57  1  0
 17 58  1  0
 18 59  1  0
 18 60  1  0
 19 61  1  0
 19 62  1  0
 20 63  1  0
 20 64  1  0
 21 65  1  0
 21 66  1  0
 22 67  1  0
 22 68  1  0
 23 69  1  0
 23 70  1  0
 24 71  1  0
 24 72  1  0
 25 73  1  0
 25 74  1  0
 26 75  1  1
 27 76  1  0
 27 77  1  0
 28 78  1  0
 28 79  1  0
 29 80  1  0
 29 81  1  0
 31 82  1  0
 34 83  1  0
 35 84  1  0
M  CHG  2  12   1  25   1
M  END
>  <meeko>  (1) 
{"is_sidechain": [false], "free_energy": -10.065, "intermolecular_energy": -18.89, "internal_energy": -2.485}

$$$$
1h23_ligand
     RDKit          3D

 84 87  0  0  0  0  0  0  0  0999 V2000
  -10.9670   12.6950   -7.2590 O   0  0  0  0  0  0  0  0  0  0  0  0
  -10.4880   12.9330   -6.1610 C   0  0  0  0  0  0  0  0  0  0  0  0
   -9.0770   12.6050   -5.8470 C   0  0  0  0  0  0  0  0  0  0  0  0
   -8.5750   12.9060   -4.6400 C   0  0  0  0  0  0  0  0  0  0  0  0
   -9.3850   13.5740   -3.6270 C   0  0  0  0  0  0  0  0  0  0  0  0
  -10.6870   13.8150   -3.8980 C   0  0  0  0  0  0  0  0  0  0  0  0
  -11.1990   13.5050   -5.1360 N   0  0  0  0  0  0  0  0  0  0  0  0
  -11.6540   14.3970   -2.9000 C   0  0  0  0  0  0  0  0  0  0  0  0
  -11.1210   14.3260   -1.4700 C   0  0  0  0  0  0  0  0  0  0  0  0
   -9.6750   14.8060   -1.4130 C   0  0  0  0  0  0  0  0  0  0  0  0
   -8.7560   13.9370   -2.2960 C   0  0  2  0  0  0  0  0  0  0  0  0
   -7.4520   14.6980   -2.4540 N   0  0  0  0  0  0  0  0  0  0  0  0
   -6.2550   14.1250   -1.7630 C   0  0  0  0  0  0  0  0  0  0  0  0
   -6.5770   12.7410   -1.2030 C   0  0  0  0  0  0  0  0  0  0  0  0
   -5.6020   11.6600   -1.6870 C   0  0  0  0  0  0  0  0  0  0  0  0
   -5.9350   11.1000   -3.0740 C   0  0  0  0  0  0  0  0  0  0  0  0
   -4.8580   11.4910   -4.0930 C   0  0  0  0  0  0  0  0  0  0  0  0
   -3.4300   11.2920   -3.5730 C   0  0  0  0  0  0  0  0  0  0  0  0
   -2.7640   10.0160   -4.1040 C   0  0  0  0  0  0  0  0  0  0  0  0
   -2.9230    8.8150   -3.1610 C   0  0  0  0  0  0  0  0  0  0  0  0
   -2.2640    7.5150   -3.6390 C   0  0  0  0  0  0  0  0  0  0  0  0
   -1.8860    6.5360   -2.5180 C   0  0  0  0  0  0  0  0  0  0  0  0
   -0.3960    6.5290   -2.1770 C   0  0  0  0  0  0  0  0  0  0  0  0
    0.4170    5.5280   -3.0000 C   0  0  0  0  0  0  0  0  0  0  0  0
    1.0050    6.1590   -4.2230 N   0  0  0  0  0  0  0  0  0  0  0  0
    0.8420    5.4110   -5.5330 C   0  0  1  0  0  0  0  0  0  0  0  0
    0.6990    3.9190   -5.1640 C   0  0  0  0  0  0  0  0  0  0  0  0
    0.2160    3.0910   -6.3490 C   0  0  0  0  0  0  0  0  0  0  0  0
   -1.1580    3.5720   -6.8100 C   0  0  0  0  0  0  0  0  0  0  0  0
   -1.2350    5.0740   -6.9100 C   0  0  0  0  0  0  0  0  0  0  0  0
   -2.3020    5.5760   -7.6200 N   0  0  0  0  0  0  0  0  0  0  0  0
   -2.5360    6.9070   -7.8500 C   0  0  0  0  0  0  0  0  0  0  0  0
   -3.5090    7.3220   -8.4630 O   0  0  0  0  0  0  0  0  0  0  0  0
   -1.5140    7.8310   -7.3110 C   0  0  0  0  0  0  0  0  0  0  0  0
   -0.4730    7.3440   -6.6190 C   0  0  0  0  0  0  0  0  0  0  0  0
   -0.3260    5.9140   -6.3670 C   0  0  0  0  0  0  0  0  0  0  0  0
   -8.4433   12.1161   -6.6016 H   0  0  0  0  0  0  0  0  0  0  0  0
   -7.5318   12.6439   -4.4094 H   0  0  0  0  0  0  0  0  0  0  0  0
  -12.1740   13.6920   -5.3560 H   0  0  0  0  0  0  0  0  0  0  0  0
  -11.8375   15.4505   -3.1576 H   0  0  0  0  0  0  0  0  0  0  0  0
  -12.5809   13.8064   -2.9443 H   0  0  0  0  0  0  0  0  0  0  0  0
  -11.7396   14.9636   -0.8213 H   0  0  0  0  0  0  0  0  0  0  0  0
  -11.1622   13.2816   -1.1271 H   0  0  0  0  0  0  0  0  0  0  0  0
   -9.6297   15.8469   -1.7657 H   0  0  0  0  0  0  0  0  0  0  0  0
   -9.3267   14.7298   -0.3724 H   0  0  0  0  0  0  0  0  0  0  0  0
   -8.5774   12.9647   -1.8136 H   0  0  0  0  0  0  0  0  0  0  0  0
   -7.5720   15.6770   -2.1630 H   0  0  0  0  0  0  0  0  0  0  0  0
   -7.2540   14.7640   -3.4630 H   0  0  0  0  0  0  0  0  0  0  0  0
   -5.4266   14.0416   -2.4819 H   0  0  0  0  0  0  0  0  0  0  0  0
   -5.9694   14.7886   -0.9335 H   0  0  0  0  0  0  0  0  0  0  0  0
   -6.5326   12.7876   -0.1049 H   0  0  0  0  0  0  0  0  0  0  0  0
   -7.5800   12.4652   -1.5606 H   0  0  0  0  0  0  0  0  0  0  0  0
   -4.5923   12.0949   -1.7223 H   0  0  0  0  0  0  0  0  0  0  0  0
   -5.6762   10.8223   -0.9780 H   0  0  0  0  0  0  0  0  0  0  0  0
   -5.9944   10.0032   -3.0152 H   0  0  0  0  0  0  0  0  0  0  0  0
   -6.8980   11.5190   -3.4011 H   0  0  0  0  0  0  0  0  0  0  0  0
   -4.9903   10.8747   -4.9945 H   0  0  0  0  0  0  0  0  0  0  0  0
   -4.9818   12.5638   -4.3022 H   0  0  0  0  0  0  0  0  0  0  0  0
   -2.8229   12.1565   -3.8798 H   0  0  0  0  0  0  0  0  0  0  0  0
   -3.4916   11.1967   -2.4789 H   0  0  0  0  0  0  0  0  0  0  0  0
   -3.2175    9.7621   -5.0734 H   0  0  0  0  0  0  0  0  0  0  0  0
   -1.6871   10.2217   -4.1936 H   0  0  0  0  0  0  0  0  0  0  0  0
   -2.4801    9.0838   -2.1906 H   0  0  0  0  0  0  0  0  0  0  0  0
   -4.0023    8.6084   -3.1106 H   0  0  0  0  0  0  0  0  0  0  0  0
   -2.9643    7.0053   -4.3170 H   0  0  0  0  0  0  0  0  0  0  0  0
   -1.3223    7.8060   -4.1273 H   0  0  0  0  0  0  0  0  0  0  0  0
   -2.4469    6.8126   -1.6131 H   0  0  0  0  0  0  0  0  0  0  0  0
   -2.1355    5.5270   -2.8782 H   0  0  0  0  0  0  0  0  0  0  0  0
    0.0068    7.5364   -2.3584 H   0  0  0  0  0  0  0  0  0  0  0  0
   -0.3082    6.2262   -1.1232 H   0  0  0  0  0  0  0  0  0  0  0  0
    1.2326    5.1338   -2.3760 H   0  0  0  0  0  0  0  0  0  0  0  0
   -0.2594    4.7230   -3.3231 H   0  0  0  0  0  0  0  0  0  0  0  0
    2.0180    6.2860   -4.0800 H   0  0  0  0  0  0  0  0  0  0  0  0
    0.6440    7.1170   -4.3150 H   0  0  0  0  0  0  0  0  0  0  0  0
    1.7180    5.5771   -6.1773 H   0  0  0  0  0  0  0  0  0  0  0  0
    1.6773    3.5370   -4.8368 H   0  0  0  0  0  0  0  0  0  0  0  0
   -0.0457    3.8339   -4.3589 H   0  0  0  0  0  0  0  0  0  0  0  0
    0.9322    3.1921   -7.1777 H   0  0  0  0  0  0  0  0  0  0  0  0
    0.1404    2.0377   -6.0410 H   0  0  0  0  0  0  0  0  0  0  0  0
   -1.3702    3.1404   -7.7993 H   0  0  0  0  0  0  0  0  0  0  0  0
   -1.8965    3.2465   -6.0625 H   0  0  0  0  0  0  0  0  0  0  0  0
   -2.9960    4.9530   -8.0240 H   0  0  0  0  0  0  0  0  0  0  0  0
   -1.6074    8.9143   -7.4772 H   0  0  0  0  0  0  0  0  0  0  0  0
    0.2874    8.0386   -6.2326 H   0  0  0  0  0  0  0  0  0  0  0  0
  1  2  2  0
  2  3  1  0
  3  4  2  0
  4  5  1  0
  5  6  2  0
  6  7  1  0
  6  8  1  0
  8  9  1  0
  9 10  1  0
 10 11  1  0
 11 12  1  0
 12 13  1  0
 13 14  1  0
 14 15  1  0
 15 16  1  0
 16 17  1  0
 17 18  1  0
 18 19  1  0
 19 20  1  0
 20 21  1  0
 21 22  1  0
 22 23  1  0
 23 24  1  0
 24 25  1  0
 25 26  1  0
 26 27  1  0
 27 28  1  0
 28 29  1  0
 29 30  1  0
 30 31  1  0
 31 32  1  0
 32 33  2  0
 32 34  1  0
 34 35  2  0
 35 36  1  0
  7  2  1  0
 36 26  1  0
 11  5  1  0
 36 30  2  0
  3 37  1  0
  4 38  1  0
  7 39  1  0
  8 40  1  0
  8 41  1  0
  9 42  1  0
  9 43  1  0
 10 44  1  0
 10 45  1  0
 11 46  1  1
 12 47  1  0
 12 48  1  0
 13 49  1  0
 13 50  1  0
 14 51  1  0
 14 52  1  0
 15 53  1  0
 15 54  1  0
 16 55  1  0
 16 56  1  0
 17 57  1  0
 17 58  1  0
 18 59  1  0
 18 60  1  0
 19 61  1  0
 19 62  1  0
 20 63  1  0
 20 64  1  0
 21 65  1  0
 21 66  1  0
 22 67  1  0
 22 68  1  0
 23 69  1  0
 23 70  1  0
 24 71  1  0
 24 72  1  0
 25 73  1  0
 25 74  1  0
 26 75  1  6
 27 76  1  0
 27 77  1  0
 28 78  1  0
 28 79  1  0
 29 80  1  0
 29 81  1  0
 31 82  1  0
 34 83  1  0
 35 84  1  0
M  CHG  2  12   1  25   1
M  END
>  <meeko>  (2) 
{"is_sidechain": [false], "free_energy": -10.003, "intermolecular_energy": -18.95, "internal_energy": -2.311}

$$$$
1h23_ligand
     RDKit          3D

 84 87  0  0  0  0  0  0  0  0999 V2000
   -6.2800   11.2610   -8.1230 O   0  0  0  0  0  0  0  0  0  0  0  0
   -6.8280   11.7140   -7.1300 C   0  0  0  0  0  0  0  0  0  0  0  0
   -6.1670   11.6880   -5.8040 C   0  0  0  0  0  0  0  0  0  0  0  0
   -6.7850   12.2210   -4.7400 C   0  0  0  0  0  0  0  0  0  0  0  0
   -8.0970   12.8490   -4.8610 C   0  0  0  0  0  0  0  0  0  0  0  0
   -8.7200   12.8160   -6.0590 C   0  0  0  0  0  0  0  0  0  0  0  0
   -8.0840   12.2680   -7.1490 N   0  0  0  0  0  0  0  0  0  0  0  0
  -10.1170   13.3290   -6.2890 C   0  0  0  0  0  0  0  0  0  0  0  0
  -10.8810   13.5320   -4.9800 C   0  0  0  0  0  0  0  0  0  0  0  0
  -10.0160   14.2690   -3.9650 C   0  0  0  0  0  0  0  0  0  0  0  0
   -8.7320   13.4800   -3.6370 C   0  0  2  0  0  0  0  0  0  0  0  0
   -7.7960   14.4410   -2.9230 N   0  0  0  0  0  0  0  0  0  0  0  0
   -7.3180   14.0240   -1.5680 C   0  0  0  0  0  0  0  0  0  0  0  0
   -6.1690   14.9220   -1.1110 C   0  0  0  0  0  0  0  0  0  0  0  0
   -4.7910   14.2960   -1.3550 C   0  0  0  0  0  0  0  0  0  0  0  0
   -4.8310   12.7830   -1.6020 C   0  0  0  0  0  0  0  0  0  0  0  0
   -3.7460   12.3670   -2.6040 C   0  0  0  0  0  0  0  0  0  0  0  0
   -3.9000   10.9250   -3.1000 C   0  0  0  0  0  0  0  0  0  0  0  0
   -2.9610   10.5810   -4.2630 C   0  0  0  0  0  0  0  0  0  0  0  0
   -2.3850    9.1600   -4.1740 C   0  0  0  0  0  0  0  0  0  0  0  0
   -2.8790    8.3270   -2.9850 C   0  0  0  0  0  0  0  0  0  0  0  0
   -2.4910    6.8420   -3.0360 C   0  0  0  0  0  0  0  0  0  0  0  0
   -1.3400    6.4690   -2.1020 C   0  0  0  0  0  0  0  0  0  0  0  0
   -0.0570    6.0750   -2.8360 C   0  0  0  0  0  0  0  0  0  0  0  0
    0.0710    6.7800   -4.1500 N   0  0  0  0  0  0  0  0  0  0  0  0
    0.3620    5.9230   -5.3690 C   0  0  1  0  0  0  0  0  0  0  0  0
    0.4840    4.4710   -4.8570 C   0  0  0  0  0  0  0  0  0  0  0  0
    0.4610    3.4690   -6.0040 C   0  0  0  0  0  0  0  0  0  0  0  0
   -0.8560    3.5650   -6.7700 C   0  0  0  0  0  0  0  0  0  0  0  0
   -1.2460    4.9910   -7.0620 C   0  0  0  0  0  0  0  0  0  0  0  0
   -2.2240    5.1650   -8.0150 N   0  0  0  0  0  0  0  0  0  0  0  0
   -2.6970    6.3790   -8.4440 C   0  0  0  0  0  0  0  0  0  0  0  0
   -3.5860    6.4980   -9.2730 O   0  0  0  0  0  0  0  0  0  0  0  0
   -2.0460    7.5600   -7.8350 C   0  0  0  0  0  0  0  0  0  0  0  0
   -1.0930    7.3940   -6.9070 C   0  0  0  0  0  0  0  0  0  0  0  0
   -0.6860    6.0640   -6.4620 C   0  0  0  0  0  0  0  0  0  0  0  0
   -5.1719   11.2326   -5.6928 H   0  0  0  0  0  0  0  0  0  0  0  0
   -6.2935   12.1842   -3.7566 H   0  0  0  0  0  0  0  0  0  0  0  0
   -8.5380   12.2470   -8.0580 H   0  0  0  0  0  0  0  0  0  0  0  0
  -10.0582   14.2918   -6.8177 H   0  0  0  0  0  0  0  0  0  0  0  0
  -10.6587   12.5783   -6.8831 H   0  0  0  0  0  0  0  0  0  0  0  0
  -11.7882   14.1217   -5.1782 H   0  0  0  0  0  0  0  0  0  0  0  0
  -11.1502   12.5477   -4.5693 H   0  0  0  0  0  0  0  0  0  0  0  0
   -9.7371   15.2495   -4.3782 H   0  0  0  0  0  0  0  0  0  0  0  0
  -10.5958   14.3852   -3.0375 H   0  0  0  0  0  0  0  0  0  0  0  0
   -8.9700   12.6232   -2.9895 H   0  0  0  0  0  0  0  0  0  0  0  0
   -8.2250   15.3730   -2.8570 H   0  0  0  0  0  0  0  0  0  0  0  0
   -6.9800   14.5880   -3.5340 H   0  0  0  0  0  0  0  0  0  0  0  0
   -8.1478   14.1031   -0.8503 H   0  0  0  0  0  0  0  0  0  0  0  0
   -6.9613   12.9847   -1.6188 H   0  0  0  0  0  0  0  0  0  0  0  0
   -6.2255   15.8724   -1.6619 H   0  0  0  0  0  0  0  0  0  0  0  0
   -6.2771   15.0712   -0.0265 H   0  0  0  0  0  0  0  0  0  0  0  0
   -4.3421   14.7790   -2.2355 H   0  0  0  0  0  0  0  0  0  0  0  0
   -4.2015   14.4548   -0.4400 H   0  0  0  0  0  0  0  0  0  0  0  0
   -4.6639   12.2574   -0.6502 H   0  0  0  0  0  0  0  0  0  0  0  0
   -5.8149   12.5188   -2.0169 H   0  0  0  0  0  0  0  0  0  0  0  0
   -3.7946   13.0417   -3.4714 H   0  0  0  0  0  0  0  0  0  0  0  0
   -2.7794   12.4310   -2.0829 H   0  0  0  0  0  0  0  0  0  0  0  0
   -3.6850   10.2432   -2.2640 H   0  0  0  0  0  0  0  0  0  0  0  0
   -4.9304   10.8153   -3.4692 H   0  0  0  0  0  0  0  0  0  0  0  0
   -3.5222   10.6726   -5.2046 H   0  0  0  0  0  0  0  0  0  0  0  0
   -2.1138   11.2811   -4.2178 H   0  0  0  0  0  0  0  0  0  0  0  0
   -2.6526    8.6261   -5.0978 H   0  0  0  0  0  0  0  0  0  0  0  0
   -1.3006    9.2791   -4.0329 H   0  0  0  0  0  0  0  0  0  0  0  0
   -2.4583    8.7596   -2.0653 H   0  0  0  0  0  0  0  0  0  0  0  0
   -3.9780    8.3620   -3.0166 H   0  0  0  0  0  0  0  0  0  0  0  0
   -3.3712    6.2445   -2.7564 H   0  0  0  0  0  0  0  0  0  0  0  0
   -2.1489    6.6369   -4.0611 H   0  0  0  0  0  0  0  0  0  0  0  0
   -1.1206    7.3337   -1.4584 H   0  0  0  0  0  0  0  0  0  0  0  0
   -1.6646    5.5897   -1.5263 H   0  0  0  0  0  0  0  0  0  0  0  0
    0.8071    6.3349   -2.2069 H   0  0  0  0  0  0  0  0  0  0  0  0
   -0.0933    4.9930   -3.0308 H   0  0  0  0  0  0  0  0  0  0  0  0
    0.8350    7.4700   -4.0870 H   0  0  0  0  0  0  0  0  0  0  0  0
   -0.7680    7.3500   -4.3110 H   0  0  0  0  0  0  0  0  0  0  0  0
    1.2939    6.2519   -5.8522 H   0  0  0  0  0  0  0  0  0  0  0  0
    1.4315    4.3642   -4.3084 H   0  0  0  0  0  0  0  0  0  0  0  0
   -0.3746    4.2637   -4.2014 H   0  0  0  0  0  0  0  0  0  0  0  0
    1.2948    3.6832   -6.6888 H   0  0  0  0  0  0  0  0  0  0  0  0
    0.5604    2.4538   -5.5922 H   0  0  0  0  0  0  0  0  0  0  0  0
   -0.7512    3.0249   -7.7226 H   0  0  0  0  0  0  0  0  0  0  0  0
   -1.6433    3.1231   -6.1417 H   0  0  0  0  0  0  0  0  0  0  0  0
   -2.6580    4.3640   -8.4650 H   0  0  0  0  0  0  0  0  0  0  0  0
   -2.3437    8.5730   -8.1434 H   0  0  0  0  0  0  0  0  0  0  0  0
   -0.6068    8.2792   -6.4710 H   0  0  0  0  0  0  0  0  0  0  0  0
  1  2  2  0
  2  3  1  0
  3  4  2  0
  4  5  1  0
  5  6  2  0
  6  7  1  0
  6  8  1  0
  8  9  1  0
  9 10  1  0
 10 11  1  0
 11 12  1  0
 12 13  1  0
 13 14  1  0
 14 15  1  0
 15 16  1  0
 16 17  1  0
 17 18  1  0
 18 19  1  0
 19 20  1  0
 20 21  1  0
 21 22  1  0
 22 23  1  0
 23 24  1  0
 24 25  1  0
 25 26  1  0
 26 27  1  0
 27 28  1  0
 28 29  1  0
 29 30  1  0
 30 31  1  0
 31 32  1  0
 32 33  2  0
 32 34  1  0
 34 35  2  0
 35 36  1  0
  7  2  1  0
 36 26  1  0
 11  5  1  0
 36 30  2  0
  3 37  1  0
  4 38  1  0
  7 39  1  0
  8 40  1  0
  8 41  1  0
  9 42  1  0
  9 43  1  0
 10 44  1  0
 10 45  1  0
 11 46  1  1
 12 47  1  0
 12 48  1  0
 13 49  1  0
 13 50  1  0
 14 51  1  0
 14 52  1  0
 15 53  1  0
 15 54  1  0
 16 55  1  0
 16 56  1  0
 17 57  1  0
 17 58  1  0
 18 59  1  0
 18 60  1  0
 19 61  1  0
 19 62  1  0
 20 63  1  0
 20 64  1  0
 21 65  1  0
 21 66  1  0
 22 67  1  0
 22 68  1  0
 23 69  1  0
 23 70  1  0
 24 71  1  0
 24 72  1  0
 25 73  1  0
 25 74  1  0
 26 75  1  6
 27 76  1  0
 27 77  1  0
 28 78  1  0
 28 79  1  0
 29 80  1  0
 29 81  1  0
 31 82  1  0
 34 83  1  0
 35 84  1  0
M  CHG  2  12   1  25   1
M  END
>  <meeko>  (3) 
{"is_sidechain": [false], "free_energy": -9.868, "intermolecular_energy": -18.769, "internal_energy": -2.237}

$$$$
1h23_ligand
     RDKit          3D

 84 87  0  0  0  0  0  0  0  0999 V2000
  -14.0800   15.0770   -0.7650 O   0  0  0  0  0  0  0  0  0  0  0  0
  -12.9250   14.8660   -1.1020 C   0  0  0  0  0  0  0  0  0  0  0  0
  -11.8060   14.9840   -0.1380 C   0  0  0  0  0  0  0  0  0  0  0  0
  -10.5530   14.7160   -0.5340 C   0  0  0  0  0  0  0  0  0  0  0  0
  -10.2640   14.2890   -1.8990 C   0  0  0  0  0  0  0  0  0  0  0  0
  -11.2800   14.2420   -2.7890 C   0  0  0  0  0  0  0  0  0  0  0  0
  -12.5640   14.5180   -2.3790 N   0  0  0  0  0  0  0  0  0  0  0  0
  -11.0980   13.9230   -4.2500 C   0  0  0  0  0  0  0  0  0  0  0  0
   -9.6380   14.0370   -4.6880 C   0  0  0  0  0  0  0  0  0  0  0  0
   -8.7240   13.3320   -3.6920 C   0  0  0  0  0  0  0  0  0  0  0  0
   -8.8370   13.9510   -2.2840 C   0  0  2  0  0  0  0  0  0  0  0  0
   -8.1880   12.9730   -1.3210 N   0  0  0  0  0  0  0  0  0  0  0  0
   -6.7630   13.2430   -0.9520 C   0  0  0  0  0  0  0  0  0  0  0  0
   -5.9570   11.9460   -0.9600 C   0  0  0  0  0  0  0  0  0  0  0  0
   -6.1970   11.1030   -2.2180 C   0  0  0  0  0  0  0  0  0  0  0  0
   -5.2820   11.4660   -3.3930 C   0  0  0  0  0  0  0  0  0  0  0  0
   -3.8370   11.0360   -3.1120 C   0  0  0  0  0  0  0  0  0  0  0  0
   -3.0860   10.5740   -4.3650 C   0  0  0  0  0  0  0  0  0  0  0  0
   -2.2100    9.3380   -4.1250 C   0  0  0  0  0  0  0  0  0  0  0  0
   -2.8780    8.2910   -3.2220 C   0  0  0  0  0  0  0  0  0  0  0  0
   -2.3800    6.8520   -3.4080 C   0  0  0  0  0  0  0  0  0  0  0  0
   -1.6610    6.2590   -2.1890 C   0  0  0  0  0  0  0  0  0  0  0  0
   -0.1410    6.4200   -2.2260 C   0  0  0  0  0  0  0  0  0  0  0  0
    0.5720    5.3350   -3.0340 C   0  0  0  0  0  0  0  0  0  0  0  0
    1.2400    5.8950   -4.2500 N   0  0  0  0  0  0  0  0  0  0  0  0
    0.9730    5.1950   -5.5700 C   0  0  1  0  0  0  0  0  0  0  0  0
    0.7730    3.7020   -5.2350 C   0  0  0  0  0  0  0  0  0  0  0  0
    0.1890    2.9350   -6.4150 C   0  0  0  0  0  0  0  0  0  0  0  0
   -1.1800    3.4970   -6.7910 C   0  0  0  0  0  0  0  0  0  0  0  0
   -1.1850    5.0030   -6.8460 C   0  0  0  0  0  0  0  0  0  0  0  0
   -2.2590    5.5790   -7.4870 N   0  0  0  0  0  0  0  0  0  0  0  0
   -2.4350    6.9260   -7.6690 C   0  0  0  0  0  0  0  0  0  0  0  0
   -3.4150    7.4070   -8.2190 O   0  0  0  0  0  0  0  0  0  0  0  0
   -1.3410    7.7810   -7.1580 C   0  0  0  0  0  0  0  0  0  0  0  0
   -0.2930    7.2230   -6.5340 C   0  0  0  0  0  0  0  0  0  0  0  0
   -0.2080    5.7810   -6.3290 C   0  0  0  0  0  0  0  0  0  0  0  0
  -12.0025   15.2907    0.9000 H   0  0  0  0  0  0  0  0  0  0  0  0
   -9.7267   14.8202    0.1846 H   0  0  0  0  0  0  0  0  0  0  0  0
  -13.3390   14.4750   -3.0370 H   0  0  0  0  0  0  0  0  0  0  0  0
  -11.4439   12.8951   -4.4340 H   0  0  0  0  0  0  0  0  0  0  0  0
  -11.6827   14.6519   -4.8303 H   0  0  0  0  0  0  0  0  0  0  0  0
   -9.5201   13.5731   -5.6784 H   0  0  0  0  0  0  0  0  0  0  0  0
   -9.3622   15.1010   -4.7318 H   0  0  0  0  0  0  0  0  0  0  0  0
   -9.0051   12.2698   -3.6390 H   0  0  0  0  0  0  0  0  0  0  0  0
   -7.6856   13.4459   -4.0365 H   0  0  0  0  0  0  0  0  0  0  0  0
   -8.3180   14.9204   -2.2548 H   0  0  0  0  0  0  0  0  0  0  0  0
   -8.2650   12.0120   -1.6810 H   0  0  0  0  0  0  0  0  0  0  0  0
   -8.7580   12.9610   -0.4630 H   0  0  0  0  0  0  0  0  0  0  0  0
   -6.3272   13.9452   -1.6780 H   0  0  0  0  0  0  0  0  0  0  0  0
   -6.7317   13.6767    0.0584 H   0  0  0  0  0  0  0  0  0  0  0  0
   -4.8875   12.1969   -0.9042 H   0  0  0  0  0  0  0  0  0  0  0  0
   -6.2827   11.3492   -0.0953 H   0  0  0  0  0  0  0  0  0  0  0  0
   -6.0308   10.0459   -1.9634 H   0  0  0  0  0  0  0  0  0  0  0  0
   -7.2287   11.3019   -2.5435 H   0  0  0  0  0  0  0  0  0  0  0  0
   -5.6400   10.9562   -4.2996 H   0  0  0  0  0  0  0  0  0  0  0  0
   -5.3041   12.5569   -3.5327 H   0  0  0  0  0  0  0  0  0  0  0  0
   -3.2973   11.8900   -2.6768 H   0  0  0  0  0  0  0  0  0  0  0  0
   -3.8808   10.1784   -2.4245 H   0  0  0  0  0  0  0  0  0  0  0  0
   -3.8231   10.3335   -5.1453 H   0  0  0  0  0  0  0  0  0  0  0  0
   -2.4175   11.3942   -4.6656 H   0  0  0  0  0  0  0  0  0  0  0  0
   -1.9887    8.8720   -5.0965 H   0  0  0  0  0  0  0  0  0  0  0  0
   -1.2975    9.6777   -3.6131 H   0  0  0  0  0  0  0  0  0  0  0  0
   -2.6987    8.5802   -2.1760 H   0  0  0  0  0  0  0  0  0  0  0  0
   -3.9421    8.2832   -3.5006 H   0  0  0  0  0  0  0  0  0  0  0  0
   -3.2479    6.2160   -3.6366 H   0  0  0  0  0  0  0  0  0  0  0  0
   -1.6394    6.8825   -4.2207 H   0  0  0  0  0  0  0  0  0  0  0  0
   -2.0402    6.7598   -1.2860 H   0  0  0  0  0  0  0  0  0  0  0  0
   -1.8673    5.1785   -2.1916 H   0  0  0  0  0  0  0  0  0  0  0  0
    0.0940    7.3971   -2.6732 H   0  0  0  0  0  0  0  0  0  0  0  0
    0.2167    6.3364   -1.1892 H   0  0  0  0  0  0  0  0  0  0  0  0
    1.3326    4.8592   -2.3975 H   0  0  0  0  0  0  0  0  0  0  0  0
   -0.1813    4.6045   -3.3641 H   0  0  0  0  0  0  0  0  0  0  0  0
    2.2610    5.8780   -4.1090 H   0  0  0  0  0  0  0  0  0  0  0  0
    1.0160    6.8950   -4.3290 H   0  0  0  0  0  0  0  0  0  0  0  0
    1.8227    5.3360   -6.2542 H   0  0  0  0  0  0  0  0  0  0  0  0
    1.7458    3.2623   -4.9699 H   0  0  0  0  0  0  0  0  0  0  0  0
    0.0668    3.6298   -4.3947 H   0  0  0  0  0  0  0  0  0  0  0  0
    0.8667    3.0250   -7.2767 H   0  0  0  0  0  0  0  0  0  0  0  0
    0.0750    1.8781   -6.1320 H   0  0  0  0  0  0  0  0  0  0  0  0
   -1.4635    3.1061   -7.7793 H   0  0  0  0  0  0  0  0  0  0  0  0
   -1.8956    3.1864   -6.0155 H   0  0  0  0  0  0  0  0  0  0  0  0
   -3.0030    5.0030   -7.8710 H   0  0  0  0  0  0  0  0  0  0  0  0
   -1.3870    8.8721   -7.2896 H   0  0  0  0  0  0  0  0  0  0  0  0
    0.5205    7.8669   -6.1687 H   0  0  0  0  0  0  0  0  0  0  0  0
  1  2  2  0
  2  3  1  0
  3  4  2  0
  4  5  1  0
  5  6  2  0
  6  7  1  0
  6  8  1  0
  8  9  1  0
  9 10  1  0
 10 11  1  0
 11 12  1  0
 12 13  1  0
 13 14  1  0
 14 15  1  0
 15 16  1  0
 16 17  1  0
 17 18  1  0
 18 19  1  0
 19 20  1  0
 20 21  1  0
 21 22  1  0
 22 23  1  0
 23 24  1  0
 24 25  1  0
 25 26  1  0
 26 27  1  0
 27 28  1  0
 28 29  1  0
 29 30  1  0
 30 31  1  0
 31 32  1  0
 32 33  2  0
 32 34  1  0
 34 35  2  0
 35 36  1  0
  7  2  1  0
 36 26  1  0
 11  5  1  0
 36 30  2  0
  3 37  1  0
  4 38  1  0
  7 39  1  0
  8 40  1  0
  8 41  1  0
  9 42  1  0
  9 43  1  0
 10 44  1  0
 10 45  1  0
 11 46  1  6
 12 47  1  0
 12 48  1  0
 13 49  1  0
 13 50  1  0
 14 51  1  0
 14 52  1  0
 15 53  1  0
 15 54  1  0
 16 55  1  0
 16 56  1  0
 17 57  1  0
 17 58  1  0
 18 59  1  0
 18 60  1  0
 19 61  1  0
 19 62  1  0
 20 63  1  0
 20 64  1  0
 21 65  1  0
 21 66  1  0
 22 67  1  0
 22 68  1  0
 23 69  1  0
 23 70  1  0
 24 71  1  0
 24 72  1  0
 25 73  1  0
 25 74  1  0
 26 75  1  6
 27 76  1  0
 27 77  1  0
 28 78  1  0
 28 79  1  0
 29 80  1  0
 29 81  1  0
 31 82  1  0
 34 83  1  0
 35 84  1  0
M  CHG  2  12   1  25   1
M  END
>  <meeko>  (4) 
{"is_sidechain": [false], "free_energy": -9.704, "intermolecular_energy": -18.634, "internal_energy": -2.065}

$$$$
1h23_ligand
     RDKit          3D

 84 87  0  0  0  0  0  0  0  0999 V2000
  -12.7500   12.9600   -7.3040 O   0  0  0  0  0  0  0  0  0  0  0  0
  -11.7290   13.0970   -6.6460 C   0  0  0  0  0  0  0  0  0  0  0  0
  -11.6550   14.0680   -5.5300 C   0  0  0  0  0  0  0  0  0  0  0  0
  -10.5280   14.1710   -4.8100 C   0  0  0  0  0  0  0  0  0  0  0  0
   -9.3700   13.3290   -5.0890 C   0  0  0  0  0  0  0  0  0  0  0  0
   -9.4230   12.4890   -6.1460 C   0  0  0  0  0  0  0  0  0  0  0  0
  -10.5800   12.3860   -6.8830 N   0  0  0  0  0  0  0  0  0  0  0  0
   -8.2600   11.6490   -6.6040 C   0  0  0  0  0  0  0  0  0  0  0  0
   -6.9340   12.1210   -6.0070 C   0  0  0  0  0  0  0  0  0  0  0  0
   -7.0810   12.3660   -4.5090 C   0  0  0  0  0  0  0  0  0  0  0  0
   -8.1370   13.4510   -4.2150 C   0  0  2  0  0  0  0  0  0  0  0  0
   -8.4600   13.3590   -2.7330 N   0  0  0  0  0  0  0  0  0  0  0  0
   -7.4010   12.7710   -1.8540 C   0  0  0  0  0  0  0  0  0  0  0  0
   -6.6430   13.8770   -1.1240 C   0  0  0  0  0  0  0  0  0  0  0  0
   -5.1480   13.9010   -1.4660 C   0  0  0  0  0  0  0  0  0  0  0  0
   -4.5060   12.5110   -1.5390 C   0  0  0  0  0  0  0  0  0  0  0  0
   -4.3030   12.0810   -2.9970 C   0  0  0  0  0  0  0  0  0  0  0  0
   -4.0000   10.5860   -3.1530 C   0  0  0  0  0  0  0  0  0  0  0  0
   -2.9010   10.2950   -4.1830 C   0  0  0  0  0  0  0  0  0  0  0  0
   -2.1320    8.9980   -3.8940 C   0  0  0  0  0  0  0  0  0  0  0  0
   -2.8150    8.0350   -2.9150 C   0  0  0  0  0  0  0  0  0  0  0  0
   -2.0940    6.6930   -2.7260 C   0  0  0  0  0  0  0  0  0  0  0  0
   -0.5730    6.8130   -2.6370 C   0  0  0  0  0  0  0  0  0  0  0  0
    0.1650    5.5190   -2.9860 C   0  0  0  0  0  0  0  0  0  0  0  0
    1.2450    5.7500   -3.9970 N   0  0  0  0  0  0  0  0  0  0  0  0
    1.0760    5.0890   -5.3530 C   0  0  1  0  0  0  0  0  0  0  0  0
    0.9060    3.5790   -5.0790 C   0  0  0  0  0  0  0  0  0  0  0  0
    0.4160    2.8370   -6.3160 C   0  0  0  0  0  0  0  0  0  0  0  0
   -0.9480    3.3690   -6.7510 C   0  0  0  0  0  0  0  0  0  0  0  0
   -0.9990    4.8750   -6.7550 C   0  0  0  0  0  0  0  0  0  0  0  0
   -2.0550    5.4390   -7.4370 N   0  0  0  0  0  0  0  0  0  0  0  0
   -2.2650    6.7860   -7.5840 C   0  0  0  0  0  0  0  0  0  0  0  0
   -3.2280    7.2540   -8.1730 O   0  0  0  0  0  0  0  0  0  0  0  0
   -1.2300    7.6560   -6.9830 C   0  0  0  0  0  0  0  0  0  0  0  0
   -0.2010    7.1090   -6.3190 C   0  0  0  0  0  0  0  0  0  0  0  0
   -0.0790    5.6640   -6.1580 C   0  0  0  0  0  0  0  0  0  0  0  0
  -12.5215   14.7026   -5.2924 H   0  0  0  0  0  0  0  0  0  0  0  0
  -10.4760   14.9053   -3.9926 H   0  0  0  0  0  0  0  0  0  0  0  0
  -10.6360   11.7490   -7.6740 H   0  0  0  0  0  0  0  0  0  0  0  0
   -8.4344   10.6066   -6.2989 H   0  0  0  0  0  0  0  0  0  0  0  0
   -8.1885   11.7403   -7.6979 H   0  0  0  0  0  0  0  0  0  0  0  0
   -6.1668   11.3507   -6.1744 H   0  0  0  0  0  0  0  0  0  0  0  0
   -6.6387   13.0618   -6.4945 H   0  0  0  0  0  0  0  0  0  0  0  0
   -7.3866   11.4284   -4.0217 H   0  0  0  0  0  0  0  0  0  0  0  0
   -6.1124   12.7122   -4.1191 H   0  0  0  0  0  0  0  0  0  0  0  0
   -7.7354   14.4453   -4.4602 H   0  0  0  0  0  0  0  0  0  0  0  0
   -9.3390   12.8440   -2.5910 H   0  0  0  0  0  0  0  0  0  0  0  0
   -8.6750   14.3110   -2.4050 H   0  0  0  0  0  0  0  0  0  0  0  0
   -7.8711   12.1050   -1.1154 H   0  0  0  0  0  0  0  0  0  0  0  0
   -6.6936   12.2039   -2.4769 H   0  0  0  0  0  0  0  0  0  0  0  0
   -7.0824   14.8463   -1.4020 H   0  0  0  0  0  0  0  0  0  0  0  0
   -6.7320   13.6820   -0.0451 H   0  0  0  0  0  0  0  0  0  0  0  0
   -5.0238   14.3918   -2.4426 H   0  0  0  0  0  0  0  0  0  0  0  0
   -4.6429   14.4441   -0.6536 H   0  0  0  0  0  0  0  0  0  0  0  0
   -3.5304   12.5372   -1.0315 H   0  0  0  0  0  0  0  0  0  0  0  0
   -5.1737   11.7879   -1.0478 H   0  0  0  0  0  0  0  0  0  0  0  0
   -5.2195   12.3118   -3.5597 H   0  0  0  0  0  0  0  0  0  0  0  0
   -3.4310   12.6314   -3.3801 H   0  0  0  0  0  0  0  0  0  0  0  0
   -3.6784   10.1911   -2.1780 H   0  0  0  0  0  0  0  0  0  0  0  0
   -4.9203   10.1023   -3.5123 H   0  0  0  0  0  0  0  0  0  0  0  0
   -3.3656   10.2124   -5.1766 H   0  0  0  0  0  0  0  0  0  0  0  0
   -2.1781   11.1226   -4.1335 H   0  0  0  0  0  0  0  0  0  0  0  0
   -1.9887    8.4683   -4.8474 H   0  0  0  0  0  0  0  0  0  0  0  0
   -1.1908    9.3032   -3.4134 H   0  0  0  0  0  0  0  0  0  0  0  0
   -2.8784    8.5307   -1.9351 H   0  0  0  0  0  0  0  0  0  0  0  0
   -3.7994    7.8004   -3.3463 H   0  0  0  0  0  0  0  0  0  0  0  0
   -2.4597    6.2314   -1.7969 H   0  0  0  0  0  0  0  0  0  0  0  0
   -2.3143    6.0847   -3.6157 H   0  0  0  0  0  0  0  0  0  0  0  0
   -0.2449    7.5990   -3.3330 H   0  0  0  0  0  0  0  0  0  0  0  0
   -0.3289    7.0516   -1.5913 H   0  0  0  0  0  0  0  0  0  0  0  0
    0.6161    5.1084   -2.0706 H   0  0  0  0  0  0  0  0  0  0  0  0
   -0.5628    4.8162   -3.4177 H   0  0  0  0  0  0  0  0  0  0  0  0
    2.1400    5.4120   -3.6130 H   0  0  0  0  0  0  0  0  0  0  0  0
    1.3890    6.7610   -4.1120 H   0  0  0  0  0  0  0  0  0  0  0  0
    1.9576    5.2801   -5.9825 H   0  0  0  0  0  0  0  0  0  0  0  0
    1.8758    3.1603   -4.7722 H   0  0  0  0  0  0  0  0  0  0  0  0
    0.1560    3.4556   -4.2838 H   0  0  0  0  0  0  0  0  0  0  0  0
    1.1380    2.9793   -7.1336 H   0  0  0  0  0  0  0  0  0  0  0  0
    0.3218    1.7675   -6.0764 H   0  0  0  0  0  0  0  0  0  0  0  0
   -1.1623    3.0050   -7.7667 H   0  0  0  0  0  0  0  0  0  0  0  0
   -1.6958    3.0086   -6.0293 H   0  0  0  0  0  0  0  0  0  0  0  0
   -2.7570    4.8540   -7.8820 H   0  0  0  0  0  0  0  0  0  0  0  0
   -1.3043    8.7491   -7.0806 H   0  0  0  0  0  0  0  0  0  0  0  0
    0.5686    7.7648   -5.8859 H   0  0  0  0  0  0  0  0  0  0  0  0
  1  2  2  0
  2  3  1  0
  3  4  2  0
  4  5  1  0
  5  6  2  0
  6  7  1  0
  6  8  1  0
  8  9  1  0
  9 10  1  0
 10 11  1  0
 11 12  1  0
 12 13  1  0
 13 14  1  0
 14 15  1  0
 15 16  1  0
 16 17  1  0
 17 18  1  0
 18 19  1  0
 19 20  1  0
 20 21  1  0
 21 22  1  0
 22 23  1  0
 23 24  1  0
 24 25  1  0
 25 26  1  0
 26 27  1  0
 27 28  1  0
 28 29  1  0
 29 30  1  0
 30 31  1  0
 31 32  1  0
 32 33  2  0
 32 34  1  0
 34 35  2  0
 35 36  1  0
  7  2  1  0
 36 26  1  0
 11  5  1  0
 36 30  2  0
  3 37  1  0
  4 38  1  0
  7 39  1  0
  8 40  1  0
  8 41  1  0
  9 42  1  0
  9 43  1  0
 10 44  1  0
 10 45  1  0
 11 46  1  1
 12 47  1  0
 12 48  1  0
 13 49  1  0
 13 50  1  0
 14 51  1  0
 14 52  1  0
 15 53  1  0
 15 54  1  0
 16 55  1  0
 16 56  1  0
 17 57  1  0
 17 58  1  0
 18 59  1  0
 18 60  1  0
 19 61  1  0
 19 62  1  0
 20 63  1  0
 20 64  1  0
 21 65  1  0
 21 66  1  0
 22 67  1  0
 22 68  1  0
 23 69  1  0
 23 70  1  0
 24 71  1  0
 24 72  1  0
 25 73  1  0
 25 74  1  0
 26 75  1  6
 27 76  1  0
 27 77  1  0
 28 78  1  0
 28 79  1  0
 29 80  1  0
 29 81  1  0
 31 82  1  0
 34 83  1  0
 35 84  1  0
M  CHG  2  12   1  25   1
M  END
>  <meeko>  (5) 
{"is_sidechain": [false], "free_energy": -9.683, "intermolecular_energy": -18.997, "internal_energy": -1.662}

$$$$
1h23_ligand
     RDKit          3D

 84 87  0  0  0  0  0  0  0  0999 V2000
  -12.8090   12.7620   -7.6340 O   0  0  0  0  0  0  0  0  0  0  0  0
  -11.8240   12.9830   -6.9460 C   0  0  0  0  0  0  0  0  0  0  0  0
  -11.8350   14.0280   -5.8950 C   0  0  0  0  0  0  0  0  0  0  0  0
  -10.7460   14.2240   -5.1380 C   0  0  0  0  0  0  0  0  0  0  0  0
   -9.5440   13.4140   -5.3130 C   0  0  0  0  0  0  0  0  0  0  0  0
   -9.5190   12.5050   -6.3130 C   0  0  0  0  0  0  0  0  0  0  0  0
  -10.6380   12.3070   -7.0880 N   0  0  0  0  0  0  0  0  0  0  0  0
   -8.3060   11.6860   -6.6680 C   0  0  0  0  0  0  0  0  0  0  0  0
   -7.0270   12.2500   -6.0490 C   0  0  0  0  0  0  0  0  0  0  0  0
   -7.2470   12.5860   -4.5780 C   0  0  0  0  0  0  0  0  0  0  0  0
   -8.3560   13.6430   -4.4000 C   0  0  2  0  0  0  0  0  0  0  0  0
   -8.7390   13.6340   -2.9300 N   0  0  0  0  0  0  0  0  0  0  0  0
   -7.9650   14.5470   -2.0320 C   0  0  0  0  0  0  0  0  0  0  0  0
   -6.6150   13.9270   -1.6790 C   0  0  0  0  0  0  0  0  0  0  0  0
   -6.7400   12.7240   -0.7360 C   0  0  0  0  0  0  0  0  0  0  0  0
   -6.3570   11.3870   -1.3810 C   0  0  0  0  0  0  0  0  0  0  0  0
   -4.8490   11.3220   -1.6480 C   0  0  0  0  0  0  0  0  0  0  0  0
   -4.4910   10.5730   -2.9370 C   0  0  0  0  0  0  0  0  0  0  0  0
   -3.4390   11.2970   -3.7860 C   0  0  0  0  0  0  0  0  0  0  0  0
   -2.9460   10.4630   -4.9770 C   0  0  0  0  0  0  0  0  0  0  0  0
   -3.8430   10.5020   -6.2210 C   0  0  0  0  0  0  0  0  0  0  0  0
   -3.3130    9.7060   -7.4210 C   0  0  0  0  0  0  0  0  0  0  0  0
   -2.1600    8.7620   -7.0800 C   0  0  0  0  0  0  0  0  0  0  0  0
   -2.4680    7.2910   -7.3630 C   0  0  0  0  0  0  0  0  0  0  0  0
   -2.4350    6.4650   -6.1160 N   0  0  0  0  0  0  0  0  0  0  0  0
   -1.8340    7.1060   -4.8780 C   0  0  1  0  0  0  0  0  0  0  0  0
   -2.7990    6.7880   -3.7150 C   0  0  0  0  0  0  0  0  0  0  0  0
   -2.1690    7.0970   -2.3630 C   0  0  0  0  0  0  0  0  0  0  0  0
   -0.9180    6.2480   -2.1510 C   0  0  0  0  0  0  0  0  0  0  0  0
   -0.0260    6.2290   -3.3660 C   0  0  0  0  0  0  0  0  0  0  0  0
    1.2580    5.7740   -3.1650 N   0  0  0  0  0  0  0  0  0  0  0  0
    2.2280    5.7070   -4.1310 C   0  0  0  0  0  0  0  0  0  0  0  0
    3.3510    5.2720   -3.9240 O   0  0  0  0  0  0  0  0  0  0  0  0
    1.8300    6.2130   -5.4630 C   0  0  0  0  0  0  0  0  0  0  0  0
    0.5800    6.6560   -5.6620 C   0  0  0  0  0  0  0  0  0  0  0  0
   -0.4140    6.6410   -4.5940 C   0  0  0  0  0  0  0  0  0  0  0  0
  -12.7344   14.6412   -5.7365 H   0  0  0  0  0  0  0  0  0  0  0  0
  -10.7584   15.0110   -4.3695 H   0  0  0  0  0  0  0  0  0  0  0  0
  -10.6350   11.6180   -7.8360 H   0  0  0  0  0  0  0  0  0  0  0  0
   -8.4530   10.6587   -6.3031 H   0  0  0  0  0  0  0  0  0  0  0  0
   -8.1908   11.7098   -7.7617 H   0  0  0  0  0  0  0  0  0  0  0  0
   -6.2243   11.5026   -6.1332 H   0  0  0  0  0  0  0  0  0  0  0  0
   -6.7482   13.1690   -6.5853 H   0  0  0  0  0  0  0  0  0  0  0  0
   -7.5364   11.6703   -4.0415 H   0  0  0  0  0  0  0  0  0  0  0  0
   -6.3101   12.9969   -4.1737 H   0  0  0  0  0  0  0  0  0  0  0  0
   -7.9828   14.6350   -4.6943 H   0  0  0  0  0  0  0  0  0  0  0  0
   -8.6940   12.6770   -2.5560 H   0  0  0  0  0  0  0  0  0  0  0  0
   -9.7380   13.8750   -2.8700 H   0  0  0  0  0  0  0  0  0  0  0  0
   -7.8005   15.5061   -2.5449 H   0  0  0  0  0  0  0  0  0  0  0  0
   -8.5374   14.7069   -1.1064 H   0  0  0  0  0  0  0  0  0  0  0  0
   -6.1270   13.5960   -2.6076 H   0  0  0  0  0  0  0  0  0  0  0  0
   -6.0246   14.6952   -1.1582 H   0  0  0  0  0  0  0  0  0  0  0  0
   -6.0820   12.8923    0.1293 H   0  0  0  0  0  0  0  0  0  0  0  0
   -7.8001   12.6496   -0.4520 H   0  0  0  0  0  0  0  0  0  0  0  0
   -6.6389   10.5667   -0.7045 H   0  0  0  0  0  0  0  0  0  0  0  0
   -6.8885   11.2936   -2.3395 H   0  0  0  0  0  0  0  0  0  0  0  0
   -4.4635   12.3495   -1.7232 H   0  0  0  0  0  0  0  0  0  0  0  0
   -4.3949   10.7678   -0.8134 H   0  0  0  0  0  0  0  0  0  0  0  0
   -4.0998    9.5809   -2.6673 H   0  0  0  0  0  0  0  0  0  0  0  0
   -5.4080   10.5064   -3.5409 H   0  0  0  0  0  0  0  0  0  0  0  0
   -3.8802   12.2286   -4.1701 H   0  0  0  0  0  0  0  0  0  0  0  0
   -2.5706   11.4880   -3.1383 H   0  0  0  0  0  0  0  0  0  0  0  0
   -1.9512   10.8348   -5.2636 H   0  0  0  0  0  0  0  0  0  0  0  0
   -2.9443    9.4172   -4.6360 H   0  0  0  0  0  0  0  0  0  0  0  0
   -4.8267   10.0933   -5.9466 H   0  0  0  0  0  0  0  0  0  0  0  0
   -3.8841   11.5538   -6.5406 H   0  0  0  0  0  0  0  0  0  0  0  0
   -4.1398    9.1080   -7.8319 H   0  0  0  0  0  0  0  0  0  0  0  0
   -2.9218   10.4391   -8.1418 H   0  0  0  0  0  0  0  0  0  0  0  0
   -1.2832    9.0546   -7.6764 H   0  0  0  0  0  0  0  0  0  0  0  0
   -1.9795    8.8512   -5.9986 H   0  0  0  0  0  0  0  0  0  0  0  0
   -3.4694    7.2172   -7.8122 H   0  0  0  0  0  0  0  0  0  0  0  0
   -1.6975    6.9066   -8.0475 H   0  0  0  0  0  0  0  0  0  0  0  0
   -1.8910    5.6080   -6.2960 H   0  0  0  0  0  0  0  0  0  0  0  0
   -3.3820    6.1220   -5.9120 H   0  0  0  0  0  0  0  0  0  0  0  0
   -1.7327    8.1917   -5.0226 H   0  0  0  0  0  0  0  0  0  0  0  0
   -3.7098    7.3937   -3.8312 H   0  0  0  0  0  0  0  0  0  0  0  0
   -3.0346    5.7140   -3.7473 H   0  0  0  0  0  0  0  0  0  0  0  0
   -1.8948    8.1616   -2.3260 H   0  0  0  0  0  0  0  0  0  0  0  0
   -2.8954    6.8654   -1.5701 H   0  0  0  0  0  0  0  0  0  0  0  0
   -0.3512    6.6591   -1.3026 H   0  0  0  0  0  0  0  0  0  0  0  0
   -1.2418    5.2151   -1.9555 H   0  0  0  0  0  0  0  0  0  0  0  0
    1.5560    5.4530   -2.2480 H   0  0  0  0  0  0  0  0  0  0  0  0
    2.5575    6.2258   -6.2880 H   0  0  0  0  0  0  0  0  0  0  0  0
    0.2975    7.0396   -6.6535 H   0  0  0  0  0  0  0  0  0  0  0  0
  1  2  2  0
  2  3  1  0
  3  4  2  0
  4  5  1  0
  5  6  2  0
  6  7  1  0
  6  8  1  0
  8  9  1  0
  9 10  1  0
 10 11  1  0
 11 12  1  0
 12 13  1  0
 13 14  1  0
 14 15  1  0
 15 16  1  0
 16 17  1  0
 17 18  1  0
 18 19  1  0
 19 20  1  0
 20 21  1  0
 21 22  1  0
 22 23  1  0
 23 24  1  0
 24 25  1  0
 25 26  1  0
 26 27  1  0
 27 28  1  0
 28 29  1  0
 29 30  1  0
 30 31  1  0
 31 32  1  0
 32 33  2  0
 32 34  1  0
 34 35  2  0
 35 36  1  0
  7  2  1  0
 36 26  1  0
 11  5  1  0
 36 30  2  0
  3 37  1  0
  4 38  1  0
  7 39  1  0
  8 40  1  0
  8 41  1  0
  9 42  1  0
  9 43  1  0
 10 44  1  0
 10 45  1  0
 11 46  1  6
 12 47  1  0
 12 48  1  0
 13 49  1  0
 13 50  1  0
 14 51  1  0
 14 52  1  0
 15 53  1  0
 15 54  1  0
 16 55  1  0
 16 56  1  0
 17 57  1  0
 17 58  1  0
 18 59  1  0
 18 60  1  0
 19 61  1  0
 19 62  1  0
 20 63  1  0
 20 64  1  0
 21 65  1  0
 21 66  1  0
 22 67  1  0
 22 68  1  0
 23 69  1  0
 23 70  1  0
 24 71  1  0
 24 72  1  0
 25 73  1  0
 25 74  1  0
 26 75  1  6
 27 76  1  0
 27 77  1  0
 28 78  1  0
 28 79  1  0
 29 80  1  0
 29 81  1  0
 31 82  1  0
 34 83  1  0
 35 84  1  0
M  CHG  2  12   1  25   1
M  END
>  <meeko>  (6) 
{"is_sidechain": [false], "free_energy": -9.659, "intermolecular_energy": -18.528, "internal_energy": -2.087}

$$$$
1h23_ligand
     RDKit          3D

 84 87  0  0  0  0  0  0  0  0999 V2000
   -3.8040    7.0620   -9.0430 O   0  0  0  0  0  0  0  0  0  0  0  0
   -2.8740    6.7950   -8.2980 C   0  0  0  0  0  0  0  0  0  0  0  0
   -2.0720    7.8600   -7.6500 C   0  0  0  0  0  0  0  0  0  0  0  0
   -1.0770    7.5310   -6.8140 C   0  0  0  0  0  0  0  0  0  0  0  0
   -0.7730    6.1360   -6.5090 C   0  0  0  0  0  0  0  0  0  0  0  0
   -1.4670    5.1700   -7.1480 C   0  0  0  0  0  0  0  0  0  0  0  0
   -2.4870    5.5110   -8.0060 N   0  0  0  0  0  0  0  0  0  0  0  0
   -1.1770    3.6990   -7.0040 C   0  0  0  0  0  0  0  0  0  0  0  0
    0.1930    3.4380   -6.3800 C   0  0  0  0  0  0  0  0  0  0  0  0
    0.4000    4.3210   -5.1550 C   0  0  0  0  0  0  0  0  0  0  0  0
    0.3320    5.8180   -5.5190 C   0  0  2  0  0  0  0  0  0  0  0  0
    0.1850    6.5820   -4.2150 N   0  0  0  0  0  0  0  0  0  0  0  0
   -0.1420    5.7720   -2.9990 C   0  0  0  0  0  0  0  0  0  0  0  0
   -1.3420    6.3700   -2.2690 C   0  0  0  0  0  0  0  0  0  0  0  0
   -2.4280    6.8800   -3.2240 C   0  0  0  0  0  0  0  0  0  0  0  0
   -2.8220    8.3430   -2.9930 C   0  0  0  0  0  0  0  0  0  0  0  0
   -2.2870    9.2350   -4.1200 C   0  0  0  0  0  0  0  0  0  0  0  0
   -2.9520   10.6160   -4.1690 C   0  0  0  0  0  0  0  0  0  0  0  0
   -4.0930   10.7750   -3.1560 C   0  0  0  0  0  0  0  0  0  0  0  0
   -4.0650   12.1240   -2.4230 C   0  0  0  0  0  0  0  0  0  0  0  0
   -5.1730   12.3270   -1.3830 C   0  0  0  0  0  0  0  0  0  0  0  0
   -5.8750   13.6910   -1.4490 C   0  0  0  0  0  0  0  0  0  0  0  0
   -7.3830   13.6250   -1.2080 C   0  0  0  0  0  0  0  0  0  0  0  0
   -8.1990   13.3990   -2.4810 C   0  0  0  0  0  0  0  0  0  0  0  0
   -7.8820   14.4160   -3.5330 N   0  0  0  0  0  0  0  0  0  0  0  0
   -7.6600   13.9040   -4.9450 C   0  0  1  0  0  0  0  0  0  0  0  0
   -6.7450   12.6670   -4.8170 C   0  0  0  0  0  0  0  0  0  0  0  0
   -6.6960   11.8700   -6.1150 C   0  0  0  0  0  0  0  0  0  0  0  0
   -8.0880   11.3610   -6.4810 C   0  0  0  0  0  0  0  0  0  0  0  0
   -9.1430   12.4270   -6.3390 C   0  0  0  0  0  0  0  0  0  0  0  0
  -10.3490   12.1670   -6.9510 N   0  0  0  0  0  0  0  0  0  0  0  0
  -11.4230   13.0190   -6.9640 C   0  0  0  0  0  0  0  0  0  0  0  0
  -12.4900   12.7450   -7.4930 O   0  0  0  0  0  0  0  0  0  0  0  0
  -11.2060   14.3200   -6.2930 C   0  0  0  0  0  0  0  0  0  0  0  0
  -10.0330   14.5760   -5.6970 C   0  0  0  0  0  0  0  0  0  0  0  0
   -8.9560   13.5910   -5.6780 C   0  0  0  0  0  0  0  0  0  0  0  0
   -2.2928    8.9180   -7.8547 H   0  0  0  0  0  0  0  0  0  0  0  0
   -0.4779    8.3276   -6.3488 H   0  0  0  0  0  0  0  0  0  0  0  0
   -3.0240    4.7920   -8.4840 H   0  0  0  0  0  0  0  0  0  0  0  0
   -1.9493    3.2469   -6.3644 H   0  0  0  0  0  0  0  0  0  0  0  0
   -1.1793    3.2548   -8.0103 H   0  0  0  0  0  0  0  0  0  0  0  0
    0.2585    2.3818   -6.0798 H   0  0  0  0  0  0  0  0  0  0  0  0
    0.9713    3.6711   -7.1215 H   0  0  0  0  0  0  0  0  0  0  0  0
   -0.3837    4.0969   -4.4163 H   0  0  0  0  0  0  0  0  0  0  0  0
    1.3981    4.1111   -4.7431 H   0  0  0  0  0  0  0  0  0  0  0  0
    1.2519    6.1219   -6.0400 H   0  0  0  0  0  0  0  0  0  0  0  0
   -0.5120    7.3310   -4.3160 H   0  0  0  0  0  0  0  0  0  0  0  0
    1.0680    7.0860   -4.0520 H   0  0  0  0  0  0  0  0  0  0  0  0
   -0.3789    4.7416   -3.3026 H   0  0  0  0  0  0  0  0  0  0  0  0
    0.7258    5.7764   -2.3230 H   0  0  0  0  0  0  0  0  0  0  0  0
   -1.7797    5.5965   -1.6208 H   0  0  0  0  0  0  0  0  0  0  0  0
   -0.9800    7.2324   -1.6901 H   0  0  0  0  0  0  0  0  0  0  0  0
   -2.0574    6.7799   -4.2548 H   0  0  0  0  0  0  0  0  0  0  0  0
   -3.3270    6.2743   -3.0373 H   0  0  0  0  0  0  0  0  0  0  0  0
   -3.9188    8.4205   -2.9614 H   0  0  0  0  0  0  0  0  0  0  0  0
   -2.3871    8.6793   -2.0403 H   0  0  0  0  0  0  0  0  0  0  0  0
   -1.2058    9.3733   -3.9722 H   0  0  0  0  0  0  0  0  0  0  0  0
   -2.5145    8.7302   -5.0705 H   0  0  0  0  0  0  0  0  0  0  0  0
   -2.1884   11.3791   -3.9578 H   0  0  0  0  0  0  0  0  0  0  0  0
   -3.3877   10.7330   -5.1723 H   0  0  0  0  0  0  0  0  0  0  0  0
   -5.0504   10.6870   -3.6905 H   0  0  0  0  0  0  0  0  0  0  0  0
   -3.9703    9.9875   -2.3979 H   0  0  0  0  0  0  0  0  0  0  0  0
   -3.0963   12.2117   -1.9092 H   0  0  0  0  0  0  0  0  0  0  0  0
   -4.2261   12.8925   -3.1934 H   0  0  0  0  0  0  0  0  0  0  0  0
   -5.9311   11.5442   -1.5332 H   0  0  0  0  0  0  0  0  0  0  0  0
   -4.6865   12.2761   -0.3978 H   0  0  0  0  0  0  0  0  0  0  0  0
   -5.4308   14.3462   -0.6852 H   0  0  0  0  0  0  0  0  0  0  0  0
   -5.7318   14.0742   -2.4701 H   0  0  0  0  0  0  0  0  0  0  0  0
   -7.5878   12.7976   -0.5127 H   0  0  0  0  0  0  0  0  0  0  0  0
   -7.6866   14.6005   -0.8002 H   0  0  0  0  0  0  0  0  0  0  0  0
   -7.9736   12.3971   -2.8751 H   0  0  0  0  0  0  0  0  0  0  0  0
   -9.2647   13.4929   -2.2250 H   0  0  0  0  0  0  0  0  0  0  0  0
   -7.0240   14.9190   -3.2650 H   0  0  0  0  0  0  0  0  0  0  0  0
   -8.6090   15.1420   -3.5310 H   0  0  0  0  0  0  0  0  0  0  0  0
   -7.1886   14.6827   -5.5626 H   0  0  0  0  0  0  0  0  0  0  0  0
   -5.7277   12.9999   -4.5637 H   0  0  0  0  0  0  0  0  0  0  0  0
   -7.1527   12.0170   -4.0288 H   0  0  0  0  0  0  0  0  0  0  0  0
   -6.3225   12.5162   -6.9230 H   0  0  0  0  0  0  0  0  0  0  0  0
   -6.0258   11.0084   -5.9791 H   0  0  0  0  0  0  0  0  0  0  0  0
   -8.0744   11.0138   -7.5247 H   0  0  0  0  0  0  0  0  0  0  0  0
   -8.3401   10.5442   -5.7887 H   0  0  0  0  0  0  0  0  0  0  0  0
  -10.5020   11.2910   -7.4430 H   0  0  0  0  0  0  0  0  0  0  0  0
  -12.0056   15.0753   -6.2834 H   0  0  0  0  0  0  0  0  0  0  0  0
   -9.8785   15.5507   -5.2111 H   0  0  0  0  0  0  0  0  0  0  0  0
  1  2  2  0
  2  3  1  0
  3  4  2  0
  4  5  1  0
  5  6  2  0
  6  7  1  0
  6  8  1  0
  8  9  1  0
  9 10  1  0
 10 11  1  0
 11 12  1  0
 12 13  1  0
 13 14  1  0
 14 15  1  0
 15 16  1  0
 16 17  1  0
 17 18  1  0
 18 19  1  0
 19 20  1  0
 20 21  1  0
 21 22  1  0
 22 23  1  0
 23 24  1  0
 24 25  1  0
 25 26  1  0
 26 27  1  0
 27 28  1  0
 28 29  1  0
 29 30  1  0
 30 31  1  0
 31 32  1  0
 32 33  2  0
 32 34  1  0
 34 35  2  0
 35 36  1  0
  7  2  1  0
 36 26  1  0
 11  5  1  0
 36 30  2  0
  3 37  1  0
  4 38  1  0
  7 39  1  0
  8 40  1  0
  8 41  1  0
  9 42  1  0
  9 43  1  0
 10 44  1  0
 10 45  1  0
 11 46  1  6
 12 47  1  0
 12 48  1  0
 13 49  1  0
 13 50  1  0
 14 51  1  0
 14 52  1  0
 15 53  1  0
 15 54  1  0
 16 55  1  0
 16 56  1  0
 17 57  1  0
 17 58  1  0
 18 59  1  0
 18 60  1  0
 19 61  1  0
 19 62  1  0
 20 63  1  0
 20 64  1  0
 21 65  1  0
 21 66  1  0
 22 67  1  0
 22 68  1  0
 23 69  1  0
 23 70  1  0
 24 71  1  0
 24 72  1  0
 25 73  1  0
 25 74  1  0
 26 75  1  6
 27 76  1  0
 27 77  1  0
 28 78  1  0
 28 79  1  0
 29 80  1  0
 29 81  1  0
 31 82  1  0
 34 83  1  0
 35 84  1  0
M  CHG  2  12   1  25   1
M  END
>  <meeko>  (7) 
{"is_sidechain": [false], "free_energy": -9.536, "intermolecular_energy": -18.149, "internal_energy": -2.235}

$$$$
1h23_ligand
     RDKit          3D

 84 87  0  0  0  0  0  0  0  0999 V2000
  -11.1580   14.5000   -0.9400 O   0  0  0  0  0  0  0  0  0  0  0  0
  -10.8760   14.2610   -2.1040 C   0  0  0  0  0  0  0  0  0  0  0  0
   -9.4780   14.0000   -2.5210 C   0  0  0  0  0  0  0  0  0  0  0  0
   -9.2080   13.7100   -3.8030 C   0  0  0  0  0  0  0  0  0  0  0  0
  -10.2680   13.6270   -4.8020 C   0  0  0  0  0  0  0  0  0  0  0  0
  -11.5320   13.9260   -4.4280 C   0  0  0  0  0  0  0  0  0  0  0  0
  -11.8060   14.2220   -3.1120 N   0  0  0  0  0  0  0  0  0  0  0  0
  -12.6950   13.9830   -5.3830 C   0  0  0  0  0  0  0  0  0  0  0  0
  -12.2420   14.0490   -6.8410 C   0  0  0  0  0  0  0  0  0  0  0  0
  -11.1570   13.0120   -7.1110 C   0  0  0  0  0  0  0  0  0  0  0  0
   -9.9160   13.2490   -6.2270 C   0  0  2  0  0  0  0  0  0  0  0  0
   -9.0730   11.9880   -6.3060 N   0  0  0  0  0  0  0  0  0  0  0  0
   -7.8080   12.0780   -7.1010 C   0  0  0  0  0  0  0  0  0  0  0  0
   -6.6700   11.3720   -6.3680 C   0  0  0  0  0  0  0  0  0  0  0  0
   -6.1580   12.1620   -5.1580 C   0  0  0  0  0  0  0  0  0  0  0  0
   -6.3320   11.4330   -3.8210 C   0  0  0  0  0  0  0  0  0  0  0  0
   -5.1470   11.7140   -2.8890 C   0  0  0  0  0  0  0  0  0  0  0  0
   -4.1610   10.5450   -2.7890 C   0  0  0  0  0  0  0  0  0  0  0  0
   -3.1100   10.5420   -3.9060 C   0  0  0  0  0  0  0  0  0  0  0  0
   -2.3690    9.2030   -4.0340 C   0  0  0  0  0  0  0  0  0  0  0  0
   -2.7770    8.1290   -3.0180 C   0  0  0  0  0  0  0  0  0  0  0  0
   -2.0730    6.7760   -3.1940 C   0  0  0  0  0  0  0  0  0  0  0  0
   -0.6590    6.7330   -2.6150 C   0  0  0  0  0  0  0  0  0  0  0  0
    0.1440    5.5050   -3.0490 C   0  0  0  0  0  0  0  0  0  0  0  0
    1.1380    5.8390   -4.1170 N   0  0  0  0  0  0  0  0  0  0  0  0
    0.9530    5.1690   -5.4670 C   0  0  1  0  0  0  0  0  0  0  0  0
    0.7610    3.6650   -5.1800 C   0  0  0  0  0  0  0  0  0  0  0  0
    0.2530    2.9200   -6.4090 C   0  0  0  0  0  0  0  0  0  0  0  0
   -1.1030    3.4710   -6.8430 C   0  0  0  0  0  0  0  0  0  0  0  0
   -1.1310    4.9770   -6.8600 C   0  0  0  0  0  0  0  0  0  0  0  0
   -2.1800    5.5530   -7.5410 N   0  0  0  0  0  0  0  0  0  0  0  0
   -2.3690    6.9010   -7.6980 C   0  0  0  0  0  0  0  0  0  0  0  0
   -3.3270    7.3810   -8.2870 O   0  0  0  0  0  0  0  0  0  0  0  0
   -1.3180    7.7600   -7.1090 C   0  0  0  0  0  0  0  0  0  0  0  0
   -0.2960    7.2020   -6.4450 C   0  0  0  0  0  0  0  0  0  0  0  0
   -0.1960    5.7560   -6.2720 C   0  0  0  0  0  0  0  0  0  0  0  0
   -8.6644   14.0439   -1.7820 H   0  0  0  0  0  0  0  0  0  0  0  0
   -8.1661   13.5312   -4.1070 H   0  0  0  0  0  0  0  0  0  0  0  0
  -12.7550   14.4370   -2.8170 H   0  0  0  0  0  0  0  0  0  0  0  0
  -13.3119   13.0829   -5.2441 H   0  0  0  0  0  0  0  0  0  0  0  0
  -13.2663   14.8974   -5.1652 H   0  0  0  0  0  0  0  0  0  0  0  0
  -13.1028   13.8513   -7.4967 H   0  0  0  0  0  0  0  0  0  0  0  0
  -11.8343   15.0508   -7.0417 H   0  0  0  0  0  0  0  0  0  0  0  0
  -11.5597   12.0103   -6.9005 H   0  0  0  0  0  0  0  0  0  0  0  0
  -10.8519   13.0981   -8.1643 H   0  0  0  0  0  0  0  0  0  0  0  0
   -9.3479   14.1147   -6.5981 H   0  0  0  0  0  0  0  0  0  0  0  0
   -9.6370   11.2030   -6.6580 H   0  0  0  0  0  0  0  0  0  0  0  0
   -8.8410   11.7120   -5.3410 H   0  0  0  0  0  0  0  0  0  0  0  0
   -7.9601   11.6007   -8.0803 H   0  0  0  0  0  0  0  0  0  0  0  0
   -7.5443   13.1375   -7.2350 H   0  0  0  0  0  0  0  0  0  0  0  0
   -7.0307   10.3927   -6.0205 H   0  0  0  0  0  0  0  0  0  0  0  0
   -5.8334   11.2731   -7.0753 H   0  0  0  0  0  0  0  0  0  0  0  0
   -5.0869   12.3649   -5.3050 H   0  0  0  0  0  0  0  0  0  0  0  0
   -6.7583   13.0820   -5.1003 H   0  0  0  0  0  0  0  0  0  0  0  0
   -7.2589   11.7784   -3.3399 H   0  0  0  0  0  0  0  0  0  0  0  0
   -6.3804   10.3510   -4.0132 H   0  0  0  0  0  0  0  0  0  0  0  0
   -4.6069   12.5944   -3.2674 H   0  0  0  0  0  0  0  0  0  0  0  0
   -5.5578   11.8795   -1.8821 H   0  0  0  0  0  0  0  0  0  0  0  0
   -3.6420   10.6076   -1.8212 H   0  0  0  0  0  0  0  0  0  0  0  0
   -4.7439    9.6173   -2.8869 H   0  0  0  0  0  0  0  0  0  0  0  0
   -3.6132   10.7560   -4.8604 H   0  0  0  0  0  0  0  0  0  0  0  0
   -2.3616   11.3076   -3.6535 H   0  0  0  0  0  0  0  0  0  0  0  0
   -2.5566    8.8057   -5.0424 H   0  0  0  0  0  0  0  0  0  0  0  0
   -1.3091    9.4216   -3.8368 H   0  0  0  0  0  0  0  0  0  0  0  0
   -2.5470    8.5060   -2.0105 H   0  0  0  0  0  0  0  0  0  0  0  0
   -3.8494    7.9432   -3.1774 H   0  0  0  0  0  0  0  0  0  0  0  0
   -2.6759    6.0042   -2.6931 H   0  0  0  0  0  0  0  0  0  0  0  0
   -1.9800    6.6032   -4.2763 H   0  0  0  0  0  0  0  0  0  0  0  0
   -0.1210    7.6343   -2.9440 H   0  0  0  0  0  0  0  0  0  0  0  0
   -0.7601    6.6819   -1.5208 H   0  0  0  0  0  0  0  0  0  0  0  0
    0.6804    5.1039   -2.1764 H   0  0  0  0  0  0  0  0  0  0  0  0
   -0.5591    4.7636   -3.4565 H   0  0  0  0  0  0  0  0  0  0  0  0
    2.0810    5.5830   -3.7880 H   0  0  0  0  0  0  0  0  0  0  0  0
    1.1810    6.8590   -4.2310 H   0  0  0  0  0  0  0  0  0  0  0  0
    1.8348    5.3405   -6.1018 H   0  0  0  0  0  0  0  0  0  0  0  0
    1.7258    3.2338   -4.8745 H   0  0  0  0  0  0  0  0  0  0  0  0
    0.0131    3.5599   -4.3802 H   0  0  0  0  0  0  0  0  0  0  0  0
    0.9739    3.0427   -7.2308 H   0  0  0  0  0  0  0  0  0  0  0  0
    0.1417    1.8545   -6.1595 H   0  0  0  0  0  0  0  0  0  0  0  0
   -1.3271    3.1019   -7.8547 H   0  0  0  0  0  0  0  0  0  0  0  0
   -1.8531    3.1294   -6.1145 H   0  0  0  0  0  0  0  0  0  0  0  0
   -2.8930    4.9760   -7.9790 H   0  0  0  0  0  0  0  0  0  0  0  0
   -1.3752    8.8533   -7.2157 H   0  0  0  0  0  0  0  0  0  0  0  0
    0.4858    7.8490   -6.0205 H   0  0  0  0  0  0  0  0  0  0  0  0
  1  2  2  0
  2  3  1  0
  3  4  2  0
  4  5  1  0
  5  6  2  0
  6  7  1  0
  6  8  1  0
  8  9  1  0
  9 10  1  0
 10 11  1  0
 11 12  1  0
 12 13  1  0
 13 14  1  0
 14 15  1  0
 15 16  1  0
 16 17  1  0
 17 18  1  0
 18 19  1  0
 19 20  1  0
 20 21  1  0
 21 22  1  0
 22 23  1  0
 23 24  1  0
 24 25  1  0
 25 26  1  0
 26 27  1  0
 27 28  1  0
 28 29  1  0
 29 30  1  0
 30 31  1  0
 31 32  1  0
 32 33  2  0
 32 34  1  0
 34 35  2  0
 35 36  1  0
  7  2  1  0
 36 26  1  0
 11  5  1  0
 36 30  2  0
  3 37  1  0
  4 38  1  0
  7 39  1  0
  8 40  1  0
  8 41  1  0
  9 42  1  0
  9 43  1  0
 10 44  1  0
 10 45  1  0
 11 46  1  6
 12 47  1  0
 12 48  1  0
 13 49  1  0
 13 50  1  0
 14 51  1  0
 14 52  1  0
 15 53  1  0
 15 54  1  0
 16 55  1  0
 16 56  1  0
 17 57  1  0
 17 58  1  0
 18 59  1  0
 18 60  1  0
 19 61  1  0
 19 62  1  0
 20 63  1  0
 20 64  1  0
 21 65  1  0
 21 66  1  0
 22 67  1  0
 22 68  1  0
 23 69  1  0
 23 70  1  0
 24 71  1  0
 24 72  1  0
 25 73  1  0
 25 74  1  0
 26 75  1  6
 27 76  1  0
 27 77  1  0
 28 78  1  0
 28 79  1  0
 29 80  1  0
 29 81  1  0
 31 82  1  0
 34 83  1  0
 35 84  1  0
M  CHG  2  12   1  25   1
M  END
>  <meeko>  (8) 
{"is_sidechain": [false], "free_energy": -9.52, "intermolecular_energy": -18.087, "internal_energy": -2.267}

$$$$
1h23_ligand
     RDKit          3D

 84 87  0  0  0  0  0  0  0  0999 V2000
   -5.3430   10.0410   -7.8750 O   0  0  0  0  0  0  0  0  0  0  0  0
   -6.0540   10.9450   -7.4620 C   0  0  0  0  0  0  0  0  0  0  0  0
   -6.5820   10.9410   -6.0770 C   0  0  0  0  0  0  0  0  0  0  0  0
   -7.3350   11.9640   -5.6480 C   0  0  0  0  0  0  0  0  0  0  0  0
   -7.6350   13.1000   -6.5130 C   0  0  0  0  0  0  0  0  0  0  0  0
   -7.2020   13.0690   -7.7920 C   0  0  0  0  0  0  0  0  0  0  0  0
   -6.4290   12.0180   -8.2300 N   0  0  0  0  0  0  0  0  0  0  0  0
   -7.5360   14.1250   -8.8140 C   0  0  0  0  0  0  0  0  0  0  0  0
   -8.7030   15.0080   -8.3710 C   0  0  0  0  0  0  0  0  0  0  0  0
   -8.5150   15.4570   -6.9270 C   0  0  0  0  0  0  0  0  0  0  0  0
   -8.4510   14.2540   -5.9640 C   0  0  2  0  0  0  0  0  0  0  0  0
   -7.9110   14.7760   -4.6440 N   0  0  0  0  0  0  0  0  0  0  0  0
   -8.8430   14.7300   -3.4750 C   0  0  0  0  0  0  0  0  0  0  0  0
   -8.0540   14.7060   -2.1670 C   0  0  0  0  0  0  0  0  0  0  0  0
   -8.0810   13.3350   -1.4800 C   0  0  0  0  0  0  0  0  0  0  0  0
   -6.7520   12.9450   -0.8230 C   0  0  0  0  0  0  0  0  0  0  0  0
   -5.5810   13.6840   -1.4810 C   0  0  0  0  0  0  0  0  0  0  0  0
   -4.5280   12.7430   -2.0800 C   0  0  0  0  0  0  0  0  0  0  0  0
   -4.8140   11.2620   -1.8050 C   0  0  0  0  0  0  0  0  0  0  0  0
   -4.4900   10.3530   -3.0000 C   0  0  0  0  0  0  0  0  0  0  0  0
   -3.2990   10.7990   -3.8580 C   0  0  0  0  0  0  0  0  0  0  0  0
   -2.4490    9.6520   -4.4220 C   0  0  0  0  0  0  0  0  0  0  0  0
   -2.5110    8.3680   -3.5950 C   0  0  0  0  0  0  0  0  0  0  0  0
   -1.7580    7.1960   -4.2250 C   0  0  0  0  0  0  0  0  0  0  0  0
   -1.0860    7.5880   -5.5040 N   0  0  0  0  0  0  0  0  0  0  0  0
    0.2370    6.9150   -5.8240 C   0  0  1  0  0  0  0  0  0  0  0  0
    1.1840    7.2430   -4.6500 C   0  0  0  0  0  0  0  0  0  0  0  0
    2.4380    6.3790   -4.6830 C   0  0  0  0  0  0  0  0  0  0  0  0
    2.0700    4.9020   -4.5630 C   0  0  0  0  0  0  0  0  0  0  0  0
    0.9190    4.5240   -5.4590 C   0  0  0  0  0  0  0  0  0  0  0  0
    0.7340    3.1750   -5.6650 N   0  0  0  0  0  0  0  0  0  0  0  0
   -0.2340    2.6280   -6.4670 C   0  0  0  0  0  0  0  0  0  0  0  0
   -0.3880    1.4230   -6.6070 O   0  0  0  0  0  0  0  0  0  0  0  0
   -1.0930    3.6030   -7.1750 C   0  0  0  0  0  0  0  0  0  0  0  0
   -0.9150    4.9170   -6.9760 C   0  0  0  0  0  0  0  0  0  0  0  0
    0.1040    5.4180   -6.0590 C   0  0  0  0  0  0  0  0  0  0  0  0
   -6.3567   10.1012   -5.4032 H   0  0  0  0  0  0  0  0  0  0  0  0
   -7.7346   11.9465   -4.6233 H   0  0  0  0  0  0  0  0  0  0  0  0
   -6.0880   11.9890   -9.1880 H   0  0  0  0  0  0  0  0  0  0  0  0
   -6.6510   14.7594   -8.9703 H   0  0  0  0  0  0  0  0  0  0  0  0
   -7.8316   13.6150   -9.7427 H   0  0  0  0  0  0  0  0  0  0  0  0
   -8.7541   15.8935   -9.0216 H   0  0  0  0  0  0  0  0  0  0  0  0
   -9.6352   14.4287   -8.4447 H   0  0  0  0  0  0  0  0  0  0  0  0
   -7.5775   16.0272   -6.8493 H   0  0  0  0  0  0  0  0  0  0  0  0
   -9.3769   16.0794   -6.6444 H   0  0  0  0  0  0  0  0  0  0  0  0
   -9.4552   13.8267   -5.8258 H   0  0  0  0  0  0  0  0  0  0  0  0
   -7.5600   15.7370   -4.7570 H   0  0  0  0  0  0  0  0  0  0  0  0
   -7.0670   14.2310   -4.4190 H   0  0  0  0  0  0  0  0  0  0  0  0
   -9.4901   15.6193   -3.4919 H   0  0  0  0  0  0  0  0  0  0  0  0
   -9.4538   13.8175   -3.5407 H   0  0  0  0  0  0  0  0  0  0  0  0
   -7.0082   14.9701   -2.3828 H   0  0  0  0  0  0  0  0  0  0  0  0
   -8.5252   15.4276   -1.4834 H   0  0  0  0  0  0  0  0  0  0  0  0
   -8.8599   13.3517   -0.7034 H   0  0  0  0  0  0  0  0  0  0  0  0
   -8.2822   12.5888   -2.2627 H   0  0  0  0  0  0  0  0  0  0  0  0
   -6.7879   13.2052    0.2452 H   0  0  0  0  0  0  0  0  0  0  0  0
   -6.6010   11.8627   -0.9490 H   0  0  0  0  0  0  0  0  0  0  0  0
   -5.9780   14.3207   -2.2854 H   0  0  0  0  0  0  0  0  0  0  0  0
   -5.0834   14.2706   -0.6947 H   0  0  0  0  0  0  0  0  0  0  0  0
   -4.5004   12.8973   -3.1688 H   0  0  0  0  0  0  0  0  0  0  0  0
   -3.5662   12.9838   -1.6036 H   0  0  0  0  0  0  0  0  0  0  0  0
   -4.2055   10.9416   -0.9465 H   0  0  0  0  0  0  0  0  0  0  0  0
   -5.8915   11.1681   -1.6045 H   0  0  0  0  0  0  0  0  0  0  0  0
   -4.2720    9.3468   -2.6125 H   0  0  0  0  0  0  0  0  0  0  0  0
   -5.3704   10.3901   -3.6584 H   0  0  0  0  0  0  0  0  0  0  0  0
   -3.6868   11.3859   -4.7037 H   0  0  0  0  0  0  0  0  0  0  0  0
   -2.6388   11.3781   -3.1956 H   0  0  0  0  0  0  0  0  0  0  0  0
   -2.8034    9.4262   -5.4386 H   0  0  0  0  0  0  0  0  0  0  0  0
   -1.4031    9.9921   -4.4041 H   0  0  0  0  0  0  0  0  0  0  0  0
   -2.0743    8.5703   -2.6059 H   0  0  0  0  0  0  0  0  0  0  0  0
   -3.5695    8.0751   -3.5337 H   0  0  0  0  0  0  0  0  0  0  0  0
   -0.9950    6.8412   -3.5165 H   0  0  0  0  0  0  0  0  0  0  0  0
   -2.4871    6.4041   -4.4514 H   0  0  0  0  0  0  0  0  0  0  0  0
   -0.9050    8.6020   -5.4890 H   0  0  0  0  0  0  0  0  0  0  0  0
   -1.7440    7.4630   -6.2840 H   0  0  0  0  0  0  0  0  0  0  0  0
    0.6386    7.2970   -6.7742 H   0  0  0  0  0  0  0  0  0  0  0  0
    1.4778    8.3012   -4.7132 H   0  0  0  0  0  0  0  0  0  0  0  0
    0.6502    7.0390   -3.7101 H   0  0  0  0  0  0  0  0  0  0  0  0
    2.9674    6.5446   -5.6329 H   0  0  0  0  0  0  0  0  0  0  0  0
    3.0843    6.6556   -3.8369 H   0  0  0  0  0  0  0  0  0  0  0  0
    2.9459    4.2959   -4.8378 H   0  0  0  0  0  0  0  0  0  0  0  0
    1.7621    4.7156   -3.5235 H   0  0  0  0  0  0  0  0  0  0  0  0
    1.3370    2.4930   -5.2110 H   0  0  0  0  0  0  0  0  0  0  0  0
   -1.8757    3.2506   -7.8629 H   0  0  0  0  0  0  0  0  0  0  0  0
   -1.5513    5.6336   -7.5160 H   0  0  0  0  0  0  0  0  0  0  0  0
  1  2  2  0
  2  3  1  0
  3  4  2  0
  4  5  1  0
  5  6  2  0
  6  7  1  0
  6  8  1  0
  8  9  1  0
  9 10  1  0
 10 11  1  0
 11 12  1  0
 12 13  1  0
 13 14  1  0
 14 15  1  0
 15 16  1  0
 16 17  1  0
 17 18  1  0
 18 19  1  0
 19 20  1  0
 20 21  1  0
 21 22  1  0
 22 23  1  0
 23 24  1  0
 24 25  1  0
 25 26  1  0
 26 27  1  0
 27 28  1  0
 28 29  1  0
 29 30  1  0
 30 31  1  0
 31 32  1  0
 32 33  2  0
 32 34  1  0
 34 35  2  0
 35 36  1  0
  7  2  1  0
 36 26  1  0
 11  5  1  0
 36 30  2  0
  3 37  1  0
  4 38  1  0
  7 39  1  0
  8 40  1  0
  8 41  1  0
  9 42  1  0
  9 43  1  0
 10 44  1  0
 10 45  1  0
 11 46  1  1
 12 47  1  0
 12 48  1  0
 13 49  1  0
 13 50  1  0
 14 51  1  0
 14 52  1  0
 15 53  1  0
 15 54  1  0
 16 55  1  0
 16 56  1  0
 17 57  1  0
 17 58  1  0
 18 59  1  0
 18 60  1  0
 19 61  1  0
 19 62  1  0
 20 63  1  0
 20 64  1  0
 21 65  1  0
 21 66  1  0
 22 67  1  0
 22 68  1  0
 23 69  1  0
 23 70  1  0
 24 71  1  0
 24 72  1  0
 25 73  1  0
 25 74  1  0
 26 75  1  6
 27 76  1  0
 27 77  1  0
 28 78  1  0
 28 79  1  0
 29 80  1  0
 29 81  1  0
 31 82  1  0
 34 83  1  0
 35 84  1  0
M  CHG  2  12   1  25   1
M  END
>  <meeko>  (9) 
{"is_sidechain": [false], "free_energy": -9.515, "intermolecular_energy": -18.379, "internal_energy": -1.964}

$$$$
