
     RDKit          3D

 24 25  0  0  0  0  0  0  0  0999 V2000
   13.1270   20.6340   18.3210 C   0  0  0  0  0  0  0  0  0  0  0  0
   13.0970   21.0260   16.8790 C   0  0  0  0  0  0  0  0  0  0  0  0
   14.2040   21.9410   16.5720 C   0  0  0  0  0  0  0  0  0  0  0  0
   14.2920   22.2420   15.1640 C   0  0  0  0  0  0  0  0  0  0  0  0
   14.3230   22.4510   14.0400 C   0  0  0  0  0  0  0  0  0  0  0  0
   14.2740   22.6540   12.6430 C   0  0  0  0  0  0  0  0  0  0  0  0
   15.3010   23.3000   11.9510 C   0  0  0  0  0  0  0  0  0  0  0  0
   15.1680   23.4570   10.5880 N   0  0  0  0  0  0  0  0  0  0  0  0
   16.2230   24.0990    9.7750 C   0  0  2  0  0  0  0  0  0  0  0  0
   17.3340   23.1990    9.7830 O   0  0  0  0  0  0  0  0  0  0  0  0
   18.2960   23.5960    8.8130 C   0  0  2  0  0  0  0  0  0  0  0  0
   19.3710   22.5360    8.7670 C   0  0  0  0  0  0  0  0  0  0  0  0
   20.1800   22.6300    9.8870 O   0  0  0  0  0  0  0  0  0  0  0  0
   18.8490   24.9790    9.1330 C   0  0  1  0  0  0  0  0  0  0  0  0
   19.6730   25.3760    8.0860 O   0  0  0  0  0  0  0  0  0  0  0  0
   17.7230   25.9870    9.2780 C   0  0  2  0  0  0  0  0  0  0  0  0
   18.2360   27.2230    9.7360 O   0  0  0  0  0  0  0  0  0  0  0  0
   16.6560   25.4810   10.2430 C   0  0  1  0  0  0  0  0  0  0  0  0
   15.5400   26.3500   10.2300 O   0  0  0  0  0  0  0  0  0  0  0  0
   14.0680   22.9890    9.9090 C   0  0  0  0  0  0  0  0  0  0  0  0
   13.9690   23.1110    8.6880 O   0  0  0  0  0  0  0  0  0  0  0  0
   13.0880   22.3840   10.6070 N   0  0  0  0  0  0  0  0  0  0  0  0
   13.1490   22.2040   11.9380 C   0  0  0  0  0  0  0  0  0  0  0  0
   12.2020   21.6380   12.5060 O   0  0  0  0  0  0  0  0  0  0  0  0
  2  1  1  0
  3  2  1  0
  4  3  1  0
  5  4  3  0
  6  5  1  0
  7  6  2  0
  8  7  1  0
  9  8  1  1
 10  9  1  0
 11 10  1  0
 11 12  1  1
 13 12  1  0
 14 11  1  0
 14 15  1  6
 16 14  1  0
 16 17  1  1
 18  9  1  0
 18 16  1  0
 18 19  1  6
 20  8  1  0
 21 20  2  0
 22 20  1  0
 23 22  1  0
 23  6  1  0
 24 23  2  0
M  END
$$$$
