
     RDKit          3D

 44 48  0  0  0  0  0  0  0  0999 V2000
   21.7100    1.9550   -4.0970 C   0  0  0  0  0  0  0  0  0  0  0  0
   21.3340    0.6980   -3.7500 C   0  0  0  0  0  0  0  0  0  0  0  0
   20.1290    0.1200   -4.3140 C   0  0  0  0  0  0  0  0  0  0  0  0
   19.9780   -1.3420   -4.0570 N   0  0  0  0  0  0  0  0  0  0  0  0
   21.1470   -2.0290   -4.6490 C   0  0  0  0  0  0  0  0  0  0  0  0
   21.2560   -3.5080   -4.3260 C   0  0  0  0  0  0  0  0  0  0  0  0
   21.7880   -3.8910   -3.1290 C   0  0  0  0  0  0  0  0  0  0  0  0
   21.9020   -5.2300   -2.7860 C   0  0  0  0  0  0  0  0  0  0  0  0
   21.4700   -6.2030   -3.6710 C   0  0  0  0  0  0  0  0  0  0  0  0
   20.9540   -5.8330   -4.9010 C   0  0  0  0  0  0  0  0  0  0  0  0
   20.8390   -4.5030   -5.2440 C   0  0  0  0  0  0  0  0  0  0  0  0
   20.2940   -4.1190   -6.5650 C   0  0  0  0  0  0  0  0  0  0  0  0
   20.9300   -3.3950   -7.3240 O   0  0  0  0  0  0  0  0  0  0  0  0
   19.1050   -4.5680   -6.8850 N   0  0  0  0  0  0  0  0  0  0  0  0
   18.4200   -4.1980   -8.1320 C   0  0  2  0  0  0  0  0  0  0  0  0
   17.1730   -3.4660   -7.8170 C   0  0  0  0  0  0  0  0  0  0  0  0
   16.8070   -2.3790   -8.6070 C   0  0  0  0  0  0  0  0  0  0  0  0
   15.6690   -1.6480   -8.3300 C   0  0  0  0  0  0  0  0  0  0  0  0
   14.8690   -2.0020   -7.2620 C   0  0  0  0  0  0  0  0  0  0  0  0
   13.7420   -1.2500   -7.0660 O   0  0  0  0  0  0  0  0  0  0  0  0
   13.0970   -1.3160   -5.8050 C   0  0  0  0  0  0  0  0  0  0  0  0
   15.2280   -3.0550   -6.4410 C   0  0  0  0  0  0  0  0  0  0  0  0
   16.3870   -3.7920   -6.7070 C   0  0  0  0  0  0  0  0  0  0  0  0
   18.2470   -5.4230   -8.9350 C   0  0  0  0  0  0  0  0  0  0  0  0
   17.2270   -6.3310   -8.6630 C   0  0  0  0  0  0  0  0  0  0  0  0
   17.0940   -7.4820   -9.4320 C   0  0  0  0  0  0  0  0  0  0  0  0
   17.9860   -7.7110  -10.4710 C   0  0  0  0  0  0  0  0  0  0  0  0
   17.8970   -8.8120  -11.2590 O   0  0  0  0  0  0  0  0  0  0  0  0
   17.1170   -9.9030  -10.8110 C   0  0  0  0  0  0  0  0  0  0  0  0
   19.0160   -6.8080  -10.7370 C   0  0  0  0  0  0  0  0  0  0  0  0
   19.1450   -5.6660   -9.9500 C   0  0  0  0  0  0  0  0  0  0  0  0
   18.6330   -1.7830   -4.5450 C   0  0  0  0  0  0  0  0  0  0  0  0
   17.5170   -0.9410   -3.9180 C   0  0  0  0  0  0  0  0  0  0  0  0
   16.8570   -0.0150   -4.7260 C   0  0  0  0  0  0  0  0  0  0  0  0
   15.8330    0.7920   -4.2260 C   0  0  0  0  0  0  0  0  0  0  0  0
   15.5070    0.6970   -2.9120 C   0  0  0  0  0  0  0  0  0  0  0  0
   16.1550   -0.2020   -2.0850 C   0  0  0  0  0  0  0  0  0  0  0  0
   17.1550   -1.0530   -2.5510 C   0  0  0  0  0  0  0  0  0  0  0  0
   17.8000   -2.0200   -1.6180 C   0  0  0  0  0  0  0  0  0  0  0  0
   18.9730   -2.3140   -1.7780 O   0  0  0  0  0  0  0  0  0  0  0  0
   17.0960   -2.5260   -0.7380 O   0  0  0  0  0  0  0  0  0  0  0  0
   15.6690   -0.1230   -0.8030 O   0  0  0  0  0  0  0  0  0  0  0  0
   14.6570    0.9440   -0.8510 C   0  0  0  0  0  0  0  0  0  0  0  0
   14.5840    1.3920   -2.1930 O   0  0  0  0  0  0  0  0  0  0  0  0
  2  1  2  0
  3  2  1  0
  4  3  1  0
  5  4  1  0
  6  5  1  0
  7  6  2  0
  8  7  1  0
  9  8  2  0
 10  9  1  0
 11 10  2  0
 11  6  1  0
 12 11  1  0
 13 12  2  0
 14 12  1  0
 15 14  1  1
 16 15  1  0
 17 16  2  0
 18 17  1  0
 19 18  2  0
 20 19  1  0
 21 20  1  0
 22 19  1  0
 23 22  2  0
 23 16  1  0
 24 15  1  0
 25 24  2  0
 26 25  1  0
 27 26  2  0
 28 27  1  0
 29 28  1  0
 30 27  1  0
 31 30  2  0
 31 24  1  0
 32  4  1  0
 33 32  1  0
 34 33  2  0
 35 34  1  0
 36 35  2  0
 37 36  1  0
 38 37  2  0
 38 33  1  0
 39 38  1  0
 40 39  2  0
 41 39  1  0
 42 37  1  0
 43 42  1  0
 44 43  1  0
 44 36  1  0
M  CHG  2   4   1  41  -1
M  END
$$$$
