4lzs_ligand
     RDKit          3D

 31 31  0  0  0  0  0  0  0  0999 V2000
    4.3140   11.6190    8.1260 C   0  0  0  0  0  0  0  0  0  0  0  0
    4.7000   10.3050    7.4650 C   0  0  0  0  0  0  0  0  0  0  0  0
    4.1060    9.1170    8.1720 C   0  0  0  0  0  0  0  0  0  0  0  0
    2.8520    8.5760    7.8770 C   0  0  0  0  0  0  0  0  0  0  0  0
    1.8820    8.9750    6.8710 C   0  0  0  0  0  0  0  0  0  0  0  0
    1.2080    9.9980    6.9330 O   0  0  0  0  0  0  0  0  0  0  0  0
    1.7560    8.0750    5.8290 N   0  0  0  0  0  0  0  0  0  0  0  0
    0.7390    8.2730    4.8270 C   0  0  0  0  0  0  0  0  0  0  0  0
    2.6680    7.5070    8.7170 N   0  0  0  0  0  0  0  0  0  0  0  0
    3.7150    7.3810    9.5840 C   0  0  0  0  0  0  0  0  0  0  0  0
    3.7230    6.3050   10.6150 C   0  0  0  0  0  0  0  0  0  0  0  0
    4.6530    8.3670    9.2870 C   0  0  0  0  0  0  0  0  0  0  0  0
    5.9150    8.5160   10.0430 C   0  0  0  0  0  0  0  0  0  0  0  0
    6.1710    9.7480   10.8650 C   0  0  0  0  0  0  0  0  0  0  0  0
    6.7850    7.6410   10.0100 O   0  0  0  0  0  0  0  0  0  0  0  0
    4.3480   11.5033    9.2194 H   0  0  0  0  0  0  0  0  0  0  0  0
    5.0191   12.4052    7.8184 H   0  0  0  0  0  0  0  0  0  0  0  0
    3.2957   11.8989    7.8184 H   0  0  0  0  0  0  0  0  0  0  0  0
    4.3425   10.3133    6.4247 H   0  0  0  0  0  0  0  0  0  0  0  0
    5.7951   10.2126    7.5113 H   0  0  0  0  0  0  0  0  0  0  0  0
    2.0400    7.1230    6.0130 H   0  0  0  0  0  0  0  0  0  0  0  0
   -0.2274    8.4611    5.3176 H   0  0  0  0  0  0  0  0  0  0  0  0
    1.0058    9.1361    4.1994 H   0  0  0  0  0  0  0  0  0  0  0  0
    0.6625    7.3729    4.1994 H   0  0  0  0  0  0  0  0  0  0  0  0
    1.8680    6.8890    8.6810 H   0  0  0  0  0  0  0  0  0  0  0  0
    3.7196    6.7577   11.6175 H   0  0  0  0  0  0  0  0  0  0  0  0
    2.8295    5.6748   10.4943 H   0  0  0  0  0  0  0  0  0  0  0  0
    4.6258    5.6882   10.4943 H   0  0  0  0  0  0  0  0  0  0  0  0
    6.1181    9.4932   11.9338 H   0  0  0  0  0  0  0  0  0  0  0  0
    7.1705   10.1435   10.6314 H   0  0  0  0  0  0  0  0  0  0  0  0
    5.4118   10.5089   10.6314 H   0  0  0  0  0  0  0  0  0  0  0  0
  1  2  1  0
  2  3  1  0
  3  4  2  0
  4  5  1  0
  5  6  2  0
  5  7  1  0
  7  8  1  0
  4  9  1  0
  9 10  1  0
 10 11  1  0
 10 12  2  0
 12 13  1  0
 13 14  1  0
 13 15  2  0
 12  3  1  0
  1 16  1  0
  1 17  1  0
  1 18  1  0
  2 19  1  0
  2 20  1  0
  7 21  1  0
  8 22  1  0
  8 23  1  0
  8 24  1  0
  9 25  1  0
 11 26  1  0
 11 27  1  0
 11 28  1  0
 14 29  1  0
 14 30  1  0
 14 31  1  0
M  END
>  <meeko>  (1) 
{"is_sidechain": [false], "free_energy": -5.179, "intermolecular_energy": -6.087, "internal_energy": -0.491}

$$$$
4lzs_ligand
     RDKit          3D

 31 31  0  0  0  0  0  0  0  0999 V2000
    1.5640    9.9070    7.3910 C   0  0  0  0  0  0  0  0  0  0  0  0
    2.9310    9.3330    7.0510 C   0  0  0  0  0  0  0  0  0  0  0  0
    4.0040    9.8300    7.9820 C   0  0  0  0  0  0  0  0  0  0  0  0
    4.4830    9.1100    9.0800 C   0  0  0  0  0  0  0  0  0  0  0  0
    4.1150    7.7860    9.5550 C   0  0  0  0  0  0  0  0  0  0  0  0
    3.3750    7.5790   10.5100 O   0  0  0  0  0  0  0  0  0  0  0  0
    4.7030    6.7550    8.8450 N   0  0  0  0  0  0  0  0  0  0  0  0
    4.5340    5.3920    9.2840 C   0  0  0  0  0  0  0  0  0  0  0  0
    5.4530    9.8780    9.6720 N   0  0  0  0  0  0  0  0  0  0  0  0
    5.5680   11.0860    9.0460 C   0  0  0  0  0  0  0  0  0  0  0  0
    6.5400   12.1060    9.5340 C   0  0  0  0  0  0  0  0  0  0  0  0
    4.6810   11.1120    7.9720 C   0  0  0  0  0  0  0  0  0  0  0  0
    4.5480   12.2840    7.0800 C   0  0  0  0  0  0  0  0  0  0  0  0
    5.5050   12.4860    5.9380 C   0  0  0  0  0  0  0  0  0  0  0  0
    3.6570   13.1200    7.2540 O   0  0  0  0  0  0  0  0  0  0  0  0
    1.4482    9.9556    8.4838 H   0  0  0  0  0  0  0  0  0  0  0  0
    1.4753   10.9183    6.9675 H   0  0  0  0  0  0  0  0  0  0  0  0
    0.7799    9.2621    6.9675 H   0  0  0  0  0  0  0  0  0  0  0  0
    2.8819    8.2363    7.1204 H   0  0  0  0  0  0  0  0  0  0  0  0
    3.1901    9.6586    6.0327 H   0  0  0  0  0  0  0  0  0  0  0  0
    5.5520    6.9740    8.3420 H   0  0  0  0  0  0  0  0  0  0  0  0
    4.5299    5.3588   10.3835 H   0  0  0  0  0  0  0  0  0  0  0  0
    3.5803    4.9992    8.9017 H   0  0  0  0  0  0  0  0  0  0  0  0
    5.3629    4.7782    8.9017 H   0  0  0  0  0  0  0  0  0  0  0  0
    6.0160    9.5760   10.4560 H   0  0  0  0  0  0  0  0  0  0  0  0
    6.5449   12.1111   10.6340 H   0  0  0  0  0  0  0  0  0  0  0  0
    7.5463   11.8601    9.1640 H   0  0  0  0  0  0  0  0  0  0  0  0
    6.2459   13.0993    9.1640 H   0  0  0  0  0  0  0  0  0  0  0  0
    6.5091   12.6979    6.3341 H   0  0  0  0  0  0  0  0  0  0  0  0
    5.5385   11.5751    5.3222 H   0  0  0  0  0  0  0  0  0  0  0  0
    5.1675   13.3327    5.3222 H   0  0  0  0  0  0  0  0  0  0  0  0
  1  2  1  0
  2  3  1  0
  3  4  2  0
  4  5  1  0
  5  6  2  0
  5  7  1  0
  7  8  1  0
  4  9  1  0
  9 10  1  0
 10 11  1  0
 10 12  2  0
 12 13  1  0
 13 14  1  0
 13 15  2  0
 12  3  1  0
  1 16  1  0
  1 17  1  0
  1 18  1  0
  2 19  1  0
  2 20  1  0
  7 21  1  0
  8 22  1  0
  8 23  1  0
  8 24  1  0
  9 25  1  0
 11 26  1  0
 11 27  1  0
 11 28  1  0
 14 29  1  0
 14 30  1  0
 14 31  1  0
M  END
>  <meeko>  (2) 
{"is_sidechain": [false], "free_energy": -5.067, "intermolecular_energy": -5.962, "internal_energy": -0.484}

$$$$
4lzs_ligand
     RDKit          3D

 31 31  0  0  0  0  0  0  0  0999 V2000
   -0.8760   11.2000    6.0660 C   0  0  0  0  0  0  0  0  0  0  0  0
   -0.3760   11.3640    7.4930 C   0  0  0  0  0  0  0  0  0  0  0  0
    1.1180   11.5360    7.5560 C   0  0  0  0  0  0  0  0  0  0  0  0
    1.7580   12.7680    7.7110 C   0  0  0  0  0  0  0  0  0  0  0  0
    1.1910   14.0970    7.8660 C   0  0  0  0  0  0  0  0  0  0  0  0
    1.3070   14.7820    8.8760 O   0  0  0  0  0  0  0  0  0  0  0  0
    0.4680   14.5260    6.7670 N   0  0  0  0  0  0  0  0  0  0  0  0
   -0.2610   15.7680    6.8270 C   0  0  0  0  0  0  0  0  0  0  0  0
    3.1080   12.5190    7.7350 N   0  0  0  0  0  0  0  0  0  0  0  0
    3.3630   11.1930    7.5310 C   0  0  0  0  0  0  0  0  0  0  0  0
    4.7640   10.6870    7.4840 C   0  0  0  0  0  0  0  0  0  0  0  0
    2.1470   10.5240    7.4140 C   0  0  0  0  0  0  0  0  0  0  0  0
    2.0620    9.0660    7.1820 C   0  0  0  0  0  0  0  0  0  0  0  0
    2.4030    8.0970    8.2800 C   0  0  0  0  0  0  0  0  0  0  0  0
    1.7170    8.6130    6.0870 O   0  0  0  0  0  0  0  0  0  0  0  0
   -1.9211   10.8572    6.0808 H   0  0  0  0  0  0  0  0  0  0  0  0
   -0.8142   12.1655    5.5426 H   0  0  0  0  0  0  0  0  0  0  0  0
   -0.2543   10.4587    5.5426 H   0  0  0  0  0  0  0  0  0  0  0  0
   -0.8536   12.2504    7.9360 H   0  0  0  0  0  0  0  0  0  0  0  0
   -0.6343   10.4503    8.0483 H   0  0  0  0  0  0  0  0  0  0  0  0
    0.1070   13.8100    6.1520 H   0  0  0  0  0  0  0  0  0  0  0  0
   -0.4246   16.0467    7.8785 H   0  0  0  0  0  0  0  0  0  0  0  0
    0.3172   16.5572    6.3242 H   0  0  0  0  0  0  0  0  0  0  0  0
   -1.2319   15.6479    6.3242 H   0  0  0  0  0  0  0  0  0  0  0  0
    3.8120   13.2260    7.8990 H   0  0  0  0  0  0  0  0  0  0  0  0
    5.1394   10.5514    8.5090 H   0  0  0  0  0  0  0  0  0  0  0  0
    4.7882    9.7233    6.9541 H   0  0  0  0  0  0  0  0  0  0  0  0
    5.3984   11.4128    6.9541 H   0  0  0  0  0  0  0  0  0  0  0  0
    2.2348    8.5751    9.2563 H   0  0  0  0  0  0  0  0  0  0  0  0
    1.7646    7.2054    8.1935 H   0  0  0  0  0  0  0  0  0  0  0  0
    3.4591    7.8017    8.1935 H   0  0  0  0  0  0  0  0  0  0  0  0
  1  2  1  0
  2  3  1  0
  3  4  2  0
  4  5  1  0
  5  6  2  0
  5  7  1  0
  7  8  1  0
  4  9  1  0
  9 10  1  0
 10 11  1  0
 10 12  2  0
 12 13  1  0
 13 14  1  0
 13 15  2  0
 12  3  1  0
  1 16  1  0
  1 17  1  0
  1 18  1  0
  2 19  1  0
  2 20  1  0
  7 21  1  0
  8 22  1  0
  8 23  1  0
  8 24  1  0
  9 25  1  0
 11 26  1  0
 11 27  1  0
 11 28  1  0
 14 29  1  0
 14 30  1  0
 14 31  1  0
M  END
>  <meeko>  (3) 
{"is_sidechain": [false], "free_energy": -5.039, "intermolecular_energy": -6.058, "internal_energy": -0.356}

$$$$
4lzs_ligand
     RDKit          3D

 31 31  0  0  0  0  0  0  0  0999 V2000
    5.1280   12.0010    6.7260 C   0  0  0  0  0  0  0  0  0  0  0  0
    4.3060   11.8720    7.9990 C   0  0  0  0  0  0  0  0  0  0  0  0
    2.9030   11.4050    7.7260 C   0  0  0  0  0  0  0  0  0  0  0  0
    2.4920   10.0710    7.8040 C   0  0  0  0  0  0  0  0  0  0  0  0
    3.2500    8.8860    8.1680 C   0  0  0  0  0  0  0  0  0  0  0  0
    4.4060    8.6750    7.8190 O   0  0  0  0  0  0  0  0  0  0  0  0
    2.5360    7.9800    8.9310 N   0  0  0  0  0  0  0  0  0  0  0  0
    3.1140    6.7000    9.2550 C   0  0  0  0  0  0  0  0  0  0  0  0
    1.1540   10.0450    7.4990 N   0  0  0  0  0  0  0  0  0  0  0  0
    0.7070   11.2890    7.1590 C   0  0  0  0  0  0  0  0  0  0  0  0
   -0.7130   11.5030    6.7580 C   0  0  0  0  0  0  0  0  0  0  0  0
    1.7630   12.1870    7.2860 C   0  0  0  0  0  0  0  0  0  0  0  0
    1.6210   13.6290    6.9910 C   0  0  0  0  0  0  0  0  0  0  0  0
    1.2450   14.5980    8.0780 C   0  0  0  0  0  0  0  0  0  0  0  0
    1.8000   14.0670    5.8510 O   0  0  0  0  0  0  0  0  0  0  0  0
    6.1838   12.1667    6.9865 H   0  0  0  0  0  0  0  0  0  0  0  0
    5.0366   11.0775    6.1354 H   0  0  0  0  0  0  0  0  0  0  0  0
    4.7581   12.8521    6.1354 H   0  0  0  0  0  0  0  0  0  0  0  0
    4.7969   11.1475    8.6654 H   0  0  0  0  0  0  0  0  0  0  0  0
    4.2456   12.8673    8.4635 H   0  0  0  0  0  0  0  0  0  0  0  0
    1.5290    8.0260    8.8700 H   0  0  0  0  0  0  0  0  0  0  0  0
    3.1651    6.5869   10.3480 H   0  0  0  0  0  0  0  0  0  0  0  0
    2.4905    5.8985    8.8321 H   0  0  0  0  0  0  0  0  0  0  0  0
    4.1276    6.6378    8.8321 H   0  0  0  0  0  0  0  0  0  0  0  0
    0.5800    9.2130    7.5390 H   0  0  0  0  0  0  0  0  0  0  0  0
   -1.3380   11.5972    7.6583 H   0  0  0  0  0  0  0  0  0  0  0  0
   -0.7905   12.4230    6.1599 H   0  0  0  0  0  0  0  0  0  0  0  0
   -1.0582   10.6467    6.1599 H   0  0  0  0  0  0  0  0  0  0  0  0
    1.4245   14.1354    9.0597 H   0  0  0  0  0  0  0  0  0  0  0  0
    1.8551   15.5085    7.9846 H   0  0  0  0  0  0  0  0  0  0  0  0
    0.1804   14.8587    7.9846 H   0  0  0  0  0  0  0  0  0  0  0  0
  1  2  1  0
  2  3  1  0
  3  4  2  0
  4  5  1  0
  5  6  2  0
  5  7  1  0
  7  8  1  0
  4  9  1  0
  9 10  1  0
 10 11  1  0
 10 12  2  0
 12 13  1  0
 13 14  1  0
 13 15  2  0
 12  3  1  0
  1 16  1  0
  1 17  1  0
  1 18  1  0
  2 19  1  0
  2 20  1  0
  7 21  1  0
  8 22  1  0
  8 23  1  0
  8 24  1  0
  9 25  1  0
 11 26  1  0
 11 27  1  0
 11 28  1  0
 14 29  1  0
 14 30  1  0
 14 31  1  0
M  END
>  <meeko>  (4) 
{"is_sidechain": [false], "free_energy": -4.962, "intermolecular_energy": -5.958, "internal_energy": -0.365}

$$$$
4lzs_ligand
     RDKit          3D

 31 31  0  0  0  0  0  0  0  0999 V2000
    4.5010    8.5040   12.6310 C   0  0  0  0  0  0  0  0  0  0  0  0
    3.7410    7.7470   11.5520 C   0  0  0  0  0  0  0  0  0  0  0  0
    4.6590    6.9580   10.6580 C   0  0  0  0  0  0  0  0  0  0  0  0
    4.8700    7.2420    9.3060 C   0  0  0  0  0  0  0  0  0  0  0  0
    4.3210    8.3070    8.4830 C   0  0  0  0  0  0  0  0  0  0  0  0
    4.9280    9.3300    8.1860 O   0  0  0  0  0  0  0  0  0  0  0  0
    3.0180    8.0820    8.0770 N   0  0  0  0  0  0  0  0  0  0  0  0
    2.2990    9.1100    7.3670 C   0  0  0  0  0  0  0  0  0  0  0  0
    5.7710    6.3180    8.8380 N   0  0  0  0  0  0  0  0  0  0  0  0
    6.0910    5.4140    9.8090 C   0  0  0  0  0  0  0  0  0  0  0  0
    7.0320    4.2930    9.5240 C   0  0  0  0  0  0  0  0  0  0  0  0
    5.4220    5.7670   10.9780 C   0  0  0  0  0  0  0  0  0  0  0  0
    5.5460    4.9900   12.2310 C   0  0  0  0  0  0  0  0  0  0  0  0
    4.3500    4.2930   12.8170 C   0  0  0  0  0  0  0  0  0  0  0  0
    6.6250    4.9030   12.8230 O   0  0  0  0  0  0  0  0  0  0  0  0
    4.1631    8.1674   13.6222 H   0  0  0  0  0  0  0  0  0  0  0  0
    5.5785    8.3096   12.5254 H   0  0  0  0  0  0  0  0  0  0  0  0
    4.3109    9.5823   12.5254 H   0  0  0  0  0  0  0  0  0  0  0  0
    3.0355    7.0548   12.0349 H   0  0  0  0  0  0  0  0  0  0  0  0
    3.2144    8.4848   10.9288 H   0  0  0  0  0  0  0  0  0  0  0  0
    2.4710    7.4410    8.6340 H   0  0  0  0  0  0  0  0  0  0  0  0
    1.8233    9.7901    8.0890 H   0  0  0  0  0  0  0  0  0  0  0  0
    2.9985    9.6770    6.7351 H   0  0  0  0  0  0  0  0  0  0  0  0
    1.5265    8.6474    6.7351 H   0  0  0  0  0  0  0  0  0  0  0  0
    6.1540    6.3240    7.9020 H   0  0  0  0  0  0  0  0  0  0  0  0
    7.3908    3.8655   10.4719 H   0  0  0  0  0  0  0  0  0  0  0  0
    6.5118    3.5158    8.9449 H   0  0  0  0  0  0  0  0  0  0  0  0
    7.8876    4.6707    8.9449 H   0  0  0  0  0  0  0  0  0  0  0  0
    4.4076    4.3266   13.9150 H   0  0  0  0  0  0  0  0  0  0  0  0
    3.4314    4.7972   12.4824 H   0  0  0  0  0  0  0  0  0  0  0  0
    4.3358    3.2452   12.4824 H   0  0  0  0  0  0  0  0  0  0  0  0
  1  2  1  0
  2  3  1  0
  3  4  2  0
  4  5  1  0
  5  6  2  0
  5  7  1  0
  7  8  1  0
  4  9  1  0
  9 10  1  0
 10 11  1  0
 10 12  2  0
 12 13  1  0
 13 14  1  0
 13 15  2  0
 12  3  1  0
  1 16  1  0
  1 17  1  0
  1 18  1  0
  2 19  1  0
  2 20  1  0
  7 21  1  0
  8 22  1  0
  8 23  1  0
  8 24  1  0
  9 25  1  0
 11 26  1  0
 11 27  1  0
 11 28  1  0
 14 29  1  0
 14 30  1  0
 14 31  1  0
M  END
>  <meeko>  (5) 
{"is_sidechain": [false], "free_energy": -4.847, "intermolecular_energy": -5.784, "internal_energy": -0.404}

$$$$
4lzs_ligand
     RDKit          3D

 31 31  0  0  0  0  0  0  0  0999 V2000
   -0.6330   11.4940    6.0690 C   0  0  0  0  0  0  0  0  0  0  0  0
   -0.0390   11.1510    7.4270 C   0  0  0  0  0  0  0  0  0  0  0  0
    1.4390   11.4270    7.4870 C   0  0  0  0  0  0  0  0  0  0  0  0
    2.4230   10.4340    7.4800 C   0  0  0  0  0  0  0  0  0  0  0  0
    2.2840    8.9900    7.3930 C   0  0  0  0  0  0  0  0  0  0  0  0
    1.8050    8.4010    6.4310 O   0  0  0  0  0  0  0  0  0  0  0  0
    2.7200    8.3190    8.5220 N   0  0  0  0  0  0  0  0  0  0  0  0
    2.5230    6.8950    8.6320 C   0  0  0  0  0  0  0  0  0  0  0  0
    3.6370   11.0720    7.5350 N   0  0  0  0  0  0  0  0  0  0  0  0
    3.4740   12.4220    7.6490 C   0  0  0  0  0  0  0  0  0  0  0  0
    4.6560   13.3240    7.7570 C   0  0  0  0  0  0  0  0  0  0  0  0
    2.1110   12.7060    7.6220 C   0  0  0  0  0  0  0  0  0  0  0  0
    1.5830   14.0830    7.7270 C   0  0  0  0  0  0  0  0  0  0  0  0
    1.5890   14.8040    9.0460 C   0  0  0  0  0  0  0  0  0  0  0  0
    1.1210   14.6660    6.7420 O   0  0  0  0  0  0  0  0  0  0  0  0
   -1.5778   12.0396    6.2093 H   0  0  0  0  0  0  0  0  0  0  0  0
    0.0738   12.1230    5.5079 H   0  0  0  0  0  0  0  0  0  0  0  0
   -0.8245   10.5674    5.5079 H   0  0  0  0  0  0  0  0  0  0  0  0
   -0.5434   11.7536    8.1967 H   0  0  0  0  0  0  0  0  0  0  0  0
   -0.1889   10.0749    7.5991 H   0  0  0  0  0  0  0  0  0  0  0  0
    2.7490    8.8470    9.3830 H   0  0  0  0  0  0  0  0  0  0  0  0
    2.4837    6.6112    9.6940 H   0  0  0  0  0  0  0  0  0  0  0  0
    1.5778    6.6167    8.1429 H   0  0  0  0  0  0  0  0  0  0  0  0
    3.3571    6.3706    8.1429 H   0  0  0  0  0  0  0  0  0  0  0  0
    4.5290   10.5980    7.4810 H   0  0  0  0  0  0  0  0  0  0  0  0
    4.8870   13.5003    8.8179 H   0  0  0  0  0  0  0  0  0  0  0  0
    5.5214   12.8546    7.2664 H   0  0  0  0  0  0  0  0  0  0  0  0
    4.4317   14.2826    7.2664 H   0  0  0  0  0  0  0  0  0  0  0  0
    1.5829   14.0699    9.8652 H   0  0  0  0  0  0  0  0  0  0  0  0
    2.4924   15.4274    9.1190 H   0  0  0  0  0  0  0  0  0  0  0  0
    0.6961   15.4423    9.1190 H   0  0  0  0  0  0  0  0  0  0  0  0
  1  2  1  0
  2  3  1  0
  3  4  2  0
  4  5  1  0
  5  6  2  0
  5  7  1  0
  7  8  1  0
  4  9  1  0
  9 10  1  0
 10 11  1  0
 10 12  2  0
 12 13  1  0
 13 14  1  0
 13 15  2  0
 12  3  1  0
  1 16  1  0
  1 17  1  0
  1 18  1  0
  2 19  1  0
  2 20  1  0
  7 21  1  0
  8 22  1  0
  8 23  1  0
  8 24  1  0
  9 25  1  0
 11 26  1  0
 11 27  1  0
 11 28  1  0
 14 29  1  0
 14 30  1  0
 14 31  1  0
M  END
>  <meeko>  (6) 
{"is_sidechain": [false], "free_energy": -4.83, "intermolecular_energy": -5.711, "internal_energy": -0.457}

$$$$
4lzs_ligand
     RDKit          3D

 31 31  0  0  0  0  0  0  0  0999 V2000
    5.8010    9.5230   11.0630 C   0  0  0  0  0  0  0  0  0  0  0  0
    5.9500    8.9950    9.6440 C   0  0  0  0  0  0  0  0  0  0  0  0
    4.6200    8.7800    8.9750 C   0  0  0  0  0  0  0  0  0  0  0  0
    3.9140    7.5750    9.0040 C   0  0  0  0  0  0  0  0  0  0  0  0
    4.2440    6.3200    9.6590 C   0  0  0  0  0  0  0  0  0  0  0  0
    4.5840    5.3030    9.0660 O   0  0  0  0  0  0  0  0  0  0  0  0
    4.1130    6.3590   11.0360 N   0  0  0  0  0  0  0  0  0  0  0  0
    4.2800    5.1530   11.8080 C   0  0  0  0  0  0  0  0  0  0  0  0
    2.7540    7.7710    8.2970 N   0  0  0  0  0  0  0  0  0  0  0  0
    2.7180    9.0250    7.7580 C   0  0  0  0  0  0  0  0  0  0  0  0
    1.5640    9.4590    6.9190 C   0  0  0  0  0  0  0  0  0  0  0  0
    3.8660    9.7080    8.1530 C   0  0  0  0  0  0  0  0  0  0  0  0
    4.1450   11.0990    7.7380 C   0  0  0  0  0  0  0  0  0  0  0  0
    5.1300   11.3850    6.6390 C   0  0  0  0  0  0  0  0  0  0  0  0
    3.5850   12.0530    8.2860 O   0  0  0  0  0  0  0  0  0  0  0  0
    6.0278    8.7193   11.7790 H   0  0  0  0  0  0  0  0  0  0  0  0
    6.4981   10.3597   11.2180 H   0  0  0  0  0  0  0  0  0  0  0  0
    4.7693    9.8718   11.2180 H   0  0  0  0  0  0  0  0  0  0  0  0
    6.5296    9.7210    9.0549 H   0  0  0  0  0  0  0  0  0  0  0  0
    6.4621    8.0229    9.6975 H   0  0  0  0  0  0  0  0  0  0  0  0
    3.5000    7.0660   11.4150 H   0  0  0  0  0  0  0  0  0  0  0  0
    4.2463    5.3964   12.8802 H   0  0  0  0  0  0  0  0  0  0  0  0
    3.4709    4.4480   11.5664 H   0  0  0  0  0  0  0  0  0  0  0  0
    5.2502    4.6944   11.5664 H   0  0  0  0  0  0  0  0  0  0  0  0
    2.0210    7.0800    8.2070 H   0  0  0  0  0  0  0  0  0  0  0  0
    0.7342    9.7711    7.5701 H   0  0  0  0  0  0  0  0  0  0  0  0
    1.8695   10.3037    6.2840 H   0  0  0  0  0  0  0  0  0  0  0  0
    1.2372    8.6224    6.2840 H   0  0  0  0  0  0  0  0  0  0  0  0
    6.0984   11.6662    7.0785 H   0  0  0  0  0  0  0  0  0  0  0  0
    5.2566   10.4865    6.0171 H   0  0  0  0  0  0  0  0  0  0  0  0
    4.7558   12.2116    6.0171 H   0  0  0  0  0  0  0  0  0  0  0  0
  1  2  1  0
  2  3  1  0
  3  4  2  0
  4  5  1  0
  5  6  2  0
  5  7  1  0
  7  8  1  0
  4  9  1  0
  9 10  1  0
 10 11  1  0
 10 12  2  0
 12 13  1  0
 13 14  1  0
 13 15  2  0
 12  3  1  0
  1 16  1  0
  1 17  1  0
  1 18  1  0
  2 19  1  0
  2 20  1  0
  7 21  1  0
  8 22  1  0
  8 23  1  0
  8 24  1  0
  9 25  1  0
 11 26  1  0
 11 27  1  0
 11 28  1  0
 14 29  1  0
 14 30  1  0
 14 31  1  0
M  END
>  <meeko>  (7) 
{"is_sidechain": [false], "free_energy": -4.798, "intermolecular_energy": -5.69, "internal_energy": -0.441}

$$$$
4lzs_ligand
     RDKit          3D

 31 31  0  0  0  0  0  0  0  0999 V2000
    1.6460    9.7700    7.4930 C   0  0  0  0  0  0  0  0  0  0  0  0
    3.0390    9.3070    7.0950 C   0  0  0  0  0  0  0  0  0  0  0  0
    4.0710    9.6510    8.1350 C   0  0  0  0  0  0  0  0  0  0  0  0
    4.6910   10.8990    8.2410 C   0  0  0  0  0  0  0  0  0  0  0  0
    4.4960   12.1030    7.4510 C   0  0  0  0  0  0  0  0  0  0  0  0
    3.5680   12.8880    7.6110 O   0  0  0  0  0  0  0  0  0  0  0  0
    5.4450   12.2820    6.4610 N   0  0  0  0  0  0  0  0  0  0  0  0
    5.3050   13.3610    5.5160 C   0  0  0  0  0  0  0  0  0  0  0  0
    5.5540   10.8300    9.3050 N   0  0  0  0  0  0  0  0  0  0  0  0
    5.5680    9.5740    9.8410 C   0  0  0  0  0  0  0  0  0  0  0  0
    6.4570    9.2490   10.9930 C   0  0  0  0  0  0  0  0  0  0  0  0
    4.6520    8.7880    9.1460 C   0  0  0  0  0  0  0  0  0  0  0  0
    4.4180    7.3650    9.4710 C   0  0  0  0  0  0  0  0  0  0  0  0
    3.2930    6.9650   10.3840 C   0  0  0  0  0  0  0  0  0  0  0  0
    5.1420    6.4780    9.0080 O   0  0  0  0  0  0  0  0  0  0  0  0
    1.5677    9.7960    8.5899 H   0  0  0  0  0  0  0  0  0  0  0  0
    1.4647   10.7767    7.0885 H   0  0  0  0  0  0  0  0  0  0  0  0
    0.8981    9.0721    7.0885 H   0  0  0  0  0  0  0  0  0  0  0  0
    3.0240    8.2156    6.9582 H   0  0  0  0  0  0  0  0  0  0  0  0
    3.3132    9.8234    6.1633 H   0  0  0  0  0  0  0  0  0  0  0  0
    5.9360   11.4560    6.1460 H   0  0  0  0  0  0  0  0  0  0  0  0
    5.1819   14.3099    6.0586 H   0  0  0  0  0  0  0  0  0  0  0  0
    6.2038   13.4139    4.8841 H   0  0  0  0  0  0  0  0  0  0  0  0
    4.4225   13.1828    4.8841 H   0  0  0  0  0  0  0  0  0  0  0  0
    6.0920   11.6130    9.6510 H   0  0  0  0  0  0  0  0  0  0  0  0
    5.9230    9.4442   11.9347 H   0  0  0  0  0  0  0  0  0  0  0  0
    6.7435    8.1880   10.9471 H   0  0  0  0  0  0  0  0  0  0  0  0
    7.3603    9.8751   10.9471 H   0  0  0  0  0  0  0  0  0  0  0  0
    3.6121    7.0785   11.4306 H   0  0  0  0  0  0  0  0  0  0  0  0
    2.4209    7.6081   10.1948 H   0  0  0  0  0  0  0  0  0  0  0  0
    3.0227    5.9157   10.1948 H   0  0  0  0  0  0  0  0  0  0  0  0
  1  2  1  0
  2  3  1  0
  3  4  2  0
  4  5  1  0
  5  6  2  0
  5  7  1  0
  7  8  1  0
  4  9  1  0
  9 10  1  0
 10 11  1  0
 10 12  2  0
 12 13  1  0
 13 14  1  0
 13 15  2  0
 12  3  1  0
  1 16  1  0
  1 17  1  0
  1 18  1  0
  2 19  1  0
  2 20  1  0
  7 21  1  0
  8 22  1  0
  8 23  1  0
  8 24  1  0
  9 25  1  0
 11 26  1  0
 11 27  1  0
 11 28  1  0
 14 29  1  0
 14 30  1  0
 14 31  1  0
M  END
>  <meeko>  (8) 
{"is_sidechain": [false], "free_energy": -4.675, "intermolecular_energy": -5.475, "internal_energy": -0.511}

$$$$
4lzs_ligand
     RDKit          3D

 31 31  0  0  0  0  0  0  0  0999 V2000
    5.2260   10.6420    9.0850 C   0  0  0  0  0  0  0  0  0  0  0  0
    4.8300   11.0750    7.6820 C   0  0  0  0  0  0  0  0  0  0  0  0
    3.3740   11.4400    7.5890 C   0  0  0  0  0  0  0  0  0  0  0  0
    2.8840   12.7440    7.7030 C   0  0  0  0  0  0  0  0  0  0  0  0
    3.6020   13.9920    7.8990 C   0  0  0  0  0  0  0  0  0  0  0  0
    3.8450   14.4800    8.9970 O   0  0  0  0  0  0  0  0  0  0  0  0
    3.9730   14.6140    6.7210 N   0  0  0  0  0  0  0  0  0  0  0  0
    4.5760   15.9220    6.7570 C   0  0  0  0  0  0  0  0  0  0  0  0
    1.5210   12.6750    7.5550 N   0  0  0  0  0  0  0  0  0  0  0  0
    1.1090   11.3800    7.4230 C   0  0  0  0  0  0  0  0  0  0  0  0
   -0.3380   11.0540    7.2790 C   0  0  0  0  0  0  0  0  0  0  0  0
    2.2320   10.5570    7.4350 C   0  0  0  0  0  0  0  0  0  0  0  0
    2.1410    9.0860    7.3140 C   0  0  0  0  0  0  0  0  0  0  0  0
    2.4720    8.2030    8.4850 C   0  0  0  0  0  0  0  0  0  0  0  0
    1.8000    8.5530    6.2540 O   0  0  0  0  0  0  0  0  0  0  0  0
    4.6758   11.2436    9.8234 H   0  0  0  0  0  0  0  0  0  0  0  0
    4.9816    9.5784    9.2232 H   0  0  0  0  0  0  0  0  0  0  0  0
    6.3071   10.7907    9.2232 H   0  0  0  0  0  0  0  0  0  0  0  0
    5.4332   11.9499    7.3979 H   0  0  0  0  0  0  0  0  0  0  0  0
    5.0093   10.2274    7.0041 H   0  0  0  0  0  0  0  0  0  0  0  0
    3.4450   14.3740    5.8930 H   0  0  0  0  0  0  0  0  0  0  0  0
    4.7186   16.2313    7.8029 H   0  0  0  0  0  0  0  0  0  0  0  0
    5.5505   15.8906    6.2478 H   0  0  0  0  0  0  0  0  0  0  0  0
    3.9192   16.6427    6.2478 H   0  0  0  0  0  0  0  0  0  0  0  0
    0.9120   13.4830    7.5310 H   0  0  0  0  0  0  0  0  0  0  0  0
   -0.7918   10.9518    8.2758 H   0  0  0  0  0  0  0  0  0  0  0  0
   -0.8425   11.8610    6.7274 H   0  0  0  0  0  0  0  0  0  0  0  0
   -0.4477   10.1086    6.7274 H   0  0  0  0  0  0  0  0  0  0  0  0
    2.2692    8.7440    9.4210 H   0  0  0  0  0  0  0  0  0  0  0  0
    1.8535    7.2942    8.4453 H   0  0  0  0  0  0  0  0  0  0  0  0
    3.5355    7.9247    8.4453 H   0  0  0  0  0  0  0  0  0  0  0  0
  1  2  1  0
  2  3  1  0
  3  4  2  0
  4  5  1  0
  5  6  2  0
  5  7  1  0
  7  8  1  0
  4  9  1  0
  9 10  1  0
 10 11  1  0
 10 12  2  0
 12 13  1  0
 13 14  1  0
 13 15  2  0
 12  3  1  0
  1 16  1  0
  1 17  1  0
  1 18  1  0
  2 19  1  0
  2 20  1  0
  7 21  1  0
  8 22  1  0
  8 23  1  0
  8 24  1  0
  9 25  1  0
 11 26  1  0
 11 27  1  0
 11 28  1  0
 14 29  1  0
 14 30  1  0
 14 31  1  0
M  END
>  <meeko>  (9) 
{"is_sidechain": [false], "free_energy": -4.64, "intermolecular_energy": -5.444, "internal_energy": -0.502}

$$$$
