1g2k_ligand
     RDKit          3D

 82 86  0  0  0  0  0  0  0  0999 V2000
  -11.8050  -10.7750    7.1560 C   0  0  0  0  0  0  0  0  0  0  0  0
  -10.6700  -10.1120    7.7500 N   0  0  0  0  0  0  0  0  0  0  0  0
   -9.8500   -9.3140    6.9770 C   0  0  0  0  0  0  0  0  0  0  0  0
   -9.9610   -9.1920    5.7630 O   0  0  0  0  0  0  0  0  0  0  0  0
   -8.8140   -8.5430    7.7130 C   0  0  0  0  0  0  0  0  0  0  0  0
   -9.1590   -7.9520    8.9310 C   0  0  0  0  0  0  0  0  0  0  0  0
   -8.2010   -7.2470    9.6560 C   0  0  0  0  0  0  0  0  0  0  0  0
   -6.9020   -7.1210    9.1620 C   0  0  0  0  0  0  0  0  0  0  0  0
   -6.5440   -7.6810    7.9270 C   0  0  0  0  0  0  0  0  0  0  0  0
   -5.1260   -7.5510    7.4130 C   0  0  0  0  0  0  0  0  0  0  0  0
   -4.9170   -6.3230    6.6350 N   0  0  0  0  0  0  0  0  0  0  0  0
   -5.2070   -6.3490    5.1900 C   0  0  2  0  0  0  0  0  0  0  0  0
   -5.5800   -7.7670    4.7050 C   0  0  0  0  0  0  0  0  0  0  0  0
   -6.4360   -7.6130    3.5580 O   0  0  0  0  0  0  0  0  0  0  0  0
   -5.9020   -7.9340    2.3410 C   0  0  0  0  0  0  0  0  0  0  0  0
   -5.9760   -6.9160    1.3860 C   0  0  0  0  0  0  0  0  0  0  0  0
   -5.4840   -7.1170    0.0950 C   0  0  0  0  0  0  0  0  0  0  0  0
   -4.9110   -8.3390   -0.2470 C   0  0  0  0  0  0  0  0  0  0  0  0
   -4.8280   -9.3550    0.7030 C   0  0  0  0  0  0  0  0  0  0  0  0
   -5.3210   -9.1540    1.9970 C   0  0  0  0  0  0  0  0  0  0  0  0
   -4.1570   -5.6310    4.3130 C   0  0  2  0  0  0  0  0  0  0  0  0
   -2.8190   -5.7860    4.8450 O   0  0  0  0  0  0  0  0  0  0  0  0
   -4.3580   -4.1350    4.0240 C   0  0  1  0  0  0  0  0  0  0  0  0
   -5.6020   -4.0540    3.2780 O   0  0  0  0  0  0  0  0  0  0  0  0
   -4.5100   -3.1990    5.2470 C   0  0  1  0  0  0  0  0  0  0  0  0
   -5.2620   -1.8930    4.8900 C   0  0  0  0  0  0  0  0  0  0  0  0
   -4.4350   -1.0770    4.0500 O   0  0  0  0  0  0  0  0  0  0  0  0
   -4.8370   -0.9170    2.7530 C   0  0  0  0  0  0  0  0  0  0  0  0
   -6.0430   -0.3570    2.3320 C   0  0  0  0  0  0  0  0  0  0  0  0
   -6.3310   -0.2560    0.9670 C   0  0  0  0  0  0  0  0  0  0  0  0
   -5.4180   -0.7180    0.0210 C   0  0  0  0  0  0  0  0  0  0  0  0
   -4.2160   -1.2860    0.4370 C   0  0  0  0  0  0  0  0  0  0  0  0
   -3.9300   -1.3860    1.7990 C   0  0  0  0  0  0  0  0  0  0  0  0
   -5.1330   -3.8030    6.4650 N   0  0  0  0  0  0  0  0  0  0  0  0
   -6.0760   -2.9060    7.1830 C   0  0  0  0  0  0  0  0  0  0  0  0
   -7.4480   -3.4820    7.4570 C   0  0  0  0  0  0  0  0  0  0  0  0
   -8.1010   -4.2550    6.4850 C   0  0  0  0  0  0  0  0  0  0  0  0
   -9.3620   -4.7970    6.7350 C   0  0  0  0  0  0  0  0  0  0  0  0
   -9.9890   -4.5710    7.9570 C   0  0  0  0  0  0  0  0  0  0  0  0
   -9.3560   -3.8020    8.9300 C   0  0  0  0  0  0  0  0  0  0  0  0
   -8.0940   -3.2590    8.6810 C   0  0  0  0  0  0  0  0  0  0  0  0
   -4.3710   -4.9500    7.3930 S   0  0  0  0  0  0  0  0  0  0  0  0
   -2.9490   -4.8530    7.1830 O   0  0  0  0  0  0  0  0  0  0  0  0
   -4.9370   -4.9000    8.7190 O   0  0  0  0  0  0  0  0  0  0  0  0
   -7.5180   -8.3890    7.2020 C   0  0  0  0  0  0  0  0  0  0  0  0
  -12.4623  -11.1589    7.9501 H   0  0  0  0  0  0  0  0  0  0  0  0
  -12.3621  -10.0603    6.5325 H   0  0  0  0  0  0  0  0  0  0  0  0
  -11.4561  -11.6114    6.5325 H   0  0  0  0  0  0  0  0  0  0  0  0
  -10.7140   -9.9290    8.7440 H   0  0  0  0  0  0  0  0  0  0  0  0
  -10.1851   -8.0432    9.3167 H   0  0  0  0  0  0  0  0  0  0  0  0
   -8.4689   -6.7889   10.6195 H   0  0  0  0  0  0  0  0  0  0  0  0
   -6.1487   -6.5752    9.7491 H   0  0  0  0  0  0  0  0  0  0  0  0
   -4.4391   -7.5448    8.2722 H   0  0  0  0  0  0  0  0  0  0  0  0
   -4.9341   -8.4044    6.7460 H   0  0  0  0  0  0  0  0  0  0  0  0
   -6.1065   -5.7315    5.0502 H   0  0  0  0  0  0  0  0  0  0  0  0
   -4.6716   -8.3209    4.4257 H   0  0  0  0  0  0  0  0  0  0  0  0
   -6.0903   -8.3301    5.5003 H   0  0  0  0  0  0  0  0  0  0  0  0
   -6.4256   -5.9485    1.6539 H   0  0  0  0  0  0  0  0  0  0  0  0
   -5.5490   -6.3111   -0.6509 H   0  0  0  0  0  0  0  0  0  0  0  0
   -4.5250   -8.5019   -1.2641 H   0  0  0  0  0  0  0  0  0  0  0  0
   -4.3727  -10.3197    0.4344 H   0  0  0  0  0  0  0  0  0  0  0  0
   -5.2502   -9.9589    2.7434 H   0  0  0  0  0  0  0  0  0  0  0  0
   -4.3029   -6.1474    3.3528 H   0  0  0  0  0  0  0  0  0  0  0  0
   -2.7120   -5.1900    5.6120 H   0  0  0  0  0  0  0  0  0  0  0  0
   -3.4485   -3.7896    3.5107 H   0  0  0  0  0  0  0  0  0  0  0  0
   -5.5040   -4.7240    2.5670 H   0  0  0  0  0  0  0  0  0  0  0  0
   -3.4651   -2.9840    5.5152 H   0  0  0  0  0  0  0  0  0  0  0  0
   -6.1929   -2.1400    4.3586 H   0  0  0  0  0  0  0  0  0  0  0  0
   -5.4999   -1.3441    5.8131 H   0  0  0  0  0  0  0  0  0  0  0  0
   -6.7688    0.0058    3.0747 H   0  0  0  0  0  0  0  0  0  0  0  0
   -7.2817    0.1897    0.6390 H   0  0  0  0  0  0  0  0  0  0  0  0
   -5.6460   -0.6343   -1.0519 H   0  0  0  0  0  0  0  0  0  0  0  0
   -3.4940   -1.6548   -0.3065 H   0  0  0  0  0  0  0  0  0  0  0  0
   -2.9817   -1.8383    2.1248 H   0  0  0  0  0  0  0  0  0  0  0  0
   -5.6214   -2.6410    8.1490 H   0  0  0  0  0  0  0  0  0  0  0  0
   -6.2389   -2.0462    6.5165 H   0  0  0  0  0  0  0  0  0  0  0  0
   -7.6135   -4.4356    5.5156 H   0  0  0  0  0  0  0  0  0  0  0  0
   -9.8614   -5.4038    5.9653 H   0  0  0  0  0  0  0  0  0  0  0  0
  -10.9830   -4.9992    8.1537 H   0  0  0  0  0  0  0  0  0  0  0  0
   -9.8507   -3.6221    9.8959 H   0  0  0  0  0  0  0  0  0  0  0  0
   -7.6015   -2.6499    9.4533 H   0  0  0  0  0  0  0  0  0  0  0  0
   -7.2611   -8.8258    6.2257 H   0  0  0  0  0  0  0  0  0  0  0  0
  1  2  1  0
  2  3  1  0
  3  4  2  0
  3  5  1  0
  5  6  2  0
  6  7  1  0
  7  8  2  0
  8  9  1  0
  9 10  1  0
 10 11  1  0
 11 12  1  0
 12 13  1  0
 13 14  1  0
 14 15  1  0
 15 16  2  0
 16 17  1  0
 17 18  2  0
 18 19  1  0
 19 20  2  0
 12 21  1  0
 21 22  1  0
 21 23  1  0
 23 24  1  0
 23 25  1  0
 25 26  1  0
 26 27  1  0
 27 28  1  0
 28 29  2  0
 29 30  1  0
 30 31  2  0
 31 32  1  0
 32 33  2  0
 25 34  1  0
 34 35  1  0
 35 36  1  0
 36 37  2  0
 37 38  1  0
 38 39  2  0
 39 40  1  0
 40 41  2  0
 34 42  1  0
 42 43  2  0
 42 44  2  0
  9 45  2  0
 45  5  1  0
 42 11  1  0
 20 15  1  0
 33 28  1  0
 41 36  1  0
  1 46  1  0
  1 47  1  0
  1 48  1  0
  2 49  1  0
  6 50  1  0
  7 51  1  0
  8 52  1  0
 10 53  1  0
 10 54  1  0
 12 55  1  1
 13 56  1  0
 13 57  1  0
 16 58  1  0
 17 59  1  0
 18 60  1  0
 19 61  1  0
 20 62  1  0
 21 63  1  6
 22 64  1  0
 23 65  1  6
 24 66  1  0
 25 67  1  1
 26 68  1  0
 26 69  1  0
 29 70  1  0
 30 71  1  0
 31 72  1  0
 32 73  1  0
 33 74  1  0
 35 75  1  0
 35 76  1  0
 37 77  1  0
 38 78  1  0
 39 79  1  0
 40 80  1  0
 41 81  1  0
 45 82  1  0
M  END
>  <meeko>  (1) 
{"is_sidechain": [false], "free_energy": -6.959, "intermolecular_energy": -14.281, "internal_energy": -2.618}

$$$$
1g2k_ligand
     RDKit          3D

 82 86  0  0  0  0  0  0  0  0999 V2000
  -13.1520   -2.1150    8.3220 C   0  0  0  0  0  0  0  0  0  0  0  0
  -12.1290   -2.9650    8.8780 N   0  0  0  0  0  0  0  0  0  0  0  0
  -11.0300   -3.3170    8.1180 C   0  0  0  0  0  0  0  0  0  0  0  0
  -10.8960   -3.0290    6.9350 O   0  0  0  0  0  0  0  0  0  0  0  0
   -9.9540   -4.0510    8.8350 C   0  0  0  0  0  0  0  0  0  0  0  0
   -9.1530   -3.3490    9.7400 C   0  0  0  0  0  0  0  0  0  0  0  0
   -8.1550   -4.0180   10.4460 C   0  0  0  0  0  0  0  0  0  0  0  0
   -7.9480   -5.3830   10.2430 C   0  0  0  0  0  0  0  0  0  0  0  0
   -8.7220   -6.0980    9.3160 C   0  0  0  0  0  0  0  0  0  0  0  0
   -8.4970   -7.5820    9.1210 C   0  0  0  0  0  0  0  0  0  0  0  0
   -7.6660   -7.8780    7.9460 N   0  0  0  0  0  0  0  0  0  0  0  0
   -8.3360   -8.1360    6.6590 C   0  0  2  0  0  0  0  0  0  0  0  0
   -9.8740   -8.1290    6.8000 C   0  0  0  0  0  0  0  0  0  0  0  0
  -10.3140   -9.4970    6.7340 O   0  0  0  0  0  0  0  0  0  0  0  0
  -11.5560   -9.7730    7.2380 C   0  0  0  0  0  0  0  0  0  0  0  0
  -11.7590   -9.3440    8.5520 C   0  0  0  0  0  0  0  0  0  0  0  0
  -12.9760   -9.5770    9.1950 C   0  0  0  0  0  0  0  0  0  0  0  0
  -14.0000  -10.2390    8.5230 C   0  0  0  0  0  0  0  0  0  0  0  0
  -13.8050  -10.6630    7.2090 C   0  0  0  0  0  0  0  0  0  0  0  0
  -12.5860  -10.4290    6.5650 C   0  0  0  0  0  0  0  0  0  0  0  0
   -7.7740   -9.3440    5.8750 C   0  0  2  0  0  0  0  0  0  0  0  0
   -7.3430  -10.4040    6.7630 O   0  0  0  0  0  0  0  0  0  0  0  0
   -6.6220   -9.0830    4.8730 C   0  0  1  0  0  0  0  0  0  0  0  0
   -7.1760   -8.1960    3.8660 O   0  0  0  0  0  0  0  0  0  0  0  0
   -5.3630   -8.3850    5.4390 C   0  0  1  0  0  0  0  0  0  0  0  0
   -4.5400   -7.6810    4.3310 C   0  0  0  0  0  0  0  0  0  0  0  0
   -4.2610   -8.6110    3.2770 O   0  0  0  0  0  0  0  0  0  0  0  0
   -4.5510   -8.2080    2.0030 C   0  0  0  0  0  0  0  0  0  0  0  0
   -4.5910   -6.8900    1.5490 C   0  0  0  0  0  0  0  0  0  0  0  0
   -4.9070   -6.6160    0.2140 C   0  0  0  0  0  0  0  0  0  0  0  0
   -5.1860   -7.6570   -0.6680 C   0  0  0  0  0  0  0  0  0  0  0  0
   -5.1570   -8.9750   -0.2180 C   0  0  0  0  0  0  0  0  0  0  0  0
   -4.8420   -9.2470    1.1140 C   0  0  0  0  0  0  0  0  0  0  0  0
   -5.5920   -7.4230    6.5610 N   0  0  0  0  0  0  0  0  0  0  0  0
   -4.7970   -6.1700    6.4700 C   0  0  0  0  0  0  0  0  0  0  0  0
   -5.5720   -4.8860    6.6720 C   0  0  0  0  0  0  0  0  0  0  0  0
   -5.1300   -3.9290    7.5980 C   0  0  0  0  0  0  0  0  0  0  0  0
   -5.8350   -2.7380    7.7820 C   0  0  0  0  0  0  0  0  0  0  0  0
   -6.9910   -2.4900    7.0460 C   0  0  0  0  0  0  0  0  0  0  0  0
   -7.4430   -3.4330    6.1260 C   0  0  0  0  0  0  0  0  0  0  0  0
   -6.7390   -4.6250    5.9410 C   0  0  0  0  0  0  0  0  0  0  0  0
   -6.0120   -7.9080    8.0930 S   0  0  0  0  0  0  0  0  0  0  0  0
   -5.6000   -9.2760    8.2800 O   0  0  0  0  0  0  0  0  0  0  0  0
   -5.6130   -6.8720    9.0140 O   0  0  0  0  0  0  0  0  0  0  0  0
   -9.7240   -5.4150    8.6080 C   0  0  0  0  0  0  0  0  0  0  0  0
  -13.7198   -1.6432    9.1374 H   0  0  0  0  0  0  0  0  0  0  0  0
  -12.6844   -1.3358    7.7022 H   0  0  0  0  0  0  0  0  0  0  0  0
  -13.8324   -2.7174    7.7022 H   0  0  0  0  0  0  0  0  0  0  0  0
  -12.0320   -2.9680    9.8850 H   0  0  0  0  0  0  0  0  0  0  0  0
   -9.3099   -2.2713    9.8946 H   0  0  0  0  0  0  0  0  0  0  0  0
   -7.5291   -3.4689   11.1648 H   0  0  0  0  0  0  0  0  0  0  0  0
   -7.1683   -5.9052   10.8168 H   0  0  0  0  0  0  0  0  0  0  0  0
   -7.9980   -7.9832   10.0155 H   0  0  0  0  0  0  0  0  0  0  0  0
   -9.4796   -8.0496    8.9604 H   0  0  0  0  0  0  0  0  0  0  0  0
   -8.0844   -7.2835    6.0110 H   0  0  0  0  0  0  0  0  0  0  0  0
  -10.1619   -7.6868    7.7652 H   0  0  0  0  0  0  0  0  0  0  0  0
  -10.3364   -7.5313    6.0007 H   0  0  0  0  0  0  0  0  0  0  0  0
  -10.9529   -8.8181    9.0845 H   0  0  0  0  0  0  0  0  0  0  0  0
  -13.1256   -9.2382   10.2308 H   0  0  0  0  0  0  0  0  0  0  0  0
  -14.9596  -10.4269    9.0269 H   0  0  0  0  0  0  0  0  0  0  0  0
  -14.6141  -11.1842    6.6764 H   0  0  0  0  0  0  0  0  0  0  0  0
  -12.4396  -10.7626    5.5271 H   0  0  0  0  0  0  0  0  0  0  0  0
   -8.6460   -9.6246    5.2660 H   0  0  0  0  0  0  0  0  0  0  0  0
   -6.5350  -10.8150    6.3970 H   0  0  0  0  0  0  0  0  0  0  0  0
   -6.2790  -10.0673    4.5215 H   0  0  0  0  0  0  0  0  0  0  0  0
   -6.7360   -7.3340    4.0300 H   0  0  0  0  0  0  0  0  0  0  0  0
   -4.7969   -9.2245    5.8687 H   0  0  0  0  0  0  0  0  0  0  0  0
   -5.1156   -6.8340    3.9294 H   0  0  0  0  0  0  0  0  0  0  0  0
   -3.5937   -7.3141    4.7553 H   0  0  0  0  0  0  0  0  0  0  0  0
   -4.3736   -6.0640    2.2421 H   0  0  0  0  0  0  0  0  0  0  0  0
   -4.9352   -5.5750   -0.1402 H   0  0  0  0  0  0  0  0  0  0  0  0
   -5.4289   -7.4388   -1.7184 H   0  0  0  0  0  0  0  0  0  0  0  0
   -5.3818   -9.7993   -0.9108 H   0  0  0  0  0  0  0  0  0  0  0  0
   -4.8225  -10.2884    1.4677 H   0  0  0  0  0  0  0  0  0  0  0  0
   -4.0088   -6.2133    7.2361 H   0  0  0  0  0  0  0  0  0  0  0  0
   -4.4149   -6.1311    5.4392 H   0  0  0  0  0  0  0  0  0  0  0  0
   -4.2191   -4.1189    8.1847 H   0  0  0  0  0  0  0  0  0  0  0  0
   -5.4769   -1.9945    8.5093 H   0  0  0  0  0  0  0  0  0  0  0  0
   -7.5459   -1.5514    7.1909 H   0  0  0  0  0  0  0  0  0  0  0  0
   -8.3560   -3.2386    5.5441 H   0  0  0  0  0  0  0  0  0  0  0  0
   -7.1039   -5.3661    5.2146 H   0  0  0  0  0  0  0  0  0  0  0  0
  -10.3338   -5.9551    7.8688 H   0  0  0  0  0  0  0  0  0  0  0  0
  1  2  1  0
  2  3  1  0
  3  4  2  0
  3  5  1  0
  5  6  2  0
  6  7  1  0
  7  8  2  0
  8  9  1  0
  9 10  1  0
 10 11  1  0
 11 12  1  0
 12 13  1  0
 13 14  1  0
 14 15  1  0
 15 16  2  0
 16 17  1  0
 17 18  2  0
 18 19  1  0
 19 20  2  0
 12 21  1  0
 21 22  1  0
 21 23  1  0
 23 24  1  0
 23 25  1  0
 25 26  1  0
 26 27  1  0
 27 28  1  0
 28 29  2  0
 29 30  1  0
 30 31  2  0
 31 32  1  0
 32 33  2  0
 25 34  1  0
 34 35  1  0
 35 36  1  0
 36 37  2  0
 37 38  1  0
 38 39  2  0
 39 40  1  0
 40 41  2  0
 34 42  1  0
 42 43  2  0
 42 44  2  0
  9 45  2  0
 45  5  1  0
 42 11  1  0
 20 15  1  0
 33 28  1  0
 41 36  1  0
  1 46  1  0
  1 47  1  0
  1 48  1  0
  2 49  1  0
  6 50  1  0
  7 51  1  0
  8 52  1  0
 10 53  1  0
 10 54  1  0
 12 55  1  6
 13 56  1  0
 13 57  1  0
 16 58  1  0
 17 59  1  0
 18 60  1  0
 19 61  1  0
 20 62  1  0
 21 63  1  6
 22 64  1  0
 23 65  1  6
 24 66  1  0
 25 67  1  1
 26 68  1  0
 26 69  1  0
 29 70  1  0
 30 71  1  0
 31 72  1  0
 32 73  1  0
 33 74  1  0
 35 75  1  0
 35 76  1  0
 37 77  1  0
 38 78  1  0
 39 79  1  0
 40 80  1  0
 41 81  1  0
 45 82  1  0
M  END
>  <meeko>  (2) 
{"is_sidechain": [false], "free_energy": -6.325, "intermolecular_energy": -12.533, "internal_energy": -3.066}

$$$$
1g2k_ligand
     RDKit          3D

 82 86  0  0  0  0  0  0  0  0999 V2000
  -13.4800    0.1670   -6.2920 C   0  0  0  0  0  0  0  0  0  0  0  0
  -12.8670    1.1100   -7.1950 N   0  0  0  0  0  0  0  0  0  0  0  0
  -12.0150    2.0820   -6.7100 C   0  0  0  0  0  0  0  0  0  0  0  0
  -11.8010    2.2710   -5.5180 O   0  0  0  0  0  0  0  0  0  0  0  0
  -11.3050    2.8930   -7.7340 C   0  0  0  0  0  0  0  0  0  0  0  0
  -10.8790    2.2650   -8.9070 C   0  0  0  0  0  0  0  0  0  0  0  0
  -10.2360    3.0060   -9.8970 C   0  0  0  0  0  0  0  0  0  0  0  0
  -10.0090    4.3710   -9.7130 C   0  0  0  0  0  0  0  0  0  0  0  0
  -10.4020    5.0130   -8.5290 C   0  0  0  0  0  0  0  0  0  0  0  0
  -10.1650    6.4980   -8.3530 C   0  0  0  0  0  0  0  0  0  0  0  0
   -9.2220    6.7940   -7.2650 N   0  0  0  0  0  0  0  0  0  0  0  0
   -9.7510    6.9330   -5.8970 C   0  0  2  0  0  0  0  0  0  0  0  0
  -11.2870    6.7760   -5.8550 C   0  0  0  0  0  0  0  0  0  0  0  0
  -11.8470    8.0990   -5.7690 O   0  0  0  0  0  0  0  0  0  0  0  0
  -13.1260    8.2580   -6.2260 C   0  0  0  0  0  0  0  0  0  0  0  0
  -13.3580    7.7400   -7.5030 C   0  0  0  0  0  0  0  0  0  0  0  0
  -14.6160    7.8510   -8.0970 C   0  0  0  0  0  0  0  0  0  0  0  0
  -15.6530    8.4810   -7.4130 C   0  0  0  0  0  0  0  0  0  0  0  0
  -15.4300    8.9930   -6.1360 C   0  0  0  0  0  0  0  0  0  0  0  0
  -14.1690    8.8810   -5.5410 C   0  0  0  0  0  0  0  0  0  0  0  0
   -9.2140    8.1600   -5.1250 C   0  0  2  0  0  0  0  0  0  0  0  0
   -8.9540    9.2770   -6.0090 O   0  0  0  0  0  0  0  0  0  0  0  0
   -7.9510    7.9440   -4.2650 C   0  0  1  0  0  0  0  0  0  0  0  0
   -8.3030    6.9420   -3.2740 O   0  0  0  0  0  0  0  0  0  0  0  0
   -6.7070    7.4110   -5.0150 C   0  0  1  0  0  0  0  0  0  0  0  0
   -5.6770    6.7690   -4.0520 C   0  0  0  0  0  0  0  0  0  0  0  0
   -5.2980    7.7220   -3.0500 O   0  0  0  0  0  0  0  0  0  0  0  0
   -5.4830    7.3550   -1.7460 C   0  0  0  0  0  0  0  0  0  0  0  0
   -5.3620    6.0630   -1.2330 C   0  0  0  0  0  0  0  0  0  0  0  0
   -5.5820    5.8250    0.1280 C   0  0  0  0  0  0  0  0  0  0  0  0
   -5.9260    6.8750    0.9770 C   0  0  0  0  0  0  0  0  0  0  0  0
   -6.0570    8.1650    0.4680 C   0  0  0  0  0  0  0  0  0  0  0  0
   -5.8380    8.4010   -0.8900 C   0  0  0  0  0  0  0  0  0  0  0  0
   -6.9730    6.4670   -6.1440 N   0  0  0  0  0  0  0  0  0  0  0  0
   -6.0630    5.2920   -6.1910 C   0  0  0  0  0  0  0  0  0  0  0  0
   -6.7350    3.9490   -6.3690 C   0  0  0  0  0  0  0  0  0  0  0  0
   -6.5100    3.1900   -7.5270 C   0  0  0  0  0  0  0  0  0  0  0  0
   -7.1200    1.9450   -7.6940 C   0  0  0  0  0  0  0  0  0  0  0  0
   -7.9660    1.4450   -6.7060 C   0  0  0  0  0  0  0  0  0  0  0  0
   -8.2020    2.1890   -5.5520 C   0  0  0  0  0  0  0  0  0  0  0  0
   -7.5920    3.4340   -5.3850 C   0  0  0  0  0  0  0  0  0  0  0  0
   -7.6030    6.9570   -7.6000 S   0  0  0  0  0  0  0  0  0  0  0  0
   -7.3200    8.3570   -7.7860 O   0  0  0  0  0  0  0  0  0  0  0  0
   -7.2380    5.9800   -8.5960 O   0  0  0  0  0  0  0  0  0  0  0  0
  -11.0480    4.2570   -7.5370 C   0  0  0  0  0  0  0  0  0  0  0  0
  -13.2820    0.4716   -5.2537 H   0  0  0  0  0  0  0  0  0  0  0  0
  -14.5658    0.1446   -6.4668 H   0  0  0  0  0  0  0  0  0  0  0  0
  -13.0597   -0.8344   -6.4668 H   0  0  0  0  0  0  0  0  0  0  0  0
  -12.7600    0.8200   -8.1590 H   0  0  0  0  0  0  0  0  0  0  0  0
  -11.0507    1.1878   -9.0490 H   0  0  0  0  0  0  0  0  0  0  0  0
   -9.9070    2.5146  -10.8245 H   0  0  0  0  0  0  0  0  0  0  0  0
   -9.5155    4.9510  -10.5068 H   0  0  0  0  0  0  0  0  0  0  0  0
   -9.7591    6.9038   -9.2914 H   0  0  0  0  0  0  0  0  0  0  0  0
  -11.1286    6.9612   -8.0944 H   0  0  0  0  0  0  0  0  0  0  0  0
   -9.3426    6.0855   -5.3270 H   0  0  0  0  0  0  0  0  0  0  0  0
  -11.6400    6.2758   -6.7689 H   0  0  0  0  0  0  0  0  0  0  0  0
  -11.5940    6.1649   -4.9934 H   0  0  0  0  0  0  0  0  0  0  0  0
  -12.5416    7.2402   -8.0450 H   0  0  0  0  0  0  0  0  0  0  0  0
  -14.7883    7.4418   -9.1034 H   0  0  0  0  0  0  0  0  0  0  0  0
  -16.6449    8.5742   -7.8793 H   0  0  0  0  0  0  0  0  0  0  0  0
  -16.2494    9.4874   -5.5936 H   0  0  0  0  0  0  0  0  0  0  0  0
  -13.9998    9.2847   -4.5318 H   0  0  0  0  0  0  0  0  0  0  0  0
  -10.0377    8.3654   -4.4255 H   0  0  0  0  0  0  0  0  0  0  0  0
   -9.5780    9.9990   -5.7990 H   0  0  0  0  0  0  0  0  0  0  0  0
   -7.6679    8.9301   -3.8683 H   0  0  0  0  0  0  0  0  0  0  0  0
   -8.1540    7.3880   -2.4130 H   0  0  0  0  0  0  0  0  0  0  0  0
   -6.2947    8.3227   -5.4719 H   0  0  0  0  0  0  0  0  0  0  0  0
   -6.1263    5.8887   -3.5690 H   0  0  0  0  0  0  0  0  0  0  0  0
   -4.7866    6.4621   -4.6204 H   0  0  0  0  0  0  0  0  0  0  0  0
   -5.0932    5.2304   -1.8997 H   0  0  0  0  0  0  0  0  0  0  0  0
   -5.4831    4.8056    0.5292 H   0  0  0  0  0  0  0  0  0  0  0  0
   -6.0938    6.6855    2.0475 H   0  0  0  0  0  0  0  0  0  0  0  0
   -6.3323    8.9955    1.1346 H   0  0  0  0  0  0  0  0  0  0  0  0
   -5.9458    9.4199   -1.2903 H   0  0  0  0  0  0  0  0  0  0  0  0
   -5.3680    5.4362   -7.0313 H   0  0  0  0  0  0  0  0  0  0  0  0
   -5.5718    5.2536   -5.2075 H   0  0  0  0  0  0  0  0  0  0  0  0
   -5.8457    3.5799   -8.3123 H   0  0  0  0  0  0  0  0  0  0  0  0
   -6.9326    1.3588   -8.6057 H   0  0  0  0  0  0  0  0  0  0  0  0
   -8.4468    0.4643   -6.8371 H   0  0  0  0  0  0  0  0  0  0  0  0
   -8.8696    1.7953   -4.7715 H   0  0  0  0  0  0  0  0  0  0  0  0
   -7.7855    4.0169   -4.4724 H   0  0  0  0  0  0  0  0  0  0  0  0
  -11.3549    4.7394   -6.5973 H   0  0  0  0  0  0  0  0  0  0  0  0
  1  2  1  0
  2  3  1  0
  3  4  2  0
  3  5  1  0
  5  6  2  0
  6  7  1  0
  7  8  2  0
  8  9  1  0
  9 10  1  0
 10 11  1  0
 11 12  1  0
 12 13  1  0
 13 14  1  0
 14 15  1  0
 15 16  2  0
 16 17  1  0
 17 18  2  0
 18 19  1  0
 19 20  2  0
 12 21  1  0
 21 22  1  0
 21 23  1  0
 23 24  1  0
 23 25  1  0
 25 26  1  0
 26 27  1  0
 27 28  1  0
 28 29  2  0
 29 30  1  0
 30 31  2  0
 31 32  1  0
 32 33  2  0
 25 34  1  0
 34 35  1  0
 35 36  1  0
 36 37  2  0
 37 38  1  0
 38 39  2  0
 39 40  1  0
 40 41  2  0
 34 42  1  0
 42 43  2  0
 42 44  2  0
  9 45  2  0
 45  5  1  0
 42 11  1  0
 20 15  1  0
 33 28  1  0
 41 36  1  0
  1 46  1  0
  1 47  1  0
  1 48  1  0
  2 49  1  0
  6 50  1  0
  7 51  1  0
  8 52  1  0
 10 53  1  0
 10 54  1  0
 12 55  1  1
 13 56  1  0
 13 57  1  0
 16 58  1  0
 17 59  1  0
 18 60  1  0
 19 61  1  0
 20 62  1  0
 21 63  1  1
 22 64  1  0
 23 65  1  1
 24 66  1  0
 25 67  1  6
 26 68  1  0
 26 69  1  0
 29 70  1  0
 30 71  1  0
 31 72  1  0
 32 73  1  0
 33 74  1  0
 35 75  1  0
 35 76  1  0
 37 77  1  0
 38 78  1  0
 39 79  1  0
 40 80  1  0
 41 81  1  0
 45 82  1  0
M  END
>  <meeko>  (3) 
{"is_sidechain": [false], "free_energy": -6.263, "intermolecular_energy": -12.855, "internal_energy": -2.616}

$$$$
1g2k_ligand
     RDKit          3D

 82 86  0  0  0  0  0  0  0  0999 V2000
  -13.3940    0.5970   -6.1450 C   0  0  0  0  0  0  0  0  0  0  0  0
  -12.7120    1.4350   -7.1000 N   0  0  0  0  0  0  0  0  0  0  0  0
  -11.7610    2.3410   -6.6740 C   0  0  0  0  0  0  0  0  0  0  0  0
  -11.5070    2.5630   -5.4960 O   0  0  0  0  0  0  0  0  0  0  0  0
  -10.9970    3.0320   -7.7460 C   0  0  0  0  0  0  0  0  0  0  0  0
  -11.7020    3.7600   -8.7070 C   0  0  0  0  0  0  0  0  0  0  0  0
  -11.0110    4.4410   -9.7070 C   0  0  0  0  0  0  0  0  0  0  0  0
   -9.6170    4.3870   -9.7550 C   0  0  0  0  0  0  0  0  0  0  0  0
   -8.8920    3.6370   -8.8170 C   0  0  0  0  0  0  0  0  0  0  0  0
   -7.3800    3.6030   -8.8720 C   0  0  0  0  0  0  0  0  0  0  0  0
   -6.7650    3.6370   -7.5380 N   0  0  0  0  0  0  0  0  0  0  0  0
   -6.5910    4.9430   -6.8790 C   0  0  2  0  0  0  0  0  0  0  0  0
   -7.2380    6.0880   -7.6900 C   0  0  0  0  0  0  0  0  0  0  0  0
   -7.3960    7.2050   -6.7980 O   0  0  0  0  0  0  0  0  0  0  0  0
   -8.6620    7.4610   -6.3470 C   0  0  0  0  0  0  0  0  0  0  0  0
   -9.5720    6.4190   -6.5430 C   0  0  0  0  0  0  0  0  0  0  0  0
  -10.9030    6.5550   -6.1450 C   0  0  0  0  0  0  0  0  0  0  0  0
  -11.3310    7.7370   -5.5460 C   0  0  0  0  0  0  0  0  0  0  0  0
  -10.4260    8.7770   -5.3410 C   0  0  0  0  0  0  0  0  0  0  0  0
   -9.0920    8.6400   -5.7390 C   0  0  0  0  0  0  0  0  0  0  0  0
   -5.1490    5.2340   -6.4040 C   0  0  2  0  0  0  0  0  0  0  0  0
   -4.2040    5.1840   -7.5020 O   0  0  0  0  0  0  0  0  0  0  0  0
   -4.5450    4.3220   -5.3170 C   0  0  1  0  0  0  0  0  0  0  0  0
   -3.8550    5.2150   -4.4030 O   0  0  0  0  0  0  0  0  0  0  0  0
   -5.5220    3.4780   -4.4630 C   0  0  1  0  0  0  0  0  0  0  0  0
   -6.2840    4.3400   -3.4270 C   0  0  0  0  0  0  0  0  0  0  0  0
   -5.4250    4.6250   -2.3150 O   0  0  0  0  0  0  0  0  0  0  0  0
   -5.6370    5.8040   -1.6550 C   0  0  0  0  0  0  0  0  0  0  0  0
   -5.7970    7.0570   -2.2460 C   0  0  0  0  0  0  0  0  0  0  0  0
   -6.0070    8.1870   -1.4500 C   0  0  0  0  0  0  0  0  0  0  0  0
   -6.0520    8.0690   -0.0620 C   0  0  0  0  0  0  0  0  0  0  0  0
   -5.8840    6.8210    0.5330 C   0  0  0  0  0  0  0  0  0  0  0  0
   -5.6750    5.6940   -0.2630 C   0  0  0  0  0  0  0  0  0  0  0  0
   -6.5060    2.6430   -5.2210 N   0  0  0  0  0  0  0  0  0  0  0  0
   -7.2630    1.6750   -4.3850 C   0  0  0  0  0  0  0  0  0  0  0  0
   -6.4290    0.6410   -3.6610 C   0  0  0  0  0  0  0  0  0  0  0  0
   -5.9840   -0.5090   -4.3320 C   0  0  0  0  0  0  0  0  0  0  0  0
   -5.2060   -1.4620   -3.6730 C   0  0  0  0  0  0  0  0  0  0  0  0
   -4.8650   -1.2800   -2.3350 C   0  0  0  0  0  0  0  0  0  0  0  0
   -5.3020   -0.1460   -1.6550 C   0  0  0  0  0  0  0  0  0  0  0  0
   -6.0800    0.8080   -2.3140 C   0  0  0  0  0  0  0  0  0  0  0  0
   -6.2920    2.2200   -6.8120 S   0  0  0  0  0  0  0  0  0  0  0  0
   -4.8860    2.0320   -7.0620 O   0  0  0  0  0  0  0  0  0  0  0  0
   -7.2540    1.1940   -7.1340 O   0  0  0  0  0  0  0  0  0  0  0  0
   -9.5990    2.9520   -7.8140 C   0  0  0  0  0  0  0  0  0  0  0  0
  -13.1339    0.9166   -5.1251 H   0  0  0  0  0  0  0  0  0  0  0  0
  -14.4808    0.6845   -6.2907 H   0  0  0  0  0  0  0  0  0  0  0  0
  -13.0876   -0.4494   -6.2907 H   0  0  0  0  0  0  0  0  0  0  0  0
  -12.6510    1.0920   -8.0510 H   0  0  0  0  0  0  0  0  0  0  0  0
  -12.8009    3.7957   -8.6745 H   0  0  0  0  0  0  0  0  0  0  0  0
  -11.5646    5.0218  -10.4595 H   0  0  0  0  0  0  0  0  0  0  0  0
   -9.0795    4.9402  -10.5392 H   0  0  0  0  0  0  0  0  0  0  0  0
   -7.0667    2.6795   -9.3809 H   0  0  0  0  0  0  0  0  0  0  0  0
   -7.0462    4.4992   -9.4156 H   0  0  0  0  0  0  0  0  0  0  0  0
   -7.1529    4.8823   -5.9353 H   0  0  0  0  0  0  0  0  0  0  0  0
   -6.5878    6.3674   -8.5322 H   0  0  0  0  0  0  0  0  0  0  0  0
   -8.2097    5.7753   -8.0998 H   0  0  0  0  0  0  0  0  0  0  0  0
   -9.2367    5.4836   -7.0149 H   0  0  0  0  0  0  0  0  0  0  0  0
  -11.6127    5.7298   -6.3043 H   0  0  0  0  0  0  0  0  0  0  0  0
  -12.3803    7.8496   -5.2355 H   0  0  0  0  0  0  0  0  0  0  0  0
  -10.7622    9.7095   -4.8642 H   0  0  0  0  0  0  0  0  0  0  0  0
   -8.3815    9.4630   -5.5722 H   0  0  0  0  0  0  0  0  0  0  0  0
   -5.2849    6.2324   -5.9627 H   0  0  0  0  0  0  0  0  0  0  0  0
   -3.4900    5.8290   -7.3340 H   0  0  0  0  0  0  0  0  0  0  0  0
   -3.9313    3.5813   -5.8506 H   0  0  0  0  0  0  0  0  0  0  0  0
   -4.4480    5.9930   -4.3270 H   0  0  0  0  0  0  0  0  0  0  0  0
   -4.8481    2.7708   -3.9574 H   0  0  0  0  0  0  0  0  0  0  0  0
   -6.6001    5.2831   -3.8968 H   0  0  0  0  0  0  0  0  0  0  0  0
   -7.1690    3.7903   -3.0740 H   0  0  0  0  0  0  0  0  0  0  0  0
   -5.7579    7.1565   -3.3408 H   0  0  0  0  0  0  0  0  0  0  0  0
   -6.1372    9.1726   -1.9208 H   0  0  0  0  0  0  0  0  0  0  0  0
   -6.2198    8.9593    0.5619 H   0  0  0  0  0  0  0  0  0  0  0  0
   -5.9160    6.7239    1.6282 H   0  0  0  0  0  0  0  0  0  0  0  0
   -5.5390    4.7102    0.2100 H   0  0  0  0  0  0  0  0  0  0  0  0
   -7.8233    2.2462   -3.6301 H   0  0  0  0  0  0  0  0  0  0  0  0
   -7.9008    1.1114   -5.0819 H   0  0  0  0  0  0  0  0  0  0  0  0
   -6.2513   -0.6606   -5.3882 H   0  0  0  0  0  0  0  0  0  0  0  0
   -4.8618   -2.3577   -4.2109 H   0  0  0  0  0  0  0  0  0  0  0  0
   -4.2513   -2.0310   -1.8160 H   0  0  0  0  0  0  0  0  0  0  0  0
   -5.0341   -0.0017   -0.5979 H   0  0  0  0  0  0  0  0  0  0  0  0
   -6.4227    1.7005   -1.7699 H   0  0  0  0  0  0  0  0  0  0  0  0
   -9.0508    2.3479   -7.0760 H   0  0  0  0  0  0  0  0  0  0  0  0
  1  2  1  0
  2  3  1  0
  3  4  2  0
  3  5  1  0
  5  6  2  0
  6  7  1  0
  7  8  2  0
  8  9  1  0
  9 10  1  0
 10 11  1  0
 11 12  1  0
 12 13  1  0
 13 14  1  0
 14 15  1  0
 15 16  2  0
 16 17  1  0
 17 18  2  0
 18 19  1  0
 19 20  2  0
 12 21  1  0
 21 22  1  0
 21 23  1  0
 23 24  1  0
 23 25  1  0
 25 26  1  0
 26 27  1  0
 27 28  1  0
 28 29  2  0
 29 30  1  0
 30 31  2  0
 31 32  1  0
 32 33  2  0
 25 34  1  0
 34 35  1  0
 35 36  1  0
 36 37  2  0
 37 38  1  0
 38 39  2  0
 39 40  1  0
 40 41  2  0
 34 42  1  0
 42 43  2  0
 42 44  2  0
  9 45  2  0
 45  5  1  0
 42 11  1  0
 20 15  1  0
 33 28  1  0
 41 36  1  0
  1 46  1  0
  1 47  1  0
  1 48  1  0
  2 49  1  0
  6 50  1  0
  7 51  1  0
  8 52  1  0
 10 53  1  0
 10 54  1  0
 12 55  1  1
 13 56  1  0
 13 57  1  0
 16 58  1  0
 17 59  1  0
 18 60  1  0
 19 61  1  0
 20 62  1  0
 21 63  1  1
 22 64  1  0
 23 65  1  6
 24 66  1  0
 25 67  1  1
 26 68  1  0
 26 69  1  0
 29 70  1  0
 30 71  1  0
 31 72  1  0
 32 73  1  0
 33 74  1  0
 35 75  1  0
 35 76  1  0
 37 77  1  0
 38 78  1  0
 39 79  1  0
 40 80  1  0
 41 81  1  0
 45 82  1  0
M  END
>  <meeko>  (4) 
{"is_sidechain": [false], "free_energy": -6.186, "intermolecular_energy": -13.461, "internal_energy": -1.853}

$$$$
1g2k_ligand
     RDKit          3D

 82 86  0  0  0  0  0  0  0  0999 V2000
   -4.3720  -10.4600    7.8570 C   0  0  0  0  0  0  0  0  0  0  0  0
   -5.3630   -9.4580    8.1600 N   0  0  0  0  0  0  0  0  0  0  0  0
   -6.6420   -9.8330    8.5220 C   0  0  0  0  0  0  0  0  0  0  0  0
   -7.0420  -10.9910    8.5170 O   0  0  0  0  0  0  0  0  0  0  0  0
   -7.5350   -8.7350    8.9790 C   0  0  0  0  0  0  0  0  0  0  0  0
   -8.8580   -9.0430    9.3090 C   0  0  0  0  0  0  0  0  0  0  0  0
   -9.7100   -8.0400    9.7650 C   0  0  0  0  0  0  0  0  0  0  0  0
   -9.2470   -6.7280    9.8830 C   0  0  0  0  0  0  0  0  0  0  0  0
   -7.9320   -6.3940    9.5280 C   0  0  0  0  0  0  0  0  0  0  0  0
   -7.4400   -4.9700    9.6780 C   0  0  0  0  0  0  0  0  0  0  0  0
   -6.9400   -4.4080    8.4160 N   0  0  0  0  0  0  0  0  0  0  0  0
   -7.9140   -4.0810    7.3590 C   0  0  2  0  0  0  0  0  0  0  0  0
   -9.2410   -3.5520    7.9450 C   0  0  0  0  0  0  0  0  0  0  0  0
  -10.1540   -3.3840    6.8460 O   0  0  0  0  0  0  0  0  0  0  0  0
  -11.4190   -2.9640    7.1520 C   0  0  0  0  0  0  0  0  0  0  0  0
  -11.7210   -2.9700    8.5160 C   0  0  0  0  0  0  0  0  0  0  0  0
  -12.9840   -2.5820    8.9660 C   0  0  0  0  0  0  0  0  0  0  0  0
  -13.9540   -2.1820    8.0500 C   0  0  0  0  0  0  0  0  0  0  0  0
  -13.6570   -2.1680    6.6880 C   0  0  0  0  0  0  0  0  0  0  0  0
  -12.3910   -2.5560    6.2380 C   0  0  0  0  0  0  0  0  0  0  0  0
   -8.0840   -5.1780    6.2840 C   0  0  2  0  0  0  0  0  0  0  0  0
   -9.2600   -5.9880    6.5270 O   0  0  0  0  0  0  0  0  0  0  0  0
   -6.9190   -6.1850    6.0640 C   0  0  1  0  0  0  0  0  0  0  0  0
   -7.2490   -6.9190    4.8550 O   0  0  0  0  0  0  0  0  0  0  0  0
   -5.5010   -5.6010    5.8580 C   0  0  1  0  0  0  0  0  0  0  0  0
   -5.1500   -5.4410    4.3580 C   0  0  0  0  0  0  0  0  0  0  0  0
   -4.3780   -6.5680    3.9230 O   0  0  0  0  0  0  0  0  0  0  0  0
   -4.5930   -7.0110    2.6480 C   0  0  0  0  0  0  0  0  0  0  0  0
   -4.7210   -6.2100    1.5130 C   0  0  0  0  0  0  0  0  0  0  0  0
   -4.9420   -6.7950    0.2620 C   0  0  0  0  0  0  0  0  0  0  0  0
   -5.0400   -8.1790    0.1430 C   0  0  0  0  0  0  0  0  0  0  0  0
   -4.9220   -8.9830    1.2740 C   0  0  0  0  0  0  0  0  0  0  0  0
   -4.7010   -8.3980    2.5220 C   0  0  0  0  0  0  0  0  0  0  0  0
   -5.2100   -4.3160    6.5660 N   0  0  0  0  0  0  0  0  0  0  0  0
   -4.2080   -3.4520    5.8860 C   0  0  0  0  0  0  0  0  0  0  0  0
   -4.7630   -2.2260    5.1940 C   0  0  0  0  0  0  0  0  0  0  0  0
   -3.9690   -1.5010    4.2930 C   0  0  0  0  0  0  0  0  0  0  0  0
   -4.4770   -0.3740    3.6440 C   0  0  0  0  0  0  0  0  0  0  0  0
   -5.7830    0.0430    3.8900 C   0  0  0  0  0  0  0  0  0  0  0  0
   -6.5810   -0.6650    4.7860 C   0  0  0  0  0  0  0  0  0  0  0  0
   -6.0740   -1.7920    5.4350 C   0  0  0  0  0  0  0  0  0  0  0  0
   -5.3110   -4.1520    8.2150 S   0  0  0  0  0  0  0  0  0  0  0  0
   -4.6030   -5.2420    8.8390 O   0  0  0  0  0  0  0  0  0  0  0  0
   -5.0160   -2.7800    8.5470 O   0  0  0  0  0  0  0  0  0  0  0  0
   -7.0810   -7.4120    9.0660 C   0  0  0  0  0  0  0  0  0  0  0  0
   -3.9666  -10.8699    8.7938 H   0  0  0  0  0  0  0  0  0  0  0  0
   -4.8351  -11.2689    7.2730 H   0  0  0  0  0  0  0  0  0  0  0  0
   -3.5580  -10.0058    7.2730 H   0  0  0  0  0  0  0  0  0  0  0  0
   -5.0240   -8.5570    8.4750 H   0  0  0  0  0  0  0  0  0  0  0  0
   -9.2253  -10.0750    9.2088 H   0  0  0  0  0  0  0  0  0  0  0  0
  -10.7492   -8.2818   10.0326 H   0  0  0  0  0  0  0  0  0  0  0  0
   -9.9227   -5.9459   10.2595 H   0  0  0  0  0  0  0  0  0  0  0  0
   -8.2720   -4.3459   10.0362 H   0  0  0  0  0  0  0  0  0  0  0  0
   -6.6033   -4.9806   10.3921 H   0  0  0  0  0  0  0  0  0  0  0  0
   -7.4768   -3.2465    6.7911 H   0  0  0  0  0  0  0  0  0  0  0  0
   -9.6490   -4.2748    8.6668 H   0  0  0  0  0  0  0  0  0  0  0  0
   -9.0833   -2.5989    8.4710 H   0  0  0  0  0  0  0  0  0  0  0  0
  -10.9564   -3.2834    9.2420 H   0  0  0  0  0  0  0  0  0  0  0  0
  -13.2128   -2.5921   10.0419 H   0  0  0  0  0  0  0  0  0  0  0  0
  -14.9515   -1.8780    8.4002 H   0  0  0  0  0  0  0  0  0  0  0  0
  -14.4218   -1.8504    5.9640 H   0  0  0  0  0  0  0  0  0  0  0  0
  -12.1613   -2.5395    5.1624 H   0  0  0  0  0  0  0  0  0  0  0  0
   -8.1430   -4.5555    5.3790 H   0  0  0  0  0  0  0  0  0  0  0  0
   -9.3110   -6.1940    7.4810 H   0  0  0  0  0  0  0  0  0  0  0  0
   -6.8517   -6.7704    6.9929 H   0  0  0  0  0  0  0  0  0  0  0  0
   -7.8600   -7.6260    5.1570 H   0  0  0  0  0  0  0  0  0  0  0  0
   -4.8583   -6.3601    6.3278 H   0  0  0  0  0  0  0  0  0  0  0  0
   -6.0772   -5.3829    3.7690 H   0  0  0  0  0  0  0  0  0  0  0  0
   -4.5654   -4.5202    4.2153 H   0  0  0  0  0  0  0  0  0  0  0  0
   -4.6480   -5.1161    1.6022 H   0  0  0  0  0  0  0  0  0  0  0  0
   -5.0387   -6.1598   -0.6308 H   0  0  0  0  0  0  0  0  0  0  0  0
   -5.2103   -8.6365   -0.8428 H   0  0  0  0  0  0  0  0  0  0  0  0
   -5.0027  -10.0763    1.1841 H   0  0  0  0  0  0  0  0  0  0  0  0
   -4.6111   -9.0350    3.4143 H   0  0  0  0  0  0  0  0  0  0  0  0
   -3.4835   -3.1149    6.6419 H   0  0  0  0  0  0  0  0  0  0  0  0
   -3.7666   -4.0716    5.0915 H   0  0  0  0  0  0  0  0  0  0  0  0
   -2.9360   -1.8236    4.0959 H   0  0  0  0  0  0  0  0  0  0  0  0
   -3.8454    0.1850    2.9379 H   0  0  0  0  0  0  0  0  0  0  0  0
   -6.1837    0.9300    3.3776 H   0  0  0  0  0  0  0  0  0  0  0  0
   -7.6120   -0.3355    4.9823 H   0  0  0  0  0  0  0  0  0  0  0  0
   -6.7094   -2.3450    6.1425 H   0  0  0  0  0  0  0  0  0  0  0  0
   -6.0499   -7.1686    8.7701 H   0  0  0  0  0  0  0  0  0  0  0  0
  1  2  1  0
  2  3  1  0
  3  4  2  0
  3  5  1  0
  5  6  2  0
  6  7  1  0
  7  8  2  0
  8  9  1  0
  9 10  1  0
 10 11  1  0
 11 12  1  0
 12 13  1  0
 13 14  1  0
 14 15  1  0
 15 16  2  0
 16 17  1  0
 17 18  2  0
 18 19  1  0
 19 20  2  0
 12 21  1  0
 21 22  1  0
 21 23  1  0
 23 24  1  0
 23 25  1  0
 25 26  1  0
 26 27  1  0
 27 28  1  0
 28 29  2  0
 29 30  1  0
 30 31  2  0
 31 32  1  0
 32 33  2  0
 25 34  1  0
 34 35  1  0
 35 36  1  0
 36 37  2  0
 37 38  1  0
 38 39  2  0
 39 40  1  0
 40 41  2  0
 34 42  1  0
 42 43  2  0
 42 44  2  0
  9 45  2  0
 45  5  1  0
 42 11  1  0
 20 15  1  0
 33 28  1  0
 41 36  1  0
  1 46  1  0
  1 47  1  0
  1 48  1  0
  2 49  1  0
  6 50  1  0
  7 51  1  0
  8 52  1  0
 10 53  1  0
 10 54  1  0
 12 55  1  6
 13 56  1  0
 13 57  1  0
 16 58  1  0
 17 59  1  0
 18 60  1  0
 19 61  1  0
 20 62  1  0
 21 63  1  6
 22 64  1  0
 23 65  1  1
 24 66  1  0
 25 67  1  1
 26 68  1  0
 26 69  1  0
 29 70  1  0
 30 71  1  0
 31 72  1  0
 32 73  1  0
 33 74  1  0
 35 75  1  0
 35 76  1  0
 37 77  1  0
 38 78  1  0
 39 79  1  0
 40 80  1  0
 41 81  1  0
 45 82  1  0
M  END
>  <meeko>  (5) 
{"is_sidechain": [false], "free_energy": -6.014, "intermolecular_energy": -13.038, "internal_energy": -1.922}

$$$$
1g2k_ligand
     RDKit          3D

 82 86  0  0  0  0  0  0  0  0999 V2000
  -13.7660    7.1660   -9.6920 C   0  0  0  0  0  0  0  0  0  0  0  0
  -12.3910    6.8610   -9.3870 N   0  0  0  0  0  0  0  0  0  0  0  0
  -11.3890    7.7460   -9.7370 C   0  0  0  0  0  0  0  0  0  0  0  0
  -11.5750    8.7640  -10.3930 O   0  0  0  0  0  0  0  0  0  0  0  0
  -10.0300    7.4220   -9.2290 C   0  0  0  0  0  0  0  0  0  0  0  0
   -9.0280    8.3890   -9.3380 C   0  0  0  0  0  0  0  0  0  0  0  0
   -7.7510    8.1230   -8.8460 C   0  0  0  0  0  0  0  0  0  0  0  0
   -7.4720    6.8900   -8.2550 C   0  0  0  0  0  0  0  0  0  0  0  0
   -8.4570    5.8960   -8.1630 C   0  0  0  0  0  0  0  0  0  0  0  0
   -8.1440    4.5700   -7.5030 C   0  0  0  0  0  0  0  0  0  0  0  0
   -7.0890    4.6800   -6.4860 N   0  0  0  0  0  0  0  0  0  0  0  0
   -7.4480    5.2110   -5.1590 C   0  0  2  0  0  0  0  0  0  0  0  0
   -8.8900    5.7640   -5.1310 C   0  0  0  0  0  0  0  0  0  0  0  0
   -8.7980    7.1780   -4.8830 O   0  0  0  0  0  0  0  0  0  0  0  0
   -9.8020    7.9600   -5.3850 C   0  0  0  0  0  0  0  0  0  0  0  0
  -11.0370    7.3170   -5.5050 C   0  0  0  0  0  0  0  0  0  0  0  0
  -12.1430    7.9950   -6.0210 C   0  0  0  0  0  0  0  0  0  0  0  0
  -12.0200    9.3240   -6.4170 C   0  0  0  0  0  0  0  0  0  0  0  0
  -10.7920    9.9730   -6.2930 C   0  0  0  0  0  0  0  0  0  0  0  0
   -9.6840    9.2940   -5.7760 C   0  0  0  0  0  0  0  0  0  0  0  0
   -6.3920    6.1540   -4.5390 C   0  0  2  0  0  0  0  0  0  0  0  0
   -6.0930    7.2710   -5.4130 O   0  0  0  0  0  0  0  0  0  0  0  0
   -5.0420    5.5490   -4.1240 C   0  0  1  0  0  0  0  0  0  0  0  0
   -4.8580    5.9560   -2.7420 O   0  0  0  0  0  0  0  0  0  0  0  0
   -4.9000    4.0090   -4.1580 C   0  0  1  0  0  0  0  0  0  0  0  0
   -5.7410    3.3220   -3.0530 C   0  0  0  0  0  0  0  0  0  0  0  0
   -4.8990    2.9990   -1.9390 O   0  0  0  0  0  0  0  0  0  0  0  0
   -5.2520    1.9100   -1.1920 C   0  0  0  0  0  0  0  0  0  0  0  0
   -6.5500    1.5480   -0.8320 C   0  0  0  0  0  0  0  0  0  0  0  0
   -6.7720    0.4040   -0.0590 C   0  0  0  0  0  0  0  0  0  0  0  0
   -5.6980   -0.3780    0.3600 C   0  0  0  0  0  0  0  0  0  0  0  0
   -4.3980   -0.0160    0.0110 C   0  0  0  0  0  0  0  0  0  0  0  0
   -4.1790    1.1260   -0.7600 C   0  0  0  0  0  0  0  0  0  0  0  0
   -5.1860    3.3500   -5.4700 N   0  0  0  0  0  0  0  0  0  0  0  0
   -4.4950    2.0490   -5.6680 C   0  0  0  0  0  0  0  0  0  0  0  0
   -5.0420    0.8870   -4.8690 C   0  0  0  0  0  0  0  0  0  0  0  0
   -6.4270    0.6850   -4.7680 C   0  0  0  0  0  0  0  0  0  0  0  0
   -6.9390   -0.3900   -4.0400 C   0  0  0  0  0  0  0  0  0  0  0  0
   -6.0730   -1.2750   -3.4000 C   0  0  0  0  0  0  0  0  0  0  0  0
   -4.6970   -1.0840   -3.4880 C   0  0  0  0  0  0  0  0  0  0  0  0
   -4.1840   -0.0090   -4.2160 C   0  0  0  0  0  0  0  0  0  0  0  0
   -5.5400    4.2040   -6.8490 S   0  0  0  0  0  0  0  0  0  0  0  0
   -4.7070    5.3790   -6.9000 O   0  0  0  0  0  0  0  0  0  0  0  0
   -5.5910    3.2730   -7.9500 O   0  0  0  0  0  0  0  0  0  0  0  0
   -9.7400    6.1720   -8.6650 C   0  0  0  0  0  0  0  0  0  0  0  0
  -14.3301    7.2911   -8.7560 H   0  0  0  0  0  0  0  0  0  0  0  0
  -13.8142    8.0967  -10.2764 H   0  0  0  0  0  0  0  0  0  0  0  0
  -14.2032    6.3430  -10.2764 H   0  0  0  0  0  0  0  0  0  0  0  0
  -12.2200    6.2320   -8.6130 H   0  0  0  0  0  0  0  0  0  0  0  0
   -9.2459    9.3580   -9.8109 H   0  0  0  0  0  0  0  0  0  0  0  0
   -6.9624    8.8859   -8.9237 H   0  0  0  0  0  0  0  0  0  0  0  0
   -6.4657    6.6951   -7.8558 H   0  0  0  0  0  0  0  0  0  0  0  0
   -9.0582    4.1911   -7.0227 H   0  0  0  0  0  0  0  0  0  0  0  0
   -7.7829    3.8857   -8.2849 H   0  0  0  0  0  0  0  0  0  0  0  0
   -7.4385    4.3486   -4.4763 H   0  0  0  0  0  0  0  0  0  0  0  0
   -9.3824    5.5821   -6.0977 H   0  0  0  0  0  0  0  0  0  0  0  0
   -9.4836    5.2680   -4.3489 H   0  0  0  0  0  0  0  0  0  0  0  0
  -11.1385    6.2679   -5.1903 H   0  0  0  0  0  0  0  0  0  0  0  0
  -13.1104    7.4798   -6.1145 H   0  0  0  0  0  0  0  0  0  0  0  0
  -12.8887    9.8604   -6.8264 H   0  0  0  0  0  0  0  0  0  0  0  0
  -10.6943   11.0238   -6.6032 H   0  0  0  0  0  0  0  0  0  0  0  0
   -8.7187    9.8122   -5.6776 H   0  0  0  0  0  0  0  0  0  0  0  0
   -6.9007    6.4494   -3.6095 H   0  0  0  0  0  0  0  0  0  0  0  0
   -6.5960    7.1650   -6.2450 H   0  0  0  0  0  0  0  0  0  0  0  0
   -4.3062    5.9074   -4.8590 H   0  0  0  0  0  0  0  0  0  0  0  0
   -5.7690    6.0940   -2.4040 H   0  0  0  0  0  0  0  0  0  0  0  0
   -3.8254    3.8639   -3.9733 H   0  0  0  0  0  0  0  0  0  0  0  0
   -6.5390    4.0036   -2.7233 H   0  0  0  0  0  0  0  0  0  0  0  0
   -6.1868    2.3996   -3.4535 H   0  0  0  0  0  0  0  0  0  0  0  0
   -7.4014    2.1641   -1.1570 H   0  0  0  0  0  0  0  0  0  0  0  0
   -7.7979    0.1207    0.2191 H   0  0  0  0  0  0  0  0  0  0  0  0
   -5.8755   -1.2793    0.9650 H   0  0  0  0  0  0  0  0  0  0  0  0
   -3.5470   -0.6291    0.3426 H   0  0  0  0  0  0  0  0  0  0  0  0
   -3.1518    1.4120   -1.0304 H   0  0  0  0  0  0  0  0  0  0  0  0
   -4.5646    1.7883   -6.7344 H   0  0  0  0  0  0  0  0  0  0  0  0
   -3.4653    2.1994   -5.3116 H   0  0  0  0  0  0  0  0  0  0  0  0
   -7.1164    1.3813   -5.2679 H   0  0  0  0  0  0  0  0  0  0  0  0
   -8.0267   -0.5390   -3.9712 H   0  0  0  0  0  0  0  0  0  0  0  0
   -6.4761   -2.1227   -2.8265 H   0  0  0  0  0  0  0  0  0  0  0  0
   -4.0126   -1.7815   -2.9829 H   0  0  0  0  0  0  0  0  0  0  0  0
   -3.0954    0.1365   -4.2779 H   0  0  0  0  0  0  0  0  0  0  0  0
  -10.5230    5.4010   -8.6150 H   0  0  0  0  0  0  0  0  0  0  0  0
  1  2  1  0
  2  3  1  0
  3  4  2  0
  3  5  1  0
  5  6  2  0
  6  7  1  0
  7  8  2  0
  8  9  1  0
  9 10  1  0
 10 11  1  0
 11 12  1  0
 12 13  1  0
 13 14  1  0
 14 15  1  0
 15 16  2  0
 16 17  1  0
 17 18  2  0
 18 19  1  0
 19 20  2  0
 12 21  1  0
 21 22  1  0
 21 23  1  0
 23 24  1  0
 23 25  1  0
 25 26  1  0
 26 27  1  0
 27 28  1  0
 28 29  2  0
 29 30  1  0
 30 31  2  0
 31 32  1  0
 32 33  2  0
 25 34  1  0
 34 35  1  0
 35 36  1  0
 36 37  2  0
 37 38  1  0
 38 39  2  0
 39 40  1  0
 40 41  2  0
 34 42  1  0
 42 43  2  0
 42 44  2  0
  9 45  2  0
 45  5  1  0
 42 11  1  0
 20 15  1  0
 33 28  1  0
 41 36  1  0
  1 46  1  0
  1 47  1  0
  1 48  1  0
  2 49  1  0
  6 50  1  0
  7 51  1  0
  8 52  1  0
 10 53  1  0
 10 54  1  0
 12 55  1  1
 13 56  1  0
 13 57  1  0
 16 58  1  0
 17 59  1  0
 18 60  1  0
 19 61  1  0
 20 62  1  0
 21 63  1  1
 22 64  1  0
 23 65  1  6
 24 66  1  0
 25 67  1  1
 26 68  1  0
 26 69  1  0
 29 70  1  0
 30 71  1  0
 31 72  1  0
 32 73  1  0
 33 74  1  0
 35 75  1  0
 35 76  1  0
 37 77  1  0
 38 78  1  0
 39 79  1  0
 40 80  1  0
 41 81  1  0
 45 82  1  0
M  END
>  <meeko>  (6) 
{"is_sidechain": [false], "free_energy": -5.994, "intermolecular_energy": -11.788, "internal_energy": -3.131}

$$$$
1g2k_ligand
     RDKit          3D

 82 86  0  0  0  0  0  0  0  0999 V2000
  -12.8590   -8.5960    9.4870 C   0  0  0  0  0  0  0  0  0  0  0  0
  -11.4760   -8.2420    9.6850 N   0  0  0  0  0  0  0  0  0  0  0  0
  -10.4790   -8.9490    9.0410 C   0  0  0  0  0  0  0  0  0  0  0  0
  -10.6800   -9.9490    8.3620 O   0  0  0  0  0  0  0  0  0  0  0  0
   -9.1040   -8.4010    9.1750 C   0  0  0  0  0  0  0  0  0  0  0  0
   -8.0200   -9.2730    9.0460 C   0  0  0  0  0  0  0  0  0  0  0  0
   -6.7200   -8.7820    9.1400 C   0  0  0  0  0  0  0  0  0  0  0  0
   -6.4990   -7.4240    9.3720 C   0  0  0  0  0  0  0  0  0  0  0  0
   -7.5740   -6.5370    9.5340 C   0  0  0  0  0  0  0  0  0  0  0  0
   -7.3190   -5.0640    9.7670 C   0  0  0  0  0  0  0  0  0  0  0  0
   -6.8910   -4.3640    8.5480 N   0  0  0  0  0  0  0  0  0  0  0  0
   -7.9090   -4.0320    7.5360 C   0  0  2  0  0  0  0  0  0  0  0  0
   -9.2630   -3.6640    8.1820 C   0  0  0  0  0  0  0  0  0  0  0  0
  -10.1550   -3.2900    7.1170 O   0  0  0  0  0  0  0  0  0  0  0  0
  -11.4090   -2.8800    7.4760 C   0  0  0  0  0  0  0  0  0  0  0  0
  -12.2710   -2.6320    6.4040 C   0  0  0  0  0  0  0  0  0  0  0  0
  -13.5760   -2.1900    6.6290 C   0  0  0  0  0  0  0  0  0  0  0  0
  -14.0280   -1.9970    7.9310 C   0  0  0  0  0  0  0  0  0  0  0  0
  -13.1760   -2.2500    9.0050 C   0  0  0  0  0  0  0  0  0  0  0  0
  -11.8690   -2.6930    8.7800 C   0  0  0  0  0  0  0  0  0  0  0  0
   -8.0120   -5.0470    6.3740 C   0  0  2  0  0  0  0  0  0  0  0  0
   -9.2250   -5.8330    6.4570 O   0  0  0  0  0  0  0  0  0  0  0  0
   -6.8620   -6.0460    6.1980 C   0  0  1  0  0  0  0  0  0  0  0  0
   -7.1610   -6.7970    4.9910 O   0  0  0  0  0  0  0  0  0  0  0  0
   -5.4360   -5.4710    6.0230 C   0  0  1  0  0  0  0  0  0  0  0  0
   -5.0330   -5.3570    4.5320 C   0  0  0  0  0  0  0  0  0  0  0  0
   -4.2760   -6.5120    4.1490 O   0  0  0  0  0  0  0  0  0  0  0  0
   -4.5860   -7.0840    2.9460 C   0  0  0  0  0  0  0  0  0  0  0  0
   -4.8400   -6.4030    1.7560 C   0  0  0  0  0  0  0  0  0  0  0  0
   -5.1490   -7.1140    0.5920 C   0  0  0  0  0  0  0  0  0  0  0  0
   -5.2090   -8.5060    0.6160 C   0  0  0  0  0  0  0  0  0  0  0  0
   -4.9650   -9.1900    1.8040 C   0  0  0  0  0  0  0  0  0  0  0  0
   -4.6570   -8.4800    2.9640 C   0  0  0  0  0  0  0  0  0  0  0  0
   -5.1650   -4.1660    6.7030 N   0  0  0  0  0  0  0  0  0  0  0  0
   -4.1600   -3.3120    6.0160 C   0  0  0  0  0  0  0  0  0  0  0  0
   -4.7140   -2.1140    5.2770 C   0  0  0  0  0  0  0  0  0  0  0  0
   -6.0840   -1.8180    5.3320 C   0  0  0  0  0  0  0  0  0  0  0  0
   -6.6010   -0.7090    4.6600 C   0  0  0  0  0  0  0  0  0  0  0  0
   -5.7550    0.1160    3.9230 C   0  0  0  0  0  0  0  0  0  0  0  0
   -4.3930   -0.1670    3.8560 C   0  0  0  0  0  0  0  0  0  0  0  0
   -3.8760   -1.2770    4.5280 C   0  0  0  0  0  0  0  0  0  0  0  0
   -5.2920   -3.9630    8.3460 S   0  0  0  0  0  0  0  0  0  0  0  0
   -4.4900   -4.9610    9.0060 O   0  0  0  0  0  0  0  0  0  0  0  0
   -5.1290   -2.5590    8.6350 O   0  0  0  0  0  0  0  0  0  0  0  0
   -8.8820   -7.0420    9.4400 C   0  0  0  0  0  0  0  0  0  0  0  0
  -13.3489   -8.7214   10.4639 H   0  0  0  0  0  0  0  0  0  0  0  0
  -13.3645   -7.7983    8.9230 H   0  0  0  0  0  0  0  0  0  0  0  0
  -12.9191   -9.5385    8.9230 H   0  0  0  0  0  0  0  0  0  0  0  0
  -11.2810   -7.2870    9.9590 H   0  0  0  0  0  0  0  0  0  0  0  0
   -8.1929  -10.3451    8.8706 H   0  0  0  0  0  0  0  0  0  0  0  0
   -5.8657   -9.4663    9.0311 H   0  0  0  0  0  0  0  0  0  0  0  0
   -5.4684   -7.0438    9.4286 H   0  0  0  0  0  0  0  0  0  0  0  0
   -8.2467   -4.5995   10.1325 H   0  0  0  0  0  0  0  0  0  0  0  0
   -6.5053   -4.9794   10.5024 H   0  0  0  0  0  0  0  0  0  0  0  0
   -7.5517   -3.1203    7.0350 H   0  0  0  0  0  0  0  0  0  0  0  0
   -9.6683   -4.5295    8.7266 H   0  0  0  0  0  0  0  0  0  0  0  0
   -9.1421   -2.8379    8.8982 H   0  0  0  0  0  0  0  0  0  0  0  0
  -11.9179   -2.7865    5.3737 H   0  0  0  0  0  0  0  0  0  0  0  0
  -14.2458   -1.9946    5.7786 H   0  0  0  0  0  0  0  0  0  0  0  0
  -15.0546   -1.6458    8.1121 H   0  0  0  0  0  0  0  0  0  0  0  0
  -13.5336   -2.1004   10.0344 H   0  0  0  0  0  0  0  0  0  0  0  0
  -11.2028   -2.8943    9.6318 H   0  0  0  0  0  0  0  0  0  0  0  0
   -7.9853   -4.3733    5.5049 H   0  0  0  0  0  0  0  0  0  0  0  0
   -9.8310   -5.5570    5.7410 H   0  0  0  0  0  0  0  0  0  0  0  0
   -6.8232   -6.6187    7.1364 H   0  0  0  0  0  0  0  0  0  0  0  0
   -7.7960   -7.4870    5.2840 H   0  0  0  0  0  0  0  0  0  0  0  0
   -4.8120   -6.2172    6.5366 H   0  0  0  0  0  0  0  0  0  0  0  0
   -5.9391   -5.2910    3.9119 H   0  0  0  0  0  0  0  0  0  0  0  0
   -4.4210   -4.4545    4.3869 H   0  0  0  0  0  0  0  0  0  0  0  0
   -4.7972   -5.3041    1.7327 H   0  0  0  0  0  0  0  0  0  0  0  0
   -5.3453   -6.5728   -0.3453 H   0  0  0  0  0  0  0  0  0  0  0  0
   -5.4486   -9.0633   -0.3016 H   0  0  0  0  0  0  0  0  0  0  0  0
   -5.0151  -10.2886    1.8275 H   0  0  0  0  0  0  0  0  0  0  0  0
   -4.4682   -9.0233    3.9016 H   0  0  0  0  0  0  0  0  0  0  0  0
   -3.4535   -2.9443    6.7747 H   0  0  0  0  0  0  0  0  0  0  0  0
   -3.6975   -3.9505    5.2489 H   0  0  0  0  0  0  0  0  0  0  0  0
   -6.7581   -2.4666    5.9108 H   0  0  0  0  0  0  0  0  0  0  0  0
   -7.6770   -0.4867    4.7126 H   0  0  0  0  0  0  0  0  0  0  0  0
   -6.1622    0.9904    3.3942 H   0  0  0  0  0  0  0  0  0  0  0  0
   -3.7242    0.4838    3.2737 H   0  0  0  0  0  0  0  0  0  0  0  0
   -2.7997   -1.4965    4.4687 H   0  0  0  0  0  0  0  0  0  0  0  0
   -9.7388   -6.3656    9.5754 H   0  0  0  0  0  0  0  0  0  0  0  0
  1  2  1  0
  2  3  1  0
  3  4  2  0
  3  5  1  0
  5  6  2  0
  6  7  1  0
  7  8  2  0
  8  9  1  0
  9 10  1  0
 10 11  1  0
 11 12  1  0
 12 13  1  0
 13 14  1  0
 14 15  1  0
 15 16  2  0
 16 17  1  0
 17 18  2  0
 18 19  1  0
 19 20  2  0
 12 21  1  0
 21 22  1  0
 21 23  1  0
 23 24  1  0
 23 25  1  0
 25 26  1  0
 26 27  1  0
 27 28  1  0
 28 29  2  0
 29 30  1  0
 30 31  2  0
 31 32  1  0
 32 33  2  0
 25 34  1  0
 34 35  1  0
 35 36  1  0
 36 37  2  0
 37 38  1  0
 38 39  2  0
 39 40  1  0
 40 41  2  0
 34 42  1  0
 42 43  2  0
 42 44  2  0
  9 45  2  0
 45  5  1  0
 42 11  1  0
 20 15  1  0
 33 28  1  0
 41 36  1  0
  1 46  1  0
  1 47  1  0
  1 48  1  0
  2 49  1  0
  6 50  1  0
  7 51  1  0
  8 52  1  0
 10 53  1  0
 10 54  1  0
 12 55  1  6
 13 56  1  0
 13 57  1  0
 16 58  1  0
 17 59  1  0
 18 60  1  0
 19 61  1  0
 20 62  1  0
 21 63  1  6
 22 64  1  0
 23 65  1  1
 24 66  1  0
 25 67  1  1
 26 68  1  0
 26 69  1  0
 29 70  1  0
 30 71  1  0
 31 72  1  0
 32 73  1  0
 33 74  1  0
 35 75  1  0
 35 76  1  0
 37 77  1  0
 38 78  1  0
 39 79  1  0
 40 80  1  0
 41 81  1  0
 45 82  1  0
M  END
>  <meeko>  (7) 
{"is_sidechain": [false], "free_energy": -5.942, "intermolecular_energy": -13.024, "internal_energy": -1.788}

$$$$
1g2k_ligand
     RDKit          3D

 82 86  0  0  0  0  0  0  0  0999 V2000
  -14.8150    1.5290   -8.9670 C   0  0  0  0  0  0  0  0  0  0  0  0
  -13.4860    1.6330   -8.4180 N   0  0  0  0  0  0  0  0  0  0  0  0
  -12.8310    2.8490   -8.4090 C   0  0  0  0  0  0  0  0  0  0  0  0
  -13.2700    3.8650   -8.9340 O   0  0  0  0  0  0  0  0  0  0  0  0
  -11.5410    2.8860   -7.6700 C   0  0  0  0  0  0  0  0  0  0  0  0
  -11.3360    1.9680   -6.6370 C   0  0  0  0  0  0  0  0  0  0  0  0
  -10.1260    1.9610   -5.9460 C   0  0  0  0  0  0  0  0  0  0  0  0
   -9.1260    2.8770   -6.2770 C   0  0  0  0  0  0  0  0  0  0  0  0
   -9.3250    3.8260   -7.2910 C   0  0  0  0  0  0  0  0  0  0  0  0
   -8.2230    4.8000   -7.6500 C   0  0  0  0  0  0  0  0  0  0  0  0
   -7.1720    4.8670   -6.6260 N   0  0  0  0  0  0  0  0  0  0  0  0
   -7.5350    5.3380   -5.2780 C   0  0  2  0  0  0  0  0  0  0  0  0
   -8.9870    5.8620   -5.2230 C   0  0  0  0  0  0  0  0  0  0  0  0
   -8.9300    7.2900   -5.3880 O   0  0  0  0  0  0  0  0  0  0  0  0
   -9.9370    7.8690   -6.1100 C   0  0  0  0  0  0  0  0  0  0  0  0
  -11.1030    8.1250   -5.3840 C   0  0  0  0  0  0  0  0  0  0  0  0
  -12.2150    8.6970   -6.0030 C   0  0  0  0  0  0  0  0  0  0  0  0
  -12.1650    9.0200   -7.3570 C   0  0  0  0  0  0  0  0  0  0  0  0
  -11.0020    8.7740   -8.0860 C   0  0  0  0  0  0  0  0  0  0  0  0
   -9.8880    8.2010   -7.4640 C   0  0  0  0  0  0  0  0  0  0  0  0
   -6.4940    6.2770   -4.6260 C   0  0  2  0  0  0  0  0  0  0  0  0
   -6.2100    7.4250   -5.4630 O   0  0  0  0  0  0  0  0  0  0  0  0
   -5.1290    5.6870   -4.2450 C   0  0  1  0  0  0  0  0  0  0  0  0
   -4.9100    6.0600   -2.8580 O   0  0  0  0  0  0  0  0  0  0  0  0
   -4.9500    4.1520   -4.3270 C   0  0  1  0  0  0  0  0  0  0  0  0
   -5.7440    3.4140   -3.2220 C   0  0  0  0  0  0  0  0  0  0  0  0
   -4.8940    3.1870   -2.0900 O   0  0  0  0  0  0  0  0  0  0  0  0
   -5.1100    2.0430   -1.3730 C   0  0  0  0  0  0  0  0  0  0  0  0
   -4.1250    1.1970   -0.8610 C   0  0  0  0  0  0  0  0  0  0  0  0
   -4.4870    0.0520   -0.1440 C   0  0  0  0  0  0  0  0  0  0  0  0
   -5.8310   -0.2530    0.0600 C   0  0  0  0  0  0  0  0  0  0  0  0
   -6.8180    0.5840   -0.4570 C   0  0  0  0  0  0  0  0  0  0  0  0
   -6.4560    1.7250   -1.1720 C   0  0  0  0  0  0  0  0  0  0  0  0
   -5.2570    3.5240   -5.6500 N   0  0  0  0  0  0  0  0  0  0  0  0
   -4.5770    2.2230   -5.8850 C   0  0  0  0  0  0  0  0  0  0  0  0
   -5.1230    1.0480   -5.1040 C   0  0  0  0  0  0  0  0  0  0  0  0
   -6.5020    0.7920   -5.0780 C   0  0  0  0  0  0  0  0  0  0  0  0
   -7.0120   -0.2950   -4.3670 C   0  0  0  0  0  0  0  0  0  0  0  0
   -6.1500   -1.1390   -3.6700 C   0  0  0  0  0  0  0  0  0  0  0  0
   -4.7790   -0.8960   -3.6840 C   0  0  0  0  0  0  0  0  0  0  0  0
   -4.2680    0.1920   -4.3950 C   0  0  0  0  0  0  0  0  0  0  0  0
   -5.6210    4.4100   -7.0060 S   0  0  0  0  0  0  0  0  0  0  0  0
   -4.7960    5.5910   -7.0300 O   0  0  0  0  0  0  0  0  0  0  0  0
   -5.6690    3.5070   -8.1300 O   0  0  0  0  0  0  0  0  0  0  0  0
  -10.5490    3.8260   -7.9810 C   0  0  0  0  0  0  0  0  0  0  0  0
  -15.5467    1.4717   -8.1477 H   0  0  0  0  0  0  0  0  0  0  0  0
  -15.0262    2.4134   -9.5861 H   0  0  0  0  0  0  0  0  0  0  0  0
  -14.8861    0.6225   -9.5861 H   0  0  0  0  0  0  0  0  0  0  0  0
  -13.2210    0.9440   -7.7260 H   0  0  0  0  0  0  0  0  0  0  0  0
  -12.1277    1.2526   -6.3698 H   0  0  0  0  0  0  0  0  0  0  0  0
   -9.9586    1.2328   -5.1387 H   0  0  0  0  0  0  0  0  0  0  0  0
   -8.1688    2.8545   -5.7354 H   0  0  0  0  0  0  0  0  0  0  0  0
   -7.7689    4.4834   -8.6006 H   0  0  0  0  0  0  0  0  0  0  0  0
   -8.6750    5.7997   -7.7291 H   0  0  0  0  0  0  0  0  0  0  0  0
   -7.5062    4.4499   -4.6296 H   0  0  0  0  0  0  0  0  0  0  0  0
   -9.5809    5.4124   -6.0324 H   0  0  0  0  0  0  0  0  0  0  0  0
   -9.4617    5.5979   -4.2665 H   0  0  0  0  0  0  0  0  0  0  0  0
  -11.1447    7.8732   -4.3140 H   0  0  0  0  0  0  0  0  0  0  0  0
  -13.1290    8.8924   -5.4230 H   0  0  0  0  0  0  0  0  0  0  0  0
  -13.0405    9.4679   -7.8499 H   0  0  0  0  0  0  0  0  0  0  0  0
  -10.9606    9.0316   -9.1546 H   0  0  0  0  0  0  0  0  0  0  0  0
   -8.9721    8.0119   -8.0432 H   0  0  0  0  0  0  0  0  0  0  0  0
   -7.0091    6.5262   -3.6866 H   0  0  0  0  0  0  0  0  0  0  0  0
   -6.2040    8.2290   -4.9070 H   0  0  0  0  0  0  0  0  0  0  0  0
   -4.4216    6.0854   -4.9872 H   0  0  0  0  0  0  0  0  0  0  0  0
   -5.7910    5.9570   -2.4360 H   0  0  0  0  0  0  0  0  0  0  0  0
   -3.8677    4.0281   -4.1747 H   0  0  0  0  0  0  0  0  0  0  0  0
   -6.6041    4.0281   -2.9168 H   0  0  0  0  0  0  0  0  0  0  0  0
   -6.1006    2.4488   -3.6108 H   0  0  0  0  0  0  0  0  0  0  0  0
   -3.0623    1.4312   -1.0217 H   0  0  0  0  0  0  0  0  0  0  0  0
   -3.7074   -0.6103    0.2605 H   0  0  0  0  0  0  0  0  0  0  0  0
   -6.1124   -1.1522    0.6277 H   0  0  0  0  0  0  0  0  0  0  0  0
   -7.8804    0.3450   -0.3014 H   0  0  0  0  0  0  0  0  0  0  0  0
   -7.2377    2.3814   -1.5820 H   0  0  0  0  0  0  0  0  0  0  0  0
   -4.6614    1.9859   -6.9558 H   0  0  0  0  0  0  0  0  0  0  0  0
   -3.5417    2.3585   -5.5390 H   0  0  0  0  0  0  0  0  0  0  0  0
   -7.1888    1.4554   -5.6241 H   0  0  0  0  0  0  0  0  0  0  0  0
   -8.0953   -0.4857   -4.3568 H   0  0  0  0  0  0  0  0  0  0  0  0
   -6.5519   -1.9960   -3.1095 H   0  0  0  0  0  0  0  0  0  0  0  0
   -4.0975   -1.5619   -3.1343 H   0  0  0  0  0  0  0  0  0  0  0  0
   -3.1841    0.3794   -4.3989 H   0  0  0  0  0  0  0  0  0  0  0  0
  -10.7301    4.5694   -8.7713 H   0  0  0  0  0  0  0  0  0  0  0  0
  1  2  1  0
  2  3  1  0
  3  4  2  0
  3  5  1  0
  5  6  2  0
  6  7  1  0
  7  8  2  0
  8  9  1  0
  9 10  1  0
 10 11  1  0
 11 12  1  0
 12 13  1  0
 13 14  1  0
 14 15  1  0
 15 16  2  0
 16 17  1  0
 17 18  2  0
 18 19  1  0
 19 20  2  0
 12 21  1  0
 21 22  1  0
 21 23  1  0
 23 24  1  0
 23 25  1  0
 25 26  1  0
 26 27  1  0
 27 28  1  0
 28 29  2  0
 29 30  1  0
 30 31  2  0
 31 32  1  0
 32 33  2  0
 25 34  1  0
 34 35  1  0
 35 36  1  0
 36 37  2  0
 37 38  1  0
 38 39  2  0
 39 40  1  0
 40 41  2  0
 34 42  1  0
 42 43  2  0
 42 44  2  0
  9 45  2  0
 45  5  1  0
 42 11  1  0
 20 15  1  0
 33 28  1  0
 41 36  1  0
  1 46  1  0
  1 47  1  0
  1 48  1  0
  2 49  1  0
  6 50  1  0
  7 51  1  0
  8 52  1  0
 10 53  1  0
 10 54  1  0
 12 55  1  1
 13 56  1  0
 13 57  1  0
 16 58  1  0
 17 59  1  0
 18 60  1  0
 19 61  1  0
 20 62  1  0
 21 63  1  1
 22 64  1  0
 23 65  1  6
 24 66  1  0
 25 67  1  1
 26 68  1  0
 26 69  1  0
 29 70  1  0
 30 71  1  0
 31 72  1  0
 32 73  1  0
 33 74  1  0
 35 75  1  0
 35 76  1  0
 37 77  1  0
 38 78  1  0
 39 79  1  0
 40 80  1  0
 41 81  1  0
 45 82  1  0
M  END
>  <meeko>  (8) 
{"is_sidechain": [false], "free_energy": -5.891, "intermolecular_energy": -13.15, "internal_energy": -1.558}

$$$$
1g2k_ligand
     RDKit          3D

 82 86  0  0  0  0  0  0  0  0999 V2000
   -5.6270   -0.0270   -1.4360 C   0  0  0  0  0  0  0  0  0  0  0  0
   -6.0860    0.5370   -2.6810 N   0  0  0  0  0  0  0  0  0  0  0  0
   -5.7290    1.8240   -3.0340 C   0  0  0  0  0  0  0  0  0  0  0  0
   -5.1040    2.5850   -2.3040 O   0  0  0  0  0  0  0  0  0  0  0  0
   -6.1100    2.2500   -4.4060 C   0  0  0  0  0  0  0  0  0  0  0  0
   -6.7760    1.3380   -5.2290 C   0  0  0  0  0  0  0  0  0  0  0  0
   -7.1700    1.7190   -6.5100 C   0  0  0  0  0  0  0  0  0  0  0  0
   -6.8890    3.0050   -6.9760 C   0  0  0  0  0  0  0  0  0  0  0  0
   -6.1940    3.9240   -6.1760 C   0  0  0  0  0  0  0  0  0  0  0  0
   -5.9130    5.3210   -6.6880 C   0  0  0  0  0  0  0  0  0  0  0  0
   -7.0970    6.1890   -6.6400 N   0  0  0  0  0  0  0  0  0  0  0  0
   -7.2460    7.1110   -5.5000 C   0  0  2  0  0  0  0  0  0  0  0  0
   -5.9960    7.1090   -4.5920 C   0  0  0  0  0  0  0  0  0  0  0  0
   -6.2870    7.9550   -3.4660 O   0  0  0  0  0  0  0  0  0  0  0  0
   -6.0910    7.4190   -2.2230 C   0  0  0  0  0  0  0  0  0  0  0  0
   -6.0840    8.3500   -1.1810 C   0  0  0  0  0  0  0  0  0  0  0  0
   -5.8760    7.9400    0.1370 C   0  0  0  0  0  0  0  0  0  0  0  0
   -5.6770    6.5920    0.4200 C   0  0  0  0  0  0  0  0  0  0  0  0
   -5.6910    5.6570   -0.6140 C   0  0  0  0  0  0  0  0  0  0  0  0
   -5.8990    6.0680   -1.9340 C   0  0  0  0  0  0  0  0  0  0  0  0
   -8.5860    6.9800   -4.7410 C   0  0  2  0  0  0  0  0  0  0  0  0
   -9.0610    5.6120   -4.7280 O   0  0  0  0  0  0  0  0  0  0  0  0
   -9.7830    7.8430   -5.2220 C   0  0  1  0  0  0  0  0  0  0  0  0
   -9.4550    9.2200   -4.8940 O   0  0  0  0  0  0  0  0  0  0  0  0
  -10.1080    7.8110   -6.7340 C   0  0  1  0  0  0  0  0  0  0  0  0
  -10.8870    9.0690   -7.1900 C   0  0  0  0  0  0  0  0  0  0  0  0
  -11.9690    9.3180   -6.2840 O   0  0  0  0  0  0  0  0  0  0  0  0
  -13.1950    8.8220   -6.6330 C   0  0  0  0  0  0  0  0  0  0  0  0
  -13.4700    8.0240   -7.7440 C   0  0  0  0  0  0  0  0  0  0  0  0
  -14.7760    7.5850   -7.9860 C   0  0  0  0  0  0  0  0  0  0  0  0
  -15.8080    7.9450   -7.1240 C   0  0  0  0  0  0  0  0  0  0  0  0
  -15.5400    8.7500   -6.0180 C   0  0  0  0  0  0  0  0  0  0  0  0
  -14.2380    9.1870   -5.7780 C   0  0  0  0  0  0  0  0  0  0  0  0
   -8.9460    7.5970   -7.6530 N   0  0  0  0  0  0  0  0  0  0  0  0
   -8.9140    8.5080   -8.8270 C   0  0  0  0  0  0  0  0  0  0  0  0
   -7.6740    9.3650   -8.9580 C   0  0  0  0  0  0  0  0  0  0  0  0
   -7.1330   10.0070   -7.8330 C   0  0  0  0  0  0  0  0  0  0  0  0
   -5.9830   10.7900   -7.9460 C   0  0  0  0  0  0  0  0  0  0  0  0
   -5.3630   10.9460   -9.1830 C   0  0  0  0  0  0  0  0  0  0  0  0
   -5.8910   10.3180  -10.3080 C   0  0  0  0  0  0  0  0  0  0  0  0
   -7.0410    9.5340  -10.1970 C   0  0  0  0  0  0  0  0  0  0  0  0
   -8.2220    6.1170   -7.8600 S   0  0  0  0  0  0  0  0  0  0  0  0
   -9.1710    5.0810   -7.5390 O   0  0  0  0  0  0  0  0  0  0  0  0
   -7.5300    6.1330   -9.1260 O   0  0  0  0  0  0  0  0  0  0  0  0
   -5.8000    3.5310   -4.8860 C   0  0  0  0  0  0  0  0  0  0  0  0
   -6.0755    0.5242   -0.5963 H   0  0  0  0  0  0  0  0  0  0  0  0
   -5.9242   -1.0846   -1.3809 H   0  0  0  0  0  0  0  0  0  0  0  0
   -4.5310    0.0492   -1.3809 H   0  0  0  0  0  0  0  0  0  0  0  0
   -6.3200   -0.1120   -3.4210 H   0  0  0  0  0  0  0  0  0  0  0  0
   -6.9887    0.3215   -4.8663 H   0  0  0  0  0  0  0  0  0  0  0  0
   -7.7033    1.0055   -7.1554 H   0  0  0  0  0  0  0  0  0  0  0  0
   -7.2169    3.3012   -7.9834 H   0  0  0  0  0  0  0  0  0  0  0  0
   -5.1216    5.7702   -6.0700 H   0  0  0  0  0  0  0  0  0  0  0  0
   -5.6058    5.2345   -7.7407 H   0  0  0  0  0  0  0  0  0  0  0  0
   -7.3073    8.1204   -5.9329 H   0  0  0  0  0  0  0  0  0  0  0  0
   -5.7808    6.0862   -4.2492 H   0  0  0  0  0  0  0  0  0  0  0  0
   -5.1153    7.4764   -5.1392 H   0  0  0  0  0  0  0  0  0  0  0  0
   -6.2439    9.4158   -1.4014 H   0  0  0  0  0  0  0  0  0  0  0  0
   -5.8694    8.6808    0.9502 H   0  0  0  0  0  0  0  0  0  0  0  0
   -5.5091    6.2651    1.4568 H   0  0  0  0  0  0  0  0  0  0  0  0
   -5.5377    4.5910   -0.3902 H   0  0  0  0  0  0  0  0  0  0  0  0
   -5.9113    5.3253   -2.7453 H   0  0  0  0  0  0  0  0  0  0  0  0
   -8.2955    7.3600   -3.7504 H   0  0  0  0  0  0  0  0  0  0  0  0
   -9.1470    5.3150   -3.8000 H   0  0  0  0  0  0  0  0  0  0  0  0
  -10.6701    7.4248   -4.7239 H   0  0  0  0  0  0  0  0  0  0  0  0
   -8.8510    9.1500   -4.1240 H   0  0  0  0  0  0  0  0  0  0  0  0
  -10.7368    6.9129   -6.8238 H   0  0  0  0  0  0  0  0  0  0  0  0
  -10.2099    9.9359   -7.1989 H   0  0  0  0  0  0  0  0  0  0  0  0
  -11.2873    8.9046   -8.2013 H   0  0  0  0  0  0  0  0  0  0  0  0
  -12.6588    7.7397   -8.4305 H   0  0  0  0  0  0  0  0  0  0  0  0
  -14.9883    6.9529   -8.8609 H   0  0  0  0  0  0  0  0  0  0  0  0
  -16.8331    7.5949   -7.3152 H   0  0  0  0  0  0  0  0  0  0  0  0
  -16.3535    9.0396   -5.3365 H   0  0  0  0  0  0  0  0  0  0  0  0
  -14.0298    9.8255   -4.9068 H   0  0  0  0  0  0  0  0  0  0  0  0
   -8.9971    7.8925   -9.7349 H   0  0  0  0  0  0  0  0  0  0  0  0
   -9.7498    9.2091   -8.6858 H   0  0  0  0  0  0  0  0  0  0  0  0
   -7.6198    9.8920   -6.8533 H   0  0  0  0  0  0  0  0  0  0  0  0
   -5.5658   11.2846   -7.0564 H   0  0  0  0  0  0  0  0  0  0  0  0
   -4.4576   11.5644   -9.2713 H   0  0  0  0  0  0  0  0  0  0  0  0
   -5.4015   10.4397  -11.2855 H   0  0  0  0  0  0  0  0  0  0  0  0
   -7.4543    9.0441  -11.0909 H   0  0  0  0  0  0  0  0  0  0  0  0
   -5.2441    4.2333   -4.2475 H   0  0  0  0  0  0  0  0  0  0  0  0
  1  2  1  0
  2  3  1  0
  3  4  2  0
  3  5  1  0
  5  6  2  0
  6  7  1  0
  7  8  2  0
  8  9  1  0
  9 10  1  0
 10 11  1  0
 11 12  1  0
 12 13  1  0
 13 14  1  0
 14 15  1  0
 15 16  2  0
 16 17  1  0
 17 18  2  0
 18 19  1  0
 19 20  2  0
 12 21  1  0
 21 22  1  0
 21 23  1  0
 23 24  1  0
 23 25  1  0
 25 26  1  0
 26 27  1  0
 27 28  1  0
 28 29  2  0
 29 30  1  0
 30 31  2  0
 31 32  1  0
 32 33  2  0
 25 34  1  0
 34 35  1  0
 35 36  1  0
 36 37  2  0
 37 38  1  0
 38 39  2  0
 39 40  1  0
 40 41  2  0
 34 42  1  0
 42 43  2  0
 42 44  2  0
  9 45  2  0
 45  5  1  0
 42 11  1  0
 20 15  1  0
 33 28  1  0
 41 36  1  0
  1 46  1  0
  1 47  1  0
  1 48  1  0
  2 49  1  0
  6 50  1  0
  7 51  1  0
  8 52  1  0
 10 53  1  0
 10 54  1  0
 12 55  1  6
 13 56  1  0
 13 57  1  0
 16 58  1  0
 17 59  1  0
 18 60  1  0
 19 61  1  0
 20 62  1  0
 21 63  1  1
 22 64  1  0
 23 65  1  1
 24 66  1  0
 25 67  1  1
 26 68  1  0
 26 69  1  0
 29 70  1  0
 30 71  1  0
 31 72  1  0
 32 73  1  0
 33 74  1  0
 35 75  1  0
 35 76  1  0
 37 77  1  0
 38 78  1  0
 39 79  1  0
 40 80  1  0
 41 81  1  0
 45 82  1  0
M  END
>  <meeko>  (9) 
{"is_sidechain": [false], "free_energy": -5.841, "intermolecular_energy": -12.023, "internal_energy": -2.581}

$$$$
