
     RDKit          3D

 20 21  0  0  0  0  0  0  0  0999 V2000
   20.1610   22.2340   -4.5970 O   0  0  0  0  0  0  0  0  0  0  0  0
   19.7360   23.2500   -5.1460 C   0  0  0  0  0  0  0  0  0  0  0  0
   18.4310   23.6580   -4.9370 N   0  0  0  0  0  0  0  0  0  0  0  0
   17.9160   24.7670   -5.5310 C   0  0  0  0  0  0  0  0  0  0  0  0
   16.7480   25.1050   -5.3520 O   0  0  0  0  0  0  0  0  0  0  0  0
   18.7410   25.5250   -6.3590 N   0  0  0  0  0  0  0  0  0  0  0  0
   18.1540   26.7130   -7.0450 C   0  0  2  0  0  0  0  0  0  0  0  0
   17.9640   26.3330   -8.4170 O   0  0  0  0  0  0  0  0  0  0  0  0
   17.2310   27.3270   -9.1410 C   0  0  2  0  0  0  0  0  0  0  0  0
   17.0040   26.7980  -10.5500 C   0  0  0  0  0  0  0  0  0  0  0  0
   18.1720   26.8660  -11.2860 O   0  0  0  0  0  0  0  0  0  0  0  0
   17.9950   28.6520   -9.1710 C   0  0  1  0  0  0  0  0  0  0  0  0
   17.1920   29.6150   -9.7700 O   0  0  0  0  0  0  0  0  0  0  0  0
   18.3320   29.0880   -7.7500 C   0  0  2  0  0  0  0  0  0  0  0  0
   19.1660   30.2290   -7.7920 O   0  0  0  0  0  0  0  0  0  0  0  0
   19.0320   27.9660   -6.9640 C   0  0  1  0  0  0  0  0  0  0  0  0
   19.1840   28.3380   -5.6050 O   0  0  0  0  0  0  0  0  0  0  0  0
   20.0520   25.1590   -6.6040 C   0  0  0  0  0  0  0  0  0  0  0  0
   20.5520   24.0190   -6.0060 C   0  0  0  0  0  0  0  0  0  0  0  0
   21.8190   23.6540   -6.2380 F   0  0  0  0  0  0  0  0  0  0  0  0
  2  1  2  0
  3  2  1  0
  4  3  1  0
  5  4  2  0
  6  4  1  0
  7  6  1  1
  8  7  1  0
  9  8  1  0
  9 10  1  6
 11 10  1  0
 12  9  1  0
 12 13  1  1
 14 12  1  0
 14 15  1  6
 16  7  1  0
 16 14  1  0
 16 17  1  1
 18  6  1  0
 19 18  2  0
 19  2  1  0
 20 19  1  0
M  END
$$$$
