2yki_ligand
     RDKit          3D

 52 58  0  0  0  0  0  0  0  0999 V2000
   -4.5300    5.3670   -0.5510 O   0  0  0  0  0  0  0  0  0  0  0  0
   -3.9420    4.3510   -0.9000 C   0  0  0  0  0  0  0  0  0  0  0  0
   -4.1530    3.7290   -2.1070 N   0  0  0  0  0  0  0  0  0  0  0  0
   -5.0370    4.2910   -3.1000 C   0  0  2  0  0  0  0  0  0  0  0  0
   -5.5060    3.2230   -4.0710 C   0  0  0  0  0  0  0  0  0  0  0  0
   -6.2780    2.1060   -3.7820 C   0  0  0  0  0  0  0  0  0  0  0  0
   -6.6630    1.2820   -4.8370 C   0  0  0  0  0  0  0  0  0  0  0  0
   -6.2930    1.5950   -6.1540 C   0  0  0  0  0  0  0  0  0  0  0  0
   -5.5170    2.7260   -6.4350 C   0  0  0  0  0  0  0  0  0  0  0  0
   -5.0920    3.5300   -5.3880 C   0  0  0  0  0  0  0  0  0  0  0  0
   -4.2970    4.7550   -5.3620 C   0  0  0  0  0  0  0  0  0  0  0  0
   -3.6110    5.4640   -6.3490 C   0  0  0  0  0  0  0  0  0  0  0  0
   -3.4200    4.9910   -7.7140 C   0  0  0  0  0  0  0  0  0  0  0  0
   -4.2750    5.1000   -8.7130 N   0  0  0  0  0  0  0  0  0  0  0  0
   -3.6450    4.5650   -9.8110 C   0  0  0  0  0  0  0  0  0  0  0  0
   -4.1040    4.4070  -11.1180 C   0  0  0  0  0  0  0  0  0  0  0  0
   -3.2080    3.8230  -12.0000 C   0  0  0  0  0  0  0  0  0  0  0  0
   -1.9560    3.4140  -11.6810 N   0  0  0  0  0  0  0  0  0  0  0  0
   -1.5130    3.5710  -10.4120 C   0  0  0  0  0  0  0  0  0  0  0  0
   -2.3630    4.1460   -9.4840 C   0  0  0  0  0  0  0  0  0  0  0  0
   -2.2350    4.4450   -8.1560 N   0  0  0  0  0  0  0  0  0  0  0  0
   -3.0150    6.6900   -5.9900 C   0  0  0  0  0  0  0  0  0  0  0  0
   -3.0560    7.1730   -4.6730 C   0  0  0  0  0  0  0  0  0  0  0  0
   -3.6860    6.4380   -3.6750 C   0  0  0  0  0  0  0  0  0  0  0  0
   -4.2920    5.2400   -4.0270 C   0  0  0  0  0  0  0  0  0  0  0  0
   -2.9480    3.7090   -0.0110 C   0  0  0  0  0  0  0  0  0  0  0  0
   -3.2520    2.5500    0.7130 C   0  0  0  0  0  0  0  0  0  0  0  0
   -2.2740    1.9960    1.5250 C   0  0  0  0  0  0  0  0  0  0  0  0
   -1.0240    2.4780    1.6930 N   0  0  0  0  0  0  0  0  0  0  0  0
   -0.7770    3.5790    0.9620 C   0  0  0  0  0  0  0  0  0  0  0  0
    0.4200    4.2420    0.9490 N   0  0  0  0  0  0  0  0  0  0  0  0
    0.3460    5.3200    0.1050 C   0  0  0  0  0  0  0  0  0  0  0  0
   -0.9250    5.3440   -0.4330 C   0  0  0  0  0  0  0  0  0  0  0  0
   -1.6490    4.2410    0.1040 C   0  0  0  0  0  0  0  0  0  0  0  0
   -3.6720    2.8750   -2.3440 H   0  0  0  0  0  0  0  0  0  0  0  0
   -5.8456    4.7695   -2.5280 H   0  0  0  0  0  0  0  0  0  0  0  0
   -6.5774    1.8779   -2.7484 H   0  0  0  0  0  0  0  0  0  0  0  0
   -7.2606    0.3805   -4.6366 H   0  0  0  0  0  0  0  0  0  0  0  0
   -6.6174    0.9421   -6.9777 H   0  0  0  0  0  0  0  0  0  0  0  0
   -5.2480    2.9736   -7.4725 H   0  0  0  0  0  0  0  0  0  0  0  0
   -5.1103    4.7246  -11.4287 H   0  0  0  0  0  0  0  0  0  0  0  0
   -3.5389    3.6805  -13.0393 H   0  0  0  0  0  0  0  0  0  0  0  0
   -0.5011    3.2491  -10.1251 H   0  0  0  0  0  0  0  0  0  0  0  0
   -1.4220    4.2870   -7.5790 H   0  0  0  0  0  0  0  0  0  0  0  0
   -2.5044    7.2837   -6.7625 H   0  0  0  0  0  0  0  0  0  0  0  0
   -2.5874    8.1378   -4.4291 H   0  0  0  0  0  0  0  0  0  0  0  0
   -3.7037    6.7961   -2.6351 H   0  0  0  0  0  0  0  0  0  0  0  0
   -4.2474    2.0878    0.6392 H   0  0  0  0  0  0  0  0  0  0  0  0
   -2.5396    1.0846    2.0806 H   0  0  0  0  0  0  0  0  0  0  0  0
    1.2240    3.9550    1.4890 H   0  0  0  0  0  0  0  0  0  0  0  0
    1.1537    6.0365   -0.1054 H   0  0  0  0  0  0  0  0  0  0  0  0
   -1.3106    6.0840   -1.1497 H   0  0  0  0  0  0  0  0  0  0  0  0
  1  2  2  0
  2  3  1  0
  3  4  1  0
  4  5  1  0
  5  6  2  0
  6  7  1  0
  7  8  2  0
  8  9  1  0
  9 10  2  0
 10 11  1  0
 11 12  2  0
 12 13  1  0
 13 14  2  0
 14 15  1  0
 15 16  2  0
 16 17  1  0
 17 18  2  0
 18 19  1  0
 19 20  2  0
 20 21  1  0
 12 22  1  0
 22 23  2  0
 23 24  1  0
 24 25  2  0
  2 26  1  0
 26 27  2  0
 27 28  1  0
 28 29  2  0
 29 30  1  0
 30 31  1  0
 31 32  1  0
 32 33  2  0
 33 34  1  0
 25  4  1  0
 34 26  1  0
 10  5  1  0
 25 11  1  0
 34 30  2  0
 21 13  1  0
 20 15  1  0
  3 35  1  0
  4 36  1  1
  6 37  1  0
  7 38  1  0
  8 39  1  0
  9 40  1  0
 16 41  1  0
 17 42  1  0
 19 43  1  0
 21 44  1  0
 22 45  1  0
 23 46  1  0
 24 47  1  0
 27 48  1  0
 28 49  1  0
 31 50  1  0
 32 51  1  0
 33 52  1  0
M  END
>  <meeko>  (1) 
{"is_sidechain": [false], "free_energy": -9.799, "intermolecular_energy": -11.517, "internal_energy": -1.133}

$$$$
2yki_ligand
     RDKit          3D

 52 58  0  0  0  0  0  0  0  0999 V2000
   -3.8330    2.7840    0.5740 O   0  0  0  0  0  0  0  0  0  0  0  0
   -3.1450    3.1590   -0.3660 C   0  0  0  0  0  0  0  0  0  0  0  0
   -3.6520    3.8130   -1.4640 N   0  0  0  0  0  0  0  0  0  0  0  0
   -5.0440    4.1860   -1.5430 C   0  0  2  0  0  0  0  0  0  0  0  0
   -5.6660    3.6790   -2.8310 C   0  0  0  0  0  0  0  0  0  0  0  0
   -5.8310    2.3560   -3.2200 C   0  0  0  0  0  0  0  0  0  0  0  0
   -6.4950    2.1020   -4.4170 C   0  0  0  0  0  0  0  0  0  0  0  0
   -7.0000    3.1590   -5.1880 C   0  0  0  0  0  0  0  0  0  0  0  0
   -6.8310    4.4890   -4.7860 C   0  0  0  0  0  0  0  0  0  0  0  0
   -6.1330    4.7580   -3.6170 C   0  0  0  0  0  0  0  0  0  0  0  0
   -5.8060    6.0110   -2.9440 C   0  0  0  0  0  0  0  0  0  0  0  0
   -5.9820    7.3510   -3.2930 C   0  0  0  0  0  0  0  0  0  0  0  0
   -6.4500    7.8040   -4.5970 C   0  0  0  0  0  0  0  0  0  0  0  0
   -5.7130    8.0070   -5.6720 N   0  0  0  0  0  0  0  0  0  0  0  0
   -6.5890    8.3720   -6.6670 C   0  0  0  0  0  0  0  0  0  0  0  0
   -6.3400    8.7220   -7.9940 C   0  0  0  0  0  0  0  0  0  0  0  0
   -7.4580    9.0420   -8.7470 C   0  0  0  0  0  0  0  0  0  0  0  0
   -8.7340    9.0340   -8.2900 N   0  0  0  0  0  0  0  0  0  0  0  0
   -8.9720    8.6910   -7.0020 C   0  0  0  0  0  0  0  0  0  0  0  0
   -7.8950    8.3640   -6.1980 C   0  0  0  0  0  0  0  0  0  0  0  0
   -7.7840    7.9800   -4.8900 N   0  0  0  0  0  0  0  0  0  0  0  0
   -5.6340    8.3330   -2.3440 C   0  0  0  0  0  0  0  0  0  0  0  0
   -5.0770    7.9950   -1.1010 C   0  0  0  0  0  0  0  0  0  0  0  0
   -4.8430    6.6630   -0.7760 C   0  0  0  0  0  0  0  0  0  0  0  0
   -5.2030    5.6900   -1.6980 C   0  0  0  0  0  0  0  0  0  0  0  0
   -1.6850    2.9120   -0.3820 C   0  0  0  0  0  0  0  0  0  0  0  0
   -1.1560    1.6620   -0.7240 C   0  0  0  0  0  0  0  0  0  0  0  0
    0.2210    1.4990   -0.7230 C   0  0  0  0  0  0  0  0  0  0  0  0
    1.1270    2.4520   -0.4150 N   0  0  0  0  0  0  0  0  0  0  0  0
    0.5680    3.6380   -0.1140 C   0  0  0  0  0  0  0  0  0  0  0  0
    1.2770    4.7610    0.2160 N   0  0  0  0  0  0  0  0  0  0  0  0
    0.4150    5.7970    0.4660 C   0  0  0  0  0  0  0  0  0  0  0  0
   -0.8700    5.3260    0.2920 C   0  0  0  0  0  0  0  0  0  0  0  0
   -0.7860    3.9530   -0.0790 C   0  0  0  0  0  0  0  0  0  0  0  0
   -3.0560    4.0780   -2.2340 H   0  0  0  0  0  0  0  0  0  0  0  0
   -5.5031    3.7813   -0.6290 H   0  0  0  0  0  0  0  0  0  0  0  0
   -5.4479    1.5322   -2.5999 H   0  0  0  0  0  0  0  0  0  0  0  0
   -6.6244    1.0650   -4.7604 H   0  0  0  0  0  0  0  0  0  0  0  0
   -7.5369    2.9396   -6.1226 H   0  0  0  0  0  0  0  0  0  0  0  0
   -7.2460    5.3103   -5.3887 H   0  0  0  0  0  0  0  0  0  0  0  0
   -5.3238    8.7426   -8.4146 H   0  0  0  0  0  0  0  0  0  0  0  0
   -7.2976    9.3247   -9.7979 H   0  0  0  0  0  0  0  0  0  0  0  0
   -9.9975    8.6728   -6.6044 H   0  0  0  0  0  0  0  0  0  0  0  0
   -8.5410    7.8560   -4.2340 H   0  0  0  0  0  0  0  0  0  0  0  0
   -5.8035    9.3930   -2.5840 H   0  0  0  0  0  0  0  0  0  0  0  0
   -4.8244    8.7870   -0.3806 H   0  0  0  0  0  0  0  0  0  0  0  0
   -4.3851    6.3882    0.1856 H   0  0  0  0  0  0  0  0  0  0  0  0
   -1.8196    0.8255   -0.9883 H   0  0  0  0  0  0  0  0  0  0  0  0
    0.6093    0.5070   -0.9970 H   0  0  0  0  0  0  0  0  0  0  0  0
    2.2850    4.7940    0.2560 H   0  0  0  0  0  0  0  0  0  0  0  0
    0.6972    6.8205    0.7538 H   0  0  0  0  0  0  0  0  0  0  0  0
   -1.7953    5.9074    0.4175 H   0  0  0  0  0  0  0  0  0  0  0  0
  1  2  2  0
  2  3  1  0
  3  4  1  0
  4  5  1  0
  5  6  2  0
  6  7  1  0
  7  8  2  0
  8  9  1  0
  9 10  2  0
 10 11  1  0
 11 12  2  0
 12 13  1  0
 13 14  2  0
 14 15  1  0
 15 16  2  0
 16 17  1  0
 17 18  2  0
 18 19  1  0
 19 20  2  0
 20 21  1  0
 12 22  1  0
 22 23  2  0
 23 24  1  0
 24 25  2  0
  2 26  1  0
 26 27  2  0
 27 28  1  0
 28 29  2  0
 29 30  1  0
 30 31  1  0
 31 32  1  0
 32 33  2  0
 33 34  1  0
 25  4  1  0
 34 26  1  0
 10  5  1  0
 25 11  1  0
 34 30  2  0
 21 13  1  0
 20 15  1  0
  3 35  1  0
  4 36  1  1
  6 37  1  0
  7 38  1  0
  8 39  1  0
  9 40  1  0
 16 41  1  0
 17 42  1  0
 19 43  1  0
 21 44  1  0
 22 45  1  0
 23 46  1  0
 24 47  1  0
 27 48  1  0
 28 49  1  0
 31 50  1  0
 32 51  1  0
 33 52  1  0
M  END
>  <meeko>  (2) 
{"is_sidechain": [false], "free_energy": -9.557, "intermolecular_energy": -11.07, "internal_energy": -1.297}

$$$$
2yki_ligand
     RDKit          3D

 52 58  0  0  0  0  0  0  0  0999 V2000
   -3.8340    2.8420    0.5590 O   0  0  0  0  0  0  0  0  0  0  0  0
   -3.1520    3.1080   -0.4220 C   0  0  0  0  0  0  0  0  0  0  0  0
   -3.6690    3.6090   -1.5920 N   0  0  0  0  0  0  0  0  0  0  0  0
   -5.0680    3.9440   -1.7160 C   0  0  2  0  0  0  0  0  0  0  0  0
   -5.6440    3.3880   -3.0040 C   0  0  0  0  0  0  0  0  0  0  0  0
   -5.7660    2.0520   -3.3620 C   0  0  0  0  0  0  0  0  0  0  0  0
   -6.3940    1.7490   -4.5680 C   0  0  0  0  0  0  0  0  0  0  0  0
   -6.9050    2.7730   -5.3800 C   0  0  0  0  0  0  0  0  0  0  0  0
   -6.7790    4.1170   -5.0090 C   0  0  0  0  0  0  0  0  0  0  0  0
   -6.1180    4.4330   -3.8310 C   0  0  0  0  0  0  0  0  0  0  0  0
   -5.8400    5.7120   -3.1840 C   0  0  0  0  0  0  0  0  0  0  0  0
   -6.0400    7.0380   -3.5720 C   0  0  0  0  0  0  0  0  0  0  0  0
   -6.4850    7.4440   -4.8990 C   0  0  0  0  0  0  0  0  0  0  0  0
   -7.6820    7.8910   -5.2270 N   0  0  0  0  0  0  0  0  0  0  0  0
   -7.6190    8.1970   -6.5660 C   0  0  0  0  0  0  0  0  0  0  0  0
   -8.6070    8.6830   -7.4200 C   0  0  0  0  0  0  0  0  0  0  0  0
   -8.2140    8.8890   -8.7330 C   0  0  0  0  0  0  0  0  0  0  0  0
   -6.9700    8.6560   -9.2200 N   0  0  0  0  0  0  0  0  0  0  0  0
   -6.0120    8.1860   -8.3860 C   0  0  0  0  0  0  0  0  0  0  0  0
   -6.3450    7.9580   -7.0630 C   0  0  0  0  0  0  0  0  0  0  0  0
   -5.6390    7.5010   -5.9840 N   0  0  0  0  0  0  0  0  0  0  0  0
   -5.7410    8.0530   -2.6420 C   0  0  0  0  0  0  0  0  0  0  0  0
   -5.2070    7.7610   -1.3770 C   0  0  0  0  0  0  0  0  0  0  0  0
   -4.9480    6.4450   -1.0110 C   0  0  0  0  0  0  0  0  0  0  0  0
   -5.2610    5.4390   -1.9150 C   0  0  0  0  0  0  0  0  0  0  0  0
   -1.6880    2.8870   -0.4090 C   0  0  0  0  0  0  0  0  0  0  0  0
   -1.1310    1.6440   -0.7330 C   0  0  0  0  0  0  0  0  0  0  0  0
    0.2490    1.5060   -0.7040 C   0  0  0  0  0  0  0  0  0  0  0  0
    1.1320    2.4760   -0.3860 N   0  0  0  0  0  0  0  0  0  0  0  0
    0.5460    3.6540   -0.1030 C   0  0  0  0  0  0  0  0  0  0  0  0
    1.2290    4.7910    0.2330 N   0  0  0  0  0  0  0  0  0  0  0  0
    0.3450    5.8140    0.4610 C   0  0  0  0  0  0  0  0  0  0  0  0
   -0.9280    5.3190    0.2650 C   0  0  0  0  0  0  0  0  0  0  0  0
   -0.8130    3.9450   -0.0950 C   0  0  0  0  0  0  0  0  0  0  0  0
   -3.0780    3.7850   -2.3910 H   0  0  0  0  0  0  0  0  0  0  0  0
   -5.5398    3.5514   -0.8031 H   0  0  0  0  0  0  0  0  0  0  0  0
   -5.3775    1.2548   -2.7112 H   0  0  0  0  0  0  0  0  0  0  0  0
   -6.4899    0.7003   -4.8858 H   0  0  0  0  0  0  0  0  0  0  0  0
   -7.4120    2.5159   -6.3218 H   0  0  0  0  0  0  0  0  0  0  0  0
   -7.1985    4.9119   -5.6431 H   0  0  0  0  0  0  0  0  0  0  0  0
   -9.6309    8.8895   -7.0750 H   0  0  0  0  0  0  0  0  0  0  0  0
   -8.9700    9.2712   -9.4347 H   0  0  0  0  0  0  0  0  0  0  0  0
   -4.9933    7.9902   -8.7520 H   0  0  0  0  0  0  0  0  0  0  0  0
   -4.6650    7.2350   -5.9730 H   0  0  0  0  0  0  0  0  0  0  0  0
   -5.9309    9.1017   -2.9142 H   0  0  0  0  0  0  0  0  0  0  0  0
   -4.9924    8.5775   -0.6718 H   0  0  0  0  0  0  0  0  0  0  0  0
   -4.5070    6.2073   -0.0317 H   0  0  0  0  0  0  0  0  0  0  0  0
   -1.7745    0.7943   -1.0050 H   0  0  0  0  0  0  0  0  0  0  0  0
    0.6599    0.5190   -0.9630 H   0  0  0  0  0  0  0  0  0  0  0  0
    2.2360    4.8430    0.2930 H   0  0  0  0  0  0  0  0  0  0  0  0
    0.6040    6.8437    0.7484 H   0  0  0  0  0  0  0  0  0  0  0  0
   -1.8656    5.8848    0.3683 H   0  0  0  0  0  0  0  0  0  0  0  0
  1  2  2  0
  2  3  1  0
  3  4  1  0
  4  5  1  0
  5  6  2  0
  6  7  1  0
  7  8  2  0
  8  9  1  0
  9 10  2  0
 10 11  1  0
 11 12  2  0
 12 13  1  0
 13 14  2  0
 14 15  1  0
 15 16  2  0
 16 17  1  0
 17 18  2  0
 18 19  1  0
 19 20  2  0
 20 21  1  0
 12 22  1  0
 22 23  2  0
 23 24  1  0
 24 25  2  0
  2 26  1  0
 26 27  2  0
 27 28  1  0
 28 29  2  0
 29 30  1  0
 30 31  1  0
 31 32  1  0
 32 33  2  0
 33 34  1  0
 25  4  1  0
 34 26  1  0
 10  5  1  0
 25 11  1  0
 34 30  2  0
 21 13  1  0
 20 15  1  0
  3 35  1  0
  4 36  1  1
  6 37  1  0
  7 38  1  0
  8 39  1  0
  9 40  1  0
 16 41  1  0
 17 42  1  0
 19 43  1  0
 21 44  1  0
 22 45  1  0
 23 46  1  0
 24 47  1  0
 27 48  1  0
 28 49  1  0
 31 50  1  0
 32 51  1  0
 33 52  1  0
M  END
>  <meeko>  (3) 
{"is_sidechain": [false], "free_energy": -9.478, "intermolecular_energy": -10.979, "internal_energy": -1.294}

$$$$
2yki_ligand
     RDKit          3D

 52 58  0  0  0  0  0  0  0  0999 V2000
   -3.1950    4.1630   -3.3730 O   0  0  0  0  0  0  0  0  0  0  0  0
   -3.7330    4.0840   -2.2770 C   0  0  0  0  0  0  0  0  0  0  0  0
   -5.0880    4.2230   -2.0860 N   0  0  0  0  0  0  0  0  0  0  0  0
   -5.9930    4.3890   -3.1970 C   0  0  2  0  0  0  0  0  0  0  0  0
   -6.0310    3.1380   -4.0540 C   0  0  0  0  0  0  0  0  0  0  0  0
   -6.4690    1.8750   -3.6770 C   0  0  0  0  0  0  0  0  0  0  0  0
   -6.4900    0.8710   -4.6430 C   0  0  0  0  0  0  0  0  0  0  0  0
   -6.0980    1.1460   -5.9620 C   0  0  0  0  0  0  0  0  0  0  0  0
   -5.6620    2.4240   -6.3330 C   0  0  0  0  0  0  0  0  0  0  0  0
   -5.5960    3.4200   -5.3700 C   0  0  0  0  0  0  0  0  0  0  0  0
   -5.1990    4.8240   -5.4460 C   0  0  0  0  0  0  0  0  0  0  0  0
   -4.6540    5.6030   -6.4680 C   0  0  0  0  0  0  0  0  0  0  0  0
   -4.1990    5.0750   -7.7470 C   0  0  0  0  0  0  0  0  0  0  0  0
   -4.7880    5.2270   -8.9180 N   0  0  0  0  0  0  0  0  0  0  0  0
   -3.9740    4.6060   -9.8350 C   0  0  0  0  0  0  0  0  0  0  0  0
   -4.1330    4.4500  -11.2110 C   0  0  0  0  0  0  0  0  0  0  0  0
   -3.1160    3.7630  -11.8560 C   0  0  0  0  0  0  0  0  0  0  0  0
   -2.0140    3.2550  -11.2520 N   0  0  0  0  0  0  0  0  0  0  0  0
   -1.8620    3.4120   -9.9160 C   0  0  0  0  0  0  0  0  0  0  0  0
   -2.8460    4.0860   -9.2160 C   0  0  0  0  0  0  0  0  0  0  0  0
   -3.0000    4.4130   -7.8970 N   0  0  0  0  0  0  0  0  0  0  0  0
   -4.4810    6.9810   -6.2280 C   0  0  0  0  0  0  0  0  0  0  0  0
   -4.7920    7.5600   -4.9880 C   0  0  0  0  0  0  0  0  0  0  0  0
   -5.2770    6.7740   -3.9480 C   0  0  0  0  0  0  0  0  0  0  0  0
   -5.4690    5.4190   -4.1850 C   0  0  0  0  0  0  0  0  0  0  0  0
   -2.9330    3.8380   -1.0560 C   0  0  0  0  0  0  0  0  0  0  0  0
   -2.6430    2.5400   -0.6190 C   0  0  0  0  0  0  0  0  0  0  0  0
   -1.8850    2.3800    0.5310 C   0  0  0  0  0  0  0  0  0  0  0  0
   -1.3870    3.3780    1.2930 N   0  0  0  0  0  0  0  0  0  0  0  0
   -1.6780    4.6020    0.8180 C   0  0  0  0  0  0  0  0  0  0  0  0
   -1.2720    5.7710    1.4050 N   0  0  0  0  0  0  0  0  0  0  0  0
   -1.7320    6.8390    0.6780 C   0  0  0  0  0  0  0  0  0  0  0  0
   -2.4440    6.3420   -0.3940 C   0  0  0  0  0  0  0  0  0  0  0  0
   -2.4160    4.9200   -0.3160 C   0  0  0  0  0  0  0  0  0  0  0  0
   -5.4900    4.1830   -1.1610 H   0  0  0  0  0  0  0  0  0  0  0  0
   -6.9588    4.6566   -2.7435 H   0  0  0  0  0  0  0  0  0  0  0  0
   -6.7904    1.6729   -2.6446 H   0  0  0  0  0  0  0  0  0  0  0  0
   -6.8159   -0.1435   -4.3699 H   0  0  0  0  0  0  0  0  0  0  0  0
   -6.1337    0.3457   -6.7158 H   0  0  0  0  0  0  0  0  0  0  0  0
   -5.3758    2.6351   -7.3739 H   0  0  0  0  0  0  0  0  0  0  0  0
   -5.0070    4.8455  -11.7492 H   0  0  0  0  0  0  0  0  0  0  0  0
   -3.2108    3.6190  -12.9424 H   0  0  0  0  0  0  0  0  0  0  0  0
   -0.9767    3.0129   -9.3994 H   0  0  0  0  0  0  0  0  0  0  0  0
   -2.3600    4.2020   -7.1460 H   0  0  0  0  0  0  0  0  0  0  0  0
   -4.0917    7.6199   -7.0344 H   0  0  0  0  0  0  0  0  0  0  0  0
   -4.6515    8.6406   -4.8378 H   0  0  0  0  0  0  0  0  0  0  0  0
   -5.5023    7.2134   -2.9650 H   0  0  0  0  0  0  0  0  0  0  0  0
   -3.0089    1.6651   -1.1764 H   0  0  0  0  0  0  0  0  0  0  0  0
   -1.6703    1.3497    0.8509 H   0  0  0  0  0  0  0  0  0  0  0  0
   -0.7140    5.8110    2.2450 H   0  0  0  0  0  0  0  0  0  0  0  0
   -1.5635    7.9013    0.9083 H   0  0  0  0  0  0  0  0  0  0  0  0
   -2.9446    6.9381   -1.1712 H   0  0  0  0  0  0  0  0  0  0  0  0
  1  2  2  0
  2  3  1  0
  3  4  1  0
  4  5  1  0
  5  6  2  0
  6  7  1  0
  7  8  2  0
  8  9  1  0
  9 10  2  0
 10 11  1  0
 11 12  2  0
 12 13  1  0
 13 14  2  0
 14 15  1  0
 15 16  2  0
 16 17  1  0
 17 18  2  0
 18 19  1  0
 19 20  2  0
 20 21  1  0
 12 22  1  0
 22 23  2  0
 23 24  1  0
 24 25  2  0
  2 26  1  0
 26 27  2  0
 27 28  1  0
 28 29  2  0
 29 30  1  0
 30 31  1  0
 31 32  1  0
 32 33  2  0
 33 34  1  0
 25  4  1  0
 34 26  1  0
 10  5  1  0
 25 11  1  0
 34 30  2  0
 21 13  1  0
 20 15  1  0
  3 35  1  0
  4 36  1  1
  6 37  1  0
  7 38  1  0
  8 39  1  0
  9 40  1  0
 16 41  1  0
 17 42  1  0
 19 43  1  0
 21 44  1  0
 22 45  1  0
 23 46  1  0
 24 47  1  0
 27 48  1  0
 28 49  1  0
 31 50  1  0
 32 51  1  0
 33 52  1  0
M  END
>  <meeko>  (4) 
{"is_sidechain": [false], "free_energy": -8.895, "intermolecular_energy": -11.503, "internal_energy": -0.085}

$$$$
2yki_ligand
     RDKit          3D

 52 58  0  0  0  0  0  0  0  0999 V2000
   -5.3850    7.2540   -1.6580 O   0  0  0  0  0  0  0  0  0  0  0  0
   -4.2920    6.7080   -1.7320 C   0  0  0  0  0  0  0  0  0  0  0  0
   -3.8840    5.9710   -2.8180 N   0  0  0  0  0  0  0  0  0  0  0  0
   -4.7000    5.8600   -4.0030 C   0  0  2  0  0  0  0  0  0  0  0  0
   -4.6870    4.4400   -4.5370 C   0  0  0  0  0  0  0  0  0  0  0  0
   -5.1660    3.3000   -3.9040 C   0  0  0  0  0  0  0  0  0  0  0  0
   -5.1250    2.0950   -4.6000 C   0  0  0  0  0  0  0  0  0  0  0  0
   -4.6310    2.0490   -5.9120 C   0  0  0  0  0  0  0  0  0  0  0  0
   -4.1520    3.2040   -6.5430 C   0  0  0  0  0  0  0  0  0  0  0  0
   -4.1490    4.4020   -5.8440 C   0  0  0  0  0  0  0  0  0  0  0  0
   -3.7310    5.7490   -6.2230 C   0  0  0  0  0  0  0  0  0  0  0  0
   -3.1010    6.2660   -7.3560 C   0  0  0  0  0  0  0  0  0  0  0  0
   -2.5560    5.4500   -8.4340 C   0  0  0  0  0  0  0  0  0  0  0  0
   -3.1290    5.1880   -9.5930 N   0  0  0  0  0  0  0  0  0  0  0  0
   -2.2250    4.4310  -10.2990 C   0  0  0  0  0  0  0  0  0  0  0  0
   -2.3310    3.8670  -11.5700 C   0  0  0  0  0  0  0  0  0  0  0  0
   -1.2250    3.1510  -12.0000 C   0  0  0  0  0  0  0  0  0  0  0  0
   -0.0860    2.9730  -11.2860 N   0  0  0  0  0  0  0  0  0  0  0  0
    0.0130    3.5240  -10.0530 C   0  0  0  0  0  0  0  0  0  0  0  0
   -1.0600    4.2490   -9.5680 C   0  0  0  0  0  0  0  0  0  0  0  0
   -1.2840    4.9210   -8.3980 N   0  0  0  0  0  0  0  0  0  0  0  0
   -2.9310    7.6620   -7.4410 C   0  0  0  0  0  0  0  0  0  0  0  0
   -3.3290    8.5180   -6.4030 C   0  0  0  0  0  0  0  0  0  0  0  0
   -3.9010    8.0010   -5.2460 C   0  0  0  0  0  0  0  0  0  0  0  0
   -4.0900    6.6280   -5.1660 C   0  0  0  0  0  0  0  0  0  0  0  0
   -3.3200    6.8040   -0.6190 C   0  0  0  0  0  0  0  0  0  0  0  0
   -3.1020    8.0080    0.0620 C   0  0  0  0  0  0  0  0  0  0  0  0
   -2.1800    8.0290    1.0980 C   0  0  0  0  0  0  0  0  0  0  0  0
   -1.4530    6.9750    1.5260 N   0  0  0  0  0  0  0  0  0  0  0  0
   -1.7150    5.8400    0.8530 C   0  0  0  0  0  0  0  0  0  0  0  0
   -1.1170    4.6370    1.1120 N   0  0  0  0  0  0  0  0  0  0  0  0
   -1.6010    3.6830    0.2530 C   0  0  0  0  0  0  0  0  0  0  0  0
   -2.5270    4.2910   -0.5690 C   0  0  0  0  0  0  0  0  0  0  0  0
   -2.6090    5.6640   -0.1970 C   0  0  0  0  0  0  0  0  0  0  0  0
   -2.9870    5.5090   -2.8270 H   0  0  0  0  0  0  0  0  0  0  0  0
   -5.6944    6.2213   -3.7019 H   0  0  0  0  0  0  0  0  0  0  0  0
   -5.5668    3.3481   -2.8807 H   0  0  0  0  0  0  0  0  0  0  0  0
   -5.4823    1.1731   -4.1180 H   0  0  0  0  0  0  0  0  0  0  0  0
   -4.6196    1.0915   -6.4534 H   0  0  0  0  0  0  0  0  0  0  0  0
   -3.7833    3.1616   -7.5785 H   0  0  0  0  0  0  0  0  0  0  0  0
   -3.2323    3.9827  -12.1899 H   0  0  0  0  0  0  0  0  0  0  0  0
   -1.2750    2.6914  -12.9981 H   0  0  0  0  0  0  0  0  0  0  0  0
    0.9253    3.3979   -9.4515 H   0  0  0  0  0  0  0  0  0  0  0  0
   -0.6420    5.0120   -7.6240 H   0  0  0  0  0  0  0  0  0  0  0  0
   -2.4744    8.0920   -8.3446 H   0  0  0  0  0  0  0  0  0  0  0  0
   -3.1877    9.6041   -6.5051 H   0  0  0  0  0  0  0  0  0  0  0  0
   -4.1956    8.6615   -4.4171 H   0  0  0  0  0  0  0  0  0  0  0  0
   -3.6510    8.9189   -0.2190 H   0  0  0  0  0  0  0  0  0  0  0  0
   -2.0280    8.9875    1.6158 H   0  0  0  0  0  0  0  0  0  0  0  0
   -0.4290    4.4990    1.8370 H   0  0  0  0  0  0  0  0  0  0  0  0
   -1.3042    2.6242    0.2248 H   0  0  0  0  0  0  0  0  0  0  0  0
   -3.1008    3.8022   -1.3702 H   0  0  0  0  0  0  0  0  0  0  0  0
  1  2  2  0
  2  3  1  0
  3  4  1  0
  4  5  1  0
  5  6  2  0
  6  7  1  0
  7  8  2  0
  8  9  1  0
  9 10  2  0
 10 11  1  0
 11 12  2  0
 12 13  1  0
 13 14  2  0
 14 15  1  0
 15 16  2  0
 16 17  1  0
 17 18  2  0
 18 19  1  0
 19 20  2  0
 20 21  1  0
 12 22  1  0
 22 23  2  0
 23 24  1  0
 24 25  2  0
  2 26  1  0
 26 27  2  0
 27 28  1  0
 28 29  2  0
 29 30  1  0
 30 31  1  0
 31 32  1  0
 32 33  2  0
 33 34  1  0
 25  4  1  0
 34 26  1  0
 10  5  1  0
 25 11  1  0
 34 30  2  0
 21 13  1  0
 20 15  1  0
  3 35  1  0
  4 36  1  1
  6 37  1  0
  7 38  1  0
  8 39  1  0
  9 40  1  0
 16 41  1  0
 17 42  1  0
 19 43  1  0
 21 44  1  0
 22 45  1  0
 23 46  1  0
 24 47  1  0
 27 48  1  0
 28 49  1  0
 31 50  1  0
 32 51  1  0
 33 52  1  0
M  END
>  <meeko>  (5) 
{"is_sidechain": [false], "free_energy": -8.521, "intermolecular_energy": -10.133, "internal_energy": -1.016}

$$$$
2yki_ligand
     RDKit          3D

 52 58  0  0  0  0  0  0  0  0999 V2000
   -5.2290    4.5100   -0.2590 O   0  0  0  0  0  0  0  0  0  0  0  0
   -4.2440    4.3470   -0.9680 C   0  0  0  0  0  0  0  0  0  0  0  0
   -4.3050    4.2350   -2.3360 N   0  0  0  0  0  0  0  0  0  0  0  0
   -5.5490    4.3890   -3.0510 C   0  0  2  0  0  0  0  0  0  0  0  0
   -5.5800    3.4990   -4.2800 C   0  0  0  0  0  0  0  0  0  0  0  0
   -5.5470    2.1110   -4.3120 C   0  0  0  0  0  0  0  0  0  0  0  0
   -5.6590    1.4800   -5.5490 C   0  0  0  0  0  0  0  0  0  0  0  0
   -5.8220    2.2360   -6.7190 C   0  0  0  0  0  0  0  0  0  0  0  0
   -5.8570    3.6340   -6.6760 C   0  0  0  0  0  0  0  0  0  0  0  0
   -5.7040    4.2760   -5.4550 C   0  0  0  0  0  0  0  0  0  0  0  0
   -5.7040    5.6900   -5.0910 C   0  0  0  0  0  0  0  0  0  0  0  0
   -5.7460    6.8650   -5.8430 C   0  0  0  0  0  0  0  0  0  0  0  0
   -5.6470    6.9110   -7.2960 C   0  0  0  0  0  0  0  0  0  0  0  0
   -4.5830    6.6300   -8.0240 N   0  0  0  0  0  0  0  0  0  0  0  0
   -4.9760    6.7590   -9.3350 C   0  0  0  0  0  0  0  0  0  0  0  0
   -4.2410    6.5990  -10.5090 C   0  0  0  0  0  0  0  0  0  0  0  0
   -4.9430    6.8020  -11.6860 C   0  0  0  0  0  0  0  0  0  0  0  0
   -6.2560    7.1340  -11.7630 N   0  0  0  0  0  0  0  0  0  0  0  0
   -6.9670    7.2850  -10.6200 C   0  0  0  0  0  0  0  0  0  0  0  0
   -6.3190    7.0980   -9.4130 C   0  0  0  0  0  0  0  0  0  0  0  0
   -6.7290    7.1680   -8.1100 N   0  0  0  0  0  0  0  0  0  0  0  0
   -5.8350    8.0900   -5.1520 C   0  0  0  0  0  0  0  0  0  0  0  0
   -5.8290    8.1490   -3.7500 C   0  0  0  0  0  0  0  0  0  0  0  0
   -5.7250    6.9840   -2.9990 C   0  0  0  0  0  0  0  0  0  0  0  0
   -5.6580    5.7720   -3.6740 C   0  0  0  0  0  0  0  0  0  0  0  0
   -2.8920    4.2490   -0.3740 C   0  0  0  0  0  0  0  0  0  0  0  0
   -2.1440    3.0670   -0.4450 C   0  0  0  0  0  0  0  0  0  0  0  0
   -0.8820    3.0430    0.1290 C   0  0  0  0  0  0  0  0  0  0  0  0
   -0.2880    4.0720    0.7690 N   0  0  0  0  0  0  0  0  0  0  0  0
   -1.0390    5.1880    0.7910 C   0  0  0  0  0  0  0  0  0  0  0  0
   -0.6480    6.3670    1.3660 N   0  0  0  0  0  0  0  0  0  0  0  0
   -1.6380    7.3050    1.2200 C   0  0  0  0  0  0  0  0  0  0  0  0
   -2.6800    6.7130    0.5370 C   0  0  0  0  0  0  0  0  0  0  0  0
   -2.3110    5.3650    0.2580 C   0  0  0  0  0  0  0  0  0  0  0  0
   -3.4730    4.0680   -2.8830 H   0  0  0  0  0  0  0  0  0  0  0  0
   -6.3341    4.1684   -2.3128 H   0  0  0  0  0  0  0  0  0  0  0  0
   -5.4356    1.5264   -3.3869 H   0  0  0  0  0  0  0  0  0  0  0  0
   -5.6194    0.3823   -5.6084 H   0  0  0  0  0  0  0  0  0  0  0  0
   -5.9240    1.7216   -7.6859 H   0  0  0  0  0  0  0  0  0  0  0  0
   -6.0038    4.2165   -7.5975 H   0  0  0  0  0  0  0  0  0  0  0  0
   -3.1746    6.3295  -10.5012 H   0  0  0  0  0  0  0  0  0  0  0  0
   -4.3930    6.6849  -12.6314 H   0  0  0  0  0  0  0  0  0  0  0  0
   -8.0341    7.5500  -10.6513 H   0  0  0  0  0  0  0  0  0  0  0  0
   -7.6590    7.3840   -7.7830 H   0  0  0  0  0  0  0  0  0  0  0  0
   -5.9112    9.0247   -5.7269 H   0  0  0  0  0  0  0  0  0  0  0  0
   -5.9070    9.1220   -3.2428 H   0  0  0  0  0  0  0  0  0  0  0  0
   -5.6965    7.0209   -1.9000 H   0  0  0  0  0  0  0  0  0  0  0  0
   -2.5495    2.1756   -0.9460 H   0  0  0  0  0  0  0  0  0  0  0  0
   -0.3154    2.1029    0.0563 H   0  0  0  0  0  0  0  0  0  0  0  0
    0.2430    6.5000    1.8200 H   0  0  0  0  0  0  0  0  0  0  0  0
   -1.6066    8.3431    1.5825 H   0  0  0  0  0  0  0  0  0  0  0  0
   -3.6279    7.1959    0.2572 H   0  0  0  0  0  0  0  0  0  0  0  0
  1  2  2  0
  2  3  1  0
  3  4  1  0
  4  5  1  0
  5  6  2  0
  6  7  1  0
  7  8  2  0
  8  9  1  0
  9 10  2  0
 10 11  1  0
 11 12  2  0
 12 13  1  0
 13 14  2  0
 14 15  1  0
 15 16  2  0
 16 17  1  0
 17 18  2  0
 18 19  1  0
 19 20  2  0
 20 21  1  0
 12 22  1  0
 22 23  2  0
 23 24  1  0
 24 25  2  0
  2 26  1  0
 26 27  2  0
 27 28  1  0
 28 29  2  0
 29 30  1  0
 30 31  1  0
 31 32  1  0
 32 33  2  0
 33 34  1  0
 25  4  1  0
 34 26  1  0
 10  5  1  0
 25 11  1  0
 34 30  2  0
 21 13  1  0
 20 15  1  0
  3 35  1  0
  4 36  1  1
  6 37  1  0
  7 38  1  0
  8 39  1  0
  9 40  1  0
 16 41  1  0
 17 42  1  0
 19 43  1  0
 21 44  1  0
 22 45  1  0
 23 46  1  0
 24 47  1  0
 27 48  1  0
 28 49  1  0
 31 50  1  0
 32 51  1  0
 33 52  1  0
M  END
>  <meeko>  (6) 
{"is_sidechain": [false], "free_energy": -8.352, "intermolecular_energy": -9.766, "internal_energy": -1.184}

$$$$
2yki_ligand
     RDKit          3D

 52 58  0  0  0  0  0  0  0  0999 V2000
   -7.3410    7.2670   -7.9140 O   0  0  0  0  0  0  0  0  0  0  0  0
   -7.8320    7.1790   -6.7960 C   0  0  0  0  0  0  0  0  0  0  0  0
   -7.3830    6.3020   -5.8370 N   0  0  0  0  0  0  0  0  0  0  0  0
   -6.2260    5.4690   -6.0600 C   0  0  2  0  0  0  0  0  0  0  0  0
   -6.2840    4.2220   -5.1980 C   0  0  0  0  0  0  0  0  0  0  0  0
   -7.2280    3.2050   -5.2550 C   0  0  0  0  0  0  0  0  0  0  0  0
   -7.0590    2.1040   -4.4180 C   0  0  0  0  0  0  0  0  0  0  0  0
   -5.9510    2.0260   -3.5620 C   0  0  0  0  0  0  0  0  0  0  0  0
   -5.0040    3.0550   -3.5140 C   0  0  0  0  0  0  0  0  0  0  0  0
   -5.1830    4.1760   -4.3110 C   0  0  0  0  0  0  0  0  0  0  0  0
   -4.3830    5.3850   -4.4870 C   0  0  0  0  0  0  0  0  0  0  0  0
   -3.2430    5.8710   -3.8460 C   0  0  0  0  0  0  0  0  0  0  0  0
   -2.6510    5.2690   -2.6580 C   0  0  0  0  0  0  0  0  0  0  0  0
   -2.9460    4.0920   -2.1400 N   0  0  0  0  0  0  0  0  0  0  0  0
   -2.1020    3.9280   -1.0680 C   0  0  0  0  0  0  0  0  0  0  0  0
   -2.0050    2.8760   -0.1580 C   0  0  0  0  0  0  0  0  0  0  0  0
   -1.0350    3.0200    0.8210 C   0  0  0  0  0  0  0  0  0  0  0  0
   -0.2020    4.0830    0.9430 N   0  0  0  0  0  0  0  0  0  0  0  0
   -0.2980    5.1010    0.0560 C   0  0  0  0  0  0  0  0  0  0  0  0
   -1.2500    5.0160   -0.9440 C   0  0  0  0  0  0  0  0  0  0  0  0
   -1.6020    5.8430   -1.9750 N   0  0  0  0  0  0  0  0  0  0  0  0
   -2.6560    7.0520   -4.3440 C   0  0  0  0  0  0  0  0  0  0  0  0
   -3.2180    7.7590   -5.4180 C   0  0  0  0  0  0  0  0  0  0  0  0
   -4.3890    7.3100   -6.0190 C   0  0  0  0  0  0  0  0  0  0  0  0
   -4.9600    6.1360   -5.5460 C   0  0  0  0  0  0  0  0  0  0  0  0
   -8.9770    8.0300   -6.4030 C   0  0  0  0  0  0  0  0  0  0  0  0
  -10.1710    8.0360   -7.1340 C   0  0  0  0  0  0  0  0  0  0  0  0
  -11.2070    8.8540   -6.7100 C   0  0  0  0  0  0  0  0  0  0  0  0
  -11.1780    9.6680   -5.6330 N   0  0  0  0  0  0  0  0  0  0  0  0
  -10.0180    9.6100   -4.9550 C   0  0  0  0  0  0  0  0  0  0  0  0
   -9.7520   10.3290   -3.8220 N   0  0  0  0  0  0  0  0  0  0  0  0
   -8.4860   10.0450   -3.3770 C   0  0  0  0  0  0  0  0  0  0  0  0
   -7.9340    9.1250   -4.2450 C   0  0  0  0  0  0  0  0  0  0  0  0
   -8.8990    8.8390   -5.2530 C   0  0  0  0  0  0  0  0  0  0  0  0
   -7.8350    6.2370   -4.9380 H   0  0  0  0  0  0  0  0  0  0  0  0
   -6.2185    5.2712   -7.1420 H   0  0  0  0  0  0  0  0  0  0  0  0
   -8.0851    3.2669   -5.9417 H   0  0  0  0  0  0  0  0  0  0  0  0
   -7.7995    1.2907   -4.4287 H   0  0  0  0  0  0  0  0  0  0  0  0
   -5.8244    1.1427   -2.9187 H   0  0  0  0  0  0  0  0  0  0  0  0
   -4.1286    2.9759   -2.8526 H   0  0  0  0  0  0  0  0  0  0  0  0
   -2.6553    1.9906   -0.2136 H   0  0  0  0  0  0  0  0  0  0  0  0
   -0.9327    2.2086    1.5567 H   0  0  0  0  0  0  0  0  0  0  0  0
    0.3655    5.9754    0.1287 H   0  0  0  0  0  0  0  0  0  0  0  0
   -1.1830    6.7330   -2.2020 H   0  0  0  0  0  0  0  0  0  0  0  0
   -1.7334    7.4291   -3.8786 H   0  0  0  0  0  0  0  0  0  0  0  0
   -2.7297    8.6732   -5.7865 H   0  0  0  0  0  0  0  0  0  0  0  0
   -4.8502    7.8695   -6.8463 H   0  0  0  0  0  0  0  0  0  0  0  0
  -10.2849    7.4041   -8.0272 H   0  0  0  0  0  0  0  0  0  0  0  0
  -12.1335    8.8386   -7.3027 H   0  0  0  0  0  0  0  0  0  0  0  0
  -10.4110   10.9640   -3.3950 H   0  0  0  0  0  0  0  0  0  0  0  0
   -7.9987   10.4732   -2.4887 H   0  0  0  0  0  0  0  0  0  0  0  0
   -6.9266    8.6894   -4.1714 H   0  0  0  0  0  0  0  0  0  0  0  0
  1  2  2  0
  2  3  1  0
  3  4  1  0
  4  5  1  0
  5  6  2  0
  6  7  1  0
  7  8  2  0
  8  9  1  0
  9 10  2  0
 10 11  1  0
 11 12  2  0
 12 13  1  0
 13 14  2  0
 14 15  1  0
 15 16  2  0
 16 17  1  0
 17 18  2  0
 18 19  1  0
 19 20  2  0
 20 21  1  0
 12 22  1  0
 22 23  2  0
 23 24  1  0
 24 25  2  0
  2 26  1  0
 26 27  2  0
 27 28  1  0
 28 29  2  0
 29 30  1  0
 30 31  1  0
 31 32  1  0
 32 33  2  0
 33 34  1  0
 25  4  1  0
 34 26  1  0
 10  5  1  0
 25 11  1  0
 34 30  2  0
 21 13  1  0
 20 15  1  0
  3 35  1  0
  4 36  1  6
  6 37  1  0
  7 38  1  0
  8 39  1  0
  9 40  1  0
 16 41  1  0
 17 42  1  0
 19 43  1  0
 21 44  1  0
 22 45  1  0
 23 46  1  0
 24 47  1  0
 27 48  1  0
 28 49  1  0
 31 50  1  0
 32 51  1  0
 33 52  1  0
M  END
>  <meeko>  (7) 
{"is_sidechain": [false], "free_energy": -7.973, "intermolecular_energy": -10.506, "internal_energy": 0.002}

$$$$
2yki_ligand
     RDKit          3D

 52 58  0  0  0  0  0  0  0  0999 V2000
   -6.6560    6.9490   -8.8250 O   0  0  0  0  0  0  0  0  0  0  0  0
   -7.2040    7.0880   -7.7390 C   0  0  0  0  0  0  0  0  0  0  0  0
   -6.8630    6.3660   -6.6200 N   0  0  0  0  0  0  0  0  0  0  0  0
   -5.7560    5.4400   -6.6280 C   0  0  2  0  0  0  0  0  0  0  0  0
   -5.9830    4.3180   -5.6320 C   0  0  0  0  0  0  0  0  0  0  0  0
   -6.9920    3.3640   -5.6570 C   0  0  0  0  0  0  0  0  0  0  0  0
   -6.9800    2.3700   -4.6810 C   0  0  0  0  0  0  0  0  0  0  0  0
   -5.9610    2.3310   -3.7190 C   0  0  0  0  0  0  0  0  0  0  0  0
   -4.9460    3.2960   -3.7040 C   0  0  0  0  0  0  0  0  0  0  0  0
   -4.9710    4.3160   -4.6440 C   0  0  0  0  0  0  0  0  0  0  0  0
   -4.0700    5.4390   -4.8870 C   0  0  0  0  0  0  0  0  0  0  0  0
   -2.9570    5.9290   -4.2020 C   0  0  0  0  0  0  0  0  0  0  0  0
   -2.5180    5.4460   -2.8990 C   0  0  0  0  0  0  0  0  0  0  0  0
   -2.8810    4.3220   -2.3110 N   0  0  0  0  0  0  0  0  0  0  0  0
   -2.1760    4.2660   -1.1330 C   0  0  0  0  0  0  0  0  0  0  0  0
   -2.1960    3.3050   -0.1220 C   0  0  0  0  0  0  0  0  0  0  0  0
   -1.3530    3.5480    0.9500 C   0  0  0  0  0  0  0  0  0  0  0  0
   -0.5360    4.6230    1.0720 N   0  0  0  0  0  0  0  0  0  0  0  0
   -0.5170    5.5530    0.0870 C   0  0  0  0  0  0  0  0  0  0  0  0
   -1.3400    5.3670   -1.0090 C   0  0  0  0  0  0  0  0  0  0  0  0
   -1.5580    6.0900   -2.1490 N   0  0  0  0  0  0  0  0  0  0  0  0
   -2.2420    6.9980   -4.7790 C   0  0  0  0  0  0  0  0  0  0  0  0
   -2.6530    7.5980   -5.9800 C   0  0  0  0  0  0  0  0  0  0  0  0
   -3.7970    7.1510   -6.6320 C   0  0  0  0  0  0  0  0  0  0  0  0
   -4.4940    6.0850   -6.0790 C   0  0  0  0  0  0  0  0  0  0  0  0
   -8.3060    8.0610   -7.5660 C   0  0  0  0  0  0  0  0  0  0  0  0
   -9.5840    7.6570   -7.1600 C   0  0  0  0  0  0  0  0  0  0  0  0
  -10.5700    8.6200   -7.0140 C   0  0  0  0  0  0  0  0  0  0  0  0
  -10.4180    9.9440   -7.2300 N   0  0  0  0  0  0  0  0  0  0  0  0
   -9.1680   10.2810   -7.5970 C   0  0  0  0  0  0  0  0  0  0  0  0
   -8.7620   11.5610   -7.8580 N   0  0  0  0  0  0  0  0  0  0  0  0
   -7.4360   11.5660   -8.2060 C   0  0  0  0  0  0  0  0  0  0  0  0
   -6.9870   10.2620   -8.1660 C   0  0  0  0  0  0  0  0  0  0  0  0
   -8.0800    9.4340   -7.7790 C   0  0  0  0  0  0  0  0  0  0  0  0
   -7.3610    6.4860   -5.7510 H   0  0  0  0  0  0  0  0  0  0  0  0
   -5.6679    5.1066   -7.6726 H   0  0  0  0  0  0  0  0  0  0  0  0
   -7.7784    3.3925   -6.4257 H   0  0  0  0  0  0  0  0  0  0  0  0
   -7.7756    1.6105   -4.6651 H   0  0  0  0  0  0  0  0  0  0  0  0
   -5.9586    1.5305   -2.9646 H   0  0  0  0  0  0  0  0  0  0  0  0
   -4.1400    3.2458   -2.9571 H   0  0  0  0  0  0  0  0  0  0  0  0
   -2.8385    2.4136   -0.1727 H   0  0  0  0  0  0  0  0  0  0  0  0
   -1.3459    2.8108    1.7664 H   0  0  0  0  0  0  0  0  0  0  0  0
    0.1371    6.4346    0.1572 H   0  0  0  0  0  0  0  0  0  0  0  0
   -1.1100    6.9570   -2.4060 H   0  0  0  0  0  0  0  0  0  0  0  0
   -1.3385    7.3719   -4.2752 H   0  0  0  0  0  0  0  0  0  0  0  0
   -2.0674    8.4254   -6.4071 H   0  0  0  0  0  0  0  0  0  0  0  0
   -4.1406    7.6292   -7.5611 H   0  0  0  0  0  0  0  0  0  0  0  0
   -9.8008    6.5971   -6.9611 H   0  0  0  0  0  0  0  0  0  0  0  0
  -11.5643    8.2751   -6.6938 H   0  0  0  0  0  0  0  0  0  0  0  0
   -9.3690   12.3650   -7.7910 H   0  0  0  0  0  0  0  0  0  0  0  0
   -6.8376   12.4505   -8.4697 H   0  0  0  0  0  0  0  0  0  0  0  0
   -5.9658    9.9218   -8.3928 H   0  0  0  0  0  0  0  0  0  0  0  0
  1  2  2  0
  2  3  1  0
  3  4  1  0
  4  5  1  0
  5  6  2  0
  6  7  1  0
  7  8  2  0
  8  9  1  0
  9 10  2  0
 10 11  1  0
 11 12  2  0
 12 13  1  0
 13 14  2  0
 14 15  1  0
 15 16  2  0
 16 17  1  0
 17 18  2  0
 18 19  1  0
 19 20  2  0
 20 21  1  0
 12 22  1  0
 22 23  2  0
 23 24  1  0
 24 25  2  0
  2 26  1  0
 26 27  2  0
 27 28  1  0
 28 29  2  0
 29 30  1  0
 30 31  1  0
 31 32  1  0
 32 33  2  0
 33 34  1  0
 25  4  1  0
 34 26  1  0
 10  5  1  0
 25 11  1  0
 34 30  2  0
 21 13  1  0
 20 15  1  0
  3 35  1  0
  4 36  1  6
  6 37  1  0
  7 38  1  0
  8 39  1  0
  9 40  1  0
 16 41  1  0
 17 42  1  0
 19 43  1  0
 21 44  1  0
 22 45  1  0
 23 46  1  0
 24 47  1  0
 27 48  1  0
 28 49  1  0
 31 50  1  0
 32 51  1  0
 33 52  1  0
M  END
>  <meeko>  (8) 
{"is_sidechain": [false], "free_energy": -7.655, "intermolecular_energy": -10.116, "internal_energy": -0.014}

$$$$
2yki_ligand
     RDKit          3D

 52 58  0  0  0  0  0  0  0  0999 V2000
   -8.2610    7.2590   -7.5270 O   0  0  0  0  0  0  0  0  0  0  0  0
   -7.0560    7.1260   -7.6960 C   0  0  0  0  0  0  0  0  0  0  0  0
   -6.2210    6.5400   -6.7740 N   0  0  0  0  0  0  0  0  0  0  0  0
   -6.7320    5.9540   -5.5580 C   0  0  2  0  0  0  0  0  0  0  0  0
   -6.3650    6.8010   -4.3540 C   0  0  0  0  0  0  0  0  0  0  0  0
   -6.7690    8.1030   -4.0890 C   0  0  0  0  0  0  0  0  0  0  0  0
   -6.3760    8.6800   -2.8840 C   0  0  0  0  0  0  0  0  0  0  0  0
   -5.6110    7.9490   -1.9620 C   0  0  0  0  0  0  0  0  0  0  0  0
   -5.2110    6.6370   -2.2380 C   0  0  0  0  0  0  0  0  0  0  0  0
   -5.5600    6.0660   -3.4540 C   0  0  0  0  0  0  0  0  0  0  0  0
   -5.3050    4.7430   -4.0180 C   0  0  0  0  0  0  0  0  0  0  0  0
   -4.5430    3.6570   -3.5860 C   0  0  0  0  0  0  0  0  0  0  0  0
   -3.6490    3.6890   -2.4350 C   0  0  0  0  0  0  0  0  0  0  0  0
   -3.5670    2.7890   -1.4730 N   0  0  0  0  0  0  0  0  0  0  0  0
   -2.5560    3.2120   -0.6440 C   0  0  0  0  0  0  0  0  0  0  0  0
   -2.0700    2.6460    0.5330 C   0  0  0  0  0  0  0  0  0  0  0  0
   -1.0260    3.3290    1.1380 C   0  0  0  0  0  0  0  0  0  0  0  0
   -0.4680    4.4720    0.6700 N   0  0  0  0  0  0  0  0  0  0  0  0
   -0.9410    5.0170   -0.4760 C   0  0  0  0  0  0  0  0  0  0  0  0
   -1.9850    4.3820   -1.1250 C   0  0  0  0  0  0  0  0  0  0  0  0
   -2.6790    4.6540   -2.2710 N   0  0  0  0  0  0  0  0  0  0  0  0
   -4.5970    2.4680   -4.3410 C   0  0  0  0  0  0  0  0  0  0  0  0
   -5.3480    2.3780   -5.5230 C   0  0  0  0  0  0  0  0  0  0  0  0
   -6.0590    3.4790   -5.9890 C   0  0  0  0  0  0  0  0  0  0  0  0
   -6.0260    4.6460   -5.2380 C   0  0  0  0  0  0  0  0  0  0  0  0
   -6.4060    7.6120   -8.9340 C   0  0  0  0  0  0  0  0  0  0  0  0
   -6.5310    8.9410   -9.3550 C   0  0  0  0  0  0  0  0  0  0  0  0
   -5.8950    9.3320  -10.5230 C   0  0  0  0  0  0  0  0  0  0  0  0
   -5.1470    8.5370  -11.3170 N   0  0  0  0  0  0  0  0  0  0  0  0
   -5.0420    7.2770  -10.8580 C   0  0  0  0  0  0  0  0  0  0  0  0
   -4.3260    6.2890  -11.4780 N   0  0  0  0  0  0  0  0  0  0  0  0
   -4.4210    5.1250  -10.7590 C   0  0  0  0  0  0  0  0  0  0  0  0
   -5.2140    5.3760   -9.6580 C   0  0  0  0  0  0  0  0  0  0  0  0
   -5.6150    6.7420   -9.7090 C   0  0  0  0  0  0  0  0  0  0  0  0
   -5.2270    6.4780   -6.9370 H   0  0  0  0  0  0  0  0  0  0  0  0
   -7.8144    5.8478   -5.7229 H   0  0  0  0  0  0  0  0  0  0  0  0
   -7.3822    8.6628   -4.8106 H   0  0  0  0  0  0  0  0  0  0  0  0
   -6.6671    9.7154   -2.6534 H   0  0  0  0  0  0  0  0  0  0  0  0
   -5.3216    8.4144   -1.0083 H   0  0  0  0  0  0  0  0  0  0  0  0
   -4.6276    6.0656   -1.5010 H   0  0  0  0  0  0  0  0  0  0  0  0
   -2.4868    1.7192    0.9540 H   0  0  0  0  0  0  0  0  0  0  0  0
   -0.6190    2.9106    2.0704 H   0  0  0  0  0  0  0  0  0  0  0  0
   -0.5056    5.9424   -0.8812 H   0  0  0  0  0  0  0  0  0  0  0  0
   -2.5280    5.4330   -2.8950 H   0  0  0  0  0  0  0  0  0  0  0  0
   -4.0358    1.5876   -3.9946 H   0  0  0  0  0  0  0  0  0  0  0  0
   -5.3746    1.4321   -6.0838 H   0  0  0  0  0  0  0  0  0  0  0  0
   -6.6316    3.4264   -6.9267 H   0  0  0  0  0  0  0  0  0  0  0  0
   -7.1224    9.6611   -8.7704 H   0  0  0  0  0  0  0  0  0  0  0  0
   -6.0100   10.3821  -10.8296 H   0  0  0  0  0  0  0  0  0  0  0  0
   -3.8090    6.4260  -12.3340 H   0  0  0  0  0  0  0  0  0  0  0  0
   -3.9499    4.1643  -11.0141 H   0  0  0  0  0  0  0  0  0  0  0  0
   -5.4881    4.6497   -8.8787 H   0  0  0  0  0  0  0  0  0  0  0  0
  1  2  2  0
  2  3  1  0
  3  4  1  0
  4  5  1  0
  5  6  2  0
  6  7  1  0
  7  8  2  0
  8  9  1  0
  9 10  2  0
 10 11  1  0
 11 12  2  0
 12 13  1  0
 13 14  2  0
 14 15  1  0
 15 16  2  0
 16 17  1  0
 17 18  2  0
 18 19  1  0
 19 20  2  0
 20 21  1  0
 12 22  1  0
 22 23  2  0
 23 24  1  0
 24 25  2  0
  2 26  1  0
 26 27  2  0
 27 28  1  0
 28 29  2  0
 29 30  1  0
 30 31  1  0
 31 32  1  0
 32 33  2  0
 33 34  1  0
 25  4  1  0
 34 26  1  0
 10  5  1  0
 25 11  1  0
 34 30  2  0
 21 13  1  0
 20 15  1  0
  3 35  1  0
  4 36  1  6
  6 37  1  0
  7 38  1  0
  8 39  1  0
  9 40  1  0
 16 41  1  0
 17 42  1  0
 19 43  1  0
 21 44  1  0
 22 45  1  0
 23 46  1  0
 24 47  1  0
 27 48  1  0
 28 49  1  0
 31 50  1  0
 32 51  1  0
 33 52  1  0
M  END
>  <meeko>  (9) 
{"is_sidechain": [false], "free_energy": -7.623, "intermolecular_energy": -9.242, "internal_energy": -0.852}

$$$$
