
     RDKit          3D

 32 35  0  0  0  0  0  0  0  0999 V2000
    2.4350   -0.0450   13.3620 C   0  0  0  0  0  0  0  0  0  0  0  0
    2.3300   -0.2600   11.8760 C   0  0  2  0  0  0  0  0  0  0  0  0
    1.1140    0.4410   11.3280 C   0  0  0  0  0  0  0  0  0  0  0  0
    1.0430    0.2540    9.8530 C   0  0  2  0  0  0  0  0  0  0  0  0
   -0.1270    0.9680    9.3040 N   0  0  0  0  0  0  0  0  0  0  0  0
    0.9910   -1.1900    9.4940 C   0  0  0  0  0  0  0  0  0  0  0  0
    2.1700   -1.9120   10.0620 C   0  0  2  0  0  0  0  0  0  0  0  0
    2.2550   -3.3520    9.6800 C   0  0  0  0  0  0  0  0  0  0  0  0
    1.1610   -4.1950    9.6640 C   0  0  0  0  0  0  0  0  0  0  0  0
    1.3010   -5.5230    9.2800 C   0  0  0  0  0  0  0  0  0  0  0  0
    2.4880   -6.0140    8.9170 N   0  0  0  0  0  0  0  0  0  0  0  0
    3.5840   -5.1970    8.9250 C   0  0  0  0  0  0  0  0  0  0  0  0
    3.5020   -3.8730    9.3170 C   0  0  0  0  0  0  0  0  0  0  0  0
    4.5830   -3.0260    9.3810 N   0  0  0  0  0  0  0  0  0  0  0  0
    5.7820   -3.1980    8.7730 C   0  0  0  0  0  0  0  0  0  0  0  0
    6.0960   -4.1690    8.1190 O   0  0  0  0  0  0  0  0  0  0  0  0
    6.6930   -2.0590    8.9650 C   0  0  0  0  0  0  0  0  0  0  0  0
    7.9720   -2.1190    8.4530 C   0  0  0  0  0  0  0  0  0  0  0  0
    8.7910   -1.0430    8.6130 C   0  0  0  0  0  0  0  0  0  0  0  0
    8.3450    0.0580    9.2690 C   0  0  0  0  0  0  0  0  0  0  0  0
    9.1420    1.1260    9.4090 F   0  0  0  0  0  0  0  0  0  0  0  0
    7.0520    0.0880    9.7920 C   0  0  0  0  0  0  0  0  0  0  0  0
    6.5100    1.2660   10.5190 C   0  0  0  0  0  0  0  0  0  0  0  0
    5.1840    1.6540   10.3600 C   0  0  0  0  0  0  0  0  0  0  0  0
    4.3740    0.9660    9.5590 F   0  0  0  0  0  0  0  0  0  0  0  0
    4.6770    2.7600   11.0130 C   0  0  0  0  0  0  0  0  0  0  0  0
    5.4920    3.4920   11.8410 C   0  0  0  0  0  0  0  0  0  0  0  0
    6.8010    3.1330   12.0290 C   0  0  0  0  0  0  0  0  0  0  0  0
    7.2910    2.0090   11.3590 C   0  0  0  0  0  0  0  0  0  0  0  0
    8.5830    1.6760   11.5700 F   0  0  0  0  0  0  0  0  0  0  0  0
    6.2480   -0.9800    9.6290 N   0  0  0  0  0  0  0  0  0  0  0  0
    2.2940   -1.7130   11.5410 C   0  0  0  0  0  0  0  0  0  0  0  0
  2  1  1  1
  3  2  1  0
  4  3  1  0
  4  5  1  1
  6  4  1  0
  7  6  1  0
  7  8  1  1
  9  8  2  0
 10  9  1  0
 11 10  2  0
 12 11  1  0
 13 12  2  0
 13  8  1  0
 14 13  1  0
 15 14  1  0
 16 15  2  0
 17 15  1  0
 18 17  2  0
 19 18  1  0
 20 19  2  0
 21 20  1  0
 22 20  1  0
 23 22  1  0
 24 23  2  0
 25 24  1  0
 26 24  1  0
 27 26  2  0
 28 27  1  0
 29 23  1  0
 29 28  2  0
 30 29  1  0
 31 22  2  0
 31 17  1  0
 32  7  1  0
 32  2  1  0
M  CHG  1   5   1
M  END
$$$$
