3f3a_ligand
     RDKit          3D

 27 28  0  0  0  0  0  0  0  0999 V2000
   -5.4900   -1.1080   -1.3350 N   0  0  0  0  0  0  0  0  0  0  0  0
   -4.0320   -1.1180   -0.8830 C   0  0  1  0  0  0  0  0  0  0  0  0
   -3.5520   -2.5400   -0.6150 C   0  0  0  0  0  0  0  0  0  0  0  0
   -2.8440   -2.6670    0.7020 C   0  0  0  0  0  0  0  0  0  0  0  0
   -1.5900   -2.1730    1.0070 C   0  0  0  0  0  0  0  0  0  0  0  0
   -1.3120   -2.4760    2.3120 N   0  0  0  0  0  0  0  0  0  0  0  0
   -2.3740   -3.1420    2.8800 C   0  0  0  0  0  0  0  0  0  0  0  0
   -2.5390   -3.6240    4.1850 C   0  0  0  0  0  0  0  0  0  0  0  0
   -3.7290   -4.2950    4.4800 C   0  0  0  0  0  0  0  0  0  0  0  0
   -4.7070   -4.4840    3.5080 C   0  0  0  0  0  0  0  0  0  0  0  0
   -4.5250   -3.9960    2.2090 C   0  0  0  0  0  0  0  0  0  0  0  0
   -3.3390   -3.3040    1.8870 C   0  0  0  0  0  0  0  0  0  0  0  0
   -3.1710   -0.4320   -1.9750 C   0  0  0  0  0  0  0  0  0  0  0  0
   -2.1280    0.1520   -1.6200 O   0  0  0  0  0  0  0  0  0  0  0  0
   -3.7120   -0.6170   -3.1170 O   0  0  0  0  0  0  0  0  0  0  0  0
   -5.9140   -0.4600   -0.6260 H   0  0  0  0  0  0  0  0  0  0  0  0
   -5.9350   -2.0230   -1.3060 H   0  0  0  0  0  0  0  0  0  0  0  0
   -5.6080   -0.6470   -2.2390 H   0  0  0  0  0  0  0  0  0  0  0  0
   -3.9346   -0.5636    0.0620 H   0  0  0  0  0  0  0  0  0  0  0  0
   -4.4226   -3.2123   -0.6141 H   0  0  0  0  0  0  0  0  0  0  0  0
   -2.8368   -2.8070   -1.4070 H   0  0  0  0  0  0  0  0  0  0  0  0
   -0.9278   -1.6286    0.3177 H   0  0  0  0  0  0  0  0  0  0  0  0
   -0.4520   -2.2520    2.7950 H   0  0  0  0  0  0  0  0  0  0  0  0
   -1.7609   -3.4797    4.9491 H   0  0  0  0  0  0  0  0  0  0  0  0
   -3.8953   -4.6800    5.4969 H   0  0  0  0  0  0  0  0  0  0  0  0
   -5.6319   -5.0221    3.7632 H   0  0  0  0  0  0  0  0  0  0  0  0
   -5.3010   -4.1510    1.4450 H   0  0  0  0  0  0  0  0  0  0  0  0
  1  2  1  0
  2  3  1  0
  3  4  1  0
  4  5  2  0
  5  6  1  0
  6  7  1  0
  7  8  2  0
  8  9  1  0
  9 10  2  0
 10 11  1  0
 11 12  2  0
  2 13  1  0
 13 14  2  0
 13 15  1  0
 12  4  1  0
 12  7  1  0
  1 16  1  0
  1 17  1  0
  1 18  1  0
  2 19  1  1
  3 20  1  0
  3 21  1  0
  5 22  1  0
  6 23  1  0
  8 24  1  0
  9 25  1  0
 10 26  1  0
 11 27  1  0
M  CHG  2   1   1  15  -1
M  END
>  <meeko>  (1) 
{"is_sidechain": [false], "free_energy": -7.796, "intermolecular_energy": -9.391, "internal_energy": -0.264}

$$$$
3f3a_ligand
     RDKit          3D

 27 28  0  0  0  0  0  0  0  0999 V2000
    3.5530   -0.7100    2.4270 N   0  0  0  0  0  0  0  0  0  0  0  0
    3.5110   -0.0880    3.8200 C   0  0  1  0  0  0  0  0  0  0  0  0
    2.3990   -0.7050    4.6620 C   0  0  0  0  0  0  0  0  0  0  0  0
    1.0890   -0.7590    3.9300 C   0  0  0  0  0  0  0  0  0  0  0  0
    0.3820    0.3220    3.4410 C   0  0  0  0  0  0  0  0  0  0  0  0
   -0.7450   -0.1440    2.8200 N   0  0  0  0  0  0  0  0  0  0  0  0
   -0.7790   -1.5190    2.8720 C   0  0  0  0  0  0  0  0  0  0  0  0
   -1.7240   -2.4150    2.3570 C   0  0  0  0  0  0  0  0  0  0  0  0
   -1.5140   -3.7780    2.5850 C   0  0  0  0  0  0  0  0  0  0  0  0
   -0.4110   -4.2230    3.3050 C   0  0  0  0  0  0  0  0  0  0  0  0
    0.5240   -3.3130    3.8140 C   0  0  0  0  0  0  0  0  0  0  0  0
    0.3430   -1.9330    3.5880 C   0  0  0  0  0  0  0  0  0  0  0  0
    4.8950   -0.2820    4.4910 C   0  0  0  0  0  0  0  0  0  0  0  0
    5.9100   -0.2340    3.7680 O   0  0  0  0  0  0  0  0  0  0  0  0
    4.7360   -0.4500    5.7470 O   0  0  0  0  0  0  0  0  0  0  0  0
    3.1080    0.0500    1.8560 H   0  0  0  0  0  0  0  0  0  0  0  0
    3.0300   -1.5800    2.3500 H   0  0  0  0  0  0  0  0  0  0  0  0
    4.5080   -0.7980    2.0760 H   0  0  0  0  0  0  0  0  0  0  0  0
    3.2918    0.9868    3.7373 H   0  0  0  0  0  0  0  0  0  0  0  0
    2.6917   -1.7287    4.9382 H   0  0  0  0  0  0  0  0  0  0  0  0
    2.2606   -0.0715    5.5506 H   0  0  0  0  0  0  0  0  0  0  0  0
    0.6750    1.3781    3.5348 H   0  0  0  0  0  0  0  0  0  0  0  0
   -1.4570    0.4310    2.3890 H   0  0  0  0  0  0  0  0  0  0  0  0
   -2.5993   -2.0593    1.7938 H   0  0  0  0  0  0  0  0  0  0  0  0
   -2.2328   -4.5102    2.1885 H   0  0  0  0  0  0  0  0  0  0  0  0
   -0.2713   -5.3005    3.4766 H   0  0  0  0  0  0  0  0  0  0  0  0
    1.3926   -3.6719    4.3855 H   0  0  0  0  0  0  0  0  0  0  0  0
  1  2  1  0
  2  3  1  0
  3  4  1  0
  4  5  2  0
  5  6  1  0
  6  7  1  0
  7  8  2  0
  8  9  1  0
  9 10  2  0
 10 11  1  0
 11 12  2  0
  2 13  1  0
 13 14  2  0
 13 15  1  0
 12  4  1  0
 12  7  1  0
  1 16  1  0
  1 17  1  0
  1 18  1  0
  2 19  1  6
  3 20  1  0
  3 21  1  0
  5 22  1  0
  6 23  1  0
  8 24  1  0
  9 25  1  0
 10 26  1  0
 11 27  1  0
M  CHG  2   1   1  15  -1
M  END
>  <meeko>  (2) 
{"is_sidechain": [false], "free_energy": -7.682, "intermolecular_energy": -9.318, "internal_energy": -0.2}

$$$$
3f3a_ligand
     RDKit          3D

 27 28  0  0  0  0  0  0  0  0999 V2000
   -3.6460   -2.9770   -0.5750 N   0  0  0  0  0  0  0  0  0  0  0  0
   -2.7580   -2.4440    0.5470 C   0  0  1  0  0  0  0  0  0  0  0  0
   -1.6600   -3.4430    0.8950 C   0  0  0  0  0  0  0  0  0  0  0  0
   -1.6260   -3.7720    2.3590 C   0  0  0  0  0  0  0  0  0  0  0  0
   -0.5180   -3.7230    3.1820 C   0  0  0  0  0  0  0  0  0  0  0  0
   -0.9050   -4.0710    4.4480 N   0  0  0  0  0  0  0  0  0  0  0  0
   -2.2570   -4.3260    4.4770 C   0  0  0  0  0  0  0  0  0  0  0  0
   -3.0800   -4.6930    5.5480 C   0  0  0  0  0  0  0  0  0  0  0  0
   -4.4330   -4.9170    5.2770 C   0  0  0  0  0  0  0  0  0  0  0  0
   -4.9370   -4.7870    3.9870 C   0  0  0  0  0  0  0  0  0  0  0  0
   -4.1000   -4.4190    2.9270 C   0  0  0  0  0  0  0  0  0  0  0  0
   -2.7330   -4.1760    3.1750 C   0  0  0  0  0  0  0  0  0  0  0  0
   -2.1590   -1.0850    0.1010 C   0  0  0  0  0  0  0  0  0  0  0  0
   -2.8920   -0.3010   -0.5350 O   0  0  0  0  0  0  0  0  0  0  0  0
   -0.9520   -1.0020    0.5080 O   0  0  0  0  0  0  0  0  0  0  0  0
   -3.0370   -2.8030   -1.4120 H   0  0  0  0  0  0  0  0  0  0  0  0
   -4.5350   -2.4880   -0.6600 H   0  0  0  0  0  0  0  0  0  0  0  0
   -3.7630   -3.9900   -0.5220 H   0  0  0  0  0  0  0  0  0  0  0  0
   -3.3591   -2.2975    1.4565 H   0  0  0  0  0  0  0  0  0  0  0  0
   -1.8340   -4.3700    0.3290 H   0  0  0  0  0  0  0  0  0  0  0  0
   -0.6952   -2.9844    0.6327 H   0  0  0  0  0  0  0  0  0  0  0  0
    0.5019   -3.4507    2.8728 H   0  0  0  0  0  0  0  0  0  0  0  0
   -0.2920   -4.1400    5.2500 H   0  0  0  0  0  0  0  0  0  0  0  0
   -2.6769   -4.8012    6.5657 H   0  0  0  0  0  0  0  0  0  0  0  0
   -5.1096   -5.2005    6.0966 H   0  0  0  0  0  0  0  0  0  0  0  0
   -6.0041   -4.9753    3.7979 H   0  0  0  0  0  0  0  0  0  0  0  0
   -4.5051   -4.3202    1.9091 H   0  0  0  0  0  0  0  0  0  0  0  0
  1  2  1  0
  2  3  1  0
  3  4  1  0
  4  5  2  0
  5  6  1  0
  6  7  1  0
  7  8  2  0
  8  9  1  0
  9 10  2  0
 10 11  1  0
 11 12  2  0
  2 13  1  0
 13 14  2  0
 13 15  1  0
 12  4  1  0
 12  7  1  0
  1 16  1  0
  1 17  1  0
  1 18  1  0
  2 19  1  1
  3 20  1  0
  3 21  1  0
  5 22  1  0
  6 23  1  0
  8 24  1  0
  9 25  1  0
 10 26  1  0
 11 27  1  0
M  CHG  2   1   1  15  -1
M  END
>  <meeko>  (3) 
{"is_sidechain": [false], "free_energy": -7.671, "intermolecular_energy": -9.404, "internal_energy": -0.101}

$$$$
3f3a_ligand
     RDKit          3D

 27 28  0  0  0  0  0  0  0  0999 V2000
   -1.3920   -1.7680    2.8430 N   0  0  0  0  0  0  0  0  0  0  0  0
   -0.7870   -3.1180    3.2200 C   0  0  1  0  0  0  0  0  0  0  0  0
    0.5390   -2.9370    3.9510 C   0  0  0  0  0  0  0  0  0  0  0  0
    1.5530   -2.1990    3.1260 C   0  0  0  0  0  0  0  0  0  0  0  0
    1.8570   -2.4390    1.8000 C   0  0  0  0  0  0  0  0  0  0  0  0
    2.8140   -1.5410    1.4080 N   0  0  0  0  0  0  0  0  0  0  0  0
    3.1270   -0.6980    2.4490 C   0  0  0  0  0  0  0  0  0  0  0  0
    4.0280    0.3730    2.4990 C   0  0  0  0  0  0  0  0  0  0  0  0
    4.1640    1.0470    3.7160 C   0  0  0  0  0  0  0  0  0  0  0  0
    3.4360    0.6590    4.8360 C   0  0  0  0  0  0  0  0  0  0  0  0
    2.5400   -0.4140    4.7690 C   0  0  0  0  0  0  0  0  0  0  0  0
    2.3740   -1.1050    3.5500 C   0  0  0  0  0  0  0  0  0  0  0  0
   -1.8080   -3.8910    4.0930 C   0  0  0  0  0  0  0  0  0  0  0  0
   -1.3680   -4.6250    5.0010 O   0  0  0  0  0  0  0  0  0  0  0  0
   -2.9920   -3.6040    3.7120 O   0  0  0  0  0  0  0  0  0  0  0  0
   -1.7260   -1.4300    3.7780 H   0  0  0  0  0  0  0  0  0  0  0  0
   -2.1630   -1.8350    2.1810 H   0  0  0  0  0  0  0  0  0  0  0  0
   -0.6800   -1.0990    2.5430 H   0  0  0  0  0  0  0  0  0  0  0  0
   -0.5745   -3.6957    2.3084 H   0  0  0  0  0  0  0  0  0  0  0  0
    0.3574   -2.3709    4.8765 H   0  0  0  0  0  0  0  0  0  0  0  0
    0.9439   -3.9377    4.1625 H   0  0  0  0  0  0  0  0  0  0  0  0
    1.4073   -3.2182    1.1671 H   0  0  0  0  0  0  0  0  0  0  0  0
    3.2380   -1.5010    0.4900 H   0  0  0  0  0  0  0  0  0  0  0  0
    4.6073    0.6728    1.6132 H   0  0  0  0  0  0  0  0  0  0  0  0
    4.8576    1.8976    3.7892 H   0  0  0  0  0  0  0  0  0  0  0  0
    3.5659    1.2012    5.7842 H   0  0  0  0  0  0  0  0  0  0  0  0
    1.9696   -0.7163    5.6597 H   0  0  0  0  0  0  0  0  0  0  0  0
  1  2  1  0
  2  3  1  0
  3  4  1  0
  4  5  2  0
  5  6  1  0
  6  7  1  0
  7  8  2  0
  8  9  1  0
  9 10  2  0
 10 11  1  0
 11 12  2  0
  2 13  1  0
 13 14  2  0
 13 15  1  0
 12  4  1  0
 12  7  1  0
  1 16  1  0
  1 17  1  0
  1 18  1  0
  2 19  1  6
  3 20  1  0
  3 21  1  0
  5 22  1  0
  6 23  1  0
  8 24  1  0
  9 25  1  0
 10 26  1  0
 11 27  1  0
M  CHG  2   1   1  15  -1
M  END
>  <meeko>  (4) 
{"is_sidechain": [false], "free_energy": -7.648, "intermolecular_energy": -9.302, "internal_energy": -0.175}

$$$$
3f3a_ligand
     RDKit          3D

 27 28  0  0  0  0  0  0  0  0999 V2000
    2.7790   -1.7880    2.0340 N   0  0  0  0  0  0  0  0  0  0  0  0
    1.3780   -1.6980    2.6320 C   0  0  1  0  0  0  0  0  0  0  0  0
    0.8190   -3.0850    2.9280 C   0  0  0  0  0  0  0  0  0  0  0  0
   -0.6800   -3.1250    2.8680 C   0  0  0  0  0  0  0  0  0  0  0  0
   -1.4720   -2.5980    1.8660 C   0  0  0  0  0  0  0  0  0  0  0  0
   -2.7810   -2.8600    2.1680 N   0  0  0  0  0  0  0  0  0  0  0  0
   -2.8630   -3.5710    3.3420 C   0  0  0  0  0  0  0  0  0  0  0  0
   -3.9860   -4.0670    4.0170 C   0  0  0  0  0  0  0  0  0  0  0  0
   -3.7710   -4.7410    5.2220 C   0  0  0  0  0  0  0  0  0  0  0  0
   -2.4870   -4.9040    5.7330 C   0  0  0  0  0  0  0  0  0  0  0  0
   -1.3760   -4.4020    5.0460 C   0  0  0  0  0  0  0  0  0  0  0  0
   -1.5630   -3.7280    3.8220 C   0  0  0  0  0  0  0  0  0  0  0  0
    1.4430   -0.8330    3.9170 C   0  0  0  0  0  0  0  0  0  0  0  0
    2.4080   -1.0020    4.6900 O   0  0  0  0  0  0  0  0  0  0  0  0
    0.4420   -0.0400    3.9440 O   0  0  0  0  0  0  0  0  0  0  0  0
    2.7180   -1.0670    1.2730 H   0  0  0  0  0  0  0  0  0  0  0  0
    3.0040   -2.7040    1.6520 H   0  0  0  0  0  0  0  0  0  0  0  0
    3.4940   -1.4500    2.6800 H   0  0  0  0  0  0  0  0  0  0  0  0
    0.6972   -1.2266    1.9079 H   0  0  0  0  0  0  0  0  0  0  0  0
    1.2207   -3.7926    2.1878 H   0  0  0  0  0  0  0  0  0  0  0  0
    1.1200   -3.3555    3.9508 H   0  0  0  0  0  0  0  0  0  0  0  0
   -1.1119   -2.0596    0.9770 H   0  0  0  0  0  0  0  0  0  0  0  0
   -3.5780   -2.5700    1.6160 H   0  0  0  0  0  0  0  0  0  0  0  0
   -5.0001   -3.9308    3.6131 H   0  0  0  0  0  0  0  0  0  0  0  0
   -4.6299   -5.1490    5.7751 H   0  0  0  0  0  0  0  0  0  0  0  0
   -2.3438   -5.4329    6.6868 H   0  0  0  0  0  0  0  0  0  0  0  0
   -0.3644   -4.5323    5.4579 H   0  0  0  0  0  0  0  0  0  0  0  0
  1  2  1  0
  2  3  1  0
  3  4  1  0
  4  5  2  0
  5  6  1  0
  6  7  1  0
  7  8  2  0
  8  9  1  0
  9 10  2  0
 10 11  1  0
 11 12  2  0
  2 13  1  0
 13 14  2  0
 13 15  1  0
 12  4  1  0
 12  7  1  0
  1 16  1  0
  1 17  1  0
  1 18  1  0
  2 19  1  6
  3 20  1  0
  3 21  1  0
  5 22  1  0
  6 23  1  0
  8 24  1  0
  9 25  1  0
 10 26  1  0
 11 27  1  0
M  CHG  2   1   1  15  -1
M  END
>  <meeko>  (5) 
{"is_sidechain": [false], "free_energy": -7.631, "intermolecular_energy": -9.193, "internal_energy": -0.264}

$$$$
3f3a_ligand
     RDKit          3D

 27 28  0  0  0  0  0  0  0  0999 V2000
   -0.5020   -0.7060    3.5910 N   0  0  0  0  0  0  0  0  0  0  0  0
    0.9580   -0.9800    3.2420 C   0  0  1  0  0  0  0  0  0  0  0  0
    1.8940   -0.3280    4.2540 C   0  0  0  0  0  0  0  0  0  0  0  0
    3.2600   -0.0680    3.6880 C   0  0  0  0  0  0  0  0  0  0  0  0
    3.5460    0.3450    2.4010 C   0  0  0  0  0  0  0  0  0  0  0  0
    4.9020    0.4900    2.2850 N   0  0  0  0  0  0  0  0  0  0  0  0
    5.5120    0.2020    3.4840 C   0  0  0  0  0  0  0  0  0  0  0  0
    6.8680    0.2350    3.8330 C   0  0  0  0  0  0  0  0  0  0  0  0
    7.2100   -0.1390    5.1360 C   0  0  0  0  0  0  0  0  0  0  0  0
    6.2360   -0.5370    6.0470 C   0  0  0  0  0  0  0  0  0  0  0  0
    4.8850   -0.5650    5.6810 C   0  0  0  0  0  0  0  0  0  0  0  0
    4.5120   -0.1810    4.3760 C   0  0  0  0  0  0  0  0  0  0  0  0
    1.1750   -2.5140    3.1840 C   0  0  0  0  0  0  0  0  0  0  0  0
    1.9250   -2.9680    2.2970 O   0  0  0  0  0  0  0  0  0  0  0  0
    0.5170   -3.0690    4.1280 O   0  0  0  0  0  0  0  0  0  0  0  0
   -0.4260    0.2400    4.0390 H   0  0  0  0  0  0  0  0  0  0  0  0
   -0.9040   -1.3850    4.2350 H   0  0  0  0  0  0  0  0  0  0  0  0
   -1.0770   -0.5740    2.7580 H   0  0  0  0  0  0  0  0  0  0  0  0
    1.1910   -0.5411    2.2606 H   0  0  0  0  0  0  0  0  0  0  0  0
    1.4564    0.6292    4.5738 H   0  0  0  0  0  0  0  0  0  0  0  0
    2.0087   -1.0223    5.0995 H   0  0  0  0  0  0  0  0  0  0  0  0
    2.8091    0.5265    1.6048 H   0  0  0  0  0  0  0  0  0  0  0  0
    5.3920    0.7640    1.4440 H   0  0  0  0  0  0  0  0  0  0  0  0
    7.6358    0.5439    3.1084 H   0  0  0  0  0  0  0  0  0  0  0  0
    8.2652   -0.1184    5.4460 H   0  0  0  0  0  0  0  0  0  0  0  0
    6.5306   -0.8325    7.0648 H   0  0  0  0  0  0  0  0  0  0  0  0
    4.1207   -0.8838    6.4051 H   0  0  0  0  0  0  0  0  0  0  0  0
  1  2  1  0
  2  3  1  0
  3  4  1  0
  4  5  2  0
  5  6  1  0
  6  7  1  0
  7  8  2  0
  8  9  1  0
  9 10  2  0
 10 11  1  0
 11 12  2  0
  2 13  1  0
 13 14  2  0
 13 15  1  0
 12  4  1  0
 12  7  1  0
  1 16  1  0
  1 17  1  0
  1 18  1  0
  2 19  1  6
  3 20  1  0
  3 21  1  0
  5 22  1  0
  6 23  1  0
  8 24  1  0
  9 25  1  0
 10 26  1  0
 11 27  1  0
M  CHG  2   1   1  15  -1
M  END
>  <meeko>  (6) 
{"is_sidechain": [false], "free_energy": -7.626, "intermolecular_energy": -9.175, "internal_energy": -0.275}

$$$$
3f3a_ligand
     RDKit          3D

 27 28  0  0  0  0  0  0  0  0999 V2000
    5.6950    2.7950   -2.0170 N   0  0  0  0  0  0  0  0  0  0  0  0
    4.5360    2.1690   -1.2460 C   0  0  1  0  0  0  0  0  0  0  0  0
    4.4210    2.7670    0.1510 C   0  0  0  0  0  0  0  0  0  0  0  0
    4.2970    1.7170    1.2170 C   0  0  0  0  0  0  0  0  0  0  0  0
    3.2140    0.8850    1.4210 C   0  0  0  0  0  0  0  0  0  0  0  0
    3.4980    0.0560    2.4730 N   0  0  0  0  0  0  0  0  0  0  0  0
    4.7630    0.3140    2.9490 C   0  0  0  0  0  0  0  0  0  0  0  0
    5.4730   -0.2960    3.9910 C   0  0  0  0  0  0  0  0  0  0  0  0
    6.7500    0.1950    4.2780 C   0  0  0  0  0  0  0  0  0  0  0  0
    7.2890    1.2560    3.5580 C   0  0  0  0  0  0  0  0  0  0  0  0
    6.5650    1.8550    2.5190 C   0  0  0  0  0  0  0  0  0  0  0  0
    5.2790    1.3710    2.2010 C   0  0  0  0  0  0  0  0  0  0  0  0
    3.2310    2.3810   -2.0570 C   0  0  0  0  0  0  0  0  0  0  0  0
    2.3200    1.5390   -1.9330 O   0  0  0  0  0  0  0  0  0  0  0  0
    3.3250    3.4600   -2.7330 O   0  0  0  0  0  0  0  0  0  0  0  0
    6.5170    2.3520   -1.5360 H   0  0  0  0  0  0  0  0  0  0  0  0
    5.7330    3.8090   -1.9480 H   0  0  0  0  0  0  0  0  0  0  0  0
    5.7320    2.4690   -2.9850 H   0  0  0  0  0  0  0  0  0  0  0  0
    4.7167    1.0915   -1.1183 H   0  0  0  0  0  0  0  0  0  0  0  0
    5.3191    3.3695    0.3519 H   0  0  0  0  0  0  0  0  0  0  0  0
    3.5084    3.3805    0.1781 H   0  0  0  0  0  0  0  0  0  0  0  0
    2.2815    0.8878    0.8375 H   0  0  0  0  0  0  0  0  0  0  0  0
    2.8730   -0.6420    2.8540 H   0  0  0  0  0  0  0  0  0  0  0  0
    5.0415   -1.1309    4.5626 H   0  0  0  0  0  0  0  0  0  0  0  0
    7.3379   -0.2650    5.0860 H   0  0  0  0  0  0  0  0  0  0  0  0
    8.2937    1.6284    3.8069 H   0  0  0  0  0  0  0  0  0  0  0  0
    6.9959    2.6959    1.9558 H   0  0  0  0  0  0  0  0  0  0  0  0
  1  2  1  0
  2  3  1  0
  3  4  1  0
  4  5  2  0
  5  6  1  0
  6  7  1  0
  7  8  2  0
  8  9  1  0
  9 10  2  0
 10 11  1  0
 11 12  2  0
  2 13  1  0
 13 14  2  0
 13 15  1  0
 12  4  1  0
 12  7  1  0
  1 16  1  0
  1 17  1  0
  1 18  1  0
  2 19  1  1
  3 20  1  0
  3 21  1  0
  5 22  1  0
  6 23  1  0
  8 24  1  0
  9 25  1  0
 10 26  1  0
 11 27  1  0
M  CHG  2   1   1  15  -1
M  END
>  <meeko>  (7) 
{"is_sidechain": [false], "free_energy": -7.59, "intermolecular_energy": -9.147, "internal_energy": -0.26}

$$$$
3f3a_ligand
     RDKit          3D

 27 28  0  0  0  0  0  0  0  0999 V2000
    4.3120    3.5660   -0.4550 N   0  0  0  0  0  0  0  0  0  0  0  0
    4.3660    2.0900   -0.0690 C   0  0  1  0  0  0  0  0  0  0  0  0
    4.0090    1.8960    1.4010 C   0  0  0  0  0  0  0  0  0  0  0  0
    5.1510    1.3390    2.1990 C   0  0  0  0  0  0  0  0  0  0  0  0
    6.4900    1.4040    1.8660 C   0  0  0  0  0  0  0  0  0  0  0  0
    7.2130    0.8020    2.8600 N   0  0  0  0  0  0  0  0  0  0  0  0
    6.3720    0.3600    3.8550 C   0  0  0  0  0  0  0  0  0  0  0  0
    6.6670   -0.2890    5.0600 C   0  0  0  0  0  0  0  0  0  0  0  0
    5.5950   -0.6500    5.8810 C   0  0  0  0  0  0  0  0  0  0  0  0
    4.2820   -0.3800    5.5060 C   0  0  0  0  0  0  0  0  0  0  0  0
    4.0040    0.2700    4.2970 C   0  0  0  0  0  0  0  0  0  0  0  0
    5.0690    0.6560    3.4560 C   0  0  0  0  0  0  0  0  0  0  0  0
    3.3990    1.3020   -0.9900 C   0  0  0  0  0  0  0  0  0  0  0  0
    2.9940    0.1880   -0.6000 O   0  0  0  0  0  0  0  0  0  0  0  0
    3.1630    1.9890   -2.0400 O   0  0  0  0  0  0  0  0  0  0  0  0
    3.3740    3.6160   -0.9240 H   0  0  0  0  0  0  0  0  0  0  0  0
    5.0550    3.8510   -1.0900 H   0  0  0  0  0  0  0  0  0  0  0  0
    4.2460    4.1740    0.3630 H   0  0  0  0  0  0  0  0  0  0  0  0
    5.3896    1.7101   -0.2031 H   0  0  0  0  0  0  0  0  0  0  0  0
    3.7226    2.8692    1.8262 H   0  0  0  0  0  0  0  0  0  0  0  0
    3.1808    1.1739    1.4522 H   0  0  0  0  0  0  0  0  0  0  0  0
    6.9049    1.8620    0.9560 H   0  0  0  0  0  0  0  0  0  0  0  0
    8.2180    0.6880    2.8670 H   0  0  0  0  0  0  0  0  0  0  0  0
    7.7054   -0.5070    5.3502 H   0  0  0  0  0  0  0  0  0  0  0  0
    5.7919   -1.1552    6.8381 H   0  0  0  0  0  0  0  0  0  0  0  0
    3.4546   -0.6801    6.1657 H   0  0  0  0  0  0  0  0  0  0  0  0
    2.9639    0.4779    4.0055 H   0  0  0  0  0  0  0  0  0  0  0  0
  1  2  1  0
  2  3  1  0
  3  4  1  0
  4  5  2  0
  5  6  1  0
  6  7  1  0
  7  8  2  0
  8  9  1  0
  9 10  2  0
 10 11  1  0
 11 12  2  0
  2 13  1  0
 13 14  2  0
 13 15  1  0
 12  4  1  0
 12  7  1  0
  1 16  1  0
  1 17  1  0
  1 18  1  0
  2 19  1  1
  3 20  1  0
  3 21  1  0
  5 22  1  0
  6 23  1  0
  8 24  1  0
  9 25  1  0
 10 26  1  0
 11 27  1  0
M  CHG  2   1   1  15  -1
M  END
>  <meeko>  (8) 
{"is_sidechain": [false], "free_energy": -7.543, "intermolecular_energy": -9.118, "internal_energy": -0.233}

$$$$
3f3a_ligand
     RDKit          3D

 27 28  0  0  0  0  0  0  0  0999 V2000
   -0.5810   -0.7940    3.5570 N   0  0  0  0  0  0  0  0  0  0  0  0
    0.6130   -1.7430    3.5210 C   0  0  1  0  0  0  0  0  0  0  0  0
    0.1570   -3.1980    3.5560 C   0  0  0  0  0  0  0  0  0  0  0  0
   -1.2210   -3.3800    2.9890 C   0  0  0  0  0  0  0  0  0  0  0  0
   -1.6130   -3.1120    1.6910 C   0  0  0  0  0  0  0  0  0  0  0  0
   -2.9380   -3.4310    1.5660 N   0  0  0  0  0  0  0  0  0  0  0  0
   -3.4200   -3.9260    2.7560 C   0  0  0  0  0  0  0  0  0  0  0  0
   -4.7000   -4.3910    3.0830 C   0  0  0  0  0  0  0  0  0  0  0  0
   -4.9160   -4.8180    4.3960 C   0  0  0  0  0  0  0  0  0  0  0  0
   -3.8970   -4.7730    5.3420 C   0  0  0  0  0  0  0  0  0  0  0  0
   -2.6240   -4.3050    4.9980 C   0  0  0  0  0  0  0  0  0  0  0  0
   -2.3750   -3.8790    3.6770 C   0  0  0  0  0  0  0  0  0  0  0  0
    1.4440   -1.4470    2.2470 C   0  0  0  0  0  0  0  0  0  0  0  0
    1.0340   -0.5590    1.4720 O   0  0  0  0  0  0  0  0  0  0  0  0
    2.4750   -2.2010    2.2290 O   0  0  0  0  0  0  0  0  0  0  0  0
   -0.3110   -0.1630    4.3510 H   0  0  0  0  0  0  0  0  0  0  0  0
   -1.4680   -1.2570    3.7420 H   0  0  0  0  0  0  0  0  0  0  0  0
   -0.6200   -0.1960    2.7290 H   0  0  0  0  0  0  0  0  0  0  0  0
    1.2388   -1.5813    4.4111 H   0  0  0  0  0  0  0  0  0  0  0  0
    0.8632   -3.8037    2.9691 H   0  0  0  0  0  0  0  0  0  0  0  0
    0.1310   -3.5159    4.6087 H   0  0  0  0  0  0  0  0  0  0  0  0
   -0.9696   -2.7107    0.8942 H   0  0  0  0  0  0  0  0  0  0  0  0
   -3.4910   -3.3160    0.7270 H   0  0  0  0  0  0  0  0  0  0  0  0
   -5.5053   -4.4191    2.3342 H   0  0  0  0  0  0  0  0  0  0  0  0
   -5.9076   -5.1957    4.6861 H   0  0  0  0  0  0  0  0  0  0  0  0
   -4.0940   -5.1087    6.3708 H   0  0  0  0  0  0  0  0  0  0  0  0
   -1.8239   -4.2697    5.7520 H   0  0  0  0  0  0  0  0  0  0  0  0
  1  2  1  0
  2  3  1  0
  3  4  1  0
  4  5  2  0
  5  6  1  0
  6  7  1  0
  7  8  2  0
  8  9  1  0
  9 10  2  0
 10 11  1  0
 11 12  2  0
  2 13  1  0
 13 14  2  0
 13 15  1  0
 12  4  1  0
 12  7  1  0
  1 16  1  0
  1 17  1  0
  1 18  1  0
  2 19  1  1
  3 20  1  0
  3 21  1  0
  5 22  1  0
  6 23  1  0
  8 24  1  0
  9 25  1  0
 10 26  1  0
 11 27  1  0
M  CHG  2   1   1  15  -1
M  END
>  <meeko>  (9) 
{"is_sidechain": [false], "free_energy": -7.359, "intermolecular_energy": -9.137, "internal_energy": 0.009}

$$$$
