
     RDKit          3D

 25 27  0  0  0  0  0  0  0  0999 V2000
    3.2730  -22.3420   17.2770 C   0  0  0  0  0  0  0  0  0  0  0  0
    3.3360  -20.9340   17.8210 C   0  0  2  0  0  0  0  0  0  0  0  0
    4.4580  -20.8030   18.8240 C   0  0  0  0  0  0  0  0  0  0  0  0
    2.0380  -20.6270   18.5080 C   0  0  0  0  0  0  0  0  0  0  0  0
    3.5960  -19.9410   16.6470 C   0  0  0  0  0  0  0  0  0  0  0  0
    4.6480  -20.1470   15.7620 C   0  0  0  0  0  0  0  0  0  0  0  0
    4.8790  -19.2810   14.7030 C   0  0  0  0  0  0  0  0  0  0  0  0
    4.0690  -18.1690   14.5300 C   0  0  0  0  0  0  0  0  0  0  0  0
    4.3330  -17.2280   13.4030 C   0  0  0  0  0  0  0  0  0  0  0  0
    5.2010  -17.4630   12.5880 O   0  0  0  0  0  0  0  0  0  0  0  0
    3.5050  -15.9790   13.2800 C   0  0  0  0  0  0  0  0  0  0  0  0
    4.0810  -14.9950   12.2970 C   0  0  1  0  0  0  0  0  0  0  0  0
    3.4580  -15.1290   10.9190 C   0  0  0  0  0  0  0  0  0  0  0  0
    2.0990  -14.5050   10.8140 C   0  0  0  0  0  0  0  0  0  0  0  0
    2.0510  -13.0760   11.3490 C   0  0  1  0  0  0  0  0  0  0  0  0
    0.7180  -12.5880   11.3090 O   0  0  0  0  0  0  0  0  0  0  0  0
    2.5630  -13.1060   12.7880 C   0  0  2  0  0  0  0  0  0  0  0  0
    2.6750  -11.7990   13.6070 C   0  0  2  0  0  0  0  0  0  0  0  0
    3.1640  -10.7300   12.8430 O   0  0  0  0  0  0  0  0  0  0  0  0
    3.6970  -12.2120   14.7010 C   0  0  2  0  0  0  0  0  0  0  0  0
    4.5940  -11.1890   15.0370 O   0  0  0  0  0  0  0  0  0  0  0  0
    4.5250  -13.3110   14.0620 C   0  0  0  0  0  0  0  0  0  0  0  0
    3.9600  -13.5990   12.7620 N   0  0  0  0  0  0  0  0  0  0  0  0
    3.0140  -17.9390   15.4220 C   0  0  0  0  0  0  0  0  0  0  0  0
    2.8080  -18.8310   16.4660 C   0  0  0  0  0  0  0  0  0  0  0  0
  2  1  1  6
  3  2  1  0
  4  2  1  0
  5  2  1  0
  6  5  2  0
  7  6  1  0
  8  7  2  0
  9  8  1  0
 10  9  2  0
 11  9  1  0
 12 11  1  1
 13 12  1  0
 14 13  1  0
 15 14  1  0
 15 16  1  1
 17 15  1  0
 18 17  1  0
 18 19  1  6
 20 18  1  0
 20 21  1  6
 22 20  1  0
 23 22  1  0
 17 23  1  6
 23 12  1  0
 24  8  1  0
 25 24  2  0
 25  5  1  0
M  CHG  1  23   1
M  END
$$$$
