4u4s_ligand
     RDKit          3D

 26 27  0  0  0  0  0  0  0  0999 V2000
    7.4450    9.7810   -9.6870 C   0  0  0  0  0  0  0  0  0  0  0  0
    7.7390    8.8900  -10.8830 C   0  0  0  0  0  0  0  0  0  0  0  0
    6.6190    7.9560  -11.1100 N   0  0  0  0  0  0  0  0  0  0  0  0
    5.3060    8.5950  -11.1770 C   0  0  0  0  0  0  0  0  0  0  0  0
    4.2960    7.6730  -10.7410 N   0  0  0  0  0  0  0  0  0  0  0  0
    4.0970    6.3840  -11.7560 S   0  0  0  0  0  0  0  0  0  0  0  0
    3.6220    6.8320  -13.0420 O   0  0  0  0  0  0  0  0  0  0  0  0
    3.4580    5.3240  -11.0140 O   0  0  0  0  0  0  0  0  0  0  0  0
    5.7430    5.8690  -12.0130 C   0  0  0  0  0  0  0  0  0  0  0  0
    5.9120    4.5900  -12.5320 C   0  0  0  0  0  0  0  0  0  0  0  0
    7.1540    4.1150  -12.7010 N   0  0  0  0  0  0  0  0  0  0  0  0
    8.2340    4.8360  -12.3670 C   0  0  0  0  0  0  0  0  0  0  0  0
    8.0790    6.1210  -11.8370 C   0  0  0  0  0  0  0  0  0  0  0  0
    6.8100    6.6920  -11.6530 C   0  0  0  0  0  0  0  0  0  0  0  0
    7.6298    9.2210   -8.7584 H   0  0  0  0  0  0  0  0  0  0  0  0
    8.0992   10.6648   -9.7186 H   0  0  0  0  0  0  0  0  0  0  0  0
    6.3933   10.1019   -9.7186 H   0  0  0  0  0  0  0  0  0  0  0  0
    7.8773    9.5157  -11.7771 H   0  0  0  0  0  0  0  0  0  0  0  0
    8.6536    8.3122  -10.6840 H   0  0  0  0  0  0  0  0  0  0  0  0
    5.2973    9.4816  -10.5259 H   0  0  0  0  0  0  0  0  0  0  0  0
    5.1003    8.8965  -12.2147 H   0  0  0  0  0  0  0  0  0  0  0  0
    4.2950    7.4390   -9.7510 H   0  0  0  0  0  0  0  0  0  0  0  0
    5.0390    3.9769  -12.8000 H   0  0  0  0  0  0  0  0  0  0  0  0
    7.2790    3.1740  -13.0820 H   0  0  0  0  0  0  0  0  0  0  0  0
    9.2411    4.4172  -12.5097 H   0  0  0  0  0  0  0  0  0  0  0  0
    8.9729    6.6979  -11.5577 H   0  0  0  0  0  0  0  0  0  0  0  0
  1  2  1  0
  2  3  1  0
  3  4  1  0
  4  5  1  0
  5  6  1  0
  6  7  2  0
  6  8  2  0
  6  9  1  0
  9 10  2  0
 10 11  1  0
 11 12  2  0
 12 13  1  0
 13 14  2  0
 14  3  1  0
 14  9  1  0
  1 15  1  0
  1 16  1  0
  1 17  1  0
  2 18  1  0
  2 19  1  0
  4 20  1  0
  4 21  1  0
  5 22  1  0
 10 23  1  0
 11 24  1  0
 12 25  1  0
 13 26  1  0
M  CHG  1  11   1
M  END
>  <meeko>  (1) 
{"is_sidechain": [false], "free_energy": -6.075, "intermolecular_energy": -6.43, "internal_energy": -0.107}

$$$$
4u4s_ligand
     RDKit          3D

 26 27  0  0  0  0  0  0  0  0999 V2000
    3.1950    3.5270  -14.5880 C   0  0  0  0  0  0  0  0  0  0  0  0
    4.1440    4.7050  -14.7460 C   0  0  0  0  0  0  0  0  0  0  0  0
    4.6820    5.1060  -13.4330 N   0  0  0  0  0  0  0  0  0  0  0  0
    5.9550    4.4770  -13.0850 C   0  0  0  0  0  0  0  0  0  0  0  0
    6.0690    4.3690  -11.6580 N   0  0  0  0  0  0  0  0  0  0  0  0
    6.1960    5.8300  -10.8950 S   0  0  0  0  0  0  0  0  0  0  0  0
    7.4130    6.4940  -11.2890 O   0  0  0  0  0  0  0  0  0  0  0  0
    5.8170    5.6480   -9.5140 O   0  0  0  0  0  0  0  0  0  0  0  0
    4.9020    6.7370  -11.6340 C   0  0  0  0  0  0  0  0  0  0  0  0
    4.5020    7.8890  -10.9680 C   0  0  0  0  0  0  0  0  0  0  0  0
    3.4760    8.6010  -11.4560 N   0  0  0  0  0  0  0  0  0  0  0  0
    2.8190    8.2200  -12.5610 C   0  0  0  0  0  0  0  0  0  0  0  0
    3.2060    7.0590  -13.2380 C   0  0  0  0  0  0  0  0  0  0  0  0
    4.2850    6.2760  -12.7970 C   0  0  0  0  0  0  0  0  0  0  0  0
    3.0338    3.3269  -13.5184 H   0  0  0  0  0  0  0  0  0  0  0  0
    2.2330    3.7645  -15.0656 H   0  0  0  0  0  0  0  0  0  0  0  0
    3.6318    2.6376  -15.0656 H   0  0  0  0  0  0  0  0  0  0  0  0
    4.9751    4.4159  -15.4061 H   0  0  0  0  0  0  0  0  0  0  0  0
    3.5945    5.5522  -15.1823 H   0  0  0  0  0  0  0  0  0  0  0  0
    6.0008    3.4730  -13.5322 H   0  0  0  0  0  0  0  0  0  0  0  0
    6.7817    5.0919  -13.4703 H   0  0  0  0  0  0  0  0  0  0  0  0
    5.4470    3.7040  -11.2040 H   0  0  0  0  0  0  0  0  0  0  0  0
    5.0199    8.2124  -10.0530 H   0  0  0  0  0  0  0  0  0  0  0  0
    3.1810    9.4490  -10.9660 H   0  0  0  0  0  0  0  0  0  0  0  0
    1.9763    8.8201  -12.9348 H   0  0  0  0  0  0  0  0  0  0  0  0
    2.6520    6.7519  -14.1373 H   0  0  0  0  0  0  0  0  0  0  0  0
  1  2  1  0
  2  3  1  0
  3  4  1  0
  4  5  1  0
  5  6  1  0
  6  7  2  0
  6  8  2  0
  6  9  1  0
  9 10  2  0
 10 11  1  0
 11 12  2  0
 12 13  1  0
 13 14  2  0
 14  3  1  0
 14  9  1  0
  1 15  1  0
  1 16  1  0
  1 17  1  0
  2 18  1  0
  2 19  1  0
  4 20  1  0
  4 21  1  0
  5 22  1  0
 10 23  1  0
 11 24  1  0
 12 25  1  0
 13 26  1  0
M  CHG  1  11   1
M  END
>  <meeko>  (2) 
{"is_sidechain": [false], "free_energy": -6.052, "intermolecular_energy": -6.4, "internal_energy": -0.112}

$$$$
4u4s_ligand
     RDKit          3D

 26 27  0  0  0  0  0  0  0  0999 V2000
    2.1520    9.0130  -12.7200 C   0  0  0  0  0  0  0  0  0  0  0  0
    3.1620    8.1490  -11.9820 C   0  0  0  0  0  0  0  0  0  0  0  0
    3.4630    6.9350  -12.7650 N   0  0  0  0  0  0  0  0  0  0  0  0
    2.8750    6.9200  -14.1030 C   0  0  0  0  0  0  0  0  0  0  0  0
    2.6350    5.5650  -14.5120 N   0  0  0  0  0  0  0  0  0  0  0  0
    4.0190    4.6910  -14.7410 S   0  0  0  0  0  0  0  0  0  0  0  0
    4.7860    5.2480  -15.8280 O   0  0  0  0  0  0  0  0  0  0  0  0
    3.6820    3.2890  -14.6610 O   0  0  0  0  0  0  0  0  0  0  0  0
    4.9190    5.0530  -13.2920 C   0  0  0  0  0  0  0  0  0  0  0  0
    5.9760    4.2000  -12.9970 C   0  0  0  0  0  0  0  0  0  0  0  0
    6.6730    4.3930  -11.8680 N   0  0  0  0  0  0  0  0  0  0  0  0
    6.3660    5.3780  -11.0120 C   0  0  0  0  0  0  0  0  0  0  0  0
    5.3000    6.2390  -11.2920 C   0  0  0  0  0  0  0  0  0  0  0  0
    4.5400    6.1110  -12.4650 C   0  0  0  0  0  0  0  0  0  0  0  0
    1.5258    9.5486  -11.9913 H   0  0  0  0  0  0  0  0  0  0  0  0
    2.6835    9.7402  -13.3513 H   0  0  0  0  0  0  0  0  0  0  0  0
    1.5158    8.3753  -13.3513 H   0  0  0  0  0  0  0  0  0  0  0  0
    4.0884    8.7224  -11.8302 H   0  0  0  0  0  0  0  0  0  0  0  0
    2.7395    7.8537  -11.0103 H   0  0  0  0  0  0  0  0  0  0  0  0
    1.9235    7.4719  -14.0903 H   0  0  0  0  0  0  0  0  0  0  0  0
    3.5694    7.3962  -14.8109 H   0  0  0  0  0  0  0  0  0  0  0  0
    1.8950    5.0700  -14.0210 H   0  0  0  0  0  0  0  0  0  0  0  0
    6.2370    3.3782  -13.6801 H   0  0  0  0  0  0  0  0  0  0  0  0
    7.4510    3.7660  -11.6500 H   0  0  0  0  0  0  0  0  0  0  0  0
    6.9519    5.5089  -10.0903 H   0  0  0  0  0  0  0  0  0  0  0  0
    5.0512    7.0358  -10.5756 H   0  0  0  0  0  0  0  0  0  0  0  0
  1  2  1  0
  2  3  1  0
  3  4  1  0
  4  5  1  0
  5  6  1  0
  6  7  2  0
  6  8  2  0
  6  9  1  0
  9 10  2  0
 10 11  1  0
 11 12  2  0
 12 13  1  0
 13 14  2  0
 14  3  1  0
 14  9  1  0
  1 15  1  0
  1 16  1  0
  1 17  1  0
  2 18  1  0
  2 19  1  0
  4 20  1  0
  4 21  1  0
  5 22  1  0
 10 23  1  0
 11 24  1  0
 12 25  1  0
 13 26  1  0
M  CHG  1  11   1
M  END
>  <meeko>  (3) 
{"is_sidechain": [false], "free_energy": -5.885, "intermolecular_energy": -6.239, "internal_energy": -0.097}

$$$$
4u4s_ligand
     RDKit          3D

 26 27  0  0  0  0  0  0  0  0999 V2000
    4.8770    5.3170   -8.9890 C   0  0  0  0  0  0  0  0  0  0  0  0
    5.5800    5.9510  -10.1800 C   0  0  0  0  0  0  0  0  0  0  0  0
    4.8920    5.5850  -11.4320 N   0  0  0  0  0  0  0  0  0  0  0  0
    3.4330    5.5700  -11.3350 C   0  0  0  0  0  0  0  0  0  0  0  0
    2.8950    4.6280  -12.2760 N   0  0  0  0  0  0  0  0  0  0  0  0
    3.1250    5.0660  -13.8530 S   0  0  0  0  0  0  0  0  0  0  0  0
    2.4110    6.2850  -14.1400 O   0  0  0  0  0  0  0  0  0  0  0  0
    3.0060    3.8800  -14.6690 O   0  0  0  0  0  0  0  0  0  0  0  0
    4.8150    5.4920  -13.8660 C   0  0  0  0  0  0  0  0  0  0  0  0
    5.4210    5.5640  -15.1160 C   0  0  0  0  0  0  0  0  0  0  0  0
    6.7310    5.8340  -15.1910 N   0  0  0  0  0  0  0  0  0  0  0  0
    7.4740    6.0220  -14.0900 C   0  0  0  0  0  0  0  0  0  0  0  0
    6.8800    5.9460  -12.8260 C   0  0  0  0  0  0  0  0  0  0  0  0
    5.5090    5.6880  -12.6720 C   0  0  0  0  0  0  0  0  0  0  0  0
    5.3105    5.7079   -8.0567 H   0  0  0  0  0  0  0  0  0  0  0  0
    3.8046    5.5593   -9.0246 H   0  0  0  0  0  0  0  0  0  0  0  0
    5.0076    4.2254   -9.0246 H   0  0  0  0  0  0  0  0  0  0  0  0
    5.5709    7.0451  -10.0670 H   0  0  0  0  0  0  0  0  0  0  0  0
    6.6169    5.5860  -10.2205 H   0  0  0  0  0  0  0  0  0  0  0  0
    3.1372    5.2787  -10.3163 H   0  0  0  0  0  0  0  0  0  0  0  0
    3.0426    6.5734  -11.5603 H   0  0  0  0  0  0  0  0  0  0  0  0
    3.0650    3.6450  -12.0770 H   0  0  0  0  0  0  0  0  0  0  0  0
    4.8323    5.4014  -16.0309 H   0  0  0  0  0  0  0  0  0  0  0  0
    7.1770    5.8870  -16.1090 H   0  0  0  0  0  0  0  0  0  0  0  0
    8.5492    6.2357  -14.1812 H   0  0  0  0  0  0  0  0  0  0  0  0
    7.5025    6.0920  -11.9309 H   0  0  0  0  0  0  0  0  0  0  0  0
  1  2  1  0
  2  3  1  0
  3  4  1  0
  4  5  1  0
  5  6  1  0
  6  7  2  0
  6  8  2  0
  6  9  1  0
  9 10  2  0
 10 11  1  0
 11 12  2  0
 12 13  1  0
 13 14  2  0
 14  3  1  0
 14  9  1  0
  1 15  1  0
  1 16  1  0
  1 17  1  0
  2 18  1  0
  2 19  1  0
  4 20  1  0
  4 21  1  0
  5 22  1  0
 10 23  1  0
 11 24  1  0
 12 25  1  0
 13 26  1  0
M  CHG  1  11   1
M  END
>  <meeko>  (4) 
{"is_sidechain": [false], "free_energy": -5.88, "intermolecular_energy": -6.229, "internal_energy": -0.102}

$$$$
4u4s_ligand
     RDKit          3D

 26 27  0  0  0  0  0  0  0  0999 V2000
    3.3050    4.9250  -10.4330 C   0  0  0  0  0  0  0  0  0  0  0  0
    3.7510    5.7110  -11.6560 C   0  0  0  0  0  0  0  0  0  0  0  0
    4.9100    6.5600  -11.3220 N   0  0  0  0  0  0  0  0  0  0  0  0
    5.8660    5.9410  -10.4040 C   0  0  0  0  0  0  0  0  0  0  0  0
    6.5350    6.9580   -9.6420 N   0  0  0  0  0  0  0  0  0  0  0  0
    7.5190    7.9240  -10.5540 S   0  0  0  0  0  0  0  0  0  0  0  0
    8.5970    7.1490  -11.1150 O   0  0  0  0  0  0  0  0  0  0  0  0
    7.7350    9.1530   -9.8280 O   0  0  0  0  0  0  0  0  0  0  0  0
    6.4820    8.3330  -11.8950 C   0  0  0  0  0  0  0  0  0  0  0  0
    6.8760    9.4200  -12.6670 C   0  0  0  0  0  0  0  0  0  0  0  0
    6.0940    9.8180  -13.6790 N   0  0  0  0  0  0  0  0  0  0  0  0
    4.9350    9.2030  -13.9560 C   0  0  0  0  0  0  0  0  0  0  0  0
    4.5220    8.1120  -13.1840 C   0  0  0  0  0  0  0  0  0  0  0  0
    5.3000    7.6260  -12.1210 C   0  0  0  0  0  0  0  0  0  0  0  0
    3.6091    5.4609   -9.5218 H   0  0  0  0  0  0  0  0  0  0  0  0
    2.2105    4.8160  -10.4463 H   0  0  0  0  0  0  0  0  0  0  0  0
    3.7728    3.9295  -10.4463 H   0  0  0  0  0  0  0  0  0  0  0  0
    4.0327    5.0099  -12.4555 H   0  0  0  0  0  0  0  0  0  0  0  0
    2.9224    6.3515  -11.9924 H   0  0  0  0  0  0  0  0  0  0  0  0
    5.3313    5.2648   -9.7208 H   0  0  0  0  0  0  0  0  0  0  0  0
    6.6088    5.3715  -10.9818 H   0  0  0  0  0  0  0  0  0  0  0  0
    5.9700    7.4520   -8.9560 H   0  0  0  0  0  0  0  0  0  0  0  0
    7.8173    9.9461  -12.4497 H   0  0  0  0  0  0  0  0  0  0  0  0
    6.3830   10.6180  -14.2470 H   0  0  0  0  0  0  0  0  0  0  0  0
    4.3098    9.5560  -14.7893 H   0  0  0  0  0  0  0  0  0  0  0  0
    3.5643    7.6229  -13.4154 H   0  0  0  0  0  0  0  0  0  0  0  0
  1  2  1  0
  2  3  1  0
  3  4  1  0
  4  5  1  0
  5  6  1  0
  6  7  2  0
  6  8  2  0
  6  9  1  0
  9 10  2  0
 10 11  1  0
 11 12  2  0
 12 13  1  0
 13 14  2  0
 14  3  1  0
 14  9  1  0
  1 15  1  0
  1 16  1  0
  1 17  1  0
  2 18  1  0
  2 19  1  0
  4 20  1  0
  4 21  1  0
  5 22  1  0
 10 23  1  0
 11 24  1  0
 12 25  1  0
 13 26  1  0
M  CHG  1  11   1
M  END
>  <meeko>  (5) 
{"is_sidechain": [false], "free_energy": -5.778, "intermolecular_energy": -6.121, "internal_energy": -0.102}

$$$$
4u4s_ligand
     RDKit          3D

 26 27  0  0  0  0  0  0  0  0999 V2000
    6.4610    5.7050  -10.6110 C   0  0  0  0  0  0  0  0  0  0  0  0
    6.6300    6.7710  -11.6810 C   0  0  0  0  0  0  0  0  0  0  0  0
    5.8030    6.4470  -12.8590 N   0  0  0  0  0  0  0  0  0  0  0  0
    6.1570    5.1900  -13.5160 C   0  0  0  0  0  0  0  0  0  0  0  0
    5.8260    5.2630  -14.9110 N   0  0  0  0  0  0  0  0  0  0  0  0
    4.2000    5.3490  -15.1990 S   0  0  0  0  0  0  0  0  0  0  0  0
    3.5510    4.1410  -14.7540 O   0  0  0  0  0  0  0  0  0  0  0  0
    4.0080    5.8970  -16.5210 O   0  0  0  0  0  0  0  0  0  0  0  0
    3.7010    6.5940  -14.0850 C   0  0  0  0  0  0  0  0  0  0  0  0
    2.4560    7.1650  -14.3200 C   0  0  0  0  0  0  0  0  0  0  0  0
    2.0380    8.1650  -13.5310 N   0  0  0  0  0  0  0  0  0  0  0  0
    2.7980    8.6360  -12.5320 C   0  0  0  0  0  0  0  0  0  0  0  0
    4.0570    8.0760  -12.2880 C   0  0  0  0  0  0  0  0  0  0  0  0
    4.5500    7.0120  -13.0600 C   0  0  0  0  0  0  0  0  0  0  0  0
    6.5346    6.1690   -9.6164 H   0  0  0  0  0  0  0  0  0  0  0  0
    5.4760    5.2279  -10.7211 H   0  0  0  0  0  0  0  0  0  0  0  0
    7.2501    4.9466  -10.7211 H   0  0  0  0  0  0  0  0  0  0  0  0
    6.3189    7.7451  -11.2756 H   0  0  0  0  0  0  0  0  0  0  0  0
    7.6866    6.8103  -11.9844 H   0  0  0  0  0  0  0  0  0  0  0  0
    7.2367    5.0110  -13.4053 H   0  0  0  0  0  0  0  0  0  0  0  0
    5.5962    4.3656  -13.0513 H   0  0  0  0  0  0  0  0  0  0  0  0
    6.3920    5.8890  -15.4780 H   0  0  0  0  0  0  0  0  0  0  0  0
    1.8221    6.8014  -15.1422 H   0  0  0  0  0  0  0  0  0  0  0  0
    1.1220    8.5850  -13.7030 H   0  0  0  0  0  0  0  0  0  0  0  0
    2.4321    9.4621  -11.9046 H   0  0  0  0  0  0  0  0  0  0  0  0
    4.6750    8.4789  -11.4721 H   0  0  0  0  0  0  0  0  0  0  0  0
  1  2  1  0
  2  3  1  0
  3  4  1  0
  4  5  1  0
  5  6  1  0
  6  7  2  0
  6  8  2  0
  6  9  1  0
  9 10  2  0
 10 11  1  0
 11 12  2  0
 12 13  1  0
 13 14  2  0
 14  3  1  0
 14  9  1  0
  1 15  1  0
  1 16  1  0
  1 17  1  0
  2 18  1  0
  2 19  1  0
  4 20  1  0
  4 21  1  0
  5 22  1  0
 10 23  1  0
 11 24  1  0
 12 25  1  0
 13 26  1  0
M  CHG  1  11   1
M  END
>  <meeko>  (6) 
{"is_sidechain": [false], "free_energy": -5.6, "intermolecular_energy": -5.929, "internal_energy": -0.105}

$$$$
4u4s_ligand
     RDKit          3D

 26 27  0  0  0  0  0  0  0  0999 V2000
    2.4470    7.2210  -14.1830 C   0  0  0  0  0  0  0  0  0  0  0  0
    3.8940    7.6870  -14.1290 C   0  0  0  0  0  0  0  0  0  0  0  0
    4.5720    7.1100  -12.9530 N   0  0  0  0  0  0  0  0  0  0  0  0
    4.3630    5.6730  -12.7820 C   0  0  0  0  0  0  0  0  0  0  0  0
    4.4510    5.3330  -11.3900 N   0  0  0  0  0  0  0  0  0  0  0  0
    5.9640    5.5330  -10.7570 S   0  0  0  0  0  0  0  0  0  0  0  0
    6.8930    4.6300  -11.3910 O   0  0  0  0  0  0  0  0  0  0  0  0
    5.8390    5.6440   -9.3230 O   0  0  0  0  0  0  0  0  0  0  0  0
    6.3880    7.1250  -11.3270 C   0  0  0  0  0  0  0  0  0  0  0  0
    7.4500    7.7470  -10.6810 C   0  0  0  0  0  0  0  0  0  0  0  0
    7.7900    8.9940  -11.0370 N   0  0  0  0  0  0  0  0  0  0  0  0
    7.1210    9.6590  -11.9890 C   0  0  0  0  0  0  0  0  0  0  0  0
    6.0460    9.0490  -12.6440 C   0  0  0  0  0  0  0  0  0  0  0  0
    5.6470    7.7380  -12.3380 C   0  0  0  0  0  0  0  0  0  0  0  0
    2.0632    7.0974  -13.1596 H   0  0  0  0  0  0  0  0  0  0  0  0
    1.8404    7.9692  -14.7142 H   0  0  0  0  0  0  0  0  0  0  0  0
    2.3910    6.2594  -14.7142 H   0  0  0  0  0  0  0  0  0  0  0  0
    4.4140    7.3639  -15.0429 H   0  0  0  0  0  0  0  0  0  0  0  0
    3.9149    8.7841  -14.0526 H   0  0  0  0  0  0  0  0  0  0  0  0
    3.3676    5.4005  -13.1626 H   0  0  0  0  0  0  0  0  0  0  0  0
    5.1353    5.1238  -13.3404 H   0  0  0  0  0  0  0  0  0  0  0  0
    3.6940    5.6630  -10.7960 H   0  0  0  0  0  0  0  0  0  0  0  0
    8.0041    7.2231   -9.8882 H   0  0  0  0  0  0  0  0  0  0  0  0
    8.5710    9.4510  -10.5610 H   0  0  0  0  0  0  0  0  0  0  0  0
    7.4172   10.6844  -12.2553 H   0  0  0  0  0  0  0  0  0  0  0  0
    5.5003    9.6097  -13.4172 H   0  0  0  0  0  0  0  0  0  0  0  0
  1  2  1  0
  2  3  1  0
  3  4  1  0
  4  5  1  0
  5  6  1  0
  6  7  2  0
  6  8  2  0
  6  9  1  0
  9 10  2  0
 10 11  1  0
 11 12  2  0
 12 13  1  0
 13 14  2  0
 14  3  1  0
 14  9  1  0
  1 15  1  0
  1 16  1  0
  1 17  1  0
  2 18  1  0
  2 19  1  0
  4 20  1  0
  4 21  1  0
  5 22  1  0
 10 23  1  0
 11 24  1  0
 12 25  1  0
 13 26  1  0
M  CHG  1  11   1
M  END
>  <meeko>  (7) 
{"is_sidechain": [false], "free_energy": -5.598, "intermolecular_energy": -5.927, "internal_energy": -0.105}

$$$$
4u4s_ligand
     RDKit          3D

 26 27  0  0  0  0  0  0  0  0999 V2000
    3.1870    6.0040  -13.0100 C   0  0  0  0  0  0  0  0  0  0  0  0
    4.1300    5.6650  -11.8650 C   0  0  0  0  0  0  0  0  0  0  0  0
    5.2340    6.6420  -11.8100 N   0  0  0  0  0  0  0  0  0  0  0  0
    4.8830    7.9140  -11.1810 C   0  0  0  0  0  0  0  0  0  0  0  0
    5.6950    8.9650  -11.7250 N   0  0  0  0  0  0  0  0  0  0  0  0
    7.2960    8.8280  -11.3390 S   0  0  0  0  0  0  0  0  0  0  0  0
    7.4780    8.9560   -9.9140 O   0  0  0  0  0  0  0  0  0  0  0  0
    8.0560    9.5980  -12.2950 O   0  0  0  0  0  0  0  0  0  0  0  0
    7.6150    7.1530  -11.7080 C   0  0  0  0  0  0  0  0  0  0  0  0
    8.9530    6.7970  -11.8350 C   0  0  0  0  0  0  0  0  0  0  0  0
    9.2620    5.5360  -12.1710 N   0  0  0  0  0  0  0  0  0  0  0  0
    8.3130    4.6180  -12.4020 C   0  0  0  0  0  0  0  0  0  0  0  0
    6.9630    4.9640  -12.2840 C   0  0  0  0  0  0  0  0  0  0  0  0
    6.5650    6.2590  -11.9150 C   0  0  0  0  0  0  0  0  0  0  0  0
    2.2254    6.3497  -12.6029 H   0  0  0  0  0  0  0  0  0  0  0  0
    3.6308    6.7989  -13.6274 H   0  0  0  0  0  0  0  0  0  0  0  0
    3.0231    5.1085  -13.6274 H   0  0  0  0  0  0  0  0  0  0  0  0
    3.5740    5.6908  -10.9162 H   0  0  0  0  0  0  0  0  0  0  0  0
    4.5468    4.6602  -12.0279 H   0  0  0  0  0  0  0  0  0  0  0  0
    3.8226    8.1356  -11.3719 H   0  0  0  0  0  0  0  0  0  0  0  0
    5.0574    7.8439  -10.0972 H   0  0  0  0  0  0  0  0  0  0  0  0
    5.5110    9.2230  -12.6920 H   0  0  0  0  0  0  0  0  0  0  0  0
    9.7466    7.5389  -11.6624 H   0  0  0  0  0  0  0  0  0  0  0  0
   10.2460    5.2740  -12.2660 H   0  0  0  0  0  0  0  0  0  0  0  0
    8.5958    3.5931  -12.6842 H   0  0  0  0  0  0  0  0  0  0  0  0
    6.1944    4.2032  -12.4851 H   0  0  0  0  0  0  0  0  0  0  0  0
  1  2  1  0
  2  3  1  0
  3  4  1  0
  4  5  1  0
  5  6  1  0
  6  7  2  0
  6  8  2  0
  6  9  1  0
  9 10  2  0
 10 11  1  0
 11 12  2  0
 12 13  1  0
 13 14  2  0
 14  3  1  0
 14  9  1  0
  1 15  1  0
  1 16  1  0
  1 17  1  0
  2 18  1  0
  2 19  1  0
  4 20  1  0
  4 21  1  0
  5 22  1  0
 10 23  1  0
 11 24  1  0
 12 25  1  0
 13 26  1  0
M  CHG  1  11   1
M  END
>  <meeko>  (8) 
{"is_sidechain": [false], "free_energy": -5.598, "intermolecular_energy": -5.917, "internal_energy": -0.115}

$$$$
4u4s_ligand
     RDKit          3D

 26 27  0  0  0  0  0  0  0  0999 V2000
    8.8390    6.3280  -12.3690 C   0  0  0  0  0  0  0  0  0  0  0  0
    7.6910    6.5920  -13.3300 C   0  0  0  0  0  0  0  0  0  0  0  0
    6.4000    6.3280  -12.6660 N   0  0  0  0  0  0  0  0  0  0  0  0
    6.1980    7.0720  -11.4240 C   0  0  0  0  0  0  0  0  0  0  0  0
    5.3320    6.3310  -10.5510 N   0  0  0  0  0  0  0  0  0  0  0  0
    3.7850    6.1930  -11.1180 S   0  0  0  0  0  0  0  0  0  0  0  0
    3.1650    7.4930  -11.1960 O   0  0  0  0  0  0  0  0  0  0  0  0
    3.1640    5.0700  -10.4570 O   0  0  0  0  0  0  0  0  0  0  0  0
    4.0480    5.6950  -12.7680 C   0  0  0  0  0  0  0  0  0  0  0  0
    2.9540    5.1450  -13.4260 C   0  0  0  0  0  0  0  0  0  0  0  0
    3.1060    4.6920  -14.6780 N   0  0  0  0  0  0  0  0  0  0  0  0
    4.2900    4.7430  -15.3050 C   0  0  0  0  0  0  0  0  0  0  0  0
    5.4020    5.2880  -14.6540 C   0  0  0  0  0  0  0  0  0  0  0  0
    5.3120    5.8000  -13.3500 C   0  0  0  0  0  0  0  0  0  0  0  0
    8.4770    6.4113  -11.3336 H   0  0  0  0  0  0  0  0  0  0  0  0
    9.2341    5.3156  -12.5390 H   0  0  0  0  0  0  0  0  0  0  0  0
    9.6366    7.0662  -12.5390 H   0  0  0  0  0  0  0  0  0  0  0  0
    7.7240    7.6421  -13.6558 H   0  0  0  0  0  0  0  0  0  0  0  0
    7.7903    5.9258  -14.1996 H   0  0  0  0  0  0  0  0  0  0  0  0
    7.1682    7.2287  -10.9298 H   0  0  0  0  0  0  0  0  0  0  0  0
    5.7384    8.0448  -11.6529 H   0  0  0  0  0  0  0  0  0  0  0  0
    5.7160    5.4780  -10.1510 H   0  0  0  0  0  0  0  0  0  0  0  0
    1.9764    5.0824  -12.9256 H   0  0  0  0  0  0  0  0  0  0  0  0
    2.3010    4.2870  -15.1620 H   0  0  0  0  0  0  0  0  0  0  0  0
    4.3870    4.3567  -16.3304 H   0  0  0  0  0  0  0  0  0  0  0  0
    6.3697    5.3160  -15.1763 H   0  0  0  0  0  0  0  0  0  0  0  0
  1  2  1  0
  2  3  1  0
  3  4  1  0
  4  5  1  0
  5  6  1  0
  6  7  2  0
  6  8  2  0
  6  9  1  0
  9 10  2  0
 10 11  1  0
 11 12  2  0
 12 13  1  0
 13 14  2  0
 14  3  1  0
 14  9  1  0
  1 15  1  0
  1 16  1  0
  1 17  1  0
  2 18  1  0
  2 19  1  0
  4 20  1  0
  4 21  1  0
  5 22  1  0
 10 23  1  0
 11 24  1  0
 12 25  1  0
 13 26  1  0
M  CHG  1  11   1
M  END
>  <meeko>  (9) 
{"is_sidechain": [false], "free_energy": -5.507, "intermolecular_energy": -5.828, "internal_energy": -0.108}

$$$$
