3g2z_ligand
     RDKit          3D

 23 24  0  0  0  0  0  0  0  0999 V2000
   -8.0430    1.1700    6.6400 O   0  0  0  0  0  0  0  0  0  0  0  0
   -8.9800    0.2910    6.5110 C   0  0  0  0  0  0  0  0  0  0  0  0
   -9.9190    0.2440    5.3750 C   0  0  0  0  0  0  0  0  0  0  0  0
  -10.9220   -0.6550    5.3180 C   0  0  0  0  0  0  0  0  0  0  0  0
  -11.8210   -0.7780    4.2590 N   0  0  0  0  0  0  0  0  0  0  0  0
  -12.9130   -1.5820    4.1790 C   0  0  0  0  0  0  0  0  0  0  0  0
  -14.1810   -1.3320    4.4330 N   0  0  0  0  0  0  0  0  0  0  0  0
  -14.8670   -2.4960    4.1890 N   0  0  0  0  0  0  0  0  0  0  0  0
  -14.0450   -3.4540    3.7900 N   0  0  0  0  0  0  0  0  0  0  0  0
  -12.8300   -2.8920    3.7820 N   0  0  0  0  0  0  0  0  0  0  0  0
  -11.1530   -1.6280    6.4690 C   0  0  0  0  0  0  0  0  0  0  0  0
  -10.5210   -1.1720    7.7850 C   0  0  0  0  0  0  0  0  0  0  0  0
   -9.0730   -0.7580    7.5850 C   0  0  0  0  0  0  0  0  0  0  0  0
   -8.0260    1.8250    5.9000 H   0  0  0  0  0  0  0  0  0  0  0  0
   -9.7977    0.9626    4.5510 H   0  0  0  0  0  0  0  0  0  0  0  0
  -11.6080   -0.1710    3.4660 H   0  0  0  0  0  0  0  0  0  0  0  0
  -12.0290   -3.4450    3.5060 H   0  0  0  0  0  0  0  0  0  0  0  0
  -12.2369   -1.7366    6.6218 H   0  0  0  0  0  0  0  0  0  0  0  0
  -10.6753   -2.5792    6.1914 H   0  0  0  0  0  0  0  0  0  0  0  0
  -11.0882   -0.3151    8.1774 H   0  0  0  0  0  0  0  0  0  0  0  0
  -10.5481   -2.0126    8.4939 H   0  0  0  0  0  0  0  0  0  0  0  0
   -8.6775   -0.3505    8.5271 H   0  0  0  0  0  0  0  0  0  0  0  0
   -8.4853   -1.6371    7.2821 H   0  0  0  0  0  0  0  0  0  0  0  0
  1  2  2  3
  2  3  1  0
  3  4  2  0
  4  5  1  0
  5  6  1  0
  6  7  2  0
  7  8  1  0
  8  9  2  0
  9 10  1  0
  4 11  1  0
 11 12  1  0
 12 13  1  0
 13  2  1  0
 10  6  1  0
  1 14  1  0
  3 15  1  0
  5 16  1  0
 10 17  1  0
 11 18  1  0
 11 19  1  0
 12 20  1  0
 12 21  1  0
 13 22  1  0
 13 23  1  0
M  CHG  1   1   1
M  END
>  <meeko>  (1) 
{"is_sidechain": [false], "free_energy": -5.608, "intermolecular_energy": -6.264, "internal_energy": -0.11}

$$$$
3g2z_ligand
     RDKit          3D

 23 24  0  0  0  0  0  0  0  0999 V2000
  -11.9860   -0.3990    4.0980 O   0  0  0  0  0  0  0  0  0  0  0  0
  -11.1120   -0.3710    5.0480 C   0  0  0  0  0  0  0  0  0  0  0  0
   -9.7080   -0.7940    4.8920 C   0  0  0  0  0  0  0  0  0  0  0  0
   -8.8500   -0.8070    5.9320 C   0  0  0  0  0  0  0  0  0  0  0  0
   -7.5030   -1.1590    5.8470 N   0  0  0  0  0  0  0  0  0  0  0  0
   -6.9250   -2.3430    6.1780 C   0  0  0  0  0  0  0  0  0  0  0  0
   -6.6320   -2.8540    7.3570 N   0  0  0  0  0  0  0  0  0  0  0  0
   -6.0590   -4.0780    7.1220 N   0  0  0  0  0  0  0  0  0  0  0  0
   -5.9950   -4.3290    5.8240 N   0  0  0  0  0  0  0  0  0  0  0  0
   -6.5320   -3.2550    5.2330 N   0  0  0  0  0  0  0  0  0  0  0  0
   -9.3260   -0.4360    7.3320 C   0  0  0  0  0  0  0  0  0  0  0  0
  -10.8420   -0.5440    7.5050 C   0  0  0  0  0  0  0  0  0  0  0  0
  -11.5770    0.1600    6.3770 C   0  0  0  0  0  0  0  0  0  0  0  0
  -11.6200   -0.7470    3.2490 H   0  0  0  0  0  0  0  0  0  0  0  0
   -9.3509   -1.1075    3.9000 H   0  0  0  0  0  0  0  0  0  0  0  0
   -6.9060   -0.4160    5.4810 H   0  0  0  0  0  0  0  0  0  0  0  0
   -6.5900   -3.2220    4.2230 H   0  0  0  0  0  0  0  0  0  0  0  0
   -8.8434   -1.1103    8.0548 H   0  0  0  0  0  0  0  0  0  0  0  0
   -9.0534    0.6163    7.5002 H   0  0  0  0  0  0  0  0  0  0  0  0
  -11.1274   -1.6063    7.5108 H   0  0  0  0  0  0  0  0  0  0  0  0
  -11.1187   -0.0620    8.4543 H   0  0  0  0  0  0  0  0  0  0  0  0
  -12.6579   -0.0157    6.4813 H   0  0  0  0  0  0  0  0  0  0  0  0
  -11.3672    1.2386    6.4278 H   0  0  0  0  0  0  0  0  0  0  0  0
  1  2  2  3
  2  3  1  0
  3  4  2  0
  4  5  1  0
  5  6  1  0
  6  7  2  0
  7  8  1  0
  8  9  2  0
  9 10  1  0
  4 11  1  0
 11 12  1  0
 12 13  1  0
 13  2  1  0
 10  6  1  0
  1 14  1  0
  3 15  1  0
  5 16  1  0
 10 17  1  0
 11 18  1  0
 11 19  1  0
 12 20  1  0
 12 21  1  0
 13 22  1  0
 13 23  1  0
M  CHG  1   1   1
M  END
>  <meeko>  (2) 
{"is_sidechain": [false], "free_energy": -5.548, "intermolecular_energy": -6.136, "internal_energy": -0.171}

$$$$
3g2z_ligand
     RDKit          3D

 23 24  0  0  0  0  0  0  0  0999 V2000
   -5.4240   -4.7720    6.5810 O   0  0  0  0  0  0  0  0  0  0  0  0
   -6.3000   -3.8690    6.8730 C   0  0  0  0  0  0  0  0  0  0  0  0
   -6.8170   -2.8780    5.9110 C   0  0  0  0  0  0  0  0  0  0  0  0
   -7.6830   -1.9130    6.2800 C   0  0  0  0  0  0  0  0  0  0  0  0
   -8.2380   -0.9690    5.4170 N   0  0  0  0  0  0  0  0  0  0  0  0
   -9.5180   -0.5160    5.3850 C   0  0  0  0  0  0  0  0  0  0  0  0
  -10.0270    0.6400    5.7600 N   0  0  0  0  0  0  0  0  0  0  0  0
  -11.3750    0.5740    5.5120 N   0  0  0  0  0  0  0  0  0  0  0  0
  -11.7030   -0.5990    4.9930 N   0  0  0  0  0  0  0  0  0  0  0  0
  -10.5540   -1.2800    4.9120 N   0  0  0  0  0  0  0  0  0  0  0  0
   -8.1160   -1.7800    7.7360 C   0  0  0  0  0  0  0  0  0  0  0  0
   -7.1580   -2.4560    8.7170 C   0  0  0  0  0  0  0  0  0  0  0  0
   -6.8310   -3.8740    8.2800 C   0  0  0  0  0  0  0  0  0  0  0  0
   -5.1210   -4.7250    5.6420 H   0  0  0  0  0  0  0  0  0  0  0  0
   -6.4867   -2.9276    4.8629 H   0  0  0  0  0  0  0  0  0  0  0  0
   -7.5730   -0.5870    4.7420 H   0  0  0  0  0  0  0  0  0  0  0  0
  -10.5600   -2.2200    4.5390 H   0  0  0  0  0  0  0  0  0  0  0  0
   -8.1745   -0.7105    7.9863 H   0  0  0  0  0  0  0  0  0  0  0  0
   -9.0895   -2.2828    7.8332 H   0  0  0  0  0  0  0  0  0  0  0  0
   -6.2267   -1.8729    8.7679 H   0  0  0  0  0  0  0  0  0  0  0  0
   -7.6439   -2.4996    9.7029 H   0  0  0  0  0  0  0  0  0  0  0  0
   -6.0719   -4.2971    8.9543 H   0  0  0  0  0  0  0  0  0  0  0  0
   -7.7457   -4.4838    8.3186 H   0  0  0  0  0  0  0  0  0  0  0  0
  1  2  2  3
  2  3  1  0
  3  4  2  0
  4  5  1  0
  5  6  1  0
  6  7  2  0
  7  8  1  0
  8  9  2  0
  9 10  1  0
  4 11  1  0
 11 12  1  0
 12 13  1  0
 13  2  1  0
 10  6  1  0
  1 14  1  0
  3 15  1  0
  5 16  1  0
 10 17  1  0
 11 18  1  0
 11 19  1  0
 12 20  1  0
 12 21  1  0
 13 22  1  0
 13 23  1  0
M  CHG  1   1   1
M  END
>  <meeko>  (3) 
{"is_sidechain": [false], "free_energy": -5.526, "intermolecular_energy": -6.09, "internal_energy": -0.192}

$$$$
3g2z_ligand
     RDKit          3D

 23 24  0  0  0  0  0  0  0  0999 V2000
   -6.5680   -2.0300    4.9410 O   0  0  0  0  0  0  0  0  0  0  0  0
   -7.6200   -1.7810    5.6470 C   0  0  0  0  0  0  0  0  0  0  0  0
   -8.7560   -0.9660    5.1780 C   0  0  0  0  0  0  0  0  0  0  0  0
   -9.8040   -0.6800    5.9770 C   0  0  0  0  0  0  0  0  0  0  0  0
  -10.9250    0.0520    5.5860 N   0  0  0  0  0  0  0  0  0  0  0  0
  -12.1080   -0.4190    5.1130 C   0  0  0  0  0  0  0  0  0  0  0  0
  -13.2130   -0.7530    5.7470 N   0  0  0  0  0  0  0  0  0  0  0  0
  -14.1050   -1.1680    4.7900 N   0  0  0  0  0  0  0  0  0  0  0  0
  -13.5680   -1.0960    3.5810 N   0  0  0  0  0  0  0  0  0  0  0  0
  -12.3280   -0.6320    3.7760 N   0  0  0  0  0  0  0  0  0  0  0  0
   -9.8200   -1.1500    7.4270 C   0  0  0  0  0  0  0  0  0  0  0  0
   -8.4320   -1.4910    7.9690 C   0  0  0  0  0  0  0  0  0  0  0  0
   -7.6770   -2.4010    7.0160 C   0  0  0  0  0  0  0  0  0  0  0  0
   -6.5930   -1.6050    4.0500 H   0  0  0  0  0  0  0  0  0  0  0  0
   -8.7483   -0.5806    4.1477 H   0  0  0  0  0  0  0  0  0  0  0  0
  -10.8140    1.0620    5.6890 H   0  0  0  0  0  0  0  0  0  0  0  0
  -11.7200   -0.4940    2.9790 H   0  0  0  0  0  0  0  0  0  0  0  0
  -10.2503   -0.3506    8.0481 H   0  0  0  0  0  0  0  0  0  0  0  0
  -10.4188   -2.0720    7.4633 H   0  0  0  0  0  0  0  0  0  0  0  0
   -7.8612   -0.5604    8.1039 H   0  0  0  0  0  0  0  0  0  0  0  0
   -8.5526   -2.0155    8.9284 H   0  0  0  0  0  0  0  0  0  0  0  0
   -6.6537   -2.5514    7.3903 H   0  0  0  0  0  0  0  0  0  0  0  0
   -8.1977   -3.3679    6.9524 H   0  0  0  0  0  0  0  0  0  0  0  0
  1  2  2  3
  2  3  1  0
  3  4  2  0
  4  5  1  0
  5  6  1  0
  6  7  2  0
  7  8  1  0
  8  9  2  0
  9 10  1  0
  4 11  1  0
 11 12  1  0
 12 13  1  0
 13  2  1  0
 10  6  1  0
  1 14  1  0
  3 15  1  0
  5 16  1  0
 10 17  1  0
 11 18  1  0
 11 19  1  0
 12 20  1  0
 12 21  1  0
 13 22  1  0
 13 23  1  0
M  CHG  1   1   1
M  END
>  <meeko>  (4) 
{"is_sidechain": [false], "free_energy": -5.349, "intermolecular_energy": -5.901, "internal_energy": -0.183}

$$$$
3g2z_ligand
     RDKit          3D

 23 24  0  0  0  0  0  0  0  0999 V2000
   -8.0170    1.1500    6.7190 O   0  0  0  0  0  0  0  0  0  0  0  0
   -8.8870    0.2230    6.9510 C   0  0  0  0  0  0  0  0  0  0  0  0
  -10.3310    0.3580    6.6780 C   0  0  0  0  0  0  0  0  0  0  0  0
  -11.2080   -0.6130    6.9970 C   0  0  0  0  0  0  0  0  0  0  0  0
  -12.5770   -0.5670    6.7340 N   0  0  0  0  0  0  0  0  0  0  0  0
  -13.2050   -0.7250    5.5400 C   0  0  0  0  0  0  0  0  0  0  0  0
  -14.4360   -1.1040    5.2620 N   0  0  0  0  0  0  0  0  0  0  0  0
  -14.5500   -1.0950    3.8950 N   0  0  0  0  0  0  0  0  0  0  0  0
  -13.4140   -0.7190    3.3280 N   0  0  0  0  0  0  0  0  0  0  0  0
  -12.5750   -0.4880    4.3450 N   0  0  0  0  0  0  0  0  0  0  0  0
  -10.7380   -1.8750    7.7120 C   0  0  0  0  0  0  0  0  0  0  0  0
   -9.3940   -1.7040    8.4220 C   0  0  0  0  0  0  0  0  0  0  0  0
   -8.3620   -1.0740    7.5020 C   0  0  0  0  0  0  0  0  0  0  0  0
   -8.4210    1.9720    6.3490 H   0  0  0  0  0  0  0  0  0  0  0  0
  -10.7013    1.2773    6.2007 H   0  0  0  0  0  0  0  0  0  0  0  0
  -13.1500   -0.3990    7.5620 H   0  0  0  0  0  0  0  0  0  0  0  0
  -11.6300   -0.1850    4.1490 H   0  0  0  0  0  0  0  0  0  0  0  0
  -11.4947   -2.1548    8.4598 H   0  0  0  0  0  0  0  0  0  0  0  0
  -10.6047   -2.6528    6.9457 H   0  0  0  0  0  0  0  0  0  0  0  0
   -9.5326   -1.0578    9.3014 H   0  0  0  0  0  0  0  0  0  0  0  0
   -9.0309   -2.6976    8.7236 H   0  0  0  0  0  0  0  0  0  0  0  0
   -7.4385   -0.8820    8.0680 H   0  0  0  0  0  0  0  0  0  0  0  0
   -8.1533   -1.7617    6.6692 H   0  0  0  0  0  0  0  0  0  0  0  0
  1  2  2  3
  2  3  1  0
  3  4  2  0
  4  5  1  0
  5  6  1  0
  6  7  2  0
  7  8  1  0
  8  9  2  0
  9 10  1  0
  4 11  1  0
 11 12  1  0
 12 13  1  0
 13  2  1  0
 10  6  1  0
  1 14  1  0
  3 15  1  0
  5 16  1  0
 10 17  1  0
 11 18  1  0
 11 19  1  0
 12 20  1  0
 12 21  1  0
 13 22  1  0
 13 23  1  0
M  CHG  1   1   1
M  END
>  <meeko>  (5) 
{"is_sidechain": [false], "free_energy": -5.316, "intermolecular_energy": -5.992, "internal_energy": -0.056}

$$$$
3g2z_ligand
     RDKit          3D

 23 24  0  0  0  0  0  0  0  0999 V2000
   -8.0640    1.2470    6.5300 O   0  0  0  0  0  0  0  0  0  0  0  0
   -8.9460    0.3060    6.5930 C   0  0  0  0  0  0  0  0  0  0  0  0
   -8.7870   -0.9220    7.3950 C   0  0  0  0  0  0  0  0  0  0  0  0
   -9.7080   -1.9070    7.3770 C   0  0  0  0  0  0  0  0  0  0  0  0
   -9.6390   -3.0740    8.1380 N   0  0  0  0  0  0  0  0  0  0  0  0
   -8.5610   -3.5870    8.7860 C   0  0  0  0  0  0  0  0  0  0  0  0
   -7.4360   -4.0880    8.3150 N   0  0  0  0  0  0  0  0  0  0  0  0
   -6.6890   -4.4640    9.4030 N   0  0  0  0  0  0  0  0  0  0  0  0
   -7.3320   -4.2040   10.5310 N   0  0  0  0  0  0  0  0  0  0  0  0
   -8.4950   -3.6600   10.1530 N   0  0  0  0  0  0  0  0  0  0  0  0
  -10.9300   -1.8050    6.4710 C   0  0  0  0  0  0  0  0  0  0  0  0
  -10.7490   -0.8160    5.3190 C   0  0  0  0  0  0  0  0  0  0  0  0
  -10.2160    0.5160    5.8150 C   0  0  0  0  0  0  0  0  0  0  0  0
   -7.2580    1.0570    7.0680 H   0  0  0  0  0  0  0  0  0  0  0  0
   -7.8927   -1.0374    8.0250 H   0  0  0  0  0  0  0  0  0  0  0  0
  -10.5250   -3.5760    8.2020 H   0  0  0  0  0  0  0  0  0  0  0  0
   -9.1620   -3.3760   10.8590 H   0  0  0  0  0  0  0  0  0  0  0  0
  -11.1349   -2.7996    6.0481 H   0  0  0  0  0  0  0  0  0  0  0  0
  -11.7628   -1.4369    7.0881 H   0  0  0  0  0  0  0  0  0  0  0  0
  -10.0390   -1.2380    4.5925 H   0  0  0  0  0  0  0  0  0  0  0  0
  -11.7294   -0.6452    4.8504 H   0  0  0  0  0  0  0  0  0  0  0  0
  -10.0117    1.1696    4.9542 H   0  0  0  0  0  0  0  0  0  0  0  0
  -10.9665    0.9834    6.4694 H   0  0  0  0  0  0  0  0  0  0  0  0
  1  2  2  3
  2  3  1  0
  3  4  2  0
  4  5  1  0
  5  6  1  0
  6  7  2  0
  7  8  1  0
  8  9  2  0
  9 10  1  0
  4 11  1  0
 11 12  1  0
 12 13  1  0
 13  2  1  0
 10  6  1  0
  1 14  1  0
  3 15  1  0
  5 16  1  0
 10 17  1  0
 11 18  1  0
 11 19  1  0
 12 20  1  0
 12 21  1  0
 13 22  1  0
 13 23  1  0
M  CHG  1   1   1
M  END
>  <meeko>  (6) 
{"is_sidechain": [false], "free_energy": -4.879, "intermolecular_energy": -5.394, "internal_energy": -0.166}

$$$$
3g2z_ligand
     RDKit          3D

 23 24  0  0  0  0  0  0  0  0999 V2000
   -8.1320    1.1210    6.5670 O   0  0  0  0  0  0  0  0  0  0  0  0
   -8.8780    0.0900    6.7860 C   0  0  0  0  0  0  0  0  0  0  0  0
  -10.2710   -0.0370    6.3160 C   0  0  0  0  0  0  0  0  0  0  0  0
  -11.0310   -1.1060    6.6250 C   0  0  0  0  0  0  0  0  0  0  0  0
  -12.3390   -1.3060    6.1850 N   0  0  0  0  0  0  0  0  0  0  0  0
  -13.4940   -1.0170    6.8380 C   0  0  0  0  0  0  0  0  0  0  0  0
  -13.7160   -0.7450    8.1080 N   0  0  0  0  0  0  0  0  0  0  0  0
  -15.0660   -0.5290    8.2320 N   0  0  0  0  0  0  0  0  0  0  0  0
  -15.6760   -0.6630    7.0650 N   0  0  0  0  0  0  0  0  0  0  0  0
  -14.7050   -0.9670    6.1960 N   0  0  0  0  0  0  0  0  0  0  0  0
  -10.4860   -2.2050    7.5300 C   0  0  0  0  0  0  0  0  0  0  0  0
   -9.2990   -1.7550    8.3840 C   0  0  0  0  0  0  0  0  0  0  0  0
   -8.2510   -1.0500    7.5410 C   0  0  0  0  0  0  0  0  0  0  0  0
   -8.5950    1.8300    6.0580 H   0  0  0  0  0  0  0  0  0  0  0  0
  -10.7011    0.7634    5.6960 H   0  0  0  0  0  0  0  0  0  0  0  0
  -12.4010   -1.7150    5.2510 H   0  0  0  0  0  0  0  0  0  0  0  0
  -14.9400   -1.1190    5.2230 H   0  0  0  0  0  0  0  0  0  0  0  0
  -11.2924   -2.5365    8.2007 H   0  0  0  0  0  0  0  0  0  0  0  0
  -10.1285   -3.0155    6.8779 H   0  0  0  0  0  0  0  0  0  0  0  0
   -9.6578   -1.0645    9.1615 H   0  0  0  0  0  0  0  0  0  0  0  0
   -8.8393   -2.6454    8.8377 H   0  0  0  0  0  0  0  0  0  0  0  0
   -7.4583   -0.6602    8.1966 H   0  0  0  0  0  0  0  0  0  0  0  0
   -7.8240   -1.7661    6.8235 H   0  0  0  0  0  0  0  0  0  0  0  0
  1  2  2  3
  2  3  1  0
  3  4  2  0
  4  5  1  0
  5  6  1  0
  6  7  2  0
  7  8  1  0
  8  9  2  0
  9 10  1  0
  4 11  1  0
 11 12  1  0
 12 13  1  0
 13  2  1  0
 10  6  1  0
  1 14  1  0
  3 15  1  0
  5 16  1  0
 10 17  1  0
 11 18  1  0
 11 19  1  0
 12 20  1  0
 12 21  1  0
 13 22  1  0
 13 23  1  0
M  CHG  1   1   1
M  END
>  <meeko>  (7) 
{"is_sidechain": [false], "free_energy": -4.721, "intermolecular_energy": -5.214, "internal_energy": -0.168}

$$$$
3g2z_ligand
     RDKit          3D

 23 24  0  0  0  0  0  0  0  0999 V2000
   -7.3540   -3.3140    9.8150 O   0  0  0  0  0  0  0  0  0  0  0  0
   -7.1630   -2.9860    8.5810 C   0  0  0  0  0  0  0  0  0  0  0  0
   -7.8480   -1.8660    7.9080 C   0  0  0  0  0  0  0  0  0  0  0  0
   -7.6640   -1.6040    6.5980 C   0  0  0  0  0  0  0  0  0  0  0  0
   -8.2490   -0.5420    5.9100 N   0  0  0  0  0  0  0  0  0  0  0  0
   -9.5490   -0.1470    5.9320 C   0  0  0  0  0  0  0  0  0  0  0  0
  -10.4500   -0.1100    4.9710 N   0  0  0  0  0  0  0  0  0  0  0  0
  -11.6040    0.3740    5.5340 N   0  0  0  0  0  0  0  0  0  0  0  0
  -11.4300    0.6330    6.8200 N   0  0  0  0  0  0  0  0  0  0  0  0
  -10.1550    0.3120    7.0720 N   0  0  0  0  0  0  0  0  0  0  0  0
   -6.7730   -2.5030    5.7480 C   0  0  0  0  0  0  0  0  0  0  0  0
   -6.5550   -3.8900    6.3560 C   0  0  0  0  0  0  0  0  0  0  0  0
   -6.1490   -3.7930    7.8170 C   0  0  0  0  0  0  0  0  0  0  0  0
   -8.0210   -2.7420   10.2660 H   0  0  0  0  0  0  0  0  0  0  0  0
   -8.5276   -1.2270    8.4909 H   0  0  0  0  0  0  0  0  0  0  0  0
   -7.5930   -0.0130    5.3340 H   0  0  0  0  0  0  0  0  0  0  0  0
   -9.7900    0.4300    8.0090 H   0  0  0  0  0  0  0  0  0  0  0  0
   -7.2412   -2.6247    4.7601 H   0  0  0  0  0  0  0  0  0  0  0  0
   -5.7880   -2.0176    5.6835 H   0  0  0  0  0  0  0  0  0  0  0  0
   -7.4895   -4.4654    6.2809 H   0  0  0  0  0  0  0  0  0  0  0  0
   -5.7460   -4.3892    5.8025 H   0  0  0  0  0  0  0  0  0  0  0  0
   -6.0898   -4.8040    8.2464 H   0  0  0  0  0  0  0  0  0  0  0  0
   -5.1684   -3.2996    7.8870 H   0  0  0  0  0  0  0  0  0  0  0  0
  1  2  2  3
  2  3  1  0
  3  4  2  0
  4  5  1  0
  5  6  1  0
  6  7  2  0
  7  8  1  0
  8  9  2  0
  9 10  1  0
  4 11  1  0
 11 12  1  0
 12 13  1  0
 13  2  1  0
 10  6  1  0
  1 14  1  0
  3 15  1  0
  5 16  1  0
 10 17  1  0
 11 18  1  0
 11 19  1  0
 12 20  1  0
 12 21  1  0
 13 22  1  0
 13 23  1  0
M  CHG  1   1   1
M  END
>  <meeko>  (8) 
{"is_sidechain": [false], "free_energy": -4.657, "intermolecular_energy": -5.313, "internal_energy": 0.001}

$$$$
3g2z_ligand
     RDKit          3D

 23 24  0  0  0  0  0  0  0  0999 V2000
  -15.4120   -0.7590    2.8510 O   0  0  0  0  0  0  0  0  0  0  0  0
  -14.5630   -0.6700    3.8200 C   0  0  0  0  0  0  0  0  0  0  0  0
  -13.0990   -0.6410    3.6360 C   0  0  0  0  0  0  0  0  0  0  0  0
  -12.2520   -0.6130    4.6830 C   0  0  0  0  0  0  0  0  0  0  0  0
  -10.8630   -0.5470    4.5810 N   0  0  0  0  0  0  0  0  0  0  0  0
   -9.9560   -0.4130    5.5840 C   0  0  0  0  0  0  0  0  0  0  0  0
   -9.3820   -1.3210    6.3470 N   0  0  0  0  0  0  0  0  0  0  0  0
   -8.5460   -0.6450    7.2000 N   0  0  0  0  0  0  0  0  0  0  0  0
   -8.5950    0.6590    6.9750 N   0  0  0  0  0  0  0  0  0  0  0  0
   -9.4690    0.8090    5.9720 N   0  0  0  0  0  0  0  0  0  0  0  0
  -12.7850   -0.6680    6.1100 C   0  0  0  0  0  0  0  0  0  0  0  0
  -14.2040   -1.2310    6.2060 C   0  0  0  0  0  0  0  0  0  0  0  0
  -15.1310   -0.5580    5.2080 C   0  0  0  0  0  0  0  0  0  0  0  0
  -14.9800   -0.8200    1.9650 H   0  0  0  0  0  0  0  0  0  0  0  0
  -12.6881   -0.6423    2.6156 H   0  0  0  0  0  0  0  0  0  0  0  0
  -10.5160   -0.6180    3.6230 H   0  0  0  0  0  0  0  0  0  0  0  0
   -9.6710    1.7370    5.6250 H   0  0  0  0  0  0  0  0  0  0  0  0
  -12.1160   -1.3043    6.7080 H   0  0  0  0  0  0  0  0  0  0  0  0
  -12.8192    0.3657    6.4844 H   0  0  0  0  0  0  0  0  0  0  0  0
  -14.1763   -2.3109    5.9983 H   0  0  0  0  0  0  0  0  0  0  0  0
  -14.5863   -1.0406    7.2197 H   0  0  0  0  0  0  0  0  0  0  0  0
  -16.1159   -1.0470    5.2389 H   0  0  0  0  0  0  0  0  0  0  0  0
  -15.2332    0.5052    5.4710 H   0  0  0  0  0  0  0  0  0  0  0  0
  1  2  2  3
  2  3  1  0
  3  4  2  0
  4  5  1  0
  5  6  1  0
  6  7  2  0
  7  8  1  0
  8  9  2  0
  9 10  1  0
  4 11  1  0
 11 12  1  0
 12 13  1  0
 13  2  1  0
 10  6  1  0
  1 14  1  0
  3 15  1  0
  5 16  1  0
 10 17  1  0
 11 18  1  0
 11 19  1  0
 12 20  1  0
 12 21  1  0
 13 22  1  0
 13 23  1  0
M  CHG  1   1   1
M  END
>  <meeko>  (9) 
{"is_sidechain": [false], "free_energy": -4.612, "intermolecular_energy": -5.126, "internal_energy": -0.136}

$$$$
