
     RDKit          3D

 24 27  0  0  0  0  0  0  0  0999 V2000
    8.5040    6.5130   -8.4610 C   0  0  0  0  0  0  0  0  0  0  0  0
    9.0130    7.7820   -8.0310 O   0  0  0  0  0  0  0  0  0  0  0  0
    8.7780    8.1950   -6.7630 C   0  0  0  0  0  0  0  0  0  0  0  0
    9.4060    9.3470   -6.3100 C   0  0  0  0  0  0  0  0  0  0  0  0
    9.1860    9.8150   -5.0300 C   0  0  0  0  0  0  0  0  0  0  0  0
    9.8780   11.0740   -4.5740 C   0  0  0  0  0  0  0  0  0  0  0  0
    8.3230    9.1340   -4.1620 C   0  0  0  0  0  0  0  0  0  0  0  0
    8.1070    9.6190   -2.8950 N   0  0  0  0  0  0  0  0  0  0  0  0
    7.2620    8.9730   -2.0810 C   0  0  0  0  0  0  0  0  0  0  0  0
    6.9060    9.2900   -0.8400 N   0  0  0  0  0  0  0  0  0  0  0  0
    6.0290    8.3980   -0.4100 N   0  0  0  0  0  0  0  0  0  0  0  0
    5.8090    7.4830   -1.3540 C   0  0  0  0  0  0  0  0  0  0  0  0
    4.8620    6.3460   -1.1600 C   0  0  0  0  0  0  0  0  0  0  0  0
    6.5860    7.8050   -2.4600 C   0  0  0  0  0  0  0  0  0  0  0  0
    6.8020    7.2680   -3.7350 C   0  0  0  0  0  0  0  0  0  0  0  0
    6.1680    5.9810   -4.1400 C   0  0  0  0  0  0  0  0  0  0  0  0
    7.2210    4.9580   -4.2930 N   0  0  0  0  0  0  0  0  0  0  0  0
    6.8050    3.8610   -5.1760 C   0  0  0  0  0  0  0  0  0  0  0  0
    7.9890    2.8930   -5.3220 C   0  0  0  0  0  0  0  0  0  0  0  0
    8.3430    2.4100   -4.0180 O   0  0  0  0  0  0  0  0  0  0  0  0
    8.7800    3.4680   -3.1390 C   0  0  0  0  0  0  0  0  0  0  0  0
    7.6190    4.4640   -2.9710 C   0  0  0  0  0  0  0  0  0  0  0  0
    7.6830    7.9450   -4.6200 C   0  0  0  0  0  0  0  0  0  0  0  0
    7.9260    7.4970   -5.9230 C   0  0  0  0  0  0  0  0  0  0  0  0
  2  1  1  0
  3  2  1  0
  4  3  1  0
  5  4  2  0
  6  5  1  0
  7  5  1  0
  8  7  2  0
  9  8  1  0
 10  9  2  0
 11 10  1  0
 12 11  1  0
 13 12  1  0
 14 12  2  0
 14  9  1  0
 15 14  1  0
 16 15  1  0
 17 16  1  0
 18 17  1  0
 19 18  1  0
 20 19  1  0
 21 20  1  0
 22 21  1  0
 22 17  1  0
 23 15  2  0
 23  7  1  0
 24  3  2  0
 24 23  1  0
M  CHG  1  17   1
M  END
$$$$
