3aru_ligand
     RDKit          3D

 38 39  0  0  0  0  0  0  0  0999 V2000
    0.6600    2.5660  -12.4070 C   0  0  0  0  0  0  0  0  0  0  0  0
    1.7850    1.6540  -11.9940 C   0  0  0  0  0  0  0  0  0  0  0  0
    2.9530    2.0440  -12.0000 O   0  0  0  0  0  0  0  0  0  0  0  0
    1.4000    0.2320  -11.6290 C   0  0  0  0  0  0  0  0  0  0  0  0
    2.3420   -0.3630  -10.5840 C   0  0  0  0  0  0  0  0  0  0  0  0
    1.9490   -1.7760  -10.1430 C   0  0  0  0  0  0  0  0  0  0  0  0
    2.9350   -2.8850  -10.5410 C   0  0  0  0  0  0  0  0  0  0  0  0
    2.4290   -4.2290  -10.2760 N   0  0  0  0  0  0  0  0  0  0  0  0
    2.7280   -4.7810   -9.0240 C   0  0  0  0  0  0  0  0  0  0  0  0
    3.3900   -4.2120   -8.1600 O   0  0  0  0  0  0  0  0  0  0  0  0
    2.1860   -6.0820   -8.8460 C   0  0  0  0  0  0  0  0  0  0  0  0
    1.4570   -6.7220   -9.8000 C   0  0  0  0  0  0  0  0  0  0  0  0
    1.0540   -7.9560   -9.3900 N   0  0  0  0  0  0  0  0  0  0  0  0
    1.5360   -8.0700   -8.1680 C   0  0  0  0  0  0  0  0  0  0  0  0
    2.2330   -6.9520   -7.7940 N   0  0  0  0  0  0  0  0  0  0  0  0
    2.8880   -6.7400   -6.5290 C   0  0  0  0  0  0  0  0  0  0  0  0
    1.1920   -6.1440  -11.0180 N   0  0  0  0  0  0  0  0  0  0  0  0
    0.4010   -6.8600  -12.0020 C   0  0  0  0  0  0  0  0  0  0  0  0
    1.6770   -4.8640  -11.2880 C   0  0  0  0  0  0  0  0  0  0  0  0
    1.4560   -4.3050  -12.3680 O   0  0  0  0  0  0  0  0  0  0  0  0
    0.1652    2.9672  -11.5102 H   0  0  0  0  0  0  0  0  0  0  0  0
    1.0621    3.3962  -13.0062 H   0  0  0  0  0  0  0  0  0  0  0  0
   -0.0690    2.0008  -13.0062 H   0  0  0  0  0  0  0  0  0  0  0  0
    0.3766    0.2331  -11.2257 H   0  0  0  0  0  0  0  0  0  0  0  0
    1.4673   -0.3834  -12.5383 H   0  0  0  0  0  0  0  0  0  0  0  0
    3.3556   -0.4001  -11.0096 H   0  0  0  0  0  0  0  0  0  0  0  0
    2.2872    0.2812   -9.6941 H   0  0  0  0  0  0  0  0  0  0  0  0
    1.8599   -1.7776   -9.0466 H   0  0  0  0  0  0  0  0  0  0  0  0
    1.0065   -2.0059  -10.6615 H   0  0  0  0  0  0  0  0  0  0  0  0
    3.1444   -2.7965  -11.6172 H   0  0  0  0  0  0  0  0  0  0  0  0
    3.8403   -2.7511   -9.9307 H   0  0  0  0  0  0  0  0  0  0  0  0
    1.3957   -8.9537   -7.5282 H   0  0  0  0  0  0  0  0  0  0  0  0
    2.1881   -6.9665   -5.7112 H   0  0  0  0  0  0  0  0  0  0  0  0
    3.7647   -7.4003   -6.4548 H   0  0  0  0  0  0  0  0  0  0  0  0
    3.2115   -5.6913   -6.4548 H   0  0  0  0  0  0  0  0  0  0  0  0
   -0.3201   -7.5127  -11.4882 H   0  0  0  0  0  0  0  0  0  0  0  0
   -0.1409   -6.1391  -12.6318 H   0  0  0  0  0  0  0  0  0  0  0  0
    1.0645   -7.4708  -12.6318 H   0  0  0  0  0  0  0  0  0  0  0  0
  1  2  1  0
  2  3  2  0
  2  4  1  0
  4  5  1  0
  5  6  1  0
  6  7  1  0
  7  8  1  0
  8  9  1  0
  9 10  2  0
  9 11  1  0
 11 12  2  0
 12 13  1  0
 13 14  2  0
 14 15  1  0
 15 16  1  0
 12 17  1  0
 17 18  1  0
 17 19  1  0
 19 20  2  0
 19  8  1  0
 15 11  1  0
  1 21  1  0
  1 22  1  0
  1 23  1  0
  4 24  1  0
  4 25  1  0
  5 26  1  0
  5 27  1  0
  6 28  1  0
  6 29  1  0
  7 30  1  0
  7 31  1  0
 14 32  1  0
 16 33  1  0
 16 34  1  0
 16 35  1  0
 18 36  1  0
 18 37  1  0
 18 38  1  0
M  END
>  <meeko>  (1) 
{"is_sidechain": [false], "free_energy": -6.277, "intermolecular_energy": -8.112, "internal_energy": -0.223}

$$$$
3aru_ligand
     RDKit          3D

 38 39  0  0  0  0  0  0  0  0999 V2000
    1.8900   -7.5430   -8.3720 C   0  0  0  0  0  0  0  0  0  0  0  0
    2.5180   -6.7330   -7.2680 C   0  0  0  0  0  0  0  0  0  0  0  0
    2.5970   -7.1750   -6.1210 O   0  0  0  0  0  0  0  0  0  0  0  0
    2.9890   -5.3390   -7.6400 C   0  0  0  0  0  0  0  0  0  0  0  0
    3.0170   -5.1320   -9.1540 C   0  0  0  0  0  0  0  0  0  0  0  0
    2.0030   -4.0960   -9.6470 C   0  0  0  0  0  0  0  0  0  0  0  0
    1.5680   -4.2500  -11.1120 C   0  0  0  0  0  0  0  0  0  0  0  0
    0.1800   -3.8620  -11.3450 N   0  0  0  0  0  0  0  0  0  0  0  0
   -0.7950   -4.8450  -11.1290 C   0  0  0  0  0  0  0  0  0  0  0  0
   -0.5470   -5.9950  -10.7760 O   0  0  0  0  0  0  0  0  0  0  0  0
   -2.1150   -4.3800  -11.3650 C   0  0  0  0  0  0  0  0  0  0  0  0
   -2.3980   -3.1100  -11.7640 C   0  0  0  0  0  0  0  0  0  0  0  0
   -3.7360   -2.9120  -11.9240 N   0  0  0  0  0  0  0  0  0  0  0  0
   -4.2780   -4.0730  -11.6140 C   0  0  0  0  0  0  0  0  0  0  0  0
   -3.3300   -4.9970  -11.2670 N   0  0  0  0  0  0  0  0  0  0  0  0
   -3.5740   -6.3610  -10.8720 C   0  0  0  0  0  0  0  0  0  0  0  0
   -1.4090   -2.1790  -11.9680 N   0  0  0  0  0  0  0  0  0  0  0  0
   -1.7580   -0.8320  -12.3840 C   0  0  0  0  0  0  0  0  0  0  0  0
   -0.0770   -2.5370  -11.7580 C   0  0  0  0  0  0  0  0  0  0  0  0
    0.8420   -1.7280  -11.9240 O   0  0  0  0  0  0  0  0  0  0  0  0
    1.2714   -8.3408   -7.9351 H   0  0  0  0  0  0  0  0  0  0  0  0
    1.2602   -6.8895   -8.9935 H   0  0  0  0  0  0  0  0  0  0  0  0
    2.6798   -7.9901   -8.9935 H   0  0  0  0  0  0  0  0  0  0  0  0
    2.3060   -4.6017   -7.1928 H   0  0  0  0  0  0  0  0  0  0  0  0
    4.0134   -5.2124   -7.2596 H   0  0  0  0  0  0  0  0  0  0  0  0
    4.0247   -4.7972   -9.4412 H   0  0  0  0  0  0  0  0  0  0  0  0
    2.7493   -6.0931   -9.6173 H   0  0  0  0  0  0  0  0  0  0  0  0
    1.1052   -4.1719   -9.0160 H   0  0  0  0  0  0  0  0  0  0  0  0
    2.5071   -3.1206   -9.5799 H   0  0  0  0  0  0  0  0  0  0  0  0
    2.2168   -3.6190  -11.7372 H   0  0  0  0  0  0  0  0  0  0  0  0
    1.6562   -5.3161  -11.3682 H   0  0  0  0  0  0  0  0  0  0  0  0
   -5.3593   -4.2743  -11.6320 H   0  0  0  0  0  0  0  0  0  0  0  0
   -3.5860   -6.4282   -9.7741 H   0  0  0  0  0  0  0  0  0  0  0  0
   -4.5452   -6.6899  -11.2702 H   0  0  0  0  0  0  0  0  0  0  0  0
   -2.7770   -7.0062  -11.2702 H   0  0  0  0  0  0  0  0  0  0  0  0
   -1.9206   -0.2044  -11.4954 H   0  0  0  0  0  0  0  0  0  0  0  0
   -0.9394   -0.4104  -12.9858 H   0  0  0  0  0  0  0  0  0  0  0  0
   -2.6783   -0.8610  -12.9858 H   0  0  0  0  0  0  0  0  0  0  0  0
  1  2  1  0
  2  3  2  0
  2  4  1  0
  4  5  1  0
  5  6  1  0
  6  7  1  0
  7  8  1  0
  8  9  1  0
  9 10  2  0
  9 11  1  0
 11 12  2  0
 12 13  1  0
 13 14  2  0
 14 15  1  0
 15 16  1  0
 12 17  1  0
 17 18  1  0
 17 19  1  0
 19 20  2  0
 19  8  1  0
 15 11  1  0
  1 21  1  0
  1 22  1  0
  1 23  1  0
  4 24  1  0
  4 25  1  0
  5 26  1  0
  5 27  1  0
  6 28  1  0
  6 29  1  0
  7 30  1  0
  7 31  1  0
 14 32  1  0
 16 33  1  0
 16 34  1  0
 16 35  1  0
 18 36  1  0
 18 37  1  0
 18 38  1  0
M  END
>  <meeko>  (2) 
{"is_sidechain": [false], "free_energy": -6.132, "intermolecular_energy": -7.761, "internal_energy": -0.387}

$$$$
3aru_ligand
     RDKit          3D

 38 39  0  0  0  0  0  0  0  0999 V2000
    2.0390   -7.5160   -7.8170 C   0  0  0  0  0  0  0  0  0  0  0  0
    2.7560   -6.5090   -8.6780 C   0  0  0  0  0  0  0  0  0  0  0  0
    3.2530   -6.8360   -9.7570 O   0  0  0  0  0  0  0  0  0  0  0  0
    2.8740   -5.1040   -8.1160 C   0  0  0  0  0  0  0  0  0  0  0  0
    2.8800   -4.0480   -9.2210 C   0  0  0  0  0  0  0  0  0  0  0  0
    1.4770   -3.6280   -9.6700 C   0  0  0  0  0  0  0  0  0  0  0  0
    1.0590   -4.1250  -11.0630 C   0  0  0  0  0  0  0  0  0  0  0  0
   -0.3860   -4.2820  -11.2090 N   0  0  0  0  0  0  0  0  0  0  0  0
   -1.1020   -3.1570  -11.6390 C   0  0  0  0  0  0  0  0  0  0  0  0
   -0.5930   -2.0660  -11.8800 O   0  0  0  0  0  0  0  0  0  0  0  0
   -2.4950   -3.4020  -11.7670 C   0  0  0  0  0  0  0  0  0  0  0  0
   -3.0680   -4.6060  -11.4950 C   0  0  0  0  0  0  0  0  0  0  0  0
   -4.4160   -4.5850  -11.6930 N   0  0  0  0  0  0  0  0  0  0  0  0
   -4.6690   -3.3550  -12.0960 C   0  0  0  0  0  0  0  0  0  0  0  0
   -3.5280   -2.5990  -12.1570 N   0  0  0  0  0  0  0  0  0  0  0  0
   -3.4430   -1.2180  -12.5590 C   0  0  0  0  0  0  0  0  0  0  0  0
   -2.3270   -5.6810  -11.0720 N   0  0  0  0  0  0  0  0  0  0  0  0
   -2.9800   -6.9500  -10.8030 C   0  0  0  0  0  0  0  0  0  0  0  0
   -0.9470   -5.5440  -10.9190 C   0  0  0  0  0  0  0  0  0  0  0  0
   -0.2420   -6.4890  -10.5460 O   0  0  0  0  0  0  0  0  0  0  0  0
    2.2083   -7.2783   -6.7564 H   0  0  0  0  0  0  0  0  0  0  0  0
    0.9610   -7.4816   -8.0329 H   0  0  0  0  0  0  0  0  0  0  0  0
    2.4242   -8.5235   -8.0329 H   0  0  0  0  0  0  0  0  0  0  0  0
    2.0207   -4.9151   -7.4480 H   0  0  0  0  0  0  0  0  0  0  0  0
    3.8269   -5.0332   -7.5710 H   0  0  0  0  0  0  0  0  0  0  0  0
    3.4081   -3.1575   -8.8492 H   0  0  0  0  0  0  0  0  0  0  0  0
    3.3797   -4.4943  -10.0934 H   0  0  0  0  0  0  0  0  0  0  0  0
    0.7545   -4.0188   -8.9384 H   0  0  0  0  0  0  0  0  0  0  0  0
    1.4919   -2.5297   -9.7298 H   0  0  0  0  0  0  0  0  0  0  0  0
    1.4092   -3.3999  -11.8124 H   0  0  0  0  0  0  0  0  0  0  0  0
    1.5114   -5.1176  -11.2049 H   0  0  0  0  0  0  0  0  0  0  0  0
   -5.6719   -2.9822  -12.3515 H   0  0  0  0  0  0  0  0  0  0  0  0
   -3.4036   -0.5778  -11.6654 H   0  0  0  0  0  0  0  0  0  0  0  0
   -2.5338   -1.0661  -13.1593 H   0  0  0  0  0  0  0  0  0  0  0  0
   -4.3267   -0.9558  -13.1593 H   0  0  0  0  0  0  0  0  0  0  0  0
   -3.0570   -7.0996   -9.7159 H   0  0  0  0  0  0  0  0  0  0  0  0
   -3.9874   -6.9448  -11.2447 H   0  0  0  0  0  0  0  0  0  0  0  0
   -2.3902   -7.7667  -11.2447 H   0  0  0  0  0  0  0  0  0  0  0  0
  1  2  1  0
  2  3  2  0
  2  4  1  0
  4  5  1  0
  5  6  1  0
  6  7  1  0
  7  8  1  0
  8  9  1  0
  9 10  2  0
  9 11  1  0
 11 12  2  0
 12 13  1  0
 13 14  2  0
 14 15  1  0
 15 16  1  0
 12 17  1  0
 17 18  1  0
 17 19  1  0
 19 20  2  0
 19  8  1  0
 15 11  1  0
  1 21  1  0
  1 22  1  0
  1 23  1  0
  4 24  1  0
  4 25  1  0
  5 26  1  0
  5 27  1  0
  6 28  1  0
  6 29  1  0
  7 30  1  0
  7 31  1  0
 14 32  1  0
 16 33  1  0
 16 34  1  0
 16 35  1  0
 18 36  1  0
 18 37  1  0
 18 38  1  0
M  END
>  <meeko>  (3) 
{"is_sidechain": [false], "free_energy": -6.101, "intermolecular_energy": -7.596, "internal_energy": -0.511}

$$$$
3aru_ligand
     RDKit          3D

 38 39  0  0  0  0  0  0  0  0999 V2000
    1.8710   -7.1110   -8.7870 C   0  0  0  0  0  0  0  0  0  0  0  0
    2.6120   -6.1780   -7.8640 C   0  0  0  0  0  0  0  0  0  0  0  0
    2.9510   -6.5370   -6.7360 O   0  0  0  0  0  0  0  0  0  0  0  0
    2.8610   -4.7740   -8.3850 C   0  0  0  0  0  0  0  0  0  0  0  0
    1.9370   -4.4270   -9.5520 C   0  0  0  0  0  0  0  0  0  0  0  0
    1.9670   -2.9440   -9.9330 C   0  0  0  0  0  0  0  0  0  0  0  0
    1.7970   -2.6490  -11.4310 C   0  0  0  0  0  0  0  0  0  0  0  0
    0.6030   -1.8640  -11.7320 N   0  0  0  0  0  0  0  0  0  0  0  0
    0.7660   -0.4750  -11.8170 C   0  0  0  0  0  0  0  0  0  0  0  0
    1.8340    0.1060  -11.6420 O   0  0  0  0  0  0  0  0  0  0  0  0
   -0.4400    0.2080  -12.1260 C   0  0  0  0  0  0  0  0  0  0  0  0
   -1.6290   -0.4270  -12.3140 C   0  0  0  0  0  0  0  0  0  0  0  0
   -2.6340    0.4470  -12.5970 N   0  0  0  0  0  0  0  0  0  0  0  0
   -2.0530    1.6310  -12.5870 C   0  0  0  0  0  0  0  0  0  0  0  0
   -0.7160    1.5340  -12.3050 N   0  0  0  0  0  0  0  0  0  0  0  0
    0.2170    2.6280  -12.2170 C   0  0  0  0  0  0  0  0  0  0  0  0
   -1.7440   -1.7920  -12.2170 N   0  0  0  0  0  0  0  0  0  0  0  0
   -3.0300   -2.4280  -12.4360 C   0  0  0  0  0  0  0  0  0  0  0  0
   -0.6130   -2.5550  -11.9210 C   0  0  0  0  0  0  0  0  0  0  0  0
   -0.6710   -3.7860  -11.8310 O   0  0  0  0  0  0  0  0  0  0  0  0
    1.2957   -7.8353   -8.1917 H   0  0  0  0  0  0  0  0  0  0  0  0
    1.1849   -6.5307   -9.4215 H   0  0  0  0  0  0  0  0  0  0  0  0
    2.5915   -7.6479   -9.4215 H   0  0  0  0  0  0  0  0  0  0  0  0
    2.6887   -4.0563   -7.5694 H   0  0  0  0  0  0  0  0  0  0  0  0
    3.8991   -4.7232   -8.7453 H   0  0  0  0  0  0  0  0  0  0  0  0
    2.2443   -5.0179  -10.4274 H   0  0  0  0  0  0  0  0  0  0  0  0
    0.9103   -4.6589   -9.2326 H   0  0  0  0  0  0  0  0  0  0  0  0
    1.1541   -2.4374   -9.3922 H   0  0  0  0  0  0  0  0  0  0  0  0
    2.9691   -2.5800   -9.6624 H   0  0  0  0  0  0  0  0  0  0  0  0
    2.6788   -2.0914  -11.7795 H   0  0  0  0  0  0  0  0  0  0  0  0
    1.6896   -3.6161  -11.9440 H   0  0  0  0  0  0  0  0  0  0  0  0
   -2.5769    2.5786  -12.7810 H   0  0  0  0  0  0  0  0  0  0  0  0
    0.4134    2.8583  -11.1594 H   0  0  0  0  0  0  0  0  0  0  0  0
    1.1584    2.3478  -12.7122 H   0  0  0  0  0  0  0  0  0  0  0  0
   -0.2083    3.5134  -12.7122 H   0  0  0  0  0  0  0  0  0  0  0  0
   -3.4952   -2.6581  -11.4661 H   0  0  0  0  0  0  0  0  0  0  0  0
   -3.6829   -1.7489  -13.0039 H   0  0  0  0  0  0  0  0  0  0  0  0
   -2.8866   -3.3591  -13.0039 H   0  0  0  0  0  0  0  0  0  0  0  0
  1  2  1  0
  2  3  2  0
  2  4  1  0
  4  5  1  0
  5  6  1  0
  6  7  1  0
  7  8  1  0
  8  9  1  0
  9 10  2  0
  9 11  1  0
 11 12  2  0
 12 13  1  0
 13 14  2  0
 14 15  1  0
 15 16  1  0
 12 17  1  0
 17 18  1  0
 17 19  1  0
 19 20  2  0
 19  8  1  0
 15 11  1  0
  1 21  1  0
  1 22  1  0
  1 23  1  0
  4 24  1  0
  4 25  1  0
  5 26  1  0
  5 27  1  0
  6 28  1  0
  6 29  1  0
  7 30  1  0
  7 31  1  0
 14 32  1  0
 16 33  1  0
 16 34  1  0
 16 35  1  0
 18 36  1  0
 18 37  1  0
 18 38  1  0
M  END
>  <meeko>  (4) 
{"is_sidechain": [false], "free_energy": -6.089, "intermolecular_energy": -7.781, "internal_energy": -0.31}

$$$$
3aru_ligand
     RDKit          3D

 38 39  0  0  0  0  0  0  0  0999 V2000
    8.0600  -15.3400   -7.6690 C   0  0  0  0  0  0  0  0  0  0  0  0
    8.6590  -14.0220   -8.0870 C   0  0  0  0  0  0  0  0  0  0  0  0
    9.8800  -13.8560   -8.1020 O   0  0  0  0  0  0  0  0  0  0  0  0
    7.6800  -12.9150   -8.4280 C   0  0  0  0  0  0  0  0  0  0  0  0
    7.2110  -12.1650   -7.1820 C   0  0  0  0  0  0  0  0  0  0  0  0
    6.5850  -10.8010   -7.4900 C   0  0  0  0  0  0  0  0  0  0  0  0
    5.1840  -10.8490   -8.1180 C   0  0  0  0  0  0  0  0  0  0  0  0
    4.9170   -9.7320   -9.0190 N   0  0  0  0  0  0  0  0  0  0  0  0
    4.1840   -8.6590   -8.4940 C   0  0  0  0  0  0  0  0  0  0  0  0
    3.7520   -8.6170   -7.3450 O   0  0  0  0  0  0  0  0  0  0  0  0
    3.9820   -7.6120   -9.4310 C   0  0  0  0  0  0  0  0  0  0  0  0
    4.4510   -7.6550  -10.7080 C   0  0  0  0  0  0  0  0  0  0  0  0
    4.1260   -6.5330  -11.4080 N   0  0  0  0  0  0  0  0  0  0  0  0
    3.4550   -5.7930  -10.5480 C   0  0  0  0  0  0  0  0  0  0  0  0
    3.3430   -6.4100   -9.3300 N   0  0  0  0  0  0  0  0  0  0  0  0
    2.6760   -5.8830   -8.1670 C   0  0  0  0  0  0  0  0  0  0  0  0
    5.1620   -8.7300  -11.1820 N   0  0  0  0  0  0  0  0  0  0  0  0
    5.6530   -8.7270  -12.5490 C   0  0  0  0  0  0  0  0  0  0  0  0
    5.4180   -9.8090  -10.3360 C   0  0  0  0  0  0  0  0  0  0  0  0
    6.0600  -10.7930  -10.7210 O   0  0  0  0  0  0  0  0  0  0  0  0
    8.0333  -15.3988   -6.5709 H   0  0  0  0  0  0  0  0  0  0  0  0
    7.0371  -15.4201   -8.0655 H   0  0  0  0  0  0  0  0  0  0  0  0
    8.6724  -16.1633   -8.0655 H   0  0  0  0  0  0  0  0  0  0  0  0
    8.1709  -12.2031   -9.1078 H   0  0  0  0  0  0  0  0  0  0  0  0
    6.7992  -13.3730   -8.9018 H   0  0  0  0  0  0  0  0  0  0  0  0
    6.4624  -12.7830   -6.6647 H   0  0  0  0  0  0  0  0  0  0  0  0
    8.1002  -11.9805   -6.5612 H   0  0  0  0  0  0  0  0  0  0  0  0
    6.5159  -10.2381   -6.5475 H   0  0  0  0  0  0  0  0  0  0  0  0
    7.2380  -10.3284   -8.2385 H   0  0  0  0  0  0  0  0  0  0  0  0
    5.0877  -11.7863   -8.6857 H   0  0  0  0  0  0  0  0  0  0  0  0
    4.4559  -10.7859   -7.2959 H   0  0  0  0  0  0  0  0  0  0  0  0
    3.0366   -4.8024  -10.7797 H   0  0  0  0  0  0  0  0  0  0  0  0
    3.1632   -6.2679   -7.2590 H   0  0  0  0  0  0  0  0  0  0  0  0
    2.7346   -4.7846   -8.1770 H   0  0  0  0  0  0  0  0  0  0  0  0
    1.6209   -6.1940   -8.1770 H   0  0  0  0  0  0  0  0  0  0  0  0
    6.7530   -8.7203  -12.5435 H   0  0  0  0  0  0  0  0  0  0  0  0
    5.2944   -9.6274  -13.0694 H   0  0  0  0  0  0  0  0  0  0  0  0
    5.2835   -7.8311  -13.0694 H   0  0  0  0  0  0  0  0  0  0  0  0
  1  2  1  0
  2  3  2  0
  2  4  1  0
  4  5  1  0
  5  6  1  0
  6  7  1  0
  7  8  1  0
  8  9  1  0
  9 10  2  0
  9 11  1  0
 11 12  2  0
 12 13  1  0
 13 14  2  0
 14 15  1  0
 15 16  1  0
 12 17  1  0
 17 18  1  0
 17 19  1  0
 19 20  2  0
 19  8  1  0
 15 11  1  0
  1 21  1  0
  1 22  1  0
  1 23  1  0
  4 24  1  0
  4 25  1  0
  5 26  1  0
  5 27  1  0
  6 28  1  0
  6 29  1  0
  7 30  1  0
  7 31  1  0
 14 32  1  0
 16 33  1  0
 16 34  1  0
 16 35  1  0
 18 36  1  0
 18 37  1  0
 18 38  1  0
M  END
>  <meeko>  (5) 
{"is_sidechain": [false], "free_energy": -6.08, "intermolecular_energy": -7.804, "internal_energy": -0.276}

$$$$
3aru_ligand
     RDKit          3D

 38 39  0  0  0  0  0  0  0  0999 V2000
    2.3140    0.8660  -10.3190 C   0  0  0  0  0  0  0  0  0  0  0  0
    1.4150    0.4150  -11.4410 C   0  0  0  0  0  0  0  0  0  0  0  0
    0.9400    1.2240  -12.2380 O   0  0  0  0  0  0  0  0  0  0  0  0
    1.0940   -1.0680  -11.4910 C   0  0  0  0  0  0  0  0  0  0  0  0
    1.8360   -1.8480  -10.4060 C   0  0  0  0  0  0  0  0  0  0  0  0
    1.3190   -3.2780  -10.2220 C   0  0  0  0  0  0  0  0  0  0  0  0
    0.8660   -3.9820  -11.5100 C   0  0  0  0  0  0  0  0  0  0  0  0
   -0.2960   -4.8460  -11.3180 N   0  0  0  0  0  0  0  0  0  0  0  0
   -1.5550   -4.2490  -11.4540 C   0  0  0  0  0  0  0  0  0  0  0  0
   -1.7310   -3.0600  -11.7080 O   0  0  0  0  0  0  0  0  0  0  0  0
   -2.6260   -5.1620  -11.2650 C   0  0  0  0  0  0  0  0  0  0  0  0
   -2.4400   -6.4800  -10.9770 C   0  0  0  0  0  0  0  0  0  0  0  0
   -3.6220   -7.1430  -10.8410 N   0  0  0  0  0  0  0  0  0  0  0  0
   -4.5410   -6.2220  -11.0540 C   0  0  0  0  0  0  0  0  0  0  0  0
   -3.9810   -5.0000  -11.3170 N   0  0  0  0  0  0  0  0  0  0  0  0
   -4.6930   -3.7790  -11.5950 C   0  0  0  0  0  0  0  0  0  0  0  0
   -1.1850   -7.0220  -10.8480 N   0  0  0  0  0  0  0  0  0  0  0  0
   -1.0340   -8.4350  -10.5510 C   0  0  0  0  0  0  0  0  0  0  0  0
   -0.0660   -6.2070  -11.0210 C   0  0  0  0  0  0  0  0  0  0  0  0
    1.0810   -6.6560  -10.9200 O   0  0  0  0  0  0  0  0  0  0  0  0
    1.8425    0.6295   -9.3537 H   0  0  0  0  0  0  0  0  0  0  0  0
    3.2806    0.3461  -10.3921 H   0  0  0  0  0  0  0  0  0  0  0  0
    2.4752    1.9517  -10.3921 H   0  0  0  0  0  0  0  0  0  0  0  0
    0.0116   -1.2027  -11.3487 H   0  0  0  0  0  0  0  0  0  0  0  0
    1.4161   -1.4540  -12.4694 H   0  0  0  0  0  0  0  0  0  0  0  0
    2.9011   -1.8947  -10.6770 H   0  0  0  0  0  0  0  0  0  0  0  0
    1.6710   -1.3188   -9.4559 H   0  0  0  0  0  0  0  0  0  0  0  0
    2.1258   -3.8761   -9.7733 H   0  0  0  0  0  0  0  0  0  0  0  0
    0.4242   -3.1991   -9.5871 H   0  0  0  0  0  0  0  0  0  0  0  0
    0.6113   -3.2149  -12.2561 H   0  0  0  0  0  0  0  0  0  0  0  0
    1.6970   -4.6223  -11.8410 H   0  0  0  0  0  0  0  0  0  0  0  0
   -5.6241   -6.4116  -11.0242 H   0  0  0  0  0  0  0  0  0  0  0  0
   -4.9751   -3.2953  -10.6482 H   0  0  0  0  0  0  0  0  0  0  0  0
   -4.0480   -3.1022  -12.1746 H   0  0  0  0  0  0  0  0  0  0  0  0
   -5.5997   -4.0071  -12.1746 H   0  0  0  0  0  0  0  0  0  0  0  0
   -1.0184   -8.5809   -9.4608 H   0  0  0  0  0  0  0  0  0  0  0  0
   -1.8776   -8.9928  -10.9836 H   0  0  0  0  0  0  0  0  0  0  0  0
   -0.0915   -8.8019  -10.9836 H   0  0  0  0  0  0  0  0  0  0  0  0
  1  2  1  0
  2  3  2  0
  2  4  1  0
  4  5  1  0
  5  6  1  0
  6  7  1  0
  7  8  1  0
  8  9  1  0
  9 10  2  0
  9 11  1  0
 11 12  2  0
 12 13  1  0
 13 14  2  0
 14 15  1  0
 15 16  1  0
 12 17  1  0
 17 18  1  0
 17 19  1  0
 19 20  2  0
 19  8  1  0
 15 11  1  0
  1 21  1  0
  1 22  1  0
  1 23  1  0
  4 24  1  0
  4 25  1  0
  5 26  1  0
  5 27  1  0
  6 28  1  0
  6 29  1  0
  7 30  1  0
  7 31  1  0
 14 32  1  0
 16 33  1  0
 16 34  1  0
 16 35  1  0
 18 36  1  0
 18 37  1  0
 18 38  1  0
M  END
>  <meeko>  (6) 
{"is_sidechain": [false], "free_energy": -6.078, "intermolecular_energy": -7.678, "internal_energy": -0.4}

$$$$
3aru_ligand
     RDKit          3D

 38 39  0  0  0  0  0  0  0  0999 V2000
    5.2740  -10.9080  -16.0110 C   0  0  0  0  0  0  0  0  0  0  0  0
    6.4450  -11.8120  -16.2970 C   0  0  0  0  0  0  0  0  0  0  0  0
    7.0460  -11.7520  -17.3700 O   0  0  0  0  0  0  0  0  0  0  0  0
    6.7940  -12.8220  -15.2200 C   0  0  0  0  0  0  0  0  0  0  0  0
    8.1670  -12.5490  -14.6070 C   0  0  0  0  0  0  0  0  0  0  0  0
    8.3130  -13.0790  -13.1770 C   0  0  0  0  0  0  0  0  0  0  0  0
    7.0050  -13.5300  -12.5090 C   0  0  0  0  0  0  0  0  0  0  0  0
    6.7370  -12.8450  -11.2470 N   0  0  0  0  0  0  0  0  0  0  0  0
    7.1040  -13.5170  -10.0740 C   0  0  0  0  0  0  0  0  0  0  0  0
    7.6170  -14.6330  -10.0510 O   0  0  0  0  0  0  0  0  0  0  0  0
    6.8210  -12.7760   -8.8960 C   0  0  0  0  0  0  0  0  0  0  0  0
    6.2470  -11.5420   -8.9130 C   0  0  0  0  0  0  0  0  0  0  0  0
    6.0780  -11.0420   -7.6580 N   0  0  0  0  0  0  0  0  0  0  0  0
    6.5590  -11.9780   -6.8640 C   0  0  0  0  0  0  0  0  0  0  0  0
    7.0230  -13.0530   -7.5750 N   0  0  0  0  0  0  0  0  0  0  0  0
    7.6130  -14.2470   -7.0250 C   0  0  0  0  0  0  0  0  0  0  0  0
    5.8990  -10.9220  -10.0880 N   0  0  0  0  0  0  0  0  0  0  0  0
    5.2980   -9.6000  -10.0590 C   0  0  0  0  0  0  0  0  0  0  0  0
    6.1410  -11.5670  -11.3010 C   0  0  0  0  0  0  0  0  0  0  0  0
    5.8490  -11.0410  -12.3810 O   0  0  0  0  0  0  0  0  0  0  0  0
    5.1449  -10.8083  -14.9232 H   0  0  0  0  0  0  0  0  0  0  0  0
    5.4600   -9.9169  -16.4505 H   0  0  0  0  0  0  0  0  0  0  0  0
    4.3623  -11.3388  -16.4505 H   0  0  0  0  0  0  0  0  0  0  0  0
    6.0339  -12.7727  -14.4264 H   0  0  0  0  0  0  0  0  0  0  0  0
    6.8193  -13.8195  -15.6830 H   0  0  0  0  0  0  0  0  0  0  0  0
    8.9311  -13.0290  -15.2361 H   0  0  0  0  0  0  0  0  0  0  0  0
    8.2903  -11.4569  -14.5619 H   0  0  0  0  0  0  0  0  0  0  0  0
    8.9969  -13.9402  -13.2016 H   0  0  0  0  0  0  0  0  0  0  0  0
    8.6875  -12.2369  -12.5765 H   0  0  0  0  0  0  0  0  0  0  0  0
    6.1726  -13.3291  -13.1994 H   0  0  0  0  0  0  0  0  0  0  0  0
    7.1058  -14.6020  -12.2839 H   0  0  0  0  0  0  0  0  0  0  0  0
    6.5846  -11.9048   -5.7667 H   0  0  0  0  0  0  0  0  0  0  0  0
    7.5878  -14.1959   -5.9265 H   0  0  0  0  0  0  0  0  0  0  0  0
    7.0456  -15.1262   -7.3643 H   0  0  0  0  0  0  0  0  0  0  0  0
    8.6560  -14.3304   -7.3643 H   0  0  0  0  0  0  0  0  0  0  0  0
    5.1549   -9.2851   -9.0148 H   0  0  0  0  0  0  0  0  0  0  0  0
    5.9596   -8.8851  -10.5701 H   0  0  0  0  0  0  0  0  0  0  0  0
    4.3244   -9.6285  -10.5701 H   0  0  0  0  0  0  0  0  0  0  0  0
  1  2  1  0
  2  3  2  0
  2  4  1  0
  4  5  1  0
  5  6  1  0
  6  7  1  0
  7  8  1  0
  8  9  1  0
  9 10  2  0
  9 11  1  0
 11 12  2  0
 12 13  1  0
 13 14  2  0
 14 15  1  0
 15 16  1  0
 12 17  1  0
 17 18  1  0
 17 19  1  0
 19 20  2  0
 19  8  1  0
 15 11  1  0
  1 21  1  0
  1 22  1  0
  1 23  1  0
  4 24  1  0
  4 25  1  0
  5 26  1  0
  5 27  1  0
  6 28  1  0
  6 29  1  0
  7 30  1  0
  7 31  1  0
 14 32  1  0
 16 33  1  0
 16 34  1  0
 16 35  1  0
 18 36  1  0
 18 37  1  0
 18 38  1  0
M  END
>  <meeko>  (7) 
{"is_sidechain": [false], "free_energy": -6.065, "intermolecular_energy": -7.632, "internal_energy": -0.428}

$$$$
3aru_ligand
     RDKit          3D

 38 39  0  0  0  0  0  0  0  0999 V2000
    7.5660  -14.6990   -6.9960 C   0  0  0  0  0  0  0  0  0  0  0  0
    7.1810  -13.4060   -7.6660 C   0  0  0  0  0  0  0  0  0  0  0  0
    6.8230  -12.4300   -7.0050 O   0  0  0  0  0  0  0  0  0  0  0  0
    7.2100  -13.3990   -9.1830 C   0  0  0  0  0  0  0  0  0  0  0  0
    8.4970  -14.0140   -9.7310 C   0  0  0  0  0  0  0  0  0  0  0  0
    8.6390  -13.8780  -11.2500 C   0  0  0  0  0  0  0  0  0  0  0  0
    7.5150  -14.5240  -12.0750 C   0  0  0  0  0  0  0  0  0  0  0  0
    7.1850  -13.7780  -13.2860 N   0  0  0  0  0  0  0  0  0  0  0  0
    6.1500  -12.8390  -13.1860 C   0  0  0  0  0  0  0  0  0  0  0  0
    5.5090  -12.6260  -12.1610 O   0  0  0  0  0  0  0  0  0  0  0  0
    5.9050  -12.1510  -14.4040 C   0  0  0  0  0  0  0  0  0  0  0  0
    6.6060  -12.3870  -15.5470 C   0  0  0  0  0  0  0  0  0  0  0  0
    6.1810  -11.6010  -16.5760 N   0  0  0  0  0  0  0  0  0  0  0  0
    5.2140  -10.8720  -16.0540 C   0  0  0  0  0  0  0  0  0  0  0  0
    5.0110  -11.1730  -14.7340 N   0  0  0  0  0  0  0  0  0  0  0  0
    4.0370  -10.5660  -13.8630 C   0  0  0  0  0  0  0  0  0  0  0  0
    7.6110  -13.3200  -15.6000 N   0  0  0  0  0  0  0  0  0  0  0  0
    8.3390  -13.5310  -16.8380 C   0  0  0  0  0  0  0  0  0  0  0  0
    7.9320  -14.0480  -14.4530 C   0  0  0  0  0  0  0  0  0  0  0  0
    8.8330  -14.8930  -14.4560 O   0  0  0  0  0  0  0  0  0  0  0  0
    7.5281  -14.5716   -5.9041 H   0  0  0  0  0  0  0  0  0  0  0  0
    6.8647  -15.4911   -7.2973 H   0  0  0  0  0  0  0  0  0  0  0  0
    8.5863  -14.9785   -7.2973 H   0  0  0  0  0  0  0  0  0  0  0  0
    6.3521  -13.9766   -9.5578 H   0  0  0  0  0  0  0  0  0  0  0  0
    7.1614  -12.3531   -9.5201 H   0  0  0  0  0  0  0  0  0  0  0  0
    9.3528  -13.5131   -9.2548 H   0  0  0  0  0  0  0  0  0  0  0  0
    8.4647  -15.0897   -9.5035 H   0  0  0  0  0  0  0  0  0  0  0  0
    8.6665  -12.8058  -11.4941 H   0  0  0  0  0  0  0  0  0  0  0  0
    9.5607  -14.4150  -11.5187 H   0  0  0  0  0  0  0  0  0  0  0  0
    7.8323  -15.5367  -12.3644 H   0  0  0  0  0  0  0  0  0  0  0  0
    6.6139  -14.5361  -11.4443 H   0  0  0  0  0  0  0  0  0  0  0  0
    4.6412  -10.1155  -16.6105 H   0  0  0  0  0  0  0  0  0  0  0  0
    4.3212  -10.7431  -12.8152 H   0  0  0  0  0  0  0  0  0  0  0  0
    3.9981   -9.4835  -14.0544 H   0  0  0  0  0  0  0  0  0  0  0  0
    3.0480  -11.0080  -14.0544 H   0  0  0  0  0  0  0  0  0  0  0  0
    9.3724  -13.8305  -16.6092 H   0  0  0  0  0  0  0  0  0  0  0  0
    7.8481  -14.3238  -17.4215 H   0  0  0  0  0  0  0  0  0  0  0  0
    8.3482  -12.5985  -17.4215 H   0  0  0  0  0  0  0  0  0  0  0  0
  1  2  1  0
  2  3  2  0
  2  4  1  0
  4  5  1  0
  5  6  1  0
  6  7  1  0
  7  8  1  0
  8  9  1  0
  9 10  2  0
  9 11  1  0
 11 12  2  0
 12 13  1  0
 13 14  2  0
 14 15  1  0
 15 16  1  0
 12 17  1  0
 17 18  1  0
 17 19  1  0
 19 20  2  0
 19  8  1  0
 15 11  1  0
  1 21  1  0
  1 22  1  0
  1 23  1  0
  4 24  1  0
  4 25  1  0
  5 26  1  0
  5 27  1  0
  6 28  1  0
  6 29  1  0
  7 30  1  0
  7 31  1  0
 14 32  1  0
 16 33  1  0
 16 34  1  0
 16 35  1  0
 18 36  1  0
 18 37  1  0
 18 38  1  0
M  END
>  <meeko>  (8) 
{"is_sidechain": [false], "free_energy": -6.063, "intermolecular_energy": -7.695, "internal_energy": -0.364}

$$$$
3aru_ligand
     RDKit          3D

 38 39  0  0  0  0  0  0  0  0999 V2000
    9.6950  -13.3450  -14.2350 C   0  0  0  0  0  0  0  0  0  0  0  0
    8.5020  -12.7490  -14.9370 C   0  0  0  0  0  0  0  0  0  0  0  0
    8.6190  -11.7580  -15.6590 O   0  0  0  0  0  0  0  0  0  0  0  0
    7.1610  -13.4040  -14.6590 C   0  0  0  0  0  0  0  0  0  0  0  0
    6.0270  -12.3810  -14.6100 C   0  0  0  0  0  0  0  0  0  0  0  0
    5.5330  -12.0860  -13.1900 C   0  0  0  0  0  0  0  0  0  0  0  0
    6.4260  -11.1450  -12.3670 C   0  0  0  0  0  0  0  0  0  0  0  0
    6.3870  -11.4210  -10.9330 N   0  0  0  0  0  0  0  0  0  0  0  0
    7.1300  -12.5190  -10.4820 C   0  0  0  0  0  0  0  0  0  0  0  0
    7.7880  -13.2550  -11.2130 O   0  0  0  0  0  0  0  0  0  0  0  0
    7.0480  -12.7060   -9.0760 C   0  0  0  0  0  0  0  0  0  0  0  0
    6.3160  -11.8990   -8.2590 C   0  0  0  0  0  0  0  0  0  0  0  0
    6.3970  -12.2860   -6.9560 N   0  0  0  0  0  0  0  0  0  0  0  0
    7.1910  -13.3380   -6.9750 C   0  0  0  0  0  0  0  0  0  0  0  0
    7.6130  -13.6300   -8.2450 N   0  0  0  0  0  0  0  0  0  0  0  0
    8.4880  -14.7100   -8.6250 C   0  0  0  0  0  0  0  0  0  0  0  0
    5.5980  -10.8350   -8.7470 N   0  0  0  0  0  0  0  0  0  0  0  0
    4.8400   -9.9950   -7.8370 C   0  0  0  0  0  0  0  0  0  0  0  0
    5.6190  -10.5640  -10.1160 C   0  0  0  0  0  0  0  0  0  0  0  0
    4.9920   -9.6130  -10.5950 O   0  0  0  0  0  0  0  0  0  0  0  0
    9.5531  -13.2741  -13.1465 H   0  0  0  0  0  0  0  0  0  0  0  0
    9.7999  -14.4014  -14.5231 H   0  0  0  0  0  0  0  0  0  0  0  0
   10.6027  -12.7945  -14.5231 H   0  0  0  0  0  0  0  0  0  0  0  0
    6.9489  -14.1323  -15.4556 H   0  0  0  0  0  0  0  0  0  0  0  0
    7.2189  -13.8964  -13.6771 H   0  0  0  0  0  0  0  0  0  0  0  0
    6.3855  -11.4417  -15.0564 H   0  0  0  0  0  0  0  0  0  0  0  0
    5.1797  -12.8093  -15.1656 H   0  0  0  0  0  0  0  0  0  0  0  0
    4.5355  -11.6285  -13.2653 H   0  0  0  0  0  0  0  0  0  0  0  0
    5.5366  -13.0499  -12.6600 H   0  0  0  0  0  0  0  0  0  0  0  0
    7.4635  -11.2541  -12.7157 H   0  0  0  0  0  0  0  0  0  0  0  0
    6.0457  -10.1233  -12.5132 H   0  0  0  0  0  0  0  0  0  0  0  0
    7.4792  -13.9108   -6.0812 H   0  0  0  0  0  0  0  0  0  0  0  0
    8.8828  -15.1973   -7.7213 H   0  0  0  0  0  0  0  0  0  0  0  0
    7.9267  -15.4440   -9.2219 H   0  0  0  0  0  0  0  0  0  0  0  0
    9.3224  -14.3132   -9.2219 H   0  0  0  0  0  0  0  0  0  0  0  0
    5.0840  -10.2654   -6.7991 H   0  0  0  0  0  0  0  0  0  0  0  0
    5.0977   -8.9399   -8.0113 H   0  0  0  0  0  0  0  0  0  0  0  0
    3.7641  -10.1433   -8.0113 H   0  0  0  0  0  0  0  0  0  0  0  0
  1  2  1  0
  2  3  2  0
  2  4  1  0
  4  5  1  0
  5  6  1  0
  6  7  1  0
  7  8  1  0
  8  9  1  0
  9 10  2  0
  9 11  1  0
 11 12  2  0
 12 13  1  0
 13 14  2  0
 14 15  1  0
 15 16  1  0
 12 17  1  0
 17 18  1  0
 17 19  1  0
 19 20  2  0
 19  8  1  0
 15 11  1  0
  1 21  1  0
  1 22  1  0
  1 23  1  0
  4 24  1  0
  4 25  1  0
  5 26  1  0
  5 27  1  0
  6 28  1  0
  6 29  1  0
  7 30  1  0
  7 31  1  0
 14 32  1  0
 16 33  1  0
 16 34  1  0
 16 35  1  0
 18 36  1  0
 18 37  1  0
 18 38  1  0
M  END
>  <meeko>  (9) 
{"is_sidechain": [false], "free_energy": -5.97, "intermolecular_energy": -7.491, "internal_energy": -0.447}

$$$$
