3prs_ligand
     RDKit          3D

 98101  0  0  0  0  0  0  0  0999 V2000
    8.5230   -5.3270    0.0090 C   0  0  0  0  0  0  0  0  0  0  0  0
    8.9120   -4.1090    0.8470 C   0  0  0  0  0  0  0  0  0  0  0  0
    7.6670   -3.3420    1.2930 C   0  0  0  0  0  0  0  0  0  0  0  0
    9.8310   -3.2040    0.0680 C   0  0  0  0  0  0  0  0  0  0  0  0
    9.9810   -1.9180    0.3000 N   0  0  0  0  0  0  0  0  0  0  0  0
   10.9110   -1.3660   -0.5780 C   0  0  0  0  0  0  0  0  0  0  0  0
   11.2650    0.0950   -0.4940 C   0  0  0  0  0  0  0  0  0  0  0  0
   11.6110    0.4780    0.8720 N   0  0  0  0  0  0  0  0  0  0  0  0
   12.9690    0.1900    1.3120 C   0  0  0  0  0  0  0  0  0  0  0  0
   10.7190    1.2870    1.5470 C   0  0  0  0  0  0  0  0  0  0  0  0
   10.9360    2.4720    1.7840 O   0  0  0  0  0  0  0  0  0  0  0  0
    9.5430    0.6840    1.9050 N   0  0  0  0  0  0  0  0  0  0  0  0
    8.4970    1.3610    2.6850 C   0  0  2  0  0  0  0  0  0  0  0  0
    7.9940    0.4310    3.8170 C   0  0  0  0  0  0  0  0  0  0  0  0
    8.4990    0.4590    4.9390 O   0  0  0  0  0  0  0  0  0  0  0  0
    6.9790   -0.4330    3.4650 N   0  0  0  0  0  0  0  0  0  0  0  0
    6.5260   -1.5040    4.3570 C   0  0  1  0  0  0  0  0  0  0  0  0
    7.7200   -2.2560    4.9940 C   0  0  0  0  0  0  0  0  0  0  0  0
    7.7120   -3.7680    4.9030 C   0  0  0  0  0  0  0  0  0  0  0  0
    6.5610   -4.4950    5.2380 C   0  0  0  0  0  0  0  0  0  0  0  0
    6.5490   -5.8900    5.1640 C   0  0  0  0  0  0  0  0  0  0  0  0
    7.6870   -6.5750    4.7440 C   0  0  0  0  0  0  0  0  0  0  0  0
    8.8290   -5.8640    4.3840 C   0  0  0  0  0  0  0  0  0  0  0  0
    8.8380   -4.4700    4.4520 C   0  0  0  0  0  0  0  0  0  0  0  0
    5.5060   -0.9280    5.3610 C   0  0  0  0  0  0  0  0  0  0  0  0
    4.1600   -1.6610    5.4180 C   0  0  2  0  0  0  0  0  0  0  0  0
    3.1210   -0.7280    5.1050 O   0  0  0  0  0  0  0  0  0  0  0  0
    3.9120   -2.3500    6.7970 C   0  0  2  0  0  0  0  0  0  0  0  0
    3.1500   -3.6850    6.6450 C   0  0  0  0  0  0  0  0  0  0  0  0
    3.2660   -4.5970    7.8470 C   0  0  0  0  0  0  0  0  0  0  0  0
    2.1360   -4.9110    8.6140 C   0  0  0  0  0  0  0  0  0  0  0  0
    2.2450   -5.7470    9.7260 C   0  0  0  0  0  0  0  0  0  0  0  0
    3.4830   -6.2800   10.0800 C   0  0  0  0  0  0  0  0  0  0  0  0
    4.6120   -5.9790    9.3220 C   0  0  0  0  0  0  0  0  0  0  0  0
    4.5050   -5.1440    8.2090 C   0  0  0  0  0  0  0  0  0  0  0  0
    3.1940   -1.4470    7.6990 N   0  0  0  0  0  0  0  0  0  0  0  0
    3.5470   -1.2670    8.9990 C   0  0  0  0  0  0  0  0  0  0  0  0
    4.4560   -1.8580    9.5640 O   0  0  0  0  0  0  0  0  0  0  0  0
    2.7490   -0.3300    9.5550 O   0  0  0  0  0  0  0  0  0  0  0  0
    3.4350    0.5200   10.4760 C   0  0  0  0  0  0  0  0  0  0  0  0
    2.6120    0.5340   11.7190 C   0  0  0  0  0  0  0  0  0  0  0  0
    2.9750    0.9130   12.9970 C   0  0  0  0  0  0  0  0  0  0  0  0
    1.9840    0.8240   13.9550 N   0  0  0  0  0  0  0  0  0  0  0  0
    0.8840    0.3700   13.3960 C   0  0  0  0  0  0  0  0  0  0  0  0
    0.9700    0.0360   11.7170 S   0  0  0  0  0  0  0  0  0  0  0  0
    7.3630    1.9920    1.8380 C   0  0  0  0  0  0  0  0  0  0  0  0
    7.4230    1.5200    0.3800 C   0  0  0  0  0  0  0  0  0  0  0  0
    7.4440    3.5250    1.8680 C   0  0  0  0  0  0  0  0  0  0  0  0
   11.4460   -2.2730   -1.4760 C   0  0  0  0  0  0  0  0  0  0  0  0
   10.7800   -3.8290   -1.2230 S   0  0  0  0  0  0  0  0  0  0  0  0
    8.2567   -6.1607    0.6754 H   0  0  0  0  0  0  0  0  0  0  0  0
    7.6606   -5.0751   -0.6257 H   0  0  0  0  0  0  0  0  0  0  0  0
    9.3717   -5.6216   -0.6257 H   0  0  0  0  0  0  0  0  0  0  0  0
    9.4435   -4.4629    1.7427 H   0  0  0  0  0  0  0  0  0  0  0  0
    7.6260   -3.3167    2.3919 H   0  0  0  0  0  0  0  0  0  0  0  0
    7.7107   -2.3140    0.9040 H   0  0  0  0  0  0  0  0  0  0  0  0
    6.7685   -3.8434    0.9040 H   0  0  0  0  0  0  0  0  0  0  0  0
   12.1246    0.2940   -1.1509 H   0  0  0  0  0  0  0  0  0  0  0  0
   10.3907    0.6834   -0.8093 H   0  0  0  0  0  0  0  0  0  0  0  0
   13.0044    0.1825    2.4114 H   0  0  0  0  0  0  0  0  0  0  0  0
   13.2779   -0.7936    0.9285 H   0  0  0  0  0  0  0  0  0  0  0  0
   13.6505    0.9636    0.9285 H   0  0  0  0  0  0  0  0  0  0  0  0
    9.6420   -0.2960    2.1160 H   0  0  0  0  0  0  0  0  0  0  0  0
    8.9618    2.2420    3.1518 H   0  0  0  0  0  0  0  0  0  0  0  0
    6.9230   -0.6220    2.4610 H   0  0  0  0  0  0  0  0  0  0  0  0
    5.9984   -2.2823    3.7861 H   0  0  0  0  0  0  0  0  0  0  0  0
    8.6367   -1.8994    4.5016 H   0  0  0  0  0  0  0  0  0  0  0  0
    7.6534   -2.0357    6.0696 H   0  0  0  0  0  0  0  0  0  0  0  0
    5.6563   -3.9604    5.5631 H   0  0  0  0  0  0  0  0  0  0  0  0
    5.6410   -6.4475    5.4374 H   0  0  0  0  0  0  0  0  0  0  0  0
    7.6835   -7.6740    4.6969 H   0  0  0  0  0  0  0  0  0  0  0  0
    9.7263   -6.4025    4.0451 H   0  0  0  0  0  0  0  0  0  0  0  0
    9.7387   -3.9163    4.1483 H   0  0  0  0  0  0  0  0  0  0  0  0
    5.9568   -0.9660    6.3636 H   0  0  0  0  0  0  0  0  0  0  0  0
    5.2831    0.0930    5.0177 H   0  0  0  0  0  0  0  0  0  0  0  0
    4.1686   -2.4741    4.6772 H   0  0  0  0  0  0  0  0  0  0  0  0
    2.6530   -1.0410    4.3030 H   0  0  0  0  0  0  0  0  0  0  0  0
    4.8952   -2.5808    7.2329 H   0  0  0  0  0  0  0  0  0  0  0  0
    2.0856   -3.4598    6.4824 H   0  0  0  0  0  0  0  0  0  0  0  0
    3.6034   -4.2168    5.7955 H   0  0  0  0  0  0  0  0  0  0  0  0
    1.1558   -4.4954    8.3375 H   0  0  0  0  0  0  0  0  0  0  0  0
    1.3529   -5.9855   10.3237 H   0  0  0  0  0  0  0  0  0  0  0  0
    3.5685   -6.9379   10.9574 H   0  0  0  0  0  0  0  0  0  0  0  0
    5.5892   -6.4000    9.6010 H   0  0  0  0  0  0  0  0  0  0  0  0
    5.3993   -4.9134    7.6114 H   0  0  0  0  0  0  0  0  0  0  0  0
    2.4830   -0.8240    7.3460 H   0  0  0  0  0  0  0  0  0  0  0  0
    4.4386    0.1224   10.6873 H   0  0  0  0  0  0  0  0  0  0  0  0
    3.5632    1.5334   10.0680 H   0  0  0  0  0  0  0  0  0  0  0  0
    3.9897    1.2637   13.2366 H   0  0  0  0  0  0  0  0  0  0  0  0
   -0.0392    0.2134   13.9731 H   0  0  0  0  0  0  0  0  0  0  0  0
    6.4115    1.6645    2.2823 H   0  0  0  0  0  0  0  0  0  0  0  0
    7.5617    0.4291    0.3532 H   0  0  0  0  0  0  0  0  0  0  0  0
    6.4842    1.7829   -0.1294 H   0  0  0  0  0  0  0  0  0  0  0  0
    8.2662    2.0094   -0.1294 H   0  0  0  0  0  0  0  0  0  0  0  0
    7.4623    3.8708    2.9121 H   0  0  0  0  0  0  0  0  0  0  0  0
    8.3608    3.8538    1.3567 H   0  0  0  0  0  0  0  0  0  0  0  0
    6.5670    3.9486    1.3567 H   0  0  0  0  0  0  0  0  0  0  0  0
   12.1941   -2.0282   -2.2444 H   0  0  0  0  0  0  0  0  0  0  0  0
  1  2  1  0
  2  3  1  0
  2  4  1  0
  4  5  2  0
  5  6  1  0
  6  7  1  0
  7  8  1  0
  8  9  1  0
  8 10  1  0
 10 11  2  0
 10 12  1  0
 12 13  1  0
 13 14  1  0
 14 15  2  0
 14 16  1  0
 16 17  1  0
 17 18  1  0
 18 19  1  0
 19 20  2  0
 20 21  1  0
 21 22  2  0
 22 23  1  0
 23 24  2  0
 17 25  1  0
 25 26  1  0
 26 27  1  0
 26 28  1  0
 28 29  1  0
 29 30  1  0
 30 31  2  0
 31 32  1  0
 32 33  2  0
 33 34  1  0
 34 35  2  0
 28 36  1  0
 36 37  1  0
 37 38  2  0
 37 39  1  0
 39 40  1  0
 40 41  1  0
 41 42  2  0
 42 43  1  0
 43 44  2  0
 44 45  1  0
 13 46  1  0
 46 47  1  0
 46 48  1  0
  6 49  2  0
 49 50  1  0
 50  4  1  0
 24 19  1  0
 35 30  1  0
 45 41  1  0
  1 51  1  0
  1 52  1  0
  1 53  1  0
  2 54  1  0
  3 55  1  0
  3 56  1  0
  3 57  1  0
  7 58  1  0
  7 59  1  0
  9 60  1  0
  9 61  1  0
  9 62  1  0
 12 63  1  0
 13 64  1  1
 16 65  1  0
 17 66  1  6
 18 67  1  0
 18 68  1  0
 20 69  1  0
 21 70  1  0
 22 71  1  0
 23 72  1  0
 24 73  1  0
 25 74  1  0
 25 75  1  0
 26 76  1  6
 27 77  1  0
 28 78  1  1
 29 79  1  0
 29 80  1  0
 31 81  1  0
 32 82  1  0
 33 83  1  0
 34 84  1  0
 35 85  1  0
 36 86  1  0
 40 87  1  0
 40 88  1  0
 42 89  1  0
 44 90  1  0
 46 91  1  0
 47 92  1  0
 47 93  1  0
 47 94  1  0
 48 95  1  0
 48 96  1  0
 48 97  1  0
 49 98  1  0
M  END
>  <meeko>  (1) 
{"is_sidechain": [false], "free_energy": -9.215, "intermolecular_energy": -19.719, "internal_energy": -3.693}

$$$$
3prs_ligand
     RDKit          3D

 98101  0  0  0  0  0  0  0  0999 V2000
   11.3290    3.3110    0.4640 C   0  0  0  0  0  0  0  0  0  0  0  0
   10.7730    2.3210    1.4880 C   0  0  0  0  0  0  0  0  0  0  0  0
   11.8200    2.0060    2.5570 C   0  0  0  0  0  0  0  0  0  0  0  0
   10.3220    1.0550    0.8080 C   0  0  0  0  0  0  0  0  0  0  0  0
    9.1750    0.4530    1.0400 N   0  0  0  0  0  0  0  0  0  0  0  0
    9.0470   -0.6820    0.2430 C   0  0  0  0  0  0  0  0  0  0  0  0
    7.8050   -1.5290    0.3190 C   0  0  0  0  0  0  0  0  0  0  0  0
    7.9500   -2.5950    1.3060 N   0  0  0  0  0  0  0  0  0  0  0  0
    8.2380   -3.9280    0.7960 C   0  0  0  0  0  0  0  0  0  0  0  0
    8.0430   -2.2200    2.6320 C   0  0  0  0  0  0  0  0  0  0  0  0
    8.8780   -2.6870    3.4020 O   0  0  0  0  0  0  0  0  0  0  0  0
    7.1590   -1.2530    3.0270 N   0  0  0  0  0  0  0  0  0  0  0  0
    7.0600   -0.7700    4.4110 C   0  0  2  0  0  0  0  0  0  0  0  0
    5.7100   -1.2070    5.0310 C   0  0  0  0  0  0  0  0  0  0  0  0
    4.7050   -0.5040    4.9360 O   0  0  0  0  0  0  0  0  0  0  0  0
    5.7330   -2.4070    5.7110 N   0  0  0  0  0  0  0  0  0  0  0  0
    4.5970   -2.8650    6.5150 C   0  0  1  0  0  0  0  0  0  0  0  0
    4.5800   -4.4080    6.6480 C   0  0  0  0  0  0  0  0  0  0  0  0
    3.7920   -4.9930    7.8010 C   0  0  0  0  0  0  0  0  0  0  0  0
    2.3910   -4.9210    7.8150 C   0  0  0  0  0  0  0  0  0  0  0  0
    1.6580   -5.4510    8.8790 C   0  0  0  0  0  0  0  0  0  0  0  0
    2.3170   -6.0710    9.9380 C   0  0  0  0  0  0  0  0  0  0  0  0
    3.7050   -6.1720    9.9260 C   0  0  0  0  0  0  0  0  0  0  0  0
    4.4370   -5.6460    8.8590 C   0  0  0  0  0  0  0  0  0  0  0  0
    4.5800   -2.0940    7.8510 C   0  0  0  0  0  0  0  0  0  0  0  0
    3.2040   -1.5780    8.2900 C   0  0  2  0  0  0  0  0  0  0  0  0
    2.9330   -0.3570    7.5950 O   0  0  0  0  0  0  0  0  0  0  0  0
    3.1020   -1.3890    9.8370 C   0  0  2  0  0  0  0  0  0  0  0  0
    2.9240    0.0960   10.2250 C   0  0  0  0  0  0  0  0  0  0  0  0
    2.4070    0.3030   11.6320 C   0  0  0  0  0  0  0  0  0  0  0  0
    1.1210   -0.1240   11.9880 C   0  0  0  0  0  0  0  0  0  0  0  0
    0.6430    0.0720   13.2850 C   0  0  0  0  0  0  0  0  0  0  0  0
    1.4470    0.6950   14.2380 C   0  0  0  0  0  0  0  0  0  0  0  0
    2.7280    1.1200   13.8970 C   0  0  0  0  0  0  0  0  0  0  0  0
    3.2090    0.9230   12.6010 C   0  0  0  0  0  0  0  0  0  0  0  0
    4.2760   -1.9580   10.5020 N   0  0  0  0  0  0  0  0  0  0  0  0
    4.1870   -2.8530   11.5200 C   0  0  0  0  0  0  0  0  0  0  0  0
    3.1410   -3.2440   12.0180 O   0  0  0  0  0  0  0  0  0  0  0  0
    5.4280   -3.2470   11.8810 O   0  0  0  0  0  0  0  0  0  0  0  0
    5.4280   -4.3700   12.7640 C   0  0  0  0  0  0  0  0  0  0  0  0
    6.7350   -5.0570   12.5590 C   0  0  0  0  0  0  0  0  0  0  0  0
    8.0120   -4.5800   12.7830 C   0  0  0  0  0  0  0  0  0  0  0  0
    9.0410   -5.4590   12.5050 N   0  0  0  0  0  0  0  0  0  0  0  0
    8.5340   -6.5890   12.0640 C   0  0  0  0  0  0  0  0  0  0  0  0
    6.8230   -6.6650   11.9660 S   0  0  0  0  0  0  0  0  0  0  0  0
    7.3810    0.7350    4.5970 C   0  0  0  0  0  0  0  0  0  0  0  0
    6.7400    1.5850    3.4930 C   0  0  0  0  0  0  0  0  0  0  0  0
    8.8970    0.9770    4.5950 C   0  0  0  0  0  0  0  0  0  0  0  0
   10.1320   -0.9170   -0.5830 C   0  0  0  0  0  0  0  0  0  0  0  0
   11.3230    0.2920   -0.3630 S   0  0  0  0  0  0  0  0  0  0  0  0
   11.8024    4.1540    0.9886 H   0  0  0  0  0  0  0  0  0  0  0  0
   12.0754    2.8058   -0.1666 H   0  0  0  0  0  0  0  0  0  0  0  0
   10.5092    3.6854   -0.1666 H   0  0  0  0  0  0  0  0  0  0  0  0
    9.9038    2.7841    1.9779 H   0  0  0  0  0  0  0  0  0  0  0  0
   11.3768    2.1393    3.5549 H   0  0  0  0  0  0  0  0  0  0  0  0
   12.1594    0.9660    2.4426 H   0  0  0  0  0  0  0  0  0  0  0  0
   12.6770    2.6861    2.4426 H   0  0  0  0  0  0  0  0  0  0  0  0
    6.9537   -0.8923    0.6016 H   0  0  0  0  0  0  0  0  0  0  0  0
    7.6369   -1.9883   -0.6663 H   0  0  0  0  0  0  0  0  0  0  0  0
    8.3872   -4.6188    1.6390 H   0  0  0  0  0  0  0  0  0  0  0  0
    7.3943   -4.2758    0.1819 H   0  0  0  0  0  0  0  0  0  0  0  0
    9.1501   -3.8965    0.1819 H   0  0  0  0  0  0  0  0  0  0  0  0
    6.2770   -1.2950    2.5430 H   0  0  0  0  0  0  0  0  0  0  0  0
    7.8663   -1.2559    4.9801 H   0  0  0  0  0  0  0  0  0  0  0  0
    6.6630   -2.6820    6.0370 H   0  0  0  0  0  0  0  0  0  0  0  0
    3.6489   -2.6336    6.0076 H   0  0  0  0  0  0  0  0  0  0  0  0
    4.1581   -4.8160    5.7177 H   0  0  0  0  0  0  0  0  0  0  0  0
    5.6251   -4.6877    6.8471 H   0  0  0  0  0  0  0  0  0  0  0  0
    1.8633   -4.4412    6.9775 H   0  0  0  0  0  0  0  0  0  0  0  0
    0.5604   -5.3788    8.8808 H   0  0  0  0  0  0  0  0  0  0  0  0
    1.7417   -6.4798   10.7818 H   0  0  0  0  0  0  0  0  0  0  0  0
    4.2266   -6.6670   10.7584 H   0  0  0  0  0  0  0  0  0  0  0  0
    5.5324   -5.7457    8.8495 H   0  0  0  0  0  0  0  0  0  0  0  0
    4.9580   -2.7654    8.6361 H   0  0  0  0  0  0  0  0  0  0  0  0
    5.2053   -1.2023    7.6967 H   0  0  0  0  0  0  0  0  0  0  0  0
    2.4452   -2.3314    8.0319 H   0  0  0  0  0  0  0  0  0  0  0  0
    2.1640   -0.4990    7.0050 H   0  0  0  0  0  0  0  0  0  0  0  0
    2.2052   -1.9275   10.1772 H   0  0  0  0  0  0  0  0  0  0  0  0
    3.8996    0.5965   10.1371 H   0  0  0  0  0  0  0  0  0  0  0  0
    2.1711    0.5169    9.5424 H   0  0  0  0  0  0  0  0  0  0  0  0
    0.4831   -0.6174   11.2399 H   0  0  0  0  0  0  0  0  0  0  0  0
   -0.3686   -0.2654   13.5549 H   0  0  0  0  0  0  0  0  0  0  0  0
    1.0694    0.8508   15.2593 H   0  0  0  0  0  0  0  0  0  0  0  0
    3.3621    1.6116   14.6494 H   0  0  0  0  0  0  0  0  0  0  0  0
    4.2238    1.2564   12.3384 H   0  0  0  0  0  0  0  0  0  0  0  0
    5.2030   -1.7990   10.1350 H   0  0  0  0  0  0  0  0  0  0  0  0
    5.3322   -4.0352   13.8074 H   0  0  0  0  0  0  0  0  0  0  0  0
    4.5832   -5.0436   12.5576 H   0  0  0  0  0  0  0  0  0  0  0  0
    8.1980   -3.5633   13.1594 H   0  0  0  0  0  0  0  0  0  0  0  0
    9.1709   -7.4378   11.7742 H   0  0  0  0  0  0  0  0  0  0  0  0
    6.9621    1.0344    5.5691 H   0  0  0  0  0  0  0  0  0  0  0  0
    6.1373    2.3843    3.9490 H   0  0  0  0  0  0  0  0  0  0  0  0
    7.5286    2.0310    2.8691 H   0  0  0  0  0  0  0  0  0  0  0  0
    6.0944    0.9494    2.8691 H   0  0  0  0  0  0  0  0  0  0  0  0
    9.2604    1.0350    5.6316 H   0  0  0  0  0  0  0  0  0  0  0  0
    9.4000    0.1478    4.0760 H   0  0  0  0  0  0  0  0  0  0  0  0
    9.1168    1.9216    4.0760 H   0  0  0  0  0  0  0  0  0  0  0  0
   10.2170   -1.7618   -1.2824 H   0  0  0  0  0  0  0  0  0  0  0  0
  1  2  1  0
  2  3  1  0
  2  4  1  0
  4  5  2  0
  5  6  1  0
  6  7  1  0
  7  8  1  0
  8  9  1  0
  8 10  1  0
 10 11  2  0
 10 12  1  0
 12 13  1  0
 13 14  1  0
 14 15  2  0
 14 16  1  0
 16 17  1  0
 17 18  1  0
 18 19  1  0
 19 20  2  0
 20 21  1  0
 21 22  2  0
 22 23  1  0
 23 24  2  0
 17 25  1  0
 25 26  1  0
 26 27  1  0
 26 28  1  0
 28 29  1  0
 29 30  1  0
 30 31  2  0
 31 32  1  0
 32 33  2  0
 33 34  1  0
 34 35  2  0
 28 36  1  0
 36 37  1  0
 37 38  2  0
 37 39  1  0
 39 40  1  0
 40 41  1  0
 41 42  2  0
 42 43  1  0
 43 44  2  0
 44 45  1  0
 13 46  1  0
 46 47  1  0
 46 48  1  0
  6 49  2  0
 49 50  1  0
 50  4  1  0
 24 19  1  0
 35 30  1  0
 45 41  1  0
  1 51  1  0
  1 52  1  0
  1 53  1  0
  2 54  1  0
  3 55  1  0
  3 56  1  0
  3 57  1  0
  7 58  1  0
  7 59  1  0
  9 60  1  0
  9 61  1  0
  9 62  1  0
 12 63  1  0
 13 64  1  1
 16 65  1  0
 17 66  1  6
 18 67  1  0
 18 68  1  0
 20 69  1  0
 21 70  1  0
 22 71  1  0
 23 72  1  0
 24 73  1  0
 25 74  1  0
 25 75  1  0
 26 76  1  6
 27 77  1  0
 28 78  1  1
 29 79  1  0
 29 80  1  0
 31 81  1  0
 32 82  1  0
 33 83  1  0
 34 84  1  0
 35 85  1  0
 36 86  1  0
 40 87  1  0
 40 88  1  0
 42 89  1  0
 44 90  1  0
 46 91  1  0
 47 92  1  0
 47 93  1  0
 47 94  1  0
 48 95  1  0
 48 96  1  0
 48 97  1  0
 49 98  1  0
M  END
>  <meeko>  (2) 
{"is_sidechain": [false], "free_energy": -9.018, "intermolecular_energy": -19.537, "internal_energy": -3.454}

$$$$
3prs_ligand
     RDKit          3D

 98101  0  0  0  0  0  0  0  0999 V2000
   13.4770   -6.7460   -1.7310 C   0  0  0  0  0  0  0  0  0  0  0  0
   11.9690   -6.5060   -1.8120 C   0  0  0  0  0  0  0  0  0  0  0  0
   11.5800   -5.9880   -3.1980 C   0  0  0  0  0  0  0  0  0  0  0  0
   11.5310   -5.5330   -0.7490 C   0  0  0  0  0  0  0  0  0  0  0  0
   10.9980   -4.3550   -0.9930 N   0  0  0  0  0  0  0  0  0  0  0  0
   10.6870   -3.7020    0.1970 C   0  0  0  0  0  0  0  0  0  0  0  0
   10.0480   -2.3390    0.1740 C   0  0  0  0  0  0  0  0  0  0  0  0
   11.0070   -1.2990    0.5360 N   0  0  0  0  0  0  0  0  0  0  0  0
   12.2550   -1.2640   -0.2160 C   0  0  0  0  0  0  0  0  0  0  0  0
   10.5660   -0.2980    1.3780 C   0  0  0  0  0  0  0  0  0  0  0  0
   11.3270    0.4630    1.9700 O   0  0  0  0  0  0  0  0  0  0  0  0
    9.2060   -0.1800    1.4810 N   0  0  0  0  0  0  0  0  0  0  0  0
    8.5470    0.7810    2.3760 C   0  0  2  0  0  0  0  0  0  0  0  0
    7.9910    0.0500    3.6230 C   0  0  0  0  0  0  0  0  0  0  0  0
    8.4450    0.2670    4.7460 O   0  0  0  0  0  0  0  0  0  0  0  0
    6.9910   -0.8670    3.3750 N   0  0  0  0  0  0  0  0  0  0  0  0
    6.4970   -1.7770    4.4110 C   0  0  1  0  0  0  0  0  0  0  0  0
    7.6600   -2.4610    5.1690 C   0  0  0  0  0  0  0  0  0  0  0  0
    7.7440   -3.9710    5.0870 C   0  0  0  0  0  0  0  0  0  0  0  0
    8.7630   -4.5880    4.3440 C   0  0  0  0  0  0  0  0  0  0  0  0
    8.8420   -5.9790    4.2570 C   0  0  0  0  0  0  0  0  0  0  0  0
    7.9090   -6.7730    4.9200 C   0  0  0  0  0  0  0  0  0  0  0  0
    6.9070   -6.1750    5.6810 C   0  0  0  0  0  0  0  0  0  0  0  0
    6.8320   -4.7840    5.7720 C   0  0  0  0  0  0  0  0  0  0  0  0
    5.4880   -1.0240    5.3040 C   0  0  0  0  0  0  0  0  0  0  0  0
    4.1100   -1.6840    5.4310 C   0  0  2  0  0  0  0  0  0  0  0  0
    3.1060   -0.6820    5.2420 O   0  0  0  0  0  0  0  0  0  0  0  0
    3.9250   -2.4270    6.7920 C   0  0  2  0  0  0  0  0  0  0  0  0
    3.2420   -3.8000    6.6120 C   0  0  0  0  0  0  0  0  0  0  0  0
    3.2400   -4.6530    7.8620 C   0  0  0  0  0  0  0  0  0  0  0  0
    4.4450   -5.1060    8.4160 C   0  0  0  0  0  0  0  0  0  0  0  0
    4.4420   -5.8970    9.5670 C   0  0  0  0  0  0  0  0  0  0  0  0
    3.2360   -6.2380   10.1760 C   0  0  0  0  0  0  0  0  0  0  0  0
    2.0330   -5.7890    9.6370 C   0  0  0  0  0  0  0  0  0  0  0  0
    2.0340   -4.9980    8.4870 C   0  0  0  0  0  0  0  0  0  0  0  0
    3.1690   -1.5950    7.7320 N   0  0  0  0  0  0  0  0  0  0  0  0
    3.5910   -1.3390    8.9970 C   0  0  0  0  0  0  0  0  0  0  0  0
    4.6060   -1.7990    9.5020 O   0  0  0  0  0  0  0  0  0  0  0  0
    2.7260   -0.4930    9.5970 O   0  0  0  0  0  0  0  0  0  0  0  0
    3.3690    0.4880   10.4120 C   0  0  0  0  0  0  0  0  0  0  0  0
    2.5980    0.5380   11.6860 C   0  0  0  0  0  0  0  0  0  0  0  0
    3.0330    0.8830   12.9520 C   0  0  0  0  0  0  0  0  0  0  0  0
    2.0760    0.8430   13.9480 N   0  0  0  0  0  0  0  0  0  0  0  0
    0.9310    0.4610   13.4300 C   0  0  0  0  0  0  0  0  0  0  0  0
    0.9310    0.1390   11.7450 S   0  0  0  0  0  0  0  0  0  0  0  0
    7.5210    1.7130    1.6830 C   0  0  0  0  0  0  0  0  0  0  0  0
    8.1360    2.4160    0.4660 C   0  0  0  0  0  0  0  0  0  0  0  0
    6.9980    2.7750    2.6590 C   0  0  0  0  0  0  0  0  0  0  0  0
   11.0090   -4.4200    1.3360 C   0  0  0  0  0  0  0  0  0  0  0  0
   11.7070   -5.9250    0.9160 S   0  0  0  0  0  0  0  0  0  0  0  0
   13.7843   -6.7949   -0.6759 H   0  0  0  0  0  0  0  0  0  0  0  0
   13.7246   -7.6948   -2.2294 H   0  0  0  0  0  0  0  0  0  0  0  0
   14.0069   -5.9209   -2.2294 H   0  0  0  0  0  0  0  0  0  0  0  0
   11.4579   -7.4650   -1.6414 H   0  0  0  0  0  0  0  0  0  0  0  0
   10.9226   -5.1126   -3.0910 H   0  0  0  0  0  0  0  0  0  0  0  0
   12.4870   -5.7002   -3.7497 H   0  0  0  0  0  0  0  0  0  0  0  0
   11.0507   -6.7788   -3.7497 H   0  0  0  0  0  0  0  0  0  0  0  0
    9.6668   -2.1387   -0.8382 H   0  0  0  0  0  0  0  0  0  0  0  0
    9.2281   -2.3267    0.9073 H   0  0  0  0  0  0  0  0  0  0  0  0
   13.1039   -1.2402    0.4832 H   0  0  0  0  0  0  0  0  0  0  0  0
   12.3267   -2.1605   -0.8494 H   0  0  0  0  0  0  0  0  0  0  0  0
   12.2763   -0.3649   -0.8494 H   0  0  0  0  0  0  0  0  0  0  0  0
    8.7210   -1.0580    1.3930 H   0  0  0  0  0  0  0  0  0  0  0  0
    9.3187    1.4881    2.7145 H   0  0  0  0  0  0  0  0  0  0  0  0
    6.9810   -1.2210    2.4150 H   0  0  0  0  0  0  0  0  0  0  0  0
    5.9497   -2.6162    3.9568 H   0  0  0  0  0  0  0  0  0  0  0  0
    8.6006   -2.0547    4.7688 H   0  0  0  0  0  0  0  0  0  0  0  0
    7.4739   -2.2438    6.2312 H   0  0  0  0  0  0  0  0  0  0  0  0
    9.5081   -3.9679    3.8242 H   0  0  0  0  0  0  0  0  0  0  0  0
    9.6413   -6.4483    3.6647 H   0  0  0  0  0  0  0  0  0  0  0  0
    7.9633   -7.8689    4.8429 H   0  0  0  0  0  0  0  0  0  0  0  0
    6.1735   -6.8001    6.2112 H   0  0  0  0  0  0  0  0  0  0  0  0
    6.0476   -4.3211    6.3888 H   0  0  0  0  0  0  0  0  0  0  0  0
    5.9205   -0.9423    6.3121 H   0  0  0  0  0  0  0  0  0  0  0  0
    5.3174   -0.0515    4.8192 H   0  0  0  0  0  0  0  0  0  0  0  0
    4.0170   -2.4580    4.6549 H   0  0  0  0  0  0  0  0  0  0  0  0
    3.5480    0.1880    5.1570 H   0  0  0  0  0  0  0  0  0  0  0  0
    4.9274   -2.6112    7.2058 H   0  0  0  0  0  0  0  0  0  0  0  0
    2.1989   -3.6305    6.3068 H   0  0  0  0  0  0  0  0  0  0  0  0
    3.8207   -4.3472    5.8532 H   0  0  0  0  0  0  0  0  0  0  0  0
    5.3999   -4.8366    7.9409 H   0  0  0  0  0  0  0  0  0  0  0  0
    5.3923   -6.2511    9.9931 H   0  0  0  0  0  0  0  0  0  0  0  0
    3.2342   -6.8616   11.0822 H   0  0  0  0  0  0  0  0  0  0  0  0
    1.0810   -6.0580   10.1180 H   0  0  0  0  0  0  0  0  0  0  0  0
    1.0810   -4.6427    8.0681 H   0  0  0  0  0  0  0  0  0  0  0  0
    2.3620   -1.0730    7.4230 H   0  0  0  0  0  0  0  0  0  0  0  0
    4.4116    0.1973   10.6081 H   0  0  0  0  0  0  0  0  0  0  0  0
    3.3902    1.4700    9.9168 H   0  0  0  0  0  0  0  0  0  0  0  0
    4.0752    1.1712   13.1538 H   0  0  0  0  0  0  0  0  0  0  0  0
    0.0234    0.3536   14.0421 H   0  0  0  0  0  0  0  0  0  0  0  0
    6.6870    1.0788    1.3480 H   0  0  0  0  0  0  0  0  0  0  0  0
    8.8247    3.2032    0.8066 H   0  0  0  0  0  0  0  0  0  0  0  0
    8.6881    1.6831   -0.1406 H   0  0  0  0  0  0  0  0  0  0  0  0
    7.3362    2.8658   -0.1406 H   0  0  0  0  0  0  0  0  0  0  0  0
    7.1645    2.4369    3.6924 H   0  0  0  0  0  0  0  0  0  0  0  0
    7.5330    3.7215    2.4922 H   0  0  0  0  0  0  0  0  0  0  0  0
    5.9215    2.9279    2.4922 H   0  0  0  0  0  0  0  0  0  0  0  0
   10.8400   -4.0722    2.3658 H   0  0  0  0  0  0  0  0  0  0  0  0
  1  2  1  0
  2  3  1  0
  2  4  1  0
  4  5  2  0
  5  6  1  0
  6  7  1  0
  7  8  1  0
  8  9  1  0
  8 10  1  0
 10 11  2  0
 10 12  1  0
 12 13  1  0
 13 14  1  0
 14 15  2  0
 14 16  1  0
 16 17  1  0
 17 18  1  0
 18 19  1  0
 19 20  2  0
 20 21  1  0
 21 22  2  0
 22 23  1  0
 23 24  2  0
 17 25  1  0
 25 26  1  0
 26 27  1  0
 26 28  1  0
 28 29  1  0
 29 30  1  0
 30 31  2  0
 31 32  1  0
 32 33  2  0
 33 34  1  0
 34 35  2  0
 28 36  1  0
 36 37  1  0
 37 38  2  0
 37 39  1  0
 39 40  1  0
 40 41  1  0
 41 42  2  0
 42 43  1  0
 43 44  2  0
 44 45  1  0
 13 46  1  0
 46 47  1  0
 46 48  1  0
  6 49  2  0
 49 50  1  0
 50  4  1  0
 24 19  1  0
 35 30  1  0
 45 41  1  0
  1 51  1  0
  1 52  1  0
  1 53  1  0
  2 54  1  0
  3 55  1  0
  3 56  1  0
  3 57  1  0
  7 58  1  0
  7 59  1  0
  9 60  1  0
  9 61  1  0
  9 62  1  0
 12 63  1  0
 13 64  1  1
 16 65  1  0
 17 66  1  6
 18 67  1  0
 18 68  1  0
 20 69  1  0
 21 70  1  0
 22 71  1  0
 23 72  1  0
 24 73  1  0
 25 74  1  0
 25 75  1  0
 26 76  1  6
 27 77  1  0
 28 78  1  1
 29 79  1  0
 29 80  1  0
 31 81  1  0
 32 82  1  0
 33 83  1  0
 34 84  1  0
 35 85  1  0
 36 86  1  0
 40 87  1  0
 40 88  1  0
 42 89  1  0
 44 90  1  0
 46 91  1  0
 47 92  1  0
 47 93  1  0
 47 94  1  0
 48 95  1  0
 48 96  1  0
 48 97  1  0
 49 98  1  0
M  END
>  <meeko>  (3) 
{"is_sidechain": [false], "free_energy": -8.812, "intermolecular_energy": -19.777, "internal_energy": -2.772}

$$$$
3prs_ligand
     RDKit          3D

 98101  0  0  0  0  0  0  0  0999 V2000
   12.1620   -6.4930   -3.8010 C   0  0  0  0  0  0  0  0  0  0  0  0
   12.9620   -5.9760   -2.6050 C   0  0  0  0  0  0  0  0  0  0  0  0
   14.1220   -6.9210   -2.2840 C   0  0  0  0  0  0  0  0  0  0  0  0
   12.0700   -5.8160   -1.4020 C   0  0  0  0  0  0  0  0  0  0  0  0
   10.8320   -5.3740   -1.4480 N   0  0  0  0  0  0  0  0  0  0  0  0
   10.2700   -5.3580   -0.1740 C   0  0  0  0  0  0  0  0  0  0  0  0
    8.8480   -4.9050    0.0260 C   0  0  0  0  0  0  0  0  0  0  0  0
    8.7860   -3.7070    0.8580 N   0  0  0  0  0  0  0  0  0  0  0  0
    9.5120   -2.5370    0.3820 C   0  0  0  0  0  0  0  0  0  0  0  0
    7.8650   -3.6980    1.8860 C   0  0  0  0  0  0  0  0  0  0  0  0
    7.0430   -2.7980    2.0420 O   0  0  0  0  0  0  0  0  0  0  0  0
    7.9000   -4.7910    2.7090 N   0  0  0  0  0  0  0  0  0  0  0  0
    7.0440   -4.9340    3.8950 C   0  0  2  0  0  0  0  0  0  0  0  0
    7.0930   -3.6400    4.7450 C   0  0  0  0  0  0  0  0  0  0  0  0
    8.1130   -3.3100    5.3480 O   0  0  0  0  0  0  0  0  0  0  0  0
    5.9180   -2.9210    4.7950 N   0  0  0  0  0  0  0  0  0  0  0  0
    5.7390   -1.7860    5.7040 C   0  0  1  0  0  0  0  0  0  0  0  0
    5.3660   -0.4950    4.9350 C   0  0  0  0  0  0  0  0  0  0  0  0
    6.5000    0.2880    4.3090 C   0  0  0  0  0  0  0  0  0  0  0  0
    6.2330    1.3970    3.4920 C   0  0  0  0  0  0  0  0  0  0  0  0
    7.2740    2.1200    2.9050 C   0  0  0  0  0  0  0  0  0  0  0  0
    8.5970    1.7490    3.1340 C   0  0  0  0  0  0  0  0  0  0  0  0
    8.8780    0.6650    3.9630 C   0  0  0  0  0  0  0  0  0  0  0  0
    7.8360   -0.0540    4.5550 C   0  0  0  0  0  0  0  0  0  0  0  0
    4.7580   -2.1860    6.8250 C   0  0  0  0  0  0  0  0  0  0  0  0
    4.4810   -3.6900    6.9440 C   0  0  2  0  0  0  0  0  0  0  0  0
    3.4630   -4.0410    6.0010 O   0  0  0  0  0  0  0  0  0  0  0  0
    4.0850   -4.1120    8.3940 C   0  0  2  0  0  0  0  0  0  0  0  0
    2.9980   -5.2100    8.3990 C   0  0  0  0  0  0  0  0  0  0  0  0
    2.9500   -6.0190    9.6770 C   0  0  0  0  0  0  0  0  0  0  0  0
    4.1190   -6.5830   10.2060 C   0  0  0  0  0  0  0  0  0  0  0  0
    4.0740   -7.3340   11.3810 C   0  0  0  0  0  0  0  0  0  0  0  0
    2.8600   -7.5260   12.0410 C   0  0  0  0  0  0  0  0  0  0  0  0
    1.6940   -6.9660   11.5270 C   0  0  0  0  0  0  0  0  0  0  0  0
    1.7370   -6.2130   10.3520 C   0  0  0  0  0  0  0  0  0  0  0  0
    3.6430   -2.9470    9.1650 N   0  0  0  0  0  0  0  0  0  0  0  0
    4.1930   -2.5970   10.3570 C   0  0  0  0  0  0  0  0  0  0  0  0
    5.0700   -3.2250   10.9330 O   0  0  0  0  0  0  0  0  0  0  0  0
    3.6300   -1.4490   10.7910 O   0  0  0  0  0  0  0  0  0  0  0  0
    2.2140   -1.5410   10.9550 C   0  0  0  0  0  0  0  0  0  0  0  0
    1.8520   -0.5450   12.0020 C   0  0  0  0  0  0  0  0  0  0  0  0
    1.8840    0.8350   11.9360 C   0  0  0  0  0  0  0  0  0  0  0  0
    1.4790    1.5020   13.0760 N   0  0  0  0  0  0  0  0  0  0  0  0
    1.1530    0.6220   13.9970 C   0  0  0  0  0  0  0  0  0  0  0  0
    1.3040   -1.0280   13.5540 S   0  0  0  0  0  0  0  0  0  0  0  0
    7.2770   -6.2320    4.7100 C   0  0  0  0  0  0  0  0  0  0  0  0
    6.6390   -6.1420    6.1010 C   0  0  0  0  0  0  0  0  0  0  0  0
    8.7760   -6.5200    4.8670 C   0  0  0  0  0  0  0  0  0  0  0  0
   11.1230   -5.7920    0.8260 C   0  0  0  0  0  0  0  0  0  0  0  0
   12.6420   -6.2240    0.1670 S   0  0  0  0  0  0  0  0  0  0  0  0
   11.2888   -7.0573   -3.4417 H   0  0  0  0  0  0  0  0  0  0  0  0
   11.8233   -5.6425   -4.4109 H   0  0  0  0  0  0  0  0  0  0  0  0
   12.7983   -7.1512   -4.4109 H   0  0  0  0  0  0  0  0  0  0  0  0
   13.3763   -4.9913   -2.8673 H   0  0  0  0  0  0  0  0  0  0  0  0
   14.2313   -7.0100   -1.1931 H   0  0  0  0  0  0  0  0  0  0  0  0
   13.9170   -7.9125   -2.7141 H   0  0  0  0  0  0  0  0  0  0  0  0
   15.0516   -6.5198   -2.7141 H   0  0  0  0  0  0  0  0  0  0  0  0
    8.4008   -4.6841   -0.9544 H   0  0  0  0  0  0  0  0  0  0  0  0
    8.2950   -5.7094    0.5331 H   0  0  0  0  0  0  0  0  0  0  0  0
    9.8734   -1.9546    1.2424 H   0  0  0  0  0  0  0  0  0  0  0  0
   10.3686   -2.8600   -0.2279 H   0  0  0  0  0  0  0  0  0  0  0  0
    8.8422   -1.9129   -0.2279 H   0  0  0  0  0  0  0  0  0  0  0  0
    8.8230   -5.1790    2.8210 H   0  0  0  0  0  0  0  0  0  0  0  0
    6.0129   -5.0627    3.5342 H   0  0  0  0  0  0  0  0  0  0  0  0
    5.0820   -3.4750    4.5880 H   0  0  0  0  0  0  0  0  0  0  0  0
    6.6900   -1.5337    6.1958 H   0  0  0  0  0  0  0  0  0  0  0  0
    4.6743   -0.7784    4.1281 H   0  0  0  0  0  0  0  0  0  0  0  0
    4.9432    0.1770    5.6963 H   0  0  0  0  0  0  0  0  0  0  0  0
    5.1913    1.7007    3.3116 H   0  0  0  0  0  0  0  0  0  0  0  0
    7.0489    2.9831    2.2613 H   0  0  0  0  0  0  0  0  0  0  0  0
    9.4171    2.3099    2.6620 H   0  0  0  0  0  0  0  0  0  0  0  0
    9.9220    0.3745    4.1519 H   0  0  0  0  0  0  0  0  0  0  0  0
    8.0675   -0.8979    5.2215 H   0  0  0  0  0  0  0  0  0  0  0  0
    5.1754   -1.8400    7.7821 H   0  0  0  0  0  0  0  0  0  0  0  0
    3.7959   -1.7174    6.5705 H   0  0  0  0  0  0  0  0  0  0  0  0
    5.4068   -4.2389    6.7169 H   0  0  0  0  0  0  0  0  0  0  0  0
    3.8510   -4.6480    5.3370 H   0  0  0  0  0  0  0  0  0  0  0  0
    4.9816   -4.5352    8.8704 H   0  0  0  0  0  0  0  0  0  0  0  0
    2.0191   -4.7290    8.2565 H   0  0  0  0  0  0  0  0  0  0  0  0
    3.2468   -5.9095    7.5873 H   0  0  0  0  0  0  0  0  0  0  0  0
    5.0792   -6.4324    9.6909 H   0  0  0  0  0  0  0  0  0  0  0  0
    4.9963   -7.7750   11.7872 H   0  0  0  0  0  0  0  0  0  0  0  0
    2.8243   -8.1193   12.9666 H   0  0  0  0  0  0  0  0  0  0  0  0
    0.7368   -7.1170   12.0475 H   0  0  0  0  0  0  0  0  0  0  0  0
    0.8128   -5.7691    9.9534 H   0  0  0  0  0  0  0  0  0  0  0  0
    2.9930   -2.2830    8.7680 H   0  0  0  0  0  0  0  0  0  0  0  0
    1.7043   -1.3031   10.0097 H   0  0  0  0  0  0  0  0  0  0  0  0
    1.9090   -2.5572   11.2455 H   0  0  0  0  0  0  0  0  0  0  0  0
    2.2116    1.3692   11.0319 H   0  0  0  0  0  0  0  0  0  0  0  0
    0.8034    0.9266   14.9945 H   0  0  0  0  0  0  0  0  0  0  0  0
    6.8023   -7.0513    4.1502 H   0  0  0  0  0  0  0  0  0  0  0  0
    7.4182   -6.2519    6.8696 H   0  0  0  0  0  0  0  0  0  0  0  0
    6.1459   -5.1654    6.2158 H   0  0  0  0  0  0  0  0  0  0  0  0
    5.8950   -6.9441    6.2158 H   0  0  0  0  0  0  0  0  0  0  0  0
    9.0300   -6.5688    5.9362 H   0  0  0  0  0  0  0  0  0  0  0  0
    9.0168   -7.4808    4.3887 H   0  0  0  0  0  0  0  0  0  0  0  0
    9.3558   -5.7168    4.3887 H   0  0  0  0  0  0  0  0  0  0  0  0
   10.8615   -5.8508    1.8929 H   0  0  0  0  0  0  0  0  0  0  0  0
  1  2  1  0
  2  3  1  0
  2  4  1  0
  4  5  2  0
  5  6  1  0
  6  7  1  0
  7  8  1  0
  8  9  1  0
  8 10  1  0
 10 11  2  0
 10 12  1  0
 12 13  1  0
 13 14  1  0
 14 15  2  0
 14 16  1  0
 16 17  1  0
 17 18  1  0
 18 19  1  0
 19 20  2  0
 20 21  1  0
 21 22  2  0
 22 23  1  0
 23 24  2  0
 17 25  1  0
 25 26  1  0
 26 27  1  0
 26 28  1  0
 28 29  1  0
 29 30  1  0
 30 31  2  0
 31 32  1  0
 32 33  2  0
 33 34  1  0
 34 35  2  0
 28 36  1  0
 36 37  1  0
 37 38  2  0
 37 39  1  0
 39 40  1  0
 40 41  1  0
 41 42  2  0
 42 43  1  0
 43 44  2  0
 44 45  1  0
 13 46  1  0
 46 47  1  0
 46 48  1  0
  6 49  2  0
 49 50  1  0
 50  4  1  0
 24 19  1  0
 35 30  1  0
 45 41  1  0
  1 51  1  0
  1 52  1  0
  1 53  1  0
  2 54  1  0
  3 55  1  0
  3 56  1  0
  3 57  1  0
  7 58  1  0
  7 59  1  0
  9 60  1  0
  9 61  1  0
  9 62  1  0
 12 63  1  0
 13 64  1  6
 16 65  1  0
 17 66  1  1
 18 67  1  0
 18 68  1  0
 20 69  1  0
 21 70  1  0
 22 71  1  0
 23 72  1  0
 24 73  1  0
 25 74  1  0
 25 75  1  0
 26 76  1  6
 27 77  1  0
 28 78  1  1
 29 79  1  0
 29 80  1  0
 31 81  1  0
 32 82  1  0
 33 83  1  0
 34 84  1  0
 35 85  1  0
 36 86  1  0
 40 87  1  0
 40 88  1  0
 42 89  1  0
 44 90  1  0
 46 91  1  0
 47 92  1  0
 47 93  1  0
 47 94  1  0
 48 95  1  0
 48 96  1  0
 48 97  1  0
 49 98  1  0
M  END
>  <meeko>  (4) 
{"is_sidechain": [false], "free_energy": -8.627, "intermolecular_energy": -19.741, "internal_energy": -2.414}

$$$$
3prs_ligand
     RDKit          3D

 98101  0  0  0  0  0  0  0  0999 V2000
   10.8450   -5.3910   -2.7950 C   0  0  0  0  0  0  0  0  0  0  0  0
   11.8630   -5.4730   -1.6570 C   0  0  0  0  0  0  0  0  0  0  0  0
   12.6180   -6.8030   -1.7050 C   0  0  0  0  0  0  0  0  0  0  0  0
   11.1810   -5.3080   -0.3240 C   0  0  0  0  0  0  0  0  0  0  0  0
    9.9130   -4.9890   -0.1730 N   0  0  0  0  0  0  0  0  0  0  0  0
    9.5810   -4.9300    1.1790 C   0  0  0  0  0  0  0  0  0  0  0  0
    8.1750   -4.5990    1.6040 C   0  0  0  0  0  0  0  0  0  0  0  0
    7.9950   -3.1590    1.7600 N   0  0  0  0  0  0  0  0  0  0  0  0
    7.6430   -2.4060    0.5640 C   0  0  0  0  0  0  0  0  0  0  0  0
    7.9320   -2.6650    3.0480 C   0  0  0  0  0  0  0  0  0  0  0  0
    8.4310   -3.2420    4.0110 O   0  0  0  0  0  0  0  0  0  0  0  0
    7.3050   -1.4560    3.1790 N   0  0  0  0  0  0  0  0  0  0  0  0
    7.0820   -0.8000    4.4750 C   0  0  2  0  0  0  0  0  0  0  0  0
    5.7230   -1.2470    5.0690 C   0  0  0  0  0  0  0  0  0  0  0  0
    4.7090   -0.5650    4.9310 O   0  0  0  0  0  0  0  0  0  0  0  0
    5.7490   -2.4300    5.7790 N   0  0  0  0  0  0  0  0  0  0  0  0
    4.6000   -2.8900    6.5640 C   0  0  1  0  0  0  0  0  0  0  0  0
    4.5710   -4.4330    6.6780 C   0  0  0  0  0  0  0  0  0  0  0  0
    3.8140   -5.0250    7.8490 C   0  0  0  0  0  0  0  0  0  0  0  0
    2.4120   -5.0380    7.8570 C   0  0  0  0  0  0  0  0  0  0  0  0
    1.7080   -5.5750    8.9370 C   0  0  0  0  0  0  0  0  0  0  0  0
    2.3980   -6.1150   10.0200 C   0  0  0  0  0  0  0  0  0  0  0  0
    3.7910   -6.1310   10.0140 C   0  0  0  0  0  0  0  0  0  0  0  0
    4.4940   -5.5990    8.9310 C   0  0  0  0  0  0  0  0  0  0  0  0
    4.5720   -2.1340    7.9090 C   0  0  0  0  0  0  0  0  0  0  0  0
    3.1940   -1.6200    8.3410 C   0  0  2  0  0  0  0  0  0  0  0  0
    2.9050   -0.4240    7.6100 O   0  0  0  0  0  0  0  0  0  0  0  0
    3.0990   -1.3840    9.8810 C   0  0  2  0  0  0  0  0  0  0  0  0
    2.9210    0.1110   10.2250 C   0  0  0  0  0  0  0  0  0  0  0  0
    2.4100    0.3610   11.6280 C   0  0  0  0  0  0  0  0  0  0  0  0
    3.2410    0.9420   12.5950 C   0  0  0  0  0  0  0  0  0  0  0  0
    2.7720    1.1670   13.8900 C   0  0  0  0  0  0  0  0  0  0  0  0
    1.4660    0.8150   14.2300 C   0  0  0  0  0  0  0  0  0  0  0  0
    0.6300    0.2410   13.2760 C   0  0  0  0  0  0  0  0  0  0  0  0
    1.0970    0.0170   11.9800 C   0  0  0  0  0  0  0  0  0  0  0  0
    4.2790   -1.9300   10.5570 N   0  0  0  0  0  0  0  0  0  0  0  0
    4.1990   -2.8320   11.5700 C   0  0  0  0  0  0  0  0  0  0  0  0
    3.1560   -3.2480   12.0540 O   0  0  0  0  0  0  0  0  0  0  0  0
    5.4430   -3.2000   11.9430 O   0  0  0  0  0  0  0  0  0  0  0  0
    5.4580   -4.3180   12.8320 C   0  0  0  0  0  0  0  0  0  0  0  0
    6.7640   -5.0020   12.6160 C   0  0  0  0  0  0  0  0  0  0  0  0
    8.0420   -4.5190   12.8220 C   0  0  0  0  0  0  0  0  0  0  0  0
    9.0710   -5.3970   12.5370 N   0  0  0  0  0  0  0  0  0  0  0  0
    8.5620   -6.5310   12.1100 C   0  0  0  0  0  0  0  0  0  0  0  0
    6.8510   -6.6130   12.0330 S   0  0  0  0  0  0  0  0  0  0  0  0
    7.2930    0.7350    4.4700 C   0  0  0  0  0  0  0  0  0  0  0  0
    6.8270    1.3600    3.1490 C   0  0  0  0  0  0  0  0  0  0  0  0
    8.7700    1.0870    4.6920 C   0  0  0  0  0  0  0  0  0  0  0  0
   10.6350   -5.2050    2.0320 C   0  0  0  0  0  0  0  0  0  0  0  0
   12.0550   -5.5410    1.1370 S   0  0  0  0  0  0  0  0  0  0  0  0
    9.8315   -5.3094   -2.3752 H   0  0  0  0  0  0  0  0  0  0  0  0
   11.0577   -4.5071   -3.4142 H   0  0  0  0  0  0  0  0  0  0  0  0
   10.9135   -6.2976   -3.4142 H   0  0  0  0  0  0  0  0  0  0  0  0
   12.5873   -4.6549   -1.7836 H   0  0  0  0  0  0  0  0  0  0  0  0
   12.8150   -7.1500   -0.6799 H   0  0  0  0  0  0  0  0  0  0  0  0
   12.0098   -7.5510   -2.2348 H   0  0  0  0  0  0  0  0  0  0  0  0
   13.5720   -6.6642   -2.2348 H   0  0  0  0  0  0  0  0  0  0  0  0
    7.4735   -4.9675    0.8410 H   0  0  0  0  0  0  0  0  0  0  0  0
    7.9821   -5.0808    2.5739 H   0  0  0  0  0  0  0  0  0  0  0  0
    7.1937   -1.4450    0.8548 H   0  0  0  0  0  0  0  0  0  0  0  0
    8.5483   -2.2218   -0.0330 H   0  0  0  0  0  0  0  0  0  0  0  0
    6.9211   -2.9825   -0.0330 H   0  0  0  0  0  0  0  0  0  0  0  0
    6.5590   -1.3180    2.5160 H   0  0  0  0  0  0  0  0  0  0  0  0
    7.8774   -1.1451    5.1520 H   0  0  0  0  0  0  0  0  0  0  0  0
    6.6740   -2.6800    6.1360 H   0  0  0  0  0  0  0  0  0  0  0  0
    3.6594   -2.6466    6.0482 H   0  0  0  0  0  0  0  0  0  0  0  0
    4.1151   -4.8247    5.7568 H   0  0  0  0  0  0  0  0  0  0  0  0
    5.6189   -4.7258    6.8397 H   0  0  0  0  0  0  0  0  0  0  0  0
    1.8599   -4.6202    7.0023 H   0  0  0  0  0  0  0  0  0  0  0  0
    0.6080   -5.5716    8.9325 H   0  0  0  0  0  0  0  0  0  0  0  0
    1.8449   -6.5273   10.8768 H   0  0  0  0  0  0  0  0  0  0  0  0
    4.3384   -6.5637   10.8643 H   0  0  0  0  0  0  0  0  0  0  0  0
    5.5935   -5.6310    8.9275 H   0  0  0  0  0  0  0  0  0  0  0  0
    4.9411   -2.8152    8.6899 H   0  0  0  0  0  0  0  0  0  0  0  0
    5.2006   -1.2419    7.7706 H   0  0  0  0  0  0  0  0  0  0  0  0
    2.4424   -2.3898    8.1118 H   0  0  0  0  0  0  0  0  0  0  0  0
    3.6370    0.2110    7.7510 H   0  0  0  0  0  0  0  0  0  0  0  0
    2.2046   -1.9132   10.2415 H   0  0  0  0  0  0  0  0  0  0  0  0
    3.8956    0.6096   10.1174 H   0  0  0  0  0  0  0  0  0  0  0  0
    2.1640    0.5098    9.5337 H   0  0  0  0  0  0  0  0  0  0  0  0
    4.2713    1.2230   12.3313 H   0  0  0  0  0  0  0  0  0  0  0  0
    3.4325    1.6221   14.6427 H   0  0  0  0  0  0  0  0  0  0  0  0
    1.0967    0.9907   15.2511 H   0  0  0  0  0  0  0  0  0  0  0  0
   -0.4001   -0.0364   13.5441 H   0  0  0  0  0  0  0  0  0  0  0  0
    0.4303   -0.4326   11.2294 H   0  0  0  0  0  0  0  0  0  0  0  0
    5.2060   -1.7490   10.2010 H   0  0  0  0  0  0  0  0  0  0  0  0
    5.3735   -3.9776   13.8746 H   0  0  0  0  0  0  0  0  0  0  0  0
    4.6133   -4.9956   12.6388 H   0  0  0  0  0  0  0  0  0  0  0  0
    8.2290   -3.4993   13.1899 H   0  0  0  0  0  0  0  0  0  0  0  0
    9.1979   -7.3799   11.8184 H   0  0  0  0  0  0  0  0  0  0  0  0
    6.6895    1.1437    5.2939 H   0  0  0  0  0  0  0  0  0  0  0  0
    6.1817    2.2254    3.3603 H   0  0  0  0  0  0  0  0  0  0  0  0
    7.7026    1.6882    2.5697 H   0  0  0  0  0  0  0  0  0  0  0  0
    6.2625    0.6145    2.5697 H   0  0  0  0  0  0  0  0  0  0  0  0
    8.9770    1.1363    5.7712 H   0  0  0  0  0  0  0  0  0  0  0  0
    9.4041    0.3148    4.2320 H   0  0  0  0  0  0  0  0  0  0  0  0
    8.9877    2.0622    4.2320 H   0  0  0  0  0  0  0  0  0  0  0  0
   10.5697   -5.2074    3.1301 H   0  0  0  0  0  0  0  0  0  0  0  0
  1  2  1  0
  2  3  1  0
  2  4  1  0
  4  5  2  0
  5  6  1  0
  6  7  1  0
  7  8  1  0
  8  9  1  0
  8 10  1  0
 10 11  2  0
 10 12  1  0
 12 13  1  0
 13 14  1  0
 14 15  2  0
 14 16  1  0
 16 17  1  0
 17 18  1  0
 18 19  1  0
 19 20  2  0
 20 21  1  0
 21 22  2  0
 22 23  1  0
 23 24  2  0
 17 25  1  0
 25 26  1  0
 26 27  1  0
 26 28  1  0
 28 29  1  0
 29 30  1  0
 30 31  2  0
 31 32  1  0
 32 33  2  0
 33 34  1  0
 34 35  2  0
 28 36  1  0
 36 37  1  0
 37 38  2  0
 37 39  1  0
 39 40  1  0
 40 41  1  0
 41 42  2  0
 42 43  1  0
 43 44  2  0
 44 45  1  0
 13 46  1  0
 46 47  1  0
 46 48  1  0
  6 49  2  0
 49 50  1  0
 50  4  1  0
 24 19  1  0
 35 30  1  0
 45 41  1  0
  1 51  1  0
  1 52  1  0
  1 53  1  0
  2 54  1  0
  3 55  1  0
  3 56  1  0
  3 57  1  0
  7 58  1  0
  7 59  1  0
  9 60  1  0
  9 61  1  0
  9 62  1  0
 12 63  1  0
 13 64  1  1
 16 65  1  0
 17 66  1  6
 18 67  1  0
 18 68  1  0
 20 69  1  0
 21 70  1  0
 22 71  1  0
 23 72  1  0
 24 73  1  0
 25 74  1  0
 25 75  1  0
 26 76  1  6
 27 77  1  0
 28 78  1  1
 29 79  1  0
 29 80  1  0
 31 81  1  0
 32 82  1  0
 33 83  1  0
 34 84  1  0
 35 85  1  0
 36 86  1  0
 40 87  1  0
 40 88  1  0
 42 89  1  0
 44 90  1  0
 46 91  1  0
 47 92  1  0
 47 93  1  0
 47 94  1  0
 48 95  1  0
 48 96  1  0
 48 97  1  0
 49 98  1  0
M  END
>  <meeko>  (5) 
{"is_sidechain": [false], "free_energy": -8.601, "intermolecular_energy": -18.952, "internal_energy": -3.147}

$$$$
3prs_ligand
     RDKit          3D

 98101  0  0  0  0  0  0  0  0999 V2000
   12.2250    2.1100    2.0080 C   0  0  0  0  0  0  0  0  0  0  0  0
   12.3270    2.3920    0.5080 C   0  0  0  0  0  0  0  0  0  0  0  0
   11.6910    3.7410    0.1700 C   0  0  0  0  0  0  0  0  0  0  0  0
   11.6680    1.2910   -0.2820 C   0  0  0  0  0  0  0  0  0  0  0  0
   11.4320    0.0820    0.1820 N   0  0  0  0  0  0  0  0  0  0  0  0
   10.7980   -0.6970   -0.7830 C   0  0  0  0  0  0  0  0  0  0  0  0
   10.4090   -2.1190   -0.4780 C   0  0  0  0  0  0  0  0  0  0  0  0
   10.1400   -2.3010    0.9450 N   0  0  0  0  0  0  0  0  0  0  0  0
   11.1200   -3.0620    1.7080 C   0  0  0  0  0  0  0  0  0  0  0  0
    9.1240   -1.5470    1.4980 C   0  0  0  0  0  0  0  0  0  0  0  0
    7.9340   -1.7900    1.3150 O   0  0  0  0  0  0  0  0  0  0  0  0
    9.5330   -0.5210    2.3070 N   0  0  0  0  0  0  0  0  0  0  0  0
    8.6050    0.4300    2.9330 C   0  0  2  0  0  0  0  0  0  0  0  0
    7.8470   -0.2550    4.0970 C   0  0  0  0  0  0  0  0  0  0  0  0
    8.2510   -0.1770    5.2570 O   0  0  0  0  0  0  0  0  0  0  0  0
    6.7270   -0.9720    3.7320 N   0  0  0  0  0  0  0  0  0  0  0  0
    6.0130   -1.8330    4.6790 C   0  0  1  0  0  0  0  0  0  0  0  0
    6.9920   -2.5680    5.6270 C   0  0  0  0  0  0  0  0  0  0  0  0
    7.4170   -3.9670    5.2320 C   0  0  0  0  0  0  0  0  0  0  0  0
    6.8440   -5.0870    5.8530 C   0  0  0  0  0  0  0  0  0  0  0  0
    7.2370   -6.3800    5.4990 C   0  0  0  0  0  0  0  0  0  0  0  0
    8.2020   -6.5700    4.5120 C   0  0  0  0  0  0  0  0  0  0  0  0
    8.7610   -5.4680    3.8700 C   0  0  0  0  0  0  0  0  0  0  0  0
    8.3630   -4.1750    4.2200 C   0  0  0  0  0  0  0  0  0  0  0  0
    4.9160   -1.0100    5.3830 C   0  0  0  0  0  0  0  0  0  0  0  0
    3.5810   -1.7380    5.5860 C   0  0  2  0  0  0  0  0  0  0  0  0
    2.5160   -0.8220    5.3140 O   0  0  0  0  0  0  0  0  0  0  0  0
    3.4500   -2.3570    7.0140 C   0  0  2  0  0  0  0  0  0  0  0  0
    2.6360   -3.6700    6.9990 C   0  0  0  0  0  0  0  0  0  0  0  0
    2.9670   -4.6090    8.1390 C   0  0  0  0  0  0  0  0  0  0  0  0
    4.2940   -4.9890    8.3850 C   0  0  0  0  0  0  0  0  0  0  0  0
    4.5990   -5.8580    9.4340 C   0  0  0  0  0  0  0  0  0  0  0  0
    3.5810   -6.3550   10.2470 C   0  0  0  0  0  0  0  0  0  0  0  0
    2.2600   -5.9800   10.0140 C   0  0  0  0  0  0  0  0  0  0  0  0
    1.9530   -5.1090    8.9680 C   0  0  0  0  0  0  0  0  0  0  0  0
    2.8520   -1.3920    7.9380 N   0  0  0  0  0  0  0  0  0  0  0  0
    3.3700   -1.1260    9.1660 C   0  0  0  0  0  0  0  0  0  0  0  0
    4.3460   -1.6820    9.6480 O   0  0  0  0  0  0  0  0  0  0  0  0
    2.6470   -0.1490    9.7560 O   0  0  0  0  0  0  0  0  0  0  0  0
    3.3400    0.4970   10.8260 C   0  0  0  0  0  0  0  0  0  0  0  0
    2.5040    0.2970   12.0420 C   0  0  0  0  0  0  0  0  0  0  0  0
    2.3490   -0.8390   12.8130 C   0  0  0  0  0  0  0  0  0  0  0  0
    1.5020   -0.7200   13.8980 N   0  0  0  0  0  0  0  0  0  0  0  0
    1.0170    0.5010   13.9330 C   0  0  0  0  0  0  0  0  0  0  0  0
    1.5450    1.5620   12.6940 S   0  0  0  0  0  0  0  0  0  0  0  0
    7.6850    1.1860    1.9410 C   0  0  0  0  0  0  0  0  0  0  0  0
    8.5000    1.9120    0.8640 C   0  0  0  0  0  0  0  0  0  0  0  0
    6.8090    2.2100    2.6760 C   0  0  0  0  0  0  0  0  0  0  0  0
   10.5750   -0.0420   -1.9810 C   0  0  0  0  0  0  0  0  0  0  0  0
   11.1620    1.5640   -1.9020 S   0  0  0  0  0  0  0  0  0  0  0  0
   12.5465    2.9987    2.5709 H   0  0  0  0  0  0  0  0  0  0  0  0
   11.1830    1.8697    2.2659 H   0  0  0  0  0  0  0  0  0  0  0  0
   12.8722    1.2587    2.2659 H   0  0  0  0  0  0  0  0  0  0  0  0
   13.3921    2.4301    0.2356 H   0  0  0  0  0  0  0  0  0  0  0  0
   11.4408    4.2718    1.1004 H   0  0  0  0  0  0  0  0  0  0  0  0
   12.3998    4.3438   -0.4168 H   0  0  0  0  0  0  0  0  0  0  0  0
   10.7750    3.5778   -0.4168 H   0  0  0  0  0  0  0  0  0  0  0  0
    9.5041   -2.3735   -1.0493 H   0  0  0  0  0  0  0  0  0  0  0  0
   11.2447   -2.7761   -0.7605 H   0  0  0  0  0  0  0  0  0  0  0  0
   10.9376   -2.9204    2.7835 H   0  0  0  0  0  0  0  0  0  0  0  0
   11.0304   -4.1295    1.4584 H   0  0  0  0  0  0  0  0  0  0  0  0
   12.1321   -2.7108    1.4584 H   0  0  0  0  0  0  0  0  0  0  0  0
   10.4090   -0.1130    2.0230 H   0  0  0  0  0  0  0  0  0  0  0  0
    9.2137    1.2420    3.3575 H   0  0  0  0  0  0  0  0  0  0  0  0
    6.7240   -1.2700    2.7530 H   0  0  0  0  0  0  0  0  0  0  0  0
    5.4995   -2.6472    4.1467 H   0  0  0  0  0  0  0  0  0  0  0  0
    7.9019   -1.9547    5.7037 H   0  0  0  0  0  0  0  0  0  0  0  0
    6.4354   -2.6950    6.5673 H   0  0  0  0  0  0  0  0  0  0  0  0
    6.0762   -4.9453    6.6278 H   0  0  0  0  0  0  0  0  0  0  0  0
    6.7844   -7.2486    5.9997 H   0  0  0  0  0  0  0  0  0  0  0  0
    8.5212   -7.5872    4.2409 H   0  0  0  0  0  0  0  0  0  0  0  0
    9.5177   -5.6157    3.0854 H   0  0  0  0  0  0  0  0  0  0  0  0
    8.7972   -3.3113    3.6952 H   0  0  0  0  0  0  0  0  0  0  0  0
    5.2954   -0.7132    6.3719 H   0  0  0  0  0  0  0  0  0  0  0  0
    4.7013   -0.1585    4.7205 H   0  0  0  0  0  0  0  0  0  0  0  0
    3.5314   -2.5861    4.8873 H   0  0  0  0  0  0  0  0  0  0  0  0
    2.8850   -0.0510    4.8330 H   0  0  0  0  0  0  0  0  0  0  0  0
    4.4641   -2.6020    7.3626 H   0  0  0  0  0  0  0  0  0  0  0  0
    1.5674   -3.4159    7.0586 H   0  0  0  0  0  0  0  0  0  0  0  0
    2.8935   -4.1951    6.0674 H   0  0  0  0  0  0  0  0  0  0  0  0
    5.1007   -4.5995    7.7467 H   0  0  0  0  0  0  0  0  0  0  0  0
    5.6430   -6.1509    9.6194 H   0  0  0  0  0  0  0  0  0  0  0  0
    3.8209   -7.0425   11.0715 H   0  0  0  0  0  0  0  0  0  0  0  0
    1.4570   -6.3713   10.6560 H   0  0  0  0  0  0  0  0  0  0  0  0
    0.9083   -4.8127    8.7927 H   0  0  0  0  0  0  0  0  0  0  0  0
    2.0980   -0.7900    7.6390 H   0  0  0  0  0  0  0  0  0  0  0  0
    4.3323    0.0436   10.9665 H   0  0  0  0  0  0  0  0  0  0  0  0
    3.4943    1.5658   10.6166 H   0  0  0  0  0  0  0  0  0  0  0  0
    2.8679   -1.7799   12.5775 H   0  0  0  0  0  0  0  0  0  0  0  0
    0.3121    0.8240   14.7132 H   0  0  0  0  0  0  0  0  0  0  0  0
    7.0446    0.4320    1.4599 H   0  0  0  0  0  0  0  0  0  0  0  0
    9.2388    2.5701    1.3447 H   0  0  0  0  0  0  0  0  0  0  0  0
    9.0203    1.1727    0.2374 H   0  0  0  0  0  0  0  0  0  0  0  0
    7.8255    2.5140    0.2374 H   0  0  0  0  0  0  0  0  0  0  0  0
    6.9226    2.0773    3.7620 H   0  0  0  0  0  0  0  0  0  0  0  0
    7.1208    3.2271    2.3963 H   0  0  0  0  0  0  0  0  0  0  0  0
    5.7559    2.0594    2.3963 H   0  0  0  0  0  0  0  0  0  0  0  0
   10.0890   -0.4900   -2.8603 H   0  0  0  0  0  0  0  0  0  0  0  0
  1  2  1  0
  2  3  1  0
  2  4  1  0
  4  5  2  0
  5  6  1  0
  6  7  1  0
  7  8  1  0
  8  9  1  0
  8 10  1  0
 10 11  2  0
 10 12  1  0
 12 13  1  0
 13 14  1  0
 14 15  2  0
 14 16  1  0
 16 17  1  0
 17 18  1  0
 18 19  1  0
 19 20  2  0
 20 21  1  0
 21 22  2  0
 22 23  1  0
 23 24  2  0
 17 25  1  0
 25 26  1  0
 26 27  1  0
 26 28  1  0
 28 29  1  0
 29 30  1  0
 30 31  2  0
 31 32  1  0
 32 33  2  0
 33 34  1  0
 34 35  2  0
 28 36  1  0
 36 37  1  0
 37 38  2  0
 37 39  1  0
 39 40  1  0
 40 41  1  0
 41 42  2  0
 42 43  1  0
 43 44  2  0
 44 45  1  0
 13 46  1  0
 46 47  1  0
 46 48  1  0
  6 49  2  0
 49 50  1  0
 50  4  1  0
 24 19  1  0
 35 30  1  0
 45 41  1  0
  1 51  1  0
  1 52  1  0
  1 53  1  0
  2 54  1  0
  3 55  1  0
  3 56  1  0
  3 57  1  0
  7 58  1  0
  7 59  1  0
  9 60  1  0
  9 61  1  0
  9 62  1  0
 12 63  1  0
 13 64  1  1
 16 65  1  0
 17 66  1  6
 18 67  1  0
 18 68  1  0
 20 69  1  0
 21 70  1  0
 22 71  1  0
 23 72  1  0
 24 73  1  0
 25 74  1  0
 25 75  1  0
 26 76  1  6
 27 77  1  0
 28 78  1  1
 29 79  1  0
 29 80  1  0
 31 81  1  0
 32 82  1  0
 33 83  1  0
 34 84  1  0
 35 85  1  0
 36 86  1  0
 40 87  1  0
 40 88  1  0
 42 89  1  0
 44 90  1  0
 46 91  1  0
 47 92  1  0
 47 93  1  0
 47 94  1  0
 48 95  1  0
 48 96  1  0
 48 97  1  0
 49 98  1  0
M  END
>  <meeko>  (6) 
{"is_sidechain": [false], "free_energy": -8.489, "intermolecular_energy": -19.36, "internal_energy": -2.5}

$$$$
3prs_ligand
     RDKit          3D

 98101  0  0  0  0  0  0  0  0999 V2000
   11.4710    4.6410    0.7630 C   0  0  0  0  0  0  0  0  0  0  0  0
   10.9400    3.2250    0.9870 C   0  0  0  0  0  0  0  0  0  0  0  0
   11.8490    2.4540    1.9450 C   0  0  0  0  0  0  0  0  0  0  0  0
   10.8200    2.4920   -0.3230 C   0  0  0  0  0  0  0  0  0  0  0  0
   11.8070    2.3320   -1.1790 N   0  0  0  0  0  0  0  0  0  0  0  0
   11.3840    1.5980   -2.2840 C   0  0  0  0  0  0  0  0  0  0  0  0
   12.3460    1.2700   -3.3940 C   0  0  0  0  0  0  0  0  0  0  0  0
   13.5010    0.5300   -2.8930 N   0  0  0  0  0  0  0  0  0  0  0  0
   14.7780    1.2310   -2.8850 C   0  0  0  0  0  0  0  0  0  0  0  0
   13.2540   -0.6670   -2.2500 C   0  0  0  0  0  0  0  0  0  0  0  0
   13.1630   -1.7380   -2.8430 O   0  0  0  0  0  0  0  0  0  0  0  0
   13.1570   -0.5870   -0.8870 N   0  0  0  0  0  0  0  0  0  0  0  0
   12.8350   -1.7390   -0.0340 C   0  0  2  0  0  0  0  0  0  0  0  0
   11.4680   -2.3390   -0.4460 C   0  0  0  0  0  0  0  0  0  0  0  0
   10.4340   -1.6730   -0.3900 O   0  0  0  0  0  0  0  0  0  0  0  0
   11.4960   -3.6590   -0.8420 N   0  0  0  0  0  0  0  0  0  0  0  0
   10.2700   -4.4270   -1.0750 C   0  0  1  0  0  0  0  0  0  0  0  0
   10.4470   -5.4430   -2.2300 C   0  0  0  0  0  0  0  0  0  0  0  0
   11.8470   -5.9600   -2.4870 C   0  0  0  0  0  0  0  0  0  0  0  0
   12.4670   -5.7470   -3.7270 C   0  0  0  0  0  0  0  0  0  0  0  0
   13.7550   -6.2280   -3.9740 C   0  0  0  0  0  0  0  0  0  0  0  0
   14.4430   -6.9200   -2.9800 C   0  0  0  0  0  0  0  0  0  0  0  0
   13.8490   -7.1170   -1.7360 C   0  0  0  0  0  0  0  0  0  0  0  0
   12.5640   -6.6310   -1.4880 C   0  0  0  0  0  0  0  0  0  0  0  0
    9.7920   -5.0330    0.2610 C   0  0  0  0  0  0  0  0  0  0  0  0
    8.4470   -4.5040    0.7730 C   0  0  2  0  0  0  0  0  0  0  0  0
    8.0960   -3.3430    0.0150 O   0  0  0  0  0  0  0  0  0  0  0  0
    8.4680   -4.2010    2.3050 C   0  0  2  0  0  0  0  0  0  0  0  0
    9.4860   -3.0940    2.6580 C   0  0  0  0  0  0  0  0  0  0  0  0
    8.8490   -1.7900    3.0870 C   0  0  0  0  0  0  0  0  0  0  0  0
    7.9050   -1.7650    4.1220 C   0  0  0  0  0  0  0  0  0  0  0  0
    7.3140   -0.5630    4.5140 C   0  0  0  0  0  0  0  0  0  0  0  0
    7.6630    0.6260    3.8760 C   0  0  0  0  0  0  0  0  0  0  0  0
    8.6030    0.6140    2.8490 C   0  0  0  0  0  0  0  0  0  0  0  0
    9.1970   -0.5860    2.4570 C   0  0  0  0  0  0  0  0  0  0  0  0
    8.7480   -5.4200    3.0660 N   0  0  0  0  0  0  0  0  0  0  0  0
    8.0550   -5.7720    4.1800 C   0  0  0  0  0  0  0  0  0  0  0  0
    7.1670   -5.1030    4.6910 O   0  0  0  0  0  0  0  0  0  0  0  0
    8.4910   -6.9720    4.6200 O   0  0  0  0  0  0  0  0  0  0  0  0
    9.6740   -6.8840    5.4180 C   0  0  0  0  0  0  0  0  0  0  0  0
   10.6610   -7.8130    4.7980 C   0  0  0  0  0  0  0  0  0  0  0  0
   10.7220   -9.1910    4.8710 C   0  0  0  0  0  0  0  0  0  0  0  0
   11.7590   -9.7860    4.1780 N   0  0  0  0  0  0  0  0  0  0  0  0
   12.4780   -8.8520    3.5960 C   0  0  0  0  0  0  0  0  0  0  0  0
   11.9570   -7.2360    3.8340 S   0  0  0  0  0  0  0  0  0  0  0  0
   12.9760   -1.4790    1.4870 C   0  0  0  0  0  0  0  0  0  0  0  0
   14.1400   -0.5270    1.7870 C   0  0  0  0  0  0  0  0  0  0  0  0
   13.1990   -2.7920    2.2500 C   0  0  0  0  0  0  0  0  0  0  0  0
   10.0530    1.2220   -2.2360 C   0  0  0  0  0  0  0  0  0  0  0  0
    9.3240    1.7900   -0.7960 S   0  0  0  0  0  0  0  0  0  0  0  0
   11.6517    5.1229    1.7352 H   0  0  0  0  0  0  0  0  0  0  0  0
   12.4126    4.5941    0.1963 H   0  0  0  0  0  0  0  0  0  0  0  0
   10.7307    5.2248    0.1963 H   0  0  0  0  0  0  0  0  0  0  0  0
    9.9401    3.3000    1.4393 H   0  0  0  0  0  0  0  0  0  0  0  0
   11.5715    2.6894    2.9831 H   0  0  0  0  0  0  0  0  0  0  0  0
   11.7337    1.3741    1.7705 H   0  0  0  0  0  0  0  0  0  0  0  0
   12.8957    2.7439    1.7705 H   0  0  0  0  0  0  0  0  0  0  0  0
   11.8283    0.6589   -4.1480 H   0  0  0  0  0  0  0  0  0  0  0  0
   12.7020    2.2127   -3.8351 H   0  0  0  0  0  0  0  0  0  0  0  0
   15.0944    1.4047   -1.8459 H   0  0  0  0  0  0  0  0  0  0  0  0
   15.5341    0.6215   -3.4015 H   0  0  0  0  0  0  0  0  0  0  0  0
   14.6697    2.1961   -3.4015 H   0  0  0  0  0  0  0  0  0  0  0  0
   12.7680    0.2840   -0.5640 H   0  0  0  0  0  0  0  0  0  0  0  0
   13.6075   -2.5007   -0.2161 H   0  0  0  0  0  0  0  0  0  0  0  0
   12.3010   -4.1820   -0.4870 H   0  0  0  0  0  0  0  0  0  0  0  0
    9.4633   -3.7667   -1.4260 H   0  0  0  0  0  0  0  0  0  0  0  0
    9.8090   -6.3111   -2.0081 H   0  0  0  0  0  0  0  0  0  0  0  0
   10.1777   -4.8877   -3.1405 H   0  0  0  0  0  0  0  0  0  0  0  0
   11.9327   -5.1947   -4.5141 H   0  0  0  0  0  0  0  0  0  0  0  0
   14.2261   -6.0602   -4.9538 H   0  0  0  0  0  0  0  0  0  0  0  0
   15.4526   -7.3097   -3.1771 H   0  0  0  0  0  0  0  0  0  0  0  0
   14.3934   -7.6567   -0.9471 H   0  0  0  0  0  0  0  0  0  0  0  0
   12.1094   -6.7766   -0.4970 H   0  0  0  0  0  0  0  0  0  0  0  0
    9.7015   -6.1212    0.1282 H   0  0  0  0  0  0  0  0  0  0  0  0
   10.5406   -4.7432    1.0131 H   0  0  0  0  0  0  0  0  0  0  0  0
    7.6846   -5.2847    0.6347 H   0  0  0  0  0  0  0  0  0  0  0  0
    8.6310   -2.5880    0.3360 H   0  0  0  0  0  0  0  0  0  0  0  0
    7.4699   -3.8312    2.5825 H   0  0  0  0  0  0  0  0  0  0  0  0
   10.1208   -3.4564    3.4800 H   0  0  0  0  0  0  0  0  0  0  0  0
   10.0594   -2.8837    1.7431 H   0  0  0  0  0  0  0  0  0  0  0  0
    7.6274   -2.7005    4.6298 H   0  0  0  0  0  0  0  0  0  0  0  0
    6.5726   -0.5540    5.3266 H   0  0  0  0  0  0  0  0  0  0  0  0
    7.1961    1.5733    4.1837 H   0  0  0  0  0  0  0  0  0  0  0  0
    8.8779    1.5526    2.3456 H   0  0  0  0  0  0  0  0  0  0  0  0
    9.9431   -0.5880    1.6487 H   0  0  0  0  0  0  0  0  0  0  0  0
    9.3890   -6.1140    2.7090 H   0  0  0  0  0  0  0  0  0  0  0  0
   10.0626   -5.8549    5.4124 H   0  0  0  0  0  0  0  0  0  0  0  0
    9.4729   -7.1522    6.4657 H   0  0  0  0  0  0  0  0  0  0  0  0
    9.9904   -9.7784    5.4452 H   0  0  0  0  0  0  0  0  0  0  0  0
   13.3640   -9.0936    2.9904 H   0  0  0  0  0  0  0  0  0  0  0  0
   12.0365   -1.0142    1.8206 H   0  0  0  0  0  0  0  0  0  0  0  0
   14.2613   -0.4278    2.8758 H   0  0  0  0  0  0  0  0  0  0  0  0
   15.0655   -0.9304    1.3502 H   0  0  0  0  0  0  0  0  0  0  0  0
   13.9283    0.4601    1.3502 H   0  0  0  0  0  0  0  0  0  0  0  0
   13.1659   -2.5974    3.3321 H   0  0  0  0  0  0  0  0  0  0  0  0
   12.4100   -3.5102    1.9823 H   0  0  0  0  0  0  0  0  0  0  0  0
   14.1809   -3.2094    1.9823 H   0  0  0  0  0  0  0  0  0  0  0  0
    9.5367    0.6402   -3.0137 H   0  0  0  0  0  0  0  0  0  0  0  0
  1  2  1  0
  2  3  1  0
  2  4  1  0
  4  5  2  0
  5  6  1  0
  6  7  1  0
  7  8  1  0
  8  9  1  0
  8 10  1  0
 10 11  2  0
 10 12  1  0
 12 13  1  0
 13 14  1  0
 14 15  2  0
 14 16  1  0
 16 17  1  0
 17 18  1  0
 18 19  1  0
 19 20  2  0
 20 21  1  0
 21 22  2  0
 22 23  1  0
 23 24  2  0
 17 25  1  0
 25 26  1  0
 26 27  1  0
 26 28  1  0
 28 29  1  0
 29 30  1  0
 30 31  2  0
 31 32  1  0
 32 33  2  0
 33 34  1  0
 34 35  2  0
 28 36  1  0
 36 37  1  0
 37 38  2  0
 37 39  1  0
 39 40  1  0
 40 41  1  0
 41 42  2  0
 42 43  1  0
 43 44  2  0
 44 45  1  0
 13 46  1  0
 46 47  1  0
 46 48  1  0
  6 49  2  0
 49 50  1  0
 50  4  1  0
 24 19  1  0
 35 30  1  0
 45 41  1  0
  1 51  1  0
  1 52  1  0
  1 53  1  0
  2 54  1  0
  3 55  1  0
  3 56  1  0
  3 57  1  0
  7 58  1  0
  7 59  1  0
  9 60  1  0
  9 61  1  0
  9 62  1  0
 12 63  1  0
 13 64  1  6
 16 65  1  0
 17 66  1  6
 18 67  1  0
 18 68  1  0
 20 69  1  0
 21 70  1  0
 22 71  1  0
 23 72  1  0
 24 73  1  0
 25 74  1  0
 25 75  1  0
 26 76  1  1
 27 77  1  0
 28 78  1  1
 29 79  1  0
 29 80  1  0
 31 81  1  0
 32 82  1  0
 33 83  1  0
 34 84  1  0
 35 85  1  0
 36 86  1  0
 40 87  1  0
 40 88  1  0
 42 89  1  0
 44 90  1  0
 46 91  1  0
 47 92  1  0
 47 93  1  0
 47 94  1  0
 48 95  1  0
 48 96  1  0
 48 97  1  0
 49 98  1  0
M  END
>  <meeko>  (7) 
{"is_sidechain": [false], "free_energy": -8.484, "intermolecular_energy": -17.224, "internal_energy": -4.625}

$$$$
3prs_ligand
     RDKit          3D

 98101  0  0  0  0  0  0  0  0999 V2000
    7.4100    4.1030    1.6730 C   0  0  0  0  0  0  0  0  0  0  0  0
    7.2970    2.5780    1.6410 C   0  0  0  0  0  0  0  0  0  0  0  0
    7.3990    2.0020    3.0540 C   0  0  0  0  0  0  0  0  0  0  0  0
    8.3650    1.9870    0.7580 C   0  0  0  0  0  0  0  0  0  0  0  0
    9.5270    2.5550    0.5140 N   0  0  0  0  0  0  0  0  0  0  0  0
   10.2970    1.7540   -0.3250 C   0  0  0  0  0  0  0  0  0  0  0  0
   11.6800    2.1870   -0.7320 C   0  0  0  0  0  0  0  0  0  0  0  0
   12.7030    1.4800    0.0320 N   0  0  0  0  0  0  0  0  0  0  0  0
   12.6690    1.6390    1.4800 C   0  0  0  0  0  0  0  0  0  0  0  0
   13.4580    0.5400   -0.6400 C   0  0  0  0  0  0  0  0  0  0  0  0
   14.3120    0.8360   -1.4710 O   0  0  0  0  0  0  0  0  0  0  0  0
   13.2190   -0.7610   -0.2860 N   0  0  0  0  0  0  0  0  0  0  0  0
   13.8750   -1.9050   -0.9340 C   0  0  2  0  0  0  0  0  0  0  0  0
   12.8520   -2.6850   -1.7970 C   0  0  0  0  0  0  0  0  0  0  0  0
   12.2200   -2.1310   -2.6960 O   0  0  0  0  0  0  0  0  0  0  0  0
   12.6870   -4.0130   -1.4630 N   0  0  0  0  0  0  0  0  0  0  0  0
   11.6250   -4.8350   -2.0480 C   0  0  1  0  0  0  0  0  0  0  0  0
   12.0910   -6.2950   -2.2640 C   0  0  0  0  0  0  0  0  0  0  0  0
   13.2170   -6.5230   -3.2510 C   0  0  0  0  0  0  0  0  0  0  0  0
   13.0320   -6.2550   -4.6150 C   0  0  0  0  0  0  0  0  0  0  0  0
   14.0640   -6.4700   -5.5320 C   0  0  0  0  0  0  0  0  0  0  0  0
   15.2970   -6.9480   -5.0950 C   0  0  0  0  0  0  0  0  0  0  0  0
   15.5020   -7.1950   -3.7400 C   0  0  0  0  0  0  0  0  0  0  0  0
   14.4720   -6.9740   -2.8220 C   0  0  0  0  0  0  0  0  0  0  0  0
   10.3420   -4.6750   -1.2070 C   0  0  0  0  0  0  0  0  0  0  0  0
   10.2870   -5.5240    0.0690 C   0  0  2  0  0  0  0  0  0  0  0  0
    8.9150   -5.7700    0.3940 O   0  0  0  0  0  0  0  0  0  0  0  0
   11.0460   -4.8610    1.2610 C   0  0  2  0  0  0  0  0  0  0  0  0
   11.6610   -5.9130    2.2100 C   0  0  0  0  0  0  0  0  0  0  0  0
   12.7540   -6.7460    1.5750 C   0  0  0  0  0  0  0  0  0  0  0  0
   12.5410   -8.1020    1.2910 C   0  0  0  0  0  0  0  0  0  0  0  0
   13.5510   -8.8700    0.7110 C   0  0  0  0  0  0  0  0  0  0  0  0
   14.7820   -8.2910    0.4050 C   0  0  0  0  0  0  0  0  0  0  0  0
   15.0020   -6.9430    0.6780 C   0  0  0  0  0  0  0  0  0  0  0  0
   13.9930   -6.1720    1.2580 C   0  0  0  0  0  0  0  0  0  0  0  0
   10.1560   -3.9610    1.9980 N   0  0  0  0  0  0  0  0  0  0  0  0
   10.2310   -2.6080    1.9070 C   0  0  0  0  0  0  0  0  0  0  0  0
   11.0620   -1.9970    1.2480 O   0  0  0  0  0  0  0  0  0  0  0  0
    9.2440   -2.0520    2.6420 O   0  0  0  0  0  0  0  0  0  0  0  0
    7.9540   -2.5940    2.3540 C   0  0  0  0  0  0  0  0  0  0  0  0
    7.3130   -2.8600    3.6730 C   0  0  0  0  0  0  0  0  0  0  0  0
    6.7340   -1.9660    4.5540 C   0  0  0  0  0  0  0  0  0  0  0  0
    6.2090   -2.5140    5.7090 N   0  0  0  0  0  0  0  0  0  0  0  0
    6.4030   -3.8140    5.6950 C   0  0  0  0  0  0  0  0  0  0  0  0
    7.2060   -4.4460    4.3180 S   0  0  0  0  0  0  0  0  0  0  0  0
   14.7070   -2.8000    0.0190 C   0  0  0  0  0  0  0  0  0  0  0  0
   14.6500   -2.2850    1.4630 C   0  0  0  0  0  0  0  0  0  0  0  0
   16.1740   -2.8640   -0.4280 C   0  0  0  0  0  0  0  0  0  0  0  0
    9.6780    0.5770   -0.7070 C   0  0  0  0  0  0  0  0  0  0  0  0
    8.1170    0.4710   -0.0130 S   0  0  0  0  0  0  0  0  0  0  0  0
    7.4355    4.4469    2.7175 H   0  0  0  0  0  0  0  0  0  0  0  0
    8.3336    4.4130    1.1622 H   0  0  0  0  0  0  0  0  0  0  0  0
    6.5422    4.5458    1.1622 H   0  0  0  0  0  0  0  0  0  0  0  0
    6.3133    2.3139    1.2256 H   0  0  0  0  0  0  0  0  0  0  0  0
    7.2564    2.8074    3.7895 H   0  0  0  0  0  0  0  0  0  0  0  0
    6.6226    1.2355    3.1944 H   0  0  0  0  0  0  0  0  0  0  0  0
    8.3914    1.5487    3.1944 H   0  0  0  0  0  0  0  0  0  0  0  0
   11.8215    1.9752   -1.8021 H   0  0  0  0  0  0  0  0  0  0  0  0
   11.7796    3.2641   -0.5322 H   0  0  0  0  0  0  0  0  0  0  0  0
   12.8760    0.6712    1.9601 H   0  0  0  0  0  0  0  0  0  0  0  0
   13.4310    2.3707    1.7865 H   0  0  0  0  0  0  0  0  0  0  0  0
   11.6744    1.9951    1.7865 H   0  0  0  0  0  0  0  0  0  0  0  0
   12.2630   -0.9340   -0.0190 H   0  0  0  0  0  0  0  0  0  0  0  0
   14.6437   -1.4970   -1.6068 H   0  0  0  0  0  0  0  0  0  0  0  0
   12.9600   -4.2360   -0.5020 H   0  0  0  0  0  0  0  0  0  0  0  0
   11.3804   -4.4844   -3.0616 H   0  0  0  0  0  0  0  0  0  0  0  0
   12.4209   -6.6847   -1.2897 H   0  0  0  0  0  0  0  0  0  0  0  0
   11.2220   -6.8084   -2.7014 H   0  0  0  0  0  0  0  0  0  0  0  0
   12.0632   -5.8711   -4.9671 H   0  0  0  0  0  0  0  0  0  0  0  0
   13.9025   -6.2616   -6.5999 H   0  0  0  0  0  0  0  0  0  0  0  0
   16.1061   -7.1298   -5.8177 H   0  0  0  0  0  0  0  0  0  0  0  0
   16.4774   -7.5651   -3.3914 H   0  0  0  0  0  0  0  0  0  0  0  0
   14.6484   -7.1560   -1.7516 H   0  0  0  0  0  0  0  0  0  0  0  0
   10.2555   -3.6177   -0.9161 H   0  0  0  0  0  0  0  0  0  0  0  0
    9.5151   -5.0253   -1.8423 H   0  0  0  0  0  0  0  0  0  0  0  0
   10.8029   -6.4772   -0.1186 H   0  0  0  0  0  0  0  0  0  0  0  0
    8.6960   -5.2770    1.2110 H   0  0  0  0  0  0  0  0  0  0  0  0
   11.8757   -4.2750    0.8389 H   0  0  0  0  0  0  0  0  0  0  0  0
   12.0852   -5.3895    3.0795 H   0  0  0  0  0  0  0  0  0  0  0  0
   10.8521   -6.6049    2.4876 H   0  0  0  0  0  0  0  0  0  0  0  0
   11.5709   -8.5637    1.5270 H   0  0  0  0  0  0  0  0  0  0  0  0
   13.3759   -9.9342    0.4947 H   0  0  0  0  0  0  0  0  0  0  0  0
   15.5780   -8.8978   -0.0512 H   0  0  0  0  0  0  0  0  0  0  0  0
   15.9725   -6.4851    0.4362 H   0  0  0  0  0  0  0  0  0  0  0  0
   14.1714   -5.1070    1.4677 H   0  0  0  0  0  0  0  0  0  0  0  0
    9.3620   -4.3240    2.5060 H   0  0  0  0  0  0  0  0  0  0  0  0
    7.3566   -1.8720    1.7780 H   0  0  0  0  0  0  0  0  0  0  0  0
    8.0291   -3.5113    1.7516 H   0  0  0  0  0  0  0  0  0  0  0  0
    6.6936   -0.8861    4.3487 H   0  0  0  0  0  0  0  0  0  0  0  0
    6.0690   -4.4601    6.5202 H   0  0  0  0  0  0  0  0  0  0  0  0
   14.2660   -3.8069   -0.0215 H   0  0  0  0  0  0  0  0  0  0  0  0
   14.7438   -3.1321    2.1584 H   0  0  0  0  0  0  0  0  0  0  0  0
   15.4754   -1.5780    1.6330 H   0  0  0  0  0  0  0  0  0  0  0  0
   13.6900   -1.7756    1.6330 H   0  0  0  0  0  0  0  0  0  0  0  0
   16.8262   -2.8925    0.4574 H   0  0  0  0  0  0  0  0  0  0  0  0
   16.3344   -3.7700   -1.0309 H   0  0  0  0  0  0  0  0  0  0  0  0
   16.4127   -1.9754   -1.0309 H   0  0  0  0  0  0  0  0  0  0  0  0
   10.1258   -0.1832   -1.3639 H   0  0  0  0  0  0  0  0  0  0  0  0
  1  2  1  0
  2  3  1  0
  2  4  1  0
  4  5  2  0
  5  6  1  0
  6  7  1  0
  7  8  1  0
  8  9  1  0
  8 10  1  0
 10 11  2  0
 10 12  1  0
 12 13  1  0
 13 14  1  0
 14 15  2  0
 14 16  1  0
 16 17  1  0
 17 18  1  0
 18 19  1  0
 19 20  2  0
 20 21  1  0
 21 22  2  0
 22 23  1  0
 23 24  2  0
 17 25  1  0
 25 26  1  0
 26 27  1  0
 26 28  1  0
 28 29  1  0
 29 30  1  0
 30 31  2  0
 31 32  1  0
 32 33  2  0
 33 34  1  0
 34 35  2  0
 28 36  1  0
 36 37  1  0
 37 38  2  0
 37 39  1  0
 39 40  1  0
 40 41  1  0
 41 42  2  0
 42 43  1  0
 43 44  2  0
 44 45  1  0
 13 46  1  0
 46 47  1  0
 46 48  1  0
  6 49  2  0
 49 50  1  0
 50  4  1  0
 24 19  1  0
 35 30  1  0
 45 41  1  0
  1 51  1  0
  1 52  1  0
  1 53  1  0
  2 54  1  0
  3 55  1  0
  3 56  1  0
  3 57  1  0
  7 58  1  0
  7 59  1  0
  9 60  1  0
  9 61  1  0
  9 62  1  0
 12 63  1  0
 13 64  1  6
 16 65  1  0
 17 66  1  6
 18 67  1  0
 18 68  1  0
 20 69  1  0
 21 70  1  0
 22 71  1  0
 23 72  1  0
 24 73  1  0
 25 74  1  0
 25 75  1  0
 26 76  1  6
 27 77  1  0
 28 78  1  6
 29 79  1  0
 29 80  1  0
 31 81  1  0
 32 82  1  0
 33 83  1  0
 34 84  1  0
 35 85  1  0
 36 86  1  0
 40 87  1  0
 40 88  1  0
 42 89  1  0
 44 90  1  0
 46 91  1  0
 47 92  1  0
 47 93  1  0
 47 94  1  0
 48 95  1  0
 48 96  1  0
 48 97  1  0
 49 98  1  0
M  END
>  <meeko>  (8) 
{"is_sidechain": [false], "free_energy": -8.429, "intermolecular_energy": -16.498, "internal_energy": -5.232}

$$$$
3prs_ligand
     RDKit          3D

 98101  0  0  0  0  0  0  0  0999 V2000
   11.7720    1.6930    2.1890 C   0  0  0  0  0  0  0  0  0  0  0  0
   12.2950    2.5080    1.0060 C   0  0  0  0  0  0  0  0  0  0  0  0
   11.3760    3.6990    0.7240 C   0  0  0  0  0  0  0  0  0  0  0  0
   12.4160    1.6410   -0.2200 C   0  0  0  0  0  0  0  0  0  0  0  0
   13.3880    0.7790   -0.4280 N   0  0  0  0  0  0  0  0  0  0  0  0
   13.2080    0.1220   -1.6430 C   0  0  0  0  0  0  0  0  0  0  0  0
   14.1890   -0.9290   -2.0920 C   0  0  0  0  0  0  0  0  0  0  0  0
   13.9100   -2.2170   -1.4640 N   0  0  0  0  0  0  0  0  0  0  0  0
   14.4640   -2.4330   -0.1340 C   0  0  0  0  0  0  0  0  0  0  0  0
   12.9600   -3.0200   -2.0630 C   0  0  0  0  0  0  0  0  0  0  0  0
   12.6130   -2.8880   -3.2330 O   0  0  0  0  0  0  0  0  0  0  0  0
   12.4520   -4.0120   -1.2680 N   0  0  0  0  0  0  0  0  0  0  0  0
   11.3870   -4.9260   -1.7040 C   0  0  2  0  0  0  0  0  0  0  0  0
   10.2240   -4.9120   -0.6810 C   0  0  0  0  0  0  0  0  0  0  0  0
    9.0570   -5.0770   -1.0360 O   0  0  0  0  0  0  0  0  0  0  0  0
   10.5900   -4.6720    0.6270 N   0  0  0  0  0  0  0  0  0  0  0  0
    9.5990   -4.4350    1.6800 C   0  0  1  0  0  0  0  0  0  0  0  0
   10.0460   -5.0460    3.0300 C   0  0  0  0  0  0  0  0  0  0  0  0
    8.9590   -5.5700    3.9450 C   0  0  0  0  0  0  0  0  0  0  0  0
    9.2890   -6.2230    5.1410 C   0  0  0  0  0  0  0  0  0  0  0  0
    8.2920   -6.7160    5.9860 C   0  0  0  0  0  0  0  0  0  0  0  0
    6.9500   -6.5520    5.6500 C   0  0  0  0  0  0  0  0  0  0  0  0
    6.6070   -5.8840    4.4780 C   0  0  0  0  0  0  0  0  0  0  0  0
    7.6050   -5.3860    3.6360 C   0  0  0  0  0  0  0  0  0  0  0  0
    9.2600   -2.9300    1.7240 C   0  0  0  0  0  0  0  0  0  0  0  0
    7.7620   -2.5980    1.7290 C   0  0  2  0  0  0  0  0  0  0  0  0
    7.3840   -2.1810    0.4140 O   0  0  0  0  0  0  0  0  0  0  0  0
    7.3920   -1.5210    2.7980 C   0  0  2  0  0  0  0  0  0  0  0  0
    8.4950   -0.4490    2.9400 C   0  0  0  0  0  0  0  0  0  0  0  0
    8.1340    0.8850    2.3230 C   0  0  0  0  0  0  0  0  0  0  0  0
    8.3680    1.1270    0.9630 C   0  0  0  0  0  0  0  0  0  0  0  0
    8.0400    2.3590    0.3960 C   0  0  0  0  0  0  0  0  0  0  0  0
    7.4740    3.3610    1.1820 C   0  0  0  0  0  0  0  0  0  0  0  0
    7.2330    3.1310    2.5340 C   0  0  0  0  0  0  0  0  0  0  0  0
    7.5590    1.8980    3.1030 C   0  0  0  0  0  0  0  0  0  0  0  0
    7.1190   -2.1540    4.0900 N   0  0  0  0  0  0  0  0  0  0  0  0
    6.2430   -1.6410    4.9930 C   0  0  0  0  0  0  0  0  0  0  0  0
    5.6290   -0.5930    4.8540 O   0  0  0  0  0  0  0  0  0  0  0  0
    6.1510   -2.4740    6.0530 O   0  0  0  0  0  0  0  0  0  0  0  0
    4.8490   -3.0420    6.2120 C   0  0  0  0  0  0  0  0  0  0  0  0
    4.2730   -2.4180    7.4360 C   0  0  0  0  0  0  0  0  0  0  0  0
    4.4780   -2.7530    8.7610 C   0  0  0  0  0  0  0  0  0  0  0  0
    3.8060   -1.9820    9.6890 N   0  0  0  0  0  0  0  0  0  0  0  0
    3.0910   -1.0770    9.0580 C   0  0  0  0  0  0  0  0  0  0  0  0
    3.1870   -1.0930    7.3460 S   0  0  0  0  0  0  0  0  0  0  0  0
   11.8700   -6.3470   -2.0890 C   0  0  0  0  0  0  0  0  0  0  0  0
   13.1560   -6.7230   -1.3440 C   0  0  0  0  0  0  0  0  0  0  0  0
   12.1220   -6.4500   -3.6000 C   0  0  0  0  0  0  0  0  0  0  0  0
   12.0810    0.5200   -2.3390 C   0  0  0  0  0  0  0  0  0  0  0  0
   11.2380    1.7280   -1.4690 S   0  0  0  0  0  0  0  0  0  0  0  0
   12.0800    2.1729    3.1296 H   0  0  0  0  0  0  0  0  0  0  0  0
   10.6740    1.6449    2.1443 H   0  0  0  0  0  0  0  0  0  0  0  0
   12.1857    0.6748    2.1443 H   0  0  0  0  0  0  0  0  0  0  0  0
   13.2931    2.8906    1.2656 H   0  0  0  0  0  0  0  0  0  0  0  0
   11.0391    4.1356    1.6758 H   0  0  0  0  0  0  0  0  0  0  0  0
   11.9253    4.4574    0.1468 H   0  0  0  0  0  0  0  0  0  0  0  0
   10.5031    3.3600    0.1468 H   0  0  0  0  0  0  0  0  0  0  0  0
   14.1201   -1.0403   -3.1842 H   0  0  0  0  0  0  0  0  0  0  0  0
   15.1994   -0.6100   -1.7966 H   0  0  0  0  0  0  0  0  0  0  0  0
   13.7213   -2.1434    0.6240 H   0  0  0  0  0  0  0  0  0  0  0  0
   14.7182   -3.4961   -0.0109 H   0  0  0  0  0  0  0  0  0  0  0  0
   15.3707   -1.8225   -0.0109 H   0  0  0  0  0  0  0  0  0  0  0  0
   12.4020   -3.7590   -0.2940 H   0  0  0  0  0  0  0  0  0  0  0  0
   11.0019   -4.5402   -2.6595 H   0  0  0  0  0  0  0  0  0  0  0  0
   11.4850   -4.1870    0.7260 H   0  0  0  0  0  0  0  0  0  0  0  0
    8.6609   -4.9618    1.4509 H   0  0  0  0  0  0  0  0  0  0  0  0
   10.7229   -5.8837    2.8064 H   0  0  0  0  0  0  0  0  0  0  0  0
   10.5039   -4.2117    3.5816 H   0  0  0  0  0  0  0  0  0  0  0  0
   10.3463   -6.3487    5.4174 H   0  0  0  0  0  0  0  0  0  0  0  0
    8.5665   -7.2338    6.9169 H   0  0  0  0  0  0  0  0  0  0  0  0
    6.1638   -6.9492    6.3089 H   0  0  0  0  0  0  0  0  0  0  0  0
    5.5479   -5.7478    4.2139 H   0  0  0  0  0  0  0  0  0  0  0  0
    7.3245   -4.8438    2.7209 H   0  0  0  0  0  0  0  0  0  0  0  0
    9.7053   -2.5073    2.6367 H   0  0  0  0  0  0  0  0  0  0  0  0
    9.6654   -2.4984    0.7970 H   0  0  0  0  0  0  0  0  0  0  0  0
    7.2008   -3.5012    2.0103 H   0  0  0  0  0  0  0  0  0  0  0  0
    6.4830   -1.8000    0.4550 H   0  0  0  0  0  0  0  0  0  0  0  0
    6.4806   -1.0110    2.4526 H   0  0  0  0  0  0  0  0  0  0  0  0
    8.6917   -0.2937    4.0111 H   0  0  0  0  0  0  0  0  0  0  0  0
    9.3769   -0.8235    2.3996 H   0  0  0  0  0  0  0  0  0  0  0  0
    8.8137    0.3397    0.3374 H   0  0  0  0  0  0  0  0  0  0  0  0
    8.2284    2.5396   -0.6726 H   0  0  0  0  0  0  0  0  0  0  0  0
    7.2178    4.3328    0.7347 H   0  0  0  0  0  0  0  0  0  0  0  0
    6.7854    3.9213    3.1545 H   0  0  0  0  0  0  0  0  0  0  0  0
    7.3632    1.7204    4.1708 H   0  0  0  0  0  0  0  0  0  0  0  0
    7.4820   -3.0720    4.3010 H   0  0  0  0  0  0  0  0  0  0  0  0
    4.2234   -2.8138    5.3365 H   0  0  0  0  0  0  0  0  0  0  0  0
    4.8966   -4.1372    6.3035 H   0  0  0  0  0  0  0  0  0  0  0  0
    5.1360   -3.5828    9.0582 H   0  0  0  0  0  0  0  0  0  0  0  0
    2.4662   -0.3503    9.5980 H   0  0  0  0  0  0  0  0  0  0  0  0
   11.0711   -7.0459   -1.8004 H   0  0  0  0  0  0  0  0  0  0  0  0
   12.9798   -6.6715   -0.2594 H   0  0  0  0  0  0  0  0  0  0  0  0
   13.4534   -7.7457   -1.6190 H   0  0  0  0  0  0  0  0  0  0  0  0
   13.9575   -6.0216   -1.6190 H   0  0  0  0  0  0  0  0  0  0  0  0
   13.1270   -6.8608   -3.7770 H   0  0  0  0  0  0  0  0  0  0  0  0
   11.3700   -7.1129   -4.0528 H   0  0  0  0  0  0  0  0  0  0  0  0
   12.0496   -5.4501   -4.0528 H   0  0  0  0  0  0  0  0  0  0  0  0
   11.7706    0.1168   -3.3142 H   0  0  0  0  0  0  0  0  0  0  0  0
  1  2  1  0
  2  3  1  0
  2  4  1  0
  4  5  2  0
  5  6  1  0
  6  7  1  0
  7  8  1  0
  8  9  1  0
  8 10  1  0
 10 11  2  0
 10 12  1  0
 12 13  1  0
 13 14  1  0
 14 15  2  0
 14 16  1  0
 16 17  1  0
 17 18  1  0
 18 19  1  0
 19 20  2  0
 20 21  1  0
 21 22  2  0
 22 23  1  0
 23 24  2  0
 17 25  1  0
 25 26  1  0
 26 27  1  0
 26 28  1  0
 28 29  1  0
 29 30  1  0
 30 31  2  0
 31 32  1  0
 32 33  2  0
 33 34  1  0
 34 35  2  0
 28 36  1  0
 36 37  1  0
 37 38  2  0
 37 39  1  0
 39 40  1  0
 40 41  1  0
 41 42  2  0
 42 43  1  0
 43 44  2  0
 44 45  1  0
 13 46  1  0
 46 47  1  0
 46 48  1  0
  6 49  2  0
 49 50  1  0
 50  4  1  0
 24 19  1  0
 35 30  1  0
 45 41  1  0
  1 51  1  0
  1 52  1  0
  1 53  1  0
  2 54  1  0
  3 55  1  0
  3 56  1  0
  3 57  1  0
  7 58  1  0
  7 59  1  0
  9 60  1  0
  9 61  1  0
  9 62  1  0
 12 63  1  0
 13 64  1  6
 16 65  1  0
 17 66  1  6
 18 67  1  0
 18 68  1  0
 20 69  1  0
 21 70  1  0
 22 71  1  0
 23 72  1  0
 24 73  1  0
 25 74  1  0
 25 75  1  0
 26 76  1  1
 27 77  1  0
 28 78  1  6
 29 79  1  0
 29 80  1  0
 31 81  1  0
 32 82  1  0
 33 83  1  0
 34 84  1  0
 35 85  1  0
 36 86  1  0
 40 87  1  0
 40 88  1  0
 42 89  1  0
 44 90  1  0
 46 91  1  0
 47 92  1  0
 47 93  1  0
 47 94  1  0
 48 95  1  0
 48 96  1  0
 48 97  1  0
 49 98  1  0
M  END
>  <meeko>  (9) 
{"is_sidechain": [false], "free_energy": -8.324, "intermolecular_energy": -17.542, "internal_energy": -3.965}

$$$$
