
     RDKit          3D

 40 42  0  0  0  0  0  0  0  0999 V2000
  -11.1090   -9.7270    2.9070 N   0  0  0  0  0  0  0  0  0  0  0  0
  -11.3290   -8.4370    3.0740 C   0  0  0  0  0  0  0  0  0  0  0  0
  -12.3140   -7.9970    3.6500 O   0  0  0  0  0  0  0  0  0  0  0  0
  -10.3320   -7.4780    2.4630 C   0  0  0  0  0  0  0  0  0  0  0  0
  -10.9730   -6.5940    1.4310 C   0  0  0  0  0  0  0  0  0  0  0  0
   -9.9060   -5.8920    0.5950 C   0  0  2  0  0  0  0  0  0  0  0  0
   -9.2860   -4.8120    1.3400 N   0  0  0  0  0  0  0  0  0  0  0  0
   -7.9610   -4.7230    1.4680 C   0  0  0  0  0  0  0  0  0  0  0  0
   -7.2030   -5.5400    1.0010 O   0  0  0  0  0  0  0  0  0  0  0  0
   -7.4770   -3.4910    2.2310 C   0  0  0  0  0  0  0  0  0  0  0  0
   -6.5700   -2.6110    1.4350 C   0  0  0  0  0  0  0  0  0  0  0  0
   -7.1680   -1.3730    0.8420 C   0  0  0  0  0  0  0  0  0  0  0  0
   -6.5620   -0.8540   -0.2750 C   0  0  0  0  0  0  0  0  0  0  0  0
   -7.0650    0.3080   -0.8870 C   0  0  0  0  0  0  0  0  0  0  0  0
   -8.1730    0.9530   -0.3390 C   0  0  0  0  0  0  0  0  0  0  0  0
   -8.6620    2.1570   -1.0060 C   0  0  0  0  0  0  0  0  0  0  0  0
   -9.4490    3.1730   -0.5090 C   0  0  0  0  0  0  0  0  0  0  0  0
   -9.7150    4.1720   -1.4940 C   0  0  0  0  0  0  0  0  0  0  0  0
  -10.4910    5.3570   -1.2870 C   0  0  0  0  0  0  0  0  0  0  0  0
  -11.6770    5.3380   -0.5650 C   0  0  0  0  0  0  0  0  0  0  0  0
  -12.4370    6.5020   -0.3780 C   0  0  0  0  0  0  0  0  0  0  0  0
  -12.0080    7.7040   -0.9260 C   0  0  0  0  0  0  0  0  0  0  0  0
  -10.8270    7.7450   -1.6510 C   0  0  0  0  0  0  0  0  0  0  0  0
  -10.0750    6.5760   -1.8410 C   0  0  0  0  0  0  0  0  0  0  0  0
   -9.1460    3.8840   -2.6970 C   0  0  0  0  0  0  0  0  0  0  0  0
   -8.2900    2.4400   -2.6070 S   0  0  0  0  0  0  0  0  0  0  0  0
   -8.7900    0.4460    0.7620 C   0  0  0  0  0  0  0  0  0  0  0  0
   -8.2760   -0.7250    1.3690 C   0  0  0  0  0  0  0  0  0  0  0  0
  -10.5680   -5.3480   -0.6510 C   0  0  0  0  0  0  0  0  0  0  0  0
  -10.9650   -4.2090   -0.7200 O   0  0  0  0  0  0  0  0  0  0  0  0
  -10.7320   -6.2600   -1.6230 N   0  0  0  0  0  0  0  0  0  0  0  0
  -11.4960   -5.9580   -2.8180 C   0  0  1  0  0  0  0  0  0  0  0  0
  -11.2530   -7.0440   -3.8740 C   0  0  0  0  0  0  0  0  0  0  0  0
  -11.3840   -6.4640   -5.2520 C   0  0  0  0  0  0  0  0  0  0  0  0
  -11.3140   -7.5440   -6.3270 C   0  0  0  0  0  0  0  0  0  0  0  0
  -12.3830   -7.9410   -6.8140 O   0  0  0  0  0  0  0  0  0  0  0  0
  -10.2150   -7.9800   -6.6650 O   0  0  0  0  0  0  0  0  0  0  0  0
  -12.9740   -5.8850   -2.4290 C   0  0  0  0  0  0  0  0  0  0  0  0
  -13.7340   -4.9080   -2.9910 N   0  0  0  0  0  0  0  0  0  0  0  0
  -13.4720   -6.6750   -1.6260 O   0  0  0  0  0  0  0  0  0  0  0  0
  2  1  1  0
  3  2  2  0
  4  2  1  0
  5  4  1  0
  6  5  1  1
  7  6  1  0
  8  7  1  0
  9  8  2  0
 10  8  1  0
 11 10  1  0
 12 11  1  0
 13 12  2  0
 14 13  1  0
 15 14  2  0
 16 15  1  0
 17 16  2  0
 18 17  1  0
 19 18  1  0
 20 19  2  0
 21 20  1  0
 22 21  2  0
 23 22  1  0
 24 19  1  0
 24 23  2  0
 25 18  2  0
 26 25  1  0
 26 16  1  0
 27 15  1  0
 28 27  2  0
 28 12  1  0
 29  6  1  0
 30 29  2  0
 31 29  1  0
 32 31  1  0
 32 33  1  6
 34 33  1  0
 35 34  1  0
 36 35  2  0
 37 35  1  0
 38 32  1  0
 39 38  1  0
 40 38  2  0
M  CHG  1  37  -1
M  END
$$$$
