
     RDKit          3D

 30 33  0  0  0  0  0  0  0  0999 V2000
    2.1380   -9.5360   14.4010 C   0  0  0  0  0  0  0  0  0  0  0  0
    3.1180   -9.6790   15.5050 C   0  0  0  0  0  0  0  0  0  0  0  0
    4.3430  -10.3870   15.1570 N   0  0  0  0  0  0  0  0  0  0  0  0
    5.4430   -9.4240   14.9780 C   0  0  0  0  0  0  0  0  0  0  0  0
    5.6800   -9.0620   13.5770 C   0  0  0  0  0  0  0  0  0  0  0  0
    6.2910   -7.8930   13.1710 C   0  0  0  0  0  0  0  0  0  0  0  0
    6.4130   -7.8250   11.7990 C   0  0  0  0  0  0  0  0  0  0  0  0
    6.9970   -6.7960   11.0990 N   0  0  0  0  0  0  0  0  0  0  0  0
    7.1750   -6.7150    9.7540 C   0  0  0  0  0  0  0  0  0  0  0  0
    6.6300   -7.6180    8.9290 N   0  0  0  0  0  0  0  0  0  0  0  0
    6.8080   -7.5260    7.5930 C   0  0  0  0  0  0  0  0  0  0  0  0
    6.1770   -8.5510    6.7090 C   0  0  0  0  0  0  0  0  0  0  0  0
    7.5590   -6.5070    7.0510 C   0  0  0  0  0  0  0  0  0  0  0  0
    8.1250   -5.5830    7.9010 N   0  0  0  0  0  0  0  0  0  0  0  0
    8.8990   -4.5070    7.6700 C   0  0  0  0  0  0  0  0  0  0  0  0
    9.3250   -4.0240    6.3870 C   0  0  0  0  0  0  0  0  0  0  0  0
   10.5180   -3.4170    6.0710 C   0  0  0  0  0  0  0  0  0  0  0  0
   10.5060   -3.1370    4.7600 N   0  0  0  0  0  0  0  0  0  0  0  0
    9.3410   -3.5430    4.2370 N   0  0  0  0  0  0  0  0  0  0  0  0
    8.6200   -4.0790    5.2130 C   0  0  0  0  0  0  0  0  0  0  0  0
    9.1880   -3.9510    8.8920 C   0  0  0  0  0  0  0  0  0  0  0  0
    8.6110   -4.6600    9.8520 N   0  0  0  0  0  0  0  0  0  0  0  0
    7.9530   -5.6650    9.2290 C   0  0  0  0  0  0  0  0  0  0  0  0
    5.7620   -9.2230   11.1210 S   0  0  0  0  0  0  0  0  0  0  0  0
    5.3650   -9.8540   12.6070 N   0  0  0  0  0  0  0  0  0  0  0  0
    4.7240  -11.4240   16.1710 C   0  0  2  0  0  0  0  0  0  0  0  0
    4.7070  -10.8250   17.5740 C   0  0  0  0  0  0  0  0  0  0  0  0
    6.0960  -11.9880   15.8840 C   0  0  0  0  0  0  0  0  0  0  0  0
    3.7250  -12.6040   16.0970 C   0  0  0  0  0  0  0  0  0  0  0  0
    3.6160  -13.0580   14.8020 O   0  0  0  0  0  0  0  0  0  0  0  0
  2  1  1  0
  3  2  1  0
  4  3  1  0
  5  4  1  0
  6  5  1  0
  7  6  2  0
  8  7  1  0
  9  8  1  0
 10  9  2  0
 11 10  1  0
 12 11  1  0
 13 11  2  0
 14 13  1  0
 15 14  1  0
 16 15  1  0
 17 16  2  0
 18 17  1  0
 19 18  1  0
 20 19  2  0
 20 16  1  0
 21 15  2  0
 22 21  1  0
 23 14  1  0
 23  9  1  0
 23 22  2  0
 24  7  1  0
 25 24  1  0
 25  5  2  0
 26  3  1  0
 26 27  1  1
 28 26  1  0
 29 26  1  0
 30 29  1  0
M  CHG  1   3   1
M  END
$$$$
