
     RDKit          3D

 22 24  0  0  0  0  0  0  0  0999 V2000
    4.7050    2.2400   -6.8950 O   0  0  0  0  0  0  0  0  0  0  0  0
    3.5730    3.0810   -6.6110 C   0  0  0  0  0  0  0  0  0  0  0  0
    2.9230    2.6220   -5.2890 C   0  0  2  0  0  0  0  0  0  0  0  0
    3.7920    2.9020   -4.0480 C   0  0  1  0  0  0  0  0  0  0  0  0
    4.1470    4.2960   -4.0200 O   0  0  0  0  0  0  0  0  0  0  0  0
    2.9900    2.4690   -2.8160 C   0  0  2  0  0  0  0  0  0  0  0  0
    3.6880    2.8580   -1.6170 O   0  0  0  0  0  0  0  0  0  0  0  0
    2.8070    0.9470   -2.7980 C   0  0  1  0  0  0  0  0  0  0  0  0
    1.7360    0.6080   -1.9180 O   0  0  0  0  0  0  0  0  0  0  0  0
    2.5480    0.4250   -4.1980 C   0  0  0  0  0  0  0  0  0  0  0  0
    2.3210   -0.8260   -4.5480 N   0  0  0  0  0  0  0  0  0  0  0  0
    2.2600   -0.8760   -5.8950 C   0  0  0  0  0  0  0  0  0  0  0  0
    2.1080   -2.1340   -6.7070 C   0  0  0  0  0  0  0  0  0  0  0  0
    3.5120   -2.8210   -6.8550 C   0  0  0  0  0  0  0  0  0  0  0  0
    3.5770   -3.8730   -7.9200 C   0  0  0  0  0  0  0  0  0  0  0  0
    3.5440   -5.2190   -7.5670 C   0  0  0  0  0  0  0  0  0  0  0  0
    3.5810   -6.2130   -8.5690 C   0  0  0  0  0  0  0  0  0  0  0  0
    3.6830   -5.8350   -9.9240 C   0  0  0  0  0  0  0  0  0  0  0  0
    3.7170   -4.4680  -10.2740 C   0  0  0  0  0  0  0  0  0  0  0  0
    3.6770   -3.4940   -9.2660 C   0  0  0  0  0  0  0  0  0  0  0  0
    2.4190    0.3940   -6.3830 C   0  0  0  0  0  0  0  0  0  0  0  0
    2.6310    1.1810   -5.3140 N   0  0  0  0  0  0  0  0  0  0  0  0
  2  1  1  0
  3  2  1  6
  4  3  1  0
  4  5  1  1
  6  4  1  0
  6  7  1  1
  8  6  1  0
  8  9  1  1
 10  8  1  0
 11 10  2  0
 12 11  1  0
 13 12  1  0
 14 13  1  0
 15 14  1  0
 16 15  2  0
 17 16  1  0
 18 17  2  0
 19 18  1  0
 20 19  2  0
 20 15  1  0
 21 12  2  0
 22 21  1  0
 22 10  1  0
 22  3  1  0
M  CHG  1  11   1
M  END
$$$$
