
     RDKit          3D

 16 17  0  0  0  0  0  0  0  0999 V2000
    3.5210    7.4750   13.0220 C   0  0  0  0  0  0  0  0  0  0  0  0
    4.4380    6.6700   12.1440 C   0  0  0  0  0  0  0  0  0  0  0  0
    5.4610    7.5030   11.5230 N   0  0  0  0  0  0  0  0  0  0  0  0
    6.4320    6.9850   10.7780 C   0  0  0  0  0  0  0  0  0  0  0  0
    7.3690    7.6540   10.0600 N   0  0  0  0  0  0  0  0  0  0  0  0
    8.1680    6.7840    9.1960 C   0  0  2  0  0  0  0  0  0  0  0  0
    7.5160    6.7220    7.8030 C   0  0  1  0  0  0  0  0  0  0  0  0
    7.7290    7.9500    7.1310 O   0  0  0  0  0  0  0  0  0  0  0  0
    8.0830    5.5640    7.0020 C   0  0  2  0  0  0  0  0  0  0  0  0
    7.4610    5.4910    5.7310 O   0  0  0  0  0  0  0  0  0  0  0  0
    7.8250    4.2470    7.7570 C   0  0  1  0  0  0  0  0  0  0  0  0
    8.3480    3.0200    7.0180 C   0  0  0  0  0  0  0  0  0  0  0  0
    9.7430    3.1570    6.7490 O   0  0  0  0  0  0  0  0  0  0  0  0
    8.4680    4.3190    9.0340 O   0  0  0  0  0  0  0  0  0  0  0  0
    8.1760    5.4190    9.8680 C   0  0  2  0  0  0  0  0  0  0  0  0
    6.5660    5.2770   10.6410 S   0  0  0  0  0  0  0  0  0  0  0  0
  2  1  1  0
  3  2  1  0
  4  3  1  0
  5  4  2  0
  6  5  1  1
  7  6  1  0
  7  8  1  6
  9  7  1  0
  9 10  1  6
 11  9  1  0
 11 12  1  6
 13 12  1  0
 14 11  1  0
 15 14  1  6
 15  6  1  0
 16 15  1  0
 16  4  1  0
M  END
$$$$
