
     RDKit          3D

  9  8  0  0  0  0  0  0  0  0999 V2000
  -10.1650   17.5330  -10.2960 C   0  0  0  0  0  0  0  0  0  0  0  0
  -10.7230   16.0220  -11.0120 S   0  0  0  0  0  0  0  0  0  0  0  0
   -9.3900   14.8890  -10.7210 C   0  0  0  0  0  0  0  0  0  0  0  0
   -8.8100   15.0950   -9.3430 C   0  0  0  0  0  0  0  0  0  0  0  0
   -7.8500   13.9990   -8.9480 C   0  0  2  0  0  0  0  0  0  0  0  0
   -8.6040   12.7690   -8.6110 N   0  0  0  0  0  0  0  0  0  0  0  0
   -7.0540   14.4820   -7.7580 C   0  0  0  0  0  0  0  0  0  0  0  0
   -7.1000   13.8520   -6.7260 O   0  0  0  0  0  0  0  0  0  0  0  0
   -6.3740   15.5110   -7.9030 O   0  0  0  0  0  0  0  0  0  0  0  0
  2  1  1  0
  3  2  1  0
  4  3  1  0
  5  4  1  0
  5  6  1  1
  7  5  1  0
  8  7  1  0
  9  7  2  0
M  CHG  2   6   1   8  -1
M  END
$$$$
