2j7h_ligand
     RDKit          3D

 24 24  0  0  0  0  0  0  0  0999 V2000
    3.6050    5.6070   -6.3020 O   0  0  0  0  0  0  0  0  0  0  0  0
    4.3160    5.2530   -5.1060 C   0  0  0  0  0  0  0  0  0  0  0  0
    4.0090    3.7710   -4.8710 C   0  0  1  0  0  0  0  0  0  0  0  0
    2.8610    3.7310   -3.8730 N   0  0  0  0  0  0  0  0  0  0  0  0
    2.5450    2.2230   -3.4690 N   0  0  0  0  0  0  0  0  0  0  0  0
    2.1650    1.4510   -4.7070 C   0  0  0  0  0  0  0  0  0  0  0  0
    3.2700    1.5280   -5.7700 C   0  0  1  0  0  0  0  0  0  0  0  0
    2.7870    0.8850   -6.9440 O   0  0  0  0  0  0  0  0  0  0  0  0
    3.6400    2.9810   -6.1270 C   0  0  2  0  0  0  0  0  0  0  0  0
    4.7650    2.9730   -6.9980 O   0  0  0  0  0  0  0  0  0  0  0  0
    3.3350    6.5490   -6.2020 H   0  0  0  0  0  0  0  0  0  0  0  0
    5.3969    5.4048   -5.2422 H   0  0  0  0  0  0  0  0  0  0  0  0
    4.0105    5.8737   -4.2508 H   0  0  0  0  0  0  0  0  0  0  0  0
    4.9238    3.2826   -4.5040 H   0  0  0  0  0  0  0  0  0  0  0  0
    2.0400    4.2530   -4.2430 H   0  0  0  0  0  0  0  0  0  0  0  0
    3.1840    4.3370   -3.0770 H   0  0  0  0  0  0  0  0  0  0  0  0
    3.3470    1.7640   -2.9860 H   0  0  0  0  0  0  0  0  0  0  0  0
    1.7600    2.1680   -2.7860 H   0  0  0  0  0  0  0  0  0  0  0  0
    2.0001    0.3976   -4.4365 H   0  0  0  0  0  0  0  0  0  0  0  0
    1.2481    1.8921   -5.1250 H   0  0  0  0  0  0  0  0  0  0  0  0
    4.1720    1.0427   -5.3689 H   0  0  0  0  0  0  0  0  0  0  0  0
    2.0520    1.4060   -7.3310 H   0  0  0  0  0  0  0  0  0  0  0  0
    2.7723    3.4539   -6.6101 H   0  0  0  0  0  0  0  0  0  0  0  0
    4.6010    3.5820   -7.7490 H   0  0  0  0  0  0  0  0  0  0  0  0
  1  2  1  0
  2  3  1  0
  3  4  1  0
  4  5  1  0
  5  6  1  0
  6  7  1  0
  7  8  1  0
  7  9  1  0
  9 10  1  0
  9  3  1  0
  1 11  1  0
  2 12  1  0
  2 13  1  0
  3 14  1  1
  4 15  1  0
  4 16  1  0
  5 17  1  0
  5 18  1  0
  6 19  1  0
  6 20  1  0
  7 21  1  1
  8 22  1  0
  9 23  1  6
 10 24  1  0
M  CHG  2   4   1   5   1
M  END
>  <meeko>  (1) 
{"is_sidechain": [false], "free_energy": -5.51, "intermolecular_energy": -6.315, "internal_energy": -0.244}

$$$$
2j7h_ligand
     RDKit          3D

 24 24  0  0  0  0  0  0  0  0999 V2000
    0.2940    0.5200   -5.0090 O   0  0  0  0  0  0  0  0  0  0  0  0
    1.3570    0.8450   -4.0990 C   0  0  0  0  0  0  0  0  0  0  0  0
    2.0870    2.0330   -4.7310 C   0  0  1  0  0  0  0  0  0  0  0  0
    2.6780    2.8280   -3.5770 N   0  0  0  0  0  0  0  0  0  0  0  0
    3.3600    4.1580   -4.1250 N   0  0  0  0  0  0  0  0  0  0  0  0
    4.4540    3.7880   -5.0940 C   0  0  0  0  0  0  0  0  0  0  0  0
    3.9100    2.9200   -6.2390 C   0  0  1  0  0  0  0  0  0  0  0  0
    5.0160    2.5120   -7.0360 O   0  0  0  0  0  0  0  0  0  0  0  0
    3.1850    1.6610   -5.7270 C   0  0  2  0  0  0  0  0  0  0  0  0
    2.5830    0.9920   -6.8290 O   0  0  0  0  0  0  0  0  0  0  0  0
   -0.5100    0.9870   -4.6830 H   0  0  0  0  0  0  0  0  0  0  0  0
    0.9498    1.1228   -3.1156 H   0  0  0  0  0  0  0  0  0  0  0  0
    2.0310   -0.0090   -3.9369 H   0  0  0  0  0  0  0  0  0  0  0  0
    1.3620    2.6044   -5.3292 H   0  0  0  0  0  0  0  0  0  0  0  0
    3.3120    2.2280   -3.0090 H   0  0  0  0  0  0  0  0  0  0  0  0
    1.8670    2.9900   -2.9270 H   0  0  0  0  0  0  0  0  0  0  0  0
    2.6730    4.7990   -4.5790 H   0  0  0  0  0  0  0  0  0  0  0  0
    3.7750    4.7220   -3.3520 H   0  0  0  0  0  0  0  0  0  0  0  0
    4.8869    4.7075   -5.5149 H   0  0  0  0  0  0  0  0  0  0  0  0
    5.2193    3.2122   -4.5529 H   0  0  0  0  0  0  0  0  0  0  0  0
    3.1814    3.5145   -6.8098 H   0  0  0  0  0  0  0  0  0  0  0  0
    5.4500    3.2970   -7.4310 H   0  0  0  0  0  0  0  0  0  0  0  0
    3.9207    1.0134   -5.2277 H   0  0  0  0  0  0  0  0  0  0  0  0
    3.1010    0.1880   -7.0470 H   0  0  0  0  0  0  0  0  0  0  0  0
  1  2  1  0
  2  3  1  0
  3  4  1  0
  4  5  1  0
  5  6  1  0
  6  7  1  0
  7  8  1  0
  7  9  1  0
  9 10  1  0
  9  3  1  0
  1 11  1  0
  2 12  1  0
  2 13  1  0
  3 14  1  6
  4 15  1  0
  4 16  1  0
  5 17  1  0
  5 18  1  0
  6 19  1  0
  6 20  1  0
  7 21  1  6
  8 22  1  0
  9 23  1  1
 10 24  1  0
M  CHG  2   4   1   5   1
M  END
>  <meeko>  (2) 
{"is_sidechain": [false], "free_energy": -5.344, "intermolecular_energy": -6.133, "internal_energy": -0.236}

$$$$
2j7h_ligand
     RDKit          3D

 24 24  0  0  0  0  0  0  0  0999 V2000
    1.1830    0.7280   -3.4700 O   0  0  0  0  0  0  0  0  0  0  0  0
    1.2710    1.1300   -4.8460 C   0  0  0  0  0  0  0  0  0  0  0  0
    2.7400    1.4950   -5.0710 C   0  0  1  0  0  0  0  0  0  0  0  0
    3.0440    1.1460   -6.5210 N   0  0  0  0  0  0  0  0  0  0  0  0
    4.5910    1.3780   -6.8230 N   0  0  0  0  0  0  0  0  0  0  0  0
    4.9310    2.8250   -6.5710 C   0  0  0  0  0  0  0  0  0  0  0  0
    4.5700    3.2370   -5.1360 C   0  0  1  0  0  0  0  0  0  0  0  0
    4.8030    4.6360   -5.0170 O   0  0  0  0  0  0  0  0  0  0  0  0
    3.0930    2.9580   -4.8000 C   0  0  2  0  0  0  0  0  0  0  0  0
    2.8730    3.2230   -3.4190 O   0  0  0  0  0  0  0  0  0  0  0  0
    1.6190    1.4350   -2.9400 H   0  0  0  0  0  0  0  0  0  0  0  0
    0.9744    0.3031   -5.5080 H   0  0  0  0  0  0  0  0  0  0  0  0
    0.6016    1.9740   -5.0686 H   0  0  0  0  0  0  0  0  0  0  0  0
    3.3490    0.9325   -4.3480 H   0  0  0  0  0  0  0  0  0  0  0  0
    2.4040    1.6610   -7.1600 H   0  0  0  0  0  0  0  0  0  0  0  0
    2.7240    0.1500   -6.6240 H   0  0  0  0  0  0  0  0  0  0  0  0
    5.2040    0.7550   -6.2550 H   0  0  0  0  0  0  0  0  0  0  0  0
    4.8250    1.1460   -7.8130 H   0  0  0  0  0  0  0  0  0  0  0  0
    6.0099    2.9727   -6.7263 H   0  0  0  0  0  0  0  0  0  0  0  0
    4.3508    3.4465   -7.2689 H   0  0  0  0  0  0  0  0  0  0  0  0
    5.1867    2.6496   -4.4398 H   0  0  0  0  0  0  0  0  0  0  0  0
    4.1120    5.0420   -4.4540 H   0  0  0  0  0  0  0  0  0  0  0  0
    2.4643    3.6041   -5.4302 H   0  0  0  0  0  0  0  0  0  0  0  0
    2.7830    2.3750   -2.9340 H   0  0  0  0  0  0  0  0  0  0  0  0
  1  2  1  0
  2  3  1  0
  3  4  1  0
  4  5  1  0
  5  6  1  0
  6  7  1  0
  7  8  1  0
  7  9  1  0
  9 10  1  0
  9  3  1  0
  1 11  1  0
  2 12  1  0
  2 13  1  0
  3 14  1  1
  4 15  1  0
  4 16  1  0
  5 17  1  0
  5 18  1  0
  6 19  1  0
  6 20  1  0
  7 21  1  1
  8 22  1  0
  9 23  1  6
 10 24  1  0
M  CHG  2   4   1   5   1
M  END
>  <meeko>  (3) 
{"is_sidechain": [false], "free_energy": -5.203, "intermolecular_energy": -5.975, "internal_energy": -0.232}

$$$$
2j7h_ligand
     RDKit          3D

 24 24  0  0  0  0  0  0  0  0999 V2000
    2.7120    2.1040   -3.5210 O   0  0  0  0  0  0  0  0  0  0  0  0
    2.2470    2.3160   -4.8630 C   0  0  0  0  0  0  0  0  0  0  0  0
    3.0490    3.5090   -5.3900 C   0  0  1  0  0  0  0  0  0  0  0  0
    2.7680    3.5810   -6.8840 N   0  0  0  0  0  0  0  0  0  0  0  0
    3.6560    4.7230   -7.5500 N   0  0  0  0  0  0  0  0  0  0  0  0
    3.3200    6.0450   -6.9100 C   0  0  0  0  0  0  0  0  0  0  0  0
    3.5220    5.9910   -5.3880 C   0  0  1  0  0  0  0  0  0  0  0  0
    3.0690    7.2270   -4.8480 O   0  0  0  0  0  0  0  0  0  0  0  0
    2.7240    4.8490   -4.7310 C   0  0  2  0  0  0  0  0  0  0  0  0
    3.0770    4.7690   -3.3550 O   0  0  0  0  0  0  0  0  0  0  0  0
    2.5100    2.9270   -3.0180 H   0  0  0  0  0  0  0  0  0  0  0  0
    2.4337    1.4246   -5.4799 H   0  0  0  0  0  0  0  0  0  0  0  0
    1.1640    2.5063   -4.8944 H   0  0  0  0  0  0  0  0  0  0  0  0
    4.1100    3.3420   -5.1524 H   0  0  0  0  0  0  0  0  0  0  0  0
    1.7460    3.6820   -7.0560 H   0  0  0  0  0  0  0  0  0  0  0  0
    2.9680    2.6100   -7.2360 H   0  0  0  0  0  0  0  0  0  0  0  0
    4.6780    4.5280   -7.4710 H   0  0  0  0  0  0  0  0  0  0  0  0
    3.4800    4.7930   -8.5760 H   0  0  0  0  0  0  0  0  0  0  0  0
    3.9723    6.8240   -7.3314 H   0  0  0  0  0  0  0  0  0  0  0  0
    2.2634    6.2729   -7.1139 H   0  0  0  0  0  0  0  0  0  0  0  0
    4.5881    5.8121   -5.1846 H   0  0  0  0  0  0  0  0  0  0  0  0
    2.2540    7.0830   -4.3240 H   0  0  0  0  0  0  0  0  0  0  0  0
    1.6509    5.0591   -4.8509 H   0  0  0  0  0  0  0  0  0  0  0  0
    2.3680    4.3030   -2.8620 H   0  0  0  0  0  0  0  0  0  0  0  0
  1  2  1  0
  2  3  1  0
  3  4  1  0
  4  5  1  0
  5  6  1  0
  6  7  1  0
  7  8  1  0
  7  9  1  0
  9 10  1  0
  9  3  1  0
  1 11  1  0
  2 12  1  0
  2 13  1  0
  3 14  1  6
  4 15  1  0
  4 16  1  0
  5 17  1  0
  5 18  1  0
  6 19  1  0
  6 20  1  0
  7 21  1  6
  8 22  1  0
  9 23  1  1
 10 24  1  0
M  CHG  2   4   1   5   1
M  END
>  <meeko>  (4) 
{"is_sidechain": [false], "free_energy": -4.815, "intermolecular_energy": -5.572, "internal_energy": -0.19}

$$$$
2j7h_ligand
     RDKit          3D

 24 24  0  0  0  0  0  0  0  0999 V2000
    2.6070    1.5600   -6.4160 O   0  0  0  0  0  0  0  0  0  0  0  0
    3.4600    2.2500   -5.4900 C   0  0  0  0  0  0  0  0  0  0  0  0
    2.8700    3.6560   -5.3600 C   0  0  1  0  0  0  0  0  0  0  0  0
    3.0730    4.0670   -3.9090 N   0  0  0  0  0  0  0  0  0  0  0  0
    2.3810    5.4760   -3.6410 N   0  0  0  0  0  0  0  0  0  0  0  0
    2.9970    6.5090   -4.5490 C   0  0  0  0  0  0  0  0  0  0  0  0
    2.8760    6.0940   -6.0230 C   0  0  1  0  0  0  0  0  0  0  0  0
    3.5850    7.0520   -6.8010 O   0  0  0  0  0  0  0  0  0  0  0  0
    3.4800    4.7030   -6.2920 C   0  0  2  0  0  0  0  0  0  0  0  0
    3.1980    4.3260   -7.6350 O   0  0  0  0  0  0  0  0  0  0  0  0
    3.1860    0.9590   -6.9410 H   0  0  0  0  0  0  0  0  0  0  0  0
    3.4597    1.7413   -4.5147 H   0  0  0  0  0  0  0  0  0  0  0  0
    4.5033    2.2759   -5.8377 H   0  0  0  0  0  0  0  0  0  0  0  0
    1.8121    3.6143   -5.6584 H   0  0  0  0  0  0  0  0  0  0  0  0
    4.0840    4.0370   -3.6620 H   0  0  0  0  0  0  0  0  0  0  0  0
    2.6730    3.2700   -3.3520 H   0  0  0  0  0  0  0  0  0  0  0  0
    1.3470    5.4420   -3.7750 H   0  0  0  0  0  0  0  0  0  0  0  0
    2.5080    5.7810   -2.6520 H   0  0  0  0  0  0  0  0  0  0  0  0
    2.4806    7.4692   -4.4028 H   0  0  0  0  0  0  0  0  0  0  0  0
    4.0642    6.6013   -4.2990 H   0  0  0  0  0  0  0  0  0  0  0  0
    1.8087    6.0498   -6.2855 H   0  0  0  0  0  0  0  0  0  0  0  0
    3.7370    7.8630   -6.2740 H   0  0  0  0  0  0  0  0  0  0  0  0
    4.5648    4.7541   -6.1173 H   0  0  0  0  0  0  0  0  0  0  0  0
    2.3250    3.8790   -7.6730 H   0  0  0  0  0  0  0  0  0  0  0  0
  1  2  1  0
  2  3  1  0
  3  4  1  0
  4  5  1  0
  5  6  1  0
  6  7  1  0
  7  8  1  0
  7  9  1  0
  9 10  1  0
  9  3  1  0
  1 11  1  0
  2 12  1  0
  2 13  1  0
  3 14  1  6
  4 15  1  0
  4 16  1  0
  5 17  1  0
  5 18  1  0
  6 19  1  0
  6 20  1  0
  7 21  1  6
  8 22  1  0
  9 23  1  6
 10 24  1  0
M  CHG  2   4   1   5   1
M  END
>  <meeko>  (5) 
{"is_sidechain": [false], "free_energy": -4.755, "intermolecular_energy": -5.474, "internal_energy": -0.22}

$$$$
2j7h_ligand
     RDKit          3D

 24 24  0  0  0  0  0  0  0  0999 V2000
    3.4890    4.8110   -8.9300 O   0  0  0  0  0  0  0  0  0  0  0  0
    2.7010    5.4240   -7.8980 C   0  0  0  0  0  0  0  0  0  0  0  0
    3.4010    5.0710   -6.5840 C   0  0  1  0  0  0  0  0  0  0  0  0
    3.4290    6.3510   -5.7630 N   0  0  0  0  0  0  0  0  0  0  0  0
    4.2490    6.1170   -4.4170 N   0  0  0  0  0  0  0  0  0  0  0  0
    3.5880    5.0220   -3.6210 C   0  0  0  0  0  0  0  0  0  0  0  0
    3.4750    3.7290   -4.4430 C   0  0  1  0  0  0  0  0  0  0  0  0
    2.7340    2.7900   -3.6730 O   0  0  0  0  0  0  0  0  0  0  0  0
    2.7430    3.9480   -5.7810 C   0  0  2  0  0  0  0  0  0  0  0  0
    2.8090    2.7510   -6.5480 O   0  0  0  0  0  0  0  0  0  0  0  0
    4.3670    5.2580   -8.9190 H   0  0  0  0  0  0  0  0  0  0  0  0
    2.6693    6.5149   -8.0355 H   0  0  0  0  0  0  0  0  0  0  0  0
    1.6602    5.0682   -7.9140 H   0  0  0  0  0  0  0  0  0  0  0  0
    4.4021    4.6818   -6.8213 H   0  0  0  0  0  0  0  0  0  0  0  0
    2.4630    6.7090   -5.6140 H   0  0  0  0  0  0  0  0  0  0  0  0
    3.8460    7.0690   -6.4090 H   0  0  0  0  0  0  0  0  0  0  0  0
    5.2500    5.8830   -4.5980 H   0  0  0  0  0  0  0  0  0  0  0  0
    4.2830    6.9820   -3.8350 H   0  0  0  0  0  0  0  0  0  0  0  0
    4.1857    4.8229   -2.7193 H   0  0  0  0  0  0  0  0  0  0  0  0
    2.5745    5.3519   -3.3492 H   0  0  0  0  0  0  0  0  0  0  0  0
    4.4902    3.3727   -4.6719 H   0  0  0  0  0  0  0  0  0  0  0  0
    2.9810    1.8780   -3.9310 H   0  0  0  0  0  0  0  0  0  0  0  0
    1.6992    4.2210   -5.5665 H   0  0  0  0  0  0  0  0  0  0  0  0
    1.9010    2.4390   -6.7470 H   0  0  0  0  0  0  0  0  0  0  0  0
  1  2  1  0
  2  3  1  0
  3  4  1  0
  4  5  1  0
  5  6  1  0
  6  7  1  0
  7  8  1  0
  7  9  1  0
  9 10  1  0
  9  3  1  0
  1 11  1  0
  2 12  1  0
  2 13  1  0
  3 14  1  6
  4 15  1  0
  4 16  1  0
  5 17  1  0
  5 18  1  0
  6 19  1  0
  6 20  1  0
  7 21  1  6
  8 22  1  0
  9 23  1  1
 10 24  1  0
M  CHG  2   4   1   5   1
M  END
>  <meeko>  (6) 
{"is_sidechain": [false], "free_energy": -4.697, "intermolecular_energy": -5.46, "internal_energy": -0.167}

$$$$
2j7h_ligand
     RDKit          3D

 24 24  0  0  0  0  0  0  0  0999 V2000
    7.9080   11.5810   -0.4010 O   0  0  0  0  0  0  0  0  0  0  0  0
    7.1870   11.5630   -1.6420 C   0  0  0  0  0  0  0  0  0  0  0  0
    7.3250   10.1330   -2.1740 C   0  0  1  0  0  0  0  0  0  0  0  0
    8.2200   10.2230   -3.4010 N   0  0  0  0  0  0  0  0  0  0  0  0
    8.3280    8.7970   -4.1010 N   0  0  0  0  0  0  0  0  0  0  0  0
    8.9120    7.8100   -3.1230 C   0  0  0  0  0  0  0  0  0  0  0  0
    8.0750    7.7440   -1.8360 C   0  0  1  0  0  0  0  0  0  0  0  0
    8.7560    6.8920   -0.9220 O   0  0  0  0  0  0  0  0  0  0  0  0
    7.9010    9.1260   -1.1780 C   0  0  2  0  0  0  0  0  0  0  0  0
    6.9980    9.0090   -0.0850 O   0  0  0  0  0  0  0  0  0  0  0  0
    7.9710   10.6460   -0.0960 H   0  0  0  0  0  0  0  0  0  0  0  0
    6.1283   11.8108   -1.4753 H   0  0  0  0  0  0  0  0  0  0  0  0
    7.5808   12.3033   -2.3539 H   0  0  0  0  0  0  0  0  0  0  0  0
    6.3183    9.7487   -2.3951 H   0  0  0  0  0  0  0  0  0  0  0  0
    9.1380   10.6440   -3.1510 H   0  0  0  0  0  0  0  0  0  0  0  0
    7.7760   10.9690   -3.9950 H   0  0  0  0  0  0  0  0  0  0  0  0
    7.4070    8.4580   -4.4550 H   0  0  0  0  0  0  0  0  0  0  0  0
    8.9370    8.8320   -4.9470 H   0  0  0  0  0  0  0  0  0  0  0  0
    8.9342    6.8136   -3.5884 H   0  0  0  0  0  0  0  0  0  0  0  0
    9.9290    8.1378   -2.8616 H   0  0  0  0  0  0  0  0  0  0  0  0
    7.0731    7.3683   -2.0912 H   0  0  0  0  0  0  0  0  0  0  0  0
    8.1860    6.1280   -0.6920 H   0  0  0  0  0  0  0  0  0  0  0  0
    8.8862    9.4777   -0.8379 H   0  0  0  0  0  0  0  0  0  0  0  0
    6.5410    8.1420   -0.1300 H   0  0  0  0  0  0  0  0  0  0  0  0
  1  2  1  0
  2  3  1  0
  3  4  1  0
  4  5  1  0
  5  6  1  0
  6  7  1  0
  7  8  1  0
  7  9  1  0
  9 10  1  0
  9  3  1  0
  1 11  1  0
  2 12  1  0
  2 13  1  0
  3 14  1  6
  4 15  1  0
  4 16  1  0
  5 17  1  0
  5 18  1  0
  6 19  1  0
  6 20  1  0
  7 21  1  6
  8 22  1  0
  9 23  1  1
 10 24  1  0
M  CHG  2   4   1   5   1
M  END
>  <meeko>  (7) 
{"is_sidechain": [false], "free_energy": -4.665, "intermolecular_energy": -5.373, "internal_energy": -0.218}

$$$$
2j7h_ligand
     RDKit          3D

 24 24  0  0  0  0  0  0  0  0999 V2000
    3.1860    7.3950   -7.1430 O   0  0  0  0  0  0  0  0  0  0  0  0
    2.4230    6.9860   -5.9980 C   0  0  0  0  0  0  0  0  0  0  0  0
    3.0300    5.6520   -5.5570 C   0  0  1  0  0  0  0  0  0  0  0  0
    2.6000    5.4490   -4.1110 N   0  0  0  0  0  0  0  0  0  0  0  0
    3.2850    4.1390   -3.5190 N   0  0  0  0  0  0  0  0  0  0  0  0
    2.8630    2.9480   -4.3420 C   0  0  0  0  0  0  0  0  0  0  0  0
    3.2140    3.1460   -5.8240 C   0  0  1  0  0  0  0  0  0  0  0  0
    2.6770    2.0440   -6.5460 O   0  0  0  0  0  0  0  0  0  0  0  0
    2.6180    4.4440   -6.4000 C   0  0  2  0  0  0  0  0  0  0  0  0
    3.1070    4.6340   -7.7230 O   0  0  0  0  0  0  0  0  0  0  0  0
    3.5530    6.5750   -7.5460 H   0  0  0  0  0  0  0  0  0  0  0  0
    2.5075    7.7314   -5.1935 H   0  0  0  0  0  0  0  0  0  0  0  0
    1.3530    6.8891   -6.2342 H   0  0  0  0  0  0  0  0  0  0  0  0
    4.1210    5.7113   -5.6843 H   0  0  0  0  0  0  0  0  0  0  0  0
    1.5620    5.4580   -4.0360 H   0  0  0  0  0  0  0  0  0  0  0  0
    2.8760    6.3420   -3.6280 H   0  0  0  0  0  0  0  0  0  0  0  0
    4.3250    4.2120   -3.4910 H   0  0  0  0  0  0  0  0  0  0  0  0
    3.0050    3.9770   -2.5280 H   0  0  0  0  0  0  0  0  0  0  0  0
    3.3792    2.0517   -3.9674 H   0  0  0  0  0  0  0  0  0  0  0  0
    1.7727    2.8321   -4.2543 H   0  0  0  0  0  0  0  0  0  0  0  0
    4.3081    3.2129   -5.9160 H   0  0  0  0  0  0  0  0  0  0  0  0
    2.1170    2.3680   -7.2820 H   0  0  0  0  0  0  0  0  0  0  0  0
    1.5216    4.3558   -6.3951 H   0  0  0  0  0  0  0  0  0  0  0  0
    3.3500    5.5750   -7.8500 H   0  0  0  0  0  0  0  0  0  0  0  0
  1  2  1  0
  2  3  1  0
  3  4  1  0
  4  5  1  0
  5  6  1  0
  6  7  1  0
  7  8  1  0
  7  9  1  0
  9 10  1  0
  9  3  1  0
  1 11  1  0
  2 12  1  0
  2 13  1  0
  3 14  1  1
  4 15  1  0
  4 16  1  0
  5 17  1  0
  5 18  1  0
  6 19  1  0
  6 20  1  0
  7 21  1  1
  8 22  1  0
  9 23  1  6
 10 24  1  0
M  CHG  2   4   1   5   1
M  END
>  <meeko>  (8) 
{"is_sidechain": [false], "free_energy": -4.555, "intermolecular_energy": -5.236, "internal_energy": -0.228}

$$$$
2j7h_ligand
     RDKit          3D

 24 24  0  0  0  0  0  0  0  0999 V2000
    6.9450   11.8800   -0.2300 O   0  0  0  0  0  0  0  0  0  0  0  0
    6.5550   10.4980   -0.2520 C   0  0  0  0  0  0  0  0  0  0  0  0
    7.6640    9.7720   -1.0190 C   0  0  1  0  0  0  0  0  0  0  0  0
    7.5810    8.3120   -0.6000 N   0  0  0  0  0  0  0  0  0  0  0  0
    8.7770    7.4890   -1.2550 N   0  0  0  0  0  0  0  0  0  0  0  0
    8.6810    7.5900   -2.7560 C   0  0  0  0  0  0  0  0  0  0  0  0
    8.6890    9.0560   -3.2150 C   0  0  1  0  0  0  0  0  0  0  0  0
    8.4710    9.0700   -4.6210 O   0  0  0  0  0  0  0  0  0  0  0  0
    7.5800    9.8870   -2.5410 C   0  0  2  0  0  0  0  0  0  0  0  0
    7.7430   11.2550   -2.8970 O   0  0  0  0  0  0  0  0  0  0  0  0
    6.3960   12.3400   -0.9070 H   0  0  0  0  0  0  0  0  0  0  0  0
    6.4751   10.1048    0.7722 H   0  0  0  0  0  0  0  0  0  0  0  0
    5.5723   10.3588   -0.7263 H   0  0  0  0  0  0  0  0  0  0  0  0
    8.6245   10.2449   -0.7663 H   0  0  0  0  0  0  0  0  0  0  0  0
    6.6360    7.9270   -0.8100 H   0  0  0  0  0  0  0  0  0  0  0  0
    7.5930    8.3390    0.4510 H   0  0  0  0  0  0  0  0  0  0  0  0
    9.7110    7.8180   -0.9270 H   0  0  0  0  0  0  0  0  0  0  0  0
    8.7420    6.4830   -0.9840 H   0  0  0  0  0  0  0  0  0  0  0  0
    9.5382    7.0682   -3.2064 H   0  0  0  0  0  0  0  0  0  0  0  0
    7.7349    7.1294   -3.0766 H   0  0  0  0  0  0  0  0  0  0  0  0
    9.6555    9.5020   -2.9376 H   0  0  0  0  0  0  0  0  0  0  0  0
    8.1890    9.9640   -4.9060 H   0  0  0  0  0  0  0  0  0  0  0  0
    6.6048    9.5065   -2.8789 H   0  0  0  0  0  0  0  0  0  0  0  0
    7.9260   11.7830   -2.0910 H   0  0  0  0  0  0  0  0  0  0  0  0
  1  2  1  0
  2  3  1  0
  3  4  1  0
  4  5  1  0
  5  6  1  0
  6  7  1  0
  7  8  1  0
  7  9  1  0
  9 10  1  0
  9  3  1  0
  1 11  1  0
  2 12  1  0
  2 13  1  0
  3 14  1  1
  4 15  1  0
  4 16  1  0
  5 17  1  0
  5 18  1  0
  6 19  1  0
  6 20  1  0
  7 21  1  6
  8 22  1  0
  9 23  1  6
 10 24  1  0
M  CHG  2   4   1   5   1
M  END
>  <meeko>  (9) 
{"is_sidechain": [false], "free_energy": -4.506, "intermolecular_energy": -5.177, "internal_energy": -0.232}

$$$$
