
     RDKit          3D

 28 31  0  0  0  0  0  0  0  0999 V2000
   -9.6080    2.2590   -2.6310 C   0  0  0  0  0  0  0  0  0  0  0  0
   -8.3670    2.9270   -2.7250 N   0  0  0  0  0  0  0  0  0  0  0  0
   -8.2430    4.2280   -2.3350 C   0  0  0  0  0  0  0  0  0  0  0  0
   -9.1470    4.8720   -1.8930 O   0  0  0  0  0  0  0  0  0  0  0  0
   -6.9040    4.8030   -2.5310 C   0  0  0  0  0  0  0  0  0  0  0  0
   -6.1570    4.3830   -3.6280 C   0  0  0  0  0  0  0  0  0  0  0  0
   -4.9220    4.8760   -3.8660 C   0  0  0  0  0  0  0  0  0  0  0  0
   -4.3760    5.8040   -3.0040 C   0  0  0  0  0  0  0  0  0  0  0  0
   -5.0970    6.2370   -1.9040 C   0  0  0  0  0  0  0  0  0  0  0  0
   -6.3590    5.7690   -1.6570 C   0  0  0  0  0  0  0  0  0  0  0  0
   -7.2680    6.3770   -0.2670 S   0  0  0  0  0  0  0  0  0  0  0  0
   -6.4340    7.8670    0.2130 C   0  0  0  0  0  0  0  0  0  0  0  0
   -6.1480    8.8460   -0.7050 C   0  0  0  0  0  0  0  0  0  0  0  0
   -5.4870    9.9780   -0.3640 C   0  0  0  0  0  0  0  0  0  0  0  0
   -5.0920   10.1720    0.9650 C   0  0  0  0  0  0  0  0  0  0  0  0
   -4.4090   11.1640    1.6660 C   0  0  0  0  0  0  0  0  0  0  0  0
   -3.8170   12.4220    1.2000 C   0  0  0  0  0  0  0  0  0  0  0  0
   -3.7400   12.7990   -0.1190 C   0  0  0  0  0  0  0  0  0  0  0  0
   -3.0870   14.0080   -0.5730 C   0  0  0  0  0  0  0  0  0  0  0  0
   -2.3090   14.8110    0.2650 C   0  0  0  0  0  0  0  0  0  0  0  0
   -1.7200   15.9610   -0.2560 C   0  0  0  0  0  0  0  0  0  0  0  0
   -1.9010   16.2900   -1.5870 C   0  0  0  0  0  0  0  0  0  0  0  0
   -2.6700   15.4410   -2.3770 C   0  0  0  0  0  0  0  0  0  0  0  0
   -3.2440   14.3380   -1.8850 N   0  0  0  0  0  0  0  0  0  0  0  0
   -4.3390   10.7960    2.9400 N   0  0  0  0  0  0  0  0  0  0  0  0
   -4.9410    9.6360    3.1150 N   0  0  0  0  0  0  0  0  0  0  0  0
   -5.4020    9.2140    1.9160 C   0  0  0  0  0  0  0  0  0  0  0  0
   -6.0730    8.0510    1.5530 C   0  0  0  0  0  0  0  0  0  0  0  0
  2  1  1  0
  3  2  1  0
  4  3  2  0
  5  3  1  0
  6  5  2  0
  7  6  1  0
  8  7  2  0
  9  8  1  0
 10  5  1  0
 10  9  2  0
 11 10  1  0
 12 11  1  0
 13 12  2  0
 14 13  1  0
 15 14  2  0
 16 15  1  0
 17 16  1  0
 18 17  2  3
 19 18  1  0
 20 19  2  0
 21 20  1  0
 22 21  2  0
 23 22  1  0
 24 23  2  0
 24 19  1  0
 25 16  2  0
 26 25  1  0
 27 26  1  0
 27 15  1  0
 28 12  1  0
 28 27  2  0
M  END
$$$$
