4f09_ligand
     RDKit          3D

 37 40  0  0  0  0  0  0  0  0999 V2000
    1.6360    0.2430    9.6580 C   0  0  0  0  0  0  0  0  0  0  0  0
    1.0730    1.3650    8.8620 C   0  0  0  0  0  0  0  0  0  0  0  0
    0.1170    1.1940    7.9670 N   0  0  0  0  0  0  0  0  0  0  0  0
   -0.0730    2.4110    7.3760 C   0  0  0  0  0  0  0  0  0  0  0  0
   -0.9330    2.8270    6.3440 C   0  0  0  0  0  0  0  0  0  0  0  0
   -0.9450    4.1070    5.8660 N   0  0  0  0  0  0  0  0  0  0  0  0
   -0.0570    4.9360    6.4380 C   0  0  0  0  0  0  0  0  0  0  0  0
    0.1640    6.2470    6.1260 N   0  0  0  0  0  0  0  0  0  0  0  0
    1.1870    6.7390    6.9130 C   0  0  0  0  0  0  0  0  0  0  0  0
    1.6260    5.7280    7.7540 C   0  0  0  0  0  0  0  0  0  0  0  0
    0.8140    4.6070    7.4540 C   0  0  0  0  0  0  0  0  0  0  0  0
    0.7870    3.3340    7.9430 C   0  0  0  0  0  0  0  0  0  0  0  0
    1.4520    2.7030    8.9390 N   0  0  0  0  0  0  0  0  0  0  0  0
    2.3430    3.2970    9.9260 C   0  0  0  0  0  0  0  0  0  0  0  0
    3.8260    3.0750    9.5850 C   0  0  0  0  0  0  0  0  0  0  0  0
    4.7190    3.0450   10.8180 C   0  0  0  0  0  0  0  0  0  0  0  0
    4.2370    4.0470   11.8100 N   0  0  0  0  0  0  0  0  0  0  0  0
    2.8520    3.8200   12.3390 C   0  0  0  0  0  0  0  0  0  0  0  0
    2.0300    2.9550   11.3880 C   0  0  0  0  0  0  0  0  0  0  0  0
    1.5258    0.4626   10.7302 H   0  0  0  0  0  0  0  0  0  0  0  0
    1.0967   -0.6848    9.4164 H   0  0  0  0  0  0  0  0  0  0  0  0
    2.7022    0.1208    9.4164 H   0  0  0  0  0  0  0  0  0  0  0  0
   -1.6236    2.0926    5.9040 H   0  0  0  0  0  0  0  0  0  0  0  0
   -0.3410    6.7480    5.4090 H   0  0  0  0  0  0  0  0  0  0  0  0
    1.5870    7.7631    6.8782 H   0  0  0  0  0  0  0  0  0  0  0  0
    2.4346    5.7846    8.4976 H   0  0  0  0  0  0  0  0  0  0  0  0
    2.1366    4.3749    9.8513 H   0  0  0  0  0  0  0  0  0  0  0  0
    3.9249    2.1154    9.0565 H   0  0  0  0  0  0  0  0  0  0  0  0
    4.1518    3.9208    8.9617 H   0  0  0  0  0  0  0  0  0  0  0  0
    4.6887    2.0414   11.2674 H   0  0  0  0  0  0  0  0  0  0  0  0
    5.7516    3.2876   10.5266 H   0  0  0  0  0  0  0  0  0  0  0  0
    4.8910    4.0660   12.6080 H   0  0  0  0  0  0  0  0  0  0  0  0
    4.3050    4.9920   11.4040 H   0  0  0  0  0  0  0  0  0  0  0  0
    2.9192    3.3159   13.3144 H   0  0  0  0  0  0  0  0  0  0  0  0
    2.3542    4.7958   12.4387 H   0  0  0  0  0  0  0  0  0  0  0  0
    2.2672    1.8962   11.5686 H   0  0  0  0  0  0  0  0  0  0  0  0
    0.9628    3.1473   11.5726 H   0  0  0  0  0  0  0  0  0  0  0  0
  1  2  1  0
  2  3  2  0
  3  4  1  0
  4  5  2  0
  5  6  1  0
  6  7  2  0
  7  8  1  0
  8  9  1  0
  9 10  2  0
 10 11  1  0
 11 12  2  0
 12 13  1  0
 13 14  1  0
 14 15  1  0
 15 16  1  0
 16 17  1  0
 17 18  1  0
 18 19  1  0
 13  2  1  0
 19 14  1  0
 12  4  1  0
 11  7  1  0
  1 20  1  0
  1 21  1  0
  1 22  1  0
  5 23  1  0
  8 24  1  0
  9 25  1  0
 10 26  1  0
 14 27  1  0
 15 28  1  0
 15 29  1  0
 16 30  1  0
 16 31  1  0
 17 32  1  0
 17 33  1  0
 18 34  1  0
 18 35  1  0
 19 36  1  0
 19 37  1  0
M  CHG  1  17   1
M  END
>  <meeko>  (1) 
{"is_sidechain": [false], "free_energy": -7.255, "intermolecular_energy": -7.679, "internal_energy": -0.237}

$$$$
4f09_ligand
     RDKit          3D

 37 40  0  0  0  0  0  0  0  0999 V2000
   -2.7380    1.7530    8.6490 C   0  0  0  0  0  0  0  0  0  0  0  0
   -1.2630    1.6060    8.7610 C   0  0  0  0  0  0  0  0  0  0  0  0
   -0.6800    0.4500    9.0230 N   0  0  0  0  0  0  0  0  0  0  0  0
    0.6540    0.7160    9.1460 C   0  0  0  0  0  0  0  0  0  0  0  0
    1.7500   -0.1140    9.4460 C   0  0  0  0  0  0  0  0  0  0  0  0
    3.0260    0.3640    9.5560 N   0  0  0  0  0  0  0  0  0  0  0  0
    3.1540    1.6890    9.3820 C   0  0  0  0  0  0  0  0  0  0  0  0
    4.3020    2.4230    9.4730 N   0  0  0  0  0  0  0  0  0  0  0  0
    4.0100    3.7570    9.2670 C   0  0  0  0  0  0  0  0  0  0  0  0
    2.6500    3.8820    9.0270 C   0  0  0  0  0  0  0  0  0  0  0  0
    2.1340    2.5650    9.0830 C   0  0  0  0  0  0  0  0  0  0  0  0
    0.8720    2.0650    8.9400 C   0  0  0  0  0  0  0  0  0  0  0  0
   -0.3180    2.6190    8.6130 N   0  0  0  0  0  0  0  0  0  0  0  0
   -0.5680    3.9770    8.1510 C   0  0  0  0  0  0  0  0  0  0  0  0
   -1.5880    4.7180    9.0310 C   0  0  0  0  0  0  0  0  0  0  0  0
   -2.3630    5.7850    8.2710 C   0  0  0  0  0  0  0  0  0  0  0  0
   -1.4600    6.4620    7.2980 N   0  0  0  0  0  0  0  0  0  0  0  0
   -0.8790    5.5820    6.2320 C   0  0  0  0  0  0  0  0  0  0  0  0
   -0.8870    4.1170    6.6560 C   0  0  0  0  0  0  0  0  0  0  0  0
   -3.1796    1.7970    9.6555 H   0  0  0  0  0  0  0  0  0  0  0  0
   -2.9739    2.6791    8.1043 H   0  0  0  0  0  0  0  0  0  0  0  0
   -3.1520    0.8917    8.1043 H   0  0  0  0  0  0  0  0  0  0  0  0
    1.5732   -1.1890    9.5979 H   0  0  0  0  0  0  0  0  0  0  0  0
    5.2080    2.0280    9.6850 H   0  0  0  0  0  0  0  0  0  0  0  0
    4.7358    4.5832    9.2896 H   0  0  0  0  0  0  0  0  0  0  0  0
    2.0902    4.8090    8.8338 H   0  0  0  0  0  0  0  0  0  0  0  0
    0.4048    4.4769    8.2682 H   0  0  0  0  0  0  0  0  0  0  0  0
   -2.3027    3.9847    9.4329 H   0  0  0  0  0  0  0  0  0  0  0  0
   -1.0272    5.2245    9.8304 H   0  0  0  0  0  0  0  0  0  0  0  0
   -3.1977    5.3154    7.7300 H   0  0  0  0  0  0  0  0  0  0  0  0
   -2.7555    6.5270    8.9820 H   0  0  0  0  0  0  0  0  0  0  0  0
   -1.9780    7.2290    6.8410 H   0  0  0  0  0  0  0  0  0  0  0  0
   -0.7010    6.9390    7.8080 H   0  0  0  0  0  0  0  0  0  0  0  0
   -1.4737    5.6921    5.3132 H   0  0  0  0  0  0  0  0  0  0  0  0
    0.1637    5.8876    6.0603 H   0  0  0  0  0  0  0  0  0  0  0  0
   -1.8815    3.6905    6.4586 H   0  0  0  0  0  0  0  0  0  0  0  0
   -0.1176    3.5808    6.0810 H   0  0  0  0  0  0  0  0  0  0  0  0
  1  2  1  0
  2  3  2  0
  3  4  1  0
  4  5  2  0
  5  6  1  0
  6  7  2  0
  7  8  1  0
  8  9  1  0
  9 10  2  0
 10 11  1  0
 11 12  2  0
 12 13  1  0
 13 14  1  0
 14 15  1  0
 15 16  1  0
 16 17  1  0
 17 18  1  0
 18 19  1  0
 13  2  1  0
 19 14  1  0
 12  4  1  0
 11  7  1  0
  1 20  1  0
  1 21  1  0
  1 22  1  0
  5 23  1  0
  8 24  1  0
  9 25  1  0
 10 26  1  0
 14 27  1  0
 15 28  1  0
 15 29  1  0
 16 30  1  0
 16 31  1  0
 17 32  1  0
 17 33  1  0
 18 34  1  0
 18 35  1  0
 19 36  1  0
 19 37  1  0
M  CHG  1  17   1
M  END
>  <meeko>  (2) 
{"is_sidechain": [false], "free_energy": -6.371, "intermolecular_energy": -6.757, "internal_energy": -0.224}

$$$$
4f09_ligand
     RDKit          3D

 37 40  0  0  0  0  0  0  0  0999 V2000
    8.1320   -1.5890    6.0070 C   0  0  0  0  0  0  0  0  0  0  0  0
    7.8020   -0.2490    6.5580 C   0  0  0  0  0  0  0  0  0  0  0  0
    8.0290    0.8700    5.8950 N   0  0  0  0  0  0  0  0  0  0  0  0
    7.6940    1.8890    6.7420 C   0  0  0  0  0  0  0  0  0  0  0  0
    7.7530    3.2860    6.5940 C   0  0  0  0  0  0  0  0  0  0  0  0
    7.3950    4.1480    7.5930 N   0  0  0  0  0  0  0  0  0  0  0  0
    7.0070    3.5620    8.7370 C   0  0  0  0  0  0  0  0  0  0  0  0
    6.6350    4.1840    9.8950 N   0  0  0  0  0  0  0  0  0  0  0  0
    6.3450    3.2320   10.8530 C   0  0  0  0  0  0  0  0  0  0  0  0
    6.5230    1.9740   10.2990 C   0  0  0  0  0  0  0  0  0  0  0  0
    6.9190    2.2040    8.9590 C   0  0  0  0  0  0  0  0  0  0  0  0
    7.2450    1.3600    7.9380 C   0  0  0  0  0  0  0  0  0  0  0  0
    7.2280    0.0130    7.8010 N   0  0  0  0  0  0  0  0  0  0  0  0
    6.6820   -0.9660    8.7290 C   0  0  0  0  0  0  0  0  0  0  0  0
    7.7780   -1.7040    9.5150 C   0  0  0  0  0  0  0  0  0  0  0  0
    7.3610   -3.1060    9.9380 C   0  0  0  0  0  0  0  0  0  0  0  0
    5.9210   -3.1070   10.3220 N   0  0  0  0  0  0  0  0  0  0  0  0
    4.9600   -2.7370    9.2330 C   0  0  0  0  0  0  0  0  0  0  0  0
    5.6480   -1.9330    8.1340 C   0  0  0  0  0  0  0  0  0  0  0  0
    8.3054   -2.2930    6.8342 H   0  0  0  0  0  0  0  0  0  0  0  0
    7.2954   -1.9477    5.3895 H   0  0  0  0  0  0  0  0  0  0  0  0
    9.0395   -1.5182    5.3895 H   0  0  0  0  0  0  0  0  0  0  0  0
    8.1009    3.7017    5.6368 H   0  0  0  0  0  0  0  0  0  0  0  0
    6.6090    5.1870   10.0120 H   0  0  0  0  0  0  0  0  0  0  0  0
    6.0255    3.4382   11.8852 H   0  0  0  0  0  0  0  0  0  0  0  0
    6.3856    1.0021   10.7955 H   0  0  0  0  0  0  0  0  0  0  0  0
    6.1059   -0.3590    9.4429 H   0  0  0  0  0  0  0  0  0  0  0  0
    8.6737   -1.7804    8.8810 H   0  0  0  0  0  0  0  0  0  0  0  0
    7.9731   -1.1269   10.4309 H   0  0  0  0  0  0  0  0  0  0  0  0
    7.5167   -3.8021    9.1006 H   0  0  0  0  0  0  0  0  0  0  0  0
    7.9680   -3.4225   10.7990 H   0  0  0  0  0  0  0  0  0  0  0  0
    5.6710   -4.0440   10.6740 H   0  0  0  0  0  0  0  0  0  0  0  0
    5.7830   -2.4860   11.1350 H   0  0  0  0  0  0  0  0  0  0  0  0
    4.5426   -3.6563    8.7962 H   0  0  0  0  0  0  0  0  0  0  0  0
    4.1637   -2.1163    9.6697 H   0  0  0  0  0  0  0  0  0  0  0  0
    6.1558   -2.6247    7.4458 H   0  0  0  0  0  0  0  0  0  0  0  0
    4.8868   -1.3476    7.5975 H   0  0  0  0  0  0  0  0  0  0  0  0
  1  2  1  0
  2  3  2  0
  3  4  1  0
  4  5  2  0
  5  6  1  0
  6  7  2  0
  7  8  1  0
  8  9  1  0
  9 10  2  0
 10 11  1  0
 11 12  2  0
 12 13  1  0
 13 14  1  0
 14 15  1  0
 15 16  1  0
 16 17  1  0
 17 18  1  0
 18 19  1  0
 13  2  1  0
 19 14  1  0
 12  4  1  0
 11  7  1  0
  1 20  1  0
  1 21  1  0
  1 22  1  0
  5 23  1  0
  8 24  1  0
  9 25  1  0
 10 26  1  0
 14 27  1  0
 15 28  1  0
 15 29  1  0
 16 30  1  0
 16 31  1  0
 17 32  1  0
 17 33  1  0
 18 34  1  0
 18 35  1  0
 19 36  1  0
 19 37  1  0
M  CHG  1  17   1
M  END
>  <meeko>  (3) 
{"is_sidechain": [false], "free_energy": -6.363, "intermolecular_energy": -6.713, "internal_energy": -0.259}

$$$$
4f09_ligand
     RDKit          3D

 37 40  0  0  0  0  0  0  0  0999 V2000
    1.5070   -0.5590   10.2570 C   0  0  0  0  0  0  0  0  0  0  0  0
    1.0120    0.6540    9.5540 C   0  0  0  0  0  0  0  0  0  0  0  0
   -0.1200    0.6700    8.8730 N   0  0  0  0  0  0  0  0  0  0  0  0
   -0.1960    1.9050    8.2920 C   0  0  0  0  0  0  0  0  0  0  0  0
   -1.1550    2.4800    7.4390 C   0  0  0  0  0  0  0  0  0  0  0  0
   -1.0260    3.7430    6.9320 N   0  0  0  0  0  0  0  0  0  0  0  0
    0.0960    4.3860    7.2880 C   0  0  0  0  0  0  0  0  0  0  0  0
    0.4890    5.6350    6.8970 N   0  0  0  0  0  0  0  0  0  0  0  0
    1.7220    5.9220    7.4480 C   0  0  0  0  0  0  0  0  0  0  0  0
    2.1270    4.8420    8.2170 C   0  0  0  0  0  0  0  0  0  0  0  0
    1.0780    3.8940    8.1200 C   0  0  0  0  0  0  0  0  0  0  0  0
    0.9160    2.6460    8.6470 C   0  0  0  0  0  0  0  0  0  0  0  0
    1.6400    1.8970    9.5100 N   0  0  0  0  0  0  0  0  0  0  0  0
    2.8060    2.3080   10.2800 C   0  0  0  0  0  0  0  0  0  0  0  0
    2.4680    3.3800   11.3280 C   0  0  0  0  0  0  0  0  0  0  0  0
    3.6470    4.2880   11.6480 C   0  0  0  0  0  0  0  0  0  0  0  0
    4.9070    3.4910   11.6520 N   0  0  0  0  0  0  0  0  0  0  0  0
    5.2680    2.8440   10.3490 C   0  0  0  0  0  0  0  0  0  0  0  0
    4.0440    2.6790    9.4530 C   0  0  0  0  0  0  0  0  0  0  0  0
    1.4438   -0.4041   11.3442 H   0  0  0  0  0  0  0  0  0  0  0  0
    0.8901   -1.4245    9.9734 H   0  0  0  0  0  0  0  0  0  0  0  0
    2.5533   -0.7458    9.9734 H   0  0  0  0  0  0  0  0  0  0  0  0
   -2.0436    1.8904    7.1692 H   0  0  0  0  0  0  0  0  0  0  0  0
   -0.0500    6.2260    6.2790 H   0  0  0  0  0  0  0  0  0  0  0  0
    2.2889    6.8531    7.3012 H   0  0  0  0  0  0  0  0  0  0  0  0
    3.0648    4.7419    8.7831 H   0  0  0  0  0  0  0  0  0  0  0  0
    3.1029    1.3946   10.8161 H   0  0  0  0  0  0  0  0  0  0  0  0
    1.6429    3.9981   10.9443 H   0  0  0  0  0  0  0  0  0  0  0  0
    2.1914    2.8586   12.2562 H   0  0  0  0  0  0  0  0  0  0  0  0
    3.7168    5.0789   10.8867 H   0  0  0  0  0  0  0  0  0  0  0  0
    3.4994    4.7419   12.6390 H   0  0  0  0  0  0  0  0  0  0  0  0
    5.6860    4.1040   11.9390 H   0  0  0  0  0  0  0  0  0  0  0  0
    4.8580    2.7780   12.3940 H   0  0  0  0  0  0  0  0  0  0  0  0
    6.0091    3.4706    9.8312 H   0  0  0  0  0  0  0  0  0  0  0  0
    5.6805    1.8463   10.5598 H   0  0  0  0  0  0  0  0  0  0  0  0
    3.8541    3.6251    8.9249 H   0  0  0  0  0  0  0  0  0  0  0  0
    4.2414    1.8704    8.7338 H   0  0  0  0  0  0  0  0  0  0  0  0
  1  2  1  0
  2  3  2  0
  3  4  1  0
  4  5  2  0
  5  6  1  0
  6  7  2  0
  7  8  1  0
  8  9  1  0
  9 10  2  0
 10 11  1  0
 11 12  2  0
 12 13  1  0
 13 14  1  0
 14 15  1  0
 15 16  1  0
 16 17  1  0
 17 18  1  0
 18 19  1  0
 13  2  1  0
 19 14  1  0
 12  4  1  0
 11  7  1  0
  1 20  1  0
  1 21  1  0
  1 22  1  0
  5 23  1  0
  8 24  1  0
  9 25  1  0
 10 26  1  0
 14 27  1  0
 15 28  1  0
 15 29  1  0
 16 30  1  0
 16 31  1  0
 17 32  1  0
 17 33  1  0
 18 34  1  0
 18 35  1  0
 19 36  1  0
 19 37  1  0
M  CHG  1  17   1
M  END
>  <meeko>  (4) 
{"is_sidechain": [false], "free_energy": -6.249, "intermolecular_energy": -6.871, "internal_energy": 0.02}

$$$$
4f09_ligand
     RDKit          3D

 37 40  0  0  0  0  0  0  0  0999 V2000
    2.4730    1.5530    9.8640 C   0  0  0  0  0  0  0  0  0  0  0  0
    1.7930    2.7050    9.2150 C   0  0  0  0  0  0  0  0  0  0  0  0
    2.4500    3.6300    8.5390 N   0  0  0  0  0  0  0  0  0  0  0  0
    1.5220    4.5670    8.1770 C   0  0  0  0  0  0  0  0  0  0  0  0
    1.6420    5.7790    7.4730 C   0  0  0  0  0  0  0  0  0  0  0  0
    0.5760    6.6020    7.2400 N   0  0  0  0  0  0  0  0  0  0  0  0
   -0.5910    6.1810    7.7540 C   0  0  0  0  0  0  0  0  0  0  0  0
   -1.7940    6.8250    7.6990 N   0  0  0  0  0  0  0  0  0  0  0  0
   -2.7410    6.0850    8.3800 C   0  0  0  0  0  0  0  0  0  0  0  0
   -2.1390    4.9390    8.8740 C   0  0  0  0  0  0  0  0  0  0  0  0
   -0.7890    5.0080    8.4500 C   0  0  0  0  0  0  0  0  0  0  0  0
    0.2790    4.1810    8.6410 C   0  0  0  0  0  0  0  0  0  0  0  0
    0.4250    2.9670    9.2220 N   0  0  0  0  0  0  0  0  0  0  0  0
   -0.6250    2.0850    9.7120 C   0  0  0  0  0  0  0  0  0  0  0  0
   -0.5030    1.8080   11.2190 C   0  0  0  0  0  0  0  0  0  0  0  0
   -1.0800    0.4590   11.6220 C   0  0  0  0  0  0  0  0  0  0  0  0
   -2.3070    0.1800   10.8240 N   0  0  0  0  0  0  0  0  0  0  0  0
   -2.1070    0.0800    9.3420 C   0  0  0  0  0  0  0  0  0  0  0  0
   -0.8340    0.7970    8.9030 C   0  0  0  0  0  0  0  0  0  0  0  0
    2.4106    1.6587   10.9571 H   0  0  0  0  0  0  0  0  0  0  0  0
    1.9823    0.6174    9.5575 H   0  0  0  0  0  0  0  0  0  0  0  0
    3.5292    1.5305    9.5575 H   0  0  0  0  0  0  0  0  0  0  0  0
    2.6317    6.0757    7.0956 H   0  0  0  0  0  0  0  0  0  0  0  0
   -1.9360    7.7160    7.2440 H   0  0  0  0  0  0  0  0  0  0  0  0
   -3.7982    6.3601    8.5088 H   0  0  0  0  0  0  0  0  0  0  0  0
   -2.6100    4.1433    9.4698 H   0  0  0  0  0  0  0  0  0  0  0  0
   -1.5486    2.6599    9.5493 H   0  0  0  0  0  0  0  0  0  0  0  0
    0.5616    1.8309   11.4950 H   0  0  0  0  0  0  0  0  0  0  0  0
   -1.0791    2.5837   11.7448 H   0  0  0  0  0  0  0  0  0  0  0  0
   -0.3349   -0.3283   11.4347 H   0  0  0  0  0  0  0  0  0  0  0  0
   -1.3368    0.4770   12.6915 H   0  0  0  0  0  0  0  0  0  0  0  0
   -2.7270   -0.7020   11.1570 H   0  0  0  0  0  0  0  0  0  0  0  0
   -3.0210    0.8940   11.0320 H   0  0  0  0  0  0  0  0  0  0  0  0
   -2.0351   -0.9811    9.0613 H   0  0  0  0  0  0  0  0  0  0  0  0
   -2.9633    0.5582    8.8438 H   0  0  0  0  0  0  0  0  0  0  0  0
    0.0269    0.1302    9.0584 H   0  0  0  0  0  0  0  0  0  0  0  0
   -0.9279    1.0610    7.8393 H   0  0  0  0  0  0  0  0  0  0  0  0
  1  2  1  0
  2  3  2  0
  3  4  1  0
  4  5  2  0
  5  6  1  0
  6  7  2  0
  7  8  1  0
  8  9  1  0
  9 10  2  0
 10 11  1  0
 11 12  2  0
 12 13  1  0
 13 14  1  0
 14 15  1  0
 15 16  1  0
 16 17  1  0
 17 18  1  0
 18 19  1  0
 13  2  1  0
 19 14  1  0
 12  4  1  0
 11  7  1  0
  1 20  1  0
  1 21  1  0
  1 22  1  0
  5 23  1  0
  8 24  1  0
  9 25  1  0
 10 26  1  0
 14 27  1  0
 15 28  1  0
 15 29  1  0
 16 30  1  0
 16 31  1  0
 17 32  1  0
 17 33  1  0
 18 34  1  0
 18 35  1  0
 19 36  1  0
 19 37  1  0
M  CHG  1  17   1
M  END
>  <meeko>  (5) 
{"is_sidechain": [false], "free_energy": -6.214, "intermolecular_energy": -6.555, "internal_energy": -0.259}

$$$$
4f09_ligand
     RDKit          3D

 37 40  0  0  0  0  0  0  0  0999 V2000
    1.6890    1.0310   11.6520 C   0  0  0  0  0  0  0  0  0  0  0  0
    1.5760    1.9400   10.4810 C   0  0  0  0  0  0  0  0  0  0  0  0
    2.3400    3.0070   10.3320 N   0  0  0  0  0  0  0  0  0  0  0  0
    1.8910    3.6420    9.2080 C   0  0  0  0  0  0  0  0  0  0  0  0
    2.2980    4.8330    8.5800 C   0  0  0  0  0  0  0  0  0  0  0  0
    1.6840    5.3210    7.4610 N   0  0  0  0  0  0  0  0  0  0  0  0
    0.6470    4.5940    7.0170 C   0  0  0  0  0  0  0  0  0  0  0  0
   -0.1580    4.8730    5.9490 N   0  0  0  0  0  0  0  0  0  0  0  0
   -1.1350    3.9020    5.8460 C   0  0  0  0  0  0  0  0  0  0  0  0
   -0.9500    2.9760    6.8600 C   0  0  0  0  0  0  0  0  0  0  0  0
    0.1910    3.4180    7.5730 C   0  0  0  0  0  0  0  0  0  0  0  0
    0.8380    2.9260    8.6690 C   0  0  0  0  0  0  0  0  0  0  0  0
    0.6890    1.8070    9.4150 N   0  0  0  0  0  0  0  0  0  0  0  0
   -0.1790    0.6690    9.1450 C   0  0  0  0  0  0  0  0  0  0  0  0
   -1.5640    0.8220    9.7940 C   0  0  0  0  0  0  0  0  0  0  0  0
   -2.2130   -0.5150   10.1260 C   0  0  0  0  0  0  0  0  0  0  0  0
   -1.9030   -1.5030    9.0540 N   0  0  0  0  0  0  0  0  0  0  0  0
   -0.4500   -1.8220    8.8670 C   0  0  0  0  0  0  0  0  0  0  0  0
    0.4380   -0.7100    9.4170 C   0  0  0  0  0  0  0  0  0  0  0  0
    1.6161    1.6174   12.5798 H   0  0  0  0  0  0  0  0  0  0  0  0
    0.8760    0.2907   11.6213 H   0  0  0  0  0  0  0  0  0  0  0  0
    2.6585    0.5123   11.6213 H   0  0  0  0  0  0  0  0  0  0  0  0
    3.1433    5.3933    9.0062 H   0  0  0  0  0  0  0  0  0  0  0  0
   -0.0470    5.6850    5.3580 H   0  0  0  0  0  0  0  0  0  0  0  0
   -1.9286    3.8693    5.0850 H   0  0  0  0  0  0  0  0  0  0  0  0
   -1.5608    2.0850    7.0675 H   0  0  0  0  0  0  0  0  0  0  0  0
   -0.3137    0.6933    8.0536 H   0  0  0  0  0  0  0  0  0  0  0  0
   -1.4542    1.3995   10.7237 H   0  0  0  0  0  0  0  0  0  0  0  0
   -2.2139    1.3338    9.0690 H   0  0  0  0  0  0  0  0  0  0  0  0
   -1.8225   -0.8827   11.0864 H   0  0  0  0  0  0  0  0  0  0  0  0
   -3.3028   -0.3837   10.1967 H   0  0  0  0  0  0  0  0  0  0  0  0
   -2.4070   -2.3810    9.2550 H   0  0  0  0  0  0  0  0  0  0  0  0
   -2.3060   -1.1780    8.1620 H   0  0  0  0  0  0  0  0  0  0  0  0
   -0.2183   -2.7592    9.3943 H   0  0  0  0  0  0  0  0  0  0  0  0
   -0.2529   -1.9222    7.7895 H   0  0  0  0  0  0  0  0  0  0  0  0
    0.5535   -0.8451   10.5026 H   0  0  0  0  0  0  0  0  0  0  0  0
    1.4164   -0.7620    8.9170 H   0  0  0  0  0  0  0  0  0  0  0  0
  1  2  1  0
  2  3  2  0
  3  4  1  0
  4  5  2  0
  5  6  1  0
  6  7  2  0
  7  8  1  0
  8  9  1  0
  9 10  2  0
 10 11  1  0
 11 12  2  0
 12 13  1  0
 13 14  1  0
 14 15  1  0
 15 16  1  0
 16 17  1  0
 17 18  1  0
 18 19  1  0
 13  2  1  0
 19 14  1  0
 12  4  1  0
 11  7  1  0
  1 20  1  0
  1 21  1  0
  1 22  1  0
  5 23  1  0
  8 24  1  0
  9 25  1  0
 10 26  1  0
 14 27  1  0
 15 28  1  0
 15 29  1  0
 16 30  1  0
 16 31  1  0
 17 32  1  0
 17 33  1  0
 18 34  1  0
 18 35  1  0
 19 36  1  0
 19 37  1  0
M  CHG  1  17   1
M  END
>  <meeko>  (6) 
{"is_sidechain": [false], "free_energy": -6.148, "intermolecular_energy": -6.646, "internal_energy": -0.098}

$$$$
4f09_ligand
     RDKit          3D

 37 40  0  0  0  0  0  0  0  0999 V2000
    4.5360   -1.8250    9.5550 C   0  0  0  0  0  0  0  0  0  0  0  0
    5.1780   -0.5370    9.1830 C   0  0  0  0  0  0  0  0  0  0  0  0
    4.7440    0.6290    9.6240 N   0  0  0  0  0  0  0  0  0  0  0  0
    5.5070    1.5780    9.0040 C   0  0  0  0  0  0  0  0  0  0  0  0
    5.4820    2.9840    9.0630 C   0  0  0  0  0  0  0  0  0  0  0  0
    6.3250    3.7660    8.3240 N   0  0  0  0  0  0  0  0  0  0  0  0
    7.1640    3.0950    7.5190 C   0  0  0  0  0  0  0  0  0  0  0  0
    8.0780    3.6280    6.6550 N   0  0  0  0  0  0  0  0  0  0  0  0
    8.7170    2.6080    5.9780 C   0  0  0  0  0  0  0  0  0  0  0  0
    8.2140    1.3950    6.4220 C   0  0  0  0  0  0  0  0  0  0  0  0
    7.2510    1.7240    7.4080 C   0  0  0  0  0  0  0  0  0  0  0  0
    6.4270    0.9580    8.1800 C   0  0  0  0  0  0  0  0  0  0  0  0
    6.2850   -0.3770    8.3510 N   0  0  0  0  0  0  0  0  0  0  0  0
    7.1340   -1.4350    7.8230 C   0  0  0  0  0  0  0  0  0  0  0  0
    6.4370   -2.2520    6.7230 C   0  0  0  0  0  0  0  0  0  0  0  0
    6.9470   -3.6840    6.6370 C   0  0  0  0  0  0  0  0  0  0  0  0
    8.4170   -3.7090    6.8840 N   0  0  0  0  0  0  0  0  0  0  0  0
    8.8540   -3.2310    8.2360 C   0  0  0  0  0  0  0  0  0  0  0  0
    7.8000   -2.3320    8.8750 C   0  0  0  0  0  0  0  0  0  0  0  0
    4.4934   -1.9104   10.6509 H   0  0  0  0  0  0  0  0  0  0  0  0
    3.5159   -1.8582    9.1447 H   0  0  0  0  0  0  0  0  0  0  0  0
    5.1236   -2.6595    9.1447 H   0  0  0  0  0  0  0  0  0  0  0  0
    4.7560    3.4724    9.7296 H   0  0  0  0  0  0  0  0  0  0  0  0
    8.2250    4.6200    6.5330 H   0  0  0  0  0  0  0  0  0  0  0  0
    9.4965    2.7368    5.2127 H   0  0  0  0  0  0  0  0  0  0  0  0
    8.5016    0.3895    6.0810 H   0  0  0  0  0  0  0  0  0  0  0  0
    7.9723   -0.8937    7.3602 H   0  0  0  0  0  0  0  0  0  0  0  0
    5.3576   -2.2757    6.9337 H   0  0  0  0  0  0  0  0  0  0  0  0
    6.6551   -1.7650    5.7611 H   0  0  0  0  0  0  0  0  0  0  0  0
    6.4385   -4.2994    7.3937 H   0  0  0  0  0  0  0  0  0  0  0  0
    6.7390   -4.0854    5.6342 H   0  0  0  0  0  0  0  0  0  0  0  0
    8.7600   -4.6730    6.7510 H   0  0  0  0  0  0  0  0  0  0  0  0
    8.8970   -3.1660    6.1500 H   0  0  0  0  0  0  0  0  0  0  0  0
    9.0236   -4.1020    8.8861 H   0  0  0  0  0  0  0  0  0  0  0  0
    9.7793   -2.6485    8.1153 H   0  0  0  0  0  0  0  0  0  0  0  0
    7.0323   -2.9596    9.3512 H   0  0  0  0  0  0  0  0  0  0  0  0
    8.2910   -1.6916    9.6225 H   0  0  0  0  0  0  0  0  0  0  0  0
  1  2  1  0
  2  3  2  0
  3  4  1  0
  4  5  2  0
  5  6  1  0
  6  7  2  0
  7  8  1  0
  8  9  1  0
  9 10  2  0
 10 11  1  0
 11 12  2  0
 12 13  1  0
 13 14  1  0
 14 15  1  0
 15 16  1  0
 16 17  1  0
 17 18  1  0
 18 19  1  0
 13  2  1  0
 19 14  1  0
 12  4  1  0
 11  7  1  0
  1 20  1  0
  1 21  1  0
  1 22  1  0
  5 23  1  0
  8 24  1  0
  9 25  1  0
 10 26  1  0
 14 27  1  0
 15 28  1  0
 15 29  1  0
 16 30  1  0
 16 31  1  0
 17 32  1  0
 17 33  1  0
 18 34  1  0
 18 35  1  0
 19 36  1  0
 19 37  1  0
M  CHG  1  17   1
M  END
>  <meeko>  (7) 
{"is_sidechain": [false], "free_energy": -6.131, "intermolecular_energy": -6.445, "internal_energy": -0.28}

$$$$
4f09_ligand
     RDKit          3D

 37 40  0  0  0  0  0  0  0  0999 V2000
    6.1320    3.7340   10.3260 C   0  0  0  0  0  0  0  0  0  0  0  0
    4.8220    3.2460    9.8210 C   0  0  0  0  0  0  0  0  0  0  0  0
    3.7280    3.9860    9.8490 N   0  0  0  0  0  0  0  0  0  0  0  0
    2.7160    3.1850    9.4010 C   0  0  0  0  0  0  0  0  0  0  0  0
    1.3370    3.4190    9.2430 C   0  0  0  0  0  0  0  0  0  0  0  0
    0.4740    2.4550    8.8020 N   0  0  0  0  0  0  0  0  0  0  0  0
    1.0330    1.2600    8.5550 C   0  0  0  0  0  0  0  0  0  0  0  0
    0.3970    0.1240    8.1430 N   0  0  0  0  0  0  0  0  0  0  0  0
    1.3150   -0.9030    8.0400 C   0  0  0  0  0  0  0  0  0  0  0  0
    2.5670   -0.4160    8.3810 C   0  0  0  0  0  0  0  0  0  0  0  0
    2.3710    0.9540    8.6820 C   0  0  0  0  0  0  0  0  0  0  0  0
    3.2240    1.9380    9.0870 C   0  0  0  0  0  0  0  0  0  0  0  0
    4.5640    1.9940    9.2670 N   0  0  0  0  0  0  0  0  0  0  0  0
    5.5500    0.9820    8.9130 C   0  0  0  0  0  0  0  0  0  0  0  0
    6.1030    0.2470   10.1450 C   0  0  0  0  0  0  0  0  0  0  0  0
    7.5190   -0.2720    9.9380 C   0  0  0  0  0  0  0  0  0  0  0  0
    7.6750   -0.7630    8.5400 N   0  0  0  0  0  0  0  0  0  0  0  0
    7.4870    0.2680    7.4670 C   0  0  0  0  0  0  0  0  0  0  0  0
    6.6670    1.4520    7.9710 C   0  0  0  0  0  0  0  0  0  0  0  0
    6.1250    3.7314   11.4260 H   0  0  0  0  0  0  0  0  0  0  0  0
    6.9338    3.0742    9.9629 H   0  0  0  0  0  0  0  0  0  0  0  0
    6.3067    4.7575    9.9629 H   0  0  0  0  0  0  0  0  0  0  0  0
    0.9386    4.4157    9.4836 H   0  0  0  0  0  0  0  0  0  0  0  0
   -0.5970    0.0650    7.9710 H   0  0  0  0  0  0  0  0  0  0  0  0
    1.0897   -1.9363    7.7374 H   0  0  0  0  0  0  0  0  0  0  0  0
    3.5135   -0.9756    8.4114 H   0  0  0  0  0  0  0  0  0  0  0  0
    4.9799    0.2558    8.3150 H   0  0  0  0  0  0  0  0  0  0  0  0
    6.1050    0.9425   10.9972 H   0  0  0  0  0  0  0  0  0  0  0  0
    5.4557   -0.6232   10.3288 H   0  0  0  0  0  0  0  0  0  0  0  0
    8.2369    0.5409   10.1222 H   0  0  0  0  0  0  0  0  0  0  0  0
    7.7096   -1.0991   10.6378 H   0  0  0  0  0  0  0  0  0  0  0  0
    8.6150   -1.1760    8.4350 H   0  0  0  0  0  0  0  0  0  0  0  0
    7.0310   -1.5530    8.3810 H   0  0  0  0  0  0  0  0  0  0  0  0
    8.4735    0.6288    7.1404 H   0  0  0  0  0  0  0  0  0  0  0  0
    6.9454   -0.1975    6.6303 H   0  0  0  0  0  0  0  0  0  0  0  0
    7.3285    2.1436    8.5133 H   0  0  0  0  0  0  0  0  0  0  0  0
    6.2097    1.9565    7.1071 H   0  0  0  0  0  0  0  0  0  0  0  0
  1  2  1  0
  2  3  2  0
  3  4  1  0
  4  5  2  0
  5  6  1  0
  6  7  2  0
  7  8  1  0
  8  9  1  0
  9 10  2  0
 10 11  1  0
 11 12  2  0
 12 13  1  0
 13 14  1  0
 14 15  1  0
 15 16  1  0
 16 17  1  0
 17 18  1  0
 18 19  1  0
 13  2  1  0
 19 14  1  0
 12  4  1  0
 11  7  1  0
  1 20  1  0
  1 21  1  0
  1 22  1  0
  5 23  1  0
  8 24  1  0
  9 25  1  0
 10 26  1  0
 14 27  1  0
 15 28  1  0
 15 29  1  0
 16 30  1  0
 16 31  1  0
 17 32  1  0
 17 33  1  0
 18 34  1  0
 18 35  1  0
 19 36  1  0
 19 37  1  0
M  CHG  1  17   1
M  END
>  <meeko>  (8) 
{"is_sidechain": [false], "free_energy": -6.065, "intermolecular_energy": -6.385, "internal_energy": -0.271}

$$$$
4f09_ligand
     RDKit          3D

 37 40  0  0  0  0  0  0  0  0999 V2000
    3.5930   -1.7290    8.8300 C   0  0  0  0  0  0  0  0  0  0  0  0
    3.7890   -0.4230    9.5120 C   0  0  0  0  0  0  0  0  0  0  0  0
    2.8380    0.1630   10.2170 N   0  0  0  0  0  0  0  0  0  0  0  0
    3.3410    1.3720   10.6050 C   0  0  0  0  0  0  0  0  0  0  0  0
    2.7770    2.4270   11.3450 C   0  0  0  0  0  0  0  0  0  0  0  0
    3.4510    3.5880   11.6010 N   0  0  0  0  0  0  0  0  0  0  0  0
    4.6820    3.6600   11.0720 C   0  0  0  0  0  0  0  0  0  0  0  0
    5.5480    4.7140   11.1440 N   0  0  0  0  0  0  0  0  0  0  0  0
    6.6970    4.4110   10.4390 C   0  0  0  0  0  0  0  0  0  0  0  0
    6.5720    3.1360    9.9120 C   0  0  0  0  0  0  0  0  0  0  0  0
    5.3040    2.6720   10.3410 C   0  0  0  0  0  0  0  0  0  0  0  0
    4.6320    1.5040   10.1270 C   0  0  0  0  0  0  0  0  0  0  0  0
    4.9530    0.3430    9.5100 N   0  0  0  0  0  0  0  0  0  0  0  0
    6.2540   -0.0560    8.9920 C   0  0  0  0  0  0  0  0  0  0  0  0
    6.2610   -0.1820    7.4590 C   0  0  0  0  0  0  0  0  0  0  0  0
    7.2820   -1.1920    6.9530 C   0  0  0  0  0  0  0  0  0  0  0  0
    8.5160   -1.1160    7.7850 N   0  0  0  0  0  0  0  0  0  0  0  0
    8.3400   -1.4500    9.2360 C   0  0  0  0  0  0  0  0  0  0  0  0
    6.8890   -1.2750    9.6740 C   0  0  0  0  0  0  0  0  0  0  0  0
    3.4740   -2.5218    9.5832 H   0  0  0  0  0  0  0  0  0  0  0  0
    2.6918   -1.6826    8.2010 H   0  0  0  0  0  0  0  0  0  0  0  0
    4.4682   -1.9492    8.2010 H   0  0  0  0  0  0  0  0  0  0  0  0
    1.7539    2.3131   11.7326 H   0  0  0  0  0  0  0  0  0  0  0  0
    5.3450    5.5790   11.6260 H   0  0  0  0  0  0  0  0  0  0  0  0
    7.5671    5.0728   10.3165 H   0  0  0  0  0  0  0  0  0  0  0  0
    7.3031    2.5974    9.2913 H   0  0  0  0  0  0  0  0  0  0  0  0
    6.9139    0.7807    9.2648 H   0  0  0  0  0  0  0  0  0  0  0  0
    5.2607   -0.4980    7.1281 H   0  0  0  0  0  0  0  0  0  0  0  0
    6.5363    0.8005    7.0479 H   0  0  0  0  0  0  0  0  0  0  0  0
    6.8582   -2.2050    7.0186 H   0  0  0  0  0  0  0  0  0  0  0  0
    7.5328   -0.9645    5.9064 H   0  0  0  0  0  0  0  0  0  0  0  0
    9.2240   -1.7530    7.3870 H   0  0  0  0  0  0  0  0  0  0  0  0
    8.9370   -0.1800    7.6910 H   0  0  0  0  0  0  0  0  0  0  0  0
    8.6407   -2.4950    9.4020 H   0  0  0  0  0  0  0  0  0  0  0  0
    8.9658   -0.7658    9.8278 H   0  0  0  0  0  0  0  0  0  0  0  0
    6.3198   -2.1764    9.4029 H   0  0  0  0  0  0  0  0  0  0  0  0
    6.8670   -1.1195   10.7627 H   0  0  0  0  0  0  0  0  0  0  0  0
  1  2  1  0
  2  3  2  0
  3  4  1  0
  4  5  2  0
  5  6  1  0
  6  7  2  0
  7  8  1  0
  8  9  1  0
  9 10  2  0
 10 11  1  0
 11 12  2  0
 12 13  1  0
 13 14  1  0
 14 15  1  0
 15 16  1  0
 16 17  1  0
 17 18  1  0
 18 19  1  0
 13  2  1  0
 19 14  1  0
 12  4  1  0
 11  7  1  0
  1 20  1  0
  1 21  1  0
  1 22  1  0
  5 23  1  0
  8 24  1  0
  9 25  1  0
 10 26  1  0
 14 27  1  0
 15 28  1  0
 15 29  1  0
 16 30  1  0
 16 31  1  0
 17 32  1  0
 17 33  1  0
 18 34  1  0
 18 35  1  0
 19 36  1  0
 19 37  1  0
M  CHG  1  17   1
M  END
>  <meeko>  (9) 
{"is_sidechain": [false], "free_energy": -5.971, "intermolecular_energy": -6.276, "internal_energy": -0.281}

$$$$
