3e92_ligand
     RDKit          3D

 47 50  0  0  0  0  0  0  0  0999 V2000
    5.4030    0.4090   10.0530 C   0  0  0  0  0  0  0  0  0  0  0  0
    4.4160    1.4590   10.3510 C   0  0  0  0  0  0  0  0  0  0  0  0
    4.5140    2.5080   11.1360 N   0  0  0  0  0  0  0  0  0  0  0  0
    3.3020    3.1630   11.0560 N   0  0  0  0  0  0  0  0  0  0  0  0
    2.5490    2.4680   10.2260 C   0  0  0  0  0  0  0  0  0  0  0  0
    1.1820    2.7030    9.7780 C   0  0  0  0  0  0  0  0  0  0  0  0
    0.4810    3.8170   10.2540 C   0  0  0  0  0  0  0  0  0  0  0  0
   -0.8310    4.0630    9.8420 C   0  0  0  0  0  0  0  0  0  0  0  0
   -1.4820    3.2070    8.9370 C   0  0  0  0  0  0  0  0  0  0  0  0
   -2.8690    3.5070    8.5400 C   0  0  0  0  0  0  0  0  0  0  0  0
   -3.9240    2.9050    9.2480 C   0  0  0  0  0  0  0  0  0  0  0  0
   -5.2600    3.1650    8.9180 C   0  0  0  0  0  0  0  0  0  0  0  0
   -6.3280    2.4880    9.7020 C   0  0  0  0  0  0  0  0  0  0  0  0
   -7.1520    3.1560   10.3180 O   0  0  0  0  0  0  0  0  0  0  0  0
   -6.3340    1.1070    9.6500 N   0  0  0  0  0  0  0  0  0  0  0  0
   -7.3310    0.3310   10.3170 C   0  0  0  0  0  0  0  0  0  0  0  0
   -7.1060   -1.1310   10.5780 C   0  0  0  0  0  0  0  0  0  0  0  0
   -8.1270   -0.7020    9.5660 C   0  0  0  0  0  0  0  0  0  0  0  0
   -5.5550    4.0210    7.8540 C   0  0  0  0  0  0  0  0  0  0  0  0
   -4.5180    4.6280    7.1410 C   0  0  0  0  0  0  0  0  0  0  0  0
   -3.1760    4.3820    7.4730 C   0  0  0  0  0  0  0  0  0  0  0  0
   -2.0900    5.0590    6.6770 C   0  0  0  0  0  0  0  0  0  0  0  0
   -0.7850    2.0820    8.4490 C   0  0  0  0  0  0  0  0  0  0  0  0
   -1.4280    1.1150    7.4890 C   0  0  0  0  0  0  0  0  0  0  0  0
    0.5360    1.8420    8.8770 C   0  0  0  0  0  0  0  0  0  0  0  0
    3.1980    1.3630    9.7330 O   0  0  0  0  0  0  0  0  0  0  0  0
    5.7928   -0.0056   10.9944 H   0  0  0  0  0  0  0  0  0  0  0  0
    4.9226   -0.3913    9.4709 H   0  0  0  0  0  0  0  0  0  0  0  0
    6.2314    0.8390    9.4709 H   0  0  0  0  0  0  0  0  0  0  0  0
    0.9682    4.5059   10.9598 H   0  0  0  0  0  0  0  0  0  0  0  0
   -1.3641    4.9423   10.2328 H   0  0  0  0  0  0  0  0  0  0  0  0
   -3.6960    2.2175   10.0759 H   0  0  0  0  0  0  0  0  0  0  0  0
   -5.7430    0.6380    8.9750 H   0  0  0  0  0  0  0  0  0  0  0  0
   -7.5804    1.2048   10.9369 H   0  0  0  0  0  0  0  0  0  0  0  0
   -6.1729   -1.6109   10.2478 H   0  0  0  0  0  0  0  0  0  0  0  0
   -7.1199   -1.7717   11.4721 H   0  0  0  0  0  0  0  0  0  0  0  0
   -7.9421   -0.8666    8.4942 H   0  0  0  0  0  0  0  0  0  0  0  0
   -9.1984   -0.8971    9.4110 H   0  0  0  0  0  0  0  0  0  0  0  0
   -6.6017    4.2167    7.5781 H   0  0  0  0  0  0  0  0  0  0  0  0
   -4.7559    5.3072    6.3091 H   0  0  0  0  0  0  0  0  0  0  0  0
   -1.3610    5.5135    7.3640 H   0  0  0  0  0  0  0  0  0  0  0  0
   -1.5831    4.3166    6.0430 H   0  0  0  0  0  0  0  0  0  0  0  0
   -2.5333    5.8410    6.0430 H   0  0  0  0  0  0  0  0  0  0  0  0
   -1.9504    0.3294    8.0547 H   0  0  0  0  0  0  0  0  0  0  0  0
   -2.1494    1.6521    6.8557 H   0  0  0  0  0  0  0  0  0  0  0  0
   -0.6536    0.6575    6.8557 H   0  0  0  0  0  0  0  0  0  0  0  0
    1.0728    0.9604    8.4966 H   0  0  0  0  0  0  0  0  0  0  0  0
  1  2  1  0
  2  3  2  0
  3  4  1  0
  4  5  2  0
  5  6  1  0
  6  7  2  0
  7  8  1  0
  8  9  2  0
  9 10  1  0
 10 11  2  0
 11 12  1  0
 12 13  1  0
 13 14  2  0
 13 15  1  0
 15 16  1  0
 16 17  1  0
 17 18  1  0
 12 19  2  0
 19 20  1  0
 20 21  2  0
 21 22  1  0
  9 23  1  0
 23 24  1  0
 23 25  2  0
  5 26  1  0
 26  2  1  0
 25  6  1  0
 21 10  1  0
 18 16  1  0
  1 27  1  0
  1 28  1  0
  1 29  1  0
  7 30  1  0
  8 31  1  0
 11 32  1  0
 15 33  1  0
 16 34  1  0
 17 35  1  0
 17 36  1  0
 18 37  1  0
 18 38  1  0
 19 39  1  0
 20 40  1  0
 22 41  1  0
 22 42  1  0
 22 43  1  0
 24 44  1  0
 24 45  1  0
 24 46  1  0
 25 47  1  0
M  END
>  <meeko>  (1) 
{"is_sidechain": [false], "free_energy": -8.1, "intermolecular_energy": -9.994, "internal_energy": -1.131}

$$$$
3e92_ligand
     RDKit          3D

 47 50  0  0  0  0  0  0  0  0999 V2000
   -7.1770    3.1300   11.2240 C   0  0  0  0  0  0  0  0  0  0  0  0
   -6.0120    3.4400   10.3810 C   0  0  0  0  0  0  0  0  0  0  0  0
   -5.9590    3.9880    9.1870 N   0  0  0  0  0  0  0  0  0  0  0  0
   -4.6220    4.0510    8.8510 N   0  0  0  0  0  0  0  0  0  0  0  0
   -3.9520    3.5370    9.8640 C   0  0  0  0  0  0  0  0  0  0  0  0
   -2.5170    3.3550   10.0450 C   0  0  0  0  0  0  0  0  0  0  0  0
   -1.6530    4.4360    9.8420 C   0  0  0  0  0  0  0  0  0  0  0  0
   -0.2730    4.2870   10.0070 C   0  0  0  0  0  0  0  0  0  0  0  0
    0.2850    3.0540   10.3850 C   0  0  0  0  0  0  0  0  0  0  0  0
    1.7460    2.9480   10.5380 C   0  0  0  0  0  0  0  0  0  0  0  0
    2.5390    2.7740    9.3900 C   0  0  0  0  0  0  0  0  0  0  0  0
    3.9330    2.6780    9.4800 C   0  0  0  0  0  0  0  0  0  0  0  0
    4.7120    2.4850    8.2260 C   0  0  0  0  0  0  0  0  0  0  0  0
    5.0440    3.4570    7.5560 O   0  0  0  0  0  0  0  0  0  0  0  0
    5.0440    1.1800    7.9150 N   0  0  0  0  0  0  0  0  0  0  0  0
    5.8300    0.8560    6.7660 C   0  0  0  0  0  0  0  0  0  0  0  0
    5.7620   -0.5210    6.1660 C   0  0  0  0  0  0  0  0  0  0  0  0
    7.0050   -0.0770    6.8820 C   0  0  0  0  0  0  0  0  0  0  0  0
    4.5510    2.7350   10.7310 C   0  0  0  0  0  0  0  0  0  0  0  0
    3.7780    2.9090   11.8810 C   0  0  0  0  0  0  0  0  0  0  0  0
    2.3800    3.0190   11.7990 C   0  0  0  0  0  0  0  0  0  0  0  0
    1.5860    3.2050   13.0670 C   0  0  0  0  0  0  0  0  0  0  0  0
   -0.5770    1.9570   10.5950 C   0  0  0  0  0  0  0  0  0  0  0  0
   -0.0440    0.6040   10.9860 C   0  0  0  0  0  0  0  0  0  0  0  0
   -1.9650    2.1200   10.4200 C   0  0  0  0  0  0  0  0  0  0  0  0
   -4.7780    3.1260   10.8820 O   0  0  0  0  0  0  0  0  0  0  0  0
   -6.8930    3.2056   12.2840 H   0  0  0  0  0  0  0  0  0  0  0  0
   -7.9855    3.8443   11.0092 H   0  0  0  0  0  0  0  0  0  0  0  0
   -7.5236    2.1084   11.0092 H   0  0  0  0  0  0  0  0  0  0  0  0
   -2.0638    5.4136    9.5495 H   0  0  0  0  0  0  0  0  0  0  0  0
    0.3877    5.1501    9.8380 H   0  0  0  0  0  0  0  0  0  0  0  0
    2.0557    2.7122    8.4038 H   0  0  0  0  0  0  0  0  0  0  0  0
    4.8980    0.4570    8.6080 H   0  0  0  0  0  0  0  0  0  0  0  0
    5.6849    1.8793    6.3893 H   0  0  0  0  0  0  0  0  0  0  0  0
    5.1116   -1.2853    6.6163 H   0  0  0  0  0  0  0  0  0  0  0  0
    5.5428   -0.9231    5.1659 H   0  0  0  0  0  0  0  0  0  0  0  0
    7.2647   -0.5158    7.8567 H   0  0  0  0  0  0  0  0  0  0  0  0
    8.0726   -0.0190    6.6236 H   0  0  0  0  0  0  0  0  0  0  0  0
    5.6443    2.6430   10.8104 H   0  0  0  0  0  0  0  0  0  0  0  0
    4.2701    2.9606   12.8634 H   0  0  0  0  0  0  0  0  0  0  0  0
    2.2422    3.0513   13.9364 H   0  0  0  0  0  0  0  0  0  0  0  0
    1.1731    4.2242   13.0949 H   0  0  0  0  0  0  0  0  0  0  0  0
    0.7634    2.4752   13.0949 H   0  0  0  0  0  0  0  0  0  0  0  0
   -0.0129    0.5251   12.0827 H   0  0  0  0  0  0  0  0  0  0  0  0
   -0.7005   -0.1799   10.5804 H   0  0  0  0  0  0  0  0  0  0  0  0
    0.9708    0.4785   10.5804 H   0  0  0  0  0  0  0  0  0  0  0  0
   -2.6317    1.2600   10.5808 H   0  0  0  0  0  0  0  0  0  0  0  0
  1  2  1  0
  2  3  2  0
  3  4  1  0
  4  5  2  0
  5  6  1  0
  6  7  2  0
  7  8  1  0
  8  9  2  0
  9 10  1  0
 10 11  2  0
 11 12  1  0
 12 13  1  0
 13 14  2  0
 13 15  1  0
 15 16  1  0
 16 17  1  0
 17 18  1  0
 12 19  2  0
 19 20  1  0
 20 21  2  0
 21 22  1  0
  9 23  1  0
 23 24  1  0
 23 25  2  0
  5 26  1  0
 26  2  1  0
 25  6  1  0
 21 10  1  0
 18 16  1  0
  1 27  1  0
  1 28  1  0
  1 29  1  0
  7 30  1  0
  8 31  1  0
 11 32  1  0
 15 33  1  0
 16 34  1  0
 17 35  1  0
 17 36  1  0
 18 37  1  0
 18 38  1  0
 19 39  1  0
 20 40  1  0
 22 41  1  0
 22 42  1  0
 22 43  1  0
 24 44  1  0
 24 45  1  0
 24 46  1  0
 25 47  1  0
M  END
>  <meeko>  (2) 
{"is_sidechain": [false], "free_energy": -7.953, "intermolecular_energy": -9.866, "internal_energy": -1.078}

$$$$
3e92_ligand
     RDKit          3D

 47 50  0  0  0  0  0  0  0  0999 V2000
   -2.0310    6.8900    6.6440 C   0  0  0  0  0  0  0  0  0  0  0  0
   -2.4990    6.4390    7.9650 C   0  0  0  0  0  0  0  0  0  0  0  0
   -2.4760    7.0600    9.1220 N   0  0  0  0  0  0  0  0  0  0  0  0
   -3.0350    6.1920   10.0370 N   0  0  0  0  0  0  0  0  0  0  0  0
   -3.3610    5.1000    9.3730 C   0  0  0  0  0  0  0  0  0  0  0  0
   -3.9830    3.8670    9.8400 C   0  0  0  0  0  0  0  0  0  0  0  0
   -5.1620    3.4170    9.2360 C   0  0  0  0  0  0  0  0  0  0  0  0
   -5.7790    2.2390    9.6670 C   0  0  0  0  0  0  0  0  0  0  0  0
   -5.2330    1.4720   10.7090 C   0  0  0  0  0  0  0  0  0  0  0  0
   -5.9270    0.2420   11.1300 C   0  0  0  0  0  0  0  0  0  0  0  0
   -6.8750    0.3160   12.1660 C   0  0  0  0  0  0  0  0  0  0  0  0
   -7.5690   -0.8210   12.5960 C   0  0  0  0  0  0  0  0  0  0  0  0
   -8.5520   -0.6740   13.7030 C   0  0  0  0  0  0  0  0  0  0  0  0
   -8.5170   -1.4400   14.6600 O   0  0  0  0  0  0  0  0  0  0  0  0
   -9.4460    0.3740   13.5840 N   0  0  0  0  0  0  0  0  0  0  0  0
  -10.4130    0.6600   14.5960 C   0  0  0  0  0  0  0  0  0  0  0  0
  -11.5020    1.6640   14.3420 C   0  0  0  0  0  0  0  0  0  0  0  0
  -10.4020    1.9830   15.3130 C   0  0  0  0  0  0  0  0  0  0  0  0
   -7.3040   -2.0580   12.0040 C   0  0  0  0  0  0  0  0  0  0  0  0
   -6.3660   -2.1490   10.9730 C   0  0  0  0  0  0  0  0  0  0  0  0
   -5.6740   -1.0110   10.5270 C   0  0  0  0  0  0  0  0  0  0  0  0
   -4.6710   -1.1570    9.4110 C   0  0  0  0  0  0  0  0  0  0  0  0
   -4.0430    1.9140   11.3240 C   0  0  0  0  0  0  0  0  0  0  0  0
   -3.4120    1.1480   12.4570 C   0  0  0  0  0  0  0  0  0  0  0  0
   -3.4350    3.1060   10.8840 C   0  0  0  0  0  0  0  0  0  0  0  0
   -3.0480    5.1870    8.0380 O   0  0  0  0  0  0  0  0  0  0  0  0
   -1.2444    7.6480    6.7728 H   0  0  0  0  0  0  0  0  0  0  0  0
   -1.6262    6.0327    6.0861 H   0  0  0  0  0  0  0  0  0  0  0  0
   -2.8727    7.3262    6.0861 H   0  0  0  0  0  0  0  0  0  0  0  0
   -5.6079    3.9959    8.4138 H   0  0  0  0  0  0  0  0  0  0  0  0
   -6.7085    1.9070    9.1814 H   0  0  0  0  0  0  0  0  0  0  0  0
   -7.0748    1.2848   12.6471 H   0  0  0  0  0  0  0  0  0  0  0  0
   -9.2920    1.0710   12.8650 H   0  0  0  0  0  0  0  0  0  0  0  0
  -10.3813   -0.3939   14.9097 H   0  0  0  0  0  0  0  0  0  0  0  0
  -11.5519    2.1883   13.3763 H   0  0  0  0  0  0  0  0  0  0  0  0
  -12.6008    1.6476   14.3904 H   0  0  0  0  0  0  0  0  0  0  0  0
   -9.6460    2.7404   15.0583 H   0  0  0  0  0  0  0  0  0  0  0  0
  -10.3611    2.2965   16.3666 H   0  0  0  0  0  0  0  0  0  0  0  0
   -7.8329   -2.9587   12.3490 H   0  0  0  0  0  0  0  0  0  0  0  0
   -6.1668   -3.1241   10.5045 H   0  0  0  0  0  0  0  0  0  0  0  0
   -3.6673   -1.3031    9.8368 H   0  0  0  0  0  0  0  0  0  0  0  0
   -4.9363   -2.0260    8.7909 H   0  0  0  0  0  0  0  0  0  0  0  0
   -4.6775   -0.2484    8.7909 H   0  0  0  0  0  0  0  0  0  0  0  0
   -3.7544    1.5637   13.4162 H   0  0  0  0  0  0  0  0  0  0  0  0
   -3.7036    0.0894   12.3911 H   0  0  0  0  0  0  0  0  0  0  0  0
   -2.3172    1.2315   12.3911 H   0  0  0  0  0  0  0  0  0  0  0  0
   -2.5094    3.4482   11.3699 H   0  0  0  0  0  0  0  0  0  0  0  0
  1  2  1  0
  2  3  2  0
  3  4  1  0
  4  5  2  0
  5  6  1  0
  6  7  2  0
  7  8  1  0
  8  9  2  0
  9 10  1  0
 10 11  2  0
 11 12  1  0
 12 13  1  0
 13 14  2  0
 13 15  1  0
 15 16  1  0
 16 17  1  0
 17 18  1  0
 12 19  2  0
 19 20  1  0
 20 21  2  0
 21 22  1  0
  9 23  1  0
 23 24  1  0
 23 25  2  0
  5 26  1  0
 26  2  1  0
 25  6  1  0
 21 10  1  0
 18 16  1  0
  1 27  1  0
  1 28  1  0
  1 29  1  0
  7 30  1  0
  8 31  1  0
 11 32  1  0
 15 33  1  0
 16 34  1  0
 17 35  1  0
 17 36  1  0
 18 37  1  0
 18 38  1  0
 19 39  1  0
 20 40  1  0
 22 41  1  0
 22 42  1  0
 22 43  1  0
 24 44  1  0
 24 45  1  0
 24 46  1  0
 25 47  1  0
M  END
>  <meeko>  (3) 
{"is_sidechain": [false], "free_energy": -7.882, "intermolecular_energy": -9.714, "internal_energy": -1.143}

$$$$
3e92_ligand
     RDKit          3D

 47 50  0  0  0  0  0  0  0  0999 V2000
   -2.1440   -5.9900   11.3920 C   0  0  0  0  0  0  0  0  0  0  0  0
   -2.1240   -4.5850   11.8270 C   0  0  0  0  0  0  0  0  0  0  0  0
   -1.5910   -4.0440   12.8990 N   0  0  0  0  0  0  0  0  0  0  0  0
   -1.8590   -2.6930   12.8230 N   0  0  0  0  0  0  0  0  0  0  0  0
   -2.5380   -2.5030   11.7080 C   0  0  0  0  0  0  0  0  0  0  0  0
   -3.0760   -1.2760   11.1330 C   0  0  0  0  0  0  0  0  0  0  0  0
   -3.5800   -1.2900    9.8280 C   0  0  0  0  0  0  0  0  0  0  0  0
   -4.1000   -0.1270    9.2520 C   0  0  0  0  0  0  0  0  0  0  0  0
   -4.1360    1.0830    9.9650 C   0  0  0  0  0  0  0  0  0  0  0  0
   -4.6870    2.2820    9.3090 C   0  0  0  0  0  0  0  0  0  0  0  0
   -3.8400    3.0700    8.5090 C   0  0  0  0  0  0  0  0  0  0  0  0
   -4.3160    4.2130    7.8560 C   0  0  0  0  0  0  0  0  0  0  0  0
   -3.3650    5.0060    7.0320 C   0  0  0  0  0  0  0  0  0  0  0  0
   -3.0120    4.5900    5.9330 O   0  0  0  0  0  0  0  0  0  0  0  0
   -2.9590    6.2130    7.5690 N   0  0  0  0  0  0  0  0  0  0  0  0
   -2.0850    7.0960    6.8640 C   0  0  0  0  0  0  0  0  0  0  0  0
   -0.5950    6.9190    6.9530 C   0  0  0  0  0  0  0  0  0  0  0  0
   -1.2480    8.1010    7.6090 C   0  0  0  0  0  0  0  0  0  0  0  0
   -5.6510    4.5950    8.0150 C   0  0  0  0  0  0  0  0  0  0  0  0
   -6.5050    3.8230    8.8060 C   0  0  0  0  0  0  0  0  0  0  0  0
   -6.0390    2.6680    9.4550 C   0  0  0  0  0  0  0  0  0  0  0  0
   -6.9970    1.8660   10.2980 C   0  0  0  0  0  0  0  0  0  0  0  0
   -3.6320    1.1080   11.2820 C   0  0  0  0  0  0  0  0  0  0  0  0
   -3.6250    2.3760   12.0970 C   0  0  0  0  0  0  0  0  0  0  0  0
   -3.1060   -0.0700   11.8480 C   0  0  0  0  0  0  0  0  0  0  0  0
   -2.7440   -3.6720   11.0160 O   0  0  0  0  0  0  0  0  0  0  0  0
   -2.1534   -6.6469   12.2743 H   0  0  0  0  0  0  0  0  0  0  0  0
   -3.0449   -6.1741   10.7882 H   0  0  0  0  0  0  0  0  0  0  0  0
   -1.2487   -6.1997   10.7882 H   0  0  0  0  0  0  0  0  0  0  0  0
   -3.5670   -2.2254    9.2493 H   0  0  0  0  0  0  0  0  0  0  0  0
   -4.4875   -0.1599    8.2231 H   0  0  0  0  0  0  0  0  0  0  0  0
   -2.7843    2.7828    8.3944 H   0  0  0  0  0  0  0  0  0  0  0  0
   -3.4360    6.5720    8.3870 H   0  0  0  0  0  0  0  0  0  0  0  0
   -2.8168    7.1494    6.0445 H   0  0  0  0  0  0  0  0  0  0  0  0
   -0.1733    6.1116    7.5697 H   0  0  0  0  0  0  0  0  0  0  0  0
    0.2167    6.7858    6.2226 H   0  0  0  0  0  0  0  0  0  0  0  0
   -1.3052    8.1592    8.7060 H   0  0  0  0  0  0  0  0  0  0  0  0
   -1.1134    9.1915    7.5582 H   0  0  0  0  0  0  0  0  0  0  0  0
   -6.0281    5.5012    7.5185 H   0  0  0  0  0  0  0  0  0  0  0  0
   -7.5567    4.1237    8.9222 H   0  0  0  0  0  0  0  0  0  0  0  0
   -6.7853    2.0432   11.3628 H   0  0  0  0  0  0  0  0  0  0  0  0
   -8.0290    2.1734   10.0732 H   0  0  0  0  0  0  0  0  0  0  0  0
   -6.8759    0.7960   10.0732 H   0  0  0  0  0  0  0  0  0  0  0  0
   -3.6264    2.1237   13.1677 H   0  0  0  0  0  0  0  0  0  0  0  0
   -2.7236    2.9599   11.8590 H   0  0  0  0  0  0  0  0  0  0  0  0
   -4.5199    2.9698   11.8590 H   0  0  0  0  0  0  0  0  0  0  0  0
   -2.7099   -0.0432   12.8739 H   0  0  0  0  0  0  0  0  0  0  0  0
  1  2  1  0
  2  3  2  0
  3  4  1  0
  4  5  2  0
  5  6  1  0
  6  7  2  0
  7  8  1  0
  8  9  2  0
  9 10  1  0
 10 11  2  0
 11 12  1  0
 12 13  1  0
 13 14  2  0
 13 15  1  0
 15 16  1  0
 16 17  1  0
 17 18  1  0
 12 19  2  0
 19 20  1  0
 20 21  2  0
 21 22  1  0
  9 23  1  0
 23 24  1  0
 23 25  2  0
  5 26  1  0
 26  2  1  0
 25  6  1  0
 21 10  1  0
 18 16  1  0
  1 27  1  0
  1 28  1  0
  1 29  1  0
  7 30  1  0
  8 31  1  0
 11 32  1  0
 15 33  1  0
 16 34  1  0
 17 35  1  0
 17 36  1  0
 18 37  1  0
 18 38  1  0
 19 39  1  0
 20 40  1  0
 22 41  1  0
 22 42  1  0
 22 43  1  0
 24 44  1  0
 24 45  1  0
 24 46  1  0
 25 47  1  0
M  END
>  <meeko>  (4) 
{"is_sidechain": [false], "free_energy": -7.841, "intermolecular_energy": -9.623, "internal_energy": -1.183}

$$$$
3e92_ligand
     RDKit          3D

 47 50  0  0  0  0  0  0  0  0999 V2000
    0.3330    6.5100    4.6000 C   0  0  0  0  0  0  0  0  0  0  0  0
   -0.5250    6.5940    5.7920 C   0  0  0  0  0  0  0  0  0  0  0  0
   -0.7630    7.6130    6.5870 N   0  0  0  0  0  0  0  0  0  0  0  0
   -1.6370    7.1530    7.5510 N   0  0  0  0  0  0  0  0  0  0  0  0
   -1.8720    5.8850    7.2760 C   0  0  0  0  0  0  0  0  0  0  0  0
   -2.7170    4.9160    7.9630 C   0  0  0  0  0  0  0  0  0  0  0  0
   -3.8660    4.4300    7.3280 C   0  0  0  0  0  0  0  0  0  0  0  0
   -4.6940    3.5020    7.9660 C   0  0  0  0  0  0  0  0  0  0  0  0
   -4.3970    3.0270    9.2540 C   0  0  0  0  0  0  0  0  0  0  0  0
   -5.3060    2.0550    9.8850 C   0  0  0  0  0  0  0  0  0  0  0  0
   -4.9230    0.7030    9.9430 C   0  0  0  0  0  0  0  0  0  0  0  0
   -5.7460   -0.2590   10.5410 C   0  0  0  0  0  0  0  0  0  0  0  0
   -5.2830   -1.6730   10.5610 C   0  0  0  0  0  0  0  0  0  0  0  0
   -6.0800   -2.5750   10.7990 O   0  0  0  0  0  0  0  0  0  0  0  0
   -3.9480   -1.8770   10.2660 N   0  0  0  0  0  0  0  0  0  0  0  0
   -3.3820   -3.1880   10.2030 C   0  0  0  0  0  0  0  0  0  0  0  0
   -2.7820   -3.8140   11.4310 C   0  0  0  0  0  0  0  0  0  0  0  0
   -1.8930   -3.3840   10.3010 C   0  0  0  0  0  0  0  0  0  0  0  0
   -6.9800    0.1220   11.0730 C   0  0  0  0  0  0  0  0  0  0  0  0
   -7.3750    1.4600   11.0250 C   0  0  0  0  0  0  0  0  0  0  0  0
   -6.5510    2.4340   10.4370 C   0  0  0  0  0  0  0  0  0  0  0  0
   -7.0190    3.8660   10.4080 C   0  0  0  0  0  0  0  0  0  0  0  0
   -3.2400    3.5080    9.9030 C   0  0  0  0  0  0  0  0  0  0  0  0
   -2.8700    3.0530   11.2900 C   0  0  0  0  0  0  0  0  0  0  0  0
   -2.4170    4.4470    9.2510 C   0  0  0  0  0  0  0  0  0  0  0  0
   -1.1940    5.4570    6.1600 O   0  0  0  0  0  0  0  0  0  0  0  0
    1.3832    6.4072    4.9107 H   0  0  0  0  0  0  0  0  0  0  0  0
    0.0412    5.6361    3.9990 H   0  0  0  0  0  0  0  0  0  0  0  0
    0.2162    7.4239    3.9990 H   0  0  0  0  0  0  0  0  0  0  0  0
   -4.1197    4.7818    6.3171 H   0  0  0  0  0  0  0  0  0  0  0  0
   -5.5944    3.1371    7.4501 H   0  0  0  0  0  0  0  0  0  0  0  0
   -3.9593    0.3957    9.5107 H   0  0  0  0  0  0  0  0  0  0  0  0
   -3.4030   -1.1080    9.8980 H   0  0  0  0  0  0  0  0  0  0  0  0
   -4.1579   -3.4777    9.4790 H   0  0  0  0  0  0  0  0  0  0  0  0
   -2.7706   -3.2595   12.3809 H   0  0  0  0  0  0  0  0  0  0  0  0
   -2.9405   -4.7535   11.9807 H   0  0  0  0  0  0  0  0  0  0  0  0
   -1.2306   -2.5142   10.4227 H   0  0  0  0  0  0  0  0  0  0  0  0
   -1.1310   -3.8775    9.6799 H   0  0  0  0  0  0  0  0  0  0  0  0
   -7.6395   -0.6311   11.5290 H   0  0  0  0  0  0  0  0  0  0  0  0
   -8.3442    1.7555   11.4532 H   0  0  0  0  0  0  0  0  0  0  0  0
   -7.1391    4.2334   11.4378 H   0  0  0  0  0  0  0  0  0  0  0  0
   -6.2761    4.4840    9.8825 H   0  0  0  0  0  0  0  0  0  0  0  0
   -7.9835    3.9260    9.8825 H   0  0  0  0  0  0  0  0  0  0  0  0
   -3.3826    3.6833   12.0316 H   0  0  0  0  0  0  0  0  0  0  0  0
   -3.1754    2.0050   11.4258 H   0  0  0  0  0  0  0  0  0  0  0  0
   -1.7818    3.1383   11.4258 H   0  0  0  0  0  0  0  0  0  0  0  0
   -1.5184    4.8212    9.7634 H   0  0  0  0  0  0  0  0  0  0  0  0
  1  2  1  0
  2  3  2  0
  3  4  1  0
  4  5  2  0
  5  6  1  0
  6  7  2  0
  7  8  1  0
  8  9  2  0
  9 10  1  0
 10 11  2  0
 11 12  1  0
 12 13  1  0
 13 14  2  0
 13 15  1  0
 15 16  1  0
 16 17  1  0
 17 18  1  0
 12 19  2  0
 19 20  1  0
 20 21  2  0
 21 22  1  0
  9 23  1  0
 23 24  1  0
 23 25  2  0
  5 26  1  0
 26  2  1  0
 25  6  1  0
 21 10  1  0
 18 16  1  0
  1 27  1  0
  1 28  1  0
  1 29  1  0
  7 30  1  0
  8 31  1  0
 11 32  1  0
 15 33  1  0
 16 34  1  0
 17 35  1  0
 17 36  1  0
 18 37  1  0
 18 38  1  0
 19 39  1  0
 20 40  1  0
 22 41  1  0
 22 42  1  0
 22 43  1  0
 24 44  1  0
 24 45  1  0
 24 46  1  0
 25 47  1  0
M  END
>  <meeko>  (5) 
{"is_sidechain": [false], "free_energy": -7.68, "intermolecular_energy": -9.585, "internal_energy": -1.022}

$$$$
3e92_ligand
     RDKit          3D

 47 50  0  0  0  0  0  0  0  0999 V2000
    7.3130   -4.2400    6.5250 C   0  0  0  0  0  0  0  0  0  0  0  0
    6.8890   -3.4910    7.7180 C   0  0  0  0  0  0  0  0  0  0  0  0
    7.2730   -3.6140    8.9690 N   0  0  0  0  0  0  0  0  0  0  0  0
    6.5650   -2.6700    9.6830 N   0  0  0  0  0  0  0  0  0  0  0  0
    5.7970   -2.0360    8.8180 C   0  0  0  0  0  0  0  0  0  0  0  0
    4.8480   -0.9490    9.0240 C   0  0  0  0  0  0  0  0  0  0  0  0
    3.5770   -1.2310    9.5380 C   0  0  0  0  0  0  0  0  0  0  0  0
    2.6480   -0.2080    9.7430 C   0  0  0  0  0  0  0  0  0  0  0  0
    2.9610    1.1290    9.4460 C   0  0  0  0  0  0  0  0  0  0  0  0
    1.9430    2.1690    9.6730 C   0  0  0  0  0  0  0  0  0  0  0  0
    1.0630    2.5000    8.6270 C   0  0  0  0  0  0  0  0  0  0  0  0
    0.0710    3.4730    8.7940 C   0  0  0  0  0  0  0  0  0  0  0  0
   -0.8210    3.7810    7.6440 C   0  0  0  0  0  0  0  0  0  0  0  0
   -1.6450    2.9530    7.2690 O   0  0  0  0  0  0  0  0  0  0  0  0
   -0.6730    5.0350    7.0820 N   0  0  0  0  0  0  0  0  0  0  0  0
   -1.4970    5.4790    6.0020 C   0  0  0  0  0  0  0  0  0  0  0  0
   -0.9420    6.4040    4.9560 C   0  0  0  0  0  0  0  0  0  0  0  0
   -1.9630    6.9080    5.9330 C   0  0  0  0  0  0  0  0  0  0  0  0
   -0.0380    4.1470   10.0140 C   0  0  0  0  0  0  0  0  0  0  0  0
    0.8270    3.8290   11.0630 C   0  0  0  0  0  0  0  0  0  0  0  0
    1.8170    2.8460   10.9080 C   0  0  0  0  0  0  0  0  0  0  0  0
    2.7290    2.5360   12.0670 C   0  0  0  0  0  0  0  0  0  0  0  0
    4.2400    1.4260    8.9290 C   0  0  0  0  0  0  0  0  0  0  0  0
    4.6360    2.8350    8.5740 C   0  0  0  0  0  0  0  0  0  0  0  0
    5.1650    0.3830    8.7220 C   0  0  0  0  0  0  0  0  0  0  0  0
    5.9530   -2.5080    7.5370 O   0  0  0  0  0  0  0  0  0  0  0  0
    7.8330   -5.1586    6.8344 H   0  0  0  0  0  0  0  0  0  0  0  0
    6.4299   -4.5032    5.9243 H   0  0  0  0  0  0  0  0  0  0  0  0
    7.9931   -3.6183    5.9243 H   0  0  0  0  0  0  0  0  0  0  0  0
    3.3069   -2.2688    9.7830 H   0  0  0  0  0  0  0  0  0  0  0  0
    1.6537   -0.4537   10.1441 H   0  0  0  0  0  0  0  0  0  0  0  0
    1.1562    1.9846    7.6597 H   0  0  0  0  0  0  0  0  0  0  0  0
   -0.1080    5.7250    7.5610 H   0  0  0  0  0  0  0  0  0  0  0  0
   -1.9945    4.4980    5.9913 H   0  0  0  0  0  0  0  0  0  0  0  0
    0.1006    6.7481    5.0240 H   0  0  0  0  0  0  0  0  0  0  0  0
   -0.8625    6.3782    3.8592 H   0  0  0  0  0  0  0  0  0  0  0  0
   -1.6688    7.6209    6.7173 H   0  0  0  0  0  0  0  0  0  0  0  0
   -2.9413    7.4039    5.8492 H   0  0  0  0  0  0  0  0  0  0  0  0
   -0.8033    4.9259   10.1472 H   0  0  0  0  0  0  0  0  0  0  0  0
    0.7313    4.3559   12.0238 H   0  0  0  0  0  0  0  0  0  0  0  0
    2.1957    2.7173   13.0119 H   0  0  0  0  0  0  0  0  0  0  0  0
    3.0394    1.4819   12.0176 H   0  0  0  0  0  0  0  0  0  0  0  0
    3.6175    3.1826   12.0176 H   0  0  0  0  0  0  0  0  0  0  0  0
    4.7986    3.4134    9.4954 H   0  0  0  0  0  0  0  0  0  0  0  0
    5.5640    2.8174    7.9836 H   0  0  0  0  0  0  0  0  0  0  0  0
    3.8347    3.3034    7.9836 H   0  0  0  0  0  0  0  0  0  0  0  0
    6.1588    0.6195    8.3140 H   0  0  0  0  0  0  0  0  0  0  0  0
  1  2  1  0
  2  3  2  0
  3  4  1  0
  4  5  2  0
  5  6  1  0
  6  7  2  0
  7  8  1  0
  8  9  2  0
  9 10  1  0
 10 11  2  0
 11 12  1  0
 12 13  1  0
 13 14  2  0
 13 15  1  0
 15 16  1  0
 16 17  1  0
 17 18  1  0
 12 19  2  0
 19 20  1  0
 20 21  2  0
 21 22  1  0
  9 23  1  0
 23 24  1  0
 23 25  2  0
  5 26  1  0
 26  2  1  0
 25  6  1  0
 21 10  1  0
 18 16  1  0
  1 27  1  0
  1 28  1  0
  1 29  1  0
  7 30  1  0
  8 31  1  0
 11 32  1  0
 15 33  1  0
 16 34  1  0
 17 35  1  0
 17 36  1  0
 18 37  1  0
 18 38  1  0
 19 39  1  0
 20 40  1  0
 22 41  1  0
 22 42  1  0
 22 43  1  0
 24 44  1  0
 24 45  1  0
 24 46  1  0
 25 47  1  0
M  END
>  <meeko>  (6) 
{"is_sidechain": [false], "free_energy": -7.413, "intermolecular_energy": -9.153, "internal_energy": -1.125}

$$$$
3e92_ligand
     RDKit          3D

 47 50  0  0  0  0  0  0  0  0999 V2000
   -0.8600    8.0490    6.8820 C   0  0  0  0  0  0  0  0  0  0  0  0
   -1.6460    7.4270    7.9580 C   0  0  0  0  0  0  0  0  0  0  0  0
   -2.1950    7.9710    9.0220 N   0  0  0  0  0  0  0  0  0  0  0  0
   -2.8160    6.9440    9.7030 N   0  0  0  0  0  0  0  0  0  0  0  0
   -2.6030    5.8440    9.0070 C   0  0  0  0  0  0  0  0  0  0  0  0
   -3.0290    4.4730    9.2620 C   0  0  0  0  0  0  0  0  0  0  0  0
   -3.1650    3.5830    8.1910 C   0  0  0  0  0  0  0  0  0  0  0  0
   -3.5740    2.2640    8.4080 C   0  0  0  0  0  0  0  0  0  0  0  0
   -3.8540    1.7940    9.7020 C   0  0  0  0  0  0  0  0  0  0  0  0
   -4.2890    0.3970    9.8770 C   0  0  0  0  0  0  0  0  0  0  0  0
   -3.3140   -0.6040   10.0410 C   0  0  0  0  0  0  0  0  0  0  0  0
   -3.6740   -1.9440   10.2200 C   0  0  0  0  0  0  0  0  0  0  0  0
   -2.5920   -2.9530   10.3800 C   0  0  0  0  0  0  0  0  0  0  0  0
   -2.8090   -3.9930   10.9930 O   0  0  0  0  0  0  0  0  0  0  0  0
   -1.3870   -2.6490    9.7740 N   0  0  0  0  0  0  0  0  0  0  0  0
   -0.2790   -3.5500    9.8070 C   0  0  0  0  0  0  0  0  0  0  0  0
    1.0540   -3.0930   10.3300 C   0  0  0  0  0  0  0  0  0  0  0  0
    0.8820   -3.3700    8.8660 C   0  0  0  0  0  0  0  0  0  0  0  0
   -5.0240   -2.3040   10.2170 C   0  0  0  0  0  0  0  0  0  0  0  0
   -6.0050   -1.3220   10.0570 C   0  0  0  0  0  0  0  0  0  0  0  0
   -5.6530    0.0270    9.8880 C   0  0  0  0  0  0  0  0  0  0  0  0
   -6.7450    1.0510    9.7180 C   0  0  0  0  0  0  0  0  0  0  0  0
   -3.7180    2.6820   10.7900 C   0  0  0  0  0  0  0  0  0  0  0  0
   -4.0170    2.2480   12.2010 C   0  0  0  0  0  0  0  0  0  0  0  0
   -3.3110    4.0100   10.5560 C   0  0  0  0  0  0  0  0  0  0  0  0
   -1.8610    6.0780    7.8740 O   0  0  0  0  0  0  0  0  0  0  0  0
   -0.0690    8.6750    7.3206 H   0  0  0  0  0  0  0  0  0  0  0  0
   -0.4042    7.2643    6.2603 H   0  0  0  0  0  0  0  0  0  0  0  0
   -1.5189    8.6729    6.2603 H   0  0  0  0  0  0  0  0  0  0  0  0
   -2.9479    3.9246    7.1682 H   0  0  0  0  0  0  0  0  0  0  0  0
   -3.6784    1.5824    7.5509 H   0  0  0  0  0  0  0  0  0  0  0  0
   -2.2493   -0.3280   10.0282 H   0  0  0  0  0  0  0  0  0  0  0  0
   -1.3440   -1.8670    9.1320 H   0  0  0  0  0  0  0  0  0  0  0  0
   -0.9688   -4.3741   10.0417 H   0  0  0  0  0  0  0  0  0  0  0  0
    1.1808   -2.0587   10.6824 H   0  0  0  0  0  0  0  0  0  0  0  0
    1.7439   -3.4445   11.1113 H   0  0  0  0  0  0  0  0  0  0  0  0
    0.8821   -2.5389    8.1453 H   0  0  0  0  0  0  0  0  0  0  0  0
    1.3927   -4.0084    8.1300 H   0  0  0  0  0  0  0  0  0  0  0  0
   -5.3138   -3.3579   10.3403 H   0  0  0  0  0  0  0  0  0  0  0  0
   -7.0668   -1.6093   10.0635 H   0  0  0  0  0  0  0  0  0  0  0  0
   -7.0961    1.3803   10.7071 H   0  0  0  0  0  0  0  0  0  0  0  0
   -6.3537    1.9153    9.1614 H   0  0  0  0  0  0  0  0  0  0  0  0
   -7.5824    0.6050    9.1614 H   0  0  0  0  0  0  0  0  0  0  0  0
   -3.5386    2.9424   12.9074 H   0  0  0  0  0  0  0  0  0  0  0  0
   -5.1050    2.2519   12.3631 H   0  0  0  0  0  0  0  0  0  0  0  0
   -3.6258    1.2328   12.3631 H   0  0  0  0  0  0  0  0  0  0  0  0
   -3.2120    4.6997   11.4071 H   0  0  0  0  0  0  0  0  0  0  0  0
  1  2  1  0
  2  3  2  0
  3  4  1  0
  4  5  2  0
  5  6  1  0
  6  7  2  0
  7  8  1  0
  8  9  2  0
  9 10  1  0
 10 11  2  0
 11 12  1  0
 12 13  1  0
 13 14  2  0
 13 15  1  0
 15 16  1  0
 16 17  1  0
 17 18  1  0
 12 19  2  0
 19 20  1  0
 20 21  2  0
 21 22  1  0
  9 23  1  0
 23 24  1  0
 23 25  2  0
  5 26  1  0
 26  2  1  0
 25  6  1  0
 21 10  1  0
 18 16  1  0
  1 27  1  0
  1 28  1  0
  1 29  1  0
  7 30  1  0
  8 31  1  0
 11 32  1  0
 15 33  1  0
 16 34  1  0
 17 35  1  0
 17 36  1  0
 18 37  1  0
 18 38  1  0
 19 39  1  0
 20 40  1  0
 22 41  1  0
 22 42  1  0
 22 43  1  0
 24 44  1  0
 24 45  1  0
 24 46  1  0
 25 47  1  0
M  END
>  <meeko>  (7) 
{"is_sidechain": [false], "free_energy": -7.321, "intermolecular_energy": -8.958, "internal_energy": -1.207}

$$$$
3e92_ligand
     RDKit          3D

 47 50  0  0  0  0  0  0  0  0999 V2000
    5.7630    0.1030    8.6670 C   0  0  0  0  0  0  0  0  0  0  0  0
    4.4570   -0.2090    9.2670 C   0  0  0  0  0  0  0  0  0  0  0  0
    4.0690   -1.2750    9.9300 N   0  0  0  0  0  0  0  0  0  0  0  0
    2.7490   -1.0590   10.2700 N   0  0  0  0  0  0  0  0  0  0  0  0
    2.4240    0.1260    9.7910 C   0  0  0  0  0  0  0  0  0  0  0  0
    1.1610    0.8520    9.8590 C   0  0  0  0  0  0  0  0  0  0  0  0
    0.7460    1.4020   11.0760 C   0  0  0  0  0  0  0  0  0  0  0  0
   -0.4610    2.1000   11.1680 C   0  0  0  0  0  0  0  0  0  0  0  0
   -1.2870    2.2760   10.0450 C   0  0  0  0  0  0  0  0  0  0  0  0
   -2.5530    3.0140   10.1970 C   0  0  0  0  0  0  0  0  0  0  0  0
   -3.7180    2.3040   10.5380 C   0  0  0  0  0  0  0  0  0  0  0  0
   -4.9440    2.9590   10.7040 C   0  0  0  0  0  0  0  0  0  0  0  0
   -6.1390    2.1460   11.0560 C   0  0  0  0  0  0  0  0  0  0  0  0
   -7.0690    2.6580   11.6710 O   0  0  0  0  0  0  0  0  0  0  0  0
   -6.1280    0.8340   10.6210 N   0  0  0  0  0  0  0  0  0  0  0  0
   -7.2320   -0.0450   10.8490 C   0  0  0  0  0  0  0  0  0  0  0  0
   -7.0890   -1.5210   10.6010 C   0  0  0  0  0  0  0  0  0  0  0  0
   -7.9480   -0.6890    9.6930 C   0  0  0  0  0  0  0  0  0  0  0  0
   -5.0210    4.3400   10.5100 C   0  0  0  0  0  0  0  0  0  0  0  0
   -3.8740    5.0610   10.1720 C   0  0  0  0  0  0  0  0  0  0  0  0
   -2.6370    4.4130   10.0150 C   0  0  0  0  0  0  0  0  0  0  0  0
   -1.4250    5.2310    9.6500 C   0  0  0  0  0  0  0  0  0  0  0  0
   -0.8770    1.7280    8.8110 C   0  0  0  0  0  0  0  0  0  0  0  0
   -1.7210    1.8650    7.5710 C   0  0  0  0  0  0  0  0  0  0  0  0
    0.3390    1.0210    8.7340 C   0  0  0  0  0  0  0  0  0  0  0  0
    3.4700    0.7310    9.1370 O   0  0  0  0  0  0  0  0  0  0  0  0
    6.5001    0.2791    9.4643 H   0  0  0  0  0  0  0  0  0  0  0  0
    6.0915   -0.7419    8.0440 H   0  0  0  0  0  0  0  0  0  0  0  0
    5.6742    1.0052    8.0440 H   0  0  0  0  0  0  0  0  0  0  0  0
    1.3761    1.2839   11.9699 H   0  0  0  0  0  0  0  0  0  0  0  0
   -0.7701    2.5192   12.1369 H   0  0  0  0  0  0  0  0  0  0  0  0
   -3.6649    1.2141   10.6768 H   0  0  0  0  0  0  0  0  0  0  0  0
   -5.4170    0.5400    9.9640 H   0  0  0  0  0  0  0  0  0  0  0  0
   -7.5381    0.5765   11.7034 H   0  0  0  0  0  0  0  0  0  0  0  0
   -6.1344   -1.9270   10.2350 H   0  0  0  0  0  0  0  0  0  0  0  0
   -7.2451   -2.4289   11.2021 H   0  0  0  0  0  0  0  0  0  0  0  0
   -7.6225   -0.4854    8.6622 H   0  0  0  0  0  0  0  0  0  0  0  0
   -8.9934   -0.7349    9.3539 H   0  0  0  0  0  0  0  0  0  0  0  0
   -5.9842    4.8591   10.6234 H   0  0  0  0  0  0  0  0  0  0  0  0
   -3.9395    6.1494   10.0269 H   0  0  0  0  0  0  0  0  0  0  0  0
   -0.9219    5.5705   10.5674 H   0  0  0  0  0  0  0  0  0  0  0  0
   -0.7318    4.6153    9.0581 H   0  0  0  0  0  0  0  0  0  0  0  0
   -1.7367    6.1042    9.0581 H   0  0  0  0  0  0  0  0  0  0  0  0
   -2.7692    2.0351    7.8579 H   0  0  0  0  0  0  0  0  0  0  0  0
   -1.3612    2.7165    6.9748 H   0  0  0  0  0  0  0  0  0  0  0  0
   -1.6490    0.9434    6.9748 H   0  0  0  0  0  0  0  0  0  0  0  0
    0.6513    0.5918    7.7706 H   0  0  0  0  0  0  0  0  0  0  0  0
  1  2  1  0
  2  3  2  0
  3  4  1  0
  4  5  2  0
  5  6  1  0
  6  7  2  0
  7  8  1  0
  8  9  2  0
  9 10  1  0
 10 11  2  0
 11 12  1  0
 12 13  1  0
 13 14  2  0
 13 15  1  0
 15 16  1  0
 16 17  1  0
 17 18  1  0
 12 19  2  0
 19 20  1  0
 20 21  2  0
 21 22  1  0
  9 23  1  0
 23 24  1  0
 23 25  2  0
  5 26  1  0
 26  2  1  0
 25  6  1  0
 21 10  1  0
 18 16  1  0
  1 27  1  0
  1 28  1  0
  1 29  1  0
  7 30  1  0
  8 31  1  0
 11 32  1  0
 15 33  1  0
 16 34  1  0
 17 35  1  0
 17 36  1  0
 18 37  1  0
 18 38  1  0
 19 39  1  0
 20 40  1  0
 22 41  1  0
 22 42  1  0
 22 43  1  0
 24 44  1  0
 24 45  1  0
 24 46  1  0
 25 47  1  0
M  END
>  <meeko>  (8) 
{"is_sidechain": [false], "free_energy": -7.202, "intermolecular_energy": -8.85, "internal_energy": -1.167}

$$$$
3e92_ligand
     RDKit          3D

 47 50  0  0  0  0  0  0  0  0999 V2000
    7.4770   -0.7380   10.5990 C   0  0  0  0  0  0  0  0  0  0  0  0
    6.1920   -0.7280    9.8830 C   0  0  0  0  0  0  0  0  0  0  0  0
    5.8370   -1.3510    8.7810 N   0  0  0  0  0  0  0  0  0  0  0  0
    4.5250   -0.9980    8.5440 N   0  0  0  0  0  0  0  0  0  0  0  0
    4.1690   -0.1840    9.5190 C   0  0  0  0  0  0  0  0  0  0  0  0
    2.8990    0.4870    9.7660 C   0  0  0  0  0  0  0  0  0  0  0  0
    1.7320   -0.0030    9.1690 C   0  0  0  0  0  0  0  0  0  0  0  0
    0.5020    0.6230    9.3880 C   0  0  0  0  0  0  0  0  0  0  0  0
    0.3990    1.7550   10.2140 C   0  0  0  0  0  0  0  0  0  0  0  0
   -0.9200    2.3830   10.4060 C   0  0  0  0  0  0  0  0  0  0  0  0
   -1.2890    3.4580    9.5780 C   0  0  0  0  0  0  0  0  0  0  0  0
   -2.5350    4.0820    9.7120 C   0  0  0  0  0  0  0  0  0  0  0  0
   -2.8580    5.2190    8.8090 C   0  0  0  0  0  0  0  0  0  0  0  0
   -3.9880    5.3330    8.3470 O   0  0  0  0  0  0  0  0  0  0  0  0
   -1.8320    6.1160    8.5750 N   0  0  0  0  0  0  0  0  0  0  0  0
   -2.0180    7.2790    7.7660 C   0  0  0  0  0  0  0  0  0  0  0  0
   -1.6730    7.2490    6.3030 C   0  0  0  0  0  0  0  0  0  0  0  0
   -0.8340    8.0520    7.2530 C   0  0  0  0  0  0  0  0  0  0  0  0
   -3.4230    3.6470   10.6990 C   0  0  0  0  0  0  0  0  0  0  0  0
   -3.0730    2.5790   11.5280 C   0  0  0  0  0  0  0  0  0  0  0  0
   -1.8300    1.9390   11.3930 C   0  0  0  0  0  0  0  0  0  0  0  0
   -1.4950    0.7920   12.3100 C   0  0  0  0  0  0  0  0  0  0  0  0
    1.5690    2.2570   10.8230 C   0  0  0  0  0  0  0  0  0  0  0  0
    1.5330    3.4760   11.7070 C   0  0  0  0  0  0  0  0  0  0  0  0
    2.8030    1.6200   10.5890 C   0  0  0  0  0  0  0  0  0  0  0  0
    5.1870    0.0340   10.4160 O   0  0  0  0  0  0  0  0  0  0  0  0
    7.2925   -0.7366   11.6834 H   0  0  0  0  0  0  0  0  0  0  0  0
    8.0427   -1.6406   10.3245 H   0  0  0  0  0  0  0  0  0  0  0  0
    8.0567    0.1557   10.3245 H   0  0  0  0  0  0  0  0  0  0  0  0
    1.7835   -0.8901    8.5206 H   0  0  0  0  0  0  0  0  0  0  0  0
   -0.4016    0.2225    8.9052 H   0  0  0  0  0  0  0  0  0  0  0  0
   -0.5859    3.8151    8.8111 H   0  0  0  0  0  0  0  0  0  0  0  0
   -0.9920    6.0590    9.1360 H   0  0  0  0  0  0  0  0  0  0  0  0
   -2.9152    7.5293    8.3512 H   0  0  0  0  0  0  0  0  0  0  0  0
   -1.2675    6.3311    5.8525 H   0  0  0  0  0  0  0  0  0  0  0  0
   -2.2165    7.4664    5.3717 H   0  0  0  0  0  0  0  0  0  0  0  0
    0.1863    7.7225    7.4989 H   0  0  0  0  0  0  0  0  0  0  0  0
   -0.5082    9.1013    7.3063 H   0  0  0  0  0  0  0  0  0  0  0  0
   -4.3961    4.1448   10.8229 H   0  0  0  0  0  0  0  0  0  0  0  0
   -3.7802    2.2344   12.2969 H   0  0  0  0  0  0  0  0  0  0  0  0
   -1.5905    1.1189   13.3560 H   0  0  0  0  0  0  0  0  0  0  0  0
   -2.1871   -0.0421   12.1219 H   0  0  0  0  0  0  0  0  0  0  0  0
   -0.4628    0.4615   12.1219 H   0  0  0  0  0  0  0  0  0  0  0  0
    1.5422    3.1643   12.7619 H   0  0  0  0  0  0  0  0  0  0  0  0
    2.4130    4.1035   11.5024 H   0  0  0  0  0  0  0  0  0  0  0  0
    0.6175    4.0504   11.5024 H   0  0  0  0  0  0  0  0  0  0  0  0
    3.7123    2.0194   11.0619 H   0  0  0  0  0  0  0  0  0  0  0  0
  1  2  1  0
  2  3  2  0
  3  4  1  0
  4  5  2  0
  5  6  1  0
  6  7  2  0
  7  8  1  0
  8  9  2  0
  9 10  1  0
 10 11  2  0
 11 12  1  0
 12 13  1  0
 13 14  2  0
 13 15  1  0
 15 16  1  0
 16 17  1  0
 17 18  1  0
 12 19  2  0
 19 20  1  0
 20 21  2  0
 21 22  1  0
  9 23  1  0
 23 24  1  0
 23 25  2  0
  5 26  1  0
 26  2  1  0
 25  6  1  0
 21 10  1  0
 18 16  1  0
  1 27  1  0
  1 28  1  0
  1 29  1  0
  7 30  1  0
  8 31  1  0
 11 32  1  0
 15 33  1  0
 16 34  1  0
 17 35  1  0
 17 36  1  0
 18 37  1  0
 18 38  1  0
 19 39  1  0
 20 40  1  0
 22 41  1  0
 22 42  1  0
 22 43  1  0
 24 44  1  0
 24 45  1  0
 24 46  1  0
 25 47  1  0
M  END
>  <meeko>  (9) 
{"is_sidechain": [false], "free_energy": -7.159, "intermolecular_energy": -8.766, "internal_energy": -1.198}

$$$$
