
     RDKit          3D

 50 53  0  0  0  0  0  0  0  0999 V2000
  -12.7050    2.9720    2.5070 C   0  0  0  0  0  0  0  0  0  0  0  0
  -12.8700    3.9210    1.3440 C   0  0  2  0  0  0  0  0  0  0  0  0
  -13.8600    3.3680    0.3070 C   0  0  0  0  0  0  0  0  0  0  0  0
  -11.5620    4.1660    0.6650 C   0  0  0  0  0  0  0  0  0  0  0  0
  -11.3650    5.1560   -0.1040 N   0  0  0  0  0  0  0  0  0  0  0  0
  -10.0960    5.1630   -0.6000 C   0  0  0  0  0  0  0  0  0  0  0  0
   -9.6760    6.2080   -1.5050 C   0  0  0  0  0  0  0  0  0  0  0  0
   -8.9250    7.2060   -0.7620 N   0  0  0  0  0  0  0  0  0  0  0  0
   -9.6460    8.0140    0.2200 C   0  0  0  0  0  0  0  0  0  0  0  0
   -7.5880    7.3770   -1.0030 C   0  0  0  0  0  0  0  0  0  0  0  0
   -6.9800    6.7040   -1.7990 O   0  0  0  0  0  0  0  0  0  0  0  0
   -6.9640    8.3690   -0.2800 N   0  0  0  0  0  0  0  0  0  0  0  0
   -5.5500    8.6690   -0.4590 C   0  0  2  0  0  0  0  0  0  0  0  0
   -4.9530    8.6950    0.9480 C   0  0  0  0  0  0  0  0  0  0  0  0
   -4.9110    9.6970    1.5590 O   0  0  0  0  0  0  0  0  0  0  0  0
   -4.5070    7.4850    1.4160 N   0  0  0  0  0  0  0  0  0  0  0  0
   -3.9360    7.4100    2.7580 C   0  0  1  0  0  0  0  0  0  0  0  0
   -4.7210    6.4030    3.6150 C   0  0  0  0  0  0  0  0  0  0  0  0
   -6.1840    6.5860    3.5770 C   0  0  0  0  0  0  0  0  0  0  0  0
   -6.9780    5.6490    2.9140 C   0  0  0  0  0  0  0  0  0  0  0  0
   -8.3800    5.8030    2.9240 C   0  0  0  0  0  0  0  0  0  0  0  0
   -8.9530    6.8640    3.5930 C   0  0  0  0  0  0  0  0  0  0  0  0
   -8.1660    7.7690    4.2650 C   0  0  0  0  0  0  0  0  0  0  0  0
   -6.7650    7.6300    4.2630 C   0  0  0  0  0  0  0  0  0  0  0  0
   -2.5030    6.8860    2.7780 C   0  0  0  0  0  0  0  0  0  0  0  0
   -1.6470    7.2730    1.5730 C   0  0  2  0  0  0  0  0  0  0  0  0
   -0.5060    6.4590    1.5060 O   0  0  0  0  0  0  0  0  0  0  0  0
   -1.1820    8.7470    1.6160 C   0  0  2  0  0  0  0  0  0  0  0  0
   -0.3870    9.0740    0.3580 C   0  0  0  0  0  0  0  0  0  0  0  0
   -0.0210   10.5120    0.2590 C   0  0  0  0  0  0  0  0  0  0  0  0
    1.3080   10.8780    0.4710 C   0  0  0  0  0  0  0  0  0  0  0  0
    1.6500   12.2260    0.3860 C   0  0  0  0  0  0  0  0  0  0  0  0
    0.6720   13.1730    0.0860 C   0  0  0  0  0  0  0  0  0  0  0  0
   -0.6230   12.7910   -0.1320 C   0  0  0  0  0  0  0  0  0  0  0  0
   -0.9740   11.4480   -0.0480 C   0  0  0  0  0  0  0  0  0  0  0  0
   -0.3400    8.9260    2.7950 N   0  0  0  0  0  0  0  0  0  0  0  0
   -0.5250    9.9590    3.6390 C   0  0  0  0  0  0  0  0  0  0  0  0
   -1.3490   10.8190    3.4900 O   0  0  0  0  0  0  0  0  0  0  0  0
    0.3420    9.9170    4.7080 O   0  0  0  0  0  0  0  0  0  0  0  0
    0.3520   11.0000    5.6210 C   0  0  0  0  0  0  0  0  0  0  0  0
    1.5220   11.8550    5.3270 C   0  0  0  0  0  0  0  0  0  0  0  0
    1.5420   13.1150    4.8290 C   0  0  0  0  0  0  0  0  0  0  0  0
    2.7990   13.6010    4.6370 N   0  0  0  0  0  0  0  0  0  0  0  0
    3.7350   12.7620    4.9840 C   0  0  0  0  0  0  0  0  0  0  0  0
    3.1110   11.3190    5.5810 S   0  0  0  0  0  0  0  0  0  0  0  0
   -5.3670   10.0200   -1.1910 C   0  0  1  0  0  0  0  0  0  0  0  0
   -3.9110   10.1550   -1.6540 C   0  0  0  0  0  0  0  0  0  0  0  0
   -6.2940   10.1390   -2.3640 C   0  0  0  0  0  0  0  0  0  0  0  0
   -9.2760    4.1640   -0.1800 C   0  0  0  0  0  0  0  0  0  0  0  0
  -10.1860    3.2270    0.8530 S   0  0  0  0  0  0  0  0  0  0  0  0
  2  1  1  1
  3  2  1  0
  4  2  1  0
  5  4  2  0
  6  5  1  0
  7  6  1  0
  8  7  1  0
  9  8  1  0
 10  8  1  0
 11 10  2  0
 12 10  1  0
 13 12  1  1
 14 13  1  0
 15 14  2  0
 16 14  1  0
 17 16  1  0
 17 18  1  1
 19 18  1  0
 20 19  2  0
 21 20  1  0
 22 21  2  0
 23 22  1  0
 24 23  2  0
 24 19  1  0
 25 17  1  0
 26 25  1  0
 26 27  1  1
 28 26  1  0
 28 29  1  6
 30 29  1  0
 31 30  2  0
 32 31  1  0
 33 32  2  0
 34 33  1  0
 35 30  1  0
 35 34  2  0
 36 28  1  0
 37 36  1  0
 38 37  2  0
 39 37  1  0
 40 39  1  0
 41 40  1  0
 42 41  2  0
 43 42  1  0
 44 43  2  0
 45 44  1  0
 45 41  1  0
 46 13  1  0
 46 47  1  6
 48 46  1  0
 49  6  2  0
 50  4  1  0
 50 49  1  0
M  END
$$$$
