4de3_ligand
     RDKit          3D

 31 33  0  0  0  0  0  0  0  0999 V2000
  -16.0910   -0.6050    4.8630 O   0  0  0  0  0  0  0  0  0  0  0  0
  -15.5450   -0.0600    3.9120 C   0  0  0  0  0  0  0  0  0  0  0  0
  -14.2190   -0.1680    3.5370 N   0  0  0  0  0  0  0  0  0  0  0  0
  -13.2280   -0.9910    4.1140 C   0  0  0  0  0  0  0  0  0  0  0  0
  -13.4200   -2.3750    4.0190 C   0  0  0  0  0  0  0  0  0  0  0  0
  -12.4930   -3.2630    4.5660 C   0  0  0  0  0  0  0  0  0  0  0  0
  -11.3640   -2.7740    5.2200 C   0  0  0  0  0  0  0  0  0  0  0  0
  -11.1530   -1.3920    5.3330 C   0  0  0  0  0  0  0  0  0  0  0  0
   -9.9710   -0.8890    6.0240 C   0  0  0  0  0  0  0  0  0  0  0  0
   -9.3700   -1.5630    7.0660 N   0  0  0  0  0  0  0  0  0  0  0  0
   -8.3350   -0.8300    7.4530 N   0  0  0  0  0  0  0  0  0  0  0  0
   -8.3570    0.2330    6.6430 N   0  0  0  0  0  0  0  0  0  0  0  0
   -9.3420    0.2650    5.7370 N   0  0  0  0  0  0  0  0  0  0  0  0
  -12.0950   -0.5090    4.7750 C   0  0  0  0  0  0  0  0  0  0  0  0
  -16.3590    0.8630    3.0730 C   0  0  0  0  0  0  0  0  0  0  0  0
  -16.1790    0.9450    1.6840 C   0  0  0  0  0  0  0  0  0  0  0  0
  -16.9640    1.8180    0.9290 C   0  0  0  0  0  0  0  0  0  0  0  0
  -17.9320    2.6050    1.5550 C   0  0  0  0  0  0  0  0  0  0  0  0
  -18.1210    2.5070    2.9350 C   0  0  0  0  0  0  0  0  0  0  0  0
  -19.4440    3.5650    3.7750 Br  0  0  0  0  0  0  0  0  0  0  0  0
  -17.3440    1.6370    3.6970 C   0  0  0  0  0  0  0  0  0  0  0  0
  -13.8950    0.4630    2.8150 H   0  0  0  0  0  0  0  0  0  0  0  0
  -14.3116   -2.7665    3.5074 H   0  0  0  0  0  0  0  0  0  0  0  0
  -12.6534   -4.3479    4.4810 H   0  0  0  0  0  0  0  0  0  0  0  0
  -10.6342   -3.4757    5.6501 H   0  0  0  0  0  0  0  0  0  0  0  0
   -7.6630    0.9730    6.7130 H   0  0  0  0  0  0  0  0  0  0  0  0
  -11.9376    0.5764    4.8601 H   0  0  0  0  0  0  0  0  0  0  0  0
  -15.4193    0.3214    1.1900 H   0  0  0  0  0  0  0  0  0  0  0  0
  -16.8198    1.8858   -0.1594 H   0  0  0  0  0  0  0  0  0  0  0  0
  -18.5445    3.3007    0.9627 H   0  0  0  0  0  0  0  0  0  0  0  0
  -17.5038    1.5590    4.7825 H   0  0  0  0  0  0  0  0  0  0  0  0
  1  2  2  0
  2  3  1  0
  3  4  1  0
  4  5  2  0
  5  6  1  0
  6  7  2  0
  7  8  1  0
  8  9  1  0
  9 10  1  0
 10 11  2  0
 11 12  1  0
 12 13  1  0
  8 14  2  0
  2 15  1  0
 15 16  2  0
 16 17  1  0
 17 18  2  0
 18 19  1  0
 19 20  1  0
 19 21  2  0
 14  4  1  0
 21 15  1  0
 13  9  2  0
  3 22  1  0
  5 23  1  0
  6 24  1  0
  7 25  1  0
 12 26  1  0
 14 27  1  0
 16 28  1  0
 17 29  1  0
 18 30  1  0
 21 31  1  0
M  END
>  <meeko>  (1) 
{"is_sidechain": [false], "free_energy": -6.658, "intermolecular_energy": -7.826, "internal_energy": -0.392}

$$$$
4de3_ligand
     RDKit          3D

 31 33  0  0  0  0  0  0  0  0999 V2000
   -6.4520   -4.7840    8.7840 O   0  0  0  0  0  0  0  0  0  0  0  0
   -6.8940   -4.8140    9.9250 C   0  0  0  0  0  0  0  0  0  0  0  0
   -8.0740   -4.2550   10.3790 N   0  0  0  0  0  0  0  0  0  0  0  0
   -9.0660   -3.6050    9.6130 C   0  0  0  0  0  0  0  0  0  0  0  0
  -10.3980   -3.9440    9.8810 C   0  0  0  0  0  0  0  0  0  0  0  0
  -11.4410   -3.3540    9.1670 C   0  0  0  0  0  0  0  0  0  0  0  0
  -11.1620   -2.4190    8.1730 C   0  0  0  0  0  0  0  0  0  0  0  0
   -9.8370   -2.0670    7.8820 C   0  0  0  0  0  0  0  0  0  0  0  0
   -9.5530   -1.0920    6.8350 C   0  0  0  0  0  0  0  0  0  0  0  0
  -10.0840   -1.1810    5.5660 N   0  0  0  0  0  0  0  0  0  0  0  0
   -9.6240   -0.1430    4.8810 N   0  0  0  0  0  0  0  0  0  0  0  0
   -8.8500    0.5150    5.7520 N   0  0  0  0  0  0  0  0  0  0  0  0
   -8.7580   -0.0160    6.9770 N   0  0  0  0  0  0  0  0  0  0  0  0
   -8.7940   -2.6690    8.6100 C   0  0  0  0  0  0  0  0  0  0  0  0
   -6.0720   -5.4770   10.9760 C   0  0  0  0  0  0  0  0  0  0  0  0
   -6.0040   -4.9720   12.2820 C   0  0  0  0  0  0  0  0  0  0  0  0
   -5.2270   -5.6250   13.2420 C   0  0  0  0  0  0  0  0  0  0  0  0
   -4.5250   -6.7820   12.9030 C   0  0  0  0  0  0  0  0  0  0  0  0
   -4.6100   -7.2910   11.6070 C   0  0  0  0  0  0  0  0  0  0  0  0
   -3.6670   -8.8670   11.1570 Br  0  0  0  0  0  0  0  0  0  0  0  0
   -5.3840   -6.6490   10.6420 C   0  0  0  0  0  0  0  0  0  0  0  0
   -8.2200   -4.2430   11.3800 H   0  0  0  0  0  0  0  0  0  0  0  0
  -10.6243   -4.6836   10.6631 H   0  0  0  0  0  0  0  0  0  0  0  0
  -12.4832   -3.6270    9.3888 H   0  0  0  0  0  0  0  0  0  0  0  0
  -11.9867   -1.9540    7.6130 H   0  0  0  0  0  0  0  0  0  0  0  0
   -8.3630    1.3680    5.4940 H   0  0  0  0  0  0  0  0  0  0  0  0
   -7.7510   -2.3998    8.3873 H   0  0  0  0  0  0  0  0  0  0  0  0
   -6.5617   -4.0627   12.5505 H   0  0  0  0  0  0  0  0  0  0  0  0
   -5.1687   -5.2267   14.2657 H   0  0  0  0  0  0  0  0  0  0  0  0
   -3.9059   -7.2917   13.6559 H   0  0  0  0  0  0  0  0  0  0  0  0
   -5.4537   -7.0609    9.6244 H   0  0  0  0  0  0  0  0  0  0  0  0
  1  2  2  0
  2  3  1  0
  3  4  1  0
  4  5  2  0
  5  6  1  0
  6  7  2  0
  7  8  1  0
  8  9  1  0
  9 10  1  0
 10 11  2  0
 11 12  1  0
 12 13  1  0
  8 14  2  0
  2 15  1  0
 15 16  2  0
 16 17  1  0
 17 18  2  0
 18 19  1  0
 19 20  1  0
 19 21  2  0
 14  4  1  0
 21 15  1  0
 13  9  2  0
  3 22  1  0
  5 23  1  0
  6 24  1  0
  7 25  1  0
 12 26  1  0
 14 27  1  0
 16 28  1  0
 17 29  1  0
 18 30  1  0
 21 31  1  0
M  END
>  <meeko>  (2) 
{"is_sidechain": [false], "free_energy": -6.597, "intermolecular_energy": -7.86, "internal_energy": -0.286}

$$$$
4de3_ligand
     RDKit          3D

 31 33  0  0  0  0  0  0  0  0999 V2000
  -12.8540   -1.6550    3.4350 O   0  0  0  0  0  0  0  0  0  0  0  0
  -13.1370   -2.4770    4.2970 C   0  0  0  0  0  0  0  0  0  0  0  0
  -12.4260   -2.7570    5.4490 N   0  0  0  0  0  0  0  0  0  0  0  0
  -11.2690   -2.1020    5.9240 C   0  0  0  0  0  0  0  0  0  0  0  0
  -11.4490   -0.8410    6.5050 C   0  0  0  0  0  0  0  0  0  0  0  0
  -10.3590   -0.1200    6.9960 C   0  0  0  0  0  0  0  0  0  0  0  0
   -9.0750   -0.6530    6.9060 C   0  0  0  0  0  0  0  0  0  0  0  0
   -8.8690   -1.9110    6.3230 C   0  0  0  0  0  0  0  0  0  0  0  0
   -7.5210   -2.4600    6.2270 C   0  0  0  0  0  0  0  0  0  0  0  0
   -6.8970   -3.0980    7.2780 N   0  0  0  0  0  0  0  0  0  0  0  0
   -5.6980   -3.4660    6.8500 N   0  0  0  0  0  0  0  0  0  0  0  0
   -5.6520   -3.0410    5.5830 N   0  0  0  0  0  0  0  0  0  0  0  0
   -6.7420   -2.4090    5.1320 N   0  0  0  0  0  0  0  0  0  0  0  0
   -9.9770   -2.6280    5.8330 C   0  0  0  0  0  0  0  0  0  0  0  0
  -14.3500   -3.3170    4.0920 C   0  0  0  0  0  0  0  0  0  0  0  0
  -15.6410   -2.7910    4.2450 C   0  0  0  0  0  0  0  0  0  0  0  0
  -16.7550   -3.6080    4.0400 C   0  0  0  0  0  0  0  0  0  0  0  0
  -16.5840   -4.9440    3.6750 C   0  0  0  0  0  0  0  0  0  0  0  0
  -15.2970   -5.4580    3.5060 C   0  0  0  0  0  0  0  0  0  0  0  0
  -15.0710   -7.2650    2.9980 Br  0  0  0  0  0  0  0  0  0  0  0  0
  -14.1790   -4.6510    3.7070 C   0  0  0  0  0  0  0  0  0  0  0  0
  -12.7170   -3.5660    5.9820 H   0  0  0  0  0  0  0  0  0  0  0  0
  -12.4602   -0.4137    6.5754 H   0  0  0  0  0  0  0  0  0  0  0  0
  -10.5139    0.8682    7.4536 H   0  0  0  0  0  0  0  0  0  0  0  0
   -8.2180   -0.0834    7.2946 H   0  0  0  0  0  0  0  0  0  0  0  0
   -4.8340   -3.1930    4.9980 H   0  0  0  0  0  0  0  0  0  0  0  0
   -9.8241   -3.6152    5.3724 H   0  0  0  0  0  0  0  0  0  0  0  0
  -15.7760   -1.7361    4.5261 H   0  0  0  0  0  0  0  0  0  0  0  0
  -17.7679   -3.1981    4.1663 H   0  0  0  0  0  0  0  0  0  0  0  0
  -17.4607   -5.5903    3.5209 H   0  0  0  0  0  0  0  0  0  0  0  0
  -13.1681   -5.0604    3.5638 H   0  0  0  0  0  0  0  0  0  0  0  0
  1  2  2  0
  2  3  1  0
  3  4  1  0
  4  5  2  0
  5  6  1  0
  6  7  2  0
  7  8  1  0
  8  9  1  0
  9 10  1  0
 10 11  2  0
 11 12  1  0
 12 13  1  0
  8 14  2  0
  2 15  1  0
 15 16  2  0
 16 17  1  0
 17 18  2  0
 18 19  1  0
 19 20  1  0
 19 21  2  0
 14  4  1  0
 21 15  1  0
 13  9  2  0
  3 22  1  0
  5 23  1  0
  6 24  1  0
  7 25  1  0
 12 26  1  0
 14 27  1  0
 16 28  1  0
 17 29  1  0
 18 30  1  0
 21 31  1  0
M  END
>  <meeko>  (3) 
{"is_sidechain": [false], "free_energy": -6.511, "intermolecular_energy": -7.606, "internal_energy": -0.438}

$$$$
4de3_ligand
     RDKit          3D

 31 33  0  0  0  0  0  0  0  0999 V2000
  -13.1170   -3.3540    4.9360 O   0  0  0  0  0  0  0  0  0  0  0  0
  -13.1900   -2.1630    5.2110 C   0  0  0  0  0  0  0  0  0  0  0  0
  -12.4000   -1.4620    6.1030 N   0  0  0  0  0  0  0  0  0  0  0  0
  -11.2880   -1.9440    6.8260 C   0  0  0  0  0  0  0  0  0  0  0  0
  -11.5050   -2.2930    8.1650 C   0  0  0  0  0  0  0  0  0  0  0  0
  -10.4600   -2.7730    8.9550 C   0  0  0  0  0  0  0  0  0  0  0  0
   -9.1820   -2.9050    8.4140 C   0  0  0  0  0  0  0  0  0  0  0  0
   -8.9390   -2.5560    7.0780 C   0  0  0  0  0  0  0  0  0  0  0  0
   -7.5980   -2.6920    6.5210 C   0  0  0  0  0  0  0  0  0  0  0  0
   -7.2950   -2.3720    5.2140 N   0  0  0  0  0  0  0  0  0  0  0  0
   -6.0010   -2.6120    5.0480 N   0  0  0  0  0  0  0  0  0  0  0  0
   -5.5890   -3.0590    6.2390 N   0  0  0  0  0  0  0  0  0  0  0  0
   -6.5230   -3.1370    7.1950 N   0  0  0  0  0  0  0  0  0  0  0  0
  -10.0020   -2.0750    6.2920 C   0  0  0  0  0  0  0  0  0  0  0  0
  -14.2670   -1.3600    4.5650 C   0  0  0  0  0  0  0  0  0  0  0  0
  -13.9810   -0.1820    3.8610 C   0  0  0  0  0  0  0  0  0  0  0  0
  -15.0160    0.5420    3.2650 C   0  0  0  0  0  0  0  0  0  0  0  0
  -16.3320    0.0890    3.3640 C   0  0  0  0  0  0  0  0  0  0  0  0
  -16.6100   -1.0950    4.0500 C   0  0  0  0  0  0  0  0  0  0  0  0
  -18.3930   -1.7110    4.1690 Br  0  0  0  0  0  0  0  0  0  0  0  0
  -15.5840   -1.8250    4.6470 C   0  0  0  0  0  0  0  0  0  0  0  0
  -12.6860   -0.5170    6.3240 H   0  0  0  0  0  0  0  0  0  0  0  0
  -12.5104   -2.1875    8.5985 H   0  0  0  0  0  0  0  0  0  0  0  0
  -10.6444   -3.0471   10.0042 H   0  0  0  0  0  0  0  0  0  0  0  0
   -8.3600   -3.2849    9.0385 H   0  0  0  0  0  0  0  0  0  0  0  0
   -4.6220   -3.3230    6.4050 H   0  0  0  0  0  0  0  0  0  0  0  0
   -9.8193   -1.7982    5.2432 H   0  0  0  0  0  0  0  0  0  0  0  0
  -12.9427    0.1717    3.7781 H   0  0  0  0  0  0  0  0  0  0  0  0
  -14.7936    1.4697    2.7173 H   0  0  0  0  0  0  0  0  0  0  0  0
  -17.1488    0.6634    2.9026 H   0  0  0  0  0  0  0  0  0  0  0  0
  -15.8082   -2.7611    5.1794 H   0  0  0  0  0  0  0  0  0  0  0  0
  1  2  2  0
  2  3  1  0
  3  4  1  0
  4  5  2  0
  5  6  1  0
  6  7  2  0
  7  8  1  0
  8  9  1  0
  9 10  1  0
 10 11  2  0
 11 12  1  0
 12 13  1  0
  8 14  2  0
  2 15  1  0
 15 16  2  0
 16 17  1  0
 17 18  2  0
 18 19  1  0
 19 20  1  0
 19 21  2  0
 14  4  1  0
 21 15  1  0
 13  9  2  0
  3 22  1  0
  5 23  1  0
  6 24  1  0
  7 25  1  0
 12 26  1  0
 14 27  1  0
 16 28  1  0
 17 29  1  0
 18 30  1  0
 21 31  1  0
M  END
>  <meeko>  (4) 
{"is_sidechain": [false], "free_energy": -6.505, "intermolecular_energy": -7.559, "internal_energy": -0.48}

$$$$
4de3_ligand
     RDKit          3D

 31 33  0  0  0  0  0  0  0  0999 V2000
   -6.3990   -3.9090    8.4400 O   0  0  0  0  0  0  0  0  0  0  0  0
   -7.3320   -3.8810    9.2320 C   0  0  0  0  0  0  0  0  0  0  0  0
   -7.3800   -4.4600   10.4860 N   0  0  0  0  0  0  0  0  0  0  0  0
   -6.3380   -5.1340   11.1610 C   0  0  0  0  0  0  0  0  0  0  0  0
   -6.0210   -6.4210   10.7100 C   0  0  0  0  0  0  0  0  0  0  0  0
   -5.0100   -7.1610   11.3230 C   0  0  0  0  0  0  0  0  0  0  0  0
   -4.3060   -6.6220   12.3980 C   0  0  0  0  0  0  0  0  0  0  0  0
   -4.6100   -5.3370   12.8710 C   0  0  0  0  0  0  0  0  0  0  0  0
   -3.8730   -4.7820   14.0000 C   0  0  0  0  0  0  0  0  0  0  0  0
   -3.0480   -5.5430   14.8020 N   0  0  0  0  0  0  0  0  0  0  0  0
   -2.5430   -4.7290   15.7190 N   0  0  0  0  0  0  0  0  0  0  0  0
   -3.0760   -3.5350   15.4350 N   0  0  0  0  0  0  0  0  0  0  0  0
   -3.9090   -3.4950   14.3880 N   0  0  0  0  0  0  0  0  0  0  0  0
   -5.6310   -4.6010   12.2430 C   0  0  0  0  0  0  0  0  0  0  0  0
   -8.5870   -3.1960    8.8120 C   0  0  0  0  0  0  0  0  0  0  0  0
   -9.8360   -3.5750    9.3220 C   0  0  0  0  0  0  0  0  0  0  0  0
  -10.9900   -2.9060    8.9090 C   0  0  0  0  0  0  0  0  0  0  0  0
  -10.8990   -1.8560    7.9930 C   0  0  0  0  0  0  0  0  0  0  0  0
   -9.6510   -1.4700    7.5020 C   0  0  0  0  0  0  0  0  0  0  0  0
   -9.5320   -0.0390    6.2720 Br  0  0  0  0  0  0  0  0  0  0  0  0
   -8.4930   -2.1300    7.9090 C   0  0  0  0  0  0  0  0  0  0  0  0
   -8.2780   -4.4690   10.9530 H   0  0  0  0  0  0  0  0  0  0  0  0
   -6.5750   -6.8530    9.8635 H   0  0  0  0  0  0  0  0  0  0  0  0
   -4.7684   -8.1701   10.9578 H   0  0  0  0  0  0  0  0  0  0  0  0
   -3.5078   -7.2072   12.8781 H   0  0  0  0  0  0  0  0  0  0  0  0
   -2.8580   -2.7090   15.9850 H   0  0  0  0  0  0  0  0  0  0  0  0
   -5.8764   -3.5928   12.6080 H   0  0  0  0  0  0  0  0  0  0  0  0
   -9.9073   -4.3990   10.0472 H   0  0  0  0  0  0  0  0  0  0  0  0
  -11.9712   -3.2063    9.3054 H   0  0  0  0  0  0  0  0  0  0  0  0
  -11.8083   -1.3346    7.6594 H   0  0  0  0  0  0  0  0  0  0  0  0
   -7.5119   -1.8157    7.5235 H   0  0  0  0  0  0  0  0  0  0  0  0
  1  2  2  0
  2  3  1  0
  3  4  1  0
  4  5  2  0
  5  6  1  0
  6  7  2  0
  7  8  1  0
  8  9  1  0
  9 10  1  0
 10 11  2  0
 11 12  1  0
 12 13  1  0
  8 14  2  0
  2 15  1  0
 15 16  2  0
 16 17  1  0
 17 18  2  0
 18 19  1  0
 19 20  1  0
 19 21  2  0
 14  4  1  0
 21 15  1  0
 13  9  2  0
  3 22  1  0
  5 23  1  0
  6 24  1  0
  7 25  1  0
 12 26  1  0
 14 27  1  0
 16 28  1  0
 17 29  1  0
 18 30  1  0
 21 31  1  0
M  END
>  <meeko>  (5) 
{"is_sidechain": [false], "free_energy": -6.448, "intermolecular_energy": -7.527, "internal_energy": -0.444}

$$$$
4de3_ligand
     RDKit          3D

 31 33  0  0  0  0  0  0  0  0999 V2000
  -12.3600   -2.4590    4.2610 O   0  0  0  0  0  0  0  0  0  0  0  0
  -12.8950   -1.5890    4.9370 C   0  0  0  0  0  0  0  0  0  0  0  0
  -12.3490   -0.9160    6.0140 N   0  0  0  0  0  0  0  0  0  0  0  0
  -11.0340   -1.0210    6.5150 C   0  0  0  0  0  0  0  0  0  0  0  0
  -10.0900   -0.1160    6.0150 C   0  0  0  0  0  0  0  0  0  0  0  0
   -8.7650   -0.1530    6.4510 C   0  0  0  0  0  0  0  0  0  0  0  0
   -8.3690   -1.1020    7.3910 C   0  0  0  0  0  0  0  0  0  0  0  0
   -9.2940   -2.0230    7.9030 C   0  0  0  0  0  0  0  0  0  0  0  0
   -8.8690   -3.0160    8.8820 C   0  0  0  0  0  0  0  0  0  0  0  0
   -9.7600   -3.7700    9.6180 N   0  0  0  0  0  0  0  0  0  0  0  0
   -9.0410   -4.5620   10.4010 N   0  0  0  0  0  0  0  0  0  0  0  0
   -7.7720   -4.2570   10.1090 N   0  0  0  0  0  0  0  0  0  0  0  0
   -7.5910   -3.3090    9.1810 N   0  0  0  0  0  0  0  0  0  0  0  0
  -10.6270   -1.9730    7.4550 C   0  0  0  0  0  0  0  0  0  0  0  0
  -14.3040   -1.2240    4.6210 C   0  0  0  0  0  0  0  0  0  0  0  0
  -15.3630   -1.5830    5.4670 C   0  0  0  0  0  0  0  0  0  0  0  0
  -16.6710   -1.2180    5.1400 C   0  0  0  0  0  0  0  0  0  0  0  0
  -16.9230   -0.4920    3.9750 C   0  0  0  0  0  0  0  0  0  0  0  0
  -15.8640   -0.1220    3.1450 C   0  0  0  0  0  0  0  0  0  0  0  0
  -16.2100    0.8740    1.5750 Br  0  0  0  0  0  0  0  0  0  0  0  0
  -14.5550   -0.4790    3.4630 C   0  0  0  0  0  0  0  0  0  0  0  0
  -12.9750   -0.3320    6.5540 H   0  0  0  0  0  0  0  0  0  0  0  0
  -10.3964    0.6329    5.2698 H   0  0  0  0  0  0  0  0  0  0  0  0
   -8.0340    0.5662    6.0530 H   0  0  0  0  0  0  0  0  0  0  0  0
   -7.3241   -1.1289    7.7337 H   0  0  0  0  0  0  0  0  0  0  0  0
   -6.9920   -4.7220   10.5660 H   0  0  0  0  0  0  0  0  0  0  0  0
  -11.3591   -2.6928    7.8497 H   0  0  0  0  0  0  0  0  0  0  0  0
  -15.1639   -2.1516    6.3874 H   0  0  0  0  0  0  0  0  0  0  0  0
  -17.5028   -1.5029    5.8010 H   0  0  0  0  0  0  0  0  0  0  0  0
  -17.9537   -0.2122    3.7117 H   0  0  0  0  0  0  0  0  0  0  0  0
  -13.7243   -0.1772    2.8081 H   0  0  0  0  0  0  0  0  0  0  0  0
  1  2  2  0
  2  3  1  0
  3  4  1  0
  4  5  2  0
  5  6  1  0
  6  7  2  0
  7  8  1  0
  8  9  1  0
  9 10  1  0
 10 11  2  0
 11 12  1  0
 12 13  1  0
  8 14  2  0
  2 15  1  0
 15 16  2  0
 16 17  1  0
 17 18  2  0
 18 19  1  0
 19 20  1  0
 19 21  2  0
 14  4  1  0
 21 15  1  0
 13  9  2  0
  3 22  1  0
  5 23  1  0
  6 24  1  0
  7 25  1  0
 12 26  1  0
 14 27  1  0
 16 28  1  0
 17 29  1  0
 18 30  1  0
 21 31  1  0
M  END
>  <meeko>  (6) 
{"is_sidechain": [false], "free_energy": -6.433, "intermolecular_energy": -7.474, "internal_energy": -0.479}

$$$$
4de3_ligand
     RDKit          3D

 31 33  0  0  0  0  0  0  0  0999 V2000
  -12.8580   -1.4430    3.4340 O   0  0  0  0  0  0  0  0  0  0  0  0
  -13.1180   -2.3050    4.2640 C   0  0  0  0  0  0  0  0  0  0  0  0
  -12.3820   -2.6310    5.3880 N   0  0  0  0  0  0  0  0  0  0  0  0
  -11.2200   -1.9890    5.8690 C   0  0  0  0  0  0  0  0  0  0  0  0
  -11.3850   -0.7160    6.4280 C   0  0  0  0  0  0  0  0  0  0  0  0
  -10.2900   -0.0080    6.9230 C   0  0  0  0  0  0  0  0  0  0  0  0
   -9.0140   -0.5650    6.8580 C   0  0  0  0  0  0  0  0  0  0  0  0
   -8.8220   -1.8350    6.2970 C   0  0  0  0  0  0  0  0  0  0  0  0
   -7.4840   -2.4090    6.2290 C   0  0  0  0  0  0  0  0  0  0  0  0
   -6.8700   -3.0080    7.3090 N   0  0  0  0  0  0  0  0  0  0  0  0
   -5.6770   -3.4140    6.8980 N   0  0  0  0  0  0  0  0  0  0  0  0
   -5.6240   -3.0490    5.6130 N   0  0  0  0  0  0  0  0  0  0  0  0
   -6.7040   -2.4210    5.1330 N   0  0  0  0  0  0  0  0  0  0  0  0
   -9.9360   -2.5390    5.8040 C   0  0  0  0  0  0  0  0  0  0  0  0
  -14.3300   -3.1440    4.0460 C   0  0  0  0  0  0  0  0  0  0  0  0
  -14.2320   -4.5030    3.7160 C   0  0  0  0  0  0  0  0  0  0  0  0
  -15.3900   -5.2590    3.5240 C   0  0  0  0  0  0  0  0  0  0  0  0
  -16.6440   -4.6640    3.6660 C   0  0  0  0  0  0  0  0  0  0  0  0
  -16.7370   -3.3150    4.0120 C   0  0  0  0  0  0  0  0  0  0  0  0
  -18.4390   -2.5170    4.2170 Br  0  0  0  0  0  0  0  0  0  0  0  0
  -15.5880   -2.5520    4.2080 C   0  0  0  0  0  0  0  0  0  0  0  0
  -12.6570   -3.4660    5.8900 H   0  0  0  0  0  0  0  0  0  0  0  0
  -12.3891   -0.2694    6.4773 H   0  0  0  0  0  0  0  0  0  0  0  0
  -10.4333    0.9893    7.3644 H   0  0  0  0  0  0  0  0  0  0  0  0
   -8.1523   -0.0044    7.2494 H   0  0  0  0  0  0  0  0  0  0  0  0
   -4.8090   -3.2410    5.0370 H   0  0  0  0  0  0  0  0  0  0  0  0
   -9.7949   -3.5360    5.3612 H   0  0  0  0  0  0  0  0  0  0  0  0
  -13.2435   -4.9734    3.6084 H   0  0  0  0  0  0  0  0  0  0  0  0
  -15.3137   -6.3243    3.2606 H   0  0  0  0  0  0  0  0  0  0  0  0
  -17.5569   -5.2564    3.5057 H   0  0  0  0  0  0  0  0  0  0  0  0
  -15.6688   -1.4914    4.4882 H   0  0  0  0  0  0  0  0  0  0  0  0
  1  2  2  0
  2  3  1  0
  3  4  1  0
  4  5  2  0
  5  6  1  0
  6  7  2  0
  7  8  1  0
  8  9  1  0
  9 10  1  0
 10 11  2  0
 11 12  1  0
 12 13  1  0
  8 14  2  0
  2 15  1  0
 15 16  2  0
 16 17  1  0
 17 18  2  0
 18 19  1  0
 19 20  1  0
 19 21  2  0
 14  4  1  0
 21 15  1  0
 13  9  2  0
  3 22  1  0
  5 23  1  0
  6 24  1  0
  7 25  1  0
 12 26  1  0
 14 27  1  0
 16 28  1  0
 17 29  1  0
 18 30  1  0
 21 31  1  0
M  END
>  <meeko>  (7) 
{"is_sidechain": [false], "free_energy": -6.4, "intermolecular_energy": -7.495, "internal_energy": -0.419}

$$$$
4de3_ligand
     RDKit          3D

 31 33  0  0  0  0  0  0  0  0999 V2000
  -13.2000   -1.1270    7.8870 O   0  0  0  0  0  0  0  0  0  0  0  0
  -12.4460   -1.3250    6.9430 C   0  0  0  0  0  0  0  0  0  0  0  0
  -12.7960   -1.5040    5.6180 N   0  0  0  0  0  0  0  0  0  0  0  0
  -14.0860   -1.4140    5.0520 C   0  0  0  0  0  0  0  0  0  0  0  0
  -15.0080   -2.4040    5.4150 C   0  0  0  0  0  0  0  0  0  0  0  0
  -16.3040   -2.3950    4.8990 C   0  0  0  0  0  0  0  0  0  0  0  0
  -16.6900   -1.3970    4.0060 C   0  0  0  0  0  0  0  0  0  0  0  0
  -15.7840   -0.3990    3.6220 C   0  0  0  0  0  0  0  0  0  0  0  0
  -16.1950    0.6390    2.6840 C   0  0  0  0  0  0  0  0  0  0  0  0
  -16.9710    1.7160    3.0540 N   0  0  0  0  0  0  0  0  0  0  0  0
  -17.1530    2.4530    1.9660 N   0  0  0  0  0  0  0  0  0  0  0  0
  -16.4900    1.7990    1.0060 N   0  0  0  0  0  0  0  0  0  0  0  0
  -15.8770    0.6680    1.3770 N   0  0  0  0  0  0  0  0  0  0  0  0
  -14.4810   -0.4190    4.1530 C   0  0  0  0  0  0  0  0  0  0  0  0
  -10.9870   -1.4360    7.2250 C   0  0  0  0  0  0  0  0  0  0  0  0
  -10.0630   -0.5340    6.6770 C   0  0  0  0  0  0  0  0  0  0  0  0
   -8.7040   -0.6670    6.9680 C   0  0  0  0  0  0  0  0  0  0  0  0
   -8.2660   -1.6920    7.8070 C   0  0  0  0  0  0  0  0  0  0  0  0
   -9.1900   -2.5760    8.3650 C   0  0  0  0  0  0  0  0  0  0  0  0
   -8.5930   -3.9540    9.5130 Br  0  0  0  0  0  0  0  0  0  0  0  0
  -10.5490   -2.4510    8.0830 C   0  0  0  0  0  0  0  0  0  0  0  0
  -12.0630   -1.8030    4.9870 H   0  0  0  0  0  0  0  0  0  0  0  0
  -14.7067   -3.1974    6.1148 H   0  0  0  0  0  0  0  0  0  0  0  0
  -17.0205   -3.1747    5.1966 H   0  0  0  0  0  0  0  0  0  0  0  0
  -17.7123   -1.3926    3.6000 H   0  0  0  0  0  0  0  0  0  0  0  0
  -16.4560    2.1440    0.0510 H   0  0  0  0  0  0  0  0  0  0  0  0
  -13.7628    0.3596    3.8564 H   0  0  0  0  0  0  0  0  0  0  0  0
  -10.4086    0.2769    6.0190 H   0  0  0  0  0  0  0  0  0  0  0  0
   -7.9779    0.0370    6.5354 H   0  0  0  0  0  0  0  0  0  0  0  0
   -7.1942   -1.8030    8.0282 H   0  0  0  0  0  0  0  0  0  0  0  0
  -11.2733   -3.1463    8.5323 H   0  0  0  0  0  0  0  0  0  0  0  0
  1  2  2  0
  2  3  1  0
  3  4  1  0
  4  5  2  0
  5  6  1  0
  6  7  2  0
  7  8  1  0
  8  9  1  0
  9 10  1  0
 10 11  2  0
 11 12  1  0
 12 13  1  0
  8 14  2  0
  2 15  1  0
 15 16  2  0
 16 17  1  0
 17 18  2  0
 18 19  1  0
 19 20  1  0
 19 21  2  0
 14  4  1  0
 21 15  1  0
 13  9  2  0
  3 22  1  0
  5 23  1  0
  6 24  1  0
  7 25  1  0
 12 26  1  0
 14 27  1  0
 16 28  1  0
 17 29  1  0
 18 30  1  0
 21 31  1  0
M  END
>  <meeko>  (8) 
{"is_sidechain": [false], "free_energy": -6.31, "intermolecular_energy": -7.434, "internal_energy": -0.375}

$$$$
4de3_ligand
     RDKit          3D

 31 33  0  0  0  0  0  0  0  0999 V2000
  -12.3920   -0.9350    4.0060 O   0  0  0  0  0  0  0  0  0  0  0  0
  -12.2290   -1.5820    5.0320 C   0  0  0  0  0  0  0  0  0  0  0  0
  -13.0960   -2.5070    5.5820 N   0  0  0  0  0  0  0  0  0  0  0  0
  -14.3160   -2.9680    5.0400 C   0  0  0  0  0  0  0  0  0  0  0  0
  -15.4670   -2.2380    5.3600 C   0  0  0  0  0  0  0  0  0  0  0  0
  -16.7160   -2.6250    4.8720 C   0  0  0  0  0  0  0  0  0  0  0  0
  -16.8260   -3.7540    4.0620 C   0  0  0  0  0  0  0  0  0  0  0  0
  -15.6890   -4.5050    3.7330 C   0  0  0  0  0  0  0  0  0  0  0  0
  -15.8140   -5.6870    2.8890 C   0  0  0  0  0  0  0  0  0  0  0  0
  -16.7660   -5.8010    1.8980 N   0  0  0  0  0  0  0  0  0  0  0  0
  -16.5970   -6.9890    1.3340 N   0  0  0  0  0  0  0  0  0  0  0  0
  -15.5690   -7.5290    1.9980 N   0  0  0  0  0  0  0  0  0  0  0  0
  -15.0380   -6.7820    2.9730 N   0  0  0  0  0  0  0  0  0  0  0  0
  -14.4360   -4.1010    4.2300 C   0  0  0  0  0  0  0  0  0  0  0  0
  -10.9910   -1.3390    5.8250 C   0  0  0  0  0  0  0  0  0  0  0  0
  -10.2010   -0.1980    5.6210 C   0  0  0  0  0  0  0  0  0  0  0  0
   -9.0500   -0.0010    6.3870 C   0  0  0  0  0  0  0  0  0  0  0  0
   -8.6890   -0.9360    7.3580 C   0  0  0  0  0  0  0  0  0  0  0  0
   -9.4880   -2.0610    7.5700 C   0  0  0  0  0  0  0  0  0  0  0  0
   -9.0010   -3.3170    8.8960 Br  0  0  0  0  0  0  0  0  0  0  0  0
  -10.6390   -2.2660    6.8120 C   0  0  0  0  0  0  0  0  0  0  0  0
  -12.8780   -2.8450    6.5110 H   0  0  0  0  0  0  0  0  0  0  0  0
  -15.3860   -1.3494    6.0033 H   0  0  0  0  0  0  0  0  0  0  0  0
  -17.6122   -2.0400    5.1262 H   0  0  0  0  0  0  0  0  0  0  0  0
  -17.8113   -4.0576    3.6785 H   0  0  0  0  0  0  0  0  0  0  0  0
  -15.2140   -8.4540    1.7710 H   0  0  0  0  0  0  0  0  0  0  0  0
  -13.5385   -4.6848    3.9776 H   0  0  0  0  0  0  0  0  0  0  0  0
  -10.4878    0.5410    4.8583 H   0  0  0  0  0  0  0  0  0  0  0  0
   -8.4278    0.8915    6.2249 H   0  0  0  0  0  0  0  0  0  0  0  0
   -7.7771   -0.7870    7.9549 H   0  0  0  0  0  0  0  0  0  0  0  0
  -11.2673   -3.1515    6.9886 H   0  0  0  0  0  0  0  0  0  0  0  0
  1  2  2  0
  2  3  1  0
  3  4  1  0
  4  5  2  0
  5  6  1  0
  6  7  2  0
  7  8  1  0
  8  9  1  0
  9 10  1  0
 10 11  2  0
 11 12  1  0
 12 13  1  0
  8 14  2  0
  2 15  1  0
 15 16  2  0
 16 17  1  0
 17 18  2  0
 18 19  1  0
 19 20  1  0
 19 21  2  0
 14  4  1  0
 21 15  1  0
 13  9  2  0
  3 22  1  0
  5 23  1  0
  6 24  1  0
  7 25  1  0
 12 26  1  0
 14 27  1  0
 16 28  1  0
 17 29  1  0
 18 30  1  0
 21 31  1  0
M  END
>  <meeko>  (9) 
{"is_sidechain": [false], "free_energy": -6.227, "intermolecular_energy": -7.193, "internal_energy": -0.518}

$$$$
