1pxn_ligand
     RDKit          3D

 37 39  0  0  0  0  0  0  0  0999 V2000
    4.0160  -10.5880    5.9990 C   0  0  0  0  0  0  0  0  0  0  0  0
    4.6790  -11.6190    5.2340 N   0  0  0  0  0  0  0  0  0  0  0  0
    4.2300  -11.8820    3.9850 C   0  0  0  0  0  0  0  0  0  0  0  0
    3.1580  -11.3560    3.4410 N   0  0  0  0  0  0  0  0  0  0  0  0
    2.9810  -11.8290    2.1500 C   0  0  0  0  0  0  0  0  0  0  0  0
    1.8220  -11.3100    1.3760 C   0  0  0  0  0  0  0  0  0  0  0  0
    3.9320  -12.7460    1.7280 C   0  0  0  0  0  0  0  0  0  0  0  0
    4.0540  -13.4790    0.4730 C   0  0  0  0  0  0  0  0  0  0  0  0
    5.2800  -13.8590   -0.0220 C   0  0  0  0  0  0  0  0  0  0  0  0
    5.2420  -14.5500   -1.2040 C   0  0  0  0  0  0  0  0  0  0  0  0
    4.1010  -14.8510   -1.8480 N   0  0  0  0  0  0  0  0  0  0  0  0
    2.9480  -14.4420   -1.2990 C   0  0  0  0  0  0  0  0  0  0  0  0
    1.7140  -14.7000   -1.8860 N   0  0  0  0  0  0  0  0  0  0  0  0
    0.5270  -13.9750   -2.0250 C   0  0  0  0  0  0  0  0  0  0  0  0
    0.4400  -13.0230   -3.0550 C   0  0  0  0  0  0  0  0  0  0  0  0
   -0.7170  -12.2610   -3.2480 C   0  0  0  0  0  0  0  0  0  0  0  0
   -1.8040  -12.4420   -2.4060 C   0  0  0  0  0  0  0  0  0  0  0  0
   -2.9120  -11.6820   -2.6230 O   0  0  0  0  0  0  0  0  0  0  0  0
   -1.7490  -13.3720   -1.3770 C   0  0  0  0  0  0  0  0  0  0  0  0
   -0.5870  -14.1310   -1.1920 C   0  0  0  0  0  0  0  0  0  0  0  0
    2.8900  -13.7600   -0.1460 N   0  0  0  0  0  0  0  0  0  0  0  0
    5.0860  -12.9800    2.9780 S   0  0  0  0  0  0  0  0  0  0  0  0
    4.1447  -10.7882    7.0729 H   0  0  0  0  0  0  0  0  0  0  0  0
    4.4547   -9.6097    5.7532 H   0  0  0  0  0  0  0  0  0  0  0  0
    2.9438  -10.5812    5.7532 H   0  0  0  0  0  0  0  0  0  0  0  0
    5.6820  -11.6800    5.3680 H   0  0  0  0  0  0  0  0  0  0  0  0
    1.0436  -10.9614    2.0707 H   0  0  0  0  0  0  0  0  0  0  0  0
    2.1496  -10.4726    0.7424 H   0  0  0  0  0  0  0  0  0  0  0  0
    1.4155  -12.1120    0.7424 H   0  0  0  0  0  0  0  0  0  0  0  0
    6.2227  -13.6248    0.4942 H   0  0  0  0  0  0  0  0  0  0  0  0
    6.1939  -14.8753   -1.6491 H   0  0  0  0  0  0  0  0  0  0  0  0
    1.7260  -15.6350   -2.2680 H   0  0  0  0  0  0  0  0  0  0  0  0
    1.3004  -12.8738   -3.7239 H   0  0  0  0  0  0  0  0  0  0  0  0
   -0.7644  -11.5230   -4.0623 H   0  0  0  0  0  0  0  0  0  0  0  0
   -3.5320  -12.1920   -3.1690 H   0  0  0  0  0  0  0  0  0  0  0  0
   -2.6131  -13.5119   -0.7109 H   0  0  0  0  0  0  0  0  0  0  0  0
   -0.5488  -14.8658   -0.3743 H   0  0  0  0  0  0  0  0  0  0  0  0
  1  2  1  0
  2  3  1  0
  3  4  2  0
  4  5  1  0
  5  6  1  0
  5  7  2  0
  7  8  1  0
  8  9  2  0
  9 10  1  0
 10 11  2  0
 11 12  1  0
 12 13  1  0
 13 14  1  0
 14 15  2  0
 15 16  1  0
 16 17  2  0
 17 18  1  0
 17 19  1  0
 19 20  2  0
 12 21  2  0
  7 22  1  0
 22  3  1  0
 21  8  1  0
 20 14  1  0
  1 23  1  0
  1 24  1  0
  1 25  1  0
  2 26  1  0
  6 27  1  0
  6 28  1  0
  6 29  1  0
  9 30  1  0
 10 31  1  0
 13 32  1  0
 15 33  1  0
 16 34  1  0
 18 35  1  0
 19 36  1  0
 20 37  1  0
M  END
>  <meeko>  (1) 
{"is_sidechain": [false], "free_energy": -8.95, "intermolecular_energy": -11.305, "internal_energy": -0.289}

$$$$
1pxn_ligand
     RDKit          3D

 37 39  0  0  0  0  0  0  0  0999 V2000
    0.9550  -10.4600    4.1450 C   0  0  0  0  0  0  0  0  0  0  0  0
    2.3780  -10.5490    4.3780 N   0  0  0  0  0  0  0  0  0  0  0  0
    3.1150  -11.3390    3.5640 C   0  0  0  0  0  0  0  0  0  0  0  0
    4.3450  -11.7290    3.8000 N   0  0  0  0  0  0  0  0  0  0  0  0
    4.8100  -12.5340    2.7720 C   0  0  0  0  0  0  0  0  0  0  0  0
    6.1850  -13.0880    2.8950 C   0  0  0  0  0  0  0  0  0  0  0  0
    3.9120  -12.7330    1.7340 C   0  0  0  0  0  0  0  0  0  0  0  0
    4.0520  -13.4730    0.4850 C   0  0  0  0  0  0  0  0  0  0  0  0
    5.2840  -13.8650    0.0150 C   0  0  0  0  0  0  0  0  0  0  0  0
    5.2620  -14.5620   -1.1640 C   0  0  0  0  0  0  0  0  0  0  0  0
    4.1310  -14.8570   -1.8290 N   0  0  0  0  0  0  0  0  0  0  0  0
    2.9720  -14.4370   -1.3030 C   0  0  0  0  0  0  0  0  0  0  0  0
    1.7470  -14.6880   -1.9120 N   0  0  0  0  0  0  0  0  0  0  0  0
    0.5420  -13.9870   -2.0100 C   0  0  0  0  0  0  0  0  0  0  0  0
    0.4060  -13.0280   -3.0290 C   0  0  0  0  0  0  0  0  0  0  0  0
   -0.7710  -12.2880   -3.1810 C   0  0  0  0  0  0  0  0  0  0  0  0
   -1.8300  -12.4990   -2.3100 C   0  0  0  0  0  0  0  0  0  0  0  0
   -2.9590  -11.7600   -2.4880 O   0  0  0  0  0  0  0  0  0  0  0  0
   -1.7260  -13.4360   -1.2920 C   0  0  0  0  0  0  0  0  0  0  0  0
   -0.5440  -14.1730   -1.1470 C   0  0  0  0  0  0  0  0  0  0  0  0
    2.8970  -13.7480   -0.1550 N   0  0  0  0  0  0  0  0  0  0  0  0
    2.4450  -11.9130    2.0890 S   0  0  0  0  0  0  0  0  0  0  0  0
    0.4269  -10.4270    5.1094 H   0  0  0  0  0  0  0  0  0  0  0  0
    0.7334   -9.5462    3.5741 H   0  0  0  0  0  0  0  0  0  0  0  0
    0.6212  -11.3390    3.5741 H   0  0  0  0  0  0  0  0  0  0  0  0
    2.8210   -9.6900    4.6860 H   0  0  0  0  0  0  0  0  0  0  0  0
    6.4444  -13.1925    3.9589 H   0  0  0  0  0  0  0  0  0  0  0  0
    6.2281  -14.0737    2.4085 H   0  0  0  0  0  0  0  0  0  0  0  0
    6.8994  -12.4075    2.4085 H   0  0  0  0  0  0  0  0  0  0  0  0
    6.2189  -13.6354    0.5473 H   0  0  0  0  0  0  0  0  0  0  0  0
    6.2194  -14.8979   -1.5890 H   0  0  0  0  0  0  0  0  0  0  0  0
    1.7850  -15.5960   -2.3530 H   0  0  0  0  0  0  0  0  0  0  0  0
    1.2432  -12.8560   -3.7215 H   0  0  0  0  0  0  0  0  0  0  0  0
   -0.8565  -11.5434   -3.9861 H   0  0  0  0  0  0  0  0  0  0  0  0
   -3.6140  -12.3080   -2.9520 H   0  0  0  0  0  0  0  0  0  0  0  0
   -2.5674  -13.5991   -0.6025 H   0  0  0  0  0  0  0  0  0  0  0  0
   -0.4675  -14.9139   -0.3375 H   0  0  0  0  0  0  0  0  0  0  0  0
  1  2  1  0
  2  3  1  0
  3  4  2  0
  4  5  1  0
  5  6  1  0
  5  7  2  0
  7  8  1  0
  8  9  2  0
  9 10  1  0
 10 11  2  0
 11 12  1  0
 12 13  1  0
 13 14  1  0
 14 15  2  0
 15 16  1  0
 16 17  2  0
 17 18  1  0
 17 19  1  0
 19 20  2  0
 12 21  2  0
  7 22  1  0
 22  3  1  0
 21  8  1  0
 20 14  1  0
  1 23  1  0
  1 24  1  0
  1 25  1  0
  2 26  1  0
  6 27  1  0
  6 28  1  0
  6 29  1  0
  9 30  1  0
 10 31  1  0
 13 32  1  0
 15 33  1  0
 16 34  1  0
 18 35  1  0
 19 36  1  0
 20 37  1  0
M  END
>  <meeko>  (2) 
{"is_sidechain": [false], "free_energy": -8.888, "intermolecular_energy": -11.309, "internal_energy": -0.207}

$$$$
1pxn_ligand
     RDKit          3D

 37 39  0  0  0  0  0  0  0  0999 V2000
   -0.6320   -9.9840    5.2300 C   0  0  0  0  0  0  0  0  0  0  0  0
    0.6780   -9.5340    4.8170 N   0  0  0  0  0  0  0  0  0  0  0  0
    1.5120  -10.4280    4.2400 C   0  0  0  0  0  0  0  0  0  0  0  0
    2.6210  -10.8810    4.7750 N   0  0  0  0  0  0  0  0  0  0  0  0
    3.2390  -11.7880    3.9280 C   0  0  0  0  0  0  0  0  0  0  0  0
    4.5010  -12.4220    4.3960 C   0  0  0  0  0  0  0  0  0  0  0  0
    2.5860  -12.0010    2.7230 C   0  0  0  0  0  0  0  0  0  0  0  0
    2.9440  -12.8380    1.5840 C   0  0  0  0  0  0  0  0  0  0  0  0
    4.2380  -13.2600    1.3790 C   0  0  0  0  0  0  0  0  0  0  0  0
    4.4240  -14.0490    0.2740 C   0  0  0  0  0  0  0  0  0  0  0  0
    3.4300  -14.4020   -0.5590 N   0  0  0  0  0  0  0  0  0  0  0  0
    2.1980  -13.9470   -0.2890 C   0  0  0  0  0  0  0  0  0  0  0  0
    1.1020  -14.2520   -1.0890 N   0  0  0  0  0  0  0  0  0  0  0  0
    0.0670  -13.5030   -1.6570 C   0  0  0  0  0  0  0  0  0  0  0  0
   -1.1650  -13.4440   -0.9830 C   0  0  0  0  0  0  0  0  0  0  0  0
   -2.2420  -12.7160   -1.4960 C   0  0  0  0  0  0  0  0  0  0  0  0
   -2.0990  -12.0370   -2.6970 C   0  0  0  0  0  0  0  0  0  0  0  0
   -3.1700  -11.3400   -3.1660 O   0  0  0  0  0  0  0  0  0  0  0  0
   -0.8970  -12.0780   -3.3890 C   0  0  0  0  0  0  0  0  0  0  0  0
    0.1780  -12.8090   -2.8670 C   0  0  0  0  0  0  0  0  0  0  0  0
    1.9230  -13.1690    0.7680 N   0  0  0  0  0  0  0  0  0  0  0  0
    1.1490  -11.0620    2.6840 S   0  0  0  0  0  0  0  0  0  0  0  0
   -0.6841  -10.0019    6.3286 H   0  0  0  0  0  0  0  0  0  0  0  0
   -1.3962   -9.2969    4.8378 H   0  0  0  0  0  0  0  0  0  0  0  0
   -0.8127  -10.9957    4.8378 H   0  0  0  0  0  0  0  0  0  0  0  0
    0.7150   -8.5890    4.4510 H   0  0  0  0  0  0  0  0  0  0  0  0
    4.5205  -12.4318    5.4958 H   0  0  0  0  0  0  0  0  0  0  0  0
    4.5546  -13.4540    4.0191 H   0  0  0  0  0  0  0  0  0  0  0  0
    5.3610  -11.8489    4.0191 H   0  0  0  0  0  0  0  0  0  0  0  0
    5.0625  -12.9841    2.0528 H   0  0  0  0  0  0  0  0  0  0  0  0
    5.4395  -14.4122    0.0576 H   0  0  0  0  0  0  0  0  0  0  0  0
    1.0900  -15.2490   -1.2540 H   0  0  0  0  0  0  0  0  0  0  0  0
   -1.2840  -13.9825   -0.0312 H   0  0  0  0  0  0  0  0  0  0  0  0
   -3.1968  -12.6817   -0.9509 H   0  0  0  0  0  0  0  0  0  0  0  0
   -3.8360  -11.9740   -3.4780 H   0  0  0  0  0  0  0  0  0  0  0  0
   -0.7888  -11.5395   -4.3421 H   0  0  0  0  0  0  0  0  0  0  0  0
    1.1287  -12.8380   -3.4195 H   0  0  0  0  0  0  0  0  0  0  0  0
  1  2  1  0
  2  3  1  0
  3  4  2  0
  4  5  1  0
  5  6  1  0
  5  7  2  0
  7  8  1  0
  8  9  2  0
  9 10  1  0
 10 11  2  0
 11 12  1  0
 12 13  1  0
 13 14  1  0
 14 15  2  0
 15 16  1  0
 16 17  2  0
 17 18  1  0
 17 19  1  0
 19 20  2  0
 12 21  2  0
  7 22  1  0
 22  3  1  0
 21  8  1  0
 20 14  1  0
  1 23  1  0
  1 24  1  0
  1 25  1  0
  2 26  1  0
  6 27  1  0
  6 28  1  0
  6 29  1  0
  9 30  1  0
 10 31  1  0
 13 32  1  0
 15 33  1  0
 16 34  1  0
 18 35  1  0
 19 36  1  0
 20 37  1  0
M  END
>  <meeko>  (3) 
{"is_sidechain": [false], "free_energy": -8.28, "intermolecular_energy": -10.558, "internal_energy": -0.189}

$$$$
1pxn_ligand
     RDKit          3D

 37 39  0  0  0  0  0  0  0  0999 V2000
    2.2350  -10.8870    6.9150 C   0  0  0  0  0  0  0  0  0  0  0  0
    3.2480  -10.7120    5.9000 N   0  0  0  0  0  0  0  0  0  0  0  0
    2.9840  -11.1450    4.6460 C   0  0  0  0  0  0  0  0  0  0  0  0
    1.9200  -10.8290    3.9470 N   0  0  0  0  0  0  0  0  0  0  0  0
    1.9560  -11.4340    2.7000 C   0  0  0  0  0  0  0  0  0  0  0  0
    0.8330  -11.1570    1.7640 C   0  0  0  0  0  0  0  0  0  0  0  0
    3.0630  -12.2370    2.4720 C   0  0  0  0  0  0  0  0  0  0  0  0
    3.4250  -13.0520    1.3170 C   0  0  0  0  0  0  0  0  0  0  0  0
    4.7170  -13.4760    1.1120 C   0  0  0  0  0  0  0  0  0  0  0  0
    4.9080  -14.2430   -0.0070 C   0  0  0  0  0  0  0  0  0  0  0  0
    3.9180  -14.5720   -0.8550 N   0  0  0  0  0  0  0  0  0  0  0  0
    2.6860  -14.1170   -0.5840 C   0  0  0  0  0  0  0  0  0  0  0  0
    1.5950  -14.3990   -1.3980 N   0  0  0  0  0  0  0  0  0  0  0  0
    0.4230  -13.7140   -1.7350 C   0  0  0  0  0  0  0  0  0  0  0  0
    0.4180  -12.9330   -2.9040 C   0  0  0  0  0  0  0  0  0  0  0  0
   -0.7190  -12.2190   -3.2970 C   0  0  0  0  0  0  0  0  0  0  0  0
   -1.8660  -12.2780   -2.5210 C   0  0  0  0  0  0  0  0  0  0  0  0
   -2.9530  -11.5690   -2.9350 O   0  0  0  0  0  0  0  0  0  0  0  0
   -1.8920  -13.0370   -1.3600 C   0  0  0  0  0  0  0  0  0  0  0  0
   -0.7500  -13.7490   -0.9730 C   0  0  0  0  0  0  0  0  0  0  0  0
    2.4070  -13.3600    0.4880 N   0  0  0  0  0  0  0  0  0  0  0  0
    4.0890  -12.1920    3.8490 S   0  0  0  0  0  0  0  0  0  0  0  0
    2.6959  -10.8074    7.9106 H   0  0  0  0  0  0  0  0  0  0  0  0
    1.4660  -10.1084    6.8036 H   0  0  0  0  0  0  0  0  0  0  0  0
    1.7718  -11.8785    6.8036 H   0  0  0  0  0  0  0  0  0  0  0  0
    3.7890   -9.8570    5.9710 H   0  0  0  0  0  0  0  0  0  0  0  0
   -0.0771  -10.9325    2.3395 H   0  0  0  0  0  0  0  0  0  0  0  0
    1.0881  -10.2948    1.1302 H   0  0  0  0  0  0  0  0  0  0  0  0
    0.6579  -12.0389    1.1302 H   0  0  0  0  0  0  0  0  0  0  0  0
    5.5380  -13.2179    1.7971 H   0  0  0  0  0  0  0  0  0  0  0  0
    5.9230  -14.6082   -0.2226 H   0  0  0  0  0  0  0  0  0  0  0  0
    1.7180  -15.3190   -1.7960 H   0  0  0  0  0  0  0  0  0  0  0  0
    1.3265  -12.8823   -3.5221 H   0  0  0  0  0  0  0  0  0  0  0  0
   -0.7029  -11.6146   -4.2160 H   0  0  0  0  0  0  0  0  0  0  0  0
   -3.7530  -12.0580   -2.6820 H   0  0  0  0  0  0  0  0  0  0  0  0
   -2.8044  -13.0793   -0.7470 H   0  0  0  0  0  0  0  0  0  0  0  0
   -0.7756  -14.3482   -0.0509 H   0  0  0  0  0  0  0  0  0  0  0  0
  1  2  1  0
  2  3  1  0
  3  4  2  0
  4  5  1  0
  5  6  1  0
  5  7  2  0
  7  8  1  0
  8  9  2  0
  9 10  1  0
 10 11  2  0
 11 12  1  0
 12 13  1  0
 13 14  1  0
 14 15  2  0
 15 16  1  0
 16 17  2  0
 17 18  1  0
 17 19  1  0
 19 20  2  0
 12 21  2  0
  7 22  1  0
 22  3  1  0
 21  8  1  0
 20 14  1  0
  1 23  1  0
  1 24  1  0
  1 25  1  0
  2 26  1  0
  6 27  1  0
  6 28  1  0
  6 29  1  0
  9 30  1  0
 10 31  1  0
 13 32  1  0
 15 33  1  0
 16 34  1  0
 18 35  1  0
 19 36  1  0
 20 37  1  0
M  END
>  <meeko>  (4) 
{"is_sidechain": [false], "free_energy": -8.257, "intermolecular_energy": -10.513, "internal_energy": -0.206}

$$$$
1pxn_ligand
     RDKit          3D

 37 39  0  0  0  0  0  0  0  0999 V2000
    9.3550  -15.9840    2.2420 C   0  0  0  0  0  0  0  0  0  0  0  0
    8.9710  -14.6130    2.0010 N   0  0  0  0  0  0  0  0  0  0  0  0
    7.7380  -14.3680    1.5010 C   0  0  0  0  0  0  0  0  0  0  0  0
    7.3390  -14.6770    0.2900 N   0  0  0  0  0  0  0  0  0  0  0  0
    6.0200  -14.2960    0.0960 C   0  0  0  0  0  0  0  0  0  0  0  0
    5.3990  -14.6000   -1.2210 C   0  0  0  0  0  0  0  0  0  0  0  0
    5.4270  -13.6710    1.1830 C   0  0  0  0  0  0  0  0  0  0  0  0
    4.0920  -13.1060    1.3410 C   0  0  0  0  0  0  0  0  0  0  0  0
    3.8250  -12.1440    2.2890 C   0  0  0  0  0  0  0  0  0  0  0  0
    2.5300  -11.6980    2.3160 C   0  0  0  0  0  0  0  0  0  0  0  0
    1.5750  -12.1480    1.4850 N   0  0  0  0  0  0  0  0  0  0  0  0
    1.9170  -13.0870    0.5910 C   0  0  0  0  0  0  0  0  0  0  0  0
    1.0040  -13.6200   -0.3120 N   0  0  0  0  0  0  0  0  0  0  0  0
   -0.0680  -13.0980   -1.0420 C   0  0  0  0  0  0  0  0  0  0  0  0
    0.1730  -12.6310   -2.3450 C   0  0  0  0  0  0  0  0  0  0  0  0
   -0.8530  -12.0930   -3.1280 C   0  0  0  0  0  0  0  0  0  0  0  0
   -2.1380  -12.0140   -2.6120 C   0  0  0  0  0  0  0  0  0  0  0  0
   -3.1110  -11.4840   -3.4030 O   0  0  0  0  0  0  0  0  0  0  0  0
   -2.4090  -12.4630   -1.3270 C   0  0  0  0  0  0  0  0  0  0  0  0
   -1.3750  -13.0010   -0.5500 C   0  0  0  0  0  0  0  0  0  0  0  0
    3.1600  -13.5830    0.4930 N   0  0  0  0  0  0  0  0  0  0  0  0
    6.5520  -13.5980    2.4780 S   0  0  0  0  0  0  0  0  0  0  0  0
    9.4058  -16.1655    3.3257 H   0  0  0  0  0  0  0  0  0  0  0  0
    8.6110  -16.6577    1.7919 H   0  0  0  0  0  0  0  0  0  0  0  0
   10.3407  -16.1732    1.7919 H   0  0  0  0  0  0  0  0  0  0  0  0
    9.3190  -13.9410    2.6760 H   0  0  0  0  0  0  0  0  0  0  0  0
    4.4212  -15.0787   -1.0636 H   0  0  0  0  0  0  0  0  0  0  0  0
    5.2634  -13.6664   -1.7867 H   0  0  0  0  0  0  0  0  0  0  0  0
    6.0532  -15.2797   -1.7867 H   0  0  0  0  0  0  0  0  0  0  0  0
    4.5953  -11.7614    2.9747 H   0  0  0  0  0  0  0  0  0  0  0  0
    2.2579  -10.9315    3.0566 H   0  0  0  0  0  0  0  0  0  0  0  0
    1.1910  -14.6070   -0.4170 H   0  0  0  0  0  0  0  0  0  0  0  0
    1.1908  -12.6899   -2.7581 H   0  0  0  0  0  0  0  0  0  0  0  0
   -0.6424  -11.7348   -4.1465 H   0  0  0  0  0  0  0  0  0  0  0  0
   -3.7470  -11.0170   -2.8360 H   0  0  0  0  0  0  0  0  0  0  0  0
   -3.4293  -12.3968   -0.9213 H   0  0  0  0  0  0  0  0  0  0  0  0
   -1.5947  -13.3547    0.4682 H   0  0  0  0  0  0  0  0  0  0  0  0
  1  2  1  0
  2  3  1  0
  3  4  2  0
  4  5  1  0
  5  6  1  0
  5  7  2  0
  7  8  1  0
  8  9  2  0
  9 10  1  0
 10 11  2  0
 11 12  1  0
 12 13  1  0
 13 14  1  0
 14 15  2  0
 15 16  1  0
 16 17  2  0
 17 18  1  0
 17 19  1  0
 19 20  2  0
 12 21  2  0
  7 22  1  0
 22  3  1  0
 21  8  1  0
 20 14  1  0
  1 23  1  0
  1 24  1  0
  1 25  1  0
  2 26  1  0
  6 27  1  0
  6 28  1  0
  6 29  1  0
  9 30  1  0
 10 31  1  0
 13 32  1  0
 15 33  1  0
 16 34  1  0
 18 35  1  0
 19 36  1  0
 20 37  1  0
M  END
>  <meeko>  (5) 
{"is_sidechain": [false], "free_energy": -8.053, "intermolecular_energy": -10.398, "internal_energy": -0.062}

$$$$
1pxn_ligand
     RDKit          3D

 37 39  0  0  0  0  0  0  0  0999 V2000
    4.5940  -10.5100    6.6400 C   0  0  0  0  0  0  0  0  0  0  0  0
    4.4460  -10.3210    5.2150 N   0  0  0  0  0  0  0  0  0  0  0  0
    3.5670  -11.1050    4.5500 C   0  0  0  0  0  0  0  0  0  0  0  0
    3.8880  -12.1380    3.8090 N   0  0  0  0  0  0  0  0  0  0  0  0
    2.7540  -12.7280    3.2730 C   0  0  0  0  0  0  0  0  0  0  0  0
    2.9380  -13.9370    2.4250 C   0  0  0  0  0  0  0  0  0  0  0  0
    1.5590  -12.1070    3.6060 C   0  0  0  0  0  0  0  0  0  0  0  0
    0.1890  -12.4090    3.2100 C   0  0  0  0  0  0  0  0  0  0  0  0
   -0.8130  -12.5640    4.1400 C   0  0  0  0  0  0  0  0  0  0  0  0
   -2.0520  -12.8340    3.6230 C   0  0  0  0  0  0  0  0  0  0  0  0
   -2.2960  -12.9390    2.3050 N   0  0  0  0  0  0  0  0  0  0  0  0
   -1.2650  -12.7760    1.4640 C   0  0  0  0  0  0  0  0  0  0  0  0
   -1.4110  -12.8670    0.0840 N   0  0  0  0  0  0  0  0  0  0  0  0
   -0.5480  -13.1750   -0.9720 C   0  0  0  0  0  0  0  0  0  0  0  0
    0.3000  -14.2890   -0.8410 C   0  0  0  0  0  0  0  0  0  0  0  0
    1.1890  -14.6520   -1.8570 C   0  0  0  0  0  0  0  0  0  0  0  0
    1.2430  -13.8980   -3.0200 C   0  0  0  0  0  0  0  0  0  0  0  0
    2.1220  -14.2810   -3.9880 O   0  0  0  0  0  0  0  0  0  0  0  0
    0.4220  -12.7910   -3.1800 C   0  0  0  0  0  0  0  0  0  0  0  0
   -0.4670  -12.4350   -2.1570 C   0  0  0  0  0  0  0  0  0  0  0  0
   -0.0180  -12.5100    1.8810 N   0  0  0  0  0  0  0  0  0  0  0  0
    1.8830  -10.7780    4.6440 S   0  0  0  0  0  0  0  0  0  0  0  0
    4.0010   -9.7528    7.1738 H   0  0  0  0  0  0  0  0  0  0  0  0
    4.2397  -11.5143    6.9154 H   0  0  0  0  0  0  0  0  0  0  0  0
    5.6539  -10.4068    6.9154 H   0  0  0  0  0  0  0  0  0  0  0  0
    4.5150   -9.3600    4.8970 H   0  0  0  0  0  0  0  0  0  0  0  0
    3.0723  -14.8191    3.0683 H   0  0  0  0  0  0  0  0  0  0  0  0
    2.0510  -14.0779    1.7899 H   0  0  0  0  0  0  0  0  0  0  0  0
    3.8268  -13.8076    1.7899 H   0  0  0  0  0  0  0  0  0  0  0  0
   -0.6318  -12.4772    5.2215 H   0  0  0  0  0  0  0  0  0  0  0  0
   -2.8904  -12.9720    4.3217 H   0  0  0  0  0  0  0  0  0  0  0  0
   -2.3640  -12.6350   -0.1560 H   0  0  0  0  0  0  0  0  0  0  0  0
    0.2631  -14.8878    0.0810 H   0  0  0  0  0  0  0  0  0  0  0  0
    1.8411  -15.5294   -1.7350 H   0  0  0  0  0  0  0  0  0  0  0  0
    1.6480  -14.8320   -4.6320 H   0  0  0  0  0  0  0  0  0  0  0  0
    0.4687  -12.1964   -4.1043 H   0  0  0  0  0  0  0  0  0  0  0  0
   -1.1147  -11.5556   -2.2881 H   0  0  0  0  0  0  0  0  0  0  0  0
  1  2  1  0
  2  3  1  0
  3  4  2  0
  4  5  1  0
  5  6  1  0
  5  7  2  0
  7  8  1  0
  8  9  2  0
  9 10  1  0
 10 11  2  0
 11 12  1  0
 12 13  1  0
 13 14  1  0
 14 15  2  0
 15 16  1  0
 16 17  2  0
 17 18  1  0
 17 19  1  0
 19 20  2  0
 12 21  2  0
  7 22  1  0
 22  3  1  0
 21  8  1  0
 20 14  1  0
  1 23  1  0
  1 24  1  0
  1 25  1  0
  2 26  1  0
  6 27  1  0
  6 28  1  0
  6 29  1  0
  9 30  1  0
 10 31  1  0
 13 32  1  0
 15 33  1  0
 16 34  1  0
 18 35  1  0
 19 36  1  0
 20 37  1  0
M  END
>  <meeko>  (6) 
{"is_sidechain": [false], "free_energy": -7.84, "intermolecular_energy": -9.828, "internal_energy": -0.364}

$$$$
1pxn_ligand
     RDKit          3D

 37 39  0  0  0  0  0  0  0  0999 V2000
    5.8230  -13.0610    2.2860 C   0  0  0  0  0  0  0  0  0  0  0  0
    5.4430  -12.0270    3.2210 N   0  0  0  0  0  0  0  0  0  0  0  0
    4.1270  -11.8260    3.4590 C   0  0  0  0  0  0  0  0  0  0  0  0
    3.6390  -11.0320    4.3820 N   0  0  0  0  0  0  0  0  0  0  0  0
    2.2530  -11.0480    4.3590 C   0  0  0  0  0  0  0  0  0  0  0  0
    1.5350  -10.1770    5.3280 C   0  0  0  0  0  0  0  0  0  0  0  0
    1.6940  -11.8900    3.4090 C   0  0  0  0  0  0  0  0  0  0  0  0
    0.2990  -12.1970    3.1150 C   0  0  0  0  0  0  0  0  0  0  0  0
   -0.6630  -12.1880    4.0990 C   0  0  0  0  0  0  0  0  0  0  0  0
   -1.9320  -12.4840    3.6750 C   0  0  0  0  0  0  0  0  0  0  0  0
   -2.2390  -12.7630    2.3960 N   0  0  0  0  0  0  0  0  0  0  0  0
   -1.2420  -12.7520    1.4990 C   0  0  0  0  0  0  0  0  0  0  0  0
   -1.4530  -13.0290    0.1530 N   0  0  0  0  0  0  0  0  0  0  0  0
   -0.6130  -13.2680   -0.9390 C   0  0  0  0  0  0  0  0  0  0  0  0
    0.2180  -14.4020   -0.9100 C   0  0  0  0  0  0  0  0  0  0  0  0
    1.0830  -14.6990   -1.9670 C   0  0  0  0  0  0  0  0  0  0  0  0
    1.1300  -13.8590   -3.0690 C   0  0  0  0  0  0  0  0  0  0  0  0
    1.9860  -14.1800   -4.0790 O   0  0  0  0  0  0  0  0  0  0  0  0
    0.3250  -12.7300   -3.1280 C   0  0  0  0  0  0  0  0  0  0  0  0
   -0.5400  -12.4410   -2.0660 C   0  0  0  0  0  0  0  0  0  0  0  0
    0.0290  -12.4740    1.8230 N   0  0  0  0  0  0  0  0  0  0  0  0
    2.9490  -12.6430    2.5110 S   0  0  0  0  0  0  0  0  0  0  0  0
    6.1509  -13.9533    2.8394 H   0  0  0  0  0  0  0  0  0  0  0  0
    4.9607  -13.3183    1.6534 H   0  0  0  0  0  0  0  0  0  0  0  0
    6.6467  -12.6986    1.6534 H   0  0  0  0  0  0  0  0  0  0  0  0
    6.0620  -11.9150    4.0170 H   0  0  0  0  0  0  0  0  0  0  0  0
    1.7877  -10.4836    6.3537 H   0  0  0  0  0  0  0  0  0  0  0  0
    1.8362   -9.1304    5.1734 H   0  0  0  0  0  0  0  0  0  0  0  0
    0.4502  -10.2730    5.1734 H   0  0  0  0  0  0  0  0  0  0  0  0
   -0.4302  -11.9598    5.1496 H   0  0  0  0  0  0  0  0  0  0  0  0
   -2.7416  -12.4939    4.4197 H   0  0  0  0  0  0  0  0  0  0  0  0
   -2.4470  -13.0300   -0.0260 H   0  0  0  0  0  0  0  0  0  0  0  0
    0.1866  -15.0698   -0.0365 H   0  0  0  0  0  0  0  0  0  0  0  0
    1.7222  -15.5932   -1.9248 H   0  0  0  0  0  0  0  0  0  0  0  0
    2.1770  -15.1310   -4.0290 H   0  0  0  0  0  0  0  0  0  0  0  0
    0.3664  -12.0662   -4.0041 H   0  0  0  0  0  0  0  0  0  0  0  0
   -1.1759  -11.5449   -2.1182 H   0  0  0  0  0  0  0  0  0  0  0  0
  1  2  1  0
  2  3  1  0
  3  4  2  0
  4  5  1  0
  5  6  1  0
  5  7  2  0
  7  8  1  0
  8  9  2  0
  9 10  1  0
 10 11  2  0
 11 12  1  0
 12 13  1  0
 13 14  1  0
 14 15  2  0
 15 16  1  0
 16 17  2  0
 17 18  1  0
 17 19  1  0
 19 20  2  0
 12 21  2  0
  7 22  1  0
 22  3  1  0
 21  8  1  0
 20 14  1  0
  1 23  1  0
  1 24  1  0
  1 25  1  0
  2 26  1  0
  6 27  1  0
  6 28  1  0
  6 29  1  0
  9 30  1  0
 10 31  1  0
 13 32  1  0
 15 33  1  0
 16 34  1  0
 18 35  1  0
 19 36  1  0
 20 37  1  0
M  END
>  <meeko>  (7) 
{"is_sidechain": [false], "free_energy": -7.813, "intermolecular_energy": -9.922, "internal_energy": -0.236}

$$$$
1pxn_ligand
     RDKit          3D

 37 39  0  0  0  0  0  0  0  0999 V2000
   -0.4840  -12.3620   -3.0910 C   0  0  0  0  0  0  0  0  0  0  0  0
   -1.4110  -11.9280   -2.0720 N   0  0  0  0  0  0  0  0  0  0  0  0
   -1.0420  -12.0450   -0.7760 C   0  0  0  0  0  0  0  0  0  0  0  0
   -1.8410  -12.3820    0.2090 N   0  0  0  0  0  0  0  0  0  0  0  0
   -1.1500  -12.4160    1.4100 C   0  0  0  0  0  0  0  0  0  0  0  0
   -1.9040  -12.8100    2.6310 C   0  0  0  0  0  0  0  0  0  0  0  0
    0.1920  -12.0770    1.3220 C   0  0  0  0  0  0  0  0  0  0  0  0
    1.2130  -11.9640    2.3570 C   0  0  0  0  0  0  0  0  0  0  0  0
    0.8830  -11.9070    3.6920 C   0  0  0  0  0  0  0  0  0  0  0  0
    1.9460  -11.8130    4.5510 C   0  0  0  0  0  0  0  0  0  0  0  0
    3.2260  -11.7830    4.1440 N   0  0  0  0  0  0  0  0  0  0  0  0
    3.4630  -11.8420    2.8250 C   0  0  0  0  0  0  0  0  0  0  0  0
    4.7500  -11.8160    2.3000 N   0  0  0  0  0  0  0  0  0  0  0  0
    5.5760  -12.7640    1.6890 C   0  0  0  0  0  0  0  0  0  0  0  0
    6.8010  -13.0810    2.3020 C   0  0  0  0  0  0  0  0  0  0  0  0
    7.6750  -14.0170    1.7420 C   0  0  0  0  0  0  0  0  0  0  0  0
    7.3340  -14.6480    0.5550 C   0  0  0  0  0  0  0  0  0  0  0  0
    8.2110  -15.5530    0.0390 O   0  0  0  0  0  0  0  0  0  0  0  0
    6.1340  -14.3550   -0.0770 C   0  0  0  0  0  0  0  0  0  0  0  0
    5.2630  -13.4170    0.4910 C   0  0  0  0  0  0  0  0  0  0  0  0
    2.4850  -11.9340    1.9110 N   0  0  0  0  0  0  0  0  0  0  0  0
    0.5860  -11.7450   -0.3160 S   0  0  0  0  0  0  0  0  0  0  0  0
    0.4140  -12.7824   -2.6147 H   0  0  0  0  0  0  0  0  0  0  0  0
   -0.9608  -13.1305   -3.7172 H   0  0  0  0  0  0  0  0  0  0  0  0
   -0.1992  -11.5036   -3.7172 H   0  0  0  0  0  0  0  0  0  0  0  0
   -1.9600  -11.1080   -2.3070 H   0  0  0  0  0  0  0  0  0  0  0  0
   -1.3356  -12.5130    3.5247 H   0  0  0  0  0  0  0  0  0  0  0  0
   -2.8828  -12.3081    2.6354 H   0  0  0  0  0  0  0  0  0  0  0  0
   -2.0509  -13.9001    2.6354 H   0  0  0  0  0  0  0  0  0  0  0  0
   -0.1589  -11.9349    4.0437 H   0  0  0  0  0  0  0  0  0  0  0  0
    1.7408  -11.7593    5.6304 H   0  0  0  0  0  0  0  0  0  0  0  0
    5.1330  -10.8900    2.4280 H   0  0  0  0  0  0  0  0  0  0  0  0
    7.0774  -12.5817    3.2424 H   0  0  0  0  0  0  0  0  0  0  0  0
    8.6275  -14.2517    2.2397 H   0  0  0  0  0  0  0  0  0  0  0  0
    8.9960  -15.5790    0.6100 H   0  0  0  0  0  0  0  0  0  0  0  0
    5.8683  -14.8568   -1.0191 H   0  0  0  0  0  0  0  0  0  0  0  0
    4.3132  -13.1886   -0.0147 H   0  0  0  0  0  0  0  0  0  0  0  0
  1  2  1  0
  2  3  1  0
  3  4  2  0
  4  5  1  0
  5  6  1  0
  5  7  2  0
  7  8  1  0
  8  9  2  0
  9 10  1  0
 10 11  2  0
 11 12  1  0
 12 13  1  0
 13 14  1  0
 14 15  2  0
 15 16  1  0
 16 17  2  0
 17 18  1  0
 17 19  1  0
 19 20  2  0
 12 21  2  0
  7 22  1  0
 22  3  1  0
 21  8  1  0
 20 14  1  0
  1 23  1  0
  1 24  1  0
  1 25  1  0
  2 26  1  0
  6 27  1  0
  6 28  1  0
  6 29  1  0
  9 30  1  0
 10 31  1  0
 13 32  1  0
 15 33  1  0
 16 34  1  0
 18 35  1  0
 19 36  1  0
 20 37  1  0
M  END
>  <meeko>  (8) 
{"is_sidechain": [false], "free_energy": -7.594, "intermolecular_energy": -9.803, "internal_energy": -0.078}

$$$$
1pxn_ligand
     RDKit          3D

 37 39  0  0  0  0  0  0  0  0999 V2000
    7.7350  -14.7370    2.0470 C   0  0  0  0  0  0  0  0  0  0  0  0
    6.3610  -14.3900    2.3280 N   0  0  0  0  0  0  0  0  0  0  0  0
    5.4870  -14.3400    1.2970 C   0  0  0  0  0  0  0  0  0  0  0  0
    5.8100  -14.4200    0.0280 N   0  0  0  0  0  0  0  0  0  0  0  0
    4.6800  -14.3430   -0.7710 C   0  0  0  0  0  0  0  0  0  0  0  0
    4.8660  -14.4450   -2.2430 C   0  0  0  0  0  0  0  0  0  0  0  0
    3.4870  -14.1810   -0.0820 C   0  0  0  0  0  0  0  0  0  0  0  0
    2.1220  -14.0250   -0.5710 C   0  0  0  0  0  0  0  0  0  0  0  0
    1.6810  -14.6800   -1.6970 C   0  0  0  0  0  0  0  0  0  0  0  0
    0.3730  -14.4480   -2.0310 C   0  0  0  0  0  0  0  0  0  0  0  0
   -0.4400  -13.6450   -1.3230 N   0  0  0  0  0  0  0  0  0  0  0  0
    0.0680  -13.0430   -0.2380 C   0  0  0  0  0  0  0  0  0  0  0  0
   -0.6880  -12.1920    0.5610 N   0  0  0  0  0  0  0  0  0  0  0  0
   -0.8020  -11.9910    1.9400 C   0  0  0  0  0  0  0  0  0  0  0  0
   -0.0140  -10.9930    2.5390 C   0  0  0  0  0  0  0  0  0  0  0  0
   -0.0760  -10.7420    3.9130 C   0  0  0  0  0  0  0  0  0  0  0  0
   -0.9300  -11.4920    4.7070 C   0  0  0  0  0  0  0  0  0  0  0  0
   -0.9640  -11.2200    6.0410 O   0  0  0  0  0  0  0  0  0  0  0  0
   -1.7200  -12.4860    4.1480 C   0  0  0  0  0  0  0  0  0  0  0  0
   -1.6520  -12.7310    2.7700 C   0  0  0  0  0  0  0  0  0  0  0  0
    1.3370  -13.2110    0.1630 N   0  0  0  0  0  0  0  0  0  0  0  0
    3.8050  -14.1630    1.6050 S   0  0  0  0  0  0  0  0  0  0  0  0
    8.2793  -14.8745    2.9930 H   0  0  0  0  0  0  0  0  0  0  0  0
    7.7660  -15.6712    1.4670 H   0  0  0  0  0  0  0  0  0  0  0  0
    8.2059  -13.9296    1.4670 H   0  0  0  0  0  0  0  0  0  0  0  0
    5.9950  -14.7440    3.2060 H   0  0  0  0  0  0  0  0  0  0  0  0
    5.8119  -14.9637   -2.4580 H   0  0  0  0  0  0  0  0  0  0  0  0
    4.0300  -15.0109   -2.6799 H   0  0  0  0  0  0  0  0  0  0  0  0
    4.8937  -13.4359   -2.6799 H   0  0  0  0  0  0  0  0  0  0  0  0
    2.3317  -15.3424   -2.2868 H   0  0  0  0  0  0  0  0  0  0  0  0
   -0.0331  -14.9444   -2.9247 H   0  0  0  0  0  0  0  0  0  0  0  0
   -1.2780  -11.6280   -0.0340 H   0  0  0  0  0  0  0  0  0  0  0  0
    0.6662  -10.3966    1.9132 H   0  0  0  0  0  0  0  0  0  0  0  0
    0.5484   -9.9550    4.3610 H   0  0  0  0  0  0  0  0  0  0  0  0
   -1.7230  -10.6400    6.2170 H   0  0  0  0  0  0  0  0  0  0  0  0
   -2.3957  -13.0782    4.7826 H   0  0  0  0  0  0  0  0  0  0  0  0
   -2.2794  -13.5210    2.3316 H   0  0  0  0  0  0  0  0  0  0  0  0
  1  2  1  0
  2  3  1  0
  3  4  2  0
  4  5  1  0
  5  6  1  0
  5  7  2  0
  7  8  1  0
  8  9  2  0
  9 10  1  0
 10 11  2  0
 11 12  1  0
 12 13  1  0
 13 14  1  0
 14 15  2  0
 15 16  1  0
 16 17  2  0
 17 18  1  0
 17 19  1  0
 19 20  2  0
 12 21  2  0
  7 22  1  0
 22  3  1  0
 21  8  1  0
 20 14  1  0
  1 23  1  0
  1 24  1  0
  1 25  1  0
  2 26  1  0
  6 27  1  0
  6 28  1  0
  6 29  1  0
  9 30  1  0
 10 31  1  0
 13 32  1  0
 15 33  1  0
 16 34  1  0
 18 35  1  0
 19 36  1  0
 20 37  1  0
M  END
>  <meeko>  (9) 
{"is_sidechain": [false], "free_energy": -7.363, "intermolecular_energy": -9.32, "internal_energy": -0.27}

$$$$
