3u9q_ligand
     RDKit          3D

 31 30  0  0  0  0  0  0  0  0999 V2000
    7.1490   10.7940    1.1000 C   0  0  0  0  0  0  0  0  0  0  0  0
    5.6840   11.1740    1.2400 C   0  0  0  0  0  0  0  0  0  0  0  0
    5.0440   10.5030    2.4560 C   0  0  0  0  0  0  0  0  0  0  0  0
    3.5350   10.3340    2.2700 C   0  0  0  0  0  0  0  0  0  0  0  0
    3.0770    8.9380    2.6980 C   0  0  0  0  0  0  0  0  0  0  0  0
    2.3380    8.1710    1.5960 C   0  0  0  0  0  0  0  0  0  0  0  0
    1.9760    6.7370    1.9920 C   0  0  0  0  0  0  0  0  0  0  0  0
    0.6050    6.6220    2.6640 C   0  0  0  0  0  0  0  0  0  0  0  0
    0.5860    5.6630    3.8520 C   0  0  0  0  0  0  0  0  0  0  0  0
    1.7860    5.7800    4.7990 C   0  0  0  0  0  0  0  0  0  0  0  0
    1.9040    6.8640    5.4330 O   0  0  0  0  0  0  0  0  0  0  0  0
    2.5260    4.7540    4.8220 O   0  0  0  0  0  0  0  0  0  0  0  0
    7.5949   10.6783    2.0989 H   0  0  0  0  0  0  0  0  0  0  0  0
    7.2307    9.8449    0.5499 H   0  0  0  0  0  0  0  0  0  0  0  0
    7.6817   11.5837    0.5499 H   0  0  0  0  0  0  0  0  0  0  0  0
    5.6072   12.2655    1.3525 H   0  0  0  0  0  0  0  0  0  0  0  0
    5.1521   10.8345    0.3390 H   0  0  0  0  0  0  0  0  0  0  0  0
    5.5001    9.5124    2.5996 H   0  0  0  0  0  0  0  0  0  0  0  0
    5.2152   11.1424    3.3345 H   0  0  0  0  0  0  0  0  0  0  0  0
    3.0120   11.0857    2.8795 H   0  0  0  0  0  0  0  0  0  0  0  0
    3.2987   10.4662    1.2038 H   0  0  0  0  0  0  0  0  0  0  0  0
    3.9629    8.3563    2.9927 H   0  0  0  0  0  0  0  0  0  0  0  0
    2.3690    9.0711    3.5293 H   0  0  0  0  0  0  0  0  0  0  0  0
    1.4103    8.7115    1.3568 H   0  0  0  0  0  0  0  0  0  0  0  0
    3.0167    8.1082    0.7326 H   0  0  0  0  0  0  0  0  0  0  0  0
    1.9737    6.1144    1.0852 H   0  0  0  0  0  0  0  0  0  0  0  0
    2.7263    6.4016    2.7231 H   0  0  0  0  0  0  0  0  0  0  0  0
    0.3060    7.6198    3.0175 H   0  0  0  0  0  0  0  0  0  0  0  0
   -0.0902    6.2192    1.9127 H   0  0  0  0  0  0  0  0  0  0  0  0
   -0.3274    5.8578    4.4331 H   0  0  0  0  0  0  0  0  0  0  0  0
    0.6266    4.6486    3.4286 H   0  0  0  0  0  0  0  0  0  0  0  0
  1  2  1  0
  2  3  1  0
  3  4  1  0
  4  5  1  0
  5  6  1  0
  6  7  1  0
  7  8  1  0
  8  9  1  0
  9 10  1  0
 10 11  2  0
 10 12  1  0
  1 13  1  0
  1 14  1  0
  1 15  1  0
  2 16  1  0
  2 17  1  0
  3 18  1  0
  3 19  1  0
  4 20  1  0
  4 21  1  0
  5 22  1  0
  5 23  1  0
  6 24  1  0
  6 25  1  0
  7 26  1  0
  7 27  1  0
  8 28  1  0
  8 29  1  0
  9 30  1  0
  9 31  1  0
M  CHG  1  12  -1
M  END
>  <meeko>  (1) 
{"is_sidechain": [false], "free_energy": -5.043, "intermolecular_energy": -7.401, "internal_energy": -0.376}

$$$$
3u9q_ligand
     RDKit          3D

 31 30  0  0  0  0  0  0  0  0999 V2000
    0.4740   16.4470    5.1910 C   0  0  0  0  0  0  0  0  0  0  0  0
    0.1150   15.8550    3.8380 C   0  0  0  0  0  0  0  0  0  0  0  0
   -0.7950   14.6350    3.9830 C   0  0  0  0  0  0  0  0  0  0  0  0
   -0.0520   13.3410    3.6450 C   0  0  0  0  0  0  0  0  0  0  0  0
    1.2960   13.6340    2.9830 C   0  0  0  0  0  0  0  0  0  0  0  0
    2.3800   12.6020    3.3170 C   0  0  0  0  0  0  0  0  0  0  0  0
    2.2200   11.2850    2.5530 C   0  0  0  0  0  0  0  0  0  0  0  0
    3.4960   10.4380    2.5310 C   0  0  0  0  0  0  0  0  0  0  0  0
    4.7190   11.1890    2.0130 C   0  0  0  0  0  0  0  0  0  0  0  0
    5.9590   10.3190    1.7720 C   0  0  0  0  0  0  0  0  0  0  0  0
    6.1240    9.3400    2.5480 O   0  0  0  0  0  0  0  0  0  0  0  0
    6.6790   10.7060    0.8060 O   0  0  0  0  0  0  0  0  0  0  0  0
    0.0819   15.8004    5.9898 H   0  0  0  0  0  0  0  0  0  0  0  0
    1.5679   16.5188    5.2812 H   0  0  0  0  0  0  0  0  0  0  0  0
    0.0320   17.4502    5.2812 H   0  0  0  0  0  0  0  0  0  0  0  0
   -0.4039   16.6188    3.2401 H   0  0  0  0  0  0  0  0  0  0  0  0
    1.0444   15.5352    3.3440 H   0  0  0  0  0  0  0  0  0  0  0  0
   -1.1566   14.5795    5.0204 H   0  0  0  0  0  0  0  0  0  0  0  0
   -1.6355   14.7448    3.2819 H   0  0  0  0  0  0  0  0  0  0  0  0
    0.1191   12.7730    4.5713 H   0  0  0  0  0  0  0  0  0  0  0  0
   -0.6666   12.7599    2.9417 H   0  0  0  0  0  0  0  0  0  0  0  0
    1.1525   13.6474    1.8925 H   0  0  0  0  0  0  0  0  0  0  0  0
    1.6424   14.6034    3.3707 H   0  0  0  0  0  0  0  0  0  0  0  0
    3.3608   13.0331    3.0676 H   0  0  0  0  0  0  0  0  0  0  0  0
    2.2889   12.3697    4.3883 H   0  0  0  0  0  0  0  0  0  0  0  0
    1.4205   10.6994    3.0304 H   0  0  0  0  0  0  0  0  0  0  0  0
    1.9807   11.5405    1.5102 H   0  0  0  0  0  0  0  0  0  0  0  0
    3.7052   10.0978    3.5559 H   0  0  0  0  0  0  0  0  0  0  0  0
    3.3155    9.6007    1.8408 H   0  0  0  0  0  0  0  0  0  0  0  0
    4.4475   11.6677    1.0606 H   0  0  0  0  0  0  0  0  0  0  0  0
    4.9950   11.9071    2.7993 H   0  0  0  0  0  0  0  0  0  0  0  0
  1  2  1  0
  2  3  1  0
  3  4  1  0
  4  5  1  0
  5  6  1  0
  6  7  1  0
  7  8  1  0
  8  9  1  0
  9 10  1  0
 10 11  2  0
 10 12  1  0
  1 13  1  0
  1 14  1  0
  1 15  1  0
  2 16  1  0
  2 17  1  0
  3 18  1  0
  3 19  1  0
  4 20  1  0
  4 21  1  0
  5 22  1  0
  5 23  1  0
  6 24  1  0
  6 25  1  0
  7 26  1  0
  7 27  1  0
  8 28  1  0
  8 29  1  0
  9 30  1  0
  9 31  1  0
M  CHG  1  12  -1
M  END
>  <meeko>  (2) 
{"is_sidechain": [false], "free_energy": -4.838, "intermolecular_energy": -7.147, "internal_energy": -0.33}

$$$$
3u9q_ligand
     RDKit          3D

 31 30  0  0  0  0  0  0  0  0999 V2000
    7.1220   10.8680    1.0700 C   0  0  0  0  0  0  0  0  0  0  0  0
    6.2590    9.6400    1.3140 C   0  0  0  0  0  0  0  0  0  0  0  0
    5.6480    9.6540    2.7160 C   0  0  0  0  0  0  0  0  0  0  0  0
    4.9000   10.9620    2.9850 C   0  0  0  0  0  0  0  0  0  0  0  0
    3.5960   11.0270    2.1880 C   0  0  0  0  0  0  0  0  0  0  0  0
    2.4190   11.6000    2.9860 C   0  0  0  0  0  0  0  0  0  0  0  0
    2.2880   13.1210    2.8670 C   0  0  0  0  0  0  0  0  0  0  0  0
    1.2680   13.7210    3.8390 C   0  0  0  0  0  0  0  0  0  0  0  0
    0.7440   15.0880    3.4090 C   0  0  0  0  0  0  0  0  0  0  0  0
   -0.1850   15.7740    4.4180 C   0  0  0  0  0  0  0  0  0  0  0  0
    0.3630   16.5120    5.2810 O   0  0  0  0  0  0  0  0  0  0  0  0
   -1.4100   15.5020    4.2570 O   0  0  0  0  0  0  0  0  0  0  0  0
    7.4258   11.3003    2.0348 H   0  0  0  0  0  0  0  0  0  0  0  0
    8.0171   10.5796    0.4993 H   0  0  0  0  0  0  0  0  0  0  0  0
    6.5474   11.6124    0.4993 H   0  0  0  0  0  0  0  0  0  0  0  0
    5.4482    9.6195    0.5709 H   0  0  0  0  0  0  0  0  0  0  0  0
    6.8955    8.7474    1.2237 H   0  0  0  0  0  0  0  0  0  0  0  0
    4.9443    8.8136    2.8084 H   0  0  0  0  0  0  0  0  0  0  0  0
    6.4623    9.5631    3.4499 H   0  0  0  0  0  0  0  0  0  0  0  0
    4.6683   11.0288    4.0583 H   0  0  0  0  0  0  0  0  0  0  0  0
    5.5408   11.8002    2.6739 H   0  0  0  0  0  0  0  0  0  0  0  0
    3.7593   11.6616    1.3045 H   0  0  0  0  0  0  0  0  0  0  0  0
    3.3308    9.9944    1.9170 H   0  0  0  0  0  0  0  0  0  0  0  0
    1.4904   11.1399    2.6170 H   0  0  0  0  0  0  0  0  0  0  0  0
    2.6029   11.3714    4.0462 H   0  0  0  0  0  0  0  0  0  0  0  0
    3.2704   13.5726    3.0696 H   0  0  0  0  0  0  0  0  0  0  0  0
    1.9330   13.3379    1.8487 H   0  0  0  0  0  0  0  0  0  0  0  0
    0.4151   13.0308    3.9176 H   0  0  0  0  0  0  0  0  0  0  0  0
    1.7832   13.8614    4.8007 H   0  0  0  0  0  0  0  0  0  0  0  0
    1.6085   15.7465    3.2390 H   0  0  0  0  0  0  0  0  0  0  0  0
    0.1413   14.9152    2.5052 H   0  0  0  0  0  0  0  0  0  0  0  0
  1  2  1  0
  2  3  1  0
  3  4  1  0
  4  5  1  0
  5  6  1  0
  6  7  1  0
  7  8  1  0
  8  9  1  0
  9 10  1  0
 10 11  2  0
 10 12  1  0
  1 13  1  0
  1 14  1  0
  1 15  1  0
  2 16  1  0
  2 17  1  0
  3 18  1  0
  3 19  1  0
  4 20  1  0
  4 21  1  0
  5 22  1  0
  5 23  1  0
  6 24  1  0
  6 25  1  0
  7 26  1  0
  7 27  1  0
  8 28  1  0
  8 29  1  0
  9 30  1  0
  9 31  1  0
M  CHG  1  12  -1
M  END
>  <meeko>  (3) 
{"is_sidechain": [false], "free_energy": -4.827, "intermolecular_energy": -7.231, "internal_energy": -0.231}

$$$$
3u9q_ligand
     RDKit          3D

 31 30  0  0  0  0  0  0  0  0999 V2000
    0.5440    5.7430    3.5960 C   0  0  0  0  0  0  0  0  0  0  0  0
    0.2810    7.2350    3.4750 C   0  0  0  0  0  0  0  0  0  0  0  0
    0.4480    7.7200    2.0350 C   0  0  0  0  0  0  0  0  0  0  0  0
    1.9250    7.8150    1.6470 C   0  0  0  0  0  0  0  0  0  0  0  0
    2.6480    8.8780    2.4780 C   0  0  0  0  0  0  0  0  0  0  0  0
    1.9920   10.2610    2.4080 C   0  0  0  0  0  0  0  0  0  0  0  0
    2.9820   11.4130    2.5970 C   0  0  0  0  0  0  0  0  0  0  0  0
    4.4330   10.9460    2.7540 C   0  0  0  0  0  0  0  0  0  0  0  0
    5.3010   11.2270    1.5310 C   0  0  0  0  0  0  0  0  0  0  0  0
    6.4720   10.2580    1.3310 C   0  0  0  0  0  0  0  0  0  0  0  0
    7.5660   10.7600    0.9540 O   0  0  0  0  0  0  0  0  0  0  0  0
    6.1860    9.0490    1.5690 O   0  0  0  0  0  0  0  0  0  0  0  0
    0.5931    5.4644    4.6590 H   0  0  0  0  0  0  0  0  0  0  0  0
   -0.2699    5.1865    3.1083 H   0  0  0  0  0  0  0  0  0  0  0  0
    1.4991    5.4983    3.1083 H   0  0  0  0  0  0  0  0  0  0  0  0
   -0.7471    7.4444    3.8054 H   0  0  0  0  0  0  0  0  0  0  0  0
    1.0110    7.7655    4.1040 H   0  0  0  0  0  0  0  0  0  0  0  0
   -0.0553    7.0135    1.3585 H   0  0  0  0  0  0  0  0  0  0  0  0
    0.0028    8.7225    1.9529 H   0  0  0  0  0  0  0  0  0  0  0  0
    2.4041    6.8395    1.8169 H   0  0  0  0  0  0  0  0  0  0  0  0
    1.9891    8.0989    0.5862 H   0  0  0  0  0  0  0  0  0  0  0  0
    2.6587    8.5508    3.5281 H   0  0  0  0  0  0  0  0  0  0  0  0
    3.6610    8.9796    2.0616 H   0  0  0  0  0  0  0  0  0  0  0  0
    1.5132   10.3705    1.4237 H   0  0  0  0  0  0  0  0  0  0  0  0
    1.2656   10.3182    3.2321 H   0  0  0  0  0  0  0  0  0  0  0  0
    2.9208   12.0734    1.7194 H   0  0  0  0  0  0  0  0  0  0  0  0
    2.7045   11.9318    3.5264 H   0  0  0  0  0  0  0  0  0  0  0  0
    4.8732   11.4635    3.6191 H   0  0  0  0  0  0  0  0  0  0  0  0
    4.4078    9.8544    2.8877 H   0  0  0  0  0  0  0  0  0  0  0  0
    4.6599   11.1762    0.6386 H   0  0  0  0  0  0  0  0  0  0  0  0
    5.7473   12.2194    1.6923 H   0  0  0  0  0  0  0  0  0  0  0  0
  1  2  1  0
  2  3  1  0
  3  4  1  0
  4  5  1  0
  5  6  1  0
  6  7  1  0
  7  8  1  0
  8  9  1  0
  9 10  1  0
 10 11  2  0
 10 12  1  0
  1 13  1  0
  1 14  1  0
  1 15  1  0
  2 16  1  0
  2 17  1  0
  3 18  1  0
  3 19  1  0
  4 20  1  0
  4 21  1  0
  5 22  1  0
  5 23  1  0
  6 24  1  0
  6 25  1  0
  7 26  1  0
  7 27  1  0
  8 28  1  0
  8 29  1  0
  9 30  1  0
  9 31  1  0
M  CHG  1  12  -1
M  END
>  <meeko>  (4) 
{"is_sidechain": [false], "free_energy": -4.728, "intermolecular_energy": -6.844, "internal_energy": -0.471}

$$$$
3u9q_ligand
     RDKit          3D

 31 30  0  0  0  0  0  0  0  0999 V2000
   -1.3820   14.8600    4.3810 C   0  0  0  0  0  0  0  0  0  0  0  0
   -0.2360   15.8400    4.1860 C   0  0  0  0  0  0  0  0  0  0  0  0
    0.9590   15.1760    3.5020 C   0  0  0  0  0  0  0  0  0  0  0  0
    1.3090   13.8410    4.1640 C   0  0  0  0  0  0  0  0  0  0  0  0
    1.4880   12.7360    3.1200 C   0  0  0  0  0  0  0  0  0  0  0  0
    2.9370   12.2550    2.9810 C   0  0  0  0  0  0  0  0  0  0  0  0
    3.0550   10.8500    2.3840 C   0  0  0  0  0  0  0  0  0  0  0  0
    1.7380   10.0680    2.4080 C   0  0  0  0  0  0  0  0  0  0  0  0
    1.8290    8.6980    1.7410 C   0  0  0  0  0  0  0  0  0  0  0  0
    1.5450    7.5070    2.6640 C   0  0  0  0  0  0  0  0  0  0  0  0
    0.9640    6.5150    2.1470 O   0  0  0  0  0  0  0  0  0  0  0  0
    1.9340    7.6760    3.8560 O   0  0  0  0  0  0  0  0  0  0  0  0
   -1.5573   14.7101    5.4566 H   0  0  0  0  0  0  0  0  0  0  0  0
   -2.2926   15.2630    3.9138 H   0  0  0  0  0  0  0  0  0  0  0  0
   -1.1252   13.8978    3.9138 H   0  0  0  0  0  0  0  0  0  0  0  0
   -0.5840   16.6776    3.5636 H   0  0  0  0  0  0  0  0  0  0  0  0
    0.0865   16.1951    5.1759 H   0  0  0  0  0  0  0  0  0  0  0  0
    0.7130   14.9978    2.4448 H   0  0  0  0  0  0  0  0  0  0  0  0
    1.8267   15.8460    3.5927 H   0  0  0  0  0  0  0  0  0  0  0  0
    2.2455   13.9555    4.7296 H   0  0  0  0  0  0  0  0  0  0  0  0
    0.4839   13.5572    4.8338 H   0  0  0  0  0  0  0  0  0  0  0  0
    0.8628   11.8786    3.4098 H   0  0  0  0  0  0  0  0  0  0  0  0
    1.1926   13.1581    2.1481 H   0  0  0  0  0  0  0  0  0  0  0  0
    3.4769   12.9576    2.3292 H   0  0  0  0  0  0  0  0  0  0  0  0
    3.3653   12.2154    3.9934 H   0  0  0  0  0  0  0  0  0  0  0  0
    3.3876   10.9414    1.3395 H   0  0  0  0  0  0  0  0  0  0  0  0
    3.7753   10.2934    3.0016 H   0  0  0  0  0  0  0  0  0  0  0  0
    1.4374    9.9251    3.4564 H   0  0  0  0  0  0  0  0  0  0  0  0
    1.0031   10.6560    1.8387 H   0  0  0  0  0  0  0  0  0  0  0  0
    1.1018    8.6713    0.9161 H   0  0  0  0  0  0  0  0  0  0  0  0
    2.8716    8.5870    1.4084 H   0  0  0  0  0  0  0  0  0  0  0  0
  1  2  1  0
  2  3  1  0
  3  4  1  0
  4  5  1  0
  5  6  1  0
  6  7  1  0
  7  8  1  0
  8  9  1  0
  9 10  1  0
 10 11  2  0
 10 12  1  0
  1 13  1  0
  1 14  1  0
  1 15  1  0
  2 16  1  0
  2 17  1  0
  3 18  1  0
  3 19  1  0
  4 20  1  0
  4 21  1  0
  5 22  1  0
  5 23  1  0
  6 24  1  0
  6 25  1  0
  7 26  1  0
  7 27  1  0
  8 28  1  0
  8 29  1  0
  9 30  1  0
  9 31  1  0
M  CHG  1  12  -1
M  END
>  <meeko>  (5) 
{"is_sidechain": [false], "free_energy": -4.66, "intermolecular_energy": -6.879, "internal_energy": -0.336}

$$$$
3u9q_ligand
     RDKit          3D

 31 30  0  0  0  0  0  0  0  0999 V2000
    0.8190    7.0910    6.9080 C   0  0  0  0  0  0  0  0  0  0  0  0
    1.5430    6.9610    5.5790 C   0  0  0  0  0  0  0  0  0  0  0  0
    1.2090    5.6410    4.8850 C   0  0  0  0  0  0  0  0  0  0  0  0
    0.4740    5.8750    3.5630 C   0  0  0  0  0  0  0  0  0  0  0  0
    0.2970    7.3700    3.2870 C   0  0  0  0  0  0  0  0  0  0  0  0
    0.1870    7.7070    1.7960 C   0  0  0  0  0  0  0  0  0  0  0  0
    0.8300    9.0480    1.4280 C   0  0  0  0  0  0  0  0  0  0  0  0
    1.9040    9.4990    2.4230 C   0  0  0  0  0  0  0  0  0  0  0  0
    3.3210    9.1160    2.0060 C   0  0  0  0  0  0  0  0  0  0  0  0
    4.4090   10.1170    2.4130 C   0  0  0  0  0  0  0  0  0  0  0  0
    4.1800   11.3330    2.1700 O   0  0  0  0  0  0  0  0  0  0  0  0
    5.4240    9.5840    2.9500 O   0  0  0  0  0  0  0  0  0  0  0  0
    1.5373    6.9620    7.7310 H   0  0  0  0  0  0  0  0  0  0  0  0
    0.3564    8.0866    6.9777 H   0  0  0  0  0  0  0  0  0  0  0  0
    0.0390    6.3186    6.9777 H   0  0  0  0  0  0  0  0  0  0  0  0
    1.2433    7.7938    4.9259 H   0  0  0  0  0  0  0  0  0  0  0  0
    2.6256    6.9845    5.7724 H   0  0  0  0  0  0  0  0  0  0  0  0
    2.1432    5.0963    4.6835 H   0  0  0  0  0  0  0  0  0  0  0  0
    0.5523    5.0582    5.5476 H   0  0  0  0  0  0  0  0  0  0  0  0
    1.0551    5.4251    2.7445 H   0  0  0  0  0  0  0  0  0  0  0  0
   -0.5217    5.4123    3.6306 H   0  0  0  0  0  0  0  0  0  0  0  0
   -0.6202    7.7108    3.7897 H   0  0  0  0  0  0  0  0  0  0  0  0
    1.1949    7.8782    3.6684 H   0  0  0  0  0  0  0  0  0  0  0  0
    0.6843    6.9120    1.2209 H   0  0  0  0  0  0  0  0  0  0  0  0
   -0.8842    7.7834    1.5578 H   0  0  0  0  0  0  0  0  0  0  0  0
    1.2926    8.9523    0.4346 H   0  0  0  0  0  0  0  0  0  0  0  0
    0.0332    9.8062    1.4432 H   0  0  0  0  0  0  0  0  0  0  0  0
    1.8530   10.5937    2.5176 H   0  0  0  0  0  0  0  0  0  0  0  0
    1.6979    8.9874    3.3747 H   0  0  0  0  0  0  0  0  0  0  0  0
    3.5612    8.1456    2.4648 H   0  0  0  0  0  0  0  0  0  0  0  0
    3.3218    9.0912    0.9063 H   0  0  0  0  0  0  0  0  0  0  0  0
  1  2  1  0
  2  3  1  0
  3  4  1  0
  4  5  1  0
  5  6  1  0
  6  7  1  0
  7  8  1  0
  8  9  1  0
  9 10  1  0
 10 11  2  0
 10 12  1  0
  1 13  1  0
  1 14  1  0
  1 15  1  0
  2 16  1  0
  2 17  1  0
  3 18  1  0
  3 19  1  0
  4 20  1  0
  4 21  1  0
  5 22  1  0
  5 23  1  0
  6 24  1  0
  6 25  1  0
  7 26  1  0
  7 27  1  0
  8 28  1  0
  8 29  1  0
  9 30  1  0
  9 31  1  0
M  CHG  1  12  -1
M  END
>  <meeko>  (6) 
{"is_sidechain": [false], "free_energy": -4.553, "intermolecular_energy": -6.496, "internal_energy": -0.562}

$$$$
3u9q_ligand
     RDKit          3D

 31 30  0  0  0  0  0  0  0  0999 V2000
   -3.0680   10.6110    6.4970 C   0  0  0  0  0  0  0  0  0  0  0  0
   -2.3490    9.4260    7.1200 C   0  0  0  0  0  0  0  0  0  0  0  0
   -2.5090    8.1640    6.2720 C   0  0  0  0  0  0  0  0  0  0  0  0
   -1.1650    7.4680    6.0490 C   0  0  0  0  0  0  0  0  0  0  0  0
   -0.6290    7.7340    4.6410 C   0  0  0  0  0  0  0  0  0  0  0  0
    0.4830    6.7690    4.2160 C   0  0  0  0  0  0  0  0  0  0  0  0
    0.5810    6.5870    2.6990 C   0  0  0  0  0  0  0  0  0  0  0  0
    0.0190    7.7720    1.9080 C   0  0  0  0  0  0  0  0  0  0  0  0
    1.0950    8.6350    1.2530 C   0  0  0  0  0  0  0  0  0  0  0  0
    1.8480    9.5680    2.2090 C   0  0  0  0  0  0  0  0  0  0  0  0
    3.0510    9.2790    2.4520 O   0  0  0  0  0  0  0  0  0  0  0  0
    1.1500   10.5290    2.6460 O   0  0  0  0  0  0  0  0  0  0  0  0
   -3.4620   11.2604    7.2926 H   0  0  0  0  0  0  0  0  0  0  0  0
   -2.3634   11.1811    5.8737 H   0  0  0  0  0  0  0  0  0  0  0  0
   -3.8991   10.2493    5.8737 H   0  0  0  0  0  0  0  0  0  0  0  0
   -1.2786    9.6637    7.2085 H   0  0  0  0  0  0  0  0  0  0  0  0
   -2.7911    9.2354    8.1090 H   0  0  0  0  0  0  0  0  0  0  0  0
   -3.1902    7.4706    6.7870 H   0  0  0  0  0  0  0  0  0  0  0  0
   -2.9156    8.4543    5.2920 H   0  0  0  0  0  0  0  0  0  0  0  0
   -0.4399    7.8443    6.7856 H   0  0  0  0  0  0  0  0  0  0  0  0
   -1.3113    6.3841    6.1661 H   0  0  0  0  0  0  0  0  0  0  0  0
   -1.4617    7.6407    3.9284 H   0  0  0  0  0  0  0  0  0  0  0  0
   -0.1947    8.7446    4.6465 H   0  0  0  0  0  0  0  0  0  0  0  0
    1.4434    7.1597    4.5834 H   0  0  0  0  0  0  0  0  0  0  0  0
    0.2429    5.7858    4.6469 H   0  0  0  0  0  0  0  0  0  0  0  0
    1.6401    6.4591    2.4306 H   0  0  0  0  0  0  0  0  0  0  0  0
   -0.0228    5.7056    2.4374 H   0  0  0  0  0  0  0  0  0  0  0  0
   -0.6416    7.3820    1.1197 H   0  0  0  0  0  0  0  0  0  0  0  0
   -0.5169    8.4126    2.6238 H   0  0  0  0  0  0  0  0  0  0  0  0
    1.8290    7.9654    0.7810 H   0  0  0  0  0  0  0  0  0  0  0  0
    0.5730    9.2856    0.5359 H   0  0  0  0  0  0  0  0  0  0  0  0
  1  2  1  0
  2  3  1  0
  3  4  1  0
  4  5  1  0
  5  6  1  0
  6  7  1  0
  7  8  1  0
  8  9  1  0
  9 10  1  0
 10 11  2  0
 10 12  1  0
  1 13  1  0
  1 14  1  0
  1 15  1  0
  2 16  1  0
  2 17  1  0
  3 18  1  0
  3 19  1  0
  4 20  1  0
  4 21  1  0
  5 22  1  0
  5 23  1  0
  6 24  1  0
  6 25  1  0
  7 26  1  0
  7 27  1  0
  8 28  1  0
  8 29  1  0
  9 30  1  0
  9 31  1  0
M  CHG  1  12  -1
M  END
>  <meeko>  (7) 
{"is_sidechain": [false], "free_energy": -4.476, "intermolecular_energy": -6.457, "internal_energy": -0.488}

$$$$
3u9q_ligand
     RDKit          3D

 31 30  0  0  0  0  0  0  0  0999 V2000
   -0.6900    4.0570    8.1930 C   0  0  0  0  0  0  0  0  0  0  0  0
   -1.3060    5.4130    7.8910 C   0  0  0  0  0  0  0  0  0  0  0  0
   -0.2400    6.5050    7.7980 C   0  0  0  0  0  0  0  0  0  0  0  0
   -0.0890    7.0160    6.3640 C   0  0  0  0  0  0  0  0  0  0  0  0
    1.3810    7.0490    5.9400 C   0  0  0  0  0  0  0  0  0  0  0  0
    1.8310    5.7870    5.1950 C   0  0  0  0  0  0  0  0  0  0  0  0
    0.7770    5.2460    4.2260 C   0  0  0  0  0  0  0  0  0  0  0  0
    0.3360    3.8140    4.5470 C   0  0  0  0  0  0  0  0  0  0  0  0
    1.3980    2.9970    5.2760 C   0  0  0  0  0  0  0  0  0  0  0  0
    1.1940    1.4780    5.2280 C   0  0  0  0  0  0  0  0  0  0  0  0
    1.4640    0.9050    4.1380 O   0  0  0  0  0  0  0  0  0  0  0  0
    0.7670    0.9810    6.3100 O   0  0  0  0  0  0  0  0  0  0  0  0
   -0.6266    3.9175    9.2823 H   0  0  0  0  0  0  0  0  0  0  0  0
   -1.3165    3.2645    7.7577 H   0  0  0  0  0  0  0  0  0  0  0  0
    0.3190    4.0075    7.7577 H   0  0  0  0  0  0  0  0  0  0  0  0
   -1.8436    5.3559    6.9330 H   0  0  0  0  0  0  0  0  0  0  0  0
   -1.9927    5.6702    8.7109 H   0  0  0  0  0  0  0  0  0  0  0  0
   -0.5290    7.3437    8.4484 H   0  0  0  0  0  0  0  0  0  0  0  0
    0.7223    6.0779    8.1168 H   0  0  0  0  0  0  0  0  0  0  0  0
   -0.6432    6.3505    5.6858 H   0  0  0  0  0  0  0  0  0  0  0  0
   -0.4886    8.0397    6.3152 H   0  0  0  0  0  0  0  0  0  0  0  0
    1.5337    7.9159    5.2803 H   0  0  0  0  0  0  0  0  0  0  0  0
    1.9816    7.1135    6.8593 H   0  0  0  0  0  0  0  0  0  0  0  0
    2.7406    6.0247    4.6239 H   0  0  0  0  0  0  0  0  0  0  0  0
    2.0073    5.0082    5.9516 H   0  0  0  0  0  0  0  0  0  0  0  0
   -0.1057    5.9010    4.2691 H   0  0  0  0  0  0  0  0  0  0  0  0
    1.2329    5.2296    3.2250 H   0  0  0  0  0  0  0  0  0  0  0  0
   -0.5624    3.8604    5.1801 H   0  0  0  0  0  0  0  0  0  0  0  0
    0.1456    3.3122    3.5868 H   0  0  0  0  0  0  0  0  0  0  0  0
    2.3741    3.2246    4.8228 H   0  0  0  0  0  0  0  0  0  0  0  0
    1.3311    3.2826    6.3362 H   0  0  0  0  0  0  0  0  0  0  0  0
  1  2  1  0
  2  3  1  0
  3  4  1  0
  4  5  1  0
  5  6  1  0
  6  7  1  0
  7  8  1  0
  8  9  1  0
  9 10  1  0
 10 11  2  0
 10 12  1  0
  1 13  1  0
  1 14  1  0
  1 15  1  0
  2 16  1  0
  2 17  1  0
  3 18  1  0
  3 19  1  0
  4 20  1  0
  4 21  1  0
  5 22  1  0
  5 23  1  0
  6 24  1  0
  6 25  1  0
  7 26  1  0
  7 27  1  0
  8 28  1  0
  8 29  1  0
  9 30  1  0
  9 31  1  0
M  CHG  1  12  -1
M  END
>  <meeko>  (8) 
{"is_sidechain": [false], "free_energy": -4.448, "intermolecular_energy": -5.984, "internal_energy": -0.92}

$$$$
3u9q_ligand
     RDKit          3D

 31 30  0  0  0  0  0  0  0  0999 V2000
    0.1290    1.3900    4.6000 C   0  0  0  0  0  0  0  0  0  0  0  0
    1.4980    1.6980    5.1840 C   0  0  0  0  0  0  0  0  0  0  0  0
    1.7820    3.2000    5.1860 C   0  0  0  0  0  0  0  0  0  0  0  0
    0.5250    4.0060    4.8490 C   0  0  0  0  0  0  0  0  0  0  0  0
    0.5170    5.3510    5.5780 C   0  0  0  0  0  0  0  0  0  0  0  0
    0.7870    6.5470    4.6590 C   0  0  0  0  0  0  0  0  0  0  0  0
    0.7870    6.1820    3.1720 C   0  0  0  0  0  0  0  0  0  0  0  0
    0.4350    7.3590    2.2570 C   0  0  0  0  0  0  0  0  0  0  0  0
    1.6510    8.0020    1.5940 C   0  0  0  0  0  0  0  0  0  0  0  0
    2.1690    9.2700    2.2820 C   0  0  0  0  0  0  0  0  0  0  0  0
    1.3280   10.1850    2.4930 O   0  0  0  0  0  0  0  0  0  0  0  0
    3.4050    9.2400    2.5530 O   0  0  0  0  0  0  0  0  0  0  0  0
   -0.5900    1.2282    5.4166 H   0  0  0  0  0  0  0  0  0  0  0  0
   -0.2040    2.2357    3.9804 H   0  0  0  0  0  0  0  0  0  0  0  0
    0.1903    0.4832    3.9804 H   0  0  0  0  0  0  0  0  0  0  0  0
    1.5373    1.3256    6.2183 H   0  0  0  0  0  0  0  0  0  0  0  0
    2.2579    1.2042    4.5605 H   0  0  0  0  0  0  0  0  0  0  0  0
    2.1399    3.4953    6.1833 H   0  0  0  0  0  0  0  0  0  0  0  0
    2.5435    3.4096    4.4204 H   0  0  0  0  0  0  0  0  0  0  0  0
    0.4944    4.1859    3.7642 H   0  0  0  0  0  0  0  0  0  0  0  0
   -0.3546    3.4299    5.1721 H   0  0  0  0  0  0  0  0  0  0  0  0
   -0.4691    5.4873    6.0459 H   0  0  0  0  0  0  0  0  0  0  0  0
    1.3302    5.3222    6.3182 H   0  0  0  0  0  0  0  0  0  0  0  0
    0.0074    7.3034    4.8326 H   0  0  0  0  0  0  0  0  0  0  0  0
    1.7918    6.9232    4.9015 H   0  0  0  0  0  0  0  0  0  0  0  0
    1.7894    5.8182    2.9022 H   0  0  0  0  0  0  0  0  0  0  0  0
    0.0130    5.4142    3.0260 H   0  0  0  0  0  0  0  0  0  0  0  0
   -0.2403    6.9964    1.4680 H   0  0  0  0  0  0  0  0  0  0  0  0
   -0.0339    8.1290    2.8873 H   0  0  0  0  0  0  0  0  0  0  0  0
    2.4651    7.2624    1.5839 H   0  0  0  0  0  0  0  0  0  0  0  0
    1.3268    8.3084    0.5885 H   0  0  0  0  0  0  0  0  0  0  0  0
  1  2  1  0
  2  3  1  0
  3  4  1  0
  4  5  1  0
  5  6  1  0
  6  7  1  0
  7  8  1  0
  8  9  1  0
  9 10  1  0
 10 11  2  0
 10 12  1  0
  1 13  1  0
  1 14  1  0
  1 15  1  0
  2 16  1  0
  2 17  1  0
  3 18  1  0
  3 19  1  0
  4 20  1  0
  4 21  1  0
  5 22  1  0
  5 23  1  0
  6 24  1  0
  6 25  1  0
  7 26  1  0
  7 27  1  0
  8 28  1  0
  8 29  1  0
  9 30  1  0
  9 31  1  0
M  CHG  1  12  -1
M  END
>  <meeko>  (9) 
{"is_sidechain": [false], "free_energy": -4.438, "intermolecular_energy": -6.495, "internal_energy": -0.395}

$$$$
