3k5v_ligand
     RDKit          3D

 40 42  0  0  0  0  0  0  0  0999 V2000
   -8.9480    3.2440    9.4260 N   0  0  0  0  0  0  0  0  0  0  0  0
   -7.5840    3.1420    9.3890 C   0  0  0  0  0  0  0  0  0  0  0  0
   -6.9020    4.0300    8.8950 O   0  0  0  0  0  0  0  0  0  0  0  0
   -6.9740    1.9410   10.0170 C   0  0  0  0  0  0  0  0  0  0  0  0
   -7.7390    1.2100   10.9280 C   0  0  0  0  0  0  0  0  0  0  0  0
   -7.1990    0.0850   11.5410 C   0  0  0  0  0  0  0  0  0  0  0  0
   -5.8890   -0.3060   11.2480 C   0  0  0  0  0  0  0  0  0  0  0  0
   -5.0840    0.4140   10.3430 C   0  0  0  0  0  0  0  0  0  0  0  0
   -3.6930   -0.0160   10.0700 C   0  0  0  0  0  0  0  0  0  0  0  0
   -2.8200    0.7030    9.2700 C   0  0  0  0  0  0  0  0  0  0  0  0
   -1.5430    0.1970    9.0830 C   0  0  0  0  0  0  0  0  0  0  0  0
   -0.6600    0.9380    8.2570 N   0  0  0  0  0  0  0  0  0  0  0  0
   -0.6320    2.3300    8.0220 C   0  0  0  0  0  0  0  0  0  0  0  0
   -1.4270    2.9560    7.0580 C   0  0  0  0  0  0  0  0  0  0  0  0
   -1.4150    4.3470    6.9070 C   0  0  0  0  0  0  0  0  0  0  0  0
   -0.6260    5.1510    7.7320 C   0  0  0  0  0  0  0  0  0  0  0  0
   -0.7120    6.4870    7.4720 O   0  0  0  0  0  0  0  0  0  0  0  0
   -1.7920    7.2030    8.0450 C   0  0  0  0  0  0  0  0  0  0  0  0
   -1.4240    8.4940    8.2000 F   0  0  0  0  0  0  0  0  0  0  0  0
   -2.1160    6.7110    9.2610 F   0  0  0  0  0  0  0  0  0  0  0  0
   -2.8790    7.1710    7.2430 F   0  0  0  0  0  0  0  0  0  0  0  0
    0.1430    4.5430    8.7210 C   0  0  0  0  0  0  0  0  0  0  0  0
    0.1270    3.1490    8.8700 C   0  0  0  0  0  0  0  0  0  0  0  0
   -1.1620   -0.9580    9.6480 N   0  0  0  0  0  0  0  0  0  0  0  0
   -2.0670   -1.5870   10.4050 C   0  0  0  0  0  0  0  0  0  0  0  0
   -3.3180   -1.1760   10.6450 N   0  0  0  0  0  0  0  0  0  0  0  0
   -5.6530    1.5510    9.7380 C   0  0  0  0  0  0  0  0  0  0  0  0
   -9.3180    4.1380    9.1240 H   0  0  0  0  0  0  0  0  0  0  0  0
   -9.4940    2.7310   10.1030 H   0  0  0  0  0  0  0  0  0  0  0  0
   -8.7674    1.5237   11.1604 H   0  0  0  0  0  0  0  0  0  0  0  0
   -7.8011   -0.4962   12.2549 H   0  0  0  0  0  0  0  0  0  0  0  0
   -5.4755   -1.2002   11.7374 H   0  0  0  0  0  0  0  0  0  0  0  0
   -3.1306    1.6466    8.7976 H   0  0  0  0  0  0  0  0  0  0  0  0
   -0.4700    0.4140    7.4100 H   0  0  0  0  0  0  0  0  0  0  0  0
   -2.0718    2.3461    6.4082 H   0  0  0  0  0  0  0  0  0  0  0  0
   -2.0356    4.8135    6.1277 H   0  0  0  0  0  0  0  0  0  0  0  0
    0.7651    5.1585    9.3875 H   0  0  0  0  0  0  0  0  0  0  0  0
    0.7236    2.6872    9.6705 H   0  0  0  0  0  0  0  0  0  0  0  0
   -1.7540   -2.5311   10.8748 H   0  0  0  0  0  0  0  0  0  0  0  0
   -5.0522    2.1452    9.0337 H   0  0  0  0  0  0  0  0  0  0  0  0
  1  2  1  0
  2  3  2  0
  2  4  1  0
  4  5  2  0
  5  6  1  0
  6  7  2  0
  7  8  1  0
  8  9  1  0
  9 10  2  0
 10 11  1  0
 11 12  1  0
 12 13  1  0
 13 14  2  0
 14 15  1  0
 15 16  2  0
 16 17  1  0
 17 18  1  0
 18 19  1  0
 18 20  1  0
 18 21  1  0
 16 22  1  0
 22 23  2  0
 11 24  2  0
 24 25  1  0
 25 26  2  0
  8 27  2  0
 27  4  1  0
 26  9  1  0
 23 13  1  0
  1 28  1  0
  1 29  1  0
  5 30  1  0
  6 31  1  0
  7 32  1  0
 10 33  1  0
 12 34  1  0
 14 35  1  0
 15 36  1  0
 22 37  1  0
 23 38  1  0
 25 39  1  0
 27 40  1  0
M  END
>  <meeko>  (1) 
{"is_sidechain": [false], "free_energy": -9.323, "intermolecular_energy": -12.593, "internal_energy": -1.146}

$$$$
3k5v_ligand
     RDKit          3D

 40 42  0  0  0  0  0  0  0  0999 V2000
  -10.7560    0.3040   11.0600 N   0  0  0  0  0  0  0  0  0  0  0  0
   -9.5350    0.2480   11.6770 C   0  0  0  0  0  0  0  0  0  0  0  0
   -9.3610   -0.4610   12.6590 O   0  0  0  0  0  0  0  0  0  0  0  0
   -8.4310    1.0400   11.0740 C   0  0  0  0  0  0  0  0  0  0  0  0
   -8.7590    2.1850   10.3460 C   0  0  0  0  0  0  0  0  0  0  0  0
   -7.7520    2.9460    9.7620 C   0  0  0  0  0  0  0  0  0  0  0  0
   -6.4170    2.5580    9.9000 C   0  0  0  0  0  0  0  0  0  0  0  0
   -6.0500    1.4020   10.6170 C   0  0  0  0  0  0  0  0  0  0  0  0
   -4.6270    1.0080   10.7280 C   0  0  0  0  0  0  0  0  0  0  0  0
   -3.6650    1.3660    9.7980 C   0  0  0  0  0  0  0  0  0  0  0  0
   -2.3640    0.9320   10.0060 C   0  0  0  0  0  0  0  0  0  0  0  0
   -1.3900    1.3000    9.0440 N   0  0  0  0  0  0  0  0  0  0  0  0
   -1.1570    2.5670    8.4650 C   0  0  0  0  0  0  0  0  0  0  0  0
   -1.9450    3.0920    7.4370 C   0  0  0  0  0  0  0  0  0  0  0  0
   -1.7160    4.3800    6.9400 C   0  0  0  0  0  0  0  0  0  0  0  0
   -0.7100    5.1870    7.4750 C   0  0  0  0  0  0  0  0  0  0  0  0
   -0.6010    6.4160    6.8950 O   0  0  0  0  0  0  0  0  0  0  0  0
   -1.5010    7.4260    7.3140 C   0  0  0  0  0  0  0  0  0  0  0  0
   -1.8100    7.2210    8.6130 F   0  0  0  0  0  0  0  0  0  0  0  0
   -2.6470    7.3880    6.6000 F   0  0  0  0  0  0  0  0  0  0  0  0
   -0.9440    8.6520    7.2050 F   0  0  0  0  0  0  0  0  0  0  0  0
    0.0580    4.6890    8.5250 C   0  0  0  0  0  0  0  0  0  0  0  0
   -0.1740    3.3980    9.0200 C   0  0  0  0  0  0  0  0  0  0  0  0
   -2.0440    0.1800   11.0680 N   0  0  0  0  0  0  0  0  0  0  0  0
   -3.0330   -0.1210   11.9170 C   0  0  0  0  0  0  0  0  0  0  0  0
   -4.3120    0.2540   11.8000 N   0  0  0  0  0  0  0  0  0  0  0  0
   -7.0870    0.6470   11.1970 C   0  0  0  0  0  0  0  0  0  0  0  0
  -11.4400   -0.3570   11.4070 H   0  0  0  0  0  0  0  0  0  0  0  0
  -10.8420    0.5840   10.0940 H   0  0  0  0  0  0  0  0  0  0  0  0
   -9.8115    2.4847   10.2345 H   0  0  0  0  0  0  0  0  0  0  0  0
   -8.0063    3.8520    9.1923 H   0  0  0  0  0  0  0  0  0  0  0  0
   -5.6308    3.1719    9.4362 H   0  0  0  0  0  0  0  0  0  0  0  0
   -3.9250    1.9763    8.9206 H   0  0  0  0  0  0  0  0  0  0  0  0
   -1.2900    0.5550    8.3630 H   0  0  0  0  0  0  0  0  0  0  0  0
   -2.7572    2.4838    7.0123 H   0  0  0  0  0  0  0  0  0  0  0  0
   -2.3372    4.7619    6.1164 H   0  0  0  0  0  0  0  0  0  0  0  0
    0.8498    5.3112    8.9676 H   0  0  0  0  0  0  0  0  0  0  0  0
    0.4289    3.0289    9.8628 H   0  0  0  0  0  0  0  0  0  0  0  0
   -2.7705   -0.7334   12.7922 H   0  0  0  0  0  0  0  0  0  0  0  0
   -6.8410   -0.2674   11.7568 H   0  0  0  0  0  0  0  0  0  0  0  0
  1  2  1  0
  2  3  2  0
  2  4  1  0
  4  5  2  0
  5  6  1  0
  6  7  2  0
  7  8  1  0
  8  9  1  0
  9 10  2  0
 10 11  1  0
 11 12  1  0
 12 13  1  0
 13 14  2  0
 14 15  1  0
 15 16  2  0
 16 17  1  0
 17 18  1  0
 18 19  1  0
 18 20  1  0
 18 21  1  0
 16 22  1  0
 22 23  2  0
 11 24  2  0
 24 25  1  0
 25 26  2  0
  8 27  2  0
 27  4  1  0
 26  9  1  0
 23 13  1  0
  1 28  1  0
  1 29  1  0
  5 30  1  0
  6 31  1  0
  7 32  1  0
 10 33  1  0
 12 34  1  0
 14 35  1  0
 15 36  1  0
 22 37  1  0
 23 38  1  0
 25 39  1  0
 27 40  1  0
M  END
>  <meeko>  (2) 
{"is_sidechain": [false], "free_energy": -9.287, "intermolecular_energy": -12.772, "internal_energy": -0.919}

$$$$
3k5v_ligand
     RDKit          3D

 40 42  0  0  0  0  0  0  0  0999 V2000
   -7.8950   -2.1810   14.9810 N   0  0  0  0  0  0  0  0  0  0  0  0
   -7.8140   -2.2480   13.6160 C   0  0  0  0  0  0  0  0  0  0  0  0
   -7.2510   -3.1860   13.0670 O   0  0  0  0  0  0  0  0  0  0  0  0
   -8.4780   -1.1680   12.8410 C   0  0  0  0  0  0  0  0  0  0  0  0
   -9.8740   -1.1150   12.8430 C   0  0  0  0  0  0  0  0  0  0  0  0
  -10.5300   -0.1230   12.1230 C   0  0  0  0  0  0  0  0  0  0  0  0
   -9.7910    0.8140   11.3950 C   0  0  0  0  0  0  0  0  0  0  0  0
   -8.3830    0.7840   11.3600 C   0  0  0  0  0  0  0  0  0  0  0  0
   -7.6300    1.7790   10.5630 C   0  0  0  0  0  0  0  0  0  0  0  0
   -6.2480    1.7830   10.4620 C   0  0  0  0  0  0  0  0  0  0  0  0
   -5.6540    2.7690    9.6890 C   0  0  0  0  0  0  0  0  0  0  0  0
   -4.2400    2.7660    9.5990 N   0  0  0  0  0  0  0  0  0  0  0  0
   -3.4030    3.6130    8.8400 C   0  0  0  0  0  0  0  0  0  0  0  0
   -3.3180    4.9910    9.0530 C   0  0  0  0  0  0  0  0  0  0  0  0
   -2.4240    5.7800    8.3200 C   0  0  0  0  0  0  0  0  0  0  0  0
   -1.5730    5.2070    7.3720 C   0  0  0  0  0  0  0  0  0  0  0  0
   -0.7570    6.0940    6.7340 O   0  0  0  0  0  0  0  0  0  0  0  0
   -1.3460    6.9770    5.7960 C   0  0  0  0  0  0  0  0  0  0  0  0
   -2.4130    6.3660    5.2350 F   0  0  0  0  0  0  0  0  0  0  0  0
   -0.4780    7.2940    4.8100 F   0  0  0  0  0  0  0  0  0  0  0  0
   -1.7780    8.1080    6.3940 F   0  0  0  0  0  0  0  0  0  0  0  0
   -1.6210    3.8290    7.1760 C   0  0  0  0  0  0  0  0  0  0  0  0
   -2.5180    3.0430    7.9130 C   0  0  0  0  0  0  0  0  0  0  0  0
   -6.3900    3.6990    9.0640 N   0  0  0  0  0  0  0  0  0  0  0  0
   -7.7170    3.6220    9.2140 C   0  0  0  0  0  0  0  0  0  0  0  0
   -8.3770    2.7090    9.9350 N   0  0  0  0  0  0  0  0  0  0  0  0
   -7.7410   -0.2320   12.0960 C   0  0  0  0  0  0  0  0  0  0  0  0
   -7.5620   -3.0030   15.4700 H   0  0  0  0  0  0  0  0  0  0  0  0
   -8.6160   -1.6410   15.4370 H   0  0  0  0  0  0  0  0  0  0  0  0
  -10.4529   -1.8566   13.4130 H   0  0  0  0  0  0  0  0  0  0  0  0
  -11.6290   -0.0755   12.1262 H   0  0  0  0  0  0  0  0  0  0  0  0
  -10.3235    1.5962   10.8341 H   0  0  0  0  0  0  0  0  0  0  0  0
   -5.6402    1.0264   10.9797 H   0  0  0  0  0  0  0  0  0  0  0  0
   -3.9030    1.8100    9.5950 H   0  0  0  0  0  0  0  0  0  0  0  0
   -3.9635    5.4632    9.8083 H   0  0  0  0  0  0  0  0  0  0  0  0
   -2.3911    6.8658    8.4928 H   0  0  0  0  0  0  0  0  0  0  0  0
   -0.9533    3.3560    6.4409 H   0  0  0  0  0  0  0  0  0  0  0  0
   -2.5280    1.9536    7.7607 H   0  0  0  0  0  0  0  0  0  0  0  0
   -8.3221    4.3806    8.6959 H   0  0  0  0  0  0  0  0  0  0  0  0
   -6.6428   -0.2934   12.0871 H   0  0  0  0  0  0  0  0  0  0  0  0
  1  2  1  0
  2  3  2  0
  2  4  1  0
  4  5  2  0
  5  6  1  0
  6  7  2  0
  7  8  1  0
  8  9  1  0
  9 10  2  0
 10 11  1  0
 11 12  1  0
 12 13  1  0
 13 14  2  0
 14 15  1  0
 15 16  2  0
 16 17  1  0
 17 18  1  0
 18 19  1  0
 18 20  1  0
 18 21  1  0
 16 22  1  0
 22 23  2  0
 11 24  2  0
 24 25  1  0
 25 26  2  0
  8 27  2  0
 27  4  1  0
 26  9  1  0
 23 13  1  0
  1 28  1  0
  1 29  1  0
  5 30  1  0
  6 31  1  0
  7 32  1  0
 10 33  1  0
 12 34  1  0
 14 35  1  0
 15 36  1  0
 22 37  1  0
 23 38  1  0
 25 39  1  0
 27 40  1  0
M  END
>  <meeko>  (3) 
{"is_sidechain": [false], "free_energy": -9.032, "intermolecular_energy": -12.618, "internal_energy": -0.729}

$$$$
3k5v_ligand
     RDKit          3D

 40 42  0  0  0  0  0  0  0  0999 V2000
    0.0950    7.4010    4.6140 N   0  0  0  0  0  0  0  0  0  0  0  0
   -1.1640    7.0080    4.9810 C   0  0  0  0  0  0  0  0  0  0  0  0
   -2.0620    6.9270    4.1540 O   0  0  0  0  0  0  0  0  0  0  0  0
   -1.3730    6.6370    6.4060 C   0  0  0  0  0  0  0  0  0  0  0  0
   -2.0910    7.5170    7.2190 C   0  0  0  0  0  0  0  0  0  0  0  0
   -2.3000    7.2070    8.5580 C   0  0  0  0  0  0  0  0  0  0  0  0
   -1.7850    6.0200    9.0870 C   0  0  0  0  0  0  0  0  0  0  0  0
   -1.0460    5.1150    8.3000 C   0  0  0  0  0  0  0  0  0  0  0  0
   -0.4970    3.8760    8.8960 C   0  0  0  0  0  0  0  0  0  0  0  0
   -1.2910    2.8410    9.3610 C   0  0  0  0  0  0  0  0  0  0  0  0
   -0.6620    1.7310    9.9040 C   0  0  0  0  0  0  0  0  0  0  0  0
   -1.4850    0.6810   10.3830 N   0  0  0  0  0  0  0  0  0  0  0  0
   -2.8860    0.6690   10.5580 C   0  0  0  0  0  0  0  0  0  0  0  0
   -3.5360    1.3950   11.5590 C   0  0  0  0  0  0  0  0  0  0  0  0
   -4.9320    1.4050   11.6520 C   0  0  0  0  0  0  0  0  0  0  0  0
   -5.7170    0.7090   10.7310 C   0  0  0  0  0  0  0  0  0  0  0  0
   -7.0610    0.8070   10.9430 O   0  0  0  0  0  0  0  0  0  0  0  0
   -7.7700    1.8080   10.2340 C   0  0  0  0  0  0  0  0  0  0  0  0
   -7.0690    2.9620   10.2950 F   0  0  0  0  0  0  0  0  0  0  0  0
   -8.9860    2.0270   10.7790 F   0  0  0  0  0  0  0  0  0  0  0  0
   -7.9140    1.4740    8.9330 F   0  0  0  0  0  0  0  0  0  0  0  0
   -5.0840    0.0110    9.7050 C   0  0  0  0  0  0  0  0  0  0  0  0
   -3.6850    0.0040    9.6160 C   0  0  0  0  0  0  0  0  0  0  0  0
    0.6740    1.6610    9.9880 N   0  0  0  0  0  0  0  0  0  0  0  0
    1.3650    2.7040    9.5160 C   0  0  0  0  0  0  0  0  0  0  0  0
    0.8470    3.8120    8.9740 N   0  0  0  0  0  0  0  0  0  0  0  0
   -0.8450    5.4530    6.9470 C   0  0  0  0  0  0  0  0  0  0  0  0
    0.2360    7.5020    3.6160 H   0  0  0  0  0  0  0  0  0  0  0  0
    0.9030    7.1520    5.1660 H   0  0  0  0  0  0  0  0  0  0  0  0
   -2.4901    8.4529    6.8009 H   0  0  0  0  0  0  0  0  0  0  0  0
   -2.8698    7.8947    9.2002 H   0  0  0  0  0  0  0  0  0  0  0  0
   -1.9617    5.7861   10.1472 H   0  0  0  0  0  0  0  0  0  0  0  0
   -2.3879    2.8978    9.3014 H   0  0  0  0  0  0  0  0  0  0  0  0
   -1.0120    0.1980   11.1380 H   0  0  0  0  0  0  0  0  0  0  0  0
   -2.9409    1.9678   12.2855 H   0  0  0  0  0  0  0  0  0  0  0  0
   -5.4177    1.9690   12.4619 H   0  0  0  0  0  0  0  0  0  0  0  0
   -5.6836   -0.5362    8.9626 H   0  0  0  0  0  0  0  0  0  0  0  0
   -3.2023   -0.5357    8.7879 H   0  0  0  0  0  0  0  0  0  0  0  0
    2.4616    2.6455    9.5793 H   0  0  0  0  0  0  0  0  0  0  0  0
   -0.2638    4.7772    6.3024 H   0  0  0  0  0  0  0  0  0  0  0  0
  1  2  1  0
  2  3  2  0
  2  4  1  0
  4  5  2  0
  5  6  1  0
  6  7  2  0
  7  8  1  0
  8  9  1  0
  9 10  2  0
 10 11  1  0
 11 12  1  0
 12 13  1  0
 13 14  2  0
 14 15  1  0
 15 16  2  0
 16 17  1  0
 17 18  1  0
 18 19  1  0
 18 20  1  0
 18 21  1  0
 16 22  1  0
 22 23  2  0
 11 24  2  0
 24 25  1  0
 25 26  2  0
  8 27  2  0
 27  4  1  0
 26  9  1  0
 23 13  1  0
  1 28  1  0
  1 29  1  0
  5 30  1  0
  6 31  1  0
  7 32  1  0
 10 33  1  0
 12 34  1  0
 14 35  1  0
 15 36  1  0
 22 37  1  0
 23 38  1  0
 25 39  1  0
 27 40  1  0
M  END
>  <meeko>  (4) 
{"is_sidechain": [false], "free_energy": -8.851, "intermolecular_energy": -12.179, "internal_energy": -0.923}

$$$$
3k5v_ligand
     RDKit          3D

 40 42  0  0  0  0  0  0  0  0999 V2000
  -12.1140   -1.7930   12.2450 N   0  0  0  0  0  0  0  0  0  0  0  0
  -11.4250   -0.7460   12.7940 C   0  0  0  0  0  0  0  0  0  0  0  0
  -11.9950    0.0840   13.4890 O   0  0  0  0  0  0  0  0  0  0  0  0
   -9.9590   -0.6930   12.5510 C   0  0  0  0  0  0  0  0  0  0  0  0
   -9.1560   -1.6720   13.1410 C   0  0  0  0  0  0  0  0  0  0  0  0
   -7.7800   -1.6500   12.9420 C   0  0  0  0  0  0  0  0  0  0  0  0
   -7.2050   -0.6450   12.1590 C   0  0  0  0  0  0  0  0  0  0  0  0
   -7.9830    0.3640   11.5590 C   0  0  0  0  0  0  0  0  0  0  0  0
   -7.3400    1.4270   10.7510 C   0  0  0  0  0  0  0  0  0  0  0  0
   -5.9680    1.5560   10.6210 C   0  0  0  0  0  0  0  0  0  0  0  0
   -5.4830    2.5950    9.8420 C   0  0  0  0  0  0  0  0  0  0  0  0
   -4.0760    2.7220    9.7220 N   0  0  0  0  0  0  0  0  0  0  0  0
   -3.3360    3.5850    8.8840 C   0  0  0  0  0  0  0  0  0  0  0  0
   -3.2530    4.9640    9.0940 C   0  0  0  0  0  0  0  0  0  0  0  0
   -2.4530    5.7700    8.2760 C   0  0  0  0  0  0  0  0  0  0  0  0
   -1.6950    5.2150    7.2440 C   0  0  0  0  0  0  0  0  0  0  0  0
   -0.9630    6.1180    6.5290 O   0  0  0  0  0  0  0  0  0  0  0  0
   -1.6550    6.9590    5.6230 C   0  0  0  0  0  0  0  0  0  0  0  0
   -2.8450    6.3910    5.3250 F   0  0  0  0  0  0  0  0  0  0  0  0
   -0.9650    7.1130    4.4720 F   0  0  0  0  0  0  0  0  0  0  0  0
   -1.8950    8.1710    6.1680 F   0  0  0  0  0  0  0  0  0  0  0  0
   -1.7390    3.8370    7.0470 C   0  0  0  0  0  0  0  0  0  0  0  0
   -2.5420    3.0330    7.8690 C   0  0  0  0  0  0  0  0  0  0  0  0
   -6.3130    3.4570    9.2370 N   0  0  0  0  0  0  0  0  0  0  0  0
   -7.6240    3.2600    9.4150 C   0  0  0  0  0  0  0  0  0  0  0  0
   -8.1820    2.2870   10.1440 N   0  0  0  0  0  0  0  0  0  0  0  0
   -9.3740    0.3220   11.7770 C   0  0  0  0  0  0  0  0  0  0  0  0
  -13.0760   -1.8790   12.5510 H   0  0  0  0  0  0  0  0  0  0  0  0
  -11.6440   -2.6460   11.9760 H   0  0  0  0  0  0  0  0  0  0  0  0
   -9.6110   -2.4582   13.7614 H   0  0  0  0  0  0  0  0  0  0  0  0
   -7.1448   -2.4224   13.4001 H   0  0  0  0  0  0  0  0  0  0  0  0
   -6.1155   -0.6421   12.0074 H   0  0  0  0  0  0  0  0  0  0  0  0
   -5.2832    0.8551   11.1208 H   0  0  0  0  0  0  0  0  0  0  0  0
   -3.6470    1.8040    9.7820 H   0  0  0  0  0  0  0  0  0  0  0  0
   -3.8248    5.4227    9.9142 H   0  0  0  0  0  0  0  0  0  0  0  0
   -2.4213    6.8559    8.4489 H   0  0  0  0  0  0  0  0  0  0  0  0
   -1.1425    3.3781    6.2447 H   0  0  0  0  0  0  0  0  0  0  0  0
   -2.5490    1.9440    7.7137 H   0  0  0  0  0  0  0  0  0  0  0  0
   -8.3066    3.9633    8.9156 H   0  0  0  0  0  0  0  0  0  0  0  0
  -10.0138    1.0987   11.3327 H   0  0  0  0  0  0  0  0  0  0  0  0
  1  2  1  0
  2  3  2  0
  2  4  1  0
  4  5  2  0
  5  6  1  0
  6  7  2  0
  7  8  1  0
  8  9  1  0
  9 10  2  0
 10 11  1  0
 11 12  1  0
 12 13  1  0
 13 14  2  0
 14 15  1  0
 15 16  2  0
 16 17  1  0
 17 18  1  0
 18 19  1  0
 18 20  1  0
 18 21  1  0
 16 22  1  0
 22 23  2  0
 11 24  2  0
 24 25  1  0
 25 26  2  0
  8 27  2  0
 27  4  1  0
 26  9  1  0
 23 13  1  0
  1 28  1  0
  1 29  1  0
  5 30  1  0
  6 31  1  0
  7 32  1  0
 10 33  1  0
 12 34  1  0
 14 35  1  0
 15 36  1  0
 22 37  1  0
 23 38  1  0
 25 39  1  0
 27 40  1  0
M  END
>  <meeko>  (5) 
{"is_sidechain": [false], "free_energy": -8.775, "intermolecular_energy": -12.215, "internal_energy": -0.784}

$$$$
3k5v_ligand
     RDKit          3D

 40 42  0  0  0  0  0  0  0  0999 V2000
   -5.4900   -0.9590   10.4500 N   0  0  0  0  0  0  0  0  0  0  0  0
   -6.3450   -0.0610   11.0300 C   0  0  0  0  0  0  0  0  0  0  0  0
   -6.9540   -0.3460   12.0530 O   0  0  0  0  0  0  0  0  0  0  0  0
   -6.4570    1.2790   10.3970 C   0  0  0  0  0  0  0  0  0  0  0  0
   -7.7340    1.7910   10.1570 C   0  0  0  0  0  0  0  0  0  0  0  0
   -7.8780    3.0390    9.5600 C   0  0  0  0  0  0  0  0  0  0  0  0
   -6.7450    3.7710    9.1940 C   0  0  0  0  0  0  0  0  0  0  0  0
   -5.4420    3.2800    9.4100 C   0  0  0  0  0  0  0  0  0  0  0  0
   -4.2620    4.0720    8.9930 C   0  0  0  0  0  0  0  0  0  0  0  0
   -3.0290    3.5070    8.7120 C   0  0  0  0  0  0  0  0  0  0  0  0
   -1.9960    4.3520    8.3360 C   0  0  0  0  0  0  0  0  0  0  0  0
   -0.7370    3.7630    8.0570 N   0  0  0  0  0  0  0  0  0  0  0  0
   -0.1310    2.6460    8.6730 C   0  0  0  0  0  0  0  0  0  0  0  0
   -0.1910    1.3560    8.1400 C   0  0  0  0  0  0  0  0  0  0  0  0
    0.4820    0.2910    8.7500 C   0  0  0  0  0  0  0  0  0  0  0  0
    1.2550    0.4940    9.8950 C   0  0  0  0  0  0  0  0  0  0  0  0
    1.8530   -0.6310   10.3810 O   0  0  0  0  0  0  0  0  0  0  0  0
    3.0410   -1.0730    9.7480 C   0  0  0  0  0  0  0  0  0  0  0  0
    2.7110   -1.9350    8.7600 F   0  0  0  0  0  0  0  0  0  0  0  0
    3.8480   -1.7210   10.6170 F   0  0  0  0  0  0  0  0  0  0  0  0
    3.7130   -0.0400    9.1950 F   0  0  0  0  0  0  0  0  0  0  0  0
    1.3540    1.7820   10.4150 C   0  0  0  0  0  0  0  0  0  0  0  0
    0.6770    2.8460    9.8010 C   0  0  0  0  0  0  0  0  0  0  0  0
   -2.1770    5.6780    8.2540 N   0  0  0  0  0  0  0  0  0  0  0  0
   -3.3990    6.1400    8.5420 C   0  0  0  0  0  0  0  0  0  0  0  0
   -4.4540    5.4030    8.9100 N   0  0  0  0  0  0  0  0  0  0  0  0
   -5.3220    2.0130   10.0140 C   0  0  0  0  0  0  0  0  0  0  0  0
   -5.3270   -1.8020   10.9880 H   0  0  0  0  0  0  0  0  0  0  0  0
   -4.7430   -0.6550    9.8430 H   0  0  0  0  0  0  0  0  0  0  0  0
   -8.6236    1.2088   10.4394 H   0  0  0  0  0  0  0  0  0  0  0  0
   -8.8820    3.4492    9.3762 H   0  0  0  0  0  0  0  0  0  0  0  0
   -6.8740    4.7574    8.7245 H   0  0  0  0  0  0  0  0  0  0  0  0
   -2.8739    2.4204    8.7850 H   0  0  0  0  0  0  0  0  0  0  0  0
   -0.0600    4.4910    7.8580 H   0  0  0  0  0  0  0  0  0  0  0  0
   -0.7764    1.1744    7.2266 H   0  0  0  0  0  0  0  0  0  0  0  0
    0.4009   -0.7190    8.3218 H   0  0  0  0  0  0  0  0  0  0  0  0
    1.9655    1.9657   11.3107 H   0  0  0  0  0  0  0  0  0  0  0  0
    0.7825    3.8601   10.2138 H   0  0  0  0  0  0  0  0  0  0  0  0
   -3.5510    7.2270    8.4696 H   0  0  0  0  0  0  0  0  0  0  0  0
   -4.3215    1.5907   10.1889 H   0  0  0  0  0  0  0  0  0  0  0  0
  1  2  1  0
  2  3  2  0
  2  4  1  0
  4  5  2  0
  5  6  1  0
  6  7  2  0
  7  8  1  0
  8  9  1  0
  9 10  2  0
 10 11  1  0
 11 12  1  0
 12 13  1  0
 13 14  2  0
 14 15  1  0
 15 16  2  0
 16 17  1  0
 17 18  1  0
 18 19  1  0
 18 20  1  0
 18 21  1  0
 16 22  1  0
 22 23  2  0
 11 24  2  0
 24 25  1  0
 25 26  2  0
  8 27  2  0
 27  4  1  0
 26  9  1  0
 23 13  1  0
  1 28  1  0
  1 29  1  0
  5 30  1  0
  6 31  1  0
  7 32  1  0
 10 33  1  0
 12 34  1  0
 14 35  1  0
 15 36  1  0
 22 37  1  0
 23 38  1  0
 25 39  1  0
 27 40  1  0
M  END
>  <meeko>  (6) 
{"is_sidechain": [false], "free_energy": -8.721, "intermolecular_energy": -11.856, "internal_energy": -1.07}

$$$$
3k5v_ligand
     RDKit          3D

 40 42  0  0  0  0  0  0  0  0999 V2000
   -5.6040   -1.0420   10.6700 N   0  0  0  0  0  0  0  0  0  0  0  0
   -6.5160   -0.1390   11.1450 C   0  0  0  0  0  0  0  0  0  0  0  0
   -7.2380   -0.4160   12.0940 O   0  0  0  0  0  0  0  0  0  0  0  0
   -6.5510    1.1980   10.4960 C   0  0  0  0  0  0  0  0  0  0  0  0
   -7.7960    1.7820   10.2540 C   0  0  0  0  0  0  0  0  0  0  0  0
   -7.8680    3.0290    9.6420 C   0  0  0  0  0  0  0  0  0  0  0  0
   -6.6950    3.6890    9.2660 C   0  0  0  0  0  0  0  0  0  0  0  0
   -5.4230    3.1250    9.4850 C   0  0  0  0  0  0  0  0  0  0  0  0
   -4.2000    3.8420    9.0560 C   0  0  0  0  0  0  0  0  0  0  0  0
   -2.9360    3.2770    9.0960 C   0  0  0  0  0  0  0  0  0  0  0  0
   -1.8640    4.0490    8.6740 C   0  0  0  0  0  0  0  0  0  0  0  0
   -0.5740    3.4620    8.7260 N   0  0  0  0  0  0  0  0  0  0  0  0
   -0.2060    2.1830    9.1960 C   0  0  0  0  0  0  0  0  0  0  0  0
   -0.0620    1.8820   10.5520 C   0  0  0  0  0  0  0  0  0  0  0  0
    0.2400    0.5820   10.9740 C   0  0  0  0  0  0  0  0  0  0  0  0
    0.3810   -0.4560   10.0520 C   0  0  0  0  0  0  0  0  0  0  0  0
    0.6750   -1.6690   10.6030 O   0  0  0  0  0  0  0  0  0  0  0  0
   -0.3160   -2.6800   10.5420 C   0  0  0  0  0  0  0  0  0  0  0  0
   -0.0920   -3.5680   11.5350 F   0  0  0  0  0  0  0  0  0  0  0  0
   -0.2660   -3.3440    9.3670 F   0  0  0  0  0  0  0  0  0  0  0  0
   -1.5520   -2.1630   10.7140 F   0  0  0  0  0  0  0  0  0  0  0  0
    0.2030   -0.1780    8.6990 C   0  0  0  0  0  0  0  0  0  0  0  0
   -0.0990    1.1260    8.2810 C   0  0  0  0  0  0  0  0  0  0  0  0
   -2.0390    5.3080    8.2480 N   0  0  0  0  0  0  0  0  0  0  0  0
   -3.2930    5.7750    8.2410 C   0  0  0  0  0  0  0  0  0  0  0  0
   -4.3850    5.1060    8.6260 N   0  0  0  0  0  0  0  0  0  0  0  0
   -5.3760    1.8600   10.1030 C   0  0  0  0  0  0  0  0  0  0  0  0
   -5.5060   -1.8830   11.2270 H   0  0  0  0  0  0  0  0  0  0  0  0
   -4.7910   -0.7420   10.1510 H   0  0  0  0  0  0  0  0  0  0  0  0
   -8.7175    1.2573   10.5466 H   0  0  0  0  0  0  0  0  0  0  0  0
   -8.8466    3.4949    9.4543 H   0  0  0  0  0  0  0  0  0  0  0  0
   -6.7670    4.6760    8.7858 H   0  0  0  0  0  0  0  0  0  0  0  0
   -2.7869    2.2469    9.4518 H   0  0  0  0  0  0  0  0  0  0  0  0
    0.1070    4.1660    8.9890 H   0  0  0  0  0  0  0  0  0  0  0  0
   -0.1878    2.6787   11.3000 H   0  0  0  0  0  0  0  0  0  0  0  0
    0.3679    0.3758   12.0469 H   0  0  0  0  0  0  0  0  0  0  0  0
    0.2996   -0.9836    7.9562 H   0  0  0  0  0  0  0  0  0  0  0  0
   -0.2556    1.3243    7.2104 H   0  0  0  0  0  0  0  0  0  0  0  0
   -3.4392    6.8056    7.8853 H   0  0  0  0  0  0  0  0  0  0  0  0
   -4.4015    1.3819   10.2811 H   0  0  0  0  0  0  0  0  0  0  0  0
  1  2  1  0
  2  3  2  0
  2  4  1  0
  4  5  2  0
  5  6  1  0
  6  7  2  0
  7  8  1  0
  8  9  1  0
  9 10  2  0
 10 11  1  0
 11 12  1  0
 12 13  1  0
 13 14  2  0
 14 15  1  0
 15 16  2  0
 16 17  1  0
 17 18  1  0
 18 19  1  0
 18 20  1  0
 18 21  1  0
 16 22  1  0
 22 23  2  0
 11 24  2  0
 24 25  1  0
 25 26  2  0
  8 27  2  0
 27  4  1  0
 26  9  1  0
 23 13  1  0
  1 28  1  0
  1 29  1  0
  5 30  1  0
  6 31  1  0
  7 32  1  0
 10 33  1  0
 12 34  1  0
 14 35  1  0
 15 36  1  0
 22 37  1  0
 23 38  1  0
 25 39  1  0
 27 40  1  0
M  END
>  <meeko>  (7) 
{"is_sidechain": [false], "free_energy": -8.538, "intermolecular_energy": -11.442, "internal_energy": -1.237}

$$$$
3k5v_ligand
     RDKit          3D

 40 42  0  0  0  0  0  0  0  0999 V2000
    5.7440   -2.0170    8.1440 N   0  0  0  0  0  0  0  0  0  0  0  0
    5.2290   -1.8270    9.3980 C   0  0  0  0  0  0  0  0  0  0  0  0
    5.9570   -1.8360   10.3820 O   0  0  0  0  0  0  0  0  0  0  0  0
    3.7710   -1.5610    9.5020 C   0  0  0  0  0  0  0  0  0  0  0  0
    2.9100   -2.6490    9.6640 C   0  0  0  0  0  0  0  0  0  0  0  0
    1.5390   -2.4390    9.7580 C   0  0  0  0  0  0  0  0  0  0  0  0
    1.0270   -1.1400    9.6840 C   0  0  0  0  0  0  0  0  0  0  0  0
    1.8640   -0.0210    9.5100 C   0  0  0  0  0  0  0  0  0  0  0  0
    1.2880    1.3400    9.4150 C   0  0  0  0  0  0  0  0  0  0  0  0
    0.1340    1.6280    8.7040 C   0  0  0  0  0  0  0  0  0  0  0  0
   -0.3060    2.9430    8.6840 C   0  0  0  0  0  0  0  0  0  0  0  0
   -1.4840    3.2270    7.9470 N   0  0  0  0  0  0  0  0  0  0  0  0
   -2.8160    3.3060    8.4100 C   0  0  0  0  0  0  0  0  0  0  0  0
   -3.4270    2.2910    9.1500 C   0  0  0  0  0  0  0  0  0  0  0  0
   -4.7280    2.4420    9.6440 C   0  0  0  0  0  0  0  0  0  0  0  0
   -5.4420    3.6240    9.4330 C   0  0  0  0  0  0  0  0  0  0  0  0
   -6.6950    3.6320    9.9710 O   0  0  0  0  0  0  0  0  0  0  0  0
   -7.7910    3.4380    9.0940 C   0  0  0  0  0  0  0  0  0  0  0  0
   -7.8800    4.5050    8.2680 F   0  0  0  0  0  0  0  0  0  0  0  0
   -8.9530    3.3380    9.7760 F   0  0  0  0  0  0  0  0  0  0  0  0
   -7.6190    2.3350    8.3340 F   0  0  0  0  0  0  0  0  0  0  0  0
   -4.8300    4.6580    8.7290 C   0  0  0  0  0  0  0  0  0  0  0  0
   -3.5270    4.5020    8.2360 C   0  0  0  0  0  0  0  0  0  0  0  0
    0.3650    3.9120    9.3230 N   0  0  0  0  0  0  0  0  0  0  0  0
    1.4690    3.5460    9.9850 C   0  0  0  0  0  0  0  0  0  0  0  0
    1.9670    2.3070   10.0630 N   0  0  0  0  0  0  0  0  0  0  0  0
    3.2490   -0.2600    9.4140 C   0  0  0  0  0  0  0  0  0  0  0  0
    6.7550   -2.0480    8.0970 H   0  0  0  0  0  0  0  0  0  0  0  0
    5.2600   -1.6820    7.3230 H   0  0  0  0  0  0  0  0  0  0  0  0
    3.3160   -3.6699    9.7171 H   0  0  0  0  0  0  0  0  0  0  0  0
    0.8584   -3.2930    9.8903 H   0  0  0  0  0  0  0  0  0  0  0  0
   -0.0595   -0.9880    9.7639 H   0  0  0  0  0  0  0  0  0  0  0  0
   -0.4161    0.8379    8.1719 H   0  0  0  0  0  0  0  0  0  0  0  0
   -1.4310    2.7780    7.0400 H   0  0  0  0  0  0  0  0  0  0  0  0
   -2.8774    1.3588    9.3476 H   0  0  0  0  0  0  0  0  0  0  0  0
   -5.1942    1.6191   10.2057 H   0  0  0  0  0  0  0  0  0  0  0  0
   -5.3710    5.6006    8.5591 H   0  0  0  0  0  0  0  0  0  0  0  0
   -3.0515    5.3369    7.7004 H   0  0  0  0  0  0  0  0  0  0  0  0
    2.0184    4.3383   10.5146 H   0  0  0  0  0  0  0  0  0  0  0  0
    3.9343    0.5879    9.2674 H   0  0  0  0  0  0  0  0  0  0  0  0
  1  2  1  0
  2  3  2  0
  2  4  1  0
  4  5  2  0
  5  6  1  0
  6  7  2  0
  7  8  1  0
  8  9  1  0
  9 10  2  0
 10 11  1  0
 11 12  1  0
 12 13  1  0
 13 14  2  0
 14 15  1  0
 15 16  2  0
 16 17  1  0
 17 18  1  0
 18 19  1  0
 18 20  1  0
 18 21  1  0
 16 22  1  0
 22 23  2  0
 11 24  2  0
 24 25  1  0
 25 26  2  0
  8 27  2  0
 27  4  1  0
 26  9  1  0
 23 13  1  0
  1 28  1  0
  1 29  1  0
  5 30  1  0
  6 31  1  0
  7 32  1  0
 10 33  1  0
 12 34  1  0
 14 35  1  0
 15 36  1  0
 22 37  1  0
 23 38  1  0
 25 39  1  0
 27 40  1  0
M  END
>  <meeko>  (8) 
{"is_sidechain": [false], "free_energy": -8.515, "intermolecular_energy": -11.805, "internal_energy": -0.843}

$$$$
3k5v_ligand
     RDKit          3D

 40 42  0  0  0  0  0  0  0  0999 V2000
   -1.0300   -3.3560    9.3330 N   0  0  0  0  0  0  0  0  0  0  0  0
    0.2650   -3.5630    9.7230 C   0  0  0  0  0  0  0  0  0  0  0  0
    0.6390   -4.6670   10.0980 O   0  0  0  0  0  0  0  0  0  0  0  0
    1.1990   -2.4110    9.6210 C   0  0  0  0  0  0  0  0  0  0  0  0
    2.5710   -2.6650    9.6810 C   0  0  0  0  0  0  0  0  0  0  0  0
    3.4740   -1.6100    9.5960 C   0  0  0  0  0  0  0  0  0  0  0  0
    3.0050   -0.3010    9.4580 C   0  0  0  0  0  0  0  0  0  0  0  0
    1.6280   -0.0070    9.4050 C   0  0  0  0  0  0  0  0  0  0  0  0
    1.1640    1.3930    9.2780 C   0  0  0  0  0  0  0  0  0  0  0  0
    0.0010    1.7510    8.6150 C   0  0  0  0  0  0  0  0  0  0  0  0
   -0.3280    3.0960    8.5570 C   0  0  0  0  0  0  0  0  0  0  0  0
   -1.5160    3.4500    7.8700 N   0  0  0  0  0  0  0  0  0  0  0  0
   -2.8430    3.4670    8.3530 C   0  0  0  0  0  0  0  0  0  0  0  0
   -3.3950    2.4240    9.1010 C   0  0  0  0  0  0  0  0  0  0  0  0
   -4.6930    2.5140    9.6160 C   0  0  0  0  0  0  0  0  0  0  0  0
   -5.4640    3.6610    9.4180 C   0  0  0  0  0  0  0  0  0  0  0  0
   -6.7080    3.6110    9.9750 O   0  0  0  0  0  0  0  0  0  0  0  0
   -7.8100    3.3920    9.1120 C   0  0  0  0  0  0  0  0  0  0  0  0
   -7.5920    2.2590    8.4090 F   0  0  0  0  0  0  0  0  0  0  0  0
   -7.9540    4.4080    8.2340 F   0  0  0  0  0  0  0  0  0  0  0  0
   -8.9550    3.2370    9.8110 F   0  0  0  0  0  0  0  0  0  0  0  0
   -4.9130    4.7230    8.7060 C   0  0  0  0  0  0  0  0  0  0  0  0
   -3.6120    4.6280    8.1920 C   0  0  0  0  0  0  0  0  0  0  0  0
    0.4560    4.0290    9.1150 N   0  0  0  0  0  0  0  0  0  0  0  0
    1.5600    3.5970    9.7360 C   0  0  0  0  0  0  0  0  0  0  0  0
    1.9560    2.3240    9.8450 N   0  0  0  0  0  0  0  0  0  0  0  0
    0.7330   -1.0910    9.4960 C   0  0  0  0  0  0  0  0  0  0  0  0
   -1.5980   -4.1940    9.2760 H   0  0  0  0  0  0  0  0  0  0  0  0
   -1.2770   -2.5960    8.7160 H   0  0  0  0  0  0  0  0  0  0  0  0
    2.9366   -3.6962    9.7951 H   0  0  0  0  0  0  0  0  0  0  0  0
    4.5556   -1.8061    9.6374 H   0  0  0  0  0  0  0  0  0  0  0  0
    3.7308    0.5227    9.3888 H   0  0  0  0  0  0  0  0  0  0  0  0
   -0.6420    0.9901    8.1485 H   0  0  0  0  0  0  0  0  0  0  0  0
   -1.4720    3.1040    6.9170 H   0  0  0  0  0  0  0  0  0  0  0  0
   -2.8000    1.5179    9.2880 H   0  0  0  0  0  0  0  0  0  0  0  0
   -5.1113    1.6701   10.1842 H   0  0  0  0  0  0  0  0  0  0  0  0
   -5.5001    5.6394    8.5462 H   0  0  0  0  0  0  0  0  0  0  0  0
   -3.1848    5.4844    7.6498 H   0  0  0  0  0  0  0  0  0  0  0  0
    2.2018    4.3602   10.2002 H   0  0  0  0  0  0  0  0  0  0  0  0
   -0.3501   -0.9009    9.4687 H   0  0  0  0  0  0  0  0  0  0  0  0
  1  2  1  0
  2  3  2  0
  2  4  1  0
  4  5  2  0
  5  6  1  0
  6  7  2  0
  7  8  1  0
  8  9  1  0
  9 10  2  0
 10 11  1  0
 11 12  1  0
 12 13  1  0
 13 14  2  0
 14 15  1  0
 15 16  2  0
 16 17  1  0
 17 18  1  0
 18 19  1  0
 18 20  1  0
 18 21  1  0
 16 22  1  0
 22 23  2  0
 11 24  2  0
 24 25  1  0
 25 26  2  0
  8 27  2  0
 27  4  1  0
 26  9  1  0
 23 13  1  0
  1 28  1  0
  1 29  1  0
  5 30  1  0
  6 31  1  0
  7 32  1  0
 10 33  1  0
 12 34  1  0
 14 35  1  0
 15 36  1  0
 22 37  1  0
 23 38  1  0
 25 39  1  0
 27 40  1  0
M  END
>  <meeko>  (9) 
{"is_sidechain": [false], "free_energy": -8.502, "intermolecular_energy": -11.79, "internal_energy": -0.841}

$$$$
