
     RDKit          3D

 12 12  0  0  0  0  0  0  0  0999 V2000
   16.2100   21.6900   13.5150 O   0  0  0  0  0  0  0  0  0  0  0  0
   16.3740   20.6920   12.8590 C   0  0  0  0  0  0  0  0  0  0  0  0
   16.9020   20.6590   11.7360 O   0  0  0  0  0  0  0  0  0  0  0  0
   15.8940   19.3540   13.4650 C   0  0  2  0  0  0  0  0  0  0  0  0
   14.7920   19.6470   14.3050 O   0  0  0  0  0  0  0  0  0  0  0  0
   17.0130   18.7540   14.3250 C   0  0  0  0  0  0  0  0  0  0  0  0
   17.1340   17.4070   14.5130 C   0  0  0  0  0  0  0  0  0  0  0  0
   16.5020   16.4070   13.6020 C   0  0  1  0  0  0  0  0  0  0  0  0
   16.1720   15.2140   14.3230 O   0  0  0  0  0  0  0  0  0  0  0  0
   15.2160   16.9470   12.9410 C   0  0  2  0  0  0  0  0  0  0  0  0
   14.8410   16.0680   11.8960 O   0  0  0  0  0  0  0  0  0  0  0  0
   15.4180   18.3710   12.3840 C   0  0  0  0  0  0  0  0  0  0  0  0
  2  1  2  0
  3  2  1  0
  4  2  1  0
  4  5  1  1
  6  4  1  0
  7  6  2  0
  8  7  1  0
  8  9  1  1
 10  8  1  0
 10 11  1  6
 12 10  1  0
 12  4  1  0
M  CHG  1   3  -1
M  END
$$$$
