
     RDKit          3D

 25 30  0  0  0  0  0  0  0  0999 V2000
   -5.8270   -1.0420  -19.2380 C   0  0  0  0  0  0  0  0  0  0  0  0
   -5.9840   -0.9160  -17.8020 N   0  0  0  0  0  0  0  0  0  0  0  0
   -4.9840   -0.2430  -17.1600 C   0  0  0  0  0  0  0  0  0  0  0  0
   -4.9920   -0.0210  -15.7940 C   0  0  0  0  0  0  0  0  0  0  0  0
   -3.9500    0.6580  -15.1440 C   0  0  0  0  0  0  0  0  0  0  0  0
   -3.9620    0.8730  -13.7910 C   0  0  0  0  0  0  0  0  0  0  0  0
   -5.0100    0.4280  -13.0070 C   0  0  0  0  0  0  0  0  0  0  0  0
   -6.0610   -0.2540  -13.6230 C   0  0  0  0  0  0  0  0  0  0  0  0
   -6.0750   -0.4920  -15.0240 C   0  0  0  0  0  0  0  0  0  0  0  0
   -7.1230   -1.1970  -15.6740 C   0  0  0  0  0  0  0  0  0  0  0  0
   -8.2150   -1.6730  -14.9170 C   0  0  0  0  0  0  0  0  0  0  0  0
   -9.2370   -2.3720  -15.5060 C   0  0  0  0  0  0  0  0  0  0  0  0
   -9.2120   -2.6380  -16.8860 C   0  0  0  0  0  0  0  0  0  0  0  0
  -10.2750   -3.3710  -17.4340 C   0  0  0  0  0  0  0  0  0  0  0  0
  -10.2600   -3.6600  -18.7760 C   0  0  0  0  0  0  0  0  0  0  0  0
   -9.2300   -3.2440  -19.5820 C   0  0  0  0  0  0  0  0  0  0  0  0
   -8.1850   -2.5200  -19.0610 C   0  0  0  0  0  0  0  0  0  0  0  0
   -8.1500   -2.1870  -17.6770 C   0  0  0  0  0  0  0  0  0  0  0  0
   -7.0750   -1.4290  -17.0740 C   0  0  0  0  0  0  0  0  0  0  0  0
   -9.4550   -3.6690  -20.8570 O   0  0  0  0  0  0  0  0  0  0  0  0
  -10.6720   -4.3790  -20.8310 C   0  0  0  0  0  0  0  0  0  0  0  0
  -11.1760   -4.3610  -19.5260 O   0  0  0  0  0  0  0  0  0  0  0  0
   -2.8450    1.5440  -13.4160 O   0  0  0  0  0  0  0  0  0  0  0  0
   -2.0990    1.7580  -14.5940 C   0  0  0  0  0  0  0  0  0  0  0  0
   -2.8170    1.1830  -15.6910 O   0  0  0  0  0  0  0  0  0  0  0  0
  2  1  1  0
  3  2  2  0
  4  3  1  0
  5  4  2  0
  6  5  1  0
  7  6  2  0
  8  7  1  0
  9  8  2  0
  9  4  1  0
 10  9  1  0
 11 10  2  0
 12 11  1  0
 13 12  2  0
 14 13  1  0
 15 14  2  0
 16 15  1  0
 17 16  2  0
 18 17  1  0
 18 13  1  0
 19 18  2  0
 19  2  1  0
 19 10  1  0
 20 16  1  0
 21 20  1  0
 22 21  1  0
 22 15  1  0
 23  6  1  0
 24 23  1  0
 25 24  1  0
 25  5  1  0
M  CHG  1   2   1
M  END
$$$$
