2zy1_ligand
     RDKit          3D

 43 44  0  0  0  0  0  0  0  0999 V2000
   -4.7300    0.1150    2.5750 O   0  0  0  0  0  0  0  0  0  0  0  0
   -4.0310   -0.2330    1.6210 C   0  0  0  0  0  0  0  0  0  0  0  0
   -4.6050   -0.9320    0.4210 C   0  0  0  0  0  0  0  0  0  0  0  0
   -3.5490   -2.2440   -0.1980 P   0  0  2  0  0  5  0  0  0  0  0  0
   -4.2840   -3.1650   -1.1310 O   0  0  0  0  0  0  0  0  0  0  0  0
   -2.7160   -2.7930    0.9350 O   0  0  0  0  0  0  0  0  0  0  0  0
   -2.5290   -1.4090   -1.1330 O   0  0  0  0  0  0  0  0  0  0  0  0
   -2.6940    0.0990    1.5150 N   0  0  0  0  0  0  0  0  0  0  0  0
   -1.9550    0.5450    2.6730 C   0  0  0  0  0  0  0  0  0  0  0  0
   -1.3560    1.9290    2.4450 C   0  0  0  0  0  0  0  0  0  0  0  0
    0.1780    1.9290    2.4690 C   0  0  0  0  0  0  0  0  0  0  0  0
    0.8230    1.8360    1.1070 C   0  0  0  0  0  0  0  0  0  0  0  0
    0.8920    0.6090    0.4340 C   0  0  0  0  0  0  0  0  0  0  0  0
    1.4450    0.5300   -0.8470 C   0  0  0  0  0  0  0  0  0  0  0  0
    1.9190    1.6810   -1.4750 C   0  0  0  0  0  0  0  0  0  0  0  0
    1.8440    2.9090   -0.8200 C   0  0  0  0  0  0  0  0  0  0  0  0
    2.3140    4.0090   -1.5030 O   0  0  0  0  0  0  0  0  0  0  0  0
    3.3470    4.7230   -0.9330 C   0  0  0  0  0  0  0  0  0  0  0  0
    3.2040    6.1120   -0.9010 C   0  0  0  0  0  0  0  0  0  0  0  0
    4.2130    6.9040   -0.3490 C   0  0  0  0  0  0  0  0  0  0  0  0
    5.3580    6.3050    0.1750 C   0  0  0  0  0  0  0  0  0  0  0  0
    5.4890    4.9170    0.1690 C   0  0  0  0  0  0  0  0  0  0  0  0
    4.4770    4.1230   -0.3690 C   0  0  0  0  0  0  0  0  0  0  0  0
    1.3430    2.9790    0.4830 C   0  0  0  0  0  0  0  0  0  0  0  0
   -5.5766   -1.3661    0.6997 H   0  0  0  0  0  0  0  0  0  0  0  0
   -4.7038   -0.1840   -0.3794 H   0  0  0  0  0  0  0  0  0  0  0  0
   -1.9160   -0.9730   -0.5150 H   0  0  0  0  0  0  0  0  0  0  0  0
   -2.1770   -0.4600    0.8140 H   0  0  0  0  0  0  0  0  0  0  0  0
   -2.6334    0.5856    3.5379 H   0  0  0  0  0  0  0  0  0  0  0  0
   -1.1343   -0.1640    2.8570 H   0  0  0  0  0  0  0  0  0  0  0  0
   -1.6913    2.2991    1.4649 H   0  0  0  0  0  0  0  0  0  0  0  0
   -1.6982    2.5753    3.2667 H   0  0  0  0  0  0  0  0  0  0  0  0
    0.5146    2.8612    2.9462 H   0  0  0  0  0  0  0  0  0  0  0  0
    0.4833    1.0291    3.0231 H   0  0  0  0  0  0  0  0  0  0  0  0
    0.5073   -0.3006    0.9185 H   0  0  0  0  0  0  0  0  0  0  0  0
    1.5064   -0.4410   -1.3602 H   0  0  0  0  0  0  0  0  0  0  0  0
    2.3510    1.6201   -2.4848 H   0  0  0  0  0  0  0  0  0  0  0  0
    2.2974    6.5816   -1.3103 H   0  0  0  0  0  0  0  0  0  0  0  0
    4.1048    7.9985   -0.3276 H   0  0  0  0  0  0  0  0  0  0  0  0
    6.1605    6.9296    0.5944 H   0  0  0  0  0  0  0  0  0  0  0  0
    6.3911    4.4481    0.5889 H   0  0  0  0  0  0  0  0  0  0  0  0
    4.5674    3.0269   -0.3498 H   0  0  0  0  0  0  0  0  0  0  0  0
    1.3567    3.9374    1.0227 H   0  0  0  0  0  0  0  0  0  0  0  0
  1  2  2  0
  2  3  1  0
  3  4  1  0
  4  5  2  0
  4  6  1  1
  4  7  1  0
  2  8  1  0
  8  9  1  0
  9 10  1  0
 10 11  1  0
 11 12  1  0
 12 13  2  0
 13 14  1  0
 14 15  2  0
 15 16  1  0
 16 17  1  0
 17 18  1  0
 18 19  2  0
 19 20  1  0
 20 21  2  0
 21 22  1  0
 22 23  2  0
 16 24  2  0
 24 12  1  0
 23 18  1  0
  3 25  1  0
  3 26  1  0
  7 27  1  0
  8 28  1  0
  9 29  1  0
  9 30  1  0
 10 31  1  0
 10 32  1  0
 11 33  1  0
 11 34  1  0
 13 35  1  0
 14 36  1  0
 15 37  1  0
 19 38  1  0
 20 39  1  0
 21 40  1  0
 22 41  1  0
 23 42  1  0
 24 43  1  0
M  CHG  1   6  -1
M  END
>  <meeko>  (1) 
{"is_sidechain": [false], "free_energy": -8.129, "intermolecular_energy": -12.168, "internal_energy": -1.333}

$$$$
2zy1_ligand
     RDKit          3D

 43 44  0  0  0  0  0  0  0  0999 V2000
    4.6990    4.2450   -0.8030 O   0  0  0  0  0  0  0  0  0  0  0  0
    3.9210    5.1730   -0.5730 C   0  0  0  0  0  0  0  0  0  0  0  0
    4.3870    6.4880   -0.0160 C   0  0  0  0  0  0  0  0  0  0  0  0
    4.9440    7.6280   -1.2860 P   0  0  2  0  0  5  0  0  0  0  0  0
    6.4270    7.8650   -1.2150 O   0  0  0  0  0  0  0  0  0  0  0  0
    3.9780    8.7830   -1.3810 O   0  0  0  0  0  0  0  0  0  0  0  0
    4.7130    6.7460   -2.6200 O   0  0  0  0  0  0  0  0  0  0  0  0
    2.5850    5.1320   -0.9230 N   0  0  0  0  0  0  0  0  0  0  0  0
    1.9470    3.8740   -1.2350 C   0  0  0  0  0  0  0  0  0  0  0  0
    1.6880    3.0580    0.0280 C   0  0  0  0  0  0  0  0  0  0  0  0
    2.1430    1.5980   -0.0980 C   0  0  0  0  0  0  0  0  0  0  0  0
    1.0150    0.6040   -0.2450 C   0  0  0  0  0  0  0  0  0  0  0  0
    1.2750   -0.7130   -0.6470 C   0  0  0  0  0  0  0  0  0  0  0  0
    0.2390   -1.6460   -0.7370 C   0  0  0  0  0  0  0  0  0  0  0  0
   -1.0650   -1.2760   -0.4090 C   0  0  0  0  0  0  0  0  0  0  0  0
   -1.3330    0.0270    0.0040 C   0  0  0  0  0  0  0  0  0  0  0  0
   -2.6380    0.3230    0.3300 O   0  0  0  0  0  0  0  0  0  0  0  0
   -3.0110    0.2020    1.6520 C   0  0  0  0  0  0  0  0  0  0  0  0
   -3.5170   -1.0370    2.0490 C   0  0  0  0  0  0  0  0  0  0  0  0
   -3.9260   -1.2330    3.3690 C   0  0  0  0  0  0  0  0  0  0  0  0
   -3.8210   -0.1910    4.2910 C   0  0  0  0  0  0  0  0  0  0  0  0
   -3.2910    1.0390    3.9020 C   0  0  0  0  0  0  0  0  0  0  0  0
   -2.8690    1.2320    2.5870 C   0  0  0  0  0  0  0  0  0  0  0  0
   -0.3070    0.9760    0.0400 C   0  0  0  0  0  0  0  0  0  0  0  0
    3.5533    6.9524    0.5311 H   0  0  0  0  0  0  0  0  0  0  0  0
    5.2446    6.2822    0.6414 H   0  0  0  0  0  0  0  0  0  0  0  0
    3.8440    6.3250   -2.4990 H   0  0  0  0  0  0  0  0  0  0  0  0
    2.0050    5.8490   -0.4520 H   0  0  0  0  0  0  0  0  0  0  0  0
    0.9884    4.0726   -1.7366 H   0  0  0  0  0  0  0  0  0  0  0  0
    2.6160    3.2976   -1.8908 H   0  0  0  0  0  0  0  0  0  0  0  0
    2.2310    3.5236    0.8637 H   0  0  0  0  0  0  0  0  0  0  0  0
    0.6012    3.0506    0.1980 H   0  0  0  0  0  0  0  0  0  0  0  0
    2.7923    1.5149   -0.9820 H   0  0  0  0  0  0  0  0  0  0  0  0
    2.6616    1.3485    0.8395 H   0  0  0  0  0  0  0  0  0  0  0  0
    2.3036   -1.0148   -0.8938 H   0  0  0  0  0  0  0  0  0  0  0  0
    0.4521   -2.6735   -1.0669 H   0  0  0  0  0  0  0  0  0  0  0  0
   -1.8801   -2.0116   -0.4763 H   0  0  0  0  0  0  0  0  0  0  0  0
   -3.5934   -1.8587    1.3217 H   0  0  0  0  0  0  0  0  0  0  0  0
   -4.3303   -2.2070    3.6818 H   0  0  0  0  0  0  0  0  0  0  0  0
   -4.1572   -0.3401    5.3277 H   0  0  0  0  0  0  0  0  0  0  0  0
   -3.2059    1.8569    4.6326 H   0  0  0  0  0  0  0  0  0  0  0  0
   -2.4254    2.1925    2.2859 H   0  0  0  0  0  0  0  0  0  0  0  0
   -0.5380    2.0212    0.2935 H   0  0  0  0  0  0  0  0  0  0  0  0
  1  2  2  0
  2  3  1  0
  3  4  1  0
  4  5  2  0
  4  6  1  6
  4  7  1  0
  2  8  1  0
  8  9  1  0
  9 10  1  0
 10 11  1  0
 11 12  1  0
 12 13  2  0
 13 14  1  0
 14 15  2  0
 15 16  1  0
 16 17  1  0
 17 18  1  0
 18 19  2  0
 19 20  1  0
 20 21  2  0
 21 22  1  0
 22 23  2  0
 16 24  2  0
 24 12  1  0
 23 18  1  0
  3 25  1  0
  3 26  1  0
  7 27  1  0
  8 28  1  0
  9 29  1  0
  9 30  1  0
 10 31  1  0
 10 32  1  0
 11 33  1  0
 11 34  1  0
 13 35  1  0
 14 36  1  0
 15 37  1  0
 19 38  1  0
 20 39  1  0
 21 40  1  0
 22 41  1  0
 23 42  1  0
 24 43  1  0
M  CHG  1   6  -1
M  END
>  <meeko>  (2) 
{"is_sidechain": [false], "free_energy": -7.885, "intermolecular_energy": -12.026, "internal_energy": -1.112}

$$$$
2zy1_ligand
     RDKit          3D

 43 44  0  0  0  0  0  0  0  0999 V2000
   -2.8410   -1.3350    4.4010 O   0  0  0  0  0  0  0  0  0  0  0  0
   -2.6340   -1.1150    3.2060 C   0  0  0  0  0  0  0  0  0  0  0  0
   -3.7540   -0.9360    2.2200 C   0  0  0  0  0  0  0  0  0  0  0  0
   -3.6370    0.6010    1.2990 P   0  0  2  0  0  5  0  0  0  0  0  0
   -2.8350    1.6370    2.0350 O   0  0  0  0  0  0  0  0  0  0  0  0
   -4.9860    0.9370    0.7130 O   0  0  0  0  0  0  0  0  0  0  0  0
   -2.7130    0.1470    0.0530 O   0  0  0  0  0  0  0  0  0  0  0  0
   -1.3700   -0.8870    2.6960 N   0  0  0  0  0  0  0  0  0  0  0  0
   -0.1970   -1.2580    3.4530 C   0  0  0  0  0  0  0  0  0  0  0  0
    0.9450   -0.2750    3.2180 C   0  0  0  0  0  0  0  0  0  0  0  0
    0.4900    1.0170    2.5270 C   0  0  0  0  0  0  0  0  0  0  0  0
    1.0330    1.2010    1.1300 C   0  0  0  0  0  0  0  0  0  0  0  0
    1.1940    0.1000    0.2770 C   0  0  0  0  0  0  0  0  0  0  0  0
    1.6500    0.2750   -1.0310 C   0  0  0  0  0  0  0  0  0  0  0  0
    1.9340    1.5540   -1.5080 C   0  0  0  0  0  0  0  0  0  0  0  0
    1.7660    2.6570   -0.6730 C   0  0  0  0  0  0  0  0  0  0  0  0
    2.0480    3.8940   -1.2100 O   0  0  0  0  0  0  0  0  0  0  0  0
    3.1580    4.5600   -0.7360 C   0  0  0  0  0  0  0  0  0  0  0  0
    3.0460    5.9460   -0.6010 C   0  0  0  0  0  0  0  0  0  0  0  0
    4.1320    6.6910   -0.1380 C   0  0  0  0  0  0  0  0  0  0  0  0
    5.3230    6.0490    0.1970 C   0  0  0  0  0  0  0  0  0  0  0  0
    5.4270    4.6620    0.0890 C   0  0  0  0  0  0  0  0  0  0  0  0
    4.3390    3.9140   -0.3620 C   0  0  0  0  0  0  0  0  0  0  0  0
    1.3640    2.4780    0.6540 C   0  0  0  0  0  0  0  0  0  0  0  0
   -3.7318   -1.7742    1.5080 H   0  0  0  0  0  0  0  0  0  0  0  0
   -4.6940   -0.9076    2.7906 H   0  0  0  0  0  0  0  0  0  0  0  0
   -3.3250    0.0580   -0.6980 H   0  0  0  0  0  0  0  0  0  0  0  0
   -1.3110   -0.9710    1.6660 H   0  0  0  0  0  0  0  0  0  0  0  0
   -0.4488   -1.2661    4.5238 H   0  0  0  0  0  0  0  0  0  0  0  0
    0.1289   -2.2556    3.1235 H   0  0  0  0  0  0  0  0  0  0  0  0
    1.3896   -0.0150    4.1900 H   0  0  0  0  0  0  0  0  0  0  0  0
    1.6708   -0.7661    2.5532 H   0  0  0  0  0  0  0  0  0  0  0  0
   -0.6085    1.0088    2.4710 H   0  0  0  0  0  0  0  0  0  0  0  0
    0.8821    1.8501    3.1288 H   0  0  0  0  0  0  0  0  0  0  0  0
    0.9589   -0.9109    0.6416 H   0  0  0  0  0  0  0  0  0  0  0  0
    1.7855   -0.5979   -1.6865 H   0  0  0  0  0  0  0  0  0  0  0  0
    2.2894    1.6919   -2.5398 H   0  0  0  0  0  0  0  0  0  0  0  0
    2.1029    6.4498   -0.8593 H   0  0  0  0  0  0  0  0  0  0  0  0
    4.0479    7.7832   -0.0377 H   0  0  0  0  0  0  0  0  0  0  0  0
    6.1835    6.6378    0.5476 H   0  0  0  0  0  0  0  0  0  0  0  0
    6.3667    4.1581    0.3594 H   0  0  0  0  0  0  0  0  0  0  0  0
    4.4109    2.8180   -0.4230 H   0  0  0  0  0  0  0  0  0  0  0  0
    1.3069    3.3445    1.3292 H   0  0  0  0  0  0  0  0  0  0  0  0
  1  2  2  0
  2  3  1  0
  3  4  1  0
  4  5  2  0
  4  6  1  6
  4  7  1  0
  2  8  1  0
  8  9  1  0
  9 10  1  0
 10 11  1  0
 11 12  1  0
 12 13  2  0
 13 14  1  0
 14 15  2  0
 15 16  1  0
 16 17  1  0
 17 18  1  0
 18 19  2  0
 19 20  1  0
 20 21  2  0
 21 22  1  0
 22 23  2  0
 16 24  2  0
 24 12  1  0
 23 18  1  0
  3 25  1  0
  3 26  1  0
  7 27  1  0
  8 28  1  0
  9 29  1  0
  9 30  1  0
 10 31  1  0
 10 32  1  0
 11 33  1  0
 11 34  1  0
 13 35  1  0
 14 36  1  0
 15 37  1  0
 19 38  1  0
 20 39  1  0
 21 40  1  0
 22 41  1  0
 23 42  1  0
 24 43  1  0
M  CHG  1   6  -1
M  END
>  <meeko>  (3) 
{"is_sidechain": [false], "free_energy": -7.857, "intermolecular_energy": -11.695, "internal_energy": -1.4}

$$$$
2zy1_ligand
     RDKit          3D

 43 44  0  0  0  0  0  0  0  0999 V2000
   -0.2560   -1.4310    3.6970 O   0  0  0  0  0  0  0  0  0  0  0  0
   -1.3850   -1.4310    3.2020 C   0  0  0  0  0  0  0  0  0  0  0  0
   -2.6020   -1.0310    3.9880 C   0  0  0  0  0  0  0  0  0  0  0  0
   -3.5170    0.3120    3.2260 P   0  0  2  0  0  5  0  0  0  0  0  0
   -4.8650   -0.1350    2.7330 O   0  0  0  0  0  0  0  0  0  0  0  0
   -2.5920    1.1080    2.3370 O   0  0  0  0  0  0  0  0  0  0  0  0
   -3.8170    1.2520    4.5060 O   0  0  0  0  0  0  0  0  0  0  0  0
   -1.6120   -1.6710    1.8610 N   0  0  0  0  0  0  0  0  0  0  0  0
   -0.5970   -2.2960    1.0450 C   0  0  0  0  0  0  0  0  0  0  0  0
   -0.1360   -1.3640   -0.0720 C   0  0  0  0  0  0  0  0  0  0  0  0
    1.2720   -0.8010    0.1610 C   0  0  0  0  0  0  0  0  0  0  0  0
    1.3250    0.7010    0.3140 C   0  0  0  0  0  0  0  0  0  0  0  0
    0.7330    1.3260    1.4200 C   0  0  0  0  0  0  0  0  0  0  0  0
    0.8230    2.7100    1.5870 C   0  0  0  0  0  0  0  0  0  0  0  0
    1.5200    3.4820    0.6590 C   0  0  0  0  0  0  0  0  0  0  0  0
    2.1230    2.8700   -0.4380 C   0  0  0  0  0  0  0  0  0  0  0  0
    2.8120    3.6870   -1.3080 O   0  0  0  0  0  0  0  0  0  0  0  0
    3.7400    4.5540   -0.7720 C   0  0  0  0  0  0  0  0  0  0  0  0
    3.4610    5.9180   -0.8850 C   0  0  0  0  0  0  0  0  0  0  0  0
    4.3600    6.8580   -0.3770 C   0  0  0  0  0  0  0  0  0  0  0  0
    5.5310    6.4320    0.2500 C   0  0  0  0  0  0  0  0  0  0  0  0
    5.7970    5.0700    0.3880 C   0  0  0  0  0  0  0  0  0  0  0  0
    4.8950    4.1290   -0.1070 C   0  0  0  0  0  0  0  0  0  0  0  0
    1.9860    1.4930   -0.6360 C   0  0  0  0  0  0  0  0  0  0  0  0
   -3.2663   -1.9035    4.0742 H   0  0  0  0  0  0  0  0  0  0  0  0
   -2.2580   -0.6789    4.9717 H   0  0  0  0  0  0  0  0  0  0  0  0
   -4.2640    0.6720    5.1470 H   0  0  0  0  0  0  0  0  0  0  0  0
   -2.5980   -1.8910    1.6350 H   0  0  0  0  0  0  0  0  0  0  0  0
    0.2655   -2.5513    1.6782 H   0  0  0  0  0  0  0  0  0  0  0  0
   -1.0249   -3.2011    0.5892 H   0  0  0  0  0  0  0  0  0  0  0  0
   -0.1376   -1.9238   -1.0189 H   0  0  0  0  0  0  0  0  0  0  0  0
   -0.8313   -0.5120   -0.0981 H   0  0  0  0  0  0  0  0  0  0  0  0
    1.6769   -1.2549    1.0776 H   0  0  0  0  0  0  0  0  0  0  0  0
    1.8611   -1.0467   -0.7349 H   0  0  0  0  0  0  0  0  0  0  0  0
    0.1927    0.7213    2.1632 H   0  0  0  0  0  0  0  0  0  0  0  0
    0.3432    3.1912    2.4520 H   0  0  0  0  0  0  0  0  0  0  0  0
    1.5938    4.5714    0.7923 H   0  0  0  0  0  0  0  0  0  0  0  0
    2.5337    6.2514   -1.3738 H   0  0  0  0  0  0  0  0  0  0  0  0
    4.1451    7.9327   -0.4711 H   0  0  0  0  0  0  0  0  0  0  0  0
    6.2466    7.1725    0.6367 H   0  0  0  0  0  0  0  0  0  0  0  0
    6.7190    4.7379    0.8877 H   0  0  0  0  0  0  0  0  0  0  0  0
    5.0912    3.0547    0.0251 H   0  0  0  0  0  0  0  0  0  0  0  0
    2.3994    1.0276   -1.5429 H   0  0  0  0  0  0  0  0  0  0  0  0
  1  2  2  0
  2  3  1  0
  3  4  1  0
  4  5  2  0
  4  6  1  6
  4  7  1  0
  2  8  1  0
  8  9  1  0
  9 10  1  0
 10 11  1  0
 11 12  1  0
 12 13  2  0
 13 14  1  0
 14 15  2  0
 15 16  1  0
 16 17  1  0
 17 18  1  0
 18 19  2  0
 19 20  1  0
 20 21  2  0
 21 22  1  0
 22 23  2  0
 16 24  2  0
 24 12  1  0
 23 18  1  0
  3 25  1  0
  3 26  1  0
  7 27  1  0
  8 28  1  0
  9 29  1  0
  9 30  1  0
 10 31  1  0
 10 32  1  0
 11 33  1  0
 11 34  1  0
 13 35  1  0
 14 36  1  0
 15 37  1  0
 19 38  1  0
 20 39  1  0
 21 40  1  0
 22 41  1  0
 23 42  1  0
 24 43  1  0
M  CHG  1   6  -1
M  END
>  <meeko>  (4) 
{"is_sidechain": [false], "free_energy": -7.783, "intermolecular_energy": -11.741, "internal_energy": -1.243}

$$$$
2zy1_ligand
     RDKit          3D

 43 44  0  0  0  0  0  0  0  0999 V2000
   -2.1140   -0.9790   -0.6210 O   0  0  0  0  0  0  0  0  0  0  0  0
   -2.0400   -0.5840    0.5450 C   0  0  0  0  0  0  0  0  0  0  0  0
   -2.9540    0.4760    1.0900 C   0  0  0  0  0  0  0  0  0  0  0  0
   -4.5360   -0.1760    1.6340 P   0  0  2  0  0  5  0  0  0  0  0  0
   -5.6720    0.3360    0.7940 O   0  0  0  0  0  0  0  0  0  0  0  0
   -4.6050   -0.1310    3.1410 O   0  0  0  0  0  0  0  0  0  0  0  0
   -4.3810   -1.7360    1.2430 O   0  0  0  0  0  0  0  0  0  0  0  0
   -1.2040   -1.1660    1.4790 N   0  0  0  0  0  0  0  0  0  0  0  0
   -0.1120   -2.0130    1.0580 C   0  0  0  0  0  0  0  0  0  0  0  0
    1.2220   -1.2770    1.1440 C   0  0  0  0  0  0  0  0  0  0  0  0
    1.5850   -0.5420   -0.1520 C   0  0  0  0  0  0  0  0  0  0  0  0
    1.6110    0.9630   -0.0280 C   0  0  0  0  0  0  0  0  0  0  0  0
    0.9220    1.6050    1.0100 C   0  0  0  0  0  0  0  0  0  0  0  0
    0.9850    2.9930    1.1540 C   0  0  0  0  0  0  0  0  0  0  0  0
    1.7520    3.7530    0.2710 C   0  0  0  0  0  0  0  0  0  0  0  0
    2.4510    3.1250   -0.7570 C   0  0  0  0  0  0  0  0  0  0  0  0
    3.2030    3.9310   -1.5840 O   0  0  0  0  0  0  0  0  0  0  0  0
    4.0640    4.8290   -0.9910 C   0  0  0  0  0  0  0  0  0  0  0  0
    5.0200    4.2990   -0.1220 C   0  0  0  0  0  0  0  0  0  0  0  0
    5.9210    5.1480    0.5250 C   0  0  0  0  0  0  0  0  0  0  0  0
    5.8680    6.5220    0.2950 C   0  0  0  0  0  0  0  0  0  0  0  0
    4.9320    7.0500   -0.5940 C   0  0  0  0  0  0  0  0  0  0  0  0
    4.0400    6.2030   -1.2510 C   0  0  0  0  0  0  0  0  0  0  0  0
    2.3430    1.7420   -0.9360 C   0  0  0  0  0  0  0  0  0  0  0  0
   -2.4602    0.9585    1.9464 H   0  0  0  0  0  0  0  0  0  0  0  0
   -3.1535    1.1892    0.2767 H   0  0  0  0  0  0  0  0  0  0  0  0
   -5.1340   -1.9280    0.6580 H   0  0  0  0  0  0  0  0  0  0  0  0
   -1.0520   -0.5890    2.3240 H   0  0  0  0  0  0  0  0  0  0  0  0
   -0.0749   -2.9000    1.7075 H   0  0  0  0  0  0  0  0  0  0  0  0
   -0.2816   -2.3055    0.0113 H   0  0  0  0  0  0  0  0  0  0  0  0
    1.1647   -0.5415    1.9599 H   0  0  0  0  0  0  0  0  0  0  0  0
    2.0027   -2.0306    1.3248 H   0  0  0  0  0  0  0  0  0  0  0  0
    2.5826   -0.8785   -0.4708 H   0  0  0  0  0  0  0  0  0  0  0  0
    0.7982   -0.7839   -0.8817 H   0  0  0  0  0  0  0  0  0  0  0  0
    0.3260    1.0103    1.7179 H   0  0  0  0  0  0  0  0  0  0  0  0
    0.4292    3.4871    1.9645 H   0  0  0  0  0  0  0  0  0  0  0  0
    1.8047    4.8457    0.3863 H   0  0  0  0  0  0  0  0  0  0  0  0
    5.0635    3.2139    0.0529 H   0  0  0  0  0  0  0  0  0  0  0  0
    6.6709    4.7332    1.2147 H   0  0  0  0  0  0  0  0  0  0  0  0
    6.5671    7.1922    0.8167 H   0  0  0  0  0  0  0  0  0  0  0  0
    4.8974    8.1341   -0.7768 H   0  0  0  0  0  0  0  0  0  0  0  0
    3.3189    6.6148   -1.9724 H   0  0  0  0  0  0  0  0  0  0  0  0
    2.8354    1.2621   -1.7946 H   0  0  0  0  0  0  0  0  0  0  0  0
  1  2  2  0
  2  3  1  0
  3  4  1  0
  4  5  2  0
  4  6  1  1
  4  7  1  0
  2  8  1  0
  8  9  1  0
  9 10  1  0
 10 11  1  0
 11 12  1  0
 12 13  2  0
 13 14  1  0
 14 15  2  0
 15 16  1  0
 16 17  1  0
 17 18  1  0
 18 19  2  0
 19 20  1  0
 20 21  2  0
 21 22  1  0
 22 23  2  0
 16 24  2  0
 24 12  1  0
 23 18  1  0
  3 25  1  0
  3 26  1  0
  7 27  1  0
  8 28  1  0
  9 29  1  0
  9 30  1  0
 10 31  1  0
 10 32  1  0
 11 33  1  0
 11 34  1  0
 13 35  1  0
 14 36  1  0
 15 37  1  0
 19 38  1  0
 20 39  1  0
 21 40  1  0
 22 41  1  0
 23 42  1  0
 24 43  1  0
M  CHG  1   6  -1
M  END
>  <meeko>  (5) 
{"is_sidechain": [false], "free_energy": -7.726, "intermolecular_energy": -11.557, "internal_energy": -1.341}

$$$$
2zy1_ligand
     RDKit          3D

 43 44  0  0  0  0  0  0  0  0999 V2000
    5.0110    4.1930   -0.4370 O   0  0  0  0  0  0  0  0  0  0  0  0
    4.1110    5.0350   -0.4560 C   0  0  0  0  0  0  0  0  0  0  0  0
    4.3190    6.4400    0.0380 C   0  0  0  0  0  0  0  0  0  0  0  0
    4.8790    7.5580   -1.2500 P   0  0  2  0  0  5  0  0  0  0  0  0
    6.3570    7.8150   -1.1670 O   0  0  0  0  0  0  0  0  0  0  0  0
    3.9000    8.6990   -1.3820 O   0  0  0  0  0  0  0  0  0  0  0  0
    4.6750    6.6450   -2.5680 O   0  0  0  0  0  0  0  0  0  0  0  0
    2.8830    4.8040   -1.0450 N   0  0  0  0  0  0  0  0  0  0  0  0
    2.4530    3.4560   -1.3380 C   0  0  0  0  0  0  0  0  0  0  0  0
    1.7410    2.8320   -0.1420 C   0  0  0  0  0  0  0  0  0  0  0  0
    0.7370    1.7440   -0.5430 C   0  0  0  0  0  0  0  0  0  0  0  0
    0.3150    0.8360    0.5880 C   0  0  0  0  0  0  0  0  0  0  0  0
    0.9760    0.8830    1.8230 C   0  0  0  0  0  0  0  0  0  0  0  0
    0.5560    0.0790    2.8850 C   0  0  0  0  0  0  0  0  0  0  0  0
   -0.5400   -0.7690    2.7290 C   0  0  0  0  0  0  0  0  0  0  0  0
   -1.2120   -0.8150    1.5090 C   0  0  0  0  0  0  0  0  0  0  0  0
   -2.2970   -1.6600    1.4260 O   0  0  0  0  0  0  0  0  0  0  0  0
   -3.4900   -1.1300    0.9830 C   0  0  0  0  0  0  0  0  0  0  0  0
   -3.9730   -0.0150    1.6720 C   0  0  0  0  0  0  0  0  0  0  0  0
   -5.1810    0.5710    1.2890 C   0  0  0  0  0  0  0  0  0  0  0  0
   -5.8980    0.0470    0.2130 C   0  0  0  0  0  0  0  0  0  0  0  0
   -5.4020   -1.0480   -0.4930 C   0  0  0  0  0  0  0  0  0  0  0  0
   -4.1890   -1.6280   -0.1200 C   0  0  0  0  0  0  0  0  0  0  0  0
   -0.7580   -0.0530    0.4290 C   0  0  0  0  0  0  0  0  0  0  0  0
    3.3660    6.8157    0.4389 H   0  0  0  0  0  0  0  0  0  0  0  0
    5.1027    6.4060    0.8091 H   0  0  0  0  0  0  0  0  0  0  0  0
    5.4780    6.0990   -2.6260 H   0  0  0  0  0  0  0  0  0  0  0  0
    2.1500    5.4810   -0.7700 H   0  0  0  0  0  0  0  0  0  0  0  0
    1.7635    3.4775   -2.1948 H   0  0  0  0  0  0  0  0  0  0  0  0
    3.3410    2.8497   -1.5700 H   0  0  0  0  0  0  0  0  0  0  0  0
    2.4961    2.3849    0.5213 H   0  0  0  0  0  0  0  0  0  0  0  0
    1.1764    3.6322    0.3590 H   0  0  0  0  0  0  0  0  0  0  0  0
   -0.1620    2.2360   -0.9427 H   0  0  0  0  0  0  0  0  0  0  0  0
    1.2433    1.1077   -1.2838 H   0  0  0  0  0  0  0  0  0  0  0  0
    1.8332    1.5592    1.9571 H   0  0  0  0  0  0  0  0  0  0  0  0
    1.0905    0.1147    3.8458 H   0  0  0  0  0  0  0  0  0  0  0  0
   -0.8731   -1.3997    3.5664 H   0  0  0  0  0  0  0  0  0  0  0  0
   -3.4023    0.4009    2.5154 H   0  0  0  0  0  0  0  0  0  0  0  0
   -5.5669    1.4446    1.8348 H   0  0  0  0  0  0  0  0  0  0  0  0
   -6.8573    0.4991   -0.0791 H   0  0  0  0  0  0  0  0  0  0  0  0
   -5.9671   -1.4549   -1.3445 H   0  0  0  0  0  0  0  0  0  0  0  0
   -3.7838   -2.4752   -0.6928 H   0  0  0  0  0  0  0  0  0  0  0  0
   -1.2454   -0.1512   -0.5522 H   0  0  0  0  0  0  0  0  0  0  0  0
  1  2  2  0
  2  3  1  0
  3  4  1  0
  4  5  2  0
  4  6  1  6
  4  7  1  0
  2  8  1  0
  8  9  1  0
  9 10  1  0
 10 11  1  0
 11 12  1  0
 12 13  2  0
 13 14  1  0
 14 15  2  0
 15 16  1  0
 16 17  1  0
 17 18  1  0
 18 19  2  0
 19 20  1  0
 20 21  2  0
 21 22  1  0
 22 23  2  0
 16 24  2  0
 24 12  1  0
 23 18  1  0
  3 25  1  0
  3 26  1  0
  7 27  1  0
  8 28  1  0
  9 29  1  0
  9 30  1  0
 10 31  1  0
 10 32  1  0
 11 33  1  0
 11 34  1  0
 13 35  1  0
 14 36  1  0
 15 37  1  0
 19 38  1  0
 20 39  1  0
 21 40  1  0
 22 41  1  0
 23 42  1  0
 24 43  1  0
M  CHG  1   6  -1
M  END
>  <meeko>  (6) 
{"is_sidechain": [false], "free_energy": -7.575, "intermolecular_energy": -11.592, "internal_energy": -1.081}

$$$$
2zy1_ligand
     RDKit          3D

 43 44  0  0  0  0  0  0  0  0999 V2000
   -3.8310    0.3100    3.7790 O   0  0  0  0  0  0  0  0  0  0  0  0
   -2.9240   -0.4410    3.4150 C   0  0  0  0  0  0  0  0  0  0  0  0
   -2.6870   -1.7790    4.0570 C   0  0  0  0  0  0  0  0  0  0  0  0
   -2.0490   -3.0030    2.9090 P   0  0  2  0  0  5  0  0  0  0  0  0
   -0.5980   -2.7730    2.5930 O   0  0  0  0  0  0  0  0  0  0  0  0
   -3.0550   -3.2310    1.8080 O   0  0  0  0  0  0  0  0  0  0  0  0
   -2.0830   -4.3360    3.8230 O   0  0  0  0  0  0  0  0  0  0  0  0
   -2.1340   -0.1790    2.3110 N   0  0  0  0  0  0  0  0  0  0  0  0
   -2.0780    1.1510    1.7500 C   0  0  0  0  0  0  0  0  0  0  0  0
   -1.1180    2.0400    2.5340 C   0  0  0  0  0  0  0  0  0  0  0  0
    0.3360    1.5550    2.4700 C   0  0  0  0  0  0  0  0  0  0  0  0
    0.9570    1.6280    1.0950 C   0  0  0  0  0  0  0  0  0  0  0  0
    1.1230    0.4690    0.3250 C   0  0  0  0  0  0  0  0  0  0  0  0
    1.6530    0.5420   -0.9650 C   0  0  0  0  0  0  0  0  0  0  0  0
    2.0090    1.7770   -1.5060 C   0  0  0  0  0  0  0  0  0  0  0  0
    1.8370    2.9370   -0.7550 C   0  0  0  0  0  0  0  0  0  0  0  0
    2.1910    4.1260   -1.3540 O   0  0  0  0  0  0  0  0  0  0  0  0
    3.2920    4.7910   -0.8560 C   0  0  0  0  0  0  0  0  0  0  0  0
    3.2470    6.1860   -0.8880 C   0  0  0  0  0  0  0  0  0  0  0  0
    4.3290    6.9300   -0.4110 C   0  0  0  0  0  0  0  0  0  0  0  0
    5.4480    6.2760    0.1030 C   0  0  0  0  0  0  0  0  0  0  0  0
    5.4830    4.8830    0.1610 C   0  0  0  0  0  0  0  0  0  0  0  0
    4.3980    4.1390   -0.3020 C   0  0  0  0  0  0  0  0  0  0  0  0
    1.3590    2.8600    0.5570 C   0  0  0  0  0  0  0  0  0  0  0  0
   -1.9613   -1.6525    4.8739 H   0  0  0  0  0  0  0  0  0  0  0  0
   -3.6573   -2.1452    4.4236 H   0  0  0  0  0  0  0  0  0  0  0  0
   -2.1550   -5.0740    3.1930 H   0  0  0  0  0  0  0  0  0  0  0  0
   -1.2670   -0.7430    2.2710 H   0  0  0  0  0  0  0  0  0  0  0  0
   -1.7360    1.0862    0.7065 H   0  0  0  0  0  0  0  0  0  0  0  0
   -3.0837    1.5936    1.8016 H   0  0  0  0  0  0  0  0  0  0  0  0
   -1.1664    3.0582    2.1206 H   0  0  0  0  0  0  0  0  0  0  0  0
   -1.4287    2.0098    3.5888 H   0  0  0  0  0  0  0  0  0  0  0  0
    0.9361    2.1752    3.1521 H   0  0  0  0  0  0  0  0  0  0  0  0
    0.3258    0.4925    2.7544 H   0  0  0  0  0  0  0  0  0  0  0  0
    0.8331   -0.5074    0.7405 H   0  0  0  0  0  0  0  0  0  0  0  0
    1.7899   -0.3761   -1.5552 H   0  0  0  0  0  0  0  0  0  0  0  0
    2.4244    1.8347   -2.5229 H   0  0  0  0  0  0  0  0  0  0  0  0
    2.3602    6.6990   -1.2885 H   0  0  0  0  0  0  0  0  0  0  0  0
    4.2982    8.0292   -0.4409 H   0  0  0  0  0  0  0  0  0  0  0  0
    6.3066    6.8611    0.4642 H   0  0  0  0  0  0  0  0  0  0  0  0
    6.3659    4.3714    0.5717 H   0  0  0  0  0  0  0  0  0  0  0  0
    4.4123    3.0414   -0.2315 H   0  0  0  0  0  0  0  0  0  0  0  0
    1.2978    3.7707    1.1709 H   0  0  0  0  0  0  0  0  0  0  0  0
  1  2  2  0
  2  3  1  0
  3  4  1  0
  4  5  2  0
  4  6  1  6
  4  7  1  0
  2  8  1  0
  8  9  1  0
  9 10  1  0
 10 11  1  0
 11 12  1  0
 12 13  2  0
 13 14  1  0
 14 15  2  0
 15 16  1  0
 16 17  1  0
 17 18  1  0
 18 19  2  0
 19 20  1  0
 20 21  2  0
 21 22  1  0
 22 23  2  0
 16 24  2  0
 24 12  1  0
 23 18  1  0
  3 25  1  0
  3 26  1  0
  7 27  1  0
  8 28  1  0
  9 29  1  0
  9 30  1  0
 10 31  1  0
 10 32  1  0
 11 33  1  0
 11 34  1  0
 13 35  1  0
 14 36  1  0
 15 37  1  0
 19 38  1  0
 20 39  1  0
 21 40  1  0
 22 41  1  0
 23 42  1  0
 24 43  1  0
M  CHG  1   6  -1
M  END
>  <meeko>  (7) 
{"is_sidechain": [false], "free_energy": -7.458, "intermolecular_energy": -11.291, "internal_energy": -1.207}

$$$$
2zy1_ligand
     RDKit          3D

 43 44  0  0  0  0  0  0  0  0999 V2000
   -1.9900   -5.5500   -0.1160 O   0  0  0  0  0  0  0  0  0  0  0  0
   -3.2180   -5.4980   -0.0350 C   0  0  0  0  0  0  0  0  0  0  0  0
   -4.0850   -6.7080   -0.2450 C   0  0  0  0  0  0  0  0  0  0  0  0
   -5.6330   -6.3250   -1.0710 P   0  0  2  0  0  5  0  0  0  0  0  0
   -5.5770   -5.0010   -1.7810 O   0  0  0  0  0  0  0  0  0  0  0  0
   -6.7850   -6.6680   -0.1600 O   0  0  0  0  0  0  0  0  0  0  0  0
   -5.6460   -7.4400   -2.2420 O   0  0  0  0  0  0  0  0  0  0  0  0
   -3.8930   -4.3650    0.3780 N   0  0  0  0  0  0  0  0  0  0  0  0
   -3.2340   -3.0800    0.3790 C   0  0  0  0  0  0  0  0  0  0  0  0
   -3.9100   -2.1120   -0.5870 C   0  0  0  0  0  0  0  0  0  0  0  0
   -4.8200   -1.0990    0.1200 C   0  0  0  0  0  0  0  0  0  0  0  0
   -4.1530   -0.3370    1.2400 C   0  0  0  0  0  0  0  0  0  0  0  0
   -4.6330   -0.4350    2.5530 C   0  0  0  0  0  0  0  0  0  0  0  0
   -3.9880    0.2320    3.5980 C   0  0  0  0  0  0  0  0  0  0  0  0
   -2.8460    0.9890    3.3440 C   0  0  0  0  0  0  0  0  0  0  0  0
   -2.3520    1.0830    2.0440 C   0  0  0  0  0  0  0  0  0  0  0  0
   -1.2100    1.8330    1.8640 O   0  0  0  0  0  0  0  0  0  0  0  0
   -0.1000    1.1950    1.3510 C   0  0  0  0  0  0  0  0  0  0  0  0
    0.3610    1.6430    0.1110 C   0  0  0  0  0  0  0  0  0  0  0  0
    1.4730    1.0390   -0.4780 C   0  0  0  0  0  0  0  0  0  0  0  0
    2.1260   -0.0050    0.1770 C   0  0  0  0  0  0  0  0  0  0  0  0
    1.6840   -0.4340    1.4280 C   0  0  0  0  0  0  0  0  0  0  0  0
    0.5800    0.1770    2.0250 C   0  0  0  0  0  0  0  0  0  0  0  0
   -3.0290    0.4640    0.9900 C   0  0  0  0  0  0  0  0  0  0  0  0
   -3.5309   -7.4346   -0.8575 H   0  0  0  0  0  0  0  0  0  0  0  0
   -4.3322   -7.1127    0.7475 H   0  0  0  0  0  0  0  0  0  0  0  0
   -5.1670   -8.2020   -1.8720 H   0  0  0  0  0  0  0  0  0  0  0  0
   -4.9050   -4.3750    0.1580 H   0  0  0  0  0  0  0  0  0  0  0  0
   -3.2716   -2.6584    1.3943 H   0  0  0  0  0  0  0  0  0  0  0  0
   -2.1921   -3.2229    0.0564 H   0  0  0  0  0  0  0  0  0  0  0  0
   -3.1308   -1.5613   -1.1343 H   0  0  0  0  0  0  0  0  0  0  0  0
   -4.5420   -2.7077   -1.2621 H   0  0  0  0  0  0  0  0  0  0  0  0
   -5.1729   -0.3732   -0.6275 H   0  0  0  0  0  0  0  0  0  0  0  0
   -5.6376   -1.6763    0.5764 H   0  0  0  0  0  0  0  0  0  0  0  0
   -5.5257   -1.0425    2.7630 H   0  0  0  0  0  0  0  0  0  0  0  0
   -4.3823    0.1594    4.6223 H   0  0  0  0  0  0  0  0  0  0  0  0
   -2.3358    1.5109    4.1670 H   0  0  0  0  0  0  0  0  0  0  0  0
   -0.1516    2.4708   -0.4008 H   0  0  0  0  0  0  0  0  0  0  0  0
    1.8339    1.3859   -1.4575 H   0  0  0  0  0  0  0  0  0  0  0  0
    2.9924   -0.4915   -0.2948 H   0  0  0  0  0  0  0  0  0  0  0  0
    2.2052   -1.2537    1.9443 H   0  0  0  0  0  0  0  0  0  0  0  0
    0.2461   -0.1420    3.0234 H   0  0  0  0  0  0  0  0  0  0  0  0
   -2.6781    0.6058   -0.0428 H   0  0  0  0  0  0  0  0  0  0  0  0
  1  2  2  0
  2  3  1  0
  3  4  1  0
  4  5  2  0
  4  6  1  1
  4  7  1  0
  2  8  1  0
  8  9  1  0
  9 10  1  0
 10 11  1  0
 11 12  1  0
 12 13  2  0
 13 14  1  0
 14 15  2  0
 15 16  1  0
 16 17  1  0
 17 18  1  0
 18 19  2  0
 19 20  1  0
 20 21  2  0
 21 22  1  0
 22 23  2  0
 16 24  2  0
 24 12  1  0
 23 18  1  0
  3 25  1  0
  3 26  1  0
  7 27  1  0
  8 28  1  0
  9 29  1  0
  9 30  1  0
 10 31  1  0
 10 32  1  0
 11 33  1  0
 11 34  1  0
 13 35  1  0
 14 36  1  0
 15 37  1  0
 19 38  1  0
 20 39  1  0
 21 40  1  0
 22 41  1  0
 23 42  1  0
 24 43  1  0
M  CHG  1   6  -1
M  END
>  <meeko>  (8) 
{"is_sidechain": [false], "free_energy": -7.344, "intermolecular_energy": -11.085, "internal_energy": -1.241}

$$$$
2zy1_ligand
     RDKit          3D

 43 44  0  0  0  0  0  0  0  0999 V2000
    1.7930   -5.6490    3.3550 O   0  0  0  0  0  0  0  0  0  0  0  0
    1.5630   -5.7850    4.5580 C   0  0  0  0  0  0  0  0  0  0  0  0
    2.5380   -6.4500    5.4880 C   0  0  0  0  0  0  0  0  0  0  0  0
    3.9990   -5.4540    5.8000 P   0  0  2  0  0  5  0  0  0  0  0  0
    5.1430   -5.8420    4.9060 O   0  0  0  0  0  0  0  0  0  0  0  0
    4.1950   -5.3040    7.2880 O   0  0  0  0  0  0  0  0  0  0  0  0
    3.5100   -4.0080    5.2690 O   0  0  0  0  0  0  0  0  0  0  0  0
    0.4590   -5.2290    5.1750 N   0  0  0  0  0  0  0  0  0  0  0  0
   -0.6700   -4.7810    4.3930 C   0  0  0  0  0  0  0  0  0  0  0  0
   -0.7990   -3.2610    4.4320 C   0  0  0  0  0  0  0  0  0  0  0  0
   -2.2410   -2.7890    4.6580 C   0  0  0  0  0  0  0  0  0  0  0  0
   -2.6440   -1.5940    3.8260 C   0  0  0  0  0  0  0  0  0  0  0  0
   -3.4300   -0.5740    4.3780 C   0  0  0  0  0  0  0  0  0  0  0  0
   -3.7630    0.5540    3.6240 C   0  0  0  0  0  0  0  0  0  0  0  0
   -3.2990    0.6820    2.3160 C   0  0  0  0  0  0  0  0  0  0  0  0
   -2.5060   -0.3200    1.7610 C   0  0  0  0  0  0  0  0  0  0  0  0
   -2.0660   -0.1240    0.4700 O   0  0  0  0  0  0  0  0  0  0  0  0
   -0.7160    0.0840    0.2790 C   0  0  0  0  0  0  0  0  0  0  0  0
   -0.1980    1.2950    0.7430 C   0  0  0  0  0  0  0  0  0  0  0  0
    1.1580    1.5830    0.5750 C   0  0  0  0  0  0  0  0  0  0  0  0
    1.9930    0.6570   -0.0490 C   0  0  0  0  0  0  0  0  0  0  0  0
    1.4830   -0.5640   -0.4880 C   0  0  0  0  0  0  0  0  0  0  0  0
    0.1310   -0.8600   -0.3100 C   0  0  0  0  0  0  0  0  0  0  0  0
   -2.2190   -1.4750    2.4950 C   0  0  0  0  0  0  0  0  0  0  0  0
    2.0333   -6.6422    6.4463 H   0  0  0  0  0  0  0  0  0  0  0  0
    2.8707   -7.3810    5.0058 H   0  0  0  0  0  0  0  0  0  0  0  0
    2.6010   -4.1480    4.9520 H   0  0  0  0  0  0  0  0  0  0  0  0
    0.2550   -5.6260    6.1090 H   0  0  0  0  0  0  0  0  0  0  0  0
   -0.5346   -5.1031    3.3500 H   0  0  0  0  0  0  0  0  0  0  0  0
   -1.5847   -5.2195    4.8184 H   0  0  0  0  0  0  0  0  0  0  0  0
   -0.1718   -2.8766    5.2498 H   0  0  0  0  0  0  0  0  0  0  0  0
   -0.4762   -2.8775    3.4529 H   0  0  0  0  0  0  0  0  0  0  0  0
   -2.9176   -3.6215    4.4148 H   0  0  0  0  0  0  0  0  0  0  0  0
   -2.3076   -2.4758    5.7104 H   0  0  0  0  0  0  0  0  0  0  0  0
   -3.7881   -0.6621    5.4143 H   0  0  0  0  0  0  0  0  0  0  0  0
   -4.3922    1.3421    4.0632 H   0  0  0  0  0  0  0  0  0  0  0  0
   -3.5582    1.5718    1.7235 H   0  0  0  0  0  0  0  0  0  0  0  0
   -0.8576    2.0214    1.2404 H   0  0  0  0  0  0  0  0  0  0  0  0
    1.5668    2.5389    0.9344 H   0  0  0  0  0  0  0  0  0  0  0  0
    3.0579    0.8907   -0.1954 H   0  0  0  0  0  0  0  0  0  0  0  0
    2.1464   -1.2941   -0.9747 H   0  0  0  0  0  0  0  0  0  0  0  0
   -0.2675   -1.8334   -0.6322 H   0  0  0  0  0  0  0  0  0  0  0  0
   -1.6564   -2.2953    2.0254 H   0  0  0  0  0  0  0  0  0  0  0  0
  1  2  2  0
  2  3  1  0
  3  4  1  0
  4  5  2  0
  4  6  1  1
  4  7  1  0
  2  8  1  0
  8  9  1  0
  9 10  1  0
 10 11  1  0
 11 12  1  0
 12 13  2  0
 13 14  1  0
 14 15  2  0
 15 16  1  0
 16 17  1  0
 17 18  1  0
 18 19  2  0
 19 20  1  0
 20 21  2  0
 21 22  1  0
 22 23  2  0
 16 24  2  0
 24 12  1  0
 23 18  1  0
  3 25  1  0
  3 26  1  0
  7 27  1  0
  8 28  1  0
  9 29  1  0
  9 30  1  0
 10 31  1  0
 10 32  1  0
 11 33  1  0
 11 34  1  0
 13 35  1  0
 14 36  1  0
 15 37  1  0
 19 38  1  0
 20 39  1  0
 21 40  1  0
 22 41  1  0
 23 42  1  0
 24 43  1  0
M  CHG  1   6  -1
M  END
>  <meeko>  (9) 
{"is_sidechain": [false], "free_energy": -7.325, "intermolecular_energy": -11.041, "internal_energy": -1.257}

$$$$
