2wvt_ligand
     RDKit          3D

 29 29  0  0  0  0  0  0  0  0999 V2000
   -0.3620   12.3130   -7.4010 O   0  0  0  0  0  0  0  0  0  0  0  0
   -0.0380   11.8770   -6.0890 C   0  0  0  0  0  0  0  0  0  0  0  0
    0.5540   10.4560   -6.1390 C   0  0  2  0  0  0  0  0  0  0  0  0
    0.1340    9.6820   -4.9130 N   0  0  0  0  0  0  0  0  0  0  0  0
    1.1980    9.5870   -3.8370 C   0  0  1  0  0  0  0  0  0  0  0  0
    0.5090    9.0170   -2.5880 C   0  0  0  0  0  0  0  0  0  0  0  0
   -0.6940    8.3700   -3.0360 O   0  0  0  0  0  0  0  0  0  0  0  0
    2.3690    8.7570   -4.3860 C   0  0  1  0  0  0  0  0  0  0  0  0
    2.0260    7.3640   -4.3310 O   0  0  0  0  0  0  0  0  0  0  0  0
    2.6690    9.0920   -5.8660 C   0  0  0  0  0  0  0  0  0  0  0  0
    4.0840    9.0460   -6.0660 O   0  0  0  0  0  0  0  0  0  0  0  0
    2.1020   10.4460   -6.3050 C   0  0  2  0  0  0  0  0  0  0  0  0
    2.7400   11.4520   -5.5030 O   0  0  0  0  0  0  0  0  0  0  0  0
    0.4510   12.2790   -7.9410 H   0  0  0  0  0  0  0  0  0  0  0  0
    0.6995   12.5639   -5.6483 H   0  0  0  0  0  0  0  0  0  0  0  0
   -0.9508   11.8672   -5.4753 H   0  0  0  0  0  0  0  0  0  0  0  0
    0.1505    9.9652   -7.0369 H   0  0  0  0  0  0  0  0  0  0  0  0
   -0.6970   10.0770   -4.4370 H   0  0  0  0  0  0  0  0  0  0  0  0
   -0.1370    8.7170   -5.1550 H   0  0  0  0  0  0  0  0  0  0  0  0
    1.6397   10.5522   -3.5483 H   0  0  0  0  0  0  0  0  0  0  0  0
    1.1676    8.2896   -2.0909 H   0  0  0  0  0  0  0  0  0  0  0  0
    0.2826    9.8136   -1.8640 H   0  0  0  0  0  0  0  0  0  0  0  0
   -1.1990    8.1300   -2.2320 H   0  0  0  0  0  0  0  0  0  0  0  0
    3.2515    8.9906   -3.7723 H   0  0  0  0  0  0  0  0  0  0  0  0
    2.8100    6.8950   -3.9710 H   0  0  0  0  0  0  0  0  0  0  0  0
    2.1658    8.3413   -6.4931 H   0  0  0  0  0  0  0  0  0  0  0  0
    4.2540    9.1870   -7.0200 H   0  0  0  0  0  0  0  0  0  0  0  0
    2.3031   10.6435   -7.3683 H   0  0  0  0  0  0  0  0  0  0  0  0
    3.1120   12.1140   -6.1260 H   0  0  0  0  0  0  0  0  0  0  0  0
  1  2  1  0
  2  3  1  0
  3  4  1  0
  4  5  1  0
  5  6  1  0
  6  7  1  0
  5  8  1  0
  8  9  1  0
  8 10  1  0
 10 11  1  0
 10 12  1  0
 12 13  1  0
 12  3  1  0
  1 14  1  0
  2 15  1  0
  2 16  1  0
  3 17  1  6
  4 18  1  0
  4 19  1  0
  5 20  1  1
  6 21  1  0
  6 22  1  0
  7 23  1  0
  8 24  1  1
  9 25  1  0
 10 26  1  0
 11 27  1  0
 12 28  1  6
 13 29  1  0
M  CHG  1   4   1
M  END
>  <meeko>  (1) 
{"is_sidechain": [false], "free_energy": -5.932, "intermolecular_energy": -7.492, "internal_energy": -0.266}

$$$$
2wvt_ligand
     RDKit          3D

 29 29  0  0  0  0  0  0  0  0999 V2000
    3.4690   13.2770   -5.2710 O   0  0  0  0  0  0  0  0  0  0  0  0
    2.9890   12.6670   -4.0820 C   0  0  0  0  0  0  0  0  0  0  0  0
    1.5540   12.1510   -4.2970 C   0  0  2  0  0  0  0  0  0  0  0  0
    1.2810   10.9910   -3.3720 N   0  0  0  0  0  0  0  0  0  0  0  0
    1.3740    9.6280   -4.0310 C   0  0  1  0  0  0  0  0  0  0  0  0
    1.3400    8.5910   -2.8990 C   0  0  0  0  0  0  0  0  0  0  0  0
    0.4710    9.1140   -1.8810 O   0  0  0  0  0  0  0  0  0  0  0  0
    0.2470    9.5160   -5.0690 C   0  0  1  0  0  0  0  0  0  0  0  0
   -0.9880    9.2320   -4.3940 O   0  0  0  0  0  0  0  0  0  0  0  0
    0.0460   10.8370   -5.8480 C   0  0  0  0  0  0  0  0  0  0  0  0
   -0.2730   10.5220   -7.2060 O   0  0  0  0  0  0  0  0  0  0  0  0
    1.2600   11.7690   -5.7770 C   0  0  2  0  0  0  0  0  0  0  0  0
    2.3610   11.0780   -6.3890 O   0  0  0  0  0  0  0  0  0  0  0  0
    3.6950   14.2050   -5.0660 H   0  0  0  0  0  0  0  0  0  0  0  0
    3.6432   11.8238   -3.8155 H   0  0  0  0  0  0  0  0  0  0  0  0
    2.9879   13.4094   -3.2703 H   0  0  0  0  0  0  0  0  0  0  0  0
    0.8699   12.9780   -4.0559 H   0  0  0  0  0  0  0  0  0  0  0  0
    1.9270   10.9440   -2.5630 H   0  0  0  0  0  0  0  0  0  0  0  0
    0.3410   11.0600   -2.9520 H   0  0  0  0  0  0  0  0  0  0  0  0
    2.3029    9.4570   -4.5949 H   0  0  0  0  0  0  0  0  0  0  0  0
    0.9497    7.6335   -3.2745 H   0  0  0  0  0  0  0  0  0  0  0  0
    2.3491    8.4092   -2.5006 H   0  0  0  0  0  0  0  0  0  0  0  0
    0.9550    9.8490   -1.4500 H   0  0  0  0  0  0  0  0  0  0  0  0
    0.5278    8.7178   -5.7719 H   0  0  0  0  0  0  0  0  0  0  0  0
   -0.8710    9.5140   -3.4610 H   0  0  0  0  0  0  0  0  0  0  0  0
   -0.7806   11.3879   -5.3756 H   0  0  0  0  0  0  0  0  0  0  0  0
   -0.3320   11.3640   -7.7000 H   0  0  0  0  0  0  0  0  0  0  0  0
    1.0779   12.7126   -6.3121 H   0  0  0  0  0  0  0  0  0  0  0  0
    2.0540   10.1610   -6.5620 H   0  0  0  0  0  0  0  0  0  0  0  0
  1  2  1  0
  2  3  1  0
  3  4  1  0
  4  5  1  0
  5  6  1  0
  6  7  1  0
  5  8  1  0
  8  9  1  0
  8 10  1  0
 10 11  1  0
 10 12  1  0
 12 13  1  0
 12  3  1  0
  1 14  1  0
  2 15  1  0
  2 16  1  0
  3 17  1  1
  4 18  1  0
  4 19  1  0
  5 20  1  6
  6 21  1  0
  6 22  1  0
  7 23  1  0
  8 24  1  6
  9 25  1  0
 10 26  1  0
 11 27  1  0
 12 28  1  6
 13 29  1  0
M  CHG  1   4   1
M  END
>  <meeko>  (2) 
{"is_sidechain": [false], "free_energy": -5.922, "intermolecular_energy": -7.27, "internal_energy": -0.476}

$$$$
2wvt_ligand
     RDKit          3D

 29 29  0  0  0  0  0  0  0  0999 V2000
    0.0990    7.7860   -1.9020 O   0  0  0  0  0  0  0  0  0  0  0  0
    0.0400    8.1860   -3.2640 C   0  0  0  0  0  0  0  0  0  0  0  0
    1.2600    9.0610   -3.6090 C   0  0  2  0  0  0  0  0  0  0  0  0
    0.8010   10.3870   -4.1640 N   0  0  0  0  0  0  0  0  0  0  0  0
    0.8790   10.4960   -5.6740 C   0  0  1  0  0  0  0  0  0  0  0  0
    0.1290   11.7790   -6.0610 C   0  0  0  0  0  0  0  0  0  0  0  0
    0.1480   11.8540   -7.4960 O   0  0  0  0  0  0  0  0  0  0  0  0
    2.3580   10.4420   -6.0860 C   0  0  1  0  0  0  0  0  0  0  0  0
    2.9610   11.7230   -5.8480 O   0  0  0  0  0  0  0  0  0  0  0  0
    3.1520    9.4050   -5.2560 C   0  0  0  0  0  0  0  0  0  0  0  0
    4.1110    8.7750   -6.1080 O   0  0  0  0  0  0  0  0  0  0  0  0
    2.2560    8.3610   -4.5800 C   0  0  2  0  0  0  0  0  0  0  0  0
    1.5810    7.6430   -5.6250 O   0  0  0  0  0  0  0  0  0  0  0  0
   -0.6320    7.1590   -1.7390 H   0  0  0  0  0  0  0  0  0  0  0  0
    0.0388    7.2930   -3.9063 H   0  0  0  0  0  0  0  0  0  0  0  0
   -0.8795    8.7663   -3.4306 H   0  0  0  0  0  0  0  0  0  0  0  0
    1.8157    9.2299   -2.6749 H   0  0  0  0  0  0  0  0  0  0  0  0
   -0.1810   10.6190   -3.9270 H   0  0  0  0  0  0  0  0  0  0  0  0
    1.3540   11.1660   -3.7750 H   0  0  0  0  0  0  0  0  0  0  0  0
    0.3981    9.6678   -6.2151 H   0  0  0  0  0  0  0  0  0  0  0  0
   -0.9084   11.7355   -5.6977 H   0  0  0  0  0  0  0  0  0  0  0  0
    0.6040   12.6643   -5.6131 H   0  0  0  0  0  0  0  0  0  0  0  0
   -0.5440   12.4980   -7.7520 H   0  0  0  0  0  0  0  0  0  0  0  0
    2.3905   10.1602   -7.1488 H   0  0  0  0  0  0  0  0  0  0  0  0
    2.3200   12.2410   -5.3140 H   0  0  0  0  0  0  0  0  0  0  0  0
    3.6568    9.9395   -4.4378 H   0  0  0  0  0  0  0  0  0  0  0  0
    4.9950    8.9080   -5.7090 H   0  0  0  0  0  0  0  0  0  0  0  0
    2.8423    7.6567   -3.9715 H   0  0  0  0  0  0  0  0  0  0  0  0
    2.1860    7.6410   -6.3990 H   0  0  0  0  0  0  0  0  0  0  0  0
  1  2  1  0
  2  3  1  0
  3  4  1  0
  4  5  1  0
  5  6  1  0
  6  7  1  0
  5  8  1  0
  8  9  1  0
  8 10  1  0
 10 11  1  0
 10 12  1  0
 12 13  1  0
 12  3  1  0
  1 14  1  0
  2 15  1  0
  2 16  1  0
  3 17  1  1
  4 18  1  0
  4 19  1  0
  5 20  1  6
  6 21  1  0
  6 22  1  0
  7 23  1  0
  8 24  1  6
  9 25  1  0
 10 26  1  0
 11 27  1  0
 12 28  1  1
 13 29  1  0
M  CHG  1   4   1
M  END
>  <meeko>  (3) 
{"is_sidechain": [false], "free_energy": -5.863, "intermolecular_energy": -7.483, "internal_energy": -0.189}

$$$$
2wvt_ligand
     RDKit          3D

 29 29  0  0  0  0  0  0  0  0999 V2000
    1.9350    1.0770    3.3950 O   0  0  0  0  0  0  0  0  0  0  0  0
    1.4480    1.8560    2.3120 C   0  0  0  0  0  0  0  0  0  0  0  0
    2.6130    2.6060    1.6390 C   0  0  2  0  0  0  0  0  0  0  0  0
    3.1700    3.6430    2.5840 N   0  0  0  0  0  0  0  0  0  0  0  0
    2.7070    5.0590    2.3040 C   0  0  1  0  0  0  0  0  0  0  0  0
    3.1460    5.9090    3.5050 C   0  0  0  0  0  0  0  0  0  0  0  0
    4.0840    5.1180    4.2540 O   0  0  0  0  0  0  0  0  0  0  0  0
    3.2710    5.4930    0.9430 C   0  0  1  0  0  0  0  0  0  0  0  0
    4.6520    5.8530    1.0980 O   0  0  0  0  0  0  0  0  0  0  0  0
    3.2150    4.3480   -0.0970 C   0  0  0  0  0  0  0  0  0  0  0  0
    2.9000    4.9060   -1.3740 O   0  0  0  0  0  0  0  0  0  0  0  0
    2.2180    3.2450    0.2750 C   0  0  2  0  0  0  0  0  0  0  0  0
    0.9150    3.8480    0.3150 O   0  0  0  0  0  0  0  0  0  0  0  0
    1.3400    1.2130    4.1580 H   0  0  0  0  0  0  0  0  0  0  0  0
    0.9657    1.1959    1.5760 H   0  0  0  0  0  0  0  0  0  0  0  0
    0.7183    2.5866    2.6912 H   0  0  0  0  0  0  0  0  0  0  0  0
    3.3924    1.8638    1.4116 H   0  0  0  0  0  0  0  0  0  0  0  0
    2.9300    3.4710    3.5770 H   0  0  0  0  0  0  0  0  0  0  0  0
    4.2010    3.6520    2.5620 H   0  0  0  0  0  0  0  0  0  0  0  0
    1.6165    5.1704    2.2122 H   0  0  0  0  0  0  0  0  0  0  0  0
    3.6252    6.8362    3.1576 H   0  0  0  0  0  0  0  0  0  0  0  0
    2.2826    6.1898    4.1260 H   0  0  0  0  0  0  0  0  0  0  0  0
    3.5800    4.3670    4.6280 H   0  0  0  0  0  0  0  0  0  0  0  0
    2.6599    6.3370    0.5905 H   0  0  0  0  0  0  0  0  0  0  0  0
    4.8010    6.6450    0.5370 H   0  0  0  0  0  0  0  0  0  0  0  0
    4.2018    3.8626   -0.1216 H   0  0  0  0  0  0  0  0  0  0  0  0
    3.3280    5.7850   -1.4280 H   0  0  0  0  0  0  0  0  0  0  0  0
    2.2214    2.4301   -0.4638 H   0  0  0  0  0  0  0  0  0  0  0  0
    1.0110    4.6890    0.8140 H   0  0  0  0  0  0  0  0  0  0  0  0
  1  2  1  0
  2  3  1  0
  3  4  1  0
  4  5  1  0
  5  6  1  0
  6  7  1  0
  5  8  1  0
  8  9  1  0
  8 10  1  0
 10 11  1  0
 10 12  1  0
 12 13  1  0
 12  3  1  0
  1 14  1  0
  2 15  1  0
  2 16  1  0
  3 17  1  6
  4 18  1  0
  4 19  1  0
  5 20  1  6
  6 21  1  0
  6 22  1  0
  7 23  1  0
  8 24  1  6
  9 25  1  0
 10 26  1  0
 11 27  1  0
 12 28  1  6
 13 29  1  0
M  CHG  1   4   1
M  END
>  <meeko>  (4) 
{"is_sidechain": [false], "free_energy": -5.683, "intermolecular_energy": -7.253, "internal_energy": -0.191}

$$$$
2wvt_ligand
     RDKit          3D

 29 29  0  0  0  0  0  0  0  0999 V2000
    0.0850   10.6450   -6.4550 O   0  0  0  0  0  0  0  0  0  0  0  0
    0.5580   11.3990   -5.3480 C   0  0  0  0  0  0  0  0  0  0  0  0
    1.4970   10.5340   -4.4850 C   0  0  2  0  0  0  0  0  0  0  0  0
    2.5020    9.8320   -5.3660 N   0  0  0  0  0  0  0  0  0  0  0  0
    2.1800    8.3780   -5.6490 C   0  0  1  0  0  0  0  0  0  0  0  0
    3.1400    7.9230   -6.7570 C   0  0  0  0  0  0  0  0  0  0  0  0
    4.3490    8.6860   -6.5980 O   0  0  0  0  0  0  0  0  0  0  0  0
    2.2720    7.5970   -4.3290 C   0  0  1  0  0  0  0  0  0  0  0  0
    3.6530    7.3510   -4.0220 O   0  0  0  0  0  0  0  0  0  0  0  0
    1.6790    8.3960   -3.1430 C   0  0  0  0  0  0  0  0  0  0  0  0
    1.0100    7.4850   -2.2690 O   0  0  0  0  0  0  0  0  0  0  0  0
    0.7340    9.5180   -3.5850 C   0  0  2  0  0  0  0  0  0  0  0  0
   -0.3640    8.9010   -4.2740 O   0  0  0  0  0  0  0  0  0  0  0  0
    0.5400   10.9680   -7.2570 H   0  0  0  0  0  0  0  0  0  0  0  0
    1.1071   12.2789   -5.7143 H   0  0  0  0  0  0  0  0  0  0  0  0
   -0.2986   11.7217   -4.7380 H   0  0  0  0  0  0  0  0  0  0  0  0
    2.0246   11.2108   -3.7968 H   0  0  0  0  0  0  0  0  0  0  0  0
    2.6140   10.2700   -6.2990 H   0  0  0  0  0  0  0  0  0  0  0  0
    3.4450    9.8580   -4.9500 H   0  0  0  0  0  0  0  0  0  0  0  0
    1.1586    8.2022   -6.0176 H   0  0  0  0  0  0  0  0  0  0  0  0
    3.3539    6.8488   -6.6553 H   0  0  0  0  0  0  0  0  0  0  0  0
    2.6994    8.0840   -7.7520 H   0  0  0  0  0  0  0  0  0  0  0  0
    5.0810    8.0390   -6.5350 H   0  0  0  0  0  0  0  0  0  0  0  0
    1.7046    6.6640   -4.4611 H   0  0  0  0  0  0  0  0  0  0  0  0
    3.7280    6.3950   -3.8110 H   0  0  0  0  0  0  0  0  0  0  0  0
    2.5085    8.8940   -2.6197 H   0  0  0  0  0  0  0  0  0  0  0  0
    0.7690    6.6930   -2.7910 H   0  0  0  0  0  0  0  0  0  0  0  0
    0.3518   10.0875   -2.7250 H   0  0  0  0  0  0  0  0  0  0  0  0
   -0.3630    9.2640   -5.1870 H   0  0  0  0  0  0  0  0  0  0  0  0
  1  2  1  0
  2  3  1  0
  3  4  1  0
  4  5  1  0
  5  6  1  0
  6  7  1  0
  5  8  1  0
  8  9  1  0
  8 10  1  0
 10 11  1  0
 10 12  1  0
 12 13  1  0
 12  3  1  0
  1 14  1  0
  2 15  1  0
  2 16  1  0
  3 17  1  1
  4 18  1  0
  4 19  1  0
  5 20  1  6
  6 21  1  0
  6 22  1  0
  7 23  1  0
  8 24  1  6
  9 25  1  0
 10 26  1  0
 11 27  1  0
 12 28  1  1
 13 29  1  0
M  CHG  1   4   1
M  END
>  <meeko>  (5) 
{"is_sidechain": [false], "free_energy": -5.668, "intermolecular_energy": -7.037, "internal_energy": -0.388}

$$$$
2wvt_ligand
     RDKit          3D

 29 29  0  0  0  0  0  0  0  0999 V2000
    3.0110    5.5330   -1.9350 O   0  0  0  0  0  0  0  0  0  0  0  0
    2.3360    5.0430   -0.7850 C   0  0  0  0  0  0  0  0  0  0  0  0
    1.7070    6.2130   -0.0060 C   0  0  2  0  0  0  0  0  0  0  0  0
    1.0210    7.1570   -0.9630 N   0  0  0  0  0  0  0  0  0  0  0  0
    1.8160    8.4080   -1.2860 C   0  0  1  0  0  0  0  0  0  0  0  0
    1.0980    9.0930   -2.4580 C   0  0  0  0  0  0  0  0  0  0  0  0
   -0.3100    8.8700   -2.2700 O   0  0  0  0  0  0  0  0  0  0  0  0
    1.9420    9.2450   -0.0040 C   0  0  1  0  0  0  0  0  0  0  0  0
    0.7100    9.9470    0.2240 O   0  0  0  0  0  0  0  0  0  0  0  0
    2.1960    8.3610    1.2400 C   0  0  0  0  0  0  0  0  0  0  0  0
    3.0990    9.0470    2.1110 O   0  0  0  0  0  0  0  0  0  0  0  0
    2.7310    6.9680    0.8910 C   0  0  2  0  0  0  0  0  0  0  0  0
    3.9950    7.1530    0.2340 O   0  0  0  0  0  0  0  0  0  0  0  0
    3.1220    6.4980   -1.8320 H   0  0  0  0  0  0  0  0  0  0  0  0
    1.5446    4.3454   -1.0966 H   0  0  0  0  0  0  0  0  0  0  0  0
    3.0570    4.5233   -0.1368 H   0  0  0  0  0  0  0  0  0  0  0  0
    0.9617    5.7856    0.6809 H   0  0  0  0  0  0  0  0  0  0  0  0
    0.8030    6.7310   -1.8820 H   0  0  0  0  0  0  0  0  0  0  0  0
    0.1090    7.4660   -0.5940 H   0  0  0  0  0  0  0  0  0  0  0  0
    2.8503    8.2189   -1.6092 H   0  0  0  0  0  0  0  0  0  0  0  0
    1.3142   10.1716   -2.4563 H   0  0  0  0  0  0  0  0  0  0  0  0
    1.4371    8.6848   -3.4215 H   0  0  0  0  0  0  0  0  0  0  0  0
   -0.5950    8.2650   -2.9850 H   0  0  0  0  0  0  0  0  0  0  0  0
    2.7902    9.9311   -0.1443 H   0  0  0  0  0  0  0  0  0  0  0  0
    0.9520   10.8640    0.4780 H   0  0  0  0  0  0  0  0  0  0  0  0
    1.2306    8.1929    1.7398 H   0  0  0  0  0  0  0  0  0  0  0  0
    3.5480    9.7410    1.5870 H   0  0  0  0  0  0  0  0  0  0  0  0
    2.8728    6.3510    1.7905 H   0  0  0  0  0  0  0  0  0  0  0  0
    3.7950    7.3630   -0.7050 H   0  0  0  0  0  0  0  0  0  0  0  0
  1  2  1  0
  2  3  1  0
  3  4  1  0
  4  5  1  0
  5  6  1  0
  6  7  1  0
  5  8  1  0
  8  9  1  0
  8 10  1  0
 10 11  1  0
 10 12  1  0
 12 13  1  0
 12  3  1  0
  1 14  1  0
  2 15  1  0
  2 16  1  0
  3 17  1  1
  4 18  1  0
  4 19  1  0
  5 20  1  6
  6 21  1  0
  6 22  1  0
  7 23  1  0
  8 24  1  6
  9 25  1  0
 10 26  1  0
 11 27  1  0
 12 28  1  1
 13 29  1  0
M  CHG  1   4   1
M  END
>  <meeko>  (6) 
{"is_sidechain": [false], "free_energy": -5.593, "intermolecular_energy": -6.943, "internal_energy": -0.388}

$$$$
2wvt_ligand
     RDKit          3D

 29 29  0  0  0  0  0  0  0  0999 V2000
    2.3560    2.0380   -0.9070 O   0  0  0  0  0  0  0  0  0  0  0  0
    1.6510    1.7350    0.2880 C   0  0  0  0  0  0  0  0  0  0  0  0
    1.4730    3.0100    1.1320 C   0  0  2  0  0  0  0  0  0  0  0  0
    1.3200    4.2080    0.2270 N   0  0  0  0  0  0  0  0  0  0  0  0
    2.5760    5.0430    0.0740 C   0  0  1  0  0  0  0  0  0  0  0  0
    2.3090    6.0300   -1.0710 C   0  0  0  0  0  0  0  0  0  0  0  0
    3.0970    5.5920   -2.1910 O   0  0  0  0  0  0  0  0  0  0  0  0
    2.9050    5.6760    1.4340 C   0  0  1  0  0  0  0  0  0  0  0  0
    2.0440    6.8050    1.6490 O   0  0  0  0  0  0  0  0  0  0  0  0
    2.6630    4.6920    2.6030 C   0  0  0  0  0  0  0  0  0  0  0  0
    3.6780    4.8970    3.5890 O   0  0  0  0  0  0  0  0  0  0  0  0
    2.6240    3.2260    2.1580 C   0  0  2  0  0  0  0  0  0  0  0  0
    3.9120    2.9190    1.6020 O   0  0  0  0  0  0  0  0  0  0  0  0
    1.7730    1.8340   -1.6630 H   0  0  0  0  0  0  0  0  0  0  0  0
    0.6622    1.3255    0.0337 H   0  0  0  0  0  0  0  0  0  0  0  0
    2.2234    0.9955    0.8673 H   0  0  0  0  0  0  0  0  0  0  0  0
    0.5564    2.8832    1.7268 H   0  0  0  0  0  0  0  0  0  0  0  0
    1.0370    3.9650   -0.7400 H   0  0  0  0  0  0  0  0  0  0  0  0
    0.5770    4.8390    0.5660 H   0  0  0  0  0  0  0  0  0  0  0  0
    3.4734    4.4688   -0.1999 H   0  0  0  0  0  0  0  0  0  0  0  0
    1.2410    6.0242   -1.3343 H   0  0  0  0  0  0  0  0  0  0  0  0
    2.5769    7.0558   -0.7777 H   0  0  0  0  0  0  0  0  0  0  0  0
    3.2060    4.6230   -2.0940 H   0  0  0  0  0  0  0  0  0  0  0  0
    3.9667    5.9627    1.4123 H   0  0  0  0  0  0  0  0  0  0  0  0
    2.6170    7.6020    1.6410 H   0  0  0  0  0  0  0  0  0  0  0  0
    1.6688    4.9015    3.0244 H   0  0  0  0  0  0  0  0  0  0  0  0
    4.0600    5.7850    3.4420 H   0  0  0  0  0  0  0  0  0  0  0  0
    2.4195    2.5512    3.0023 H   0  0  0  0  0  0  0  0  0  0  0  0
    3.8890    3.2100    0.6640 H   0  0  0  0  0  0  0  0  0  0  0  0
  1  2  1  0
  2  3  1  0
  3  4  1  0
  4  5  1  0
  5  6  1  0
  6  7  1  0
  5  8  1  0
  8  9  1  0
  8 10  1  0
 10 11  1  0
 10 12  1  0
 12 13  1  0
 12  3  1  0
  1 14  1  0
  2 15  1  0
  2 16  1  0
  3 17  1  1
  4 18  1  0
  4 19  1  0
  5 20  1  6
  6 21  1  0
  6 22  1  0
  7 23  1  0
  8 24  1  6
  9 25  1  0
 10 26  1  0
 11 27  1  0
 12 28  1  1
 13 29  1  0
M  CHG  1   4   1
M  END
>  <meeko>  (7) 
{"is_sidechain": [false], "free_energy": -5.571, "intermolecular_energy": -7.158, "internal_energy": -0.145}

$$$$
2wvt_ligand
     RDKit          3D

 29 29  0  0  0  0  0  0  0  0999 V2000
    3.7700    6.3070   -3.6090 O   0  0  0  0  0  0  0  0  0  0  0  0
    3.8230    7.3960   -4.5200 C   0  0  0  0  0  0  0  0  0  0  0  0
    2.3960    7.8060   -4.9320 C   0  0  2  0  0  0  0  0  0  0  0  0
    2.4130    9.1920   -5.5280 N   0  0  0  0  0  0  0  0  0  0  0  0
    1.9560   10.2870   -4.5830 C   0  0  1  0  0  0  0  0  0  0  0  0
    2.2980   11.6220   -5.2610 C   0  0  0  0  0  0  0  0  0  0  0  0
    3.5190   11.4160   -5.9920 O   0  0  0  0  0  0  0  0  0  0  0  0
    0.4690   10.0630   -4.2680 C   0  0  1  0  0  0  0  0  0  0  0  0
   -0.3220   10.5280   -5.3720 O   0  0  0  0  0  0  0  0  0  0  0  0
    0.1390    8.5640   -4.0720 C   0  0  0  0  0  0  0  0  0  0  0  0
   -0.8350    8.4430   -3.0340 O   0  0  0  0  0  0  0  0  0  0  0  0
    1.3740    7.7110   -3.7620 C   0  0  2  0  0  0  0  0  0  0  0  0
    1.9200    8.1920   -2.5230 O   0  0  0  0  0  0  0  0  0  0  0  0
    3.2680    5.5830   -4.0310 H   0  0  0  0  0  0  0  0  0  0  0  0
    4.3231    8.2496   -4.0391 H   0  0  0  0  0  0  0  0  0  0  0  0
    4.3848    7.0917   -5.4154 H   0  0  0  0  0  0  0  0  0  0  0  0
    2.0546    7.0867   -5.6910 H   0  0  0  0  0  0  0  0  0  0  0  0
    3.3490    9.4920   -5.8560 H   0  0  0  0  0  0  0  0  0  0  0  0
    1.8130    9.2460   -6.3650 H   0  0  0  0  0  0  0  0  0  0  0  0
    2.4608   10.2852   -3.6057 H   0  0  0  0  0  0  0  0  0  0  0  0
    1.4905   11.9157   -5.9477 H   0  0  0  0  0  0  0  0  0  0  0  0
    2.4138   12.4241   -4.5172 H   0  0  0  0  0  0  0  0  0  0  0  0
    3.4060   11.8650   -6.8550 H   0  0  0  0  0  0  0  0  0  0  0  0
    0.2460   10.6096   -3.3398 H   0  0  0  0  0  0  0  0  0  0  0  0
    0.2900   11.0030   -5.9760 H   0  0  0  0  0  0  0  0  0  0  0  0
   -0.2600    8.1766   -5.0211 H   0  0  0  0  0  0  0  0  0  0  0  0
   -0.3620    8.4670   -2.1770 H   0  0  0  0  0  0  0  0  0  0  0  0
    1.1160    6.6466   -3.6595 H   0  0  0  0  0  0  0  0  0  0  0  0
    2.8430    7.8610   -2.4770 H   0  0  0  0  0  0  0  0  0  0  0  0
  1  2  1  0
  2  3  1  0
  3  4  1  0
  4  5  1  0
  5  6  1  0
  6  7  1  0
  5  8  1  0
  8  9  1  0
  8 10  1  0
 10 11  1  0
 10 12  1  0
 12 13  1  0
 12  3  1  0
  1 14  1  0
  2 15  1  0
  2 16  1  0
  3 17  1  6
  4 18  1  0
  4 19  1  0
  5 20  1  1
  6 21  1  0
  6 22  1  0
  7 23  1  0
  8 24  1  1
  9 25  1  0
 10 26  1  0
 11 27  1  0
 12 28  1  1
 13 29  1  0
M  CHG  1   4   1
M  END
>  <meeko>  (8) 
{"is_sidechain": [false], "free_energy": -5.552, "intermolecular_energy": -6.975, "internal_energy": -0.303}

$$$$
2wvt_ligand
     RDKit          3D

 29 29  0  0  0  0  0  0  0  0999 V2000
    3.4180    5.0470    3.8780 O   0  0  0  0  0  0  0  0  0  0  0  0
    3.1370    6.1390    3.0130 C   0  0  0  0  0  0  0  0  0  0  0  0
    3.5680    5.7940    1.5750 C   0  0  2  0  0  0  0  0  0  0  0  0
    3.2030    6.9250    0.6450 N   0  0  0  0  0  0  0  0  0  0  0  0
    1.9460    6.6860   -0.1690 C   0  0  1  0  0  0  0  0  0  0  0  0
    1.5920    8.0250   -0.8320 C   0  0  0  0  0  0  0  0  0  0  0  0
    0.4860    7.7720   -1.7150 O   0  0  0  0  0  0  0  0  0  0  0  0
    2.2080    5.5170   -1.1310 C   0  0  1  0  0  0  0  0  0  0  0  0
    2.9790    5.9890   -2.2470 O   0  0  0  0  0  0  0  0  0  0  0  0
    3.0260    4.3890   -0.4590 C   0  0  0  0  0  0  0  0  0  0  0  0
    2.5450    3.1300   -0.9370 O   0  0  0  0  0  0  0  0  0  0  0  0
    2.9820    4.4420    1.0720 C   0  0  2  0  0  0  0  0  0  0  0  0
    1.6110    4.2650    1.4630 O   0  0  0  0  0  0  0  0  0  0  0  0
    2.5940    4.8150    4.3490 H   0  0  0  0  0  0  0  0  0  0  0  0
    2.0573    6.3488    3.0296 H   0  0  0  0  0  0  0  0  0  0  0  0
    3.6935    7.0241    3.3551 H   0  0  0  0  0  0  0  0  0  0  0  0
    4.6605    5.6661    1.5820 H   0  0  0  0  0  0  0  0  0  0  0  0
    3.0430    7.8270    1.1300 H   0  0  0  0  0  0  0  0  0  0  0  0
    3.9640    7.1190   -0.0240 H   0  0  0  0  0  0  0  0  0  0  0  0
    1.0713    6.3802    0.4238 H   0  0  0  0  0  0  0  0  0  0  0  0
    1.3052    8.7620   -0.0674 H   0  0  0  0  0  0  0  0  0  0  0  0
    2.4523    8.4318   -1.3837 H   0  0  0  0  0  0  0  0  0  0  0  0
    0.8540    7.3220   -2.5030 H   0  0  0  0  0  0  0  0  0  0  0  0
    1.2290    5.1229   -1.4411 H   0  0  0  0  0  0  0  0  0  0  0  0
    3.8360    5.5110   -2.2190 H   0  0  0  0  0  0  0  0  0  0  0  0
    4.0828    4.5269   -0.7313 H   0  0  0  0  0  0  0  0  0  0  0  0
    1.6920    3.2900   -1.3890 H   0  0  0  0  0  0  0  0  0  0  0  0
    3.5956    3.6482    1.5231 H   0  0  0  0  0  0  0  0  0  0  0  0
    1.0780    4.8610    0.8910 H   0  0  0  0  0  0  0  0  0  0  0  0
  1  2  1  0
  2  3  1  0
  3  4  1  0
  4  5  1  0
  5  6  1  0
  6  7  1  0
  5  8  1  0
  8  9  1  0
  8 10  1  0
 10 11  1  0
 10 12  1  0
 12 13  1  0
 12  3  1  0
  1 14  1  0
  2 15  1  0
  2 16  1  0
  3 17  1  1
  4 18  1  0
  4 19  1  0
  5 20  1  1
  6 21  1  0
  6 22  1  0
  7 23  1  0
  8 24  1  6
  9 25  1  0
 10 26  1  0
 11 27  1  0
 12 28  1  1
 13 29  1  0
M  CHG  1   4   1
M  END
>  <meeko>  (9) 
{"is_sidechain": [false], "free_energy": -5.352, "intermolecular_energy": -6.583, "internal_energy": -0.443}

$$$$
