
     RDKit          3D

 40 44  0  0  0  0  0  0  0  0999 V2000
   -1.5660  -20.8040    0.3880 C   0  0  0  0  0  0  0  0  0  0  0  0
   -0.6530  -19.7870    0.7240 O   0  0  0  0  0  0  0  0  0  0  0  0
    0.6670  -19.9280    0.3220 C   0  0  0  0  0  0  0  0  0  0  0  0
    1.3920  -18.7740    0.0380 C   0  0  0  0  0  0  0  0  0  0  0  0
    2.7250  -18.8530   -0.3610 C   0  0  0  0  0  0  0  0  0  0  0  0
    3.3270  -20.1030   -0.4770 C   0  0  0  0  0  0  0  0  0  0  0  0
    4.6230  -20.5630   -0.8310 C   0  0  0  0  0  0  0  0  0  0  0  0
    5.7980  -19.7940   -1.1880 C   0  0  0  0  0  0  0  0  0  0  0  0
    5.8850  -18.6980   -2.0570 C   0  0  0  0  0  0  0  0  0  0  0  0
    4.8110  -18.1000   -2.9140 C   0  0  0  0  0  0  0  0  0  0  0  0
    7.1670  -18.2260   -2.0540 N   0  0  0  0  0  0  0  0  0  0  0  0
    7.6610  -17.0110   -2.7490 C   0  0  0  0  0  0  0  0  0  0  0  0
    8.3640  -17.2160   -4.0910 C   0  0  0  0  0  0  0  0  0  0  0  0
    7.6510  -17.6510   -5.2030 C   0  0  0  0  0  0  0  0  0  0  0  0
    8.2730  -17.8060   -6.4550 C   0  0  0  0  0  0  0  0  0  0  0  0
    7.5490  -18.3220   -7.5140 O   0  0  0  0  0  0  0  0  0  0  0  0
    6.8610  -17.6410   -8.5470 C   0  0  2  0  0  0  0  0  0  0  0  0
    7.7700  -17.1800   -9.6820 C   0  0  0  0  0  0  0  0  0  0  0  0
    5.9830  -16.5090   -8.0540 C   0  0  0  0  0  0  0  0  0  0  0  0
    6.4000  -15.3680   -8.0650 O   0  0  0  0  0  0  0  0  0  0  0  0
    4.8360  -16.7870   -7.7070 O   0  0  0  0  0  0  0  0  0  0  0  0
    9.5890  -17.5110   -6.6170 C   0  0  0  0  0  0  0  0  0  0  0  0
   10.3370  -17.0520   -5.5300 C   0  0  0  0  0  0  0  0  0  0  0  0
    9.7360  -16.8970   -4.2890 C   0  0  0  0  0  0  0  0  0  0  0  0
   10.7090  -16.2800   -2.9800 Cl  0  0  0  0  0  0  0  0  0  0  0  0
    7.8950  -19.0380   -1.2150 C   0  0  0  0  0  0  0  0  0  0  0  0
    9.2430  -19.0020   -0.9080 C   0  0  0  0  0  0  0  0  0  0  0  0
    9.7360  -19.9880   -0.0420 C   0  0  0  0  0  0  0  0  0  0  0  0
   11.0280  -19.9630    0.2580 O   0  0  0  0  0  0  0  0  0  0  0  0
   11.9030  -20.9430   -0.2470 C   0  0  1  0  0  0  0  0  0  0  0  0
   12.6050  -20.4250   -1.2550 F   0  0  0  0  0  0  0  0  0  0  0  0
   12.7240  -21.3000    0.7260 F   0  0  0  0  0  0  0  0  0  0  0  0
   11.3040  -22.0390   -0.6790 F   0  0  0  0  0  0  0  0  0  0  0  0
    8.9140  -20.9420    0.5200 C   0  0  0  0  0  0  0  0  0  0  0  0
    7.5760  -20.9700    0.2310 C   0  0  0  0  0  0  0  0  0  0  0  0
    7.0730  -20.0170   -0.6670 C   0  0  0  0  0  0  0  0  0  0  0  0
    4.6300  -21.9160   -0.7110 N   0  0  0  0  0  0  0  0  0  0  0  0
    3.3550  -22.3240   -0.3300 O   0  0  0  0  0  0  0  0  0  0  0  0
    2.5860  -21.2240   -0.1700 C   0  0  0  0  0  0  0  0  0  0  0  0
    1.2590  -21.1810    0.2290 C   0  0  0  0  0  0  0  0  0  0  0  0
  2  1  1  0
  3  2  1  0
  4  3  2  0
  5  4  1  0
  6  5  2  0
  7  6  1  0
  8  7  1  0
  9  8  2  0
 10  9  1  0
 11  9  1  0
 12 11  1  0
 13 12  1  0
 14 13  2  0
 15 14  1  0
 16 15  1  0
 17 16  1  0
 17 18  1  6
 19 17  1  0
 20 19  2  0
 21 19  1  0
 22 15  2  0
 23 22  1  0
 24 23  2  0
 24 13  1  0
 25 24  1  0
 26 11  1  0
 27 26  2  0
 28 27  1  0
 29 28  1  0
 30 29  1  0
 30 31  1  6
 32 30  1  0
 33 30  1  0
 34 28  2  0
 35 34  1  0
 36 35  2  0
 36 26  1  0
 36  8  1  0
 37  7  2  0
 38 37  1  0
 39 38  1  0
 39  6  1  0
 40 39  2  0
 40  3  1  0
M  CHG  1  21  -1
M  END
$$$$
