
     RDKit          3D

 18 17  0  0  0  0  0  0  0  0999 V2000
   13.7550  -16.8640   10.5900 C   0  0  0  0  0  0  0  0  0  0  0  0
   12.4550  -16.8670    9.8560 C   0  0  0  0  0  0  0  0  0  0  0  0
   11.3590  -16.1560   10.5650 C   0  0  0  0  0  0  0  0  0  0  0  0
   10.0860  -16.6630   10.0340 C   0  0  0  0  0  0  0  0  0  0  0  0
    8.8730  -16.0910   10.6540 C   0  0  0  0  0  0  0  0  0  0  0  0
    7.7330  -16.8130   10.0510 C   0  0  0  0  0  0  0  0  0  0  0  0
    6.4160  -16.3100   10.4600 C   0  0  0  0  0  0  0  0  0  0  0  0
    5.3940  -17.2630    9.9550 C   0  0  0  0  0  0  0  0  0  0  0  0
    4.0490  -16.6930    9.9350 C   0  0  0  0  0  0  0  0  0  0  0  0
    3.0510  -17.7630    9.6260 C   0  0  0  0  0  0  0  0  0  0  0  0
    1.7350  -17.1740    9.2990 C   0  0  0  0  0  0  0  0  0  0  0  0
    0.6430  -18.1460    9.5340 C   0  0  0  0  0  0  0  0  0  0  0  0
   -0.6210  -17.4370    9.8520 C   0  0  0  0  0  0  0  0  0  0  0  0
   -1.6890  -18.3770   10.2350 C   0  0  0  0  0  0  0  0  0  0  0  0
   -1.8300  -18.4370   11.7110 C   0  0  0  0  0  0  0  0  0  0  0  0
   -3.0780  -19.1940   12.0570 C   0  0  0  0  0  0  0  0  0  0  0  0
   -4.1230  -18.5900   12.1000 O   0  0  0  0  0  0  0  0  0  0  0  0
   -2.9510  -20.3890   12.2580 O   0  0  0  0  0  0  0  0  0  0  0  0
  2  1  1  0
  3  2  1  0
  4  3  1  0
  5  4  1  0
  6  5  1  0
  7  6  1  0
  8  7  1  0
  9  8  1  0
 10  9  1  0
 11 10  1  0
 12 11  1  0
 13 12  1  0
 14 13  1  0
 15 14  1  0
 16 15  1  0
 17 16  2  0
 18 16  1  0
M  CHG  1  18  -1
M  END
$$$$
