5a7b_ligand
     RDKit          3D

 65 67  0  0  0  0  0  0  0  0999 V2000
   -8.4440   -1.9910   14.0470 C   0  0  0  0  0  0  0  0  0  0  0  0
   -7.5940   -2.8400   14.0300 C   0  0  0  0  0  0  0  0  0  0  0  0
   -6.5700   -3.8410   14.0130 C   0  0  0  0  0  0  0  0  0  0  0  0
   -5.3980   -3.6160   14.7410 C   0  0  0  0  0  0  0  0  0  0  0  0
   -4.3880   -4.5780   14.7540 C   0  0  0  0  0  0  0  0  0  0  0  0
   -3.1920   -4.3640   15.5050 C   0  0  0  0  0  0  0  0  0  0  0  0
   -2.1790   -4.2380   16.1370 C   0  0  0  0  0  0  0  0  0  0  0  0
   -0.9680   -4.0370   16.9440 C   0  0  0  0  0  0  0  0  0  0  0  0
   -1.1410   -2.9330   17.8350 O   0  0  0  0  0  0  0  0  0  0  0  0
   -0.7570   -1.6890   17.4160 C   0  0  0  0  0  0  0  0  0  0  0  0
   -1.3650   -0.9300   16.4150 C   0  0  0  0  0  0  0  0  0  0  0  0
   -0.8620    0.3340   16.0870 C   0  0  0  0  0  0  0  0  0  0  0  0
    0.2450    0.8460   16.7620 C   0  0  0  0  0  0  0  0  0  0  0  0
    0.8500    0.0970   17.7690 C   0  0  0  0  0  0  0  0  0  0  0  0
    0.3470   -1.1640   18.0940 C   0  0  0  0  0  0  0  0  0  0  0  0
   -4.5410   -5.7700   14.0380 C   0  0  0  0  0  0  0  0  0  0  0  0
   -5.7130   -6.0210   13.3090 C   0  0  0  0  0  0  0  0  0  0  0  0
   -5.8470   -7.2950   12.5200 C   0  0  0  0  0  0  0  0  0  0  0  0
   -4.5350   -8.0730   12.3980 N   0  0  2  0  0  0  0  0  0  0  0  0
   -3.8630   -7.8430   11.0790 C   0  0  0  0  0  0  0  0  0  0  0  0
   -2.5080   -8.5450   11.0590 C   0  0  0  0  0  0  0  0  0  0  0  0
   -2.6290  -10.0470   11.3700 C   0  0  1  0  0  0  0  0  0  0  0  0
   -1.2150  -10.7030   11.4230 N   0  0  0  0  0  0  0  0  0  0  0  0
   -0.8380  -11.5340   10.1860 C   0  0  0  0  0  0  0  0  0  0  0  0
   -2.0070  -12.3270    9.6360 C   0  0  0  0  0  0  0  0  0  0  0  0
   -0.1070   -9.7020   11.8030 C   0  0  0  0  0  0  0  0  0  0  0  0
    0.1690   -9.6860   13.2960 C   0  0  0  0  0  0  0  0  0  0  0  0
   -3.3700  -10.2300   12.7040 C   0  0  0  0  0  0  0  0  0  0  0  0
   -4.7210   -9.5200   12.7170 C   0  0  0  0  0  0  0  0  0  0  0  0
   -6.7180   -5.0410   13.3010 C   0  0  0  0  0  0  0  0  0  0  0  0
   -7.8610   -5.3270   12.5860 O   0  0  0  0  0  0  0  0  0  0  0  0
   -9.2222   -1.2137   14.0626 H   0  0  0  0  0  0  0  0  0  0  0  0
   -5.2721   -2.6795   15.3041 H   0  0  0  0  0  0  0  0  0  0  0  0
   -0.7669   -4.9467   17.5288 H   0  0  0  0  0  0  0  0  0  0  0  0
   -0.1228   -3.8249   16.2727 H   0  0  0  0  0  0  0  0  0  0  0  0
   -2.2420   -1.3264   15.8824 H   0  0  0  0  0  0  0  0  0  0  0  0
   -1.3419    0.9258   15.2936 H   0  0  0  0  0  0  0  0  0  0  0  0
    0.6398    1.8388   16.5003 H   0  0  0  0  0  0  0  0  0  0  0  0
    1.7218    0.4982   18.3066 H   0  0  0  0  0  0  0  0  0  0  0  0
    0.8246   -1.7510   18.8924 H   0  0  0  0  0  0  0  0  0  0  0  0
   -3.7344   -6.5179   14.0467 H   0  0  0  0  0  0  0  0  0  0  0  0
   -6.5886   -7.9372   13.0175 H   0  0  0  0  0  0  0  0  0  0  0  0
   -6.1561   -7.0163   11.5018 H   0  0  0  0  0  0  0  0  0  0  0  0
   -3.9710   -7.6260   13.1490 H   0  0  0  0  0  0  0  0  0  0  0  0
   -4.4942   -8.2448   10.2727 H   0  0  0  0  0  0  0  0  0  0  0  0
   -3.7145   -6.7632   10.9308 H   0  0  0  0  0  0  0  0  0  0  0  0
   -2.0609   -8.4244   10.0612 H   0  0  0  0  0  0  0  0  0  0  0  0
   -1.8785   -8.0880   11.8367 H   0  0  0  0  0  0  0  0  0  0  0  0
   -3.2018  -10.5440   10.5732 H   0  0  0  0  0  0  0  0  0  0  0  0
   -1.2220  -11.3890   12.1930 H   0  0  0  0  0  0  0  0  0  0  0  0
   -0.4745  -10.8533    9.4021 H   0  0  0  0  0  0  0  0  0  0  0  0
   -0.0633  -12.2526   10.4917 H   0  0  0  0  0  0  0  0  0  0  0  0
   -2.6012  -12.7300   10.4694 H   0  0  0  0  0  0  0  0  0  0  0  0
   -2.6383  -11.6699    9.0198 H   0  0  0  0  0  0  0  0  0  0  0  0
   -1.6299  -13.1565    9.0198 H   0  0  0  0  0  0  0  0  0  0  0  0
    0.8172   -9.9805   11.2755 H   0  0  0  0  0  0  0  0  0  0  0  0
   -0.4481   -8.6971   11.5134 H   0  0  0  0  0  0  0  0  0  0  0  0
   -0.7824   -9.7412   13.8454 H   0  0  0  0  0  0  0  0  0  0  0  0
    0.7967  -10.5493   13.5621 H   0  0  0  0  0  0  0  0  0  0  0  0
    0.6927   -8.7560   13.5621 H   0  0  0  0  0  0  0  0  0  0  0  0
   -3.5332  -11.3045   12.8737 H   0  0  0  0  0  0  0  0  0  0  0  0
   -2.7495   -9.7882   13.4976 H   0  0  0  0  0  0  0  0  0  0  0  0
   -5.3813   -9.9777   11.9656 H   0  0  0  0  0  0  0  0  0  0  0  0
   -5.1726   -9.6167   13.7154 H   0  0  0  0  0  0  0  0  0  0  0  0
   -8.2060   -4.4680   12.2530 H   0  0  0  0  0  0  0  0  0  0  0  0
  1  2  3  0
  2  3  1  0
  3  4  2  0
  4  5  1  0
  5  6  1  0
  6  7  3  0
  7  8  1  0
  8  9  1  0
  9 10  1  0
 10 11  2  0
 11 12  1  0
 12 13  2  0
 13 14  1  0
 14 15  2  0
  5 16  2  0
 16 17  1  0
 17 18  1  0
 18 19  1  0
 19 20  1  0
 20 21  1  0
 21 22  1  0
 22 23  1  0
 23 24  1  0
 24 25  1  0
 23 26  1  0
 26 27  1  0
 22 28  1  0
 28 29  1  0
 17 30  2  0
 30 31  1  0
 30  3  1  0
 15 10  1  0
 29 19  1  0
  1 32  1  0
  4 33  1  0
  8 34  1  0
  8 35  1  0
 11 36  1  0
 12 37  1  0
 13 38  1  0
 14 39  1  0
 15 40  1  0
 16 41  1  0
 18 42  1  0
 18 43  1  0
 19 44  1  6
 20 45  1  0
 20 46  1  0
 21 47  1  0
 21 48  1  0
 22 49  1  1
 23 50  1  0
 24 51  1  0
 24 52  1  0
 25 53  1  0
 25 54  1  0
 25 55  1  0
 26 56  1  0
 26 57  1  0
 27 58  1  0
 27 59  1  0
 27 60  1  0
 28 61  1  0
 28 62  1  0
 29 63  1  0
 29 64  1  0
 31 65  1  0
M  CHG  2  19   1  23   1
M  END
>  <meeko>  (1) 
{"is_sidechain": [false], "free_energy": -6.634, "intermolecular_energy": -9.931, "internal_energy": -1.086}

$$$$
5a7b_ligand
     RDKit          3D

 65 67  0  0  0  0  0  0  0  0999 V2000
   -9.5660   -6.4400   13.8740 C   0  0  0  0  0  0  0  0  0  0  0  0
   -8.4400   -6.7140   13.5600 C   0  0  0  0  0  0  0  0  0  0  0  0
   -7.0990   -7.0560   13.1880 C   0  0  0  0  0  0  0  0  0  0  0  0
   -6.8270   -8.3660   12.7840 C   0  0  0  0  0  0  0  0  0  0  0  0
   -5.5340   -8.7260   12.4050 C   0  0  0  0  0  0  0  0  0  0  0  0
   -5.2480  -10.0580   11.9780 C   0  0  0  0  0  0  0  0  0  0  0  0
   -4.9630  -11.1590   11.5930 C   0  0  0  0  0  0  0  0  0  0  0  0
   -4.5640  -12.5060   11.1620 C   0  0  0  0  0  0  0  0  0  0  0  0
   -3.3320  -12.8820   11.7810 O   0  0  0  0  0  0  0  0  0  0  0  0
   -2.2300  -12.1000   11.5710 C   0  0  0  0  0  0  0  0  0  0  0  0
   -1.6080  -11.8600   10.3450 C   0  0  0  0  0  0  0  0  0  0  0  0
   -0.4810  -11.0340   10.2770 C   0  0  0  0  0  0  0  0  0  0  0  0
    0.0240  -10.4390   11.4320 C   0  0  0  0  0  0  0  0  0  0  0  0
   -0.5980  -10.6660   12.6570 C   0  0  0  0  0  0  0  0  0  0  0  0
   -1.7230  -11.4910   12.7230 C   0  0  0  0  0  0  0  0  0  0  0  0
   -4.5030   -7.7800   12.4280 C   0  0  0  0  0  0  0  0  0  0  0  0
   -4.7560   -6.4570   12.8210 C   0  0  0  0  0  0  0  0  0  0  0  0
   -3.6300   -5.4610   12.8700 C   0  0  0  0  0  0  0  0  0  0  0  0
   -3.3480   -4.9350   14.2790 N   0  0  2  0  0  0  0  0  0  0  0  0
   -3.5100   -3.4480   14.3690 C   0  0  0  0  0  0  0  0  0  0  0  0
   -3.3340   -2.9950   15.8150 C   0  0  0  0  0  0  0  0  0  0  0  0
   -1.9860   -3.4460   16.4050 C   0  0  1  0  0  0  0  0  0  0  0  0
   -1.8890   -3.0360   17.9070 N   0  0  0  0  0  0  0  0  0  0  0  0
   -0.7150   -2.1040   18.2500 C   0  0  0  0  0  0  0  0  0  0  0  0
    0.2930   -1.9950   17.1230 C   0  0  0  0  0  0  0  0  0  0  0  0
   -3.2240   -2.5110   18.4700 C   0  0  0  0  0  0  0  0  0  0  0  0
   -3.0900   -1.1260   19.0760 C   0  0  0  0  0  0  0  0  0  0  0  0
   -1.8480   -4.9690   16.2410 C   0  0  0  0  0  0  0  0  0  0  0  0
   -2.0300   -5.4130   14.7930 C   0  0  0  0  0  0  0  0  0  0  0  0
   -6.0620   -6.1110   13.2060 C   0  0  0  0  0  0  0  0  0  0  0  0
   -6.2770   -4.8000   13.5720 O   0  0  0  0  0  0  0  0  0  0  0  0
  -10.5976   -6.1890   14.1617 H   0  0  0  0  0  0  0  0  0  0  0  0
   -7.6335   -9.1138   12.7649 H   0  0  0  0  0  0  0  0  0  0  0  0
   -5.3468  -13.2245   11.4466 H   0  0  0  0  0  0  0  0  0  0  0  0
   -4.4298  -12.5064   10.0702 H   0  0  0  0  0  0  0  0  0  0  0  0
   -2.0052  -12.3218    9.4291 H   0  0  0  0  0  0  0  0  0  0  0  0
    0.0084  -10.8534    9.3086 H   0  0  0  0  0  0  0  0  0  0  0  0
    0.9117   -9.7918   11.3759 H   0  0  0  0  0  0  0  0  0  0  0  0
   -0.2042  -10.1966   13.5706 H   0  0  0  0  0  0  0  0  0  0  0  0
   -2.2154  -11.6635   13.6914 H   0  0  0  0  0  0  0  0  0  0  0  0
   -3.4849   -8.0763   12.1353 H   0  0  0  0  0  0  0  0  0  0  0  0
   -2.7187   -5.9453   12.4892 H   0  0  0  0  0  0  0  0  0  0  0  0
   -3.9298   -4.5999   12.2547 H   0  0  0  0  0  0  0  0  0  0  0  0
   -4.1120   -5.3920   14.8160 H   0  0  0  0  0  0  0  0  0  0  0  0
   -2.7524   -2.9594   13.7386 H   0  0  0  0  0  0  0  0  0  0  0  0
   -4.5163   -3.1709   14.0218 H   0  0  0  0  0  0  0  0  0  0  0  0
   -3.3870   -1.8969   15.8512 H   0  0  0  0  0  0  0  0  0  0  0  0
   -4.1351   -3.4542   16.4128 H   0  0  0  0  0  0  0  0  0  0  0  0
   -1.1630   -2.9522   15.8675 H   0  0  0  0  0  0  0  0  0  0  0  0
   -1.6960   -3.8920   18.4480 H   0  0  0  0  0  0  0  0  0  0  0  0
   -1.1127   -1.1012   18.4648 H   0  0  0  0  0  0  0  0  0  0  0  0
   -0.1954   -2.5302   19.1209 H   0  0  0  0  0  0  0  0  0  0  0  0
    1.3033   -1.8857   17.5440 H   0  0  0  0  0  0  0  0  0  0  0  0
    0.2501   -2.9030   16.5036 H   0  0  0  0  0  0  0  0  0  0  0  0
    0.0570   -1.1171   16.5036 H   0  0  0  0  0  0  0  0  0  0  0  0
   -3.9602   -2.4700   17.6537 H   0  0  0  0  0  0  0  0  0  0  0  0
   -3.5453   -3.1971   19.2675 H   0  0  0  0  0  0  0  0  0  0  0  0
   -3.0975   -1.2036   20.1732 H   0  0  0  0  0  0  0  0  0  0  0  0
   -2.1437   -0.6718   18.7470 H   0  0  0  0  0  0  0  0  0  0  0  0
   -3.9317   -0.4988   18.7470 H   0  0  0  0  0  0  0  0  0  0  0  0
   -0.8468   -5.2724   16.5811 H   0  0  0  0  0  0  0  0  0  0  0  0
   -2.6370   -5.4455   16.8413 H   0  0  0  0  0  0  0  0  0  0  0  0
   -1.2227   -4.9899   14.1771 H   0  0  0  0  0  0  0  0  0  0  0  0
   -1.9976   -6.5114   14.7432 H   0  0  0  0  0  0  0  0  0  0  0  0
   -7.2220   -4.6070   13.3830 H   0  0  0  0  0  0  0  0  0  0  0  0
  1  2  3  0
  2  3  1  0
  3  4  2  0
  4  5  1  0
  5  6  1  0
  6  7  3  0
  7  8  1  0
  8  9  1  0
  9 10  1  0
 10 11  2  0
 11 12  1  0
 12 13  2  0
 13 14  1  0
 14 15  2  0
  5 16  2  0
 16 17  1  0
 17 18  1  0
 18 19  1  0
 19 20  1  0
 20 21  1  0
 21 22  1  0
 22 23  1  0
 23 24  1  0
 24 25  1  0
 23 26  1  0
 26 27  1  0
 22 28  1  0
 28 29  1  0
 17 30  2  0
 30 31  1  0
 30  3  1  0
 15 10  1  0
 29 19  1  0
  1 32  1  0
  4 33  1  0
  8 34  1  0
  8 35  1  0
 11 36  1  0
 12 37  1  0
 13 38  1  0
 14 39  1  0
 15 40  1  0
 16 41  1  0
 18 42  1  0
 18 43  1  0
 19 44  1  6
 20 45  1  0
 20 46  1  0
 21 47  1  0
 21 48  1  0
 22 49  1  1
 23 50  1  0
 24 51  1  0
 24 52  1  0
 25 53  1  0
 25 54  1  0
 25 55  1  0
 26 56  1  0
 26 57  1  0
 27 58  1  0
 27 59  1  0
 27 60  1  0
 28 61  1  0
 28 62  1  0
 29 63  1  0
 29 64  1  0
 31 65  1  0
M  CHG  2  19   1  23   1
M  END
>  <meeko>  (2) 
{"is_sidechain": [false], "free_energy": -6.362, "intermolecular_energy": -9.182, "internal_energy": -1.428}

$$$$
5a7b_ligand
     RDKit          3D

 65 67  0  0  0  0  0  0  0  0999 V2000
   -8.4270   -6.6850   13.4000 C   0  0  0  0  0  0  0  0  0  0  0  0
   -7.3820   -6.1160   13.5550 C   0  0  0  0  0  0  0  0  0  0  0  0
   -6.1410   -5.4240   13.7440 C   0  0  0  0  0  0  0  0  0  0  0  0
   -6.0880   -4.3820   14.6740 C   0  0  0  0  0  0  0  0  0  0  0  0
   -4.8910   -3.6980   14.8880 C   0  0  0  0  0  0  0  0  0  0  0  0
   -4.8230   -2.6410   15.8470 C   0  0  0  0  0  0  0  0  0  0  0  0
   -4.7110   -1.7590   16.6540 C   0  0  0  0  0  0  0  0  0  0  0  0
   -4.5200   -0.7100   17.6650 C   0  0  0  0  0  0  0  0  0  0  0  0
   -3.4180   -1.0330   18.5170 O   0  0  0  0  0  0  0  0  0  0  0  0
   -2.1870   -1.2170   17.9500 C   0  0  0  0  0  0  0  0  0  0  0  0
   -1.4280   -2.3870   17.9840 C   0  0  0  0  0  0  0  0  0  0  0  0
   -0.1770   -2.4320   17.3580 C   0  0  0  0  0  0  0  0  0  0  0  0
    0.3160   -1.3120   16.6920 C   0  0  0  0  0  0  0  0  0  0  0  0
   -0.4420   -0.1440   16.6460 C   0  0  0  0  0  0  0  0  0  0  0  0
   -1.6900   -0.1010   17.2710 C   0  0  0  0  0  0  0  0  0  0  0  0
   -3.7410   -4.0490   14.1750 C   0  0  0  0  0  0  0  0  0  0  0  0
   -3.7690   -5.0980   13.2440 C   0  0  0  0  0  0  0  0  0  0  0  0
   -2.5310   -5.4410   12.4620 C   0  0  0  0  0  0  0  0  0  0  0  0
   -2.2900   -6.9470   12.3400 N   0  0  2  0  0  0  0  0  0  0  0  0
   -1.3360   -7.4530   13.3790 C   0  0  0  0  0  0  0  0  0  0  0  0
   -1.2250   -8.9710   13.2850 C   0  0  0  0  0  0  0  0  0  0  0  0
   -0.8150   -9.4370   11.8770 C   0  0  1  0  0  0  0  0  0  0  0  0
   -0.7990  -10.9950   11.8070 N   0  0  0  0  0  0  0  0  0  0  0  0
   -1.4260  -11.7070   13.0160 C   0  0  0  0  0  0  0  0  0  0  0  0
   -2.7010  -12.4470   12.6610 C   0  0  0  0  0  0  0  0  0  0  0  0
   -1.3460  -11.5380   10.4720 C   0  0  0  0  0  0  0  0  0  0  0  0
   -0.2480  -11.7800    9.4530 C   0  0  0  0  0  0  0  0  0  0  0  0
   -1.7920   -8.8500   10.8460 C   0  0  0  0  0  0  0  0  0  0  0  0
   -1.9010   -7.3310   10.9500 C   0  0  0  0  0  0  0  0  0  0  0  0
   -4.9830   -5.7730   13.0340 C   0  0  0  0  0  0  0  0  0  0  0  0
   -4.9710   -6.8060   12.1220 O   0  0  0  0  0  0  0  0  0  0  0  0
   -9.3850   -7.2066   13.2579 H   0  0  0  0  0  0  0  0  0  0  0  0
   -6.9901   -4.1012   15.2373 H   0  0  0  0  0  0  0  0  0  0  0  0
   -4.3199    0.2470   17.1609 H   0  0  0  0  0  0  0  0  0  0  0  0
   -5.4319   -0.6326   18.2753 H   0  0  0  0  0  0  0  0  0  0  0  0
   -1.8136   -3.2763   18.5040 H   0  0  0  0  0  0  0  0  0  0  0  0
    0.4195   -3.3556   17.3920 H   0  0  0  0  0  0  0  0  0  0  0  0
    1.3010   -1.3498   16.2038 H   0  0  0  0  0  0  0  0  0  0  0  0
   -0.0584    0.7420   16.1188 H   0  0  0  0  0  0  0  0  0  0  0  0
   -2.2883    0.8211   17.2285 H   0  0  0  0  0  0  0  0  0  0  0  0
   -2.8048   -3.4972   14.3456 H   0  0  0  0  0  0  0  0  0  0  0  0
   -2.6292   -5.0201   11.4505 H   0  0  0  0  0  0  0  0  0  0  0  0
   -1.6741   -5.0170   13.0061 H   0  0  0  0  0  0  0  0  0  0  0  0
   -3.2400   -7.3150   12.5440 H   0  0  0  0  0  0  0  0  0  0  0  0
   -0.3455   -7.0038   13.2146 H   0  0  0  0  0  0  0  0  0  0  0  0
   -1.7075   -7.1778   14.3771 H   0  0  0  0  0  0  0  0  0  0  0  0
   -0.4700   -9.3165   14.0065 H   0  0  0  0  0  0  0  0  0  0  0  0
   -2.2147   -9.3967   13.5071 H   0  0  0  0  0  0  0  0  0  0  0  0
    0.2002   -9.0794   11.6501 H   0  0  0  0  0  0  0  0  0  0  0  0
    0.1880  -11.2940   11.8240 H   0  0  0  0  0  0  0  0  0  0  0  0
   -0.6990  -12.4295   13.4152 H   0  0  0  0  0  0  0  0  0  0  0  0
   -1.6835  -10.9376   13.7587 H   0  0  0  0  0  0  0  0  0  0  0  0
   -3.2193  -12.7478   13.5834 H   0  0  0  0  0  0  0  0  0  0  0  0
   -3.3552  -11.7882   12.0710 H   0  0  0  0  0  0  0  0  0  0  0  0
   -2.4535  -13.3418   12.0710 H   0  0  0  0  0  0  0  0  0  0  0  0
   -1.8659  -12.4882   10.6636 H   0  0  0  0  0  0  0  0  0  0  0  0
   -2.0285  -10.7819   10.0567 H   0  0  0  0  0  0  0  0  0  0  0  0
    0.6974  -11.9884    9.9752 H   0  0  0  0  0  0  0  0  0  0  0  0
   -0.5161  -12.6406    8.8225 H   0  0  0  0  0  0  0  0  0  0  0  0
   -0.1294  -10.8864    8.8225 H   0  0  0  0  0  0  0  0  0  0  0  0
   -1.4404   -9.1111    9.8369 H   0  0  0  0  0  0  0  0  0  0  0  0
   -2.7873   -9.2732   11.0468 H   0  0  0  0  0  0  0  0  0  0  0  0
   -0.9297   -6.8772   10.7038 H   0  0  0  0  0  0  0  0  0  0  0  0
   -2.6661   -6.9721   10.2459 H   0  0  0  0  0  0  0  0  0  0  0  0
   -5.6710   -7.4370   12.4040 H   0  0  0  0  0  0  0  0  0  0  0  0
  1  2  3  0
  2  3  1  0
  3  4  2  0
  4  5  1  0
  5  6  1  0
  6  7  3  0
  7  8  1  0
  8  9  1  0
  9 10  1  0
 10 11  2  0
 11 12  1  0
 12 13  2  0
 13 14  1  0
 14 15  2  0
  5 16  2  0
 16 17  1  0
 17 18  1  0
 18 19  1  0
 19 20  1  0
 20 21  1  0
 21 22  1  0
 22 23  1  0
 23 24  1  0
 24 25  1  0
 23 26  1  0
 26 27  1  0
 22 28  1  0
 28 29  1  0
 17 30  2  0
 30 31  1  0
 30  3  1  0
 15 10  1  0
 29 19  1  0
  1 32  1  0
  4 33  1  0
  8 34  1  0
  8 35  1  0
 11 36  1  0
 12 37  1  0
 13 38  1  0
 14 39  1  0
 15 40  1  0
 16 41  1  0
 18 42  1  0
 18 43  1  0
 19 44  1  6
 20 45  1  0
 20 46  1  0
 21 47  1  0
 21 48  1  0
 22 49  1  1
 23 50  1  0
 24 51  1  0
 24 52  1  0
 25 53  1  0
 25 54  1  0
 25 55  1  0
 26 56  1  0
 26 57  1  0
 27 58  1  0
 27 59  1  0
 27 60  1  0
 28 61  1  0
 28 62  1  0
 29 63  1  0
 29 64  1  0
 31 65  1  0
M  CHG  2  19   1  23   1
M  END
>  <meeko>  (3) 
{"is_sidechain": [false], "free_energy": -6.351, "intermolecular_energy": -9.244, "internal_energy": -1.35}

$$$$
5a7b_ligand
     RDKit          3D

 65 67  0  0  0  0  0  0  0  0999 V2000
   -7.2940   -5.2130   12.8740 C   0  0  0  0  0  0  0  0  0  0  0  0
   -6.1270   -5.4370   13.0390 C   0  0  0  0  0  0  0  0  0  0  0  0
   -4.7310   -5.6900   13.2430 C   0  0  0  0  0  0  0  0  0  0  0  0
   -4.0620   -4.9950   14.2540 C   0  0  0  0  0  0  0  0  0  0  0  0
   -2.7060   -5.2280   14.4830 C   0  0  0  0  0  0  0  0  0  0  0  0
   -2.0160   -4.5320   15.5220 C   0  0  0  0  0  0  0  0  0  0  0  0
   -1.3980   -3.9870   16.3960 C   0  0  0  0  0  0  0  0  0  0  0  0
   -0.6180   -3.2780   17.4200 C   0  0  0  0  0  0  0  0  0  0  0  0
    0.2060   -2.2800   16.8150 O   0  0  0  0  0  0  0  0  0  0  0  0
    0.0100   -0.9720   17.1640 C   0  0  0  0  0  0  0  0  0  0  0  0
    0.9280   -0.1410   17.8070 C   0  0  0  0  0  0  0  0  0  0  0  0
    0.5890    1.1840   18.1040 C   0  0  0  0  0  0  0  0  0  0  0  0
   -0.6640    1.6840   17.7540 C   0  0  0  0  0  0  0  0  0  0  0  0
   -1.5800    0.8620   17.1020 C   0  0  0  0  0  0  0  0  0  0  0  0
   -1.2410   -0.4590   16.8070 C   0  0  0  0  0  0  0  0  0  0  0  0
   -2.0090   -6.1580   13.7040 C   0  0  0  0  0  0  0  0  0  0  0  0
   -2.6630   -6.8750   12.6910 C   0  0  0  0  0  0  0  0  0  0  0  0
   -1.8910   -7.8480   11.8420 C   0  0  0  0  0  0  0  0  0  0  0  0
   -2.3530   -9.2970   12.0110 N   0  0  2  0  0  0  0  0  0  0  0  0
   -2.3520   -9.7270   13.4460 C   0  0  0  0  0  0  0  0  0  0  0  0
   -2.9300  -11.1330   13.5660 C   0  0  0  0  0  0  0  0  0  0  0  0
   -2.1830  -12.1450   12.6800 C   0  0  1  0  0  0  0  0  0  0  0  0
   -2.8610  -13.5470   12.7690 N   0  0  0  0  0  0  0  0  0  0  0  0
   -2.9870  -14.1180   14.1910 C   0  0  0  0  0  0  0  0  0  0  0  0
   -1.9940  -15.2310   14.4630 C   0  0  0  0  0  0  0  0  0  0  0  0
   -4.1960  -13.6130   12.0030 C   0  0  0  0  0  0  0  0  0  0  0  0
   -5.3360  -14.1160   12.8700 C   0  0  0  0  0  0  0  0  0  0  0  0
   -2.1660  -11.6330   11.2300 C   0  0  0  0  0  0  0  0  0  0  0  0
   -1.5910  -10.2240   11.1210 C   0  0  0  0  0  0  0  0  0  0  0  0
   -4.0270   -6.6240   12.4670 C   0  0  0  0  0  0  0  0  0  0  0  0
   -4.6400   -7.3560   11.4740 O   0  0  0  0  0  0  0  0  0  0  0  0
   -8.3640   -5.0076   12.7227 H   0  0  0  0  0  0  0  0  0  0  0  0
   -4.6054   -4.2633   14.8699 H   0  0  0  0  0  0  0  0  0  0  0  0
   -1.3057   -2.7978   18.1317 H   0  0  0  0  0  0  0  0  0  0  0  0
    0.0238   -4.0012   17.9445 H   0  0  0  0  0  0  0  0  0  0  0  0
    1.9205   -0.5281   18.0811 H   0  0  0  0  0  0  0  0  0  0  0  0
    1.3145    1.8335   18.6158 H   0  0  0  0  0  0  0  0  0  0  0  0
   -0.9287    2.7248   17.9920 H   0  0  0  0  0  0  0  0  0  0  0  0
   -2.5686    1.2534   16.8202 H   0  0  0  0  0  0  0  0  0  0  0  0
   -1.9655   -1.1038   16.2881 H   0  0  0  0  0  0  0  0  0  0  0  0
   -0.9379   -6.3286   13.8876 H   0  0  0  0  0  0  0  0  0  0  0  0
   -2.0127   -7.5635   10.7864 H   0  0  0  0  0  0  0  0  0  0  0  0
   -0.8406   -7.8009   12.1653 H   0  0  0  0  0  0  0  0  0  0  0  0
   -3.3350   -9.2300   11.6770 H   0  0  0  0  0  0  0  0  0  0  0  0
   -1.3203   -9.7228   13.8274 H   0  0  0  0  0  0  0  0  0  0  0  0
   -2.9680   -9.0304   14.0336 H   0  0  0  0  0  0  0  0  0  0  0  0
   -2.8568  -11.4580   14.6143 H   0  0  0  0  0  0  0  0  0  0  0  0
   -3.9770  -11.0979   13.2304 H   0  0  0  0  0  0  0  0  0  0  0  0
   -1.1466  -12.2498   13.0334 H   0  0  0  0  0  0  0  0  0  0  0  0
   -2.2480  -14.2180   12.2830 H   0  0  0  0  0  0  0  0  0  0  0  0
   -2.8131  -13.3066   14.9131 H   0  0  0  0  0  0  0  0  0  0  0  0
   -3.9973  -14.5413   14.2915 H   0  0  0  0  0  0  0  0  0  0  0  0
   -1.8777  -15.3613   15.5490 H   0  0  0  0  0  0  0  0  0  0  0  0
   -2.3621  -16.1675   14.0186 H   0  0  0  0  0  0  0  0  0  0  0  0
   -1.0217  -14.9717   14.0186 H   0  0  0  0  0  0  0  0  0  0  0  0
   -4.4458  -12.6048   11.6409 H   0  0  0  0  0  0  0  0  0  0  0  0
   -4.0704  -14.3206   11.1702 H   0  0  0  0  0  0  0  0  0  0  0  0
   -5.0694  -13.9984   13.9307 H   0  0  0  0  0  0  0  0  0  0  0  0
   -6.2449  -13.5353   12.6538 H   0  0  0  0  0  0  0  0  0  0  0  0
   -5.5198  -15.1788   12.6538 H   0  0  0  0  0  0  0  0  0  0  0  0
   -1.5524  -12.3137   10.6215 H   0  0  0  0  0  0  0  0  0  0  0  0
   -3.2055  -11.6012   10.8718 H   0  0  0  0  0  0  0  0  0  0  0  0
   -0.5340  -10.2362   11.4254 H   0  0  0  0  0  0  0  0  0  0  0  0
   -1.6726   -9.8776   10.0802 H   0  0  0  0  0  0  0  0  0  0  0  0
   -4.1260   -7.1970   10.6500 H   0  0  0  0  0  0  0  0  0  0  0  0
  1  2  3  0
  2  3  1  0
  3  4  2  0
  4  5  1  0
  5  6  1  0
  6  7  3  0
  7  8  1  0
  8  9  1  0
  9 10  1  0
 10 11  2  0
 11 12  1  0
 12 13  2  0
 13 14  1  0
 14 15  2  0
  5 16  2  0
 16 17  1  0
 17 18  1  0
 18 19  1  0
 19 20  1  0
 20 21  1  0
 21 22  1  0
 22 23  1  0
 23 24  1  0
 24 25  1  0
 23 26  1  0
 26 27  1  0
 22 28  1  0
 28 29  1  0
 17 30  2  0
 30 31  1  0
 30  3  1  0
 15 10  1  0
 29 19  1  0
  1 32  1  0
  4 33  1  0
  8 34  1  0
  8 35  1  0
 11 36  1  0
 12 37  1  0
 13 38  1  0
 14 39  1  0
 15 40  1  0
 16 41  1  0
 18 42  1  0
 18 43  1  0
 19 44  1  1
 20 45  1  0
 20 46  1  0
 21 47  1  0
 21 48  1  0
 22 49  1  6
 23 50  1  0
 24 51  1  0
 24 52  1  0
 25 53  1  0
 25 54  1  0
 25 55  1  0
 26 56  1  0
 26 57  1  0
 27 58  1  0
 27 59  1  0
 27 60  1  0
 28 61  1  0
 28 62  1  0
 29 63  1  0
 29 64  1  0
 31 65  1  0
M  CHG  2  19   1  23   1
M  END
>  <meeko>  (4) 
{"is_sidechain": [false], "free_energy": -6.349, "intermolecular_energy": -9.367, "internal_energy": -1.223}

$$$$
5a7b_ligand
     RDKit          3D

 65 67  0  0  0  0  0  0  0  0999 V2000
   -7.2260   -1.7160   15.0260 C   0  0  0  0  0  0  0  0  0  0  0  0
   -6.1580   -2.2600   15.0950 C   0  0  0  0  0  0  0  0  0  0  0  0
   -4.8880   -2.9210   15.1670 C   0  0  0  0  0  0  0  0  0  0  0  0
   -4.5140   -3.7730   14.1250 C   0  0  0  0  0  0  0  0  0  0  0  0
   -3.2790   -4.4210   14.1630 C   0  0  0  0  0  0  0  0  0  0  0  0
   -2.8810   -5.2840   13.0960 C   0  0  0  0  0  0  0  0  0  0  0  0
   -2.4940   -6.0030   12.2150 C   0  0  0  0  0  0  0  0  0  0  0  0
   -1.9920   -6.9200   11.1820 C   0  0  0  0  0  0  0  0  0  0  0  0
   -1.1670   -7.9280   11.7700 O   0  0  0  0  0  0  0  0  0  0  0  0
   -1.3010   -9.2170   11.3340 C   0  0  0  0  0  0  0  0  0  0  0  0
   -0.2710  -10.0580   10.9110 C   0  0  0  0  0  0  0  0  0  0  0  0
   -0.5550  -11.3610   10.4890 C   0  0  0  0  0  0  0  0  0  0  0  0
   -1.8670  -11.8310   10.4950 C   0  0  0  0  0  0  0  0  0  0  0  0
   -2.8980  -11.0000   10.9250 C   0  0  0  0  0  0  0  0  0  0  0  0
   -2.6130   -9.6990   11.3460 C   0  0  0  0  0  0  0  0  0  0  0  0
   -2.4110   -4.2230   15.2410 C   0  0  0  0  0  0  0  0  0  0  0  0
   -2.7630   -3.3640   16.2930 C   0  0  0  0  0  0  0  0  0  0  0  0
   -1.8300   -3.1860   17.4600 C   0  0  0  0  0  0  0  0  0  0  0  0
   -1.5930   -1.7200   17.8280 N   0  0  2  0  0  0  0  0  0  0  0  0
   -0.7550   -1.0110   16.8090 C   0  0  0  0  0  0  0  0  0  0  0  0
   -0.6500    0.4690   17.1640 C   0  0  0  0  0  0  0  0  0  0  0  0
   -0.1030    0.6870   18.5860 C   0  0  1  0  0  0  0  0  0  0  0  0
   -0.0950    2.2080   18.9350 N   0  0  0  0  0  0  0  0  0  0  0  0
   -1.0380    3.0740   18.0850 C   0  0  0  0  0  0  0  0  0  0  0  0
   -2.4020    3.2530   18.7240 C   0  0  0  0  0  0  0  0  0  0  0  0
   -0.2710    2.4740   20.4420 C   0  0  0  0  0  0  0  0  0  0  0  0
    0.4780    3.7120   20.9010 C   0  0  0  0  0  0  0  0  0  0  0  0
   -0.9650   -0.1020   19.5850 C   0  0  0  0  0  0  0  0  0  0  0  0
   -1.0680   -1.5800   19.2190 C   0  0  0  0  0  0  0  0  0  0  0  0
   -4.0120   -2.7230   16.2450 C   0  0  0  0  0  0  0  0  0  0  0  0
   -4.3180   -1.8760   17.2880 O   0  0  0  0  0  0  0  0  0  0  0  0
   -8.2046   -1.2176   14.9628 H   0  0  0  0  0  0  0  0  0  0  0  0
   -5.1932   -3.9330   13.2746 H   0  0  0  0  0  0  0  0  0  0  0  0
   -2.8440   -7.3981   10.6765 H   0  0  0  0  0  0  0  0  0  0  0  0
   -1.3949   -6.3482   10.4564 H   0  0  0  0  0  0  0  0  0  0  0  0
    0.7674   -9.6952   10.9094 H   0  0  0  0  0  0  0  0  0  0  0  0
    0.2605  -12.0173   10.1510 H   0  0  0  0  0  0  0  0  0  0  0  0
   -2.0874  -12.8556   10.1609 H   0  0  0  0  0  0  0  0  0  0  0  0
   -3.9349  -11.3672   10.9332 H   0  0  0  0  0  0  0  0  0  0  0  0
   -3.4293   -9.0471   11.6905 H   0  0  0  0  0  0  0  0  0  0  0  0
   -1.4433   -4.7455   15.2646 H   0  0  0  0  0  0  0  0  0  0  0  0
   -2.2603   -3.6997   18.3324 H   0  0  0  0  0  0  0  0  0  0  0  0
   -0.8579   -3.6094   17.1671 H   0  0  0  0  0  0  0  0  0  0  0  0
   -2.5630   -1.3480   17.7880 H   0  0  0  0  0  0  0  0  0  0  0  0
    0.2515   -1.4545   16.7917 H   0  0  0  0  0  0  0  0  0  0  0  0
   -1.2232   -1.1142   15.8190 H   0  0  0  0  0  0  0  0  0  0  0  0
    0.0241    0.9588   16.4459 H   0  0  0  0  0  0  0  0  0  0  0  0
   -1.6612    0.8998   17.1208 H   0  0  0  0  0  0  0  0  0  0  0  0
    0.9335    0.3231   18.6434 H   0  0  0  0  0  0  0  0  0  0  0  0
    0.8440    2.5690   18.7140 H   0  0  0  0  0  0  0  0  0  0  0  0
   -0.5798    4.0648   17.9496 H   0  0  0  0  0  0  0  0  0  0  0  0
   -1.1858    2.5600   17.1238 H   0  0  0  0  0  0  0  0  0  0  0  0
   -2.2985    3.2394   19.8190 H   0  0  0  0  0  0  0  0  0  0  0  0
   -2.8314    4.2152   18.4082 H   0  0  0  0  0  0  0  0  0  0  0  0
   -3.0652    2.4342   18.4082 H   0  0  0  0  0  0  0  0  0  0  0  0
   -1.3418    2.6096   20.6544 H   0  0  0  0  0  0  0  0  0  0  0  0
    0.1409    1.6111   20.9859 H   0  0  0  0  0  0  0  0  0  0  0  0
    0.4966    3.7427   22.0004 H   0  0  0  0  0  0  0  0  0  0  0  0
    1.5085    3.6803   20.5176 H   0  0  0  0  0  0  0  0  0  0  0  0
   -0.0284    4.6101   20.5176 H   0  0  0  0  0  0  0  0  0  0  0  0
   -0.5158   -0.0156   20.5854 H   0  0  0  0  0  0  0  0  0  0  0  0
   -1.9797    0.3220   19.5627 H   0  0  0  0  0  0  0  0  0  0  0  0
   -0.0718   -2.0423   19.2818 H   0  0  0  0  0  0  0  0  0  0  0  0
   -1.7533   -2.0810   19.9186 H   0  0  0  0  0  0  0  0  0  0  0  0
   -3.4850   -1.4090   17.5240 H   0  0  0  0  0  0  0  0  0  0  0  0
  1  2  3  0
  2  3  1  0
  3  4  2  0
  4  5  1  0
  5  6  1  0
  6  7  3  0
  7  8  1  0
  8  9  1  0
  9 10  1  0
 10 11  2  0
 11 12  1  0
 12 13  2  0
 13 14  1  0
 14 15  2  0
  5 16  2  0
 16 17  1  0
 17 18  1  0
 18 19  1  0
 19 20  1  0
 20 21  1  0
 21 22  1  0
 22 23  1  0
 23 24  1  0
 24 25  1  0
 23 26  1  0
 26 27  1  0
 22 28  1  0
 28 29  1  0
 17 30  2  0
 30 31  1  0
 30  3  1  0
 15 10  1  0
 29 19  1  0
  1 32  1  0
  4 33  1  0
  8 34  1  0
  8 35  1  0
 11 36  1  0
 12 37  1  0
 13 38  1  0
 14 39  1  0
 15 40  1  0
 16 41  1  0
 18 42  1  0
 18 43  1  0
 19 44  1  6
 20 45  1  0
 20 46  1  0
 21 47  1  0
 21 48  1  0
 22 49  1  1
 23 50  1  0
 24 51  1  0
 24 52  1  0
 25 53  1  0
 25 54  1  0
 25 55  1  0
 26 56  1  0
 26 57  1  0
 27 58  1  0
 27 59  1  0
 27 60  1  0
 28 61  1  0
 28 62  1  0
 29 63  1  0
 29 64  1  0
 31 65  1  0
M  CHG  2  19   1  23   1
M  END
>  <meeko>  (5) 
{"is_sidechain": [false], "free_energy": -6.324, "intermolecular_energy": -9.339, "internal_energy": -1.213}

$$$$
5a7b_ligand
     RDKit          3D

 65 67  0  0  0  0  0  0  0  0999 V2000
   -0.1220  -12.1880    8.7490 C   0  0  0  0  0  0  0  0  0  0  0  0
   -0.5880  -11.6700    9.7270 C   0  0  0  0  0  0  0  0  0  0  0  0
   -1.1540  -11.0640   10.8950 C   0  0  0  0  0  0  0  0  0  0  0  0
   -1.7760  -11.8810   11.8430 C   0  0  0  0  0  0  0  0  0  0  0  0
   -2.3260  -11.3210   12.9960 C   0  0  0  0  0  0  0  0  0  0  0  0
   -2.9510  -12.1500   13.9770 C   0  0  0  0  0  0  0  0  0  0  0  0
   -3.4690  -12.8070   14.8390 C   0  0  0  0  0  0  0  0  0  0  0  0
   -4.0440  -13.6340   15.9090 C   0  0  0  0  0  0  0  0  0  0  0  0
   -3.0350  -14.4560   16.4990 O   0  0  0  0  0  0  0  0  0  0  0  0
   -2.4530  -15.4270   15.7320 C   0  0  0  0  0  0  0  0  0  0  0  0
   -3.1070  -16.2800   14.8410 C   0  0  0  0  0  0  0  0  0  0  0  0
   -2.3810  -17.2320   14.1180 C   0  0  0  0  0  0  0  0  0  0  0  0
   -1.0000  -17.3320   14.2770 C   0  0  0  0  0  0  0  0  0  0  0  0
   -0.3410  -16.4780   15.1570 C   0  0  0  0  0  0  0  0  0  0  0  0
   -1.0670  -15.5270   15.8780 C   0  0  0  0  0  0  0  0  0  0  0  0
   -2.2600   -9.9400   13.2100 C   0  0  0  0  0  0  0  0  0  0  0  0
   -1.6320   -9.1020   12.2760 C   0  0  0  0  0  0  0  0  0  0  0  0
   -1.5980   -7.6160   12.5070 C   0  0  0  0  0  0  0  0  0  0  0  0
   -2.9150   -7.0570   13.0490 N   0  0  2  0  0  0  0  0  0  0  0  0
   -3.9940   -7.0470   12.0090 C   0  0  0  0  0  0  0  0  0  0  0  0
   -5.3100   -6.5940   12.6340 C   0  0  0  0  0  0  0  0  0  0  0  0
   -5.1840   -5.2220   13.3200 C   0  0  1  0  0  0  0  0  0  0  0  0
   -6.5280   -4.8410   14.0160 N   0  0  0  0  0  0  0  0  0  0  0  0
   -6.4190   -3.7290   15.0710 C   0  0  0  0  0  0  0  0  0  0  0  0
   -7.0770   -2.4370   14.6290 C   0  0  0  0  0  0  0  0  0  0  0  0
   -7.6640   -4.5710   13.0110 C   0  0  0  0  0  0  0  0  0  0  0  0
   -8.8830   -5.4360   13.2720 C   0  0  0  0  0  0  0  0  0  0  0  0
   -4.0320   -5.2700   14.3370 C   0  0  0  0  0  0  0  0  0  0  0  0
   -2.7220   -5.7300   13.7050 C   0  0  0  0  0  0  0  0  0  0  0  0
   -1.0890   -9.6800   11.1170 C   0  0  0  0  0  0  0  0  0  0  0  0
   -0.4680   -8.8280   10.2290 O   0  0  0  0  0  0  0  0  0  0  0  0
    0.3049  -12.6625    7.8531 H   0  0  0  0  0  0  0  0  0  0  0  0
   -1.8319  -12.9674   11.6796 H   0  0  0  0  0  0  0  0  0  0  0  0
   -4.4757  -12.9797   16.6807 H   0  0  0  0  0  0  0  0  0  0  0  0
   -4.8252  -14.2793   15.4809 H   0  0  0  0  0  0  0  0  0  0  0  0
   -4.1961  -16.2031   14.7073 H   0  0  0  0  0  0  0  0  0  0  0  0
   -2.9022  -17.9047   13.4209 H   0  0  0  0  0  0  0  0  0  0  0  0
   -0.4324  -18.0836   13.7088 H   0  0  0  0  0  0  0  0  0  0  0  0
    0.7491  -16.5519   15.2843 H   0  0  0  0  0  0  0  0  0  0  0  0
   -0.5421  -14.8498   16.5679 H   0  0  0  0  0  0  0  0  0  0  0  0
   -2.7043   -9.5073   14.1185 H   0  0  0  0  0  0  0  0  0  0  0  0
   -0.8002   -7.3935   13.2308 H   0  0  0  0  0  0  0  0  0  0  0  0
   -1.4185   -7.1390   11.5322 H   0  0  0  0  0  0  0  0  0  0  0  0
   -3.1470   -7.7670   13.7720 H   0  0  0  0  0  0  0  0  0  0  0  0
   -3.7160   -6.3543   11.2010 H   0  0  0  0  0  0  0  0  0  0  0  0
   -4.1155   -8.0617   11.6020 H   0  0  0  0  0  0  0  0  0  0  0  0
   -6.0729   -6.5269   11.8444 H   0  0  0  0  0  0  0  0  0  0  0  0
   -5.5920   -7.3309   13.4004 H   0  0  0  0  0  0  0  0  0  0  0  0
   -4.9637   -4.4504   12.5675 H   0  0  0  0  0  0  0  0  0  0  0  0
   -6.8420   -5.6640   14.5500 H   0  0  0  0  0  0  0  0  0  0  0  0
   -6.9047   -4.0728   15.9962 H   0  0  0  0  0  0  0  0  0  0  0  0
   -5.3499   -3.5214   15.2258 H   0  0  0  0  0  0  0  0  0  0  0  0
   -7.3734   -1.8550   15.5141 H   0  0  0  0  0  0  0  0  0  0  0  0
   -6.3672   -1.8516   14.0261 H   0  0  0  0  0  0  0  0  0  0  0  0
   -7.9679   -2.6668   14.0261 H   0  0  0  0  0  0  0  0  0  0  0  0
   -7.9582   -3.5137   13.0857 H   0  0  0  0  0  0  0  0  0  0  0  0
   -7.2884   -4.8141   12.0061 H   0  0  0  0  0  0  0  0  0  0  0  0
   -9.0321   -5.5418   14.3567 H   0  0  0  0  0  0  0  0  0  0  0  0
   -9.7701   -4.9642   12.8243 H   0  0  0  0  0  0  0  0  0  0  0  0
   -8.7306   -6.4291   12.8243 H   0  0  0  0  0  0  0  0  0  0  0  0
   -3.8882   -4.2634   14.7567 H   0  0  0  0  0  0  0  0  0  0  0  0
   -4.3023   -5.9956   15.1183 H   0  0  0  0  0  0  0  0  0  0  0  0
   -2.4013   -4.9941   12.9529 H   0  0  0  0  0  0  0  0  0  0  0  0
   -1.9537   -5.8200   14.4870 H   0  0  0  0  0  0  0  0  0  0  0  0
   -1.1800   -8.3120    9.7900 H   0  0  0  0  0  0  0  0  0  0  0  0
  1  2  3  0
  2  3  1  0
  3  4  2  0
  4  5  1  0
  5  6  1  0
  6  7  3  0
  7  8  1  0
  8  9  1  0
  9 10  1  0
 10 11  2  0
 11 12  1  0
 12 13  2  0
 13 14  1  0
 14 15  2  0
  5 16  2  0
 16 17  1  0
 17 18  1  0
 18 19  1  0
 19 20  1  0
 20 21  1  0
 21 22  1  0
 22 23  1  0
 23 24  1  0
 24 25  1  0
 23 26  1  0
 26 27  1  0
 22 28  1  0
 28 29  1  0
 17 30  2  0
 30 31  1  0
 30  3  1  0
 15 10  1  0
 29 19  1  0
  1 32  1  0
  4 33  1  0
  8 34  1  0
  8 35  1  0
 11 36  1  0
 12 37  1  0
 13 38  1  0
 14 39  1  0
 15 40  1  0
 16 41  1  0
 18 42  1  0
 18 43  1  0
 19 44  1  6
 20 45  1  0
 20 46  1  0
 21 47  1  0
 21 48  1  0
 22 49  1  1
 23 50  1  0
 24 51  1  0
 24 52  1  0
 25 53  1  0
 25 54  1  0
 25 55  1  0
 26 56  1  0
 26 57  1  0
 27 58  1  0
 27 59  1  0
 27 60  1  0
 28 61  1  0
 28 62  1  0
 29 63  1  0
 29 64  1  0
 31 65  1  0
M  CHG  2  19   1  23   1
M  END
>  <meeko>  (6) 
{"is_sidechain": [false], "free_energy": -6.247, "intermolecular_energy": -9.233, "internal_energy": -1.204}

$$$$
5a7b_ligand
     RDKit          3D

 65 67  0  0  0  0  0  0  0  0999 V2000
   -6.8100   -4.5990   12.5600 C   0  0  0  0  0  0  0  0  0  0  0  0
   -5.7500   -4.9580   12.9940 C   0  0  0  0  0  0  0  0  0  0  0  0
   -4.4850   -5.3990   13.5030 C   0  0  0  0  0  0  0  0  0  0  0  0
   -3.7180   -6.2750   12.7300 C   0  0  0  0  0  0  0  0  0  0  0  0
   -2.4780   -6.7130   13.1940 C   0  0  0  0  0  0  0  0  0  0  0  0
   -1.6800   -7.5980   12.4060 C   0  0  0  0  0  0  0  0  0  0  0  0
   -0.9660   -8.3250   11.7710 C   0  0  0  0  0  0  0  0  0  0  0  0
   -0.1080   -9.2640   11.0350 C   0  0  0  0  0  0  0  0  0  0  0  0
   -0.0870  -10.5360   11.6870 O   0  0  0  0  0  0  0  0  0  0  0  0
   -1.1350  -11.3910   11.4850 C   0  0  0  0  0  0  0  0  0  0  0  0
   -1.6810  -11.7530   10.2530 C   0  0  0  0  0  0  0  0  0  0  0  0
   -2.7590  -12.6420   10.1950 C   0  0  0  0  0  0  0  0  0  0  0  0
   -3.2910  -13.1780   11.3670 C   0  0  0  0  0  0  0  0  0  0  0  0
   -2.7440  -12.8280   12.5990 C   0  0  0  0  0  0  0  0  0  0  0  0
   -1.6680  -11.9400   12.6550 C   0  0  0  0  0  0  0  0  0  0  0  0
   -1.9960   -6.2800   14.4330 C   0  0  0  0  0  0  0  0  0  0  0  0
   -2.7440   -5.3920   15.2210 C   0  0  0  0  0  0  0  0  0  0  0  0
   -2.2250   -4.9610   16.5650 C   0  0  0  0  0  0  0  0  0  0  0  0
   -1.9610   -3.4560   16.6580 N   0  0  2  0  0  0  0  0  0  0  0  0
   -0.5040   -3.1480   16.8230 C   0  0  0  0  0  0  0  0  0  0  0  0
   -0.2890   -1.6380   16.7910 C   0  0  0  0  0  0  0  0  0  0  0  0
   -1.1370   -0.9080   17.8470 C   0  0  1  0  0  0  0  0  0  0  0  0
   -0.9490    0.6350   17.7200 N   0  0  0  0  0  0  0  0  0  0  0  0
   -1.1630    1.4250   19.0200 C   0  0  0  0  0  0  0  0  0  0  0  0
   -1.0080    2.9210   18.8280 C   0  0  0  0  0  0  0  0  0  0  0  0
    0.3720    1.0200   17.0240 C   0  0  0  0  0  0  0  0  0  0  0  0
    0.1660    1.4160   15.5740 C   0  0  0  0  0  0  0  0  0  0  0  0
   -2.6130   -1.2990   17.6680 C   0  0  0  0  0  0  0  0  0  0  0  0
   -2.8190   -2.8110   17.6960 C   0  0  0  0  0  0  0  0  0  0  0  0
   -3.9940   -4.9660   14.7440 C   0  0  0  0  0  0  0  0  0  0  0  0
   -4.6960   -4.0840   15.5370 O   0  0  0  0  0  0  0  0  0  0  0  0
   -7.7814   -4.2700   12.1623 H   0  0  0  0  0  0  0  0  0  0  0  0
   -4.0927   -6.6193   11.7548 H   0  0  0  0  0  0  0  0  0  0  0  0
   -0.4976   -9.3867   10.0137 H   0  0  0  0  0  0  0  0  0  0  0  0
    0.9156   -8.8623   11.0035 H   0  0  0  0  0  0  0  0  0  0  0  0
   -1.2622  -11.3378    9.3244 H   0  0  0  0  0  0  0  0  0  0  0  0
   -3.1888  -12.9194    9.2212 H   0  0  0  0  0  0  0  0  0  0  0  0
   -4.1403  -13.8753   11.3187 H   0  0  0  0  0  0  0  0  0  0  0  0
   -3.1588  -13.2503   13.5261 H   0  0  0  0  0  0  0  0  0  0  0  0
   -1.2353  -11.6697   13.6295 H   0  0  0  0  0  0  0  0  0  0  0  0
   -1.0208   -6.6390   14.7936 H   0  0  0  0  0  0  0  0  0  0  0  0
   -2.9675   -5.2331   17.3296 H   0  0  0  0  0  0  0  0  0  0  0  0
   -1.2629   -5.4708   16.7215 H   0  0  0  0  0  0  0  0  0  0  0  0
   -2.2690   -3.1450   15.7150 H   0  0  0  0  0  0  0  0  0  0  0  0
   -0.1531   -3.5466   17.7863 H   0  0  0  0  0  0  0  0  0  0  0  0
    0.0612   -3.6132   16.0019 H   0  0  0  0  0  0  0  0  0  0  0  0
    0.7735   -1.4273   16.9824 H   0  0  0  0  0  0  0  0  0  0  0  0
   -0.5970   -1.2739   15.7998 H   0  0  0  0  0  0  0  0  0  0  0  0
   -0.8086   -1.2047   18.8540 H   0  0  0  0  0  0  0  0  0  0  0  0
   -1.6860    0.9850   17.0900 H   0  0  0  0  0  0  0  0  0  0  0  0
   -2.1777    1.2213   19.3926 H   0  0  0  0  0  0  0  0  0  0  0  0
   -0.3938    1.1006   19.7363 H   0  0  0  0  0  0  0  0  0  0  0  0
   -0.9570    3.4134   19.8103 H   0  0  0  0  0  0  0  0  0  0  0  0
   -0.0839    3.1249   18.2672 H   0  0  0  0  0  0  0  0  0  0  0  0
   -1.8706    3.3100   18.2672 H   0  0  0  0  0  0  0  0  0  0  0  0
    0.8208    1.8681   17.5618 H   0  0  0  0  0  0  0  0  0  0  0  0
    1.0302    0.1389   17.0414 H   0  0  0  0  0  0  0  0  0  0  0  0
   -0.3412    2.3910   15.5287 H   0  0  0  0  0  0  0  0  0  0  0  0
    1.1417    1.4865   15.0710 H   0  0  0  0  0  0  0  0  0  0  0  0
   -0.4519    0.6576   15.0710 H   0  0  0  0  0  0  0  0  0  0  0  0
   -3.1999   -0.8469   18.4811 H   0  0  0  0  0  0  0  0  0  0  0  0
   -2.9413   -0.9327   16.6841 H   0  0  0  0  0  0  0  0  0  0  0  0
   -2.5459   -3.1988   18.6885 H   0  0  0  0  0  0  0  0  0  0  0  0
   -3.8749   -3.0383   17.4879 H   0  0  0  0  0  0  0  0  0  0  0  0
   -4.0340   -3.6290   16.1040 H   0  0  0  0  0  0  0  0  0  0  0  0
  1  2  3  0
  2  3  1  0
  3  4  2  0
  4  5  1  0
  5  6  1  0
  6  7  3  0
  7  8  1  0
  8  9  1  0
  9 10  1  0
 10 11  2  0
 11 12  1  0
 12 13  2  0
 13 14  1  0
 14 15  2  0
  5 16  2  0
 16 17  1  0
 17 18  1  0
 18 19  1  0
 19 20  1  0
 20 21  1  0
 21 22  1  0
 22 23  1  0
 23 24  1  0
 24 25  1  0
 23 26  1  0
 26 27  1  0
 22 28  1  0
 28 29  1  0
 17 30  2  0
 30 31  1  0
 30  3  1  0
 15 10  1  0
 29 19  1  0
  1 32  1  0
  4 33  1  0
  8 34  1  0
  8 35  1  0
 11 36  1  0
 12 37  1  0
 13 38  1  0
 14 39  1  0
 15 40  1  0
 16 41  1  0
 18 42  1  0
 18 43  1  0
 19 44  1  1
 20 45  1  0
 20 46  1  0
 21 47  1  0
 21 48  1  0
 22 49  1  6
 23 50  1  0
 24 51  1  0
 24 52  1  0
 25 53  1  0
 25 54  1  0
 25 55  1  0
 26 56  1  0
 26 57  1  0
 27 58  1  0
 27 59  1  0
 27 60  1  0
 28 61  1  0
 28 62  1  0
 29 63  1  0
 29 64  1  0
 31 65  1  0
M  CHG  2  19   1  23   1
M  END
>  <meeko>  (7) 
{"is_sidechain": [false], "free_energy": -6.185, "intermolecular_energy": -9.367, "internal_energy": -0.977}

$$$$
5a7b_ligand
     RDKit          3D

 65 67  0  0  0  0  0  0  0  0999 V2000
   -6.3740  -13.6640   10.7320 C   0  0  0  0  0  0  0  0  0  0  0  0
   -5.3200  -13.3180   11.1900 C   0  0  0  0  0  0  0  0  0  0  0  0
   -4.0650  -12.9100   11.7500 C   0  0  0  0  0  0  0  0  0  0  0  0
   -3.5200  -13.6620   12.7950 C   0  0  0  0  0  0  0  0  0  0  0  0
   -2.2950  -13.2970   13.3520 C   0  0  0  0  0  0  0  0  0  0  0  0
   -1.7220  -14.0660   14.4110 C   0  0  0  0  0  0  0  0  0  0  0  0
   -1.1920  -14.6910   15.2880 C   0  0  0  0  0  0  0  0  0  0  0  0
   -0.6010  -15.4610   16.3920 C   0  0  0  0  0  0  0  0  0  0  0  0
   -1.5770  -15.7040   17.4080 O   0  0  0  0  0  0  0  0  0  0  0  0
   -2.0560  -14.6400   18.1210 C   0  0  0  0  0  0  0  0  0  0  0  0
   -1.2990  -13.7450   18.8780 C   0  0  0  0  0  0  0  0  0  0  0  0
   -1.9260  -12.6970   19.5610 C   0  0  0  0  0  0  0  0  0  0  0  0
   -3.3080  -12.5360   19.4850 C   0  0  0  0  0  0  0  0  0  0  0  0
   -4.0670  -13.4200   18.7230 C   0  0  0  0  0  0  0  0  0  0  0  0
   -3.4400  -14.4660   18.0420 C   0  0  0  0  0  0  0  0  0  0  0  0
   -1.6060  -12.1790   12.8700 C   0  0  0  0  0  0  0  0  0  0  0  0
   -2.1300  -11.4160   11.8160 C   0  0  0  0  0  0  0  0  0  0  0  0
   -1.3910  -10.1990   11.3310 C   0  0  0  0  0  0  0  0  0  0  0  0
   -1.8900   -8.8970   11.9620 N   0  0  2  0  0  0  0  0  0  0  0  0
   -1.9080   -7.7650   10.9810 C   0  0  0  0  0  0  0  0  0  0  0  0
   -2.5230   -6.5280   11.6290 C   0  0  0  0  0  0  0  0  0  0  0  0
   -1.7970   -6.1310   12.9260 C   0  0  1  0  0  0  0  0  0  0  0  0
   -2.5120   -4.9170   13.5960 N   0  0  0  0  0  0  0  0  0  0  0  0
   -3.6750   -4.3210   12.7860 C   0  0  0  0  0  0  0  0  0  0  0  0
   -4.9960   -4.3830   13.5280 C   0  0  0  0  0  0  0  0  0  0  0  0
   -2.9110   -5.1930   15.0580 C   0  0  0  0  0  0  0  0  0  0  0  0
   -2.1830   -4.2880   16.0360 C   0  0  0  0  0  0  0  0  0  0  0  0
   -1.7610   -7.3400   13.8750 C   0  0  0  0  0  0  0  0  0  0  0  0
   -1.1490   -8.5740   13.2170 C   0  0  0  0  0  0  0  0  0  0  0  0
   -3.3680  -11.7920   11.2690 C   0  0  0  0  0  0  0  0  0  0  0  0
   -3.8450  -11.0290   10.2260 O   0  0  0  0  0  0  0  0  0  0  0  0
   -7.3400  -13.9811   10.3122 H   0  0  0  0  0  0  0  0  0  0  0  0
   -4.0578  -14.5419   13.1779 H   0  0  0  0  0  0  0  0  0  0  0  0
   -0.2320  -16.4228   16.0063 H   0  0  0  0  0  0  0  0  0  0  0  0
    0.2293  -14.8841   16.8253 H   0  0  0  0  0  0  0  0  0  0  0  0
   -0.2071  -13.8636   18.9379 H   0  0  0  0  0  0  0  0  0  0  0  0
   -1.3253  -11.9972   20.1605 H   0  0  0  0  0  0  0  0  0  0  0  0
   -3.7979  -11.7127   20.0256 H   0  0  0  0  0  0  0  0  0  0  0  0
   -5.1579  -13.2950   18.6574 H   0  0  0  0  0  0  0  0  0  0  0  0
   -4.0422  -15.1600   17.4372 H   0  0  0  0  0  0  0  0  0  0  0  0
   -0.6440  -11.8955   13.3219 H   0  0  0  0  0  0  0  0  0  0  0  0
   -0.3247  -10.3183   11.5733 H   0  0  0  0  0  0  0  0  0  0  0  0
   -1.5635  -10.1232   10.2473 H   0  0  0  0  0  0  0  0  0  0  0  0
   -2.8690   -9.1560   12.1990 H   0  0  0  0  0  0  0  0  0  0  0  0
   -0.8787   -7.5385   10.6661 H   0  0  0  0  0  0  0  0  0  0  0  0
   -2.5090   -8.0529   10.1058 H   0  0  0  0  0  0  0  0  0  0  0  0
   -2.4643   -5.6898   10.9191 H   0  0  0  0  0  0  0  0  0  0  0  0
   -3.5668   -6.7635   11.8842 H   0  0  0  0  0  0  0  0  0  0  0  0
   -0.7653   -5.8280   12.6942 H   0  0  0  0  0  0  0  0  0  0  0  0
   -1.8270   -4.1490   13.6530 H   0  0  0  0  0  0  0  0  0  0  0  0
   -3.4456   -3.2686   12.5627 H   0  0  0  0  0  0  0  0  0  0  0  0
   -3.7809   -4.9174   11.8678 H   0  0  0  0  0  0  0  0  0  0  0  0
   -4.8085   -4.3742   14.6119 H   0  0  0  0  0  0  0  0  0  0  0  0
   -5.6110   -3.5127   13.2552 H   0  0  0  0  0  0  0  0  0  0  0  0
   -5.5268   -5.3070   13.2552 H   0  0  0  0  0  0  0  0  0  0  0  0
   -3.9937   -5.0313   15.1655 H   0  0  0  0  0  0  0  0  0  0  0  0
   -2.6341   -6.2317   15.2915 H   0  0  0  0  0  0  0  0  0  0  0  0
   -2.4259   -4.5900   17.0655 H   0  0  0  0  0  0  0  0  0  0  0  0
   -1.0980   -4.3722   15.8755 H   0  0  0  0  0  0  0  0  0  0  0  0
   -2.4977   -3.2463   15.8755 H   0  0  0  0  0  0  0  0  0  0  0  0
   -1.1628   -7.0775   14.7600 H   0  0  0  0  0  0  0  0  0  0  0  0
   -2.7979   -7.5839   14.1494 H   0  0  0  0  0  0  0  0  0  0  0  0
   -0.0940   -8.3749   12.9774 H   0  0  0  0  0  0  0  0  0  0  0  0
   -1.2171   -9.4264   13.9089 H   0  0  0  0  0  0  0  0  0  0  0  0
   -3.4860  -11.4250    9.4010 H   0  0  0  0  0  0  0  0  0  0  0  0
  1  2  3  0
  2  3  1  0
  3  4  2  0
  4  5  1  0
  5  6  1  0
  6  7  3  0
  7  8  1  0
  8  9  1  0
  9 10  1  0
 10 11  2  0
 11 12  1  0
 12 13  2  0
 13 14  1  0
 14 15  2  0
  5 16  2  0
 16 17  1  0
 17 18  1  0
 18 19  1  0
 19 20  1  0
 20 21  1  0
 21 22  1  0
 22 23  1  0
 23 24  1  0
 24 25  1  0
 23 26  1  0
 26 27  1  0
 22 28  1  0
 28 29  1  0
 17 30  2  0
 30 31  1  0
 30  3  1  0
 15 10  1  0
 29 19  1  0
  1 32  1  0
  4 33  1  0
  8 34  1  0
  8 35  1  0
 11 36  1  0
 12 37  1  0
 13 38  1  0
 14 39  1  0
 15 40  1  0
 16 41  1  0
 18 42  1  0
 18 43  1  0
 19 44  1  6
 20 45  1  0
 20 46  1  0
 21 47  1  0
 21 48  1  0
 22 49  1  1
 23 50  1  0
 24 51  1  0
 24 52  1  0
 25 53  1  0
 25 54  1  0
 25 55  1  0
 26 56  1  0
 26 57  1  0
 27 58  1  0
 27 59  1  0
 27 60  1  0
 28 61  1  0
 28 62  1  0
 29 63  1  0
 29 64  1  0
 31 65  1  0
M  CHG  2  19   1  23   1
M  END
>  <meeko>  (8) 
{"is_sidechain": [false], "free_energy": -6.068, "intermolecular_energy": -8.748, "internal_energy": -1.421}

$$$$
5a7b_ligand
     RDKit          3D

 65 67  0  0  0  0  0  0  0  0999 V2000
   -0.0710  -12.2040    8.7590 C   0  0  0  0  0  0  0  0  0  0  0  0
   -0.5540  -11.6900    9.7290 C   0  0  0  0  0  0  0  0  0  0  0  0
   -1.1420  -11.0880   10.8890 C   0  0  0  0  0  0  0  0  0  0  0  0
   -1.7650  -11.9110   11.8310 C   0  0  0  0  0  0  0  0  0  0  0  0
   -2.3360  -11.3550   12.9760 C   0  0  0  0  0  0  0  0  0  0  0  0
   -2.9630  -12.1890   13.9510 C   0  0  0  0  0  0  0  0  0  0  0  0
   -3.4840  -12.8500   14.8080 C   0  0  0  0  0  0  0  0  0  0  0  0
   -4.1460  -13.6040   15.8810 C   0  0  0  0  0  0  0  0  0  0  0  0
   -4.7840  -12.7110   16.7970 O   0  0  0  0  0  0  0  0  0  0  0  0
   -5.6510  -11.7770   16.3010 C   0  0  0  0  0  0  0  0  0  0  0  0
   -6.8250  -12.0330   15.5900 C   0  0  0  0  0  0  0  0  0  0  0  0
   -7.6200  -10.9730   15.1400 C   0  0  0  0  0  0  0  0  0  0  0  0
   -7.2480   -9.6560   15.4030 C   0  0  0  0  0  0  0  0  0  0  0  0
   -6.0830   -9.3940   16.1190 C   0  0  0  0  0  0  0  0  0  0  0  0
   -5.2910  -10.4530   16.5680 C   0  0  0  0  0  0  0  0  0  0  0  0
   -2.2890   -9.9730   13.1870 C   0  0  0  0  0  0  0  0  0  0  0  0
   -1.6590   -9.1290   12.2600 C   0  0  0  0  0  0  0  0  0  0  0  0
   -1.6460   -7.6430   12.4880 C   0  0  0  0  0  0  0  0  0  0  0  0
   -2.9540   -7.1080   13.0740 N   0  0  2  0  0  0  0  0  0  0  0  0
   -4.0300   -6.9890   12.0380 C   0  0  0  0  0  0  0  0  0  0  0  0
   -5.3390   -6.5660   12.6980 C   0  0  0  0  0  0  0  0  0  0  0  0
   -5.1900   -5.2610   13.4990 C   0  0  1  0  0  0  0  0  0  0  0  0
   -6.5280   -4.9160   14.2240 N   0  0  0  0  0  0  0  0  0  0  0  0
   -6.5830   -5.3120   15.7080 C   0  0  0  0  0  0  0  0  0  0  0  0
   -7.8860   -5.9910   16.0830 C   0  0  0  0  0  0  0  0  0  0  0  0
   -6.9660   -3.4550   14.0020 C   0  0  0  0  0  0  0  0  0  0  0  0
   -6.1990   -2.4820   14.8780 C   0  0  0  0  0  0  0  0  0  0  0  0
   -4.0420   -5.4170   14.5100 C   0  0  0  0  0  0  0  0  0  0  0  0
   -2.7380   -5.8460   13.8420 C   0  0  0  0  0  0  0  0  0  0  0  0
   -1.0950   -9.7030   11.1090 C   0  0  0  0  0  0  0  0  0  0  0  0
   -0.4740   -8.8460   10.2270 O   0  0  0  0  0  0  0  0  0  0  0  0
    0.3720  -12.6754    7.8693 H   0  0  0  0  0  0  0  0  0  0  0  0
   -1.8052  -12.9983   11.6695 H   0  0  0  0  0  0  0  0  0  0  0  0
   -4.9008  -14.2728   15.4416 H   0  0  0  0  0  0  0  0  0  0  0  0
   -3.3903  -14.1914   16.4231 H   0  0  0  0  0  0  0  0  0  0  0  0
   -7.1258  -13.0706   15.3830 H   0  0  0  0  0  0  0  0  0  0  0  0
   -8.5418  -11.1800   14.5767 H   0  0  0  0  0  0  0  0  0  0  0  0
   -7.8737   -8.8249   15.0455 H   0  0  0  0  0  0  0  0  0  0  0  0
   -5.7872   -8.3558   16.3304 H   0  0  0  0  0  0  0  0  0  0  0  0
   -4.3739  -10.2429   17.1380 H   0  0  0  0  0  0  0  0  0  0  0  0
   -2.7505   -9.5437   14.0885 H   0  0  0  0  0  0  0  0  0  0  0  0
   -0.8283   -7.4039   13.1839 H   0  0  0  0  0  0  0  0  0  0  0  0
   -1.5094   -7.1646   11.5069 H   0  0  0  0  0  0  0  0  0  0  0  0
   -3.2010   -7.8730   13.7330 H   0  0  0  0  0  0  0  0  0  0  0  0
   -3.7370   -6.2354   11.2922 H   0  0  0  0  0  0  0  0  0  0  0  0
   -4.1696   -7.9629   11.5461 H   0  0  0  0  0  0  0  0  0  0  0  0
   -6.0982   -6.4171   11.9161 H   0  0  0  0  0  0  0  0  0  0  0  0
   -5.6365   -7.3603   13.3983 H   0  0  0  0  0  0  0  0  0  0  0  0
   -4.9538   -4.4325   12.8151 H   0  0  0  0  0  0  0  0  0  0  0  0
   -7.2700   -5.4800   13.7860 H   0  0  0  0  0  0  0  0  0  0  0  0
   -5.7528   -6.0019   15.9194 H   0  0  0  0  0  0  0  0  0  0  0  0
   -6.5054   -4.3893   16.3019 H   0  0  0  0  0  0  0  0  0  0  0  0
   -7.9736   -6.0367   17.1786 H   0  0  0  0  0  0  0  0  0  0  0  0
   -8.7298   -5.4180   15.6712 H   0  0  0  0  0  0  0  0  0  0  0  0
   -7.8997   -7.0109   15.6712 H   0  0  0  0  0  0  0  0  0  0  0  0
   -6.7954   -3.1913   12.9478 H   0  0  0  0  0  0  0  0  0  0  0  0
   -8.0304   -3.3796   14.2691 H   0  0  0  0  0  0  0  0  0  0  0  0
   -6.3843   -2.7171   15.9365 H   0  0  0  0  0  0  0  0  0  0  0  0
   -5.1230   -2.5678   14.6663 H   0  0  0  0  0  0  0  0  0  0  0  0
   -6.5337   -1.4558   14.6663 H   0  0  0  0  0  0  0  0  0  0  0  0
   -3.8809   -4.4528   15.0143 H   0  0  0  0  0  0  0  0  0  0  0  0
   -4.3278   -6.2013   15.2263 H   0  0  0  0  0  0  0  0  0  0  0  0
   -2.4014   -5.0544   13.1564 H   0  0  0  0  0  0  0  0  0  0  0  0
   -1.9737   -6.0174   14.6144 H   0  0  0  0  0  0  0  0  0  0  0  0
    0.4370   -9.1910   10.0950 H   0  0  0  0  0  0  0  0  0  0  0  0
  1  2  3  0
  2  3  1  0
  3  4  2  0
  4  5  1  0
  5  6  1  0
  6  7  3  0
  7  8  1  0
  8  9  1  0
  9 10  1  0
 10 11  2  0
 11 12  1  0
 12 13  2  0
 13 14  1  0
 14 15  2  0
  5 16  2  0
 16 17  1  0
 17 18  1  0
 18 19  1  0
 19 20  1  0
 20 21  1  0
 21 22  1  0
 22 23  1  0
 23 24  1  0
 24 25  1  0
 23 26  1  0
 26 27  1  0
 22 28  1  0
 28 29  1  0
 17 30  2  0
 30 31  1  0
 30  3  1  0
 15 10  1  0
 29 19  1  0
  1 32  1  0
  4 33  1  0
  8 34  1  0
  8 35  1  0
 11 36  1  0
 12 37  1  0
 13 38  1  0
 14 39  1  0
 15 40  1  0
 16 41  1  0
 18 42  1  0
 18 43  1  0
 19 44  1  6
 20 45  1  0
 20 46  1  0
 21 47  1  0
 21 48  1  0
 22 49  1  1
 23 50  1  0
 24 51  1  0
 24 52  1  0
 25 53  1  0
 25 54  1  0
 25 55  1  0
 26 56  1  0
 26 57  1  0
 27 58  1  0
 27 59  1  0
 27 60  1  0
 28 61  1  0
 28 62  1  0
 29 63  1  0
 29 64  1  0
 31 65  1  0
M  CHG  2  19   1  23   1
M  END
>  <meeko>  (9) 
{"is_sidechain": [false], "free_energy": -5.934, "intermolecular_energy": -8.172, "internal_energy": -1.797}

$$$$
