
     RDKit          3D

 29 30  0  0  0  0  0  0  0  0999 V2000
   -8.8260   -6.8670   -6.8030 C   0  0  0  0  0  0  0  0  0  0  0  0
   -8.1280   -5.5200   -7.0790 C   0  0  2  0  0  0  0  0  0  0  0  0
   -8.9810   -4.7400   -7.9430 O   0  0  0  0  0  0  0  0  0  0  0  0
   -6.7880   -5.7720   -7.7350 C   0  0  0  0  0  0  0  0  0  0  0  0
   -6.0170   -4.3260   -8.4090 S   0  0  1  0  0  0  0  0  0  0  0  0
   -6.1600   -4.3970   -9.8240 O   0  0  0  0  0  0  0  0  0  0  0  0
   -6.5590   -3.1210   -7.8010 O   0  0  0  0  0  0  0  0  0  0  0  0
   -4.3490   -4.4860   -7.9590 C   0  0  0  0  0  0  0  0  0  0  0  0
   -3.5140   -5.3070   -8.6820 C   0  0  0  0  0  0  0  0  0  0  0  0
   -2.1920   -5.4390   -8.3200 C   0  0  0  0  0  0  0  0  0  0  0  0
   -1.7070   -4.7200   -7.2320 C   0  0  0  0  0  0  0  0  0  0  0  0
   -0.4290   -4.8530   -6.8730 F   0  0  0  0  0  0  0  0  0  0  0  0
   -2.5480   -3.8920   -6.5070 C   0  0  0  0  0  0  0  0  0  0  0  0
   -3.8670   -3.7650   -6.8680 C   0  0  0  0  0  0  0  0  0  0  0  0
   -7.9080   -4.7880   -5.7570 C   0  0  0  0  0  0  0  0  0  0  0  0
   -7.2840   -5.3060   -4.8750 O   0  0  0  0  0  0  0  0  0  0  0  0
   -8.3890   -3.5220   -5.6950 N   0  0  0  0  0  0  0  0  0  0  0  0
   -8.2810   -2.6320   -4.6310 C   0  0  0  0  0  0  0  0  0  0  0  0
   -8.6580   -1.3360   -4.8810 C   0  0  0  0  0  0  0  0  0  0  0  0
   -8.5570   -0.3960   -3.8860 C   0  0  0  0  0  0  0  0  0  0  0  0
   -8.0890   -0.7320   -2.6270 C   0  0  0  0  0  0  0  0  0  0  0  0
   -8.0030    0.2860   -1.6460 C   0  0  0  0  0  0  0  0  0  0  0  0
   -7.9520    1.1480   -0.8860 N   0  0  0  0  0  0  0  0  0  0  0  0
   -7.7070   -2.0640   -2.3450 C   0  0  0  0  0  0  0  0  0  0  0  0
   -7.1730   -2.4660   -0.9900 C   0  0  1  0  0  0  0  0  0  0  0  0
   -8.1280   -2.4340   -0.0540 F   0  0  0  0  0  0  0  0  0  0  0  0
   -6.6730   -3.6970   -1.0200 F   0  0  0  0  0  0  0  0  0  0  0  0
   -6.1940   -1.6700   -0.5750 F   0  0  0  0  0  0  0  0  0  0  0  0
   -7.8110   -3.0070   -3.3580 C   0  0  0  0  0  0  0  0  0  0  0  0
  2  1  1  1
  3  2  1  0
  4  2  1  0
  5  4  1  1
  6  5  2  0
  7  5  2  0
  8  5  1  0
  9  8  2  0
 10  9  1  0
 11 10  2  0
 12 11  1  0
 13 11  1  0
 14 13  2  0
 14  8  1  0
 15  2  1  0
 16 15  2  0
 17 15  1  0
 18 17  1  0
 19 18  2  0
 20 19  1  0
 21 20  2  0
 22 21  1  0
 23 22  3  0
 24 21  1  0
 25 24  1  0
 25 26  1  1
 27 25  1  0
 28 25  1  0
 29 24  2  0
 29 18  1  0
M  END
$$$$
