3qgy_ligand
     RDKit          3D

 54 57  0  0  0  0  0  0  0  0999 V2000
   -3.4200   -7.5740    7.4200 C   0  0  0  0  0  0  0  0  0  0  0  0
   -3.9250   -7.4660    6.0710 N   0  0  0  0  0  0  0  0  0  0  0  0
   -3.0440   -7.8940    5.0880 C   0  0  0  0  0  0  0  0  0  0  0  0
   -3.5990   -8.1820    3.9070 N   0  0  0  0  0  0  0  0  0  0  0  0
   -2.7690   -8.5900    2.9310 C   0  0  0  0  0  0  0  0  0  0  0  0
   -1.4130   -8.7240    3.0950 C   0  0  0  0  0  0  0  0  0  0  0  0
   -0.9230   -8.4090    4.3460 C   0  0  0  0  0  0  0  0  0  0  0  0
    0.5300   -8.5120    4.6630 C   0  0  0  0  0  0  0  0  0  0  0  0
    0.9080   -8.5710    5.9570 C   0  0  0  0  0  0  0  0  0  0  0  0
    2.2290   -8.6710    6.3160 N   0  0  0  0  0  0  0  0  0  0  0  0
    3.2640   -8.7140    5.4200 C   0  0  0  0  0  0  0  0  0  0  0  0
    4.4400   -8.8160    5.7630 O   0  0  0  0  0  0  0  0  0  0  0  0
    2.8910   -8.6280    3.9630 C   0  0  0  0  0  0  0  0  0  0  0  0
    3.9540   -8.6590    3.0820 N   0  0  0  0  0  0  0  0  0  0  0  0
    4.4050   -9.7160    2.3180 C   0  0  0  0  0  0  0  0  0  0  0  0
    3.8930  -10.8290    2.2670 O   0  0  0  0  0  0  0  0  0  0  0  0
    5.6030   -9.4350    1.4760 C   0  0  0  0  0  0  0  0  0  0  0  0
    6.8150   -9.1620    2.1120 C   0  0  0  0  0  0  0  0  0  0  0  0
    7.9650   -8.8940    1.3570 C   0  0  0  0  0  0  0  0  0  0  0  0
    7.9480   -8.8760   -0.0470 C   0  0  0  0  0  0  0  0  0  0  0  0
    9.0900   -8.6130   -0.7900 N   0  0  0  0  0  0  0  0  0  0  0  0
   10.2270   -7.8990   -0.2000 C   0  0  0  0  0  0  0  0  0  0  0  0
   11.5330   -8.3240   -0.8670 C   0  0  0  0  0  0  0  0  0  0  0  0
   11.5250   -8.0670   -2.3720 C   0  0  0  0  0  0  0  0  0  0  0  0
   10.1230   -8.1320   -2.9710 C   0  0  0  0  0  0  0  0  0  0  0  0
    9.1990   -9.0580   -2.1840 C   0  0  0  0  0  0  0  0  0  0  0  0
    6.7100   -9.1340   -0.6590 C   0  0  0  0  0  0  0  0  0  0  0  0
    5.5500   -9.4060    0.0820 C   0  0  0  0  0  0  0  0  0  0  0  0
    1.5880   -8.5280    3.6520 C   0  0  0  0  0  0  0  0  0  0  0  0
   -1.7350   -8.0070    5.3490 N   0  0  0  0  0  0  0  0  0  0  0  0
   -4.2389   -7.3989    8.1332 H   0  0  0  0  0  0  0  0  0  0  0  0
   -3.0061   -8.5810    7.5770 H   0  0  0  0  0  0  0  0  0  0  0  0
   -2.6304   -6.8244    7.5770 H   0  0  0  0  0  0  0  0  0  0  0  0
   -4.7970   -7.9520    5.8910 H   0  0  0  0  0  0  0  0  0  0  0  0
   -3.2002   -8.8294    1.9478 H   0  0  0  0  0  0  0  0  0  0  0  0
   -0.7570   -9.0618    2.2792 H   0  0  0  0  0  0  0  0  0  0  0  0
    0.1391   -8.5382    6.7429 H   0  0  0  0  0  0  0  0  0  0  0  0
    2.4840   -8.7170    7.2950 H   0  0  0  0  0  0  0  0  0  0  0  0
    4.4130   -7.7560    2.9840 H   0  0  0  0  0  0  0  0  0  0  0  0
    6.8679   -9.1572    3.2107 H   0  0  0  0  0  0  0  0  0  0  0  0
    8.9108   -8.6914    1.8808 H   0  0  0  0  0  0  0  0  0  0  0  0
   10.0857   -6.8169   -0.3386 H   0  0  0  0  0  0  0  0  0  0  0  0
   10.2807   -8.1415    0.8716 H   0  0  0  0  0  0  0  0  0  0  0  0
   12.3613   -7.7580   -0.4158 H   0  0  0  0  0  0  0  0  0  0  0  0
   11.6542   -9.4061   -0.7109 H   0  0  0  0  0  0  0  0  0  0  0  0
   11.9428   -7.0671   -2.5609 H   0  0  0  0  0  0  0  0  0  0  0  0
   12.1274   -8.8549   -2.8477 H   0  0  0  0  0  0  0  0  0  0  0  0
    9.6918   -7.1200   -2.9727 H   0  0  0  0  0  0  0  0  0  0  0  0
   10.2114   -8.5328   -3.9916 H   0  0  0  0  0  0  0  0  0  0  0  0
    8.2005   -9.0503   -2.6454 H   0  0  0  0  0  0  0  0  0  0  0  0
    9.6171  -10.0753   -2.2007 H   0  0  0  0  0  0  0  0  0  0  0  0
    6.6479   -9.1224   -1.7572 H   0  0  0  0  0  0  0  0  0  0  0  0
    4.5986   -9.5964   -0.4362 H   0  0  0  0  0  0  0  0  0  0  0  0
    1.3040   -8.4550    2.5918 H   0  0  0  0  0  0  0  0  0  0  0  0
  1  2  1  0
  2  3  1  0
  3  4  2  0
  4  5  1  0
  5  6  2  0
  6  7  1  0
  7  8  1  0
  8  9  2  0
  9 10  1  0
 10 11  1  0
 11 12  2  0
 11 13  1  0
 13 14  1  0
 14 15  1  0
 15 16  2  0
 15 17  1  0
 17 18  2  0
 18 19  1  0
 19 20  2  0
 20 21  1  0
 21 22  1  0
 22 23  1  0
 23 24  1  0
 24 25  1  0
 25 26  1  0
 20 27  1  0
 27 28  2  0
 13 29  2  0
  7 30  2  0
 30  3  1  0
 29  8  1  0
 28 17  1  0
 26 21  1  0
  1 31  1  0
  1 32  1  0
  1 33  1  0
  2 34  1  0
  5 35  1  0
  6 36  1  0
  9 37  1  0
 10 38  1  0
 14 39  1  0
 18 40  1  0
 19 41  1  0
 22 42  1  0
 22 43  1  0
 23 44  1  0
 23 45  1  0
 24 46  1  0
 24 47  1  0
 25 48  1  0
 25 49  1  0
 26 50  1  0
 26 51  1  0
 27 52  1  0
 28 53  1  0
 29 54  1  0
M  END
>  <meeko>  (1) 
{"is_sidechain": [false], "free_energy": -9.25, "intermolecular_energy": -11.954, "internal_energy": -0.89}

$$$$
3qgy_ligand
     RDKit          3D

 54 57  0  0  0  0  0  0  0  0999 V2000
   12.1280   -7.1090    3.0050 C   0  0  0  0  0  0  0  0  0  0  0  0
   12.5310   -8.2380    2.2010 N   0  0  0  0  0  0  0  0  0  0  0  0
   12.0190   -8.2400    0.9100 C   0  0  0  0  0  0  0  0  0  0  0  0
   12.9080   -8.0020   -0.0590 N   0  0  0  0  0  0  0  0  0  0  0  0
   12.4440   -8.0090   -1.3200 C   0  0  0  0  0  0  0  0  0  0  0  0
   11.1310   -8.2380   -1.6450 C   0  0  0  0  0  0  0  0  0  0  0  0
   10.2800   -8.4730   -0.5840 C   0  0  0  0  0  0  0  0  0  0  0  0
    8.8270   -8.7350   -0.7930 C   0  0  0  0  0  0  0  0  0  0  0  0
    8.4050   -9.1040   -2.0190 C   0  0  0  0  0  0  0  0  0  0  0  0
    7.0830   -9.3640   -2.2770 N   0  0  0  0  0  0  0  0  0  0  0  0
    6.0880   -9.2710   -1.3390 C   0  0  0  0  0  0  0  0  0  0  0  0
    4.9110   -9.5200   -1.5880 O   0  0  0  0  0  0  0  0  0  0  0  0
    6.5100   -8.8400    0.0410 C   0  0  0  0  0  0  0  0  0  0  0  0
    5.4870   -8.7400    0.9630 N   0  0  0  0  0  0  0  0  0  0  0  0
    5.4600   -9.1900    2.2680 C   0  0  0  0  0  0  0  0  0  0  0  0
    6.3890   -9.7380    2.8530 O   0  0  0  0  0  0  0  0  0  0  0  0
    4.1860   -8.9490    3.0050 C   0  0  0  0  0  0  0  0  0  0  0  0
    3.1610   -9.8880    2.8880 C   0  0  0  0  0  0  0  0  0  0  0  0
    1.9490   -9.6990    3.5650 C   0  0  0  0  0  0  0  0  0  0  0  0
    1.7110   -8.5720    4.3680 C   0  0  0  0  0  0  0  0  0  0  0  0
    0.5100   -8.3900    5.0390 N   0  0  0  0  0  0  0  0  0  0  0  0
    0.3390   -7.2940    5.9990 C   0  0  0  0  0  0  0  0  0  0  0  0
   -1.1220   -6.8550    6.0590 C   0  0  0  0  0  0  0  0  0  0  0  0
   -2.0540   -7.9980    6.4550 C   0  0  0  0  0  0  0  0  0  0  0  0
   -1.5210   -9.3630    6.0310 C   0  0  0  0  0  0  0  0  0  0  0  0
   -0.6310   -9.2790    4.7930 C   0  0  0  0  0  0  0  0  0  0  0  0
    2.7540   -7.6340    4.4520 C   0  0  0  0  0  0  0  0  0  0  0  0
    3.9740   -7.8090    3.7810 C   0  0  0  0  0  0  0  0  0  0  0  0
    7.8130   -8.5910    0.2530 C   0  0  0  0  0  0  0  0  0  0  0  0
   10.7160   -8.4620    0.6950 N   0  0  0  0  0  0  0  0  0  0  0  0
   12.2198   -7.3663    4.0705 H   0  0  0  0  0  0  0  0  0  0  0  0
   12.7744   -6.2482    2.7786 H   0  0  0  0  0  0  0  0  0  0  0  0
   11.0827   -6.8521    2.7786 H   0  0  0  0  0  0  0  0  0  0  0  0
   13.5320   -8.3680    2.1000 H   0  0  0  0  0  0  0  0  0  0  0  0
   13.1563   -7.8207   -2.1368 H   0  0  0  0  0  0  0  0  0  0  0  0
   10.7782   -8.2345   -2.6869 H   0  0  0  0  0  0  0  0  0  0  0  0
    9.1390   -9.1990   -2.8328 H   0  0  0  0  0  0  0  0  0  0  0  0
    6.7940   -9.6420   -3.2070 H   0  0  0  0  0  0  0  0  0  0  0  0
    4.6820   -8.2290    0.6080 H   0  0  0  0  0  0  0  0  0  0  0  0
    3.3049  -10.7806    2.2615 H   0  0  0  0  0  0  0  0  0  0  0  0
    1.1588  -10.4576    3.4643 H   0  0  0  0  0  0  0  0  0  0  0  0
    0.6555   -7.6341    6.9961 H   0  0  0  0  0  0  0  0  0  0  0  0
    0.9527   -6.4403    5.6755 H   0  0  0  0  0  0  0  0  0  0  0  0
   -1.2186   -6.0470    6.7991 H   0  0  0  0  0  0  0  0  0  0  0  0
   -1.4133   -6.5156    5.0540 H   0  0  0  0  0  0  0  0  0  0  0  0
   -2.1752   -7.9912    7.5483 H   0  0  0  0  0  0  0  0  0  0  0  0
   -3.0129   -7.8399    5.9396 H   0  0  0  0  0  0  0  0  0  0  0  0
   -0.9350   -9.7869    6.8598 H   0  0  0  0  0  0  0  0  0  0  0  0
   -2.3837   -9.9986    5.7825 H   0  0  0  0  0  0  0  0  0  0  0  0
   -0.2596  -10.2844    4.5454 H   0  0  0  0  0  0  0  0  0  0  0  0
   -1.2218   -8.8761    3.9571 H   0  0  0  0  0  0  0  0  0  0  0  0
    2.6092   -6.7319    5.0646 H   0  0  0  0  0  0  0  0  0  0  0  0
    4.7631   -7.0475    3.8668 H   0  0  0  0  0  0  0  0  0  0  0  0
    8.1313   -8.2653    1.2543 H   0  0  0  0  0  0  0  0  0  0  0  0
  1  2  1  0
  2  3  1  0
  3  4  2  0
  4  5  1  0
  5  6  2  0
  6  7  1  0
  7  8  1  0
  8  9  2  0
  9 10  1  0
 10 11  1  0
 11 12  2  0
 11 13  1  0
 13 14  1  0
 14 15  1  0
 15 16  2  0
 15 17  1  0
 17 18  2  0
 18 19  1  0
 19 20  2  0
 20 21  1  0
 21 22  1  0
 22 23  1  0
 23 24  1  0
 24 25  1  0
 25 26  1  0
 20 27  1  0
 27 28  2  0
 13 29  2  0
  7 30  2  0
 30  3  1  0
 29  8  1  0
 28 17  1  0
 26 21  1  0
  1 31  1  0
  1 32  1  0
  1 33  1  0
  2 34  1  0
  5 35  1  0
  6 36  1  0
  9 37  1  0
 10 38  1  0
 14 39  1  0
 18 40  1  0
 19 41  1  0
 22 42  1  0
 22 43  1  0
 23 44  1  0
 23 45  1  0
 24 46  1  0
 24 47  1  0
 25 48  1  0
 25 49  1  0
 26 50  1  0
 26 51  1  0
 27 52  1  0
 28 53  1  0
 29 54  1  0
M  END
>  <meeko>  (2) 
{"is_sidechain": [false], "free_energy": -8.901, "intermolecular_energy": -11.663, "internal_energy": -0.729}

$$$$
3qgy_ligand
     RDKit          3D

 54 57  0  0  0  0  0  0  0  0999 V2000
   -1.8010   -9.3570    1.5530 C   0  0  0  0  0  0  0  0  0  0  0  0
   -2.7530   -8.7070    2.4220 N   0  0  0  0  0  0  0  0  0  0  0  0
   -2.2510   -8.3540    3.6670 C   0  0  0  0  0  0  0  0  0  0  0  0
   -3.1530   -8.2860    4.6510 N   0  0  0  0  0  0  0  0  0  0  0  0
   -2.6960   -7.9570    5.8710 C   0  0  0  0  0  0  0  0  0  0  0  0
   -1.3770   -7.6910    6.1410 C   0  0  0  0  0  0  0  0  0  0  0  0
   -0.5120   -7.7820    5.0690 C   0  0  0  0  0  0  0  0  0  0  0  0
    0.9470   -7.5170    5.2190 C   0  0  0  0  0  0  0  0  0  0  0  0
    1.3940   -6.9950    6.3790 C   0  0  0  0  0  0  0  0  0  0  0  0
    2.7260   -6.7310    6.5820 N   0  0  0  0  0  0  0  0  0  0  0  0
    3.7030   -6.9610    5.6500 C   0  0  0  0  0  0  0  0  0  0  0  0
    4.8920   -6.7290    5.8580 O   0  0  0  0  0  0  0  0  0  0  0  0
    3.2470   -7.5240    4.3290 C   0  0  0  0  0  0  0  0  0  0  0  0
    4.2480   -7.7330    3.4020 N   0  0  0  0  0  0  0  0  0  0  0  0
    4.6800   -8.9260    2.8590 C   0  0  0  0  0  0  0  0  0  0  0  0
    4.2000  -10.0310    3.0920 O   0  0  0  0  0  0  0  0  0  0  0  0
    5.8100   -8.8200    1.8920 C   0  0  0  0  0  0  0  0  0  0  0  0
    6.9740   -8.1650    2.2970 C   0  0  0  0  0  0  0  0  0  0  0  0
    8.0590   -8.0450    1.4180 C   0  0  0  0  0  0  0  0  0  0  0  0
    8.0220   -8.5590    0.1120 C   0  0  0  0  0  0  0  0  0  0  0  0
    9.1000   -8.4400   -0.7540 N   0  0  0  0  0  0  0  0  0  0  0  0
    9.0600   -9.0310   -2.0950 C   0  0  0  0  0  0  0  0  0  0  0  0
    9.9380   -8.2370   -3.0590 C   0  0  0  0  0  0  0  0  0  0  0  0
   11.3920   -8.1720   -2.5990 C   0  0  0  0  0  0  0  0  0  0  0  0
   11.5310   -8.2510   -1.0820 C   0  0  0  0  0  0  0  0  0  0  0  0
   10.3040   -7.7020   -0.3570 C   0  0  0  0  0  0  0  0  0  0  0  0
    6.8300   -9.1950   -0.2740 C   0  0  0  0  0  0  0  0  0  0  0  0
    5.7350   -9.3250    0.5940 C   0  0  0  0  0  0  0  0  0  0  0  0
    1.9350   -7.7660    4.1670 C   0  0  0  0  0  0  0  0  0  0  0  0
   -0.9460   -8.1000    3.8280 N   0  0  0  0  0  0  0  0  0  0  0  0
   -1.0436   -9.8741    2.1604 H   0  0  0  0  0  0  0  0  0  0  0  0
   -2.3234  -10.0878    0.9182 H   0  0  0  0  0  0  0  0  0  0  0  0
   -1.3105   -8.6043    0.9182 H   0  0  0  0  0  0  0  0  0  0  0  0
   -3.1810   -7.8660    2.0500 H   0  0  0  0  0  0  0  0  0  0  0  0
   -3.4184   -7.8976    6.6984 H   0  0  0  0  0  0  0  0  0  0  0  0
   -1.0303   -7.4218    7.1496 H   0  0  0  0  0  0  0  0  0  0  0  0
    0.6746   -6.7755    7.1817 H   0  0  0  0  0  0  0  0  0  0  0  0
    3.0340   -6.3420    7.4650 H   0  0  0  0  0  0  0  0  0  0  0  0
    4.6720   -6.8670    3.0750 H   0  0  0  0  0  0  0  0  0  0  0  0
    7.0401   -7.7413    3.3100 H   0  0  0  0  0  0  0  0  0  0  0  0
    8.9688   -7.5316    1.7624 H   0  0  0  0  0  0  0  0  0  0  0  0
    9.4247  -10.0675   -2.0442 H   0  0  0  0  0  0  0  0  0  0  0  0
    8.0228   -9.0098   -2.4609 H   0  0  0  0  0  0  0  0  0  0  0  0
    9.9011   -8.7170   -4.0481 H   0  0  0  0  0  0  0  0  0  0  0  0
    9.5508   -7.2081   -3.0969 H   0  0  0  0  0  0  0  0  0  0  0  0
   11.9414   -9.0129   -3.0475 H   0  0  0  0  0  0  0  0  0  0  0  0
   11.8005   -7.2028   -2.9211 H   0  0  0  0  0  0  0  0  0  0  0  0
   11.6702   -9.3035   -0.7941 H   0  0  0  0  0  0  0  0  0  0  0  0
   12.3959   -7.6366   -0.7914 H   0  0  0  0  0  0  0  0  0  0  0  0
   10.4494   -7.8036    0.7286 H   0  0  0  0  0  0  0  0  0  0  0  0
   10.1767   -6.6428   -0.6250 H   0  0  0  0  0  0  0  0  0  0  0  0
    6.7525   -9.6052   -1.2917 H   0  0  0  0  0  0  0  0  0  0  0  0
    4.8174   -9.8252    0.2507 H   0  0  0  0  0  0  0  0  0  0  0  0
    1.5886   -8.1681    3.2035 H   0  0  0  0  0  0  0  0  0  0  0  0
  1  2  1  0
  2  3  1  0
  3  4  2  0
  4  5  1  0
  5  6  2  0
  6  7  1  0
  7  8  1  0
  8  9  2  0
  9 10  1  0
 10 11  1  0
 11 12  2  0
 11 13  1  0
 13 14  1  0
 14 15  1  0
 15 16  2  0
 15 17  1  0
 17 18  2  0
 18 19  1  0
 19 20  2  0
 20 21  1  0
 21 22  1  0
 22 23  1  0
 23 24  1  0
 24 25  1  0
 25 26  1  0
 20 27  1  0
 27 28  2  0
 13 29  2  0
  7 30  2  0
 30  3  1  0
 29  8  1  0
 28 17  1  0
 26 21  1  0
  1 31  1  0
  1 32  1  0
  1 33  1  0
  2 34  1  0
  5 35  1  0
  6 36  1  0
  9 37  1  0
 10 38  1  0
 14 39  1  0
 18 40  1  0
 19 41  1  0
 22 42  1  0
 22 43  1  0
 23 44  1  0
 23 45  1  0
 24 46  1  0
 24 47  1  0
 25 48  1  0
 25 49  1  0
 26 50  1  0
 26 51  1  0
 27 52  1  0
 28 53  1  0
 29 54  1  0
M  END
>  <meeko>  (3) 
{"is_sidechain": [false], "free_energy": -8.882, "intermolecular_energy": -11.48, "internal_energy": -0.888}

$$$$
3qgy_ligand
     RDKit          3D

 54 57  0  0  0  0  0  0  0  0999 V2000
   13.4070   -8.1350   -0.2860 C   0  0  0  0  0  0  0  0  0  0  0  0
   12.6370   -7.8480   -1.4730 N   0  0  0  0  0  0  0  0  0  0  0  0
   11.2770   -8.0960   -1.3530 C   0  0  0  0  0  0  0  0  0  0  0  0
   10.6690   -8.5140   -2.4670 N   0  0  0  0  0  0  0  0  0  0  0  0
    9.3530   -8.7740   -2.3790 C   0  0  0  0  0  0  0  0  0  0  0  0
    8.6260   -8.6250   -1.2250 C   0  0  0  0  0  0  0  0  0  0  0  0
    9.3300   -8.1870   -0.1210 C   0  0  0  0  0  0  0  0  0  0  0  0
    8.6650   -7.9800    1.1970 C   0  0  0  0  0  0  0  0  0  0  0  0
    9.4160   -7.5950    2.2480 C   0  0  0  0  0  0  0  0  0  0  0  0
    8.8640   -7.3830    3.4870 N   0  0  0  0  0  0  0  0  0  0  0  0
    7.5330   -7.5440    3.7700 C   0  0  0  0  0  0  0  0  0  0  0  0
    7.0580   -7.3370    4.8830 O   0  0  0  0  0  0  0  0  0  0  0  0
    6.6580   -7.9950    2.6290 C   0  0  0  0  0  0  0  0  0  0  0  0
    5.3240   -8.1630    2.9440 N   0  0  0  0  0  0  0  0  0  0  0  0
    4.6730   -9.3150    3.3330 C   0  0  0  0  0  0  0  0  0  0  0  0
    5.2010  -10.4100    3.5050 O   0  0  0  0  0  0  0  0  0  0  0  0
    3.2090   -9.1740    3.5800 C   0  0  0  0  0  0  0  0  0  0  0  0
    2.7180   -7.9310    3.9820 C   0  0  0  0  0  0  0  0  0  0  0  0
    1.3480   -7.7570    4.2230 C   0  0  0  0  0  0  0  0  0  0  0  0
    0.4270   -8.8080    4.0860 C   0  0  0  0  0  0  0  0  0  0  0  0
   -0.9280   -8.6300    4.3240 N   0  0  0  0  0  0  0  0  0  0  0  0
   -1.7480   -7.8000    3.4350 C   0  0  0  0  0  0  0  0  0  0  0  0
   -3.1960   -8.2850    3.4300 C   0  0  0  0  0  0  0  0  0  0  0  0
   -3.8170   -8.2660    4.8240 C   0  0  0  0  0  0  0  0  0  0  0  0
   -2.7850   -8.4650    5.9300 C   0  0  0  0  0  0  0  0  0  0  0  0
   -1.5840   -9.2840    5.4610 C   0  0  0  0  0  0  0  0  0  0  0  0
    0.9530  -10.0520    3.7000 C   0  0  0  0  0  0  0  0  0  0  0  0
    2.3210  -10.2430    3.4520 C   0  0  0  0  0  0  0  0  0  0  0  0
    7.2350   -8.1940    1.4330 C   0  0  0  0  0  0  0  0  0  0  0  0
   10.6510   -7.9080   -0.1830 N   0  0  0  0  0  0  0  0  0  0  0  0
   12.8036   -7.9101    0.6058 H   0  0  0  0  0  0  0  0  0  0  0  0
   13.6884   -9.1984   -0.2797 H   0  0  0  0  0  0  0  0  0  0  0  0
   14.3157   -7.5152   -0.2797 H   0  0  0  0  0  0  0  0  0  0  0  0
   12.7140   -6.9000   -1.8250 H   0  0  0  0  0  0  0  0  0  0  0  0
    8.8307   -9.1253   -3.2811 H   0  0  0  0  0  0  0  0  0  0  0  0
    7.5483   -8.8412   -1.1820 H   0  0  0  0  0  0  0  0  0  0  0  0
   10.4972   -7.4471    2.1096 H   0  0  0  0  0  0  0  0  0  0  0  0
    9.4520   -7.0910    4.2590 H   0  0  0  0  0  0  0  0  0  0  0  0
    4.7960   -7.2930    2.9090 H   0  0  0  0  0  0  0  0  0  0  0  0
    3.4087   -7.0845    4.1102 H   0  0  0  0  0  0  0  0  0  0  0  0
    0.9829   -6.7656    4.5292 H   0  0  0  0  0  0  0  0  0  0  0  0
   -1.7173   -6.7573    3.7839 H   0  0  0  0  0  0  0  0  0  0  0  0
   -1.3468   -7.8716    2.4133 H   0  0  0  0  0  0  0  0  0  0  0  0
   -3.7859   -7.6312    2.7708 H   0  0  0  0  0  0  0  0  0  0  0  0
   -3.2016   -9.3254    3.0728 H   0  0  0  0  0  0  0  0  0  0  0  0
   -4.3127   -7.2958    4.9754 H   0  0  0  0  0  0  0  0  0  0  0  0
   -4.5313   -9.1006    4.8814 H   0  0  0  0  0  0  0  0  0  0  0  0
   -2.4315   -7.4789    6.2657 H   0  0  0  0  0  0  0  0  0  0  0  0
   -3.2704   -9.0173    6.7481 H   0  0  0  0  0  0  0  0  0  0  0  0
   -0.8651   -9.3784    6.2882 H   0  0  0  0  0  0  0  0  0  0  0  0
   -1.9330  -10.2785    5.1461 H   0  0  0  0  0  0  0  0  0  0  0  0
    0.2689  -10.9061    3.5882 H   0  0  0  0  0  0  0  0  0  0  0  0
    2.6933  -11.2351    3.1568 H   0  0  0  0  0  0  0  0  0  0  0  0
    6.6076   -8.5319    0.5951 H   0  0  0  0  0  0  0  0  0  0  0  0
  1  2  1  0
  2  3  1  0
  3  4  2  0
  4  5  1  0
  5  6  2  0
  6  7  1  0
  7  8  1  0
  8  9  2  0
  9 10  1  0
 10 11  1  0
 11 12  2  0
 11 13  1  0
 13 14  1  0
 14 15  1  0
 15 16  2  0
 15 17  1  0
 17 18  2  0
 18 19  1  0
 19 20  2  0
 20 21  1  0
 21 22  1  0
 22 23  1  0
 23 24  1  0
 24 25  1  0
 25 26  1  0
 20 27  1  0
 27 28  2  0
 13 29  2  0
  7 30  2  0
 30  3  1  0
 29  8  1  0
 28 17  1  0
 26 21  1  0
  1 31  1  0
  1 32  1  0
  1 33  1  0
  2 34  1  0
  5 35  1  0
  6 36  1  0
  9 37  1  0
 10 38  1  0
 14 39  1  0
 18 40  1  0
 19 41  1  0
 22 42  1  0
 22 43  1  0
 23 44  1  0
 23 45  1  0
 24 46  1  0
 24 47  1  0
 25 48  1  0
 25 49  1  0
 26 50  1  0
 26 51  1  0
 27 52  1  0
 28 53  1  0
 29 54  1  0
M  END
>  <meeko>  (4) 
{"is_sidechain": [false], "free_energy": -8.843, "intermolecular_energy": -11.428, "internal_energy": -0.889}

$$$$
3qgy_ligand
     RDKit          3D

 54 57  0  0  0  0  0  0  0  0999 V2000
   11.8270   -8.2250   -1.9140 C   0  0  0  0  0  0  0  0  0  0  0  0
   10.8550   -8.0120   -2.9600 N   0  0  0  0  0  0  0  0  0  0  0  0
    9.5620   -8.3950   -2.6340 C   0  0  0  0  0  0  0  0  0  0  0  0
    8.7490   -8.6130   -3.6730 N   0  0  0  0  0  0  0  0  0  0  0  0
    7.4930   -8.9970   -3.3900 C   0  0  0  0  0  0  0  0  0  0  0  0
    7.0210   -9.1640   -2.1120 C   0  0  0  0  0  0  0  0  0  0  0  0
    7.9240   -8.9160   -1.0980 C   0  0  0  0  0  0  0  0  0  0  0  0
    7.5440   -9.0570    0.3360 C   0  0  0  0  0  0  0  0  0  0  0  0
    8.5110   -9.3160    1.2400 C   0  0  0  0  0  0  0  0  0  0  0  0
    8.2290   -9.4520    2.5760 N   0  0  0  0  0  0  0  0  0  0  0  0
    6.9700   -9.3470    3.1070 C   0  0  0  0  0  0  0  0  0  0  0  0
    6.7410   -9.4610    4.3090 O   0  0  0  0  0  0  0  0  0  0  0  0
    5.8540   -9.0800    2.1310 C   0  0  0  0  0  0  0  0  0  0  0  0
    4.5940   -8.9930    2.6900 N   0  0  0  0  0  0  0  0  0  0  0  0
    3.6680   -9.9980    2.8800 C   0  0  0  0  0  0  0  0  0  0  0  0
    3.8360  -11.1830    2.6080 O   0  0  0  0  0  0  0  0  0  0  0  0
    2.3770   -9.5750    3.4930 C   0  0  0  0  0  0  0  0  0  0  0  0
    1.4210  -10.5520    3.7750 C   0  0  0  0  0  0  0  0  0  0  0  0
    0.1950  -10.1960    4.3520 C   0  0  0  0  0  0  0  0  0  0  0  0
   -0.1270   -8.8640    4.6570 C   0  0  0  0  0  0  0  0  0  0  0  0
   -1.3420   -8.5160    5.2310 N   0  0  0  0  0  0  0  0  0  0  0  0
   -1.4760   -8.3690    6.6840 C   0  0  0  0  0  0  0  0  0  0  0  0
   -2.5700   -7.3600    7.0240 C   0  0  0  0  0  0  0  0  0  0  0  0
   -3.9260   -7.7600    6.4480 C   0  0  0  0  0  0  0  0  0  0  0  0
   -3.8010   -8.5850    5.1710 C   0  0  0  0  0  0  0  0  0  0  0  0
   -2.5230   -8.2660    4.3980 C   0  0  0  0  0  0  0  0  0  0  0  0
    0.8470   -7.9000    4.3450 C   0  0  0  0  0  0  0  0  0  0  0  0
    2.0800   -8.2400    3.7680 C   0  0  0  0  0  0  0  0  0  0  0  0
    6.1700   -8.9560    0.8320 C   0  0  0  0  0  0  0  0  0  0  0  0
    9.1900   -8.5190   -1.3540 N   0  0  0  0  0  0  0  0  0  0  0  0
   11.3399   -8.1183   -0.9335 H   0  0  0  0  0  0  0  0  0  0  0  0
   12.2486   -9.2368   -2.0057 H   0  0  0  0  0  0  0  0  0  0  0  0
   12.6331   -7.4822   -2.0057 H   0  0  0  0  0  0  0  0  0  0  0  0
   10.7820   -7.0590   -3.3010 H   0  0  0  0  0  0  0  0  0  0  0  0
    6.8060   -9.1878   -4.2276 H   0  0  0  0  0  0  0  0  0  0  0  0
    5.9862   -9.4764   -1.9083 H   0  0  0  0  0  0  0  0  0  0  0  0
    9.5512   -9.4208    0.8978 H   0  0  0  0  0  0  0  0  0  0  0  0
    8.9760   -9.6440    3.2330 H   0  0  0  0  0  0  0  0  0  0  0  0
    4.3740   -8.0580    3.0260 H   0  0  0  0  0  0  0  0  0  0  0  0
    1.6312  -11.6065    3.5431 H   0  0  0  0  0  0  0  0  0  0  0  0
   -0.5386  -10.9852    4.5731 H   0  0  0  0  0  0  0  0  0  0  0  0
   -1.7341   -9.3438    7.1236 H   0  0  0  0  0  0  0  0  0  0  0  0
   -0.5210   -8.0076    7.0932 H   0  0  0  0  0  0  0  0  0  0  0  0
   -2.6576   -7.2884    8.1182 H   0  0  0  0  0  0  0  0  0  0  0  0
   -2.2872   -6.3943    6.5797 H   0  0  0  0  0  0  0  0  0  0  0  0
   -4.4666   -8.3540    7.1996 H   0  0  0  0  0  0  0  0  0  0  0  0
   -4.4664   -6.8357    6.1958 H   0  0  0  0  0  0  0  0  0  0  0  0
   -3.7958   -9.6520    5.4382 H   0  0  0  0  0  0  0  0  0  0  0  0
   -4.6560   -8.3370    4.5249 H   0  0  0  0  0  0  0  0  0  0  0  0
   -2.4744   -8.9013    3.5013 H   0  0  0  0  0  0  0  0  0  0  0  0
   -2.5370   -7.2043    4.1107 H   0  0  0  0  0  0  0  0  0  0  0  0
    0.6354   -6.8423    4.5606 H   0  0  0  0  0  0  0  0  0  0  0  0
    2.8124   -7.4538    3.5325 H   0  0  0  0  0  0  0  0  0  0  0  0
    5.3618   -8.7705    0.1092 H   0  0  0  0  0  0  0  0  0  0  0  0
  1  2  1  0
  2  3  1  0
  3  4  2  0
  4  5  1  0
  5  6  2  0
  6  7  1  0
  7  8  1  0
  8  9  2  0
  9 10  1  0
 10 11  1  0
 11 12  2  0
 11 13  1  0
 13 14  1  0
 14 15  1  0
 15 16  2  0
 15 17  1  0
 17 18  2  0
 18 19  1  0
 19 20  2  0
 20 21  1  0
 21 22  1  0
 22 23  1  0
 23 24  1  0
 24 25  1  0
 25 26  1  0
 20 27  1  0
 27 28  2  0
 13 29  2  0
  7 30  2  0
 30  3  1  0
 29  8  1  0
 28 17  1  0
 26 21  1  0
  1 31  1  0
  1 32  1  0
  1 33  1  0
  2 34  1  0
  5 35  1  0
  6 36  1  0
  9 37  1  0
 10 38  1  0
 14 39  1  0
 18 40  1  0
 19 41  1  0
 22 42  1  0
 22 43  1  0
 23 44  1  0
 23 45  1  0
 24 46  1  0
 24 47  1  0
 25 48  1  0
 25 49  1  0
 26 50  1  0
 26 51  1  0
 27 52  1  0
 28 53  1  0
 29 54  1  0
M  END
>  <meeko>  (5) 
{"is_sidechain": [false], "free_energy": -8.681, "intermolecular_energy": -11.221, "internal_energy": -0.887}

$$$$
3qgy_ligand
     RDKit          3D

 54 57  0  0  0  0  0  0  0  0999 V2000
   12.5800   -5.3800    3.9150 C   0  0  0  0  0  0  0  0  0  0  0  0
   11.4270   -6.2490    3.9110 N   0  0  0  0  0  0  0  0  0  0  0  0
   11.3100   -7.0480    2.7820 C   0  0  0  0  0  0  0  0  0  0  0  0
   12.4640   -7.4430    2.2370 N   0  0  0  0  0  0  0  0  0  0  0  0
   12.3830   -8.2280    1.1490 C   0  0  0  0  0  0  0  0  0  0  0  0
   11.1960   -8.6250    0.5860 C   0  0  0  0  0  0  0  0  0  0  0  0
   10.0520   -8.1700    1.2100 C   0  0  0  0  0  0  0  0  0  0  0  0
    8.6950   -8.5230    0.7030 C   0  0  0  0  0  0  0  0  0  0  0  0
    8.5640   -8.9110   -0.5820 C   0  0  0  0  0  0  0  0  0  0  0  0
    7.3440   -9.2540   -1.1090 N   0  0  0  0  0  0  0  0  0  0  0  0
    6.1710   -9.2290   -0.4020 C   0  0  0  0  0  0  0  0  0  0  0  0
    5.0910   -9.5520   -0.8900 O   0  0  0  0  0  0  0  0  0  0  0  0
    6.2650   -8.7810    1.0330 C   0  0  0  0  0  0  0  0  0  0  0  0
    5.0670   -8.7510    1.7190 N   0  0  0  0  0  0  0  0  0  0  0  0
    4.6680   -9.5350    2.7830 C   0  0  0  0  0  0  0  0  0  0  0  0
    5.3530  -10.3900    3.3360 O   0  0  0  0  0  0  0  0  0  0  0  0
    3.2910   -9.2740    3.2920 C   0  0  0  0  0  0  0  0  0  0  0  0
    2.3720  -10.3240    3.2950 C   0  0  0  0  0  0  0  0  0  0  0  0
    1.0680  -10.1200    3.7670 C   0  0  0  0  0  0  0  0  0  0  0  0
    0.6320   -8.8710    4.2380 C   0  0  0  0  0  0  0  0  0  0  0  0
   -0.6600   -8.6750    4.7060 N   0  0  0  0  0  0  0  0  0  0  0  0
   -1.6120   -7.8400    3.9670 C   0  0  0  0  0  0  0  0  0  0  0  0
   -3.0440   -8.3070    4.2180 C   0  0  0  0  0  0  0  0  0  0  0  0
   -3.4130   -8.2720    5.6990 C   0  0  0  0  0  0  0  0  0  0  0  0
   -2.2060   -8.4760    6.6100 C   0  0  0  0  0  0  0  0  0  0  0  0
   -1.1150   -9.3130    5.9460 C   0  0  0  0  0  0  0  0  0  0  0  0
    1.5730   -7.8280    4.2050 C   0  0  0  0  0  0  0  0  0  0  0  0
    2.8830   -8.0160    3.7380 C   0  0  0  0  0  0  0  0  0  0  0  0
    7.4760   -8.4510    1.5120 C   0  0  0  0  0  0  0  0  0  0  0  0
   10.1030   -7.3710    2.2990 N   0  0  0  0  0  0  0  0  0  0  0  0
   12.8705   -5.1610    4.9531 H   0  0  0  0  0  0  0  0  0  0  0  0
   13.4145   -5.8757    3.3975 H   0  0  0  0  0  0  0  0  0  0  0  0
   12.3334   -4.4412    3.3975 H   0  0  0  0  0  0  0  0  0  0  0  0
   11.3510   -6.8780    4.7030 H   0  0  0  0  0  0  0  0  0  0  0  0
   13.3192   -8.5710    0.6844 H   0  0  0  0  0  0  0  0  0  0  0  0
   11.1586   -9.2660   -0.3071 H   0  0  0  0  0  0  0  0  0  0  0  0
    9.4567   -8.9536   -1.2233 H   0  0  0  0  0  0  0  0  0  0  0  0
    7.2760   -9.5450   -2.0770 H   0  0  0  0  0  0  0  0  0  0  0  0
    4.4410   -8.0190    1.3920 H   0  0  0  0  0  0  0  0  0  0  0  0
    2.6720  -11.3157    2.9255 H   0  0  0  0  0  0  0  0  0  0  0  0
    0.3639  -10.9651    3.7685 H   0  0  0  0  0  0  0  0  0  0  0  0
   -1.5092   -6.7958    4.2971 H   0  0  0  0  0  0  0  0  0  0  0  0
   -1.3955   -7.9221    2.8916 H   0  0  0  0  0  0  0  0  0  0  0  0
   -3.7323   -7.6499    3.6662 H   0  0  0  0  0  0  0  0  0  0  0  0
   -3.1232   -9.3494    3.8757 H   0  0  0  0  0  0  0  0  0  0  0  0
   -3.8648   -7.2952    5.9264 H   0  0  0  0  0  0  0  0  0  0  0  0
   -4.1152   -9.0977    5.8868 H   0  0  0  0  0  0  0  0  0  0  0  0
   -1.7884   -7.4921    6.8699 H   0  0  0  0  0  0  0  0  0  0  0  0
   -2.5471   -9.0162    7.5054 H   0  0  0  0  0  0  0  0  0  0  0  0
   -0.2639   -9.4110    6.6359 H   0  0  0  0  0  0  0  0  0  0  0  0
   -1.5250  -10.3050    5.7056 H   0  0  0  0  0  0  0  0  0  0  0  0
    1.2726   -6.8301    4.5572 H   0  0  0  0  0  0  0  0  0  0  0  0
    3.5882   -7.1719    3.7235 H   0  0  0  0  0  0  0  0  0  0  0  0
    7.5555   -8.1125    2.5556 H   0  0  0  0  0  0  0  0  0  0  0  0
  1  2  1  0
  2  3  1  0
  3  4  2  0
  4  5  1  0
  5  6  2  0
  6  7  1  0
  7  8  1  0
  8  9  2  0
  9 10  1  0
 10 11  1  0
 11 12  2  0
 11 13  1  0
 13 14  1  0
 14 15  1  0
 15 16  2  0
 15 17  1  0
 17 18  2  0
 18 19  1  0
 19 20  2  0
 20 21  1  0
 21 22  1  0
 22 23  1  0
 23 24  1  0
 24 25  1  0
 25 26  1  0
 20 27  1  0
 27 28  2  0
 13 29  2  0
  7 30  2  0
 30  3  1  0
 29  8  1  0
 28 17  1  0
 26 21  1  0
  1 31  1  0
  1 32  1  0
  1 33  1  0
  2 34  1  0
  5 35  1  0
  6 36  1  0
  9 37  1  0
 10 38  1  0
 14 39  1  0
 18 40  1  0
 19 41  1  0
 22 42  1  0
 22 43  1  0
 23 44  1  0
 23 45  1  0
 24 46  1  0
 24 47  1  0
 25 48  1  0
 25 49  1  0
 26 50  1  0
 26 51  1  0
 27 52  1  0
 28 53  1  0
 29 54  1  0
M  END
>  <meeko>  (6) 
{"is_sidechain": [false], "free_energy": -8.605, "intermolecular_energy": -11.163, "internal_energy": -0.846}

$$$$
3qgy_ligand
     RDKit          3D

 54 57  0  0  0  0  0  0  0  0999 V2000
   13.3390   -6.5170    3.4540 C   0  0  0  0  0  0  0  0  0  0  0  0
   13.2750   -7.8640    2.9390 N   0  0  0  0  0  0  0  0  0  0  0  0
   12.9540   -7.9530    1.5920 C   0  0  0  0  0  0  0  0  0  0  0  0
   13.9740   -7.7760    0.7470 N   0  0  0  0  0  0  0  0  0  0  0  0
   13.6970   -7.8670   -0.5650 C   0  0  0  0  0  0  0  0  0  0  0  0
   12.4420   -8.1220   -1.0600 C   0  0  0  0  0  0  0  0  0  0  0  0
   11.4460   -8.2890   -0.1190 C   0  0  0  0  0  0  0  0  0  0  0  0
   10.0370   -8.5690   -0.5170 C   0  0  0  0  0  0  0  0  0  0  0  0
    9.7800   -8.9070   -1.7960 C   0  0  0  0  0  0  0  0  0  0  0  0
    8.5060   -9.1810   -2.2260 N   0  0  0  0  0  0  0  0  0  0  0  0
    7.3990   -9.1330   -1.4190 C   0  0  0  0  0  0  0  0  0  0  0  0
    6.2680   -9.3940   -1.8210 O   0  0  0  0  0  0  0  0  0  0  0  0
    7.6350   -8.7380    0.0150 C   0  0  0  0  0  0  0  0  0  0  0  0
    6.5030   -8.6830    0.8030 N   0  0  0  0  0  0  0  0  0  0  0  0
    6.3020   -9.2260    2.0560 C   0  0  0  0  0  0  0  0  0  0  0  0
    7.1400   -9.8350    2.7120 O   0  0  0  0  0  0  0  0  0  0  0  0
    4.9460   -9.0110    2.6390 C   0  0  0  0  0  0  0  0  0  0  0  0
    4.7100   -7.8410    3.3630 C   0  0  0  0  0  0  0  0  0  0  0  0
    3.4490   -7.6010    3.9260 C   0  0  0  0  0  0  0  0  0  0  0  0
    2.3900   -8.5150    3.8010 C   0  0  0  0  0  0  0  0  0  0  0  0
    1.1430   -8.2720    4.3580 N   0  0  0  0  0  0  0  0  0  0  0  0
    0.9910   -8.0410    5.7990 C   0  0  0  0  0  0  0  0  0  0  0  0
   -0.2130   -7.1450    6.0760 C   0  0  0  0  0  0  0  0  0  0  0  0
   -1.5130   -7.7400    5.5390 C   0  0  0  0  0  0  0  0  0  0  0  0
   -1.2910   -8.6320    4.3210 C   0  0  0  0  0  0  0  0  0  0  0  0
   -0.0590   -8.2200    3.5180 C   0  0  0  0  0  0  0  0  0  0  0  0
    2.6630   -9.6920    3.0840 C   0  0  0  0  0  0  0  0  0  0  0  0
    3.9190   -9.9470    2.5120 C   0  0  0  0  0  0  0  0  0  0  0  0
    8.8960   -8.4740    0.3960 C   0  0  0  0  0  0  0  0  0  0  0  0
   11.6940   -8.1920    1.2060 N   0  0  0  0  0  0  0  0  0  0  0  0
   13.3377   -6.5444    4.5537 H   0  0  0  0  0  0  0  0  0  0  0  0
   14.2612   -6.0327    3.1004 H   0  0  0  0  0  0  0  0  0  0  0  0
   12.4669   -5.9474    3.1004 H   0  0  0  0  0  0  0  0  0  0  0  0
   14.1170   -8.4170    3.0590 H   0  0  0  0  0  0  0  0  0  0  0  0
   14.5206   -7.7297   -1.2812 H   0  0  0  0  0  0  0  0  0  0  0  0
   12.2426   -8.1891   -2.1397 H   0  0  0  0  0  0  0  0  0  0  0  0
   10.6121   -8.9647   -2.5131 H   0  0  0  0  0  0  0  0  0  0  0  0
    8.3420   -9.4360   -3.1930 H   0  0  0  0  0  0  0  0  0  0  0  0
    5.7570   -8.1290    0.3870 H   0  0  0  0  0  0  0  0  0  0  0  0
    5.5168   -7.1045    3.4922 H   0  0  0  0  0  0  0  0  0  0  0  0
    3.2836   -6.6672    4.4834 H   0  0  0  0  0  0  0  0  0  0  0  0
    0.8475   -9.0063    6.3066 H   0  0  0  0  0  0  0  0  0  0  0  0
    1.8970   -7.5436    6.1756 H   0  0  0  0  0  0  0  0  0  0  0  0
   -0.3092   -7.0076    7.1631 H   0  0  0  0  0  0  0  0  0  0  0  0
   -0.0444   -6.1863    5.5637 H   0  0  0  0  0  0  0  0  0  0  0  0
   -1.9810   -8.3392    6.3339 H   0  0  0  0  0  0  0  0  0  0  0  0
   -2.1578   -6.9051    5.2274 H   0  0  0  0  0  0  0  0  0  0  0  0
   -1.1605   -9.6698    4.6616 H   0  0  0  0  0  0  0  0  0  0  0  0
   -2.1689   -8.5317    3.6658 H   0  0  0  0  0  0  0  0  0  0  0  0
    0.0643   -8.9058    2.6668 H   0  0  0  0  0  0  0  0  0  0  0  0
   -0.1972   -7.1898    3.1581 H   0  0  0  0  0  0  0  0  0  0  0  0
    1.8646  -10.4396    2.9669 H   0  0  0  0  0  0  0  0  0  0  0  0
    4.0937  -10.8845    1.9637 H   0  0  0  0  0  0  0  0  0  0  0  0
    9.0792   -8.1737    1.4382 H   0  0  0  0  0  0  0  0  0  0  0  0
  1  2  1  0
  2  3  1  0
  3  4  2  0
  4  5  1  0
  5  6  2  0
  6  7  1  0
  7  8  1  0
  8  9  2  0
  9 10  1  0
 10 11  1  0
 11 12  2  0
 11 13  1  0
 13 14  1  0
 14 15  1  0
 15 16  2  0
 15 17  1  0
 17 18  2  0
 18 19  1  0
 19 20  2  0
 20 21  1  0
 21 22  1  0
 22 23  1  0
 23 24  1  0
 24 25  1  0
 25 26  1  0
 20 27  1  0
 27 28  2  0
 13 29  2  0
  7 30  2  0
 30  3  1  0
 29  8  1  0
 28 17  1  0
 26 21  1  0
  1 31  1  0
  1 32  1  0
  1 33  1  0
  2 34  1  0
  5 35  1  0
  6 36  1  0
  9 37  1  0
 10 38  1  0
 14 39  1  0
 18 40  1  0
 19 41  1  0
 22 42  1  0
 22 43  1  0
 23 44  1  0
 23 45  1  0
 24 46  1  0
 24 47  1  0
 25 48  1  0
 25 49  1  0
 26 50  1  0
 26 51  1  0
 27 52  1  0
 28 53  1  0
 29 54  1  0
M  END
>  <meeko>  (7) 
{"is_sidechain": [false], "free_energy": -8.604, "intermolecular_energy": -11.27, "internal_energy": -0.738}

$$$$
3qgy_ligand
     RDKit          3D

 54 57  0  0  0  0  0  0  0  0999 V2000
    0.4070   -6.1740    9.6610 C   0  0  0  0  0  0  0  0  0  0  0  0
   -0.9240   -5.6150    9.6300 N   0  0  0  0  0  0  0  0  0  0  0  0
   -1.8260   -6.3150    8.8410 C   0  0  0  0  0  0  0  0  0  0  0  0
   -3.0280   -6.5210    9.3890 N   0  0  0  0  0  0  0  0  0  0  0  0
   -3.9270   -7.1860    8.6440 C   0  0  0  0  0  0  0  0  0  0  0  0
   -3.6680   -7.6550    7.3810 C   0  0  0  0  0  0  0  0  0  0  0  0
   -2.4020   -7.4010    6.8920 C   0  0  0  0  0  0  0  0  0  0  0  0
   -1.9850   -7.8560    5.5350 C   0  0  0  0  0  0  0  0  0  0  0  0
   -2.9390   -8.1790    4.6380 C   0  0  0  0  0  0  0  0  0  0  0  0
   -2.6220   -8.6000    3.3710 N   0  0  0  0  0  0  0  0  0  0  0  0
   -1.3390   -8.7360    2.9080 C   0  0  0  0  0  0  0  0  0  0  0  0
   -1.0780   -9.1030    1.7650 O   0  0  0  0  0  0  0  0  0  0  0  0
   -0.2390   -8.4070    3.8830 C   0  0  0  0  0  0  0  0  0  0  0  0
    1.0430   -8.5650    3.3960 N   0  0  0  0  0  0  0  0  0  0  0  0
    1.9460   -9.5730    3.6670 C   0  0  0  0  0  0  0  0  0  0  0  0
    1.7330  -10.5480    4.3810 O   0  0  0  0  0  0  0  0  0  0  0  0
    3.2720   -9.4460    2.9980 C   0  0  0  0  0  0  0  0  0  0  0  0
    3.5520  -10.2760    1.9110 C   0  0  0  0  0  0  0  0  0  0  0  0
    4.7870  -10.1870    1.2540 C   0  0  0  0  0  0  0  0  0  0  0  0
    5.7840   -9.2840    1.6580 C   0  0  0  0  0  0  0  0  0  0  0  0
    7.0040   -9.1970    1.0030 N   0  0  0  0  0  0  0  0  0  0  0  0
    7.0980   -9.3990   -0.4470 C   0  0  0  0  0  0  0  0  0  0  0  0
    8.2680   -8.6060   -1.0240 C   0  0  0  0  0  0  0  0  0  0  0  0
    9.6010   -8.9970   -0.3910 C   0  0  0  0  0  0  0  0  0  0  0  0
    9.4460   -9.4940    1.0440 C   0  0  0  0  0  0  0  0  0  0  0  0
    8.2320   -8.8820    1.7400 C   0  0  0  0  0  0  0  0  0  0  0  0
    5.4810   -8.4750    2.7670 C   0  0  0  0  0  0  0  0  0  0  0  0
    4.2490   -8.5510    3.4350 C   0  0  0  0  0  0  0  0  0  0  0  0
   -0.5900   -8.0010    5.1140 C   0  0  0  0  0  0  0  0  0  0  0  0
   -1.4740   -6.7440    7.6230 N   0  0  0  0  0  0  0  0  0  0  0  0
    0.7245   -6.3073   10.7057 H   0  0  0  0  0  0  0  0  0  0  0  0
    0.4075   -7.1483    9.1504 H   0  0  0  0  0  0  0  0  0  0  0  0
    1.1030   -5.4922    9.1504 H   0  0  0  0  0  0  0  0  0  0  0  0
   -1.3740   -5.5080   10.5340 H   0  0  0  0  0  0  0  0  0  0  0  0
   -4.9253   -7.3641    9.0701 H   0  0  0  0  0  0  0  0  0  0  0  0
   -4.4223   -8.1997    6.7942 H   0  0  0  0  0  0  0  0  0  0  0  0
   -3.9970   -8.1031    4.9292 H   0  0  0  0  0  0  0  0  0  0  0  0
   -3.3590   -8.8340    2.7160 H   0  0  0  0  0  0  0  0  0  0  0  0
    1.3040   -7.8450    2.7260 H   0  0  0  0  0  0  0  0  0  0  0  0
    2.8005  -11.0027    1.5687 H   0  0  0  0  0  0  0  0  0  0  0  0
    4.9815  -10.8454    0.3946 H   0  0  0  0  0  0  0  0  0  0  0  0
    7.2489  -10.4687   -0.6542 H   0  0  0  0  0  0  0  0  0  0  0  0
    6.1663   -9.0490   -0.9155 H   0  0  0  0  0  0  0  0  0  0  0  0
    8.3222   -8.7927   -2.1067 H   0  0  0  0  0  0  0  0  0  0  0  0
    8.0923   -7.5418   -0.8082 H   0  0  0  0  0  0  0  0  0  0  0  0
   10.0560   -9.7968   -0.9936 H   0  0  0  0  0  0  0  0  0  0  0  0
   10.2343   -8.0979   -0.3656 H   0  0  0  0  0  0  0  0  0  0  0  0
    9.3315  -10.5879    1.0293 H   0  0  0  0  0  0  0  0  0  0  0  0
   10.3434   -9.1922    1.6041 H   0  0  0  0  0  0  0  0  0  0  0  0
    8.1565   -9.2881    2.7595 H   0  0  0  0  0  0  0  0  0  0  0  0
    8.3554   -7.7895    1.7749 H   0  0  0  0  0  0  0  0  0  0  0  0
    6.2352   -7.7579    3.1234 H   0  0  0  0  0  0  0  0  0  0  0  0
    4.0536   -7.9047    4.3034 H   0  0  0  0  0  0  0  0  0  0  0  0
    0.2049   -7.7672    5.8375 H   0  0  0  0  0  0  0  0  0  0  0  0
  1  2  1  0
  2  3  1  0
  3  4  2  0
  4  5  1  0
  5  6  2  0
  6  7  1  0
  7  8  1  0
  8  9  2  0
  9 10  1  0
 10 11  1  0
 11 12  2  0
 11 13  1  0
 13 14  1  0
 14 15  1  0
 15 16  2  0
 15 17  1  0
 17 18  2  0
 18 19  1  0
 19 20  2  0
 20 21  1  0
 21 22  1  0
 22 23  1  0
 23 24  1  0
 24 25  1  0
 25 26  1  0
 20 27  1  0
 27 28  2  0
 13 29  2  0
  7 30  2  0
 30  3  1  0
 29  8  1  0
 28 17  1  0
 26 21  1  0
  1 31  1  0
  1 32  1  0
  1 33  1  0
  2 34  1  0
  5 35  1  0
  6 36  1  0
  9 37  1  0
 10 38  1  0
 14 39  1  0
 18 40  1  0
 19 41  1  0
 22 42  1  0
 22 43  1  0
 23 44  1  0
 23 45  1  0
 24 46  1  0
 24 47  1  0
 25 48  1  0
 25 49  1  0
 26 50  1  0
 26 51  1  0
 27 52  1  0
 28 53  1  0
 29 54  1  0
M  END
>  <meeko>  (8) 
{"is_sidechain": [false], "free_energy": -8.144, "intermolecular_energy": -10.506, "internal_energy": -0.909}

$$$$
3qgy_ligand
     RDKit          3D

 54 57  0  0  0  0  0  0  0  0999 V2000
    5.2980   -8.9290   -3.3460 C   0  0  0  0  0  0  0  0  0  0  0  0
    6.3980   -9.8430   -3.1480 N   0  0  0  0  0  0  0  0  0  0  0  0
    7.3250   -9.4340   -2.1980 C   0  0  0  0  0  0  0  0  0  0  0  0
    8.5390   -9.1380   -2.6720 N   0  0  0  0  0  0  0  0  0  0  0  0
    9.4540   -8.7280   -1.7780 C   0  0  0  0  0  0  0  0  0  0  0  0
    9.2030   -8.6110   -0.4340 C   0  0  0  0  0  0  0  0  0  0  0  0
    7.9250   -8.9390   -0.0290 C   0  0  0  0  0  0  0  0  0  0  0  0
    7.5160   -8.8590    1.4030 C   0  0  0  0  0  0  0  0  0  0  0  0
    8.4760   -8.8260    2.3490 C   0  0  0  0  0  0  0  0  0  0  0  0
    8.1670   -8.7480    3.6840 N   0  0  0  0  0  0  0  0  0  0  0  0
    6.8870   -8.7040    4.1720 C   0  0  0  0  0  0  0  0  0  0  0  0
    6.6320   -8.6220    5.3710 O   0  0  0  0  0  0  0  0  0  0  0  0
    5.7810   -8.7620    3.1510 C   0  0  0  0  0  0  0  0  0  0  0  0
    4.5010   -8.7310    3.6690 N   0  0  0  0  0  0  0  0  0  0  0  0
    3.5130   -9.6890    3.5730 C   0  0  0  0  0  0  0  0  0  0  0  0
    3.6280  -10.7800    3.0240 O   0  0  0  0  0  0  0  0  0  0  0  0
    2.2180   -9.3440    4.2260 C   0  0  0  0  0  0  0  0  0  0  0  0
    2.1360   -8.1590    4.9590 C   0  0  0  0  0  0  0  0  0  0  0  0
    0.9360   -7.7980    5.5870 C   0  0  0  0  0  0  0  0  0  0  0  0
   -0.2130   -8.6030    5.5190 C   0  0  0  0  0  0  0  0  0  0  0  0
   -1.4000   -8.2400    6.1400 N   0  0  0  0  0  0  0  0  0  0  0  0
   -1.4070   -7.7250    7.5130 C   0  0  0  0  0  0  0  0  0  0  0  0
   -2.5850   -6.7790    7.7270 C   0  0  0  0  0  0  0  0  0  0  0  0
   -3.9270   -7.4550    7.4540 C   0  0  0  0  0  0  0  0  0  0  0  0
   -3.8220   -8.5730    6.4220 C   0  0  0  0  0  0  0  0  0  0  0  0
   -2.6810   -8.3430    5.4320 C   0  0  0  0  0  0  0  0  0  0  0  0
   -0.0950   -9.7990    4.7900 C   0  0  0  0  0  0  0  0  0  0  0  0
    1.0980  -10.1730    4.1550 C   0  0  0  0  0  0  0  0  0  0  0  0
    6.1240   -8.8410    1.8550 C   0  0  0  0  0  0  0  0  0  0  0  0
    6.9870   -9.3640   -0.9040 N   0  0  0  0  0  0  0  0  0  0  0  0
    4.9093   -8.6060   -2.3690 H   0  0  0  0  0  0  0  0  0  0  0  0
    5.6473   -8.0515   -3.9099 H   0  0  0  0  0  0  0  0  0  0  0  0
    4.4994   -9.4331   -3.9099 H   0  0  0  0  0  0  0  0  0  0  0  0
    6.1390  -10.7890   -2.8900 H   0  0  0  0  0  0  0  0  0  0  0  0
   10.4595   -8.4720   -2.1433 H   0  0  0  0  0  0  0  0  0  0  0  0
    9.9729   -8.2764    0.2768 H   0  0  0  0  0  0  0  0  0  0  0  0
    9.5321   -8.8625    2.0436 H   0  0  0  0  0  0  0  0  0  0  0  0
    8.9080   -8.7210    4.3740 H   0  0  0  0  0  0  0  0  0  0  0  0
    4.3160   -7.8930    4.2170 H   0  0  0  0  0  0  0  0  0  0  0  0
    3.0168   -7.5057    5.0442 H   0  0  0  0  0  0  0  0  0  0  0  0
    0.8927   -6.8545    6.1509 H   0  0  0  0  0  0  0  0  0  0  0  0
   -1.4886   -8.5682    8.2147 H   0  0  0  0  0  0  0  0  0  0  0  0
   -0.4724   -7.1721    7.6886 H   0  0  0  0  0  0  0  0  0  0  0  0
   -2.5715   -6.4271    8.7691 H   0  0  0  0  0  0  0  0  0  0  0  0
   -2.4787   -5.9432    7.0198 H   0  0  0  0  0  0  0  0  0  0  0  0
   -4.3056   -7.8793    8.3956 H   0  0  0  0  0  0  0  0  0  0  0  0
   -4.6081   -6.6917    7.0498 H   0  0  0  0  0  0  0  0  0  0  0  0
   -3.6485   -9.5239    6.9470 H   0  0  0  0  0  0  0  0  0  0  0  0
   -4.7627   -8.5945    5.8523 H   0  0  0  0  0  0  0  0  0  0  0  0
   -2.6381   -9.1860    4.7267 H   0  0  0  0  0  0  0  0  0  0  0  0
   -2.8644   -7.4039    4.8894 H   0  0  0  0  0  0  0  0  0  0  0  0
   -0.9680  -10.4640    4.7151 H   0  0  0  0  0  0  0  0  0  0  0  0
    1.1509  -11.1213    3.6001 H   0  0  0  0  0  0  0  0  0  0  0  0
    5.3248   -8.8945    1.1011 H   0  0  0  0  0  0  0  0  0  0  0  0
  1  2  1  0
  2  3  1  0
  3  4  2  0
  4  5  1  0
  5  6  2  0
  6  7  1  0
  7  8  1  0
  8  9  2  0
  9 10  1  0
 10 11  1  0
 11 12  2  0
 11 13  1  0
 13 14  1  0
 14 15  1  0
 15 16  2  0
 15 17  1  0
 17 18  2  0
 18 19  1  0
 19 20  2  0
 20 21  1  0
 21 22  1  0
 22 23  1  0
 23 24  1  0
 24 25  1  0
 25 26  1  0
 20 27  1  0
 27 28  2  0
 13 29  2  0
  7 30  2  0
 30  3  1  0
 29  8  1  0
 28 17  1  0
 26 21  1  0
  1 31  1  0
  1 32  1  0
  1 33  1  0
  2 34  1  0
  5 35  1  0
  6 36  1  0
  9 37  1  0
 10 38  1  0
 14 39  1  0
 18 40  1  0
 19 41  1  0
 22 42  1  0
 22 43  1  0
 23 44  1  0
 23 45  1  0
 24 46  1  0
 24 47  1  0
 25 48  1  0
 25 49  1  0
 26 50  1  0
 26 51  1  0
 27 52  1  0
 28 53  1  0
 29 54  1  0
M  END
>  <meeko>  (9) 
{"is_sidechain": [false], "free_energy": -8.091, "intermolecular_energy": -10.458, "internal_energy": -0.887}

$$$$
