
     RDKit          3D

 20 23  0  0  0  0  0  0  0  0999 V2000
   12.8510  -11.4200    1.0850 C   0  0  0  0  0  0  0  0  0  0  0  0
   13.6390  -11.7210   -0.2350 C   0  0  2  0  0  0  0  0  0  0  0  0
   15.0860  -12.0000    0.1170 C   0  0  0  0  0  0  0  0  0  0  0  0
   15.7900  -10.7140    0.6060 C   0  0  0  0  0  0  0  0  0  0  0  0
   15.6990   -9.5830   -0.4240 C   0  0  2  0  0  0  0  0  0  0  0  0
   16.4750   -8.3440   -0.0280 C   0  0  0  0  0  0  0  0  0  0  0  0
   17.7250   -8.4590    0.5760 C   0  0  0  0  0  0  0  0  0  0  0  0
   18.4500   -7.3540    0.9330 C   0  0  0  0  0  0  0  0  0  0  0  0
   17.9660   -6.0830    0.6730 C   0  0  0  0  0  0  0  0  0  0  0  0
   18.6910   -4.9980    1.0300 O   0  0  0  0  0  0  0  0  0  0  0  0
   16.7440   -5.9280    0.0550 C   0  0  0  0  0  0  0  0  0  0  0  0
   15.9920   -7.0510   -0.3160 C   0  0  0  0  0  0  0  0  0  0  0  0
   14.6650   -6.8500   -0.9880 C   0  0  0  0  0  0  0  0  0  0  0  0
   14.1060   -8.0900   -1.6280 C   0  0  0  0  0  0  0  0  0  0  0  0
   14.2210   -9.2900   -0.7190 C   0  0  1  0  0  0  0  0  0  0  0  0
   13.5720  -10.5670   -1.2530 C   0  0  2  0  0  0  0  0  0  0  0  0
   12.1070  -10.5450   -1.6590 C   0  0  0  0  0  0  0  0  0  0  0  0
   11.6930  -12.0290   -1.6410 C   0  0  0  0  0  0  0  0  0  0  0  0
   12.8790  -12.8010   -1.0160 C   0  0  2  0  0  0  0  0  0  0  0  0
   12.4200  -13.8860   -0.2310 O   0  0  0  0  0  0  0  0  0  0  0  0
  2  1  1  1
  3  2  1  0
  4  3  1  0
  5  4  1  1
  6  5  1  0
  7  6  2  0
  8  7  1  0
  9  8  2  0
 10  9  1  0
 11  9  1  0
 12 11  2  0
 12  6  1  0
 13 12  1  0
 14 13  1  0
 15 14  1  6
 15  5  1  0
 16  2  1  0
 16 15  1  0
 16 17  1  1
 18 17  1  0
 19 18  1  0
 19  2  1  0
 19 20  1  1
M  END
$$$$
