
     RDKit          3D

 16 16  0  0  0  0  0  0  0  0999 V2000
   -2.9080    2.4070  -12.2290 C   0  0  0  0  0  0  0  0  0  0  0  0
   -1.5950    1.8180  -11.7720 C   0  0  0  0  0  0  0  0  0  0  0  0
   -0.9120    2.3760  -10.9550 O   0  0  0  0  0  0  0  0  0  0  0  0
   -1.2430    0.6210  -12.3470 N   0  0  0  0  0  0  0  0  0  0  0  0
    0.0220   -0.0980  -12.1030 C   0  0  2  0  0  0  0  0  0  0  0  0
    0.0660   -0.5620  -10.6370 C   0  0  1  0  0  0  0  0  0  0  0  0
   -0.4660   -1.8850  -10.6210 O   0  0  0  0  0  0  0  0  0  0  0  0
    1.4450   -0.5690   -9.9430 C   0  0  2  0  0  0  0  0  0  0  0  0
    1.2920   -1.2330   -8.6650 O   0  0  0  0  0  0  0  0  0  0  0  0
    1.9400    0.8790   -9.7070 C   0  0  1  0  0  0  0  0  0  0  0  0
    2.9320    0.9670   -8.5240 C   0  0  0  0  0  0  0  0  0  0  0  0
    4.1880    0.3930   -8.8970 O   0  0  0  0  0  0  0  0  0  0  0  0
    2.6460    1.4450  -10.8490 N   0  0  0  0  0  0  0  0  0  0  0  0
    1.7260    1.8760  -11.9130 C   0  0  0  0  0  0  0  0  0  0  0  0
    1.1920    0.7100  -12.7130 C   0  0  1  0  0  0  0  0  0  0  0  0
    2.2770   -0.1490  -13.0250 O   0  0  0  0  0  0  0  0  0  0  0  0
  2  1  1  0
  3  2  2  0
  4  2  1  0
  5  4  1  1
  6  5  1  0
  6  7  1  6
  8  6  1  0
  8  9  1  1
 10  8  1  0
 10 11  1  1
 12 11  1  0
 13 10  1  0
 14 13  1  0
 15 14  1  0
 15  5  1  0
 15 16  1  1
M  CHG  1  13   1
M  END
$$$$
