
     RDKit          3D

 14 15  0  0  0  0  0  0  0  0999 V2000
   10.0330   12.3040   -5.8710 C   0  0  0  0  0  0  0  0  0  0  0  0
   11.1440   12.1630   -6.9140 C   0  0  0  0  0  0  0  0  0  0  0  0
   10.8490   11.0730   -7.8580 N   0  0  0  0  0  0  0  0  0  0  0  0
   10.4250   11.4400   -9.1790 C   0  0  0  0  0  0  0  0  0  0  0  0
   10.1790   10.3650  -10.1240 N   0  0  0  0  0  0  0  0  0  0  0  0
    9.2840    9.1680   -9.4950 S   0  0  1  0  0  0  0  0  0  0  0  0
    8.0230    9.7030   -9.0530 O   0  0  0  0  0  0  0  0  0  0  0  0
    9.1810    8.0220  -10.3760 O   0  0  0  0  0  0  0  0  0  0  0  0
   10.2730    8.7370   -8.1230 C   0  0  0  0  0  0  0  0  0  0  0  0
   10.3610    7.4270   -7.7360 C   0  0  0  0  0  0  0  0  0  0  0  0
   11.1070    7.0770   -6.6520 N   0  0  0  0  0  0  0  0  0  0  0  0
   11.7590    8.0200   -5.9570 C   0  0  0  0  0  0  0  0  0  0  0  0
   11.6830    9.3570   -6.3020 C   0  0  0  0  0  0  0  0  0  0  0  0
   10.9430    9.7480   -7.4390 C   0  0  0  0  0  0  0  0  0  0  0  0
  2  1  1  0
  3  2  1  0
  4  3  1  0
  5  4  1  0
  6  5  1  6
  7  6  2  0
  8  6  2  0
  9  6  1  0
 10  9  1  0
 11 10  2  0
 12 11  1  0
 13 12  2  0
 14  9  2  0
 14  3  1  0
 14 13  1  0
M  CHG  1  11   1
M  END
$$$$
