
     RDKit          3D

 28 30  0  0  0  0  0  0  0  0999 V2000
    8.2030    5.2820    3.8860 O   0  0  0  0  0  0  0  0  0  0  0  0
    7.2190    5.9840    3.6030 C   0  0  0  0  0  0  0  0  0  0  0  0
    6.1600    5.5020    3.1590 O   0  0  0  0  0  0  0  0  0  0  0  0
    7.3250    7.4960    3.7810 C   0  0  0  0  0  0  0  0  0  0  0  0
    6.1560    8.1550    3.3020 O   0  0  0  0  0  0  0  0  0  0  0  0
    6.2270    9.5580    3.1900 C   0  0  0  0  0  0  0  0  0  0  0  0
    5.8300   10.4330    4.1620 C   0  0  0  0  0  0  0  0  0  0  0  0
    5.2270   10.0660    5.4940 C   0  0  0  0  0  0  0  0  0  0  0  0
    4.7550    8.9240    5.6480 O   0  0  0  0  0  0  0  0  0  0  0  0
    5.1740   10.9380    6.3740 O   0  0  0  0  0  0  0  0  0  0  0  0
    6.1030   12.0410    3.6330 S   0  0  0  0  0  0  0  0  0  0  0  0
    6.7500   11.6080    2.1230 C   0  0  0  0  0  0  0  0  0  0  0  0
    7.2090   12.5950    1.1150 C   0  0  0  0  0  0  0  0  0  0  0  0
    7.9290   12.2540    0.0090 C   0  0  0  0  0  0  0  0  0  0  0  0
    8.3820   13.1610   -0.9680 C   0  0  0  0  0  0  0  0  0  0  0  0
    8.0670   14.4850   -0.7900 C   0  0  0  0  0  0  0  0  0  0  0  0
    7.3430   14.9060    0.3370 C   0  0  0  0  0  0  0  0  0  0  0  0
    7.0480   16.2980    0.5230 N   0  0  0  0  0  0  0  0  0  0  0  0
    6.7830   16.8530    1.8810 C   0  0  0  0  0  0  0  0  0  0  0  0
    6.6720   18.3750    1.9010 C   0  0  0  0  0  0  0  0  0  0  0  0
    7.2630   19.1670    0.9080 C   0  0  0  0  0  0  0  0  0  0  0  0
    7.1510   20.5450    0.9280 C   0  0  0  0  0  0  0  0  0  0  0  0
    6.4410   21.1660    1.9590 C   0  0  0  0  0  0  0  0  0  0  0  0
    5.8340   20.4000    2.9880 C   0  0  0  0  0  0  0  0  0  0  0  0
    5.9500   19.0150    2.9630 C   0  0  0  0  0  0  0  0  0  0  0  0
    6.9230   13.9540    1.2760 C   0  0  0  0  0  0  0  0  0  0  0  0
    6.7470   10.1990    2.0430 C   0  0  0  0  0  0  0  0  0  0  0  0
    7.3510    9.1990    0.5890 Br  0  0  0  0  0  0  0  0  0  0  0  0
  2  1  1  0
  3  2  2  0
  4  2  1  0
  5  4  1  0
  6  5  1  0
  7  6  2  0
  8  7  1  0
  9  8  2  0
 10  8  1  0
 11  7  1  0
 12 11  1  0
 13 12  1  0
 14 13  2  0
 15 14  1  0
 16 15  2  0
 17 16  1  0
 18 17  1  0
 19 18  1  0
 20 19  1  0
 21 20  2  0
 22 21  1  0
 23 22  2  0
 24 23  1  0
 25 24  2  0
 25 20  1  0
 26 17  2  0
 26 13  1  0
 27  6  1  0
 27 12  2  0
 28 27  1  0
M  CHG  2   1  -1  10  -1
M  END
$$$$
