
     RDKit          3D

 20 21  0  0  0  0  0  0  0  0999 V2000
   -5.1730   -1.5510   -5.2730 O   0  0  0  0  0  0  0  0  0  0  0  0
   -5.5530   -0.8820   -6.2290 C   0  0  0  0  0  0  0  0  0  0  0  0
   -4.6480   -0.3920   -7.1440 N   0  0  0  0  0  0  0  0  0  0  0  0
   -3.2340   -0.6050   -6.9680 C   0  0  2  0  0  0  0  0  0  0  0  0
   -2.6910    0.6370   -6.4690 O   0  0  0  0  0  0  0  0  0  0  0  0
   -1.2910    0.5660   -6.2070 C   0  0  2  0  0  0  0  0  0  0  0  0
   -0.8440    1.9110   -5.6170 C   0  0  0  0  0  0  0  0  0  0  0  0
   -0.9380    2.9140   -6.6110 O   0  0  0  0  0  0  0  0  0  0  0  0
   -0.5270    0.2510   -7.5040 C   0  0  1  0  0  0  0  0  0  0  0  0
    0.8520    0.0830   -7.2050 O   0  0  0  0  0  0  0  0  0  0  0  0
   -1.0800   -1.0400   -8.1300 C   0  0  2  0  0  0  0  0  0  0  0  0
   -0.4540   -1.2380   -9.4000 O   0  0  0  0  0  0  0  0  0  0  0  0
   -2.5870   -0.9480   -8.3190 C   0  0  1  0  0  0  0  0  0  0  0  0
   -3.1130   -2.1970   -8.7860 O   0  0  0  0  0  0  0  0  0  0  0  0
   -6.9960   -0.5950   -6.4170 C   0  0  0  0  0  0  0  0  0  0  0  0
   -7.9480   -1.1250   -5.5160 C   0  0  0  0  0  0  0  0  0  0  0  0
   -9.2960   -0.8560   -5.6840 C   0  0  0  0  0  0  0  0  0  0  0  0
   -9.7230   -0.0520   -6.7360 C   0  0  0  0  0  0  0  0  0  0  0  0
   -8.8060    0.4720   -7.6200 C   0  0  0  0  0  0  0  0  0  0  0  0
   -7.4460    0.2060   -7.4670 C   0  0  0  0  0  0  0  0  0  0  0  0
  2  1  2  0
  3  2  1  0
  4  3  1  6
  5  4  1  0
  6  5  1  0
  6  7  1  6
  8  7  1  0
  9  6  1  0
  9 10  1  1
 11  9  1  0
 11 12  1  6
 13 11  1  0
 13  4  1  0
 13 14  1  1
 15  2  1  0
 16 15  2  0
 17 16  1  0
 18 17  2  0
 19 18  1  0
 20 19  2  0
 20 15  1  0
M  END
$$$$
