2wbg_ligand
     RDKit          3D

 51 52  0  0  0  0  0  0  0  0999 V2000
    0.7680   15.0730   15.1800 C   0  0  0  0  0  0  0  0  0  0  0  0
    0.0450   15.6790   13.9870 C   0  0  0  0  0  0  0  0  0  0  0  0
    0.7810   15.4750   12.6600 C   0  0  0  0  0  0  0  0  0  0  0  0
    2.1490   14.8080   12.8270 C   0  0  0  0  0  0  0  0  0  0  0  0
    2.6330   14.0970   11.5600 C   0  0  0  0  0  0  0  0  0  0  0  0
    2.4580   12.5750   11.5440 C   0  0  0  0  0  0  0  0  0  0  0  0
    2.5340   11.8830   12.9100 C   0  0  0  0  0  0  0  0  0  0  0  0
    3.8810   11.2390   13.2240 C   0  0  0  0  0  0  0  0  0  0  0  0
    4.7930   12.2460   13.7850 N   0  0  0  0  0  0  0  0  0  0  0  0
    6.0560   12.3130   13.4420 C   0  0  0  0  0  0  0  0  0  0  0  0
    6.5350   11.4210   12.5640 O   0  0  0  0  0  0  0  0  0  0  0  0
    7.9670   11.5020   12.7260 C   0  0  0  0  0  0  0  0  0  0  0  0
    8.2170   12.9030   13.2470 C   0  0  2  0  0  0  0  0  0  0  0  0
    9.3110   13.0090   14.2990 C   0  0  1  0  0  0  0  0  0  0  0  0
   10.5740   12.6290   13.7600 O   0  0  0  0  0  0  0  0  0  0  0  0
    9.3610   14.4540   14.8360 C   0  0  2  0  0  0  0  0  0  0  0  0
    9.9260   14.4520   16.1530 O   0  0  0  0  0  0  0  0  0  0  0  0
    8.0030   15.1990   14.8200 C   0  0  1  0  0  0  0  0  0  0  0  0
    7.9140   15.9910   13.6240 O   0  0  0  0  0  0  0  0  0  0  0  0
    6.7850   14.2420   14.8550 C   0  0  2  0  0  0  0  0  0  0  0  0
    6.6780   13.5950   16.1040 O   0  0  0  0  0  0  0  0  0  0  0  0
    6.9370   13.1800   13.8790 N   0  0  0  0  0  0  0  0  0  0  0  0
    0.3189   15.4495   16.1109 H   0  0  0  0  0  0  0  0  0  0  0  0
    0.6771   13.9773   15.1460 H   0  0  0  0  0  0  0  0  0  0  0  0
    1.8310   15.3540   15.1460 H   0  0  0  0  0  0  0  0  0  0  0  0
   -0.9489   15.2142   13.9091 H   0  0  0  0  0  0  0  0  0  0  0  0
   -0.0147   16.7635   14.1610 H   0  0  0  0  0  0  0  0  0  0  0  0
    0.1601   14.8417   12.0093 H   0  0  0  0  0  0  0  0  0  0  0  0
    0.9529   16.4704   12.2245 H   0  0  0  0  0  0  0  0  0  0  0  0
    2.8840   15.5807   13.0965 H   0  0  0  0  0  0  0  0  0  0  0  0
    2.0461   14.0436   13.6113 H   0  0  0  0  0  0  0  0  0  0  0  0
    2.0753   14.5103   10.7066 H   0  0  0  0  0  0  0  0  0  0  0  0
    3.7175   14.2745   11.5124 H   0  0  0  0  0  0  0  0  0  0  0  0
    1.4735   12.3525   11.1067 H   0  0  0  0  0  0  0  0  0  0  0  0
    3.3040   12.1819   10.9611 H   0  0  0  0  0  0  0  0  0  0  0  0
    2.3235   12.6333   13.6864 H   0  0  0  0  0  0  0  0  0  0  0  0
    1.7972   11.0666   12.8863 H   0  0  0  0  0  0  0  0  0  0  0  0
    3.7375   10.4286   13.9539 H   0  0  0  0  0  0  0  0  0  0  0  0
    4.3139   10.8307   12.2989 H   0  0  0  0  0  0  0  0  0  0  0  0
    4.4730   12.8840   14.4980 H   0  0  0  0  0  0  0  0  0  0  0  0
    8.3187   10.7510   13.4487 H   0  0  0  0  0  0  0  0  0  0  0  0
    8.5038   11.3057   11.7861 H   0  0  0  0  0  0  0  0  0  0  0  0
    8.5502   13.5816   12.4479 H   0  0  0  0  0  0  0  0  0  0  0  0
    9.0820   12.3208   15.1260 H   0  0  0  0  0  0  0  0  0  0  0  0
   11.2570   12.8350   14.4290 H   0  0  0  0  0  0  0  0  0  0  0  0
    9.9988   15.0206   14.1416 H   0  0  0  0  0  0  0  0  0  0  0  0
    9.2210   14.5290   16.8200 H   0  0  0  0  0  0  0  0  0  0  0  0
    7.9705   15.8204   15.7271 H   0  0  0  0  0  0  0  0  0  0  0  0
    8.4590   16.7930   13.7550 H   0  0  0  0  0  0  0  0  0  0  0  0
    5.9011   14.8636   14.6491 H   0  0  0  0  0  0  0  0  0  0  0  0
    6.1990   14.1990   16.7020 H   0  0  0  0  0  0  0  0  0  0  0  0
  1  2  1  0
  2  3  1  0
  3  4  1  0
  4  5  1  0
  5  6  1  0
  6  7  1  0
  7  8  1  0
  8  9  1  0
  9 10  2  0
 10 11  1  0
 11 12  1  0
 12 13  1  0
 13 14  1  0
 14 15  1  0
 14 16  1  0
 16 17  1  0
 16 18  1  0
 18 19  1  0
 18 20  1  0
 20 21  1  0
 20 22  1  0
 22 10  1  0
 22 13  1  0
  1 23  1  0
  1 24  1  0
  1 25  1  0
  2 26  1  0
  2 27  1  0
  3 28  1  0
  3 29  1  0
  4 30  1  0
  4 31  1  0
  5 32  1  0
  5 33  1  0
  6 34  1  0
  6 35  1  0
  7 36  1  0
  7 37  1  0
  8 38  1  0
  8 39  1  0
  9 40  1  0
 12 41  1  0
 12 42  1  0
 13 43  1  6
 14 44  1  1
 15 45  1  0
 16 46  1  6
 17 47  1  0
 18 48  1  1
 19 49  1  0
 20 50  1  6
 21 51  1  0
M  CHG  1   9   1
M  END
>  <meeko>  (1) 
{"is_sidechain": [false], "free_energy": -7.122, "intermolecular_energy": -10.869, "internal_energy": -0.688}

$$$$
2wbg_ligand
     RDKit          3D

 51 52  0  0  0  0  0  0  0  0999 V2000
   -0.6550   15.7120   12.9970 C   0  0  0  0  0  0  0  0  0  0  0  0
    0.7350   16.1560   12.5660 C   0  0  0  0  0  0  0  0  0  0  0  0
    1.8030   15.0740   12.7440 C   0  0  0  0  0  0  0  0  0  0  0  0
    1.2700   13.8070   13.4170 C   0  0  0  0  0  0  0  0  0  0  0  0
    1.3510   12.5670   12.5210 C   0  0  0  0  0  0  0  0  0  0  0  0
    2.3020   12.6740   11.3250 C   0  0  0  0  0  0  0  0  0  0  0  0
    3.2350   11.4760   11.1070 C   0  0  0  0  0  0  0  0  0  0  0  0
    3.7870   10.8580   12.3880 C   0  0  0  0  0  0  0  0  0  0  0  0
    5.2090   11.2010   12.5310 N   0  0  0  0  0  0  0  0  0  0  0  0
    5.6120   12.2240   13.2440 C   0  0  0  0  0  0  0  0  0  0  0  0
    4.6950   12.9930   13.8460 O   0  0  0  0  0  0  0  0  0  0  0  0
    5.4090   14.2050   14.1700 C   0  0  0  0  0  0  0  0  0  0  0  0
    6.8590   13.7780   14.2870 C   0  0  2  0  0  0  0  0  0  0  0  0
    7.8660   14.7730   13.7300 C   0  0  1  0  0  0  0  0  0  0  0  0
    7.8250   15.9980   14.4560 O   0  0  0  0  0  0  0  0  0  0  0  0
    9.2770   14.1530   13.7880 C   0  0  2  0  0  0  0  0  0  0  0  0
   10.1080   14.7720   12.7970 O   0  0  0  0  0  0  0  0  0  0  0  0
    9.3130   12.6110   13.6530 C   0  0  1  0  0  0  0  0  0  0  0  0
    9.3550   12.0240   14.9640 O   0  0  0  0  0  0  0  0  0  0  0  0
    8.0820   12.0370   12.9080 C   0  0  2  0  0  0  0  0  0  0  0  0
    8.1010   12.3890   11.5410 O   0  0  0  0  0  0  0  0  0  0  0  0
    6.8540   12.5980   13.4370 N   0  0  0  0  0  0  0  0  0  0  0  0
   -0.7101   15.6944   14.0955 H   0  0  0  0  0  0  0  0  0  0  0  0
   -1.4032   16.4159   12.6036 H   0  0  0  0  0  0  0  0  0  0  0  0
   -0.8566   14.7047   12.6036 H   0  0  0  0  0  0  0  0  0  0  0  0
    0.6971   16.4366   11.5031 H   0  0  0  0  0  0  0  0  0  0  0  0
    1.0194   17.0011   13.2101 H   0  0  0  0  0  0  0  0  0  0  0  0
    2.1965   14.8045   11.7528 H   0  0  0  0  0  0  0  0  0  0  0  0
    2.5833   15.4890   13.3989 H   0  0  0  0  0  0  0  0  0  0  0  0
    1.8596   13.6200   14.3266 H   0  0  0  0  0  0  0  0  0  0  0  0
    0.2069   13.9789   13.6413 H   0  0  0  0  0  0  0  0  0  0  0  0
    1.6827   11.7220   13.1422 H   0  0  0  0  0  0  0  0  0  0  0  0
    0.3453   12.4385   12.0944 H   0  0  0  0  0  0  0  0  0  0  0  0
    1.6918   12.7964   10.4180 H   0  0  0  0  0  0  0  0  0  0  0  0
    2.9587   13.5299   11.5401 H   0  0  0  0  0  0  0  0  0  0  0  0
    2.6750   10.6995   10.5653 H   0  0  0  0  0  0  0  0  0  0  0  0
    4.1018   11.8547   10.5456 H   0  0  0  0  0  0  0  0  0  0  0  0
    3.2284   11.2473   13.2519 H   0  0  0  0  0  0  0  0  0  0  0  0
    3.6792    9.7643   12.3406 H   0  0  0  0  0  0  0  0  0  0  0  0
    5.9130   10.6790   12.0320 H   0  0  0  0  0  0  0  0  0  0  0  0
    5.2878   14.9518   13.3715 H   0  0  0  0  0  0  0  0  0  0  0  0
    5.0371   14.6728   15.0935 H   0  0  0  0  0  0  0  0  0  0  0  0
    7.1632   13.6511   15.3365 H   0  0  0  0  0  0  0  0  0  0  0  0
    7.6094   14.9976   12.6842 H   0  0  0  0  0  0  0  0  0  0  0  0
    7.4570   16.6830   13.8620 H   0  0  0  0  0  0  0  0  0  0  0  0
    9.6633   14.3538   14.7982 H   0  0  0  0  0  0  0  0  0  0  0  0
   10.3140   15.6870   13.0570 H   0  0  0  0  0  0  0  0  0  0  0  0
   10.2088   12.3646   13.0640 H   0  0  0  0  0  0  0  0  0  0  0  0
   10.1840   12.3150   15.3960 H   0  0  0  0  0  0  0  0  0  0  0  0
    8.1241   10.9459   13.0409 H   0  0  0  0  0  0  0  0  0  0  0  0
    8.9550   12.0870   11.1780 H   0  0  0  0  0  0  0  0  0  0  0  0
  1  2  1  0
  2  3  1  0
  3  4  1  0
  4  5  1  0
  5  6  1  0
  6  7  1  0
  7  8  1  0
  8  9  1  0
  9 10  2  0
 10 11  1  0
 11 12  1  0
 12 13  1  0
 13 14  1  0
 14 15  1  0
 14 16  1  0
 16 17  1  0
 16 18  1  0
 18 19  1  0
 18 20  1  0
 20 21  1  0
 20 22  1  0
 22 10  1  0
 22 13  1  0
  1 23  1  0
  1 24  1  0
  1 25  1  0
  2 26  1  0
  2 27  1  0
  3 28  1  0
  3 29  1  0
  4 30  1  0
  4 31  1  0
  5 32  1  0
  5 33  1  0
  6 34  1  0
  6 35  1  0
  7 36  1  0
  7 37  1  0
  8 38  1  0
  8 39  1  0
  9 40  1  0
 12 41  1  0
 12 42  1  0
 13 43  1  1
 14 44  1  6
 15 45  1  0
 16 46  1  1
 17 47  1  0
 18 48  1  6
 19 49  1  0
 20 50  1  6
 21 51  1  0
M  CHG  1   9   1
M  END
>  <meeko>  (2) 
{"is_sidechain": [false], "free_energy": -6.996, "intermolecular_energy": -10.577, "internal_energy": -0.787}

$$$$
2wbg_ligand
     RDKit          3D

 51 52  0  0  0  0  0  0  0  0999 V2000
   -0.9760    9.0290   14.0080 C   0  0  0  0  0  0  0  0  0  0  0  0
    0.4580    9.3950   14.3580 C   0  0  0  0  0  0  0  0  0  0  0  0
    1.0390   10.4990   13.4710 C   0  0  0  0  0  0  0  0  0  0  0  0
    1.0290   11.8760   14.1400 C   0  0  0  0  0  0  0  0  0  0  0  0
    0.7970   13.0250   13.1540 C   0  0  0  0  0  0  0  0  0  0  0  0
    1.1260   14.4270   13.6790 C   0  0  0  0  0  0  0  0  0  0  0  0
    2.6160   14.7270   13.8850 C   0  0  0  0  0  0  0  0  0  0  0  0
    3.4540   14.6970   12.6110 C   0  0  0  0  0  0  0  0  0  0  0  0
    4.8700   14.9100   12.9440 N   0  0  0  0  0  0  0  0  0  0  0  0
    5.6470   13.9360   13.3460 C   0  0  0  0  0  0  0  0  0  0  0  0
    5.1280   12.7080   13.4770 O   0  0  0  0  0  0  0  0  0  0  0  0
    6.0840   12.0060   14.3000 C   0  0  0  0  0  0  0  0  0  0  0  0
    7.4000   12.7160   14.0500 C   0  0  2  0  0  0  0  0  0  0  0  0
    8.2840   12.8750   15.2780 C   0  0  1  0  0  0  0  0  0  0  0  0
    8.6870   11.6040   15.7830 O   0  0  0  0  0  0  0  0  0  0  0  0
    9.5150   13.7290   14.9110 C   0  0  2  0  0  0  0  0  0  0  0  0
   10.0270   14.3570   16.0930 O   0  0  0  0  0  0  0  0  0  0  0  0
    9.2680   14.7730   13.7940 C   0  0  1  0  0  0  0  0  0  0  0  0
    9.6810   14.2200   12.5330 O   0  0  0  0  0  0  0  0  0  0  0  0
    7.7820   15.1940   13.6730 C   0  0  2  0  0  0  0  0  0  0  0  0
    7.3710   15.9500   14.7910 O   0  0  0  0  0  0  0  0  0  0  0  0
    6.9180   14.0290   13.6530 N   0  0  0  0  0  0  0  0  0  0  0  0
   -1.5530    8.8817   14.9329 H   0  0  0  0  0  0  0  0  0  0  0  0
   -1.4282    9.8405   13.4190 H   0  0  0  0  0  0  0  0  0  0  0  0
   -0.9840    8.1000   13.4190 H   0  0  0  0  0  0  0  0  0  0  0  0
    0.4851    9.7373   15.4030 H   0  0  0  0  0  0  0  0  0  0  0  0
    1.0703    8.4952   14.1984 H   0  0  0  0  0  0  0  0  0  0  0  0
    2.0784   10.2380   13.2232 H   0  0  0  0  0  0  0  0  0  0  0  0
    0.4055   10.5660   12.5742 H   0  0  0  0  0  0  0  0  0  0  0  0
    0.2264   11.8934   14.8920 H   0  0  0  0  0  0  0  0  0  0  0  0
    2.0211   12.0275   14.5904 H   0  0  0  0  0  0  0  0  0  0  0  0
    1.4214   12.8409   12.2673 H   0  0  0  0  0  0  0  0  0  0  0  0
   -0.2831   13.0283   12.9456 H   0  0  0  0  0  0  0  0  0  0  0  0
    0.7302   15.1589   12.9595 H   0  0  0  0  0  0  0  0  0  0  0  0
    0.6668   14.4892   14.6766 H   0  0  0  0  0  0  0  0  0  0  0  0
    2.7055   15.7288   14.3305 H   0  0  0  0  0  0  0  0  0  0  0  0
    3.0070   13.9288   14.5331 H   0  0  0  0  0  0  0  0  0  0  0  0
    3.3370   13.7200   12.1193 H   0  0  0  0  0  0  0  0  0  0  0  0
    3.1152   15.4945   11.9334 H   0  0  0  0  0  0  0  0  0  0  0  0
    5.2660   15.8380   12.9200 H   0  0  0  0  0  0  0  0  0  0  0  0
    5.8036   12.0708   15.3617 H   0  0  0  0  0  0  0  0  0  0  0  0
    6.1359   10.9345   14.0566 H   0  0  0  0  0  0  0  0  0  0  0  0
    8.0312   12.1657   13.3367 H   0  0  0  0  0  0  0  0  0  0  0  0
    7.7118   13.3815   16.0692 H   0  0  0  0  0  0  0  0  0  0  0  0
    8.3670   10.9220   15.1590 H   0  0  0  0  0  0  0  0  0  0  0  0
   10.2583   13.0372   14.4881 H   0  0  0  0  0  0  0  0  0  0  0  0
    9.4420   15.0870   16.3650 H   0  0  0  0  0  0  0  0  0  0  0  0
    9.8504   15.6675   14.0600 H   0  0  0  0  0  0  0  0  0  0  0  0
   10.5980   13.8950   12.6340 H   0  0  0  0  0  0  0  0  0  0  0  0
    7.7037   15.7783   12.7443 H   0  0  0  0  0  0  0  0  0  0  0  0
    6.5380   15.5590   15.1130 H   0  0  0  0  0  0  0  0  0  0  0  0
  1  2  1  0
  2  3  1  0
  3  4  1  0
  4  5  1  0
  5  6  1  0
  6  7  1  0
  7  8  1  0
  8  9  1  0
  9 10  2  0
 10 11  1  0
 11 12  1  0
 12 13  1  0
 13 14  1  0
 14 15  1  0
 14 16  1  0
 16 17  1  0
 16 18  1  0
 18 19  1  0
 18 20  1  0
 20 21  1  0
 20 22  1  0
 22 10  1  0
 22 13  1  0
  1 23  1  0
  1 24  1  0
  1 25  1  0
  2 26  1  0
  2 27  1  0
  3 28  1  0
  3 29  1  0
  4 30  1  0
  4 31  1  0
  5 32  1  0
  5 33  1  0
  6 34  1  0
  6 35  1  0
  7 36  1  0
  7 37  1  0
  8 38  1  0
  8 39  1  0
  9 40  1  0
 12 41  1  0
 12 42  1  0
 13 43  1  6
 14 44  1  1
 15 45  1  0
 16 46  1  6
 17 47  1  0
 18 48  1  1
 19 49  1  0
 20 50  1  6
 21 51  1  0
M  CHG  1   9   1
M  END
>  <meeko>  (3) 
{"is_sidechain": [false], "free_energy": -6.382, "intermolecular_energy": -10.142, "internal_energy": -0.286}

$$$$
2wbg_ligand
     RDKit          3D

 51 52  0  0  0  0  0  0  0  0999 V2000
   -0.8410    9.3250   14.0300 C   0  0  0  0  0  0  0  0  0  0  0  0
   -0.9310   10.6510   14.7700 C   0  0  0  0  0  0  0  0  0  0  0  0
    0.3410   11.4960   14.6630 C   0  0  0  0  0  0  0  0  0  0  0  0
    0.1960   12.6840   13.7100 C   0  0  0  0  0  0  0  0  0  0  0  0
    1.5320   13.3490   13.3650 C   0  0  0  0  0  0  0  0  0  0  0  0
    2.0480   13.1060   11.9430 C   0  0  0  0  0  0  0  0  0  0  0  0
    2.5990   11.7010   11.6670 C   0  0  0  0  0  0  0  0  0  0  0  0
    4.0330   11.6710   11.1480 C   0  0  0  0  0  0  0  0  0  0  0  0
    4.9060   12.4250   12.0590 N   0  0  0  0  0  0  0  0  0  0  0  0
    6.1660   12.1120   12.2380 C   0  0  0  0  0  0  0  0  0  0  0  0
    6.6690   11.0570   11.5820 O   0  0  0  0  0  0  0  0  0  0  0  0
    7.8870   10.7490   12.2920 C   0  0  0  0  0  0  0  0  0  0  0  0
    8.3070   12.0610   12.9240 C   0  0  2  0  0  0  0  0  0  0  0  0
    8.8940   11.9400   14.3220 C   0  0  1  0  0  0  0  0  0  0  0  0
   10.1010   11.1830   14.3030 O   0  0  0  0  0  0  0  0  0  0  0  0
    9.1440   13.3510   14.8920 C   0  0  2  0  0  0  0  0  0  0  0  0
    9.1340   13.2930   16.3240 O   0  0  0  0  0  0  0  0  0  0  0  0
    8.1710   14.4390   14.3780 C   0  0  1  0  0  0  0  0  0  0  0  0
    8.7780   15.1310   13.2740 O   0  0  0  0  0  0  0  0  0  0  0  0
    6.8150   13.8640   13.8980 C   0  0  2  0  0  0  0  0  0  0  0  0
    6.0560   13.3700   14.9810 O   0  0  0  0  0  0  0  0  0  0  0  0
    7.0190   12.7310   13.0170 N   0  0  0  0  0  0  0  0  0  0  0  0
   -0.7851    8.5020   14.7577 H   0  0  0  0  0  0  0  0  0  0  0  0
   -1.7325    9.1962   13.3986 H   0  0  0  0  0  0  0  0  0  0  0  0
    0.0597    9.3179   13.3986 H   0  0  0  0  0  0  0  0  0  0  0  0
   -1.7687   11.2277   14.3509 H   0  0  0  0  0  0  0  0  0  0  0  0
   -1.0771   10.4185   15.8352 H   0  0  0  0  0  0  0  0  0  0  0  0
    0.5919   11.8787   15.6633 H   0  0  0  0  0  0  0  0  0  0  0  0
    1.1319   10.8470   14.2590 H   0  0  0  0  0  0  0  0  0  0  0  0
   -0.2688   12.3296   12.7781 H   0  0  0  0  0  0  0  0  0  0  0  0
   -0.4217   13.4379   14.2199 H   0  0  0  0  0  0  0  0  0  0  0  0
    1.4143   14.4342   13.5009 H   0  0  0  0  0  0  0  0  0  0  0  0
    2.2755   12.8933   14.0355 H   0  0  0  0  0  0  0  0  0  0  0  0
    1.2161   13.2859   11.2461 H   0  0  0  0  0  0  0  0  0  0  0  0
    2.8970   13.7928   11.8103 H   0  0  0  0  0  0  0  0  0  0  0  0
    2.5617   11.1277   12.6050 H   0  0  0  0  0  0  0  0  0  0  0  0
    1.9713   11.2709   10.8726 H   0  0  0  0  0  0  0  0  0  0  0  0
    4.3789   10.6284   11.0896 H   0  0  0  0  0  0  0  0  0  0  0  0
    4.0680   12.1286   10.1483 H   0  0  0  0  0  0  0  0  0  0  0  0
    4.5340   13.1790   12.6160 H   0  0  0  0  0  0  0  0  0  0  0  0
    7.7036    9.9876   13.0644 H   0  0  0  0  0  0  0  0  0  0  0  0
    8.6630   10.3397   11.6285 H   0  0  0  0  0  0  0  0  0  0  0  0
    9.1007   12.5564   12.3455 H   0  0  0  0  0  0  0  0  0  0  0  0
    8.1791   11.4087   14.9675 H   0  0  0  0  0  0  0  0  0  0  0  0
   10.3060   10.9730   13.3690 H   0  0  0  0  0  0  0  0  0  0  0  0
   10.1322   13.6635   14.5236 H   0  0  0  0  0  0  0  0  0  0  0  0
    8.8100   14.1340   16.6920 H   0  0  0  0  0  0  0  0  0  0  0  0
    7.9715   15.1122   15.2248 H   0  0  0  0  0  0  0  0  0  0  0  0
    9.1640   15.9620   13.6170 H   0  0  0  0  0  0  0  0  0  0  0  0
    6.2957   14.6892   13.3887 H   0  0  0  0  0  0  0  0  0  0  0  0
    6.5680   12.6430   15.3820 H   0  0  0  0  0  0  0  0  0  0  0  0
  1  2  1  0
  2  3  1  0
  3  4  1  0
  4  5  1  0
  5  6  1  0
  6  7  1  0
  7  8  1  0
  8  9  1  0
  9 10  2  0
 10 11  1  0
 11 12  1  0
 12 13  1  0
 13 14  1  0
 14 15  1  0
 14 16  1  0
 16 17  1  0
 16 18  1  0
 18 19  1  0
 18 20  1  0
 20 21  1  0
 20 22  1  0
 22 10  1  0
 22 13  1  0
  1 23  1  0
  1 24  1  0
  1 25  1  0
  2 26  1  0
  2 27  1  0
  3 28  1  0
  3 29  1  0
  4 30  1  0
  4 31  1  0
  5 32  1  0
  5 33  1  0
  6 34  1  0
  6 35  1  0
  7 36  1  0
  7 37  1  0
  8 38  1  0
  8 39  1  0
  9 40  1  0
 12 41  1  0
 12 42  1  0
 13 43  1  6
 14 44  1  1
 15 45  1  0
 16 46  1  6
 17 47  1  0
 18 48  1  1
 19 49  1  0
 20 50  1  6
 21 51  1  0
M  CHG  1   9   1
M  END
>  <meeko>  (4) 
{"is_sidechain": [false], "free_energy": -6.312, "intermolecular_energy": -9.876, "internal_energy": -0.444}

$$$$
2wbg_ligand
     RDKit          3D

 51 52  0  0  0  0  0  0  0  0999 V2000
    0.7280   15.1510   15.1510 C   0  0  0  0  0  0  0  0  0  0  0  0
    1.3950   14.2560   14.1190 C   0  0  0  0  0  0  0  0  0  0  0  0
    0.5400   14.0240   12.8700 C   0  0  0  0  0  0  0  0  0  0  0  0
    0.4110   12.5450   12.4950 C   0  0  0  0  0  0  0  0  0  0  0  0
    1.7530   11.8060   12.4790 C   0  0  0  0  0  0  0  0  0  0  0  0
    2.7400   12.2480   11.3940 C   0  0  0  0  0  0  0  0  0  0  0  0
    3.8960   11.2800   11.1130 C   0  0  0  0  0  0  0  0  0  0  0  0
    4.7530   10.9400   12.3280 C   0  0  0  0  0  0  0  0  0  0  0  0
    5.7090   12.0280   12.5790 N   0  0  0  0  0  0  0  0  0  0  0  0
    6.5850   11.9770   13.5520 C   0  0  0  0  0  0  0  0  0  0  0  0
    6.5950   10.9060   14.3570 O   0  0  0  0  0  0  0  0  0  0  0  0
    7.3440   11.3400   15.5120 C   0  0  0  0  0  0  0  0  0  0  0  0
    8.2480   12.4400   14.9930 C   0  0  2  0  0  0  0  0  0  0  0  0
    8.4350   13.6150   15.9420 C   0  0  1  0  0  0  0  0  0  0  0  0
    9.0780   13.2010   17.1440 O   0  0  0  0  0  0  0  0  0  0  0  0
    9.2560   14.7130   15.2350 C   0  0  2  0  0  0  0  0  0  0  0  0
    8.9650   15.9820   15.8320 O   0  0  0  0  0  0  0  0  0  0  0  0
    9.0730   14.7710   13.6990 C   0  0  1  0  0  0  0  0  0  0  0  0
   10.1310   14.0280   13.0700 O   0  0  0  0  0  0  0  0  0  0  0  0
    7.7220   14.1790   13.2250 C   0  0  2  0  0  0  0  0  0  0  0  0
    6.6400   14.9960   13.6170 O   0  0  0  0  0  0  0  0  0  0  0  0
    7.4800   12.8900   13.8430 N   0  0  0  0  0  0  0  0  0  0  0  0
    0.9878   14.8023   16.1614 H   0  0  0  0  0  0  0  0  0  0  0  0
    1.0769   16.1858   15.0192 H   0  0  0  0  0  0  0  0  0  0  0  0
   -0.3634   15.1124   15.0192 H   0  0  0  0  0  0  0  0  0  0  0  0
    2.3415   14.7244   13.8113 H   0  0  0  0  0  0  0  0  0  0  0  0
    1.5503   13.2753   14.5923 H   0  0  0  0  0  0  0  0  0  0  0  0
   -0.4666   14.4270   13.0553 H   0  0  0  0  0  0  0  0  0  0  0  0
    1.0399   14.5319   12.0320 H   0  0  0  0  0  0  0  0  0  0  0  0
   -0.2488   12.0554   13.2264 H   0  0  0  0  0  0  0  0  0  0  0  0
    0.0022   12.5014   11.4747 H   0  0  0  0  0  0  0  0  0  0  0  0
    2.2344   11.9577   13.4564 H   0  0  0  0  0  0  0  0  0  0  0  0
    1.5148   10.7550   12.2585 H   0  0  0  0  0  0  0  0  0  0  0  0
    2.1766   12.3823   10.4588 H   0  0  0  0  0  0  0  0  0  0  0  0
    3.2060   13.1707   11.7701 H   0  0  0  0  0  0  0  0  0  0  0  0
    3.4714   10.3442   10.7206 H   0  0  0  0  0  0  0  0  0  0  0  0
    4.5594   11.7881   10.3976 H   0  0  0  0  0  0  0  0  0  0  0  0
    4.1056   10.8117   13.2080 H   0  0  0  0  0  0  0  0  0  0  0  0
    5.3040   10.0075   12.1362 H   0  0  0  0  0  0  0  0  0  0  0  0
    5.6760   12.8740   12.0310 H   0  0  0  0  0  0  0  0  0  0  0  0
    6.6687   11.7272   16.2892 H   0  0  0  0  0  0  0  0  0  0  0  0
    7.9112   10.5181   15.9732 H   0  0  0  0  0  0  0  0  0  0  0  0
    9.2708   12.0769   14.8141 H   0  0  0  0  0  0  0  0  0  0  0  0
    7.4483   14.0172   16.2151 H   0  0  0  0  0  0  0  0  0  0  0  0
    9.8680   13.7640   17.2670 H   0  0  0  0  0  0  0  0  0  0  0  0
   10.3143   14.4506   15.3802 H   0  0  0  0  0  0  0  0  0  0  0  0
    9.7620   16.5410   15.8390 H   0  0  0  0  0  0  0  0  0  0  0  0
    9.0933   15.8339   13.4165 H   0  0  0  0  0  0  0  0  0  0  0  0
   10.6590   13.6030   13.7750 H   0  0  0  0  0  0  0  0  0  0  0  0
    7.7888   14.1010   12.1298 H   0  0  0  0  0  0  0  0  0  0  0  0
    7.0150   15.7660   14.0840 H   0  0  0  0  0  0  0  0  0  0  0  0
  1  2  1  0
  2  3  1  0
  3  4  1  0
  4  5  1  0
  5  6  1  0
  6  7  1  0
  7  8  1  0
  8  9  1  0
  9 10  2  0
 10 11  1  0
 11 12  1  0
 12 13  1  0
 13 14  1  0
 14 15  1  0
 14 16  1  0
 16 17  1  0
 16 18  1  0
 18 19  1  0
 18 20  1  0
 20 21  1  0
 20 22  1  0
 22 10  1  0
 22 13  1  0
  1 23  1  0
  1 24  1  0
  1 25  1  0
  2 26  1  0
  2 27  1  0
  3 28  1  0
  3 29  1  0
  4 30  1  0
  4 31  1  0
  5 32  1  0
  5 33  1  0
  6 34  1  0
  6 35  1  0
  7 36  1  0
  7 37  1  0
  8 38  1  0
  8 39  1  0
  9 40  1  0
 12 41  1  0
 12 42  1  0
 13 43  1  6
 14 44  1  1
 15 45  1  0
 16 46  1  6
 17 47  1  0
 18 48  1  6
 19 49  1  0
 20 50  1  6
 21 51  1  0
M  CHG  1   9   1
M  END
>  <meeko>  (5) 
{"is_sidechain": [false], "free_energy": -6.236, "intermolecular_energy": -9.733, "internal_energy": -0.471}

$$$$
2wbg_ligand
     RDKit          3D

 51 52  0  0  0  0  0  0  0  0999 V2000
    4.4830   12.6490   11.8750 C   0  0  0  0  0  0  0  0  0  0  0  0
    4.4680   11.2080   11.3900 C   0  0  0  0  0  0  0  0  0  0  0  0
    5.8470   10.5430   11.4150 C   0  0  0  0  0  0  0  0  0  0  0  0
    5.7950    9.0650   11.8100 C   0  0  0  0  0  0  0  0  0  0  0  0
    6.6470    8.1680   10.9060 C   0  0  0  0  0  0  0  0  0  0  0  0
    7.9690    7.6820   11.5100 C   0  0  0  0  0  0  0  0  0  0  0  0
    9.0880    8.7280   11.5890 C   0  0  0  0  0  0  0  0  0  0  0  0
    9.5920    9.0160   12.9990 C   0  0  0  0  0  0  0  0  0  0  0  0
    9.6570   10.4680   13.2160 N   0  0  0  0  0  0  0  0  0  0  0  0
    8.7700   11.1080   13.9370 C   0  0  0  0  0  0  0  0  0  0  0  0
    7.7580   10.4160   14.4780 O   0  0  0  0  0  0  0  0  0  0  0  0
    6.7860   11.4260   14.8240 C   0  0  0  0  0  0  0  0  0  0  0  0
    7.6000   12.6890   15.0260 C   0  0  2  0  0  0  0  0  0  0  0  0
    6.9430   13.9610   14.5130 C   0  0  1  0  0  0  0  0  0  0  0  0
    5.7350   14.2320   15.2200 O   0  0  0  0  0  0  0  0  0  0  0  0
    7.9310   15.1370   14.6550 C   0  0  2  0  0  0  0  0  0  0  0  0
    7.5990   16.1550   13.7040 O   0  0  0  0  0  0  0  0  0  0  0  0
    9.4250   14.7440   14.5420 C   0  0  1  0  0  0  0  0  0  0  0  0
    9.9630   14.5550   15.8610 O   0  0  0  0  0  0  0  0  0  0  0  0
    9.6510   13.4390   13.7390 C   0  0  2  0  0  0  0  0  0  0  0  0
    9.3570   13.6220   12.3710 O   0  0  0  0  0  0  0  0  0  0  0  0
    8.7540   12.3930   14.1920 N   0  0  0  0  0  0  0  0  0  0  0  0
    4.4832   12.6657   12.9749 H   0  0  0  0  0  0  0  0  0  0  0  0
    5.3864   13.1525   11.5005 H   0  0  0  0  0  0  0  0  0  0  0  0
    3.5902   13.1712   11.5005 H   0  0  0  0  0  0  0  0  0  0  0  0
    3.7905   10.6299   12.0356 H   0  0  0  0  0  0  0  0  0  0  0  0
    4.1333   11.2217   10.3422 H   0  0  0  0  0  0  0  0  0  0  0  0
    6.2916   10.6217   10.4119 H   0  0  0  0  0  0  0  0  0  0  0  0
    6.4482   11.0641   12.1746 H   0  0  0  0  0  0  0  0  0  0  0  0
    6.1589    8.9663   12.8434 H   0  0  0  0  0  0  0  0  0  0  0  0
    4.7506    8.7356   11.7064 H   0  0  0  0  0  0  0  0  0  0  0  0
    6.0479    7.2826   10.6466 H   0  0  0  0  0  0  0  0  0  0  0  0
    6.9223    8.7886   10.0405 H   0  0  0  0  0  0  0  0  0  0  0  0
    7.7642    7.3282   12.5312 H   0  0  0  0  0  0  0  0  0  0  0  0
    8.3383    6.8982   10.8323 H   0  0  0  0  0  0  0  0  0  0  0  0
    9.9365    8.3681   10.9886 H   0  0  0  0  0  0  0  0  0  0  0  0
    8.6606    9.6694   11.2133 H   0  0  0  0  0  0  0  0  0  0  0  0
    8.9048    8.5674   13.7315 H   0  0  0  0  0  0  0  0  0  0  0  0
   10.5964    8.5845   13.1215 H   0  0  0  0  0  0  0  0  0  0  0  0
   10.3690   11.0210   12.7630 H   0  0  0  0  0  0  0  0  0  0  0  0
    6.0583   11.5593   14.0099 H   0  0  0  0  0  0  0  0  0  0  0  0
    6.2060   11.1567   15.7190 H   0  0  0  0  0  0  0  0  0  0  0  0
    7.7791   12.8934   16.0919 H   0  0  0  0  0  0  0  0  0  0  0  0
    6.6848   13.8279   13.4521 H   0  0  0  0  0  0  0  0  0  0  0  0
    5.1770   13.4290   15.1730 H   0  0  0  0  0  0  0  0  0  0  0  0
    7.8169   15.5150   15.6817 H   0  0  0  0  0  0  0  0  0  0  0  0
    7.7010   17.0360   14.1060 H   0  0  0  0  0  0  0  0  0  0  0  0
    9.9291   15.5616   14.0059 H   0  0  0  0  0  0  0  0  0  0  0  0
   10.3040   15.4170   16.1720 H   0  0  0  0  0  0  0  0  0  0  0  0
   10.7061   13.1666   13.8894 H   0  0  0  0  0  0  0  0  0  0  0  0
    9.6400   12.8130   11.9040 H   0  0  0  0  0  0  0  0  0  0  0  0
  1  2  1  0
  2  3  1  0
  3  4  1  0
  4  5  1  0
  5  6  1  0
  6  7  1  0
  7  8  1  0
  8  9  1  0
  9 10  2  0
 10 11  1  0
 11 12  1  0
 12 13  1  0
 13 14  1  0
 14 15  1  0
 14 16  1  0
 16 17  1  0
 16 18  1  0
 18 19  1  0
 18 20  1  0
 20 21  1  0
 20 22  1  0
 22 10  1  0
 22 13  1  0
  1 23  1  0
  1 24  1  0
  1 25  1  0
  2 26  1  0
  2 27  1  0
  3 28  1  0
  3 29  1  0
  4 30  1  0
  4 31  1  0
  5 32  1  0
  5 33  1  0
  6 34  1  0
  6 35  1  0
  7 36  1  0
  7 37  1  0
  8 38  1  0
  8 39  1  0
  9 40  1  0
 12 41  1  0
 12 42  1  0
 13 43  1  1
 14 44  1  6
 15 45  1  0
 16 46  1  1
 17 47  1  0
 18 48  1  6
 19 49  1  0
 20 50  1  6
 21 51  1  0
M  CHG  1   9   1
M  END
>  <meeko>  (6) 
{"is_sidechain": [false], "free_energy": -6.202, "intermolecular_energy": -9.327, "internal_energy": -0.826}

$$$$
2wbg_ligand
     RDKit          3D

 51 52  0  0  0  0  0  0  0  0999 V2000
   -0.8240   15.8620   12.6020 C   0  0  0  0  0  0  0  0  0  0  0  0
   -0.2470   15.8630   14.0090 C   0  0  0  0  0  0  0  0  0  0  0  0
    0.7550   14.7330   14.2590 C   0  0  0  0  0  0  0  0  0  0  0  0
    0.6300   13.5860   13.2530 C   0  0  0  0  0  0  0  0  0  0  0  0
    1.9350   13.2930   12.5050 C   0  0  0  0  0  0  0  0  0  0  0  0
    2.6080   14.5020   11.8470 C   0  0  0  0  0  0  0  0  0  0  0  0
    4.0400   14.7990   12.3080 C   0  0  0  0  0  0  0  0  0  0  0  0
    4.3490   14.3750   13.7400 C   0  0  0  0  0  0  0  0  0  0  0  0
    5.3670   13.3140   13.7350 N   0  0  0  0  0  0  0  0  0  0  0  0
    6.6230   13.5500   14.0250 C   0  0  0  0  0  0  0  0  0  0  0  0
    6.9940   14.8030   14.3170 O   0  0  0  0  0  0  0  0  0  0  0  0
    8.4300   14.7890   14.1730 C   0  0  0  0  0  0  0  0  0  0  0  0
    8.8270   13.3470   14.4210 C   0  0  2  0  0  0  0  0  0  0  0  0
    9.9470   12.8290   13.5320 C   0  0  1  0  0  0  0  0  0  0  0  0
   11.1550   13.5470   13.7660 O   0  0  0  0  0  0  0  0  0  0  0  0
   10.1500   11.3230   13.7950 C   0  0  2  0  0  0  0  0  0  0  0  0
   10.7390   10.7140   12.6400 O   0  0  0  0  0  0  0  0  0  0  0  0
    8.8710   10.5630   14.2280 C   0  0  1  0  0  0  0  0  0  0  0  0
    8.8360   10.4790   15.6620 O   0  0  0  0  0  0  0  0  0  0  0  0
    7.5660   11.2510   13.7540 C   0  0  2  0  0  0  0  0  0  0  0  0
    7.4220   11.1660   12.3530 O   0  0  0  0  0  0  0  0  0  0  0  0
    7.5930   12.6690   14.0560 N   0  0  0  0  0  0  0  0  0  0  0  0
   -1.9227   15.8601   12.6563 H   0  0  0  0  0  0  0  0  0  0  0  0
   -0.4849   16.7607   12.0660 H   0  0  0  0  0  0  0  0  0  0  0  0
   -0.4818   14.9644   12.0660 H   0  0  0  0  0  0  0  0  0  0  0  0
    0.2627   16.8235   14.1756 H   0  0  0  0  0  0  0  0  0  0  0  0
   -1.0866   15.7103   14.7031 H   0  0  0  0  0  0  0  0  0  0  0  0
    1.7723   15.1464   14.1939 H   0  0  0  0  0  0  0  0  0  0  0  0
    0.5413   14.3197   15.2558 H   0  0  0  0  0  0  0  0  0  0  0  0
    0.3261   12.6779   13.7944 H   0  0  0  0  0  0  0  0  0  0  0  0
   -0.1152   13.8893   12.5029 H   0  0  0  0  0  0  0  0  0  0  0  0
    2.6464   12.8592   13.2232 H   0  0  0  0  0  0  0  0  0  0  0  0
    1.6639   12.6153   11.6821 H   0  0  0  0  0  0  0  0  0  0  0  0
    2.6322   14.3259   10.7615 H   0  0  0  0  0  0  0  0  0  0  0  0
    2.0102   15.3762   12.1441 H   0  0  0  0  0  0  0  0  0  0  0  0
    4.7327   14.2700   11.6369 H   0  0  0  0  0  0  0  0  0  0  0  0
    4.1565   15.8923   12.2756 H   0  0  0  0  0  0  0  0  0  0  0  0
    4.7262   15.2407   14.3042 H   0  0  0  0  0  0  0  0  0  0  0  0
    3.4311   13.9964   14.2135 H   0  0  0  0  0  0  0  0  0  0  0  0
    5.1260   12.3770   13.4510 H   0  0  0  0  0  0  0  0  0  0  0  0
    8.7214   15.1029   13.1598 H   0  0  0  0  0  0  0  0  0  0  0  0
    8.9250   15.4827   14.8685 H   0  0  0  0  0  0  0  0  0  0  0  0
    9.2090   13.1994   15.4419 H   0  0  0  0  0  0  0  0  0  0  0  0
    9.6684   12.9802   12.4787 H   0  0  0  0  0  0  0  0  0  0  0  0
   11.8210   12.9090   14.0930 H   0  0  0  0  0  0  0  0  0  0  0  0
   10.8264   11.2476   14.6592 H   0  0  0  0  0  0  0  0  0  0  0  0
   11.6430   10.4140   12.8420 H   0  0  0  0  0  0  0  0  0  0  0  0
    8.9177    9.5688   13.7597 H   0  0  0  0  0  0  0  0  0  0  0  0
    9.7110   10.1640   15.9650 H   0  0  0  0  0  0  0  0  0  0  0  0
    6.7433   10.7375   14.2731 H   0  0  0  0  0  0  0  0  0  0  0  0
    7.3050   12.0760   12.0190 H   0  0  0  0  0  0  0  0  0  0  0  0
  1  2  1  0
  2  3  1  0
  3  4  1  0
  4  5  1  0
  5  6  1  0
  6  7  1  0
  7  8  1  0
  8  9  1  0
  9 10  2  0
 10 11  1  0
 11 12  1  0
 12 13  1  0
 13 14  1  0
 14 15  1  0
 14 16  1  0
 16 17  1  0
 16 18  1  0
 18 19  1  0
 18 20  1  0
 20 21  1  0
 20 22  1  0
 22 10  1  0
 22 13  1  0
  1 23  1  0
  1 24  1  0
  1 25  1  0
  2 26  1  0
  2 27  1  0
  3 28  1  0
  3 29  1  0
  4 30  1  0
  4 31  1  0
  5 32  1  0
  5 33  1  0
  6 34  1  0
  6 35  1  0
  7 36  1  0
  7 37  1  0
  8 38  1  0
  8 39  1  0
  9 40  1  0
 12 41  1  0
 12 42  1  0
 13 43  1  1
 14 44  1  6
 15 45  1  0
 16 46  1  1
 17 47  1  0
 18 48  1  6
 19 49  1  0
 20 50  1  1
 21 51  1  0
M  CHG  1   9   1
M  END
>  <meeko>  (7) 
{"is_sidechain": [false], "free_energy": -6.152, "intermolecular_energy": -9.435, "internal_energy": -0.641}

$$$$
2wbg_ligand
     RDKit          3D

 51 52  0  0  0  0  0  0  0  0999 V2000
   15.0020    7.4660    7.8990 C   0  0  0  0  0  0  0  0  0  0  0  0
   15.2840    6.4080    8.9540 C   0  0  0  0  0  0  0  0  0  0  0  0
   14.7920    6.7950   10.3510 C   0  0  0  0  0  0  0  0  0  0  0  0
   13.5190    7.6450   10.3280 C   0  0  0  0  0  0  0  0  0  0  0  0
   12.3820    7.0530   11.1680 C   0  0  0  0  0  0  0  0  0  0  0  0
   11.0240    7.7480   11.0290 C   0  0  0  0  0  0  0  0  0  0  0  0
   10.9740    9.2100   11.4890 C   0  0  0  0  0  0  0  0  0  0  0  0
    9.6210    9.6620   12.0300 C   0  0  0  0  0  0  0  0  0  0  0  0
    9.7410   11.0100   12.6020 N   0  0  0  0  0  0  0  0  0  0  0  0
    8.9760   11.4240   13.5820 C   0  0  0  0  0  0  0  0  0  0  0  0
    8.0400   10.5960   14.0640 O   0  0  0  0  0  0  0  0  0  0  0  0
    7.1450   11.4620   14.7930 C   0  0  0  0  0  0  0  0  0  0  0  0
    8.0000   12.6470   15.1960 C   0  0  2  0  0  0  0  0  0  0  0  0
    7.2980   13.9950   15.1270 C   0  0  1  0  0  0  0  0  0  0  0  0
    6.2090   14.0490   16.0440 O   0  0  0  0  0  0  0  0  0  0  0  0
    8.3180   15.1140   15.4270 C   0  0  2  0  0  0  0  0  0  0  0  0
    7.8700   16.3360   14.8270 O   0  0  0  0  0  0  0  0  0  0  0  0
    9.7730   14.7930   15.0060 C   0  0  1  0  0  0  0  0  0  0  0  0
   10.4900   14.2820   16.1410 O   0  0  0  0  0  0  0  0  0  0  0  0
    9.8600   13.7440   13.8690 C   0  0  2  0  0  0  0  0  0  0  0  0
    9.3780   14.2680   12.6510 O   0  0  0  0  0  0  0  0  0  0  0  0
    9.0180   12.6000   14.1600 N   0  0  0  0  0  0  0  0  0  0  0  0
   14.7487    8.4164    8.3914 H   0  0  0  0  0  0  0  0  0  0  0  0
   15.8945    7.6048    7.2712 H   0  0  0  0  0  0  0  0  0  0  0  0
   14.1588    7.1422    7.2712 H   0  0  0  0  0  0  0  0  0  0  0  0
   14.7840    5.4751    8.6544 H   0  0  0  0  0  0  0  0  0  0  0  0
   16.3764    6.2937    9.0149 H   0  0  0  0  0  0  0  0  0  0  0  0
   14.5874    5.8743   10.9171 H   0  0  0  0  0  0  0  0  0  0  0  0
   15.5814    7.4012   10.8193 H   0  0  0  0  0  0  0  0  0  0  0  0
   13.7590    8.6445   10.7196 H   0  0  0  0  0  0  0  0  0  0  0  0
   13.1698    7.6823    9.2856 H   0  0  0  0  0  0  0  0  0  0  0  0
   12.2554    6.0010   10.8724 H   0  0  0  0  0  0  0  0  0  0  0  0
   12.6824    7.1876   12.2176 H   0  0  0  0  0  0  0  0  0  0  0  0
   10.7361    7.7178    9.9678 H   0  0  0  0  0  0  0  0  0  0  0  0
   10.3385    7.2015   11.6934 H   0  0  0  0  0  0  0  0  0  0  0  0
   11.7231    9.3452   12.2831 H   0  0  0  0  0  0  0  0  0  0  0  0
   11.1729    9.8232   10.5977 H   0  0  0  0  0  0  0  0  0  0  0  0
    8.8863    9.6763   11.2115 H   0  0  0  0  0  0  0  0  0  0  0  0
    9.2896    8.9629   12.8120 H   0  0  0  0  0  0  0  0  0  0  0  0
   10.3910   11.6750   12.2110 H   0  0  0  0  0  0  0  0  0  0  0  0
    6.3109   11.7853   14.1529 H   0  0  0  0  0  0  0  0  0  0  0  0
    6.6945   10.9591   15.6615 H   0  0  0  0  0  0  0  0  0  0  0  0
    8.3319   12.5735   16.2421 H   0  0  0  0  0  0  0  0  0  0  0  0
    6.8884   14.1360   14.1159 H   0  0  0  0  0  0  0  0  0  0  0  0
    5.9190   14.9820   16.1050 H   0  0  0  0  0  0  0  0  0  0  0  0
    8.3597   15.2125   16.5218 H   0  0  0  0  0  0  0  0  0  0  0  0
    7.8720   16.2540   13.8570 H   0  0  0  0  0  0  0  0  0  0  0  0
   10.2099   15.7311   14.6330 H   0  0  0  0  0  0  0  0  0  0  0  0
   10.0750   13.4340   16.4010 H   0  0  0  0  0  0  0  0  0  0  0  0
   10.9206   13.4628   13.7918 H   0  0  0  0  0  0  0  0  0  0  0  0
   10.0270   14.9300   12.3450 H   0  0  0  0  0  0  0  0  0  0  0  0
  1  2  1  0
  2  3  1  0
  3  4  1  0
  4  5  1  0
  5  6  1  0
  6  7  1  0
  7  8  1  0
  8  9  1  0
  9 10  2  0
 10 11  1  0
 11 12  1  0
 12 13  1  0
 13 14  1  0
 14 15  1  0
 14 16  1  0
 16 17  1  0
 16 18  1  0
 18 19  1  0
 18 20  1  0
 20 21  1  0
 20 22  1  0
 22 10  1  0
 22 13  1  0
  1 23  1  0
  1 24  1  0
  1 25  1  0
  2 26  1  0
  2 27  1  0
  3 28  1  0
  3 29  1  0
  4 30  1  0
  4 31  1  0
  5 32  1  0
  5 33  1  0
  6 34  1  0
  6 35  1  0
  7 36  1  0
  7 37  1  0
  8 38  1  0
  8 39  1  0
  9 40  1  0
 12 41  1  0
 12 42  1  0
 13 43  1  1
 14 44  1  6
 15 45  1  0
 16 46  1  1
 17 47  1  0
 18 48  1  6
 19 49  1  0
 20 50  1  6
 21 51  1  0
M  CHG  1   9   1
M  END
>  <meeko>  (8) 
{"is_sidechain": [false], "free_energy": -6.126, "intermolecular_energy": -9.767, "internal_energy": -0.269}

$$$$
2wbg_ligand
     RDKit          3D

 51 52  0  0  0  0  0  0  0  0999 V2000
   -1.1120   10.2470   14.8130 C   0  0  0  0  0  0  0  0  0  0  0  0
   -0.1240   10.5620   13.7010 C   0  0  0  0  0  0  0  0  0  0  0  0
    1.3390   10.4140   14.1250 C   0  0  0  0  0  0  0  0  0  0  0  0
    2.2930   11.2930   13.3130 C   0  0  0  0  0  0  0  0  0  0  0  0
    1.5710   12.2060   12.3160 C   0  0  0  0  0  0  0  0  0  0  0  0
    2.4560   13.2220   11.5860 C   0  0  0  0  0  0  0  0  0  0  0  0
    2.5130   14.6230   12.2080 C   0  0  0  0  0  0  0  0  0  0  0  0
    3.9140   15.1000   12.5760 C   0  0  0  0  0  0  0  0  0  0  0  0
    4.7550   13.9450   12.9230 N   0  0  0  0  0  0  0  0  0  0  0  0
    5.9220   14.0810   13.5040 C   0  0  0  0  0  0  0  0  0  0  0  0
    6.3710   15.3140   13.7720 O   0  0  0  0  0  0  0  0  0  0  0  0
    7.7840   15.1330   14.0020 C   0  0  0  0  0  0  0  0  0  0  0  0
    7.9170   13.6970   14.4680 C   0  0  2  0  0  0  0  0  0  0  0  0
    9.1430   12.9650   13.9440 C   0  0  1  0  0  0  0  0  0  0  0  0
   10.3410   13.5760   14.4160 O   0  0  0  0  0  0  0  0  0  0  0  0
    9.0770   11.4870   14.3790 C   0  0  2  0  0  0  0  0  0  0  0  0
    9.8460   10.6890   13.4700 O   0  0  0  0  0  0  0  0  0  0  0  0
    7.6440   10.9200   14.5340 C   0  0  1  0  0  0  0  0  0  0  0  0
    7.2500   11.0070   15.9130 O   0  0  0  0  0  0  0  0  0  0  0  0
    6.5960   11.6800   13.6840 C   0  0  2  0  0  0  0  0  0  0  0  0
    6.7880   11.4480   12.3050 O   0  0  0  0  0  0  0  0  0  0  0  0
    6.7320   13.1130   13.8590 N   0  0  0  0  0  0  0  0  0  0  0  0
   -0.6276   10.4014   15.7885 H   0  0  0  0  0  0  0  0  0  0  0  0
   -1.9844   10.9115   14.7275 H   0  0  0  0  0  0  0  0  0  0  0  0
   -1.4387    9.2001   14.7275 H   0  0  0  0  0  0  0  0  0  0  0  0
   -0.3143    9.8770   12.8616 H   0  0  0  0  0  0  0  0  0  0  0  0
   -0.2753   11.6153   13.4221 H   0  0  0  0  0  0  0  0  0  0  0  0
    1.4254   10.6913   15.1860 H   0  0  0  0  0  0  0  0  0  0  0  0
    1.6270    9.3674   13.9472 H   0  0  0  0  0  0  0  0  0  0  0  0
    2.8679   11.9211   14.0094 H   0  0  0  0  0  0  0  0  0  0  0  0
    2.9413   10.6213   12.7312 H   0  0  0  0  0  0  0  0  0  0  0  0
    1.0927   11.5680   11.5582 H   0  0  0  0  0  0  0  0  0  0  0  0
    0.8611   12.7990   12.9113 H   0  0  0  0  0  0  0  0  0  0  0  0
    3.4802   12.8215   11.5609 H   0  0  0  0  0  0  0  0  0  0  0  0
    2.0038   13.3536   10.5919 H   0  0  0  0  0  0  0  0  0  0  0  0
    2.0867   15.3358   11.4867 H   0  0  0  0  0  0  0  0  0  0  0  0
    1.9460   14.5686   13.1490 H   0  0  0  0  0  0  0  0  0  0  0  0
    4.3564   15.6305   11.7199 H   0  0  0  0  0  0  0  0  0  0  0  0
    3.8529   15.7788   13.4394 H   0  0  0  0  0  0  0  0  0  0  0  0
    4.4710   13.0110   12.6700 H   0  0  0  0  0  0  0  0  0  0  0  0
    8.3519   15.2938   13.0737 H   0  0  0  0  0  0  0  0  0  0  0  0
    8.1808   15.8478   14.7379 H   0  0  0  0  0  0  0  0  0  0  0  0
    8.0154   13.6308   15.5616 H   0  0  0  0  0  0  0  0  0  0  0  0
    9.1525   13.0206   12.8454 H   0  0  0  0  0  0  0  0  0  0  0  0
   10.9540   13.6540   13.6570 H   0  0  0  0  0  0  0  0  0  0  0  0
    9.5059   11.4428   15.3910 H   0  0  0  0  0  0  0  0  0  0  0  0
    9.7920    9.7500   13.7200 H   0  0  0  0  0  0  0  0  0  0  0  0
    7.6732    9.8785   14.1811 H   0  0  0  0  0  0  0  0  0  0  0  0
    7.0380   10.1030   16.2210 H   0  0  0  0  0  0  0  0  0  0  0  0
    5.6122   11.3184   14.0177 H   0  0  0  0  0  0  0  0  0  0  0  0
    7.0430   12.3000   11.9030 H   0  0  0  0  0  0  0  0  0  0  0  0
  1  2  1  0
  2  3  1  0
  3  4  1  0
  4  5  1  0
  5  6  1  0
  6  7  1  0
  7  8  1  0
  8  9  1  0
  9 10  2  0
 10 11  1  0
 11 12  1  0
 12 13  1  0
 13 14  1  0
 14 15  1  0
 14 16  1  0
 16 17  1  0
 16 18  1  0
 18 19  1  0
 18 20  1  0
 20 21  1  0
 20 22  1  0
 22 10  1  0
 22 13  1  0
  1 23  1  0
  1 24  1  0
  1 25  1  0
  2 26  1  0
  2 27  1  0
  3 28  1  0
  3 29  1  0
  4 30  1  0
  4 31  1  0
  5 32  1  0
  5 33  1  0
  6 34  1  0
  6 35  1  0
  7 36  1  0
  7 37  1  0
  8 38  1  0
  8 39  1  0
  9 40  1  0
 12 41  1  0
 12 42  1  0
 13 43  1  1
 14 44  1  6
 15 45  1  0
 16 46  1  1
 17 47  1  0
 18 48  1  6
 19 49  1  0
 20 50  1  1
 21 51  1  0
M  CHG  1   9   1
M  END
>  <meeko>  (9) 
{"is_sidechain": [false], "free_energy": -6.032, "intermolecular_energy": -9.341, "internal_energy": -0.551}

$$$$
