3f3c_ligand
     RDKit          3D

 23 23  0  0  0  0  0  0  0  0999 V2000
   -3.1550   -2.6250   -1.9210 N   0  0  0  0  0  0  0  0  0  0  0  0
   -3.2190   -1.9710   -0.5410 C   0  0  1  0  0  0  0  0  0  0  0  0
   -2.8060   -2.9780    0.5340 C   0  0  0  0  0  0  0  0  0  0  0  0
   -3.9770   -3.3830    1.4030 C   0  0  0  0  0  0  0  0  0  0  0  0
   -5.2770   -3.4470    0.8750 C   0  0  0  0  0  0  0  0  0  0  0  0
   -6.3480   -3.8060    1.6940 C   0  0  0  0  0  0  0  0  0  0  0  0
   -6.1230   -4.1010    3.0330 C   0  0  0  0  0  0  0  0  0  0  0  0
   -7.1560   -4.4440    3.8140 F   0  0  0  0  0  0  0  0  0  0  0  0
   -4.8450   -4.0440    3.5730 C   0  0  0  0  0  0  0  0  0  0  0  0
   -3.7710   -3.6850    2.7580 C   0  0  0  0  0  0  0  0  0  0  0  0
   -2.3160   -0.7040   -0.5710 C   0  0  0  0  0  0  0  0  0  0  0  0
   -1.8540   -0.4990    0.6030 O   0  0  0  0  0  0  0  0  0  0  0  0
   -2.1830   -0.0970   -1.6520 O   0  0  0  0  0  0  0  0  0  0  0  0
   -2.1370   -2.4650   -2.1440 H   0  0  0  0  0  0  0  0  0  0  0  0
   -3.7250   -2.1740   -2.6340 H   0  0  0  0  0  0  0  0  0  0  0  0
   -3.2370   -3.6420   -1.8930 H   0  0  0  0  0  0  0  0  0  0  0  0
   -4.2432   -1.6588   -0.2891 H   0  0  0  0  0  0  0  0  0  0  0  0
   -2.3988   -3.8749    0.0443 H   0  0  0  0  0  0  0  0  0  0  0  0
   -2.0511   -2.5020    1.1770 H   0  0  0  0  0  0  0  0  0  0  0  0
   -5.4510   -3.2137   -0.1858 H   0  0  0  0  0  0  0  0  0  0  0  0
   -7.3664   -3.8553    1.2813 H   0  0  0  0  0  0  0  0  0  0  0  0
   -4.6807   -4.2800    4.6348 H   0  0  0  0  0  0  0  0  0  0  0  0
   -2.7563   -3.6384    3.1802 H   0  0  0  0  0  0  0  0  0  0  0  0
  1  2  1  0
  2  3  1  0
  3  4  1  0
  4  5  2  0
  5  6  1  0
  6  7  2  0
  7  8  1  0
  7  9  1  0
  9 10  2  0
  2 11  1  0
 11 12  2  0
 11 13  1  0
 10  4  1  0
  1 14  1  0
  1 15  1  0
  1 16  1  0
  2 17  1  1
  3 18  1  0
  3 19  1  0
  5 20  1  0
  6 21  1  0
  9 22  1  0
 10 23  1  0
M  CHG  2   1   1  13  -1
M  END
>  <meeko>  (1) 
{"is_sidechain": [false], "free_energy": -7.269, "intermolecular_energy": -8.756, "internal_energy": -0.192}

$$$$
3f3c_ligand
     RDKit          3D

 23 23  0  0  0  0  0  0  0  0999 V2000
    4.0280    2.6360    1.2030 N   0  0  0  0  0  0  0  0  0  0  0  0
    3.7850    1.2910    1.8870 C   0  0  1  0  0  0  0  0  0  0  0  0
    3.0320    1.5000    3.2010 C   0  0  0  0  0  0  0  0  0  0  0  0
    3.6870    0.7610    4.3470 C   0  0  0  0  0  0  0  0  0  0  0  0
    5.0650    0.8850    4.5910 C   0  0  0  0  0  0  0  0  0  0  0  0
    5.6570    0.1830    5.6410 C   0  0  0  0  0  0  0  0  0  0  0  0
    4.8770   -0.6400    6.4460 C   0  0  0  0  0  0  0  0  0  0  0  0
    5.4520   -1.3120    7.4520 F   0  0  0  0  0  0  0  0  0  0  0  0
    3.5130   -0.7760    6.2210 C   0  0  0  0  0  0  0  0  0  0  0  0
    2.9170   -0.0750    5.1710 C   0  0  0  0  0  0  0  0  0  0  0  0
    3.0220    0.3780    0.8840 C   0  0  0  0  0  0  0  0  0  0  0  0
    3.2340    0.8010   -0.3030 O   0  0  0  0  0  0  0  0  0  0  0  0
    2.3460   -0.5670    1.3390 O   0  0  0  0  0  0  0  0  0  0  0  0
    3.0670    3.0590    1.3010 H   0  0  0  0  0  0  0  0  0  0  0  0
    4.2650    2.5770    0.2150 H   0  0  0  0  0  0  0  0  0  0  0  0
    4.6220    3.2650    1.7450 H   0  0  0  0  0  0  0  0  0  0  0  0
    4.7310    0.7972    2.1540 H   0  0  0  0  0  0  0  0  0  0  0  0
    3.0142    2.5749    3.4342 H   0  0  0  0  0  0  0  0  0  0  0  0
    2.0126    1.1055    3.0776 H   0  0  0  0  0  0  0  0  0  0  0  0
    5.6787    1.5374    3.9524 H   0  0  0  0  0  0  0  0  0  0  0  0
    6.7360    0.2800    5.8314 H   0  0  0  0  0  0  0  0  0  0  0  0
    2.9074   -1.4307    6.8649 H   0  0  0  0  0  0  0  0  0  0  0  0
    1.8372   -0.1784    4.9882 H   0  0  0  0  0  0  0  0  0  0  0  0
  1  2  1  0
  2  3  1  0
  3  4  1  0
  4  5  2  0
  5  6  1  0
  6  7  2  0
  7  8  1  0
  7  9  1  0
  9 10  2  0
  2 11  1  0
 11 12  2  0
 11 13  1  0
 10  4  1  0
  1 14  1  0
  1 15  1  0
  1 16  1  0
  2 17  1  1
  3 18  1  0
  3 19  1  0
  5 20  1  0
  6 21  1  0
  9 22  1  0
 10 23  1  0
M  CHG  2   1   1  13  -1
M  END
>  <meeko>  (2) 
{"is_sidechain": [false], "free_energy": -7.118, "intermolecular_energy": -8.549, "internal_energy": -0.217}

$$$$
3f3c_ligand
     RDKit          3D

 23 23  0  0  0  0  0  0  0  0999 V2000
   -3.8400   -3.9720   -0.4200 N   0  0  0  0  0  0  0  0  0  0  0  0
   -3.5850   -3.4170    0.9820 C   0  0  1  0  0  0  0  0  0  0  0  0
   -2.8930   -2.0570    0.8880 C   0  0  0  0  0  0  0  0  0  0  0  0
   -1.9720   -1.8130    2.0630 C   0  0  0  0  0  0  0  0  0  0  0  0
   -1.3540   -2.8850    2.7280 C   0  0  0  0  0  0  0  0  0  0  0  0
   -0.5210   -2.6450    3.8210 C   0  0  0  0  0  0  0  0  0  0  0  0
   -0.3060   -1.3400    4.2500 C   0  0  0  0  0  0  0  0  0  0  0  0
    0.4940   -1.1170    5.3010 F   0  0  0  0  0  0  0  0  0  0  0  0
   -0.9080   -0.2670    3.6050 C   0  0  0  0  0  0  0  0  0  0  0  0
   -1.7410   -0.5030    2.5110 C   0  0  0  0  0  0  0  0  0  0  0  0
   -4.9510   -3.3580    1.7260 C   0  0  0  0  0  0  0  0  0  0  0  0
   -4.7660   -3.6740    2.9510 O   0  0  0  0  0  0  0  0  0  0  0  0
   -5.9680   -3.0470    1.0750 O   0  0  0  0  0  0  0  0  0  0  0  0
   -3.2670   -4.8550   -0.3660 H   0  0  0  0  0  0  0  0  0  0  0  0
   -3.4870   -3.3940   -1.1790 H   0  0  0  0  0  0  0  0  0  0  0  0
   -4.7930   -4.3140   -0.5530 H   0  0  0  0  0  0  0  0  0  0  0  0
   -2.9061   -4.0648    1.5560 H   0  0  0  0  0  0  0  0  0  0  0  0
   -2.3035   -2.0208   -0.0400 H   0  0  0  0  0  0  0  0  0  0  0  0
   -3.6690   -1.2774    0.8941 H   0  0  0  0  0  0  0  0  0  0  0  0
   -1.5273   -3.9161    2.3861 H   0  0  0  0  0  0  0  0  0  0  0  0
   -0.0364   -3.4844    4.3411 H   0  0  0  0  0  0  0  0  0  0  0  0
   -0.7293    0.7607    3.9541 H   0  0  0  0  0  0  0  0  0  0  0  0
   -2.2198    0.3430    1.9962 H   0  0  0  0  0  0  0  0  0  0  0  0
  1  2  1  0
  2  3  1  0
  3  4  1  0
  4  5  2  0
  5  6  1  0
  6  7  2  0
  7  8  1  0
  7  9  1  0
  9 10  2  0
  2 11  1  0
 11 12  2  0
 11 13  1  0
 10  4  1  0
  1 14  1  0
  1 15  1  0
  1 16  1  0
  2 17  1  1
  3 18  1  0
  3 19  1  0
  5 20  1  0
  6 21  1  0
  9 22  1  0
 10 23  1  0
M  CHG  2   1   1  13  -1
M  END
>  <meeko>  (3) 
{"is_sidechain": [false], "free_energy": -7.1, "intermolecular_energy": -8.525, "internal_energy": -0.22}

$$$$
3f3c_ligand
     RDKit          3D

 23 23  0  0  0  0  0  0  0  0999 V2000
    0.6210   -3.0190    2.3950 N   0  0  0  0  0  0  0  0  0  0  0  0
   -0.8670   -2.7040    2.5530 C   0  0  1  0  0  0  0  0  0  0  0  0
   -1.5920   -3.8990    3.1730 C   0  0  0  0  0  0  0  0  0  0  0  0
   -3.0610   -3.9120    2.8120 C   0  0  0  0  0  0  0  0  0  0  0  0
   -3.4790   -3.7020    1.4890 C   0  0  0  0  0  0  0  0  0  0  0  0
   -4.8390   -3.7010    1.1750 C   0  0  0  0  0  0  0  0  0  0  0  0
   -5.7780   -3.9080    2.1790 C   0  0  0  0  0  0  0  0  0  0  0  0
   -7.0820   -3.9040    1.8720 F   0  0  0  0  0  0  0  0  0  0  0  0
   -5.3840   -4.1180    3.4940 C   0  0  0  0  0  0  0  0  0  0  0  0
   -4.0250   -4.1200    3.8120 C   0  0  0  0  0  0  0  0  0  0  0  0
   -0.9910   -1.4050    3.4010 C   0  0  0  0  0  0  0  0  0  0  0  0
   -1.8220   -0.6190    2.8320 O   0  0  0  0  0  0  0  0  0  0  0  0
   -0.3050   -1.3070    4.4380 O   0  0  0  0  0  0  0  0  0  0  0  0
    1.0260   -2.2750    3.0240 H   0  0  0  0  0  0  0  0  0  0  0  0
    0.9870   -2.8930    1.4540 H   0  0  0  0  0  0  0  0  0  0  0  0
    0.9010   -3.8910    2.8470 H   0  0  0  0  0  0  0  0  0  0  0  0
   -1.3487   -2.5284    1.5798 H   0  0  0  0  0  0  0  0  0  0  0  0
   -1.1271   -4.8266    2.8077 H   0  0  0  0  0  0  0  0  0  0  0  0
   -1.5088   -3.8202    4.2670 H   0  0  0  0  0  0  0  0  0  0  0  0
   -2.7330   -3.5378    0.6974 H   0  0  0  0  0  0  0  0  0  0  0  0
   -5.1664   -3.5371    0.1377 H   0  0  0  0  0  0  0  0  0  0  0  0
   -6.1371   -4.2815    4.2789 H   0  0  0  0  0  0  0  0  0  0  0  0
   -3.7071   -4.2855    4.8520 H   0  0  0  0  0  0  0  0  0  0  0  0
  1  2  1  0
  2  3  1  0
  3  4  1  0
  4  5  2  0
  5  6  1  0
  6  7  2  0
  7  8  1  0
  7  9  1  0
  9 10  2  0
  2 11  1  0
 11 12  2  0
 11 13  1  0
 10  4  1  0
  1 14  1  0
  1 15  1  0
  1 16  1  0
  2 17  1  6
  3 18  1  0
  3 19  1  0
  5 20  1  0
  6 21  1  0
  9 22  1  0
 10 23  1  0
M  CHG  2   1   1  13  -1
M  END
>  <meeko>  (4) 
{"is_sidechain": [false], "free_energy": -6.993, "intermolecular_energy": -8.367, "internal_energy": -0.249}

$$$$
3f3c_ligand
     RDKit          3D

 23 23  0  0  0  0  0  0  0  0999 V2000
    3.6670   -0.9770    5.4920 N   0  0  0  0  0  0  0  0  0  0  0  0
    2.5800   -0.6660    4.4630 C   0  0  1  0  0  0  0  0  0  0  0  0
    1.2210   -0.5550    5.1540 C   0  0  0  0  0  0  0  0  0  0  0  0
    0.0860   -0.9100    4.2190 C   0  0  0  0  0  0  0  0  0  0  0  0
   -0.3410   -2.2400    4.0750 C   0  0  0  0  0  0  0  0  0  0  0  0
   -1.3780   -2.5530    3.1960 C   0  0  0  0  0  0  0  0  0  0  0  0
   -1.9870   -1.5420    2.4620 C   0  0  0  0  0  0  0  0  0  0  0  0
   -2.9810   -1.8490    1.6180 F   0  0  0  0  0  0  0  0  0  0  0  0
   -1.5790   -0.2200    2.5890 C   0  0  0  0  0  0  0  0  0  0  0  0
   -0.5430    0.0970    3.4680 C   0  0  0  0  0  0  0  0  0  0  0  0
    2.9930    0.6350    3.7130 C   0  0  0  0  0  0  0  0  0  0  0  0
    2.9870    0.4060    2.4560 O   0  0  0  0  0  0  0  0  0  0  0  0
    3.2660    1.6470    4.3890 O   0  0  0  0  0  0  0  0  0  0  0  0
    3.9100    0.0050    5.7930 H   0  0  0  0  0  0  0  0  0  0  0  0
    4.4990   -1.4230    5.1130 H   0  0  0  0  0  0  0  0  0  0  0  0
    3.3060   -1.4050    6.3460 H   0  0  0  0  0  0  0  0  0  0  0  0
    2.4799   -1.4748    3.7242 H   0  0  0  0  0  0  0  0  0  0  0  0
    1.2016   -1.2404    6.0142 H   0  0  0  0  0  0  0  0  0  0  0  0
    1.0852    0.4877    5.4769 H   0  0  0  0  0  0  0  0  0  0  0  0
    0.1438   -3.0375    4.6572 H   0  0  0  0  0  0  0  0  0  0  0  0
   -1.7122   -3.5950    3.0843 H   0  0  0  0  0  0  0  0  0  0  0  0
   -2.0688    0.5703    2.0013 H   0  0  0  0  0  0  0  0  0  0  0  0
   -0.2166    1.1421    3.5737 H   0  0  0  0  0  0  0  0  0  0  0  0
  1  2  1  0
  2  3  1  0
  3  4  1  0
  4  5  2  0
  5  6  1  0
  6  7  2  0
  7  8  1  0
  7  9  1  0
  9 10  2  0
  2 11  1  0
 11 12  2  0
 11 13  1  0
 10  4  1  0
  1 14  1  0
  1 15  1  0
  1 16  1  0
  2 17  1  6
  3 18  1  0
  3 19  1  0
  5 20  1  0
  6 21  1  0
  9 22  1  0
 10 23  1  0
M  CHG  2   1   1  13  -1
M  END
>  <meeko>  (5) 
{"is_sidechain": [false], "free_energy": -6.985, "intermolecular_energy": -8.416, "internal_energy": -0.19}

$$$$
3f3c_ligand
     RDKit          3D

 23 23  0  0  0  0  0  0  0  0999 V2000
   -4.4380   -3.3240    2.9850 N   0  0  0  0  0  0  0  0  0  0  0  0
   -3.0750   -2.7920    2.5430 C   0  0  1  0  0  0  0  0  0  0  0  0
   -1.9580   -3.5780    3.2300 C   0  0  0  0  0  0  0  0  0  0  0  0
   -0.6770   -2.7780    3.3110 C   0  0  0  0  0  0  0  0  0  0  0  0
   -0.4730   -1.8480    4.3430 C   0  0  0  0  0  0  0  0  0  0  0  0
    0.7080   -1.1060    4.3950 C   0  0  0  0  0  0  0  0  0  0  0  0
    1.6810   -1.2910    3.4200 C   0  0  0  0  0  0  0  0  0  0  0  0
    2.8110   -0.5740    3.4740 F   0  0  0  0  0  0  0  0  0  0  0  0
    1.4980   -2.2060    2.3910 C   0  0  0  0  0  0  0  0  0  0  0  0
    0.3190   -2.9510    2.3360 C   0  0  0  0  0  0  0  0  0  0  0  0
   -3.0140   -2.8730    0.9900 C   0  0  0  0  0  0  0  0  0  0  0  0
   -3.3780   -4.0420    0.6230 O   0  0  0  0  0  0  0  0  0  0  0  0
   -2.6330   -1.8670    0.3590 O   0  0  0  0  0  0  0  0  0  0  0  0
   -4.1730   -4.3190    3.2120 H   0  0  0  0  0  0  0  0  0  0  0  0
   -5.1520   -3.3280    2.2590 H   0  0  0  0  0  0  0  0  0  0  0  0
   -4.7480   -2.9490    3.8830 H   0  0  0  0  0  0  0  0  0  0  0  0
   -2.9350   -1.7424    2.8408 H   0  0  0  0  0  0  0  0  0  0  0  0
   -2.2804   -3.8383    4.2490 H   0  0  0  0  0  0  0  0  0  0  0  0
   -1.7599   -4.4819    2.6353 H   0  0  0  0  0  0  0  0  0  0  0  0
   -1.2458   -1.7039    5.1124 H   0  0  0  0  0  0  0  0  0  0  0  0
    0.8680   -0.3781    5.2040 H   0  0  0  0  0  0  0  0  0  0  0  0
    2.2761   -2.3424    1.6255 H   0  0  0  0  0  0  0  0  0  0  0  0
    0.1690   -3.6780    1.5242 H   0  0  0  0  0  0  0  0  0  0  0  0
  1  2  1  0
  2  3  1  0
  3  4  1  0
  4  5  2  0
  5  6  1  0
  6  7  2  0
  7  8  1  0
  7  9  1  0
  9 10  2  0
  2 11  1  0
 11 12  2  0
 11 13  1  0
 10  4  1  0
  1 14  1  0
  1 15  1  0
  1 16  1  0
  2 17  1  6
  3 18  1  0
  3 19  1  0
  5 20  1  0
  6 21  1  0
  9 22  1  0
 10 23  1  0
M  CHG  2   1   1  13  -1
M  END
>  <meeko>  (6) 
{"is_sidechain": [false], "free_energy": -6.978, "intermolecular_energy": -8.398, "internal_energy": -0.199}

$$$$
3f3c_ligand
     RDKit          3D

 23 23  0  0  0  0  0  0  0  0999 V2000
    3.6110    2.2780    3.8240 N   0  0  0  0  0  0  0  0  0  0  0  0
    3.1410    0.8830    4.2360 C   0  0  1  0  0  0  0  0  0  0  0  0
    2.8180    0.0520    2.9930 C   0  0  0  0  0  0  0  0  0  0  0  0
    1.6600   -0.8910    3.2350 C   0  0  0  0  0  0  0  0  0  0  0  0
    1.5000   -2.0500    2.4580 C   0  0  0  0  0  0  0  0  0  0  0  0
    0.4170   -2.9000    2.6810 C   0  0  0  0  0  0  0  0  0  0  0  0
   -0.5040   -2.5950    3.6770 C   0  0  0  0  0  0  0  0  0  0  0  0
   -1.5430   -3.4150    3.8850 F   0  0  0  0  0  0  0  0  0  0  0  0
   -0.3640   -1.4540    4.4550 C   0  0  0  0  0  0  0  0  0  0  0  0
    0.7180   -0.6010    4.2350 C   0  0  0  0  0  0  0  0  0  0  0  0
    4.2510    0.2490    5.1230 C   0  0  0  0  0  0  0  0  0  0  0  0
    5.3820    0.7370    4.7800 O   0  0  0  0  0  0  0  0  0  0  0  0
    3.9170   -0.5960    5.9780 O   0  0  0  0  0  0  0  0  0  0  0  0
    2.7720    2.5880    3.2650 H   0  0  0  0  0  0  0  0  0  0  0  0
    4.4320    2.2930    3.2240 H   0  0  0  0  0  0  0  0  0  0  0  0
    3.6390    2.9420    4.6000 H   0  0  0  0  0  0  0  0  0  0  0  0
    2.2120    0.9268    4.8234 H   0  0  0  0  0  0  0  0  0  0  0  0
    2.5579    0.7313    2.1679 H   0  0  0  0  0  0  0  0  0  0  0  0
    3.7041   -0.5503    2.7438 H   0  0  0  0  0  0  0  0  0  0  0  0
    2.2310   -2.2880    1.6713 H   0  0  0  0  0  0  0  0  0  0  0  0
    0.2920   -3.8074    2.0718 H   0  0  0  0  0  0  0  0  0  0  0  0
   -1.1005   -1.2240    5.2390 H   0  0  0  0  0  0  0  0  0  0  0  0
    0.8338    0.3044    4.8489 H   0  0  0  0  0  0  0  0  0  0  0  0
  1  2  1  0
  2  3  1  0
  3  4  1  0
  4  5  2  0
  5  6  1  0
  6  7  2  0
  7  8  1  0
  7  9  1  0
  9 10  2  0
  2 11  1  0
 11 12  2  0
 11 13  1  0
 10  4  1  0
  1 14  1  0
  1 15  1  0
  1 16  1  0
  2 17  1  1
  3 18  1  0
  3 19  1  0
  5 20  1  0
  6 21  1  0
  9 22  1  0
 10 23  1  0
M  CHG  2   1   1  13  -1
M  END
>  <meeko>  (7) 
{"is_sidechain": [false], "free_energy": -6.974, "intermolecular_energy": -8.356, "internal_energy": -0.236}

$$$$
3f3c_ligand
     RDKit          3D

 23 23  0  0  0  0  0  0  0  0999 V2000
    0.1690    0.3300    3.3430 N   0  0  0  0  0  0  0  0  0  0  0  0
    1.0370   -0.8250    3.8400 C   0  0  1  0  0  0  0  0  0  0  0  0
    1.3210   -0.6620    5.3340 C   0  0  0  0  0  0  0  0  0  0  0  0
    2.7910   -0.4270    5.6040 C   0  0  0  0  0  0  0  0  0  0  0  0
    3.5710    0.3390    4.7230 C   0  0  0  0  0  0  0  0  0  0  0  0
    4.9290    0.5330    4.9770 C   0  0  0  0  0  0  0  0  0  0  0  0
    5.5070   -0.0360    6.1060 C   0  0  0  0  0  0  0  0  0  0  0  0
    6.8120    0.1520    6.3440 F   0  0  0  0  0  0  0  0  0  0  0  0
    4.7520   -0.7970    6.9890 C   0  0  0  0  0  0  0  0  0  0  0  0
    3.3930   -0.9930    6.7390 C   0  0  0  0  0  0  0  0  0  0  0  0
    0.3020   -2.1540    3.4990 C   0  0  0  0  0  0  0  0  0  0  0  0
    1.0940   -2.9040    2.8330 O   0  0  0  0  0  0  0  0  0  0  0  0
   -0.8760   -2.2940    3.8810 O   0  0  0  0  0  0  0  0  0  0  0  0
   -0.2030    0.6800    4.2660 H   0  0  0  0  0  0  0  0  0  0  0  0
   -0.6140    0.0540    2.7540 H   0  0  0  0  0  0  0  0  0  0  0  0
    0.7090    1.1200    2.9880 H   0  0  0  0  0  0  0  0  0  0  0  0
    2.0185   -0.8350    3.3434 H   0  0  0  0  0  0  0  0  0  0  0  0
    0.7475    0.1964    5.7139 H   0  0  0  0  0  0  0  0  0  0  0  0
    1.0244   -1.5915    5.8419 H   0  0  0  0  0  0  0  0  0  0  0  0
    3.1102    0.7872    3.8304 H   0  0  0  0  0  0  0  0  0  0  0  0
    5.5397    1.1336    4.2869 H   0  0  0  0  0  0  0  0  0  0  0  0
    5.2216   -1.2419    7.8787 H   0  0  0  0  0  0  0  0  0  0  0  0
    2.7901   -1.5944    7.4353 H   0  0  0  0  0  0  0  0  0  0  0  0
  1  2  1  0
  2  3  1  0
  3  4  1  0
  4  5  2  0
  5  6  1  0
  6  7  2  0
  7  8  1  0
  7  9  1  0
  9 10  2  0
  2 11  1  0
 11 12  2  0
 11 13  1  0
 10  4  1  0
  1 14  1  0
  1 15  1  0
  1 16  1  0
  2 17  1  6
  3 18  1  0
  3 19  1  0
  5 20  1  0
  6 21  1  0
  9 22  1  0
 10 23  1  0
M  CHG  2   1   1  13  -1
M  END
>  <meeko>  (8) 
{"is_sidechain": [false], "free_energy": -6.972, "intermolecular_energy": -8.413, "internal_energy": -0.177}

$$$$
3f3c_ligand
     RDKit          3D

 23 23  0  0  0  0  0  0  0  0999 V2000
    2.2420   -1.8550    0.4560 N   0  0  0  0  0  0  0  0  0  0  0  0
    1.4160   -1.4840    1.6880 C   0  0  1  0  0  0  0  0  0  0  0  0
    1.0440   -2.7460    2.4680 C   0  0  0  0  0  0  0  0  0  0  0  0
   -0.4180   -3.0970    2.3040 C   0  0  0  0  0  0  0  0  0  0  0  0
   -1.2240   -3.3640    3.4220 C   0  0  0  0  0  0  0  0  0  0  0  0
   -2.5670   -3.7040    3.2540 C   0  0  0  0  0  0  0  0  0  0  0  0
   -3.1040   -3.7760    1.9730 C   0  0  0  0  0  0  0  0  0  0  0  0
   -4.3930   -4.1030    1.8180 F   0  0  0  0  0  0  0  0  0  0  0  0
   -2.3220   -3.5150    0.8550 C   0  0  0  0  0  0  0  0  0  0  0  0
   -0.9790   -3.1750    1.0200 C   0  0  0  0  0  0  0  0  0  0  0  0
    2.2420   -0.4680    2.5280 C   0  0  0  0  0  0  0  0  0  0  0  0
    2.8830    0.3000    1.7320 O   0  0  0  0  0  0  0  0  0  0  0  0
    2.1840   -0.5400    3.7710 O   0  0  0  0  0  0  0  0  0  0  0  0
    2.0410   -1.0150   -0.1490 H   0  0  0  0  0  0  0  0  0  0  0  0
    1.9330   -2.6950   -0.0290 H   0  0  0  0  0  0  0  0  0  0  0  0
    3.2490   -1.8010    0.6120 H   0  0  0  0  0  0  0  0  0  0  0  0
    0.4649   -1.0077    1.4076 H   0  0  0  0  0  0  0  0  0  0  0  0
    1.6547   -3.5842    2.1014 H   0  0  0  0  0  0  0  0  0  0  0  0
    1.2326   -2.5566    3.5350 H   0  0  0  0  0  0  0  0  0  0  0  0
   -0.7957   -3.3050    4.4335 H   0  0  0  0  0  0  0  0  0  0  0  0
   -3.1978   -3.9140    4.1304 H   0  0  0  0  0  0  0  0  0  0  0  0
   -2.7584   -3.5759   -0.1529 H   0  0  0  0  0  0  0  0  0  0  0  0
   -0.3558   -2.9667    0.1379 H   0  0  0  0  0  0  0  0  0  0  0  0
  1  2  1  0
  2  3  1  0
  3  4  1  0
  4  5  2  0
  5  6  1  0
  6  7  2  0
  7  8  1  0
  7  9  1  0
  9 10  2  0
  2 11  1  0
 11 12  2  0
 11 13  1  0
 10  4  1  0
  1 14  1  0
  1 15  1  0
  1 16  1  0
  2 17  1  6
  3 18  1  0
  3 19  1  0
  5 20  1  0
  6 21  1  0
  9 22  1  0
 10 23  1  0
M  CHG  2   1   1  13  -1
M  END
>  <meeko>  (9) 
{"is_sidechain": [false], "free_energy": -6.841, "intermolecular_energy": -8.286, "internal_energy": -0.146}

$$$$
