
     RDKit          3D

 15 15  0  0  0  0  0  0  0  0999 V2000
   -1.8730   -8.6930    3.4500 C   0  0  0  0  0  0  0  0  0  0  0  0
   -2.6820   -8.2500    4.6690 C   0  0  2  0  0  0  0  0  0  0  0  0
   -3.8900   -9.1430    4.9080 C   0  0  0  0  0  0  0  0  0  0  0  0
   -5.0750   -8.7310    4.0850 C   0  0  0  0  0  0  0  0  0  0  0  0
   -5.4580   -7.3060    4.4200 C   0  0  0  0  0  0  0  0  0  0  0  0
   -4.3500   -6.3090    4.1250 C   0  0  2  0  0  0  0  0  0  0  0  0
   -4.3340   -5.9230    2.6490 C   0  0  0  0  0  0  0  0  0  0  0  0
   -5.3370   -5.3130    2.2040 O   0  0  0  0  0  0  0  0  0  0  0  0
   -3.3500   -6.1460    1.9620 O   0  0  0  0  0  0  0  0  0  0  0  0
   -3.0380   -6.7970    4.6440 N   0  0  0  0  0  0  0  0  0  0  0  0
   -2.1920   -5.8920    5.1790 C   0  0  0  0  0  0  0  0  0  0  0  0
   -2.4720   -4.7200    5.1830 O   0  0  0  0  0  0  0  0  0  0  0  0
   -0.8700   -6.3500    5.7620 C   0  0  0  0  0  0  0  0  0  0  0  0
   -0.6020   -5.7780    7.1190 C   0  0  0  0  0  0  0  0  0  0  0  0
   -1.3170   -6.7700    8.4310 S   0  0  0  0  0  0  0  0  0  0  0  0
  2  1  1  6
  3  2  1  0
  4  3  1  0
  5  4  1  0
  6  5  1  0
  6  7  1  6
  8  7  2  0
  9  7  1  0
 10  6  1  0
 10  2  1  0
 11 10  1  0
 12 11  2  0
 13 11  1  0
 14 13  1  0
 15 14  1  0
M  CHG  1   9  -1
M  END
$$$$
