
     RDKit          3D

 25 26  0  0  0  0  0  0  0  0999 V2000
   -8.7460   -0.7650   -3.3490 O   0  0  0  0  0  0  0  0  0  0  0  0
   -7.4210   -0.6060   -2.7040 P   0  0  0  0  0  0  0  0  0  0  0  0
   -6.7110    0.5810   -3.2860 O   0  0  0  0  0  0  0  0  0  0  0  0
   -7.5150   -0.4890   -1.2080 O   0  0  0  0  0  0  0  0  0  0  0  0
   -6.4120   -2.0310   -3.0720 C   0  0  1  0  0  0  0  0  0  0  0  0
   -5.0510   -1.8420   -2.4880 C   0  0  0  0  0  0  0  0  0  0  0  0
   -4.0470   -1.8150   -3.5580 C   0  0  0  0  0  0  0  0  0  0  0  0
   -2.6660   -1.9200   -2.9550 C   0  0  0  0  0  0  0  0  0  0  0  0
   -1.6470   -1.9500   -4.0360 C   0  0  0  0  0  0  0  0  0  0  0  0
   -1.4360   -3.1130   -4.7660 C   0  0  0  0  0  0  0  0  0  0  0  0
   -0.5040   -3.1120   -5.8050 C   0  0  0  0  0  0  0  0  0  0  0  0
    0.2350   -1.9550   -6.0460 C   0  0  0  0  0  0  0  0  0  0  0  0
    0.0130   -0.8150   -5.2770 C   0  0  0  0  0  0  0  0  0  0  0  0
    0.7430    0.3450   -5.4890 O   0  0  0  0  0  0  0  0  0  0  0  0
    0.4050    1.2200   -6.5010 C   0  0  0  0  0  0  0  0  0  0  0  0
   -0.5240    2.2210   -6.2590 C   0  0  0  0  0  0  0  0  0  0  0  0
   -0.8770    3.1150   -7.2590 C   0  0  0  0  0  0  0  0  0  0  0  0
   -0.2910    2.9950   -8.5160 C   0  0  0  0  0  0  0  0  0  0  0  0
    0.6520    1.9820   -8.7670 C   0  0  0  0  0  0  0  0  0  0  0  0
    0.9860    1.1070   -7.7500 C   0  0  0  0  0  0  0  0  0  0  0  0
   -0.9230   -0.8120   -4.2910 C   0  0  0  0  0  0  0  0  0  0  0  0
   -7.0020   -3.6260   -2.5440 S   0  0  2  0  0  0  0  0  0  0  0  0
   -6.9060   -3.6760   -1.0790 O   0  0  0  0  0  0  0  0  0  0  0  0
   -6.1520   -4.6190   -3.1670 O   0  0  0  0  0  0  0  0  0  0  0  0
   -8.3920   -3.7840   -2.9950 O   0  0  0  0  0  0  0  0  0  0  0  0
  2  1  1  0
  3  2  2  0
  4  2  1  0
  5  2  1  0
  5  6  1  1
  7  6  1  0
  8  7  1  0
  9  8  1  0
 10  9  2  0
 11 10  1  0
 12 11  2  0
 13 12  1  0
 14 13  1  0
 15 14  1  0
 16 15  2  0
 17 16  1  0
 18 17  2  0
 19 18  1  0
 20 19  2  0
 20 15  1  0
 21 13  2  0
 21  9  1  0
 22  5  1  0
 23 22  2  0
 24 22  2  0
 22 25  1  1
M  CHG  2   1  -1  25  -1
M  END
$$$$
