4kzq_ligand
     RDKit          3D

 28 30  0  0  0  0  0  0  0  0999 V2000
   -9.2330    0.6740   -3.8650 O   0  0  0  0  0  0  0  0  0  0  0  0
   -8.0910    0.7460   -4.2990 C   0  0  0  0  0  0  0  0  0  0  0  0
   -7.7890    1.5110   -5.5190 C   0  0  0  0  0  0  0  0  0  0  0  0
   -6.5250    1.5710   -5.9610 C   0  0  0  0  0  0  0  0  0  0  0  0
   -6.1670    2.3150   -7.1850 C   0  0  0  0  0  0  0  0  0  0  0  0
   -4.8420    2.7380   -7.3860 C   0  0  0  0  0  0  0  0  0  0  0  0
   -4.4830    3.4520   -8.5330 C   0  0  0  0  0  0  0  0  0  0  0  0
   -5.4530    3.7510   -9.4820 C   0  0  0  0  0  0  0  0  0  0  0  0
   -5.1490    4.4450  -10.6160 O   0  0  0  0  0  0  0  0  0  0  0  0
   -6.7700    3.3520   -9.3010 C   0  0  0  0  0  0  0  0  0  0  0  0
   -7.1280    2.6380   -8.1550 C   0  0  0  0  0  0  0  0  0  0  0  0
   -5.4530    0.9350   -5.3500 O   0  0  0  0  0  0  0  0  0  0  0  0
   -5.6890    0.2160   -4.2060 C   0  0  0  0  0  0  0  0  0  0  0  0
   -4.5910   -0.4010   -3.6040 C   0  0  0  0  0  0  0  0  0  0  0  0
   -4.7690   -1.1490   -2.4370 C   0  0  0  0  0  0  0  0  0  0  0  0
   -6.0390   -1.2800   -1.8730 C   0  0  0  0  0  0  0  0  0  0  0  0
   -7.1370   -0.6630   -2.4740 C   0  0  0  0  0  0  0  0  0  0  0  0
   -6.9550    0.0840   -3.6420 C   0  0  0  0  0  0  0  0  0  0  0  0
   -8.5927    2.0287   -6.0631 H   0  0  0  0  0  0  0  0  0  0  0  0
   -4.0772    2.5042   -6.6308 H   0  0  0  0  0  0  0  0  0  0  0  0
   -3.4420    3.7742   -8.6829 H   0  0  0  0  0  0  0  0  0  0  0  0
   -4.1840    4.4470  -10.7310 H   0  0  0  0  0  0  0  0  0  0  0  0
   -7.5296    3.5973  -10.0578 H   0  0  0  0  0  0  0  0  0  0  0  0
   -8.1731    2.3261   -8.0117 H   0  0  0  0  0  0  0  0  0  0  0  0
   -3.5892   -0.2988   -4.0466 H   0  0  0  0  0  0  0  0  0  0  0  0
   -3.9051   -1.6362   -1.9612 H   0  0  0  0  0  0  0  0  0  0  0  0
   -6.1745   -1.8698   -0.9544 H   0  0  0  0  0  0  0  0  0  0  0  0
   -8.1392   -0.7636   -2.0318 H   0  0  0  0  0  0  0  0  0  0  0  0
  1  2  2  0
  2  3  1  0
  3  4  2  0
  4  5  1  0
  5  6  2  0
  6  7  1  0
  7  8  2  0
  8  9  1  0
  8 10  1  0
 10 11  2  0
  4 12  1  0
 12 13  1  0
 13 14  2  0
 14 15  1  0
 15 16  2  0
 16 17  1  0
 17 18  2  0
 18  2  1  0
 11  5  1  0
 18 13  1  0
  3 19  1  0
  6 20  1  0
  7 21  1  0
  9 22  1  0
 10 23  1  0
 11 24  1  0
 14 25  1  0
 15 26  1  0
 16 27  1  0
 17 28  1  0
M  END
>  <meeko>  (1) 
{"is_sidechain": [false], "free_energy": -9.687, "intermolecular_energy": -10.537, "internal_energy": -0.295}

$$$$
4kzq_ligand
     RDKit          3D

 28 30  0  0  0  0  0  0  0  0999 V2000
   -6.1080    4.8760   -6.8480 O   0  0  0  0  0  0  0  0  0  0  0  0
   -5.9830    3.6620   -6.9390 C   0  0  0  0  0  0  0  0  0  0  0  0
   -5.9030    2.8150   -5.7380 C   0  0  0  0  0  0  0  0  0  0  0  0
   -5.7710    1.4880   -5.8770 C   0  0  0  0  0  0  0  0  0  0  0  0
   -5.6760    0.5930   -4.7070 C   0  0  0  0  0  0  0  0  0  0  0  0
   -6.8260    0.2980   -3.9550 C   0  0  0  0  0  0  0  0  0  0  0  0
   -6.7570   -0.5410   -2.8390 C   0  0  0  0  0  0  0  0  0  0  0  0
   -5.5330   -1.0820   -2.4650 C   0  0  0  0  0  0  0  0  0  0  0  0
   -5.4180   -1.9040   -1.3840 O   0  0  0  0  0  0  0  0  0  0  0  0
   -4.3820   -0.7970   -3.1860 C   0  0  0  0  0  0  0  0  0  0  0  0
   -4.4510    0.0400   -4.3030 C   0  0  0  0  0  0  0  0  0  0  0  0
   -5.6820    0.8360   -7.0990 O   0  0  0  0  0  0  0  0  0  0  0  0
   -5.7580    1.5870   -8.2440 C   0  0  0  0  0  0  0  0  0  0  0  0
   -5.6820    0.9040   -9.4590 C   0  0  0  0  0  0  0  0  0  0  0  0
   -5.7520    1.6140  -10.6600 C   0  0  0  0  0  0  0  0  0  0  0  0
   -5.8970    3.0020  -10.6480 C   0  0  0  0  0  0  0  0  0  0  0  0
   -5.9750    3.6860   -9.4340 C   0  0  0  0  0  0  0  0  0  0  0  0
   -5.9050    2.9710   -8.2350 C   0  0  0  0  0  0  0  0  0  0  0  0
   -5.9510    3.2663   -4.7360 H   0  0  0  0  0  0  0  0  0  0  0  0
   -7.7929    0.7329   -4.2483 H   0  0  0  0  0  0  0  0  0  0  0  0
   -7.6645   -0.7711   -2.2615 H   0  0  0  0  0  0  0  0  0  0  0  0
   -6.3010   -2.0410   -1.0010 H   0  0  0  0  0  0  0  0  0  0  0  0
   -3.4179   -1.2288   -2.8791 H   0  0  0  0  0  0  0  0  0  0  0  0
   -3.5367    0.2675   -4.8708 H   0  0  0  0  0  0  0  0  0  0  0  0
   -5.5673   -0.1899   -9.4707 H   0  0  0  0  0  0  0  0  0  0  0  0
   -5.6926    1.0773  -11.6183 H   0  0  0  0  0  0  0  0  0  0  0  0
   -5.9498    3.5573  -11.5961 H   0  0  0  0  0  0  0  0  0  0  0  0
   -6.0907    4.7798   -9.4208 H   0  0  0  0  0  0  0  0  0  0  0  0
  1  2  2  0
  2  3  1  0
  3  4  2  0
  4  5  1  0
  5  6  2  0
  6  7  1  0
  7  8  2  0
  8  9  1  0
  8 10  1  0
 10 11  2  0
  4 12  1  0
 12 13  1  0
 13 14  2  0
 14 15  1  0
 15 16  2  0
 16 17  1  0
 17 18  2  0
 18  2  1  0
 11  5  1  0
 18 13  1  0
  3 19  1  0
  6 20  1  0
  7 21  1  0
  9 22  1  0
 10 23  1  0
 11 24  1  0
 14 25  1  0
 15 26  1  0
 16 27  1  0
 17 28  1  0
M  END
>  <meeko>  (2) 
{"is_sidechain": [false], "free_energy": -9.646, "intermolecular_energy": -10.534, "internal_energy": -0.254}

$$$$
4kzq_ligand
     RDKit          3D

 28 30  0  0  0  0  0  0  0  0999 V2000
   -5.3980    1.9520  -10.1570 O   0  0  0  0  0  0  0  0  0  0  0  0
   -5.1780    2.6720   -9.1920 C   0  0  0  0  0  0  0  0  0  0  0  0
   -4.1390    3.7140   -9.2440 C   0  0  0  0  0  0  0  0  0  0  0  0
   -3.9300    4.4870   -8.1680 C   0  0  0  0  0  0  0  0  0  0  0  0
   -2.8950    5.5400   -8.1610 C   0  0  0  0  0  0  0  0  0  0  0  0
   -2.9130    6.5340   -7.1680 C   0  0  0  0  0  0  0  0  0  0  0  0
   -1.9480    7.5450   -7.1480 C   0  0  0  0  0  0  0  0  0  0  0  0
   -0.9630    7.5690   -8.1280 C   0  0  0  0  0  0  0  0  0  0  0  0
   -0.0030    8.5360   -8.1480 O   0  0  0  0  0  0  0  0  0  0  0  0
   -0.9300    6.6030   -9.1250 C   0  0  0  0  0  0  0  0  0  0  0  0
   -1.8950    5.5920   -9.1440 C   0  0  0  0  0  0  0  0  0  0  0  0
   -4.6240    4.3660   -6.9730 O   0  0  0  0  0  0  0  0  0  0  0  0
   -5.6050    3.4110   -6.8830 C   0  0  0  0  0  0  0  0  0  0  0  0
   -6.2970    3.3210   -5.6750 C   0  0  0  0  0  0  0  0  0  0  0  0
   -7.3060    2.3670   -5.5220 C   0  0  0  0  0  0  0  0  0  0  0  0
   -7.6240    1.5060   -6.5740 C   0  0  0  0  0  0  0  0  0  0  0  0
   -6.9330    1.5960   -7.7840 C   0  0  0  0  0  0  0  0  0  0  0  0
   -5.9240    2.5520   -7.9310 C   0  0  0  0  0  0  0  0  0  0  0  0
   -3.5405    3.8570  -10.1558 H   0  0  0  0  0  0  0  0  0  0  0  0
   -3.6967    6.5163   -6.3963 H   0  0  0  0  0  0  0  0  0  0  0  0
   -1.9681    8.3153   -6.3630 H   0  0  0  0  0  0  0  0  0  0  0  0
   -0.3980    9.3620   -8.4730 H   0  0  0  0  0  0  0  0  0  0  0  0
   -0.1471    6.6333   -9.8971 H   0  0  0  0  0  0  0  0  0  0  0  0
   -1.8703    4.8300   -9.9369 H   0  0  0  0  0  0  0  0  0  0  0  0
   -6.0489    3.9993   -4.8453 H   0  0  0  0  0  0  0  0  0  0  0  0
   -7.8516    2.2940   -4.5697 H   0  0  0  0  0  0  0  0  0  0  0  0
   -8.4193    0.7563   -6.4496 H   0  0  0  0  0  0  0  0  0  0  0  0
   -7.1809    0.9196   -8.6153 H   0  0  0  0  0  0  0  0  0  0  0  0
  1  2  2  0
  2  3  1  0
  3  4  2  0
  4  5  1  0
  5  6  2  0
  6  7  1  0
  7  8  2  0
  8  9  1  0
  8 10  1  0
 10 11  2  0
  4 12  1  0
 12 13  1  0
 13 14  2  0
 14 15  1  0
 15 16  2  0
 16 17  1  0
 17 18  2  0
 18  2  1  0
 11  5  1  0
 18 13  1  0
  3 19  1  0
  6 20  1  0
  7 21  1  0
  9 22  1  0
 10 23  1  0
 11 24  1  0
 14 25  1  0
 15 26  1  0
 16 27  1  0
 17 28  1  0
M  END
>  <meeko>  (3) 
{"is_sidechain": [false], "free_energy": -9.637, "intermolecular_energy": -10.479, "internal_energy": -0.298}

$$$$
4kzq_ligand
     RDKit          3D

 28 30  0  0  0  0  0  0  0  0999 V2000
   -6.3440    4.7130   -5.3450 O   0  0  0  0  0  0  0  0  0  0  0  0
   -5.5760    4.5460   -6.2830 C   0  0  0  0  0  0  0  0  0  0  0  0
   -4.4790    5.4910   -6.5430 C   0  0  0  0  0  0  0  0  0  0  0  0
   -3.6550    5.2740   -7.5780 C   0  0  0  0  0  0  0  0  0  0  0  0
   -2.5440    6.1950   -7.8910 C   0  0  0  0  0  0  0  0  0  0  0  0
   -1.7210    5.9480   -9.0030 C   0  0  0  0  0  0  0  0  0  0  0  0
   -0.6580    6.8020   -9.3120 C   0  0  0  0  0  0  0  0  0  0  0  0
   -0.4110    7.9040   -8.5030 C   0  0  0  0  0  0  0  0  0  0  0  0
    0.6140    8.7640   -8.7660 O   0  0  0  0  0  0  0  0  0  0  0  0
   -1.2040    8.1630   -7.3940 C   0  0  0  0  0  0  0  0  0  0  0  0
   -2.2670    7.3090   -7.0860 C   0  0  0  0  0  0  0  0  0  0  0  0
   -3.7710    4.2060   -8.4580 O   0  0  0  0  0  0  0  0  0  0  0  0
   -4.7770    3.2970   -8.2490 C   0  0  0  0  0  0  0  0  0  0  0  0
   -4.8630    2.2260   -9.1390 C   0  0  0  0  0  0  0  0  0  0  0  0
   -5.8670    1.2680   -8.9790 C   0  0  0  0  0  0  0  0  0  0  0  0
   -6.7840    1.3800   -7.9320 C   0  0  0  0  0  0  0  0  0  0  0  0
   -6.6990    2.4510   -7.0410 C   0  0  0  0  0  0  0  0  0  0  0  0
   -5.6920    3.4070   -7.2050 C   0  0  0  0  0  0  0  0  0  0  0  0
   -4.3361    6.3677   -5.8941 H   0  0  0  0  0  0  0  0  0  0  0  0
   -1.9156    5.0715   -9.6385 H   0  0  0  0  0  0  0  0  0  0  0  0
   -0.0229    6.6031  -10.1879 H   0  0  0  0  0  0  0  0  0  0  0  0
    0.3300    9.6660   -8.5440 H   0  0  0  0  0  0  0  0  0  0  0  0
   -0.9968    9.0373   -6.7595 H   0  0  0  0  0  0  0  0  0  0  0  0
   -2.8919    7.5129   -6.2040 H   0  0  0  0  0  0  0  0  0  0  0  0
   -4.1419    2.1362   -9.9648 H   0  0  0  0  0  0  0  0  0  0  0  0
   -5.9354    0.4229   -9.6799 H   0  0  0  0  0  0  0  0  0  0  0  0
   -7.5736    0.6240   -7.8093 H   0  0  0  0  0  0  0  0  0  0  0  0
   -7.4197    2.5424   -6.2150 H   0  0  0  0  0  0  0  0  0  0  0  0
  1  2  2  0
  2  3  1  0
  3  4  2  0
  4  5  1  0
  5  6  2  0
  6  7  1  0
  7  8  2  0
  8  9  1  0
  8 10  1  0
 10 11  2  0
  4 12  1  0
 12 13  1  0
 13 14  2  0
 14 15  1  0
 15 16  2  0
 16 17  1  0
 17 18  2  0
 18  2  1  0
 11  5  1  0
 18 13  1  0
  3 19  1  0
  6 20  1  0
  7 21  1  0
  9 22  1  0
 10 23  1  0
 11 24  1  0
 14 25  1  0
 15 26  1  0
 16 27  1  0
 17 28  1  0
M  END
>  <meeko>  (4) 
{"is_sidechain": [false], "free_energy": -9.363, "intermolecular_energy": -10.178, "internal_energy": -0.302}

$$$$
4kzq_ligand
     RDKit          3D

 28 30  0  0  0  0  0  0  0  0999 V2000
   -4.5810    2.3250   -9.8310 O   0  0  0  0  0  0  0  0  0  0  0  0
   -4.8100    2.7170   -8.6940 C   0  0  0  0  0  0  0  0  0  0  0  0
   -5.6710    1.9440   -7.7840 C   0  0  0  0  0  0  0  0  0  0  0  0
   -5.8960    2.4030   -6.5450 C   0  0  0  0  0  0  0  0  0  0  0  0
   -6.7580    1.6730   -5.5940 C   0  0  0  0  0  0  0  0  0  0  0  0
   -8.1550    1.8120   -5.6670 C   0  0  0  0  0  0  0  0  0  0  0  0
   -8.9900    1.1370   -4.7700 C   0  0  0  0  0  0  0  0  0  0  0  0
   -8.4280    0.3260   -3.7920 C   0  0  0  0  0  0  0  0  0  0  0  0
   -9.2030   -0.3500   -2.8980 O   0  0  0  0  0  0  0  0  0  0  0  0
   -7.0510    0.1810   -3.6950 C   0  0  0  0  0  0  0  0  0  0  0  0
   -6.2170    0.8550   -4.5910 C   0  0  0  0  0  0  0  0  0  0  0  0
   -5.3800    3.5910   -6.0460 O   0  0  0  0  0  0  0  0  0  0  0  0
   -4.5680    4.3400   -6.8590 C   0  0  0  0  0  0  0  0  0  0  0  0
   -4.0510    5.5230   -6.3280 C   0  0  0  0  0  0  0  0  0  0  0  0
   -3.2190    6.3290   -7.1080 C   0  0  0  0  0  0  0  0  0  0  0  0
   -2.9030    5.9550   -8.4150 C   0  0  0  0  0  0  0  0  0  0  0  0
   -3.4190    4.7720   -8.9480 C   0  0  0  0  0  0  0  0  0  0  0  0
   -4.2510    3.9690   -8.1630 C   0  0  0  0  0  0  0  0  0  0  0  0
   -6.1251    0.9992   -8.1175 H   0  0  0  0  0  0  0  0  0  0  0  0
   -8.5970    2.4593   -6.4387 H   0  0  0  0  0  0  0  0  0  0  0  0
  -10.0823    1.2475   -4.8385 H   0  0  0  0  0  0  0  0  0  0  0  0
   -8.6310   -0.9180   -2.3560 H   0  0  0  0  0  0  0  0  0  0  0  0
   -6.6176   -0.4625   -2.9152 H   0  0  0  0  0  0  0  0  0  0  0  0
   -5.1258    0.7431   -4.5090 H   0  0  0  0  0  0  0  0  0  0  0  0
   -4.2983    5.8195   -5.2980 H   0  0  0  0  0  0  0  0  0  0  0  0
   -2.8114    7.2617   -6.6909 H   0  0  0  0  0  0  0  0  0  0  0  0
   -2.2469    6.5927   -9.0257 H   0  0  0  0  0  0  0  0  0  0  0  0
   -3.1725    4.4744   -9.9779 H   0  0  0  0  0  0  0  0  0  0  0  0
  1  2  2  0
  2  3  1  0
  3  4  2  0
  4  5  1  0
  5  6  2  0
  6  7  1  0
  7  8  2  0
  8  9  1  0
  8 10  1  0
 10 11  2  0
  4 12  1  0
 12 13  1  0
 13 14  2  0
 14 15  1  0
 15 16  2  0
 16 17  1  0
 17 18  2  0
 18  2  1  0
 11  5  1  0
 18 13  1  0
  3 19  1  0
  6 20  1  0
  7 21  1  0
  9 22  1  0
 10 23  1  0
 11 24  1  0
 14 25  1  0
 15 26  1  0
 16 27  1  0
 17 28  1  0
M  END
>  <meeko>  (5) 
{"is_sidechain": [false], "free_energy": -8.335, "intermolecular_energy": -9.113, "internal_energy": -0.248}

$$$$
4kzq_ligand
     RDKit          3D

 28 30  0  0  0  0  0  0  0  0999 V2000
   -4.9760    5.4900   -5.6120 O   0  0  0  0  0  0  0  0  0  0  0  0
   -4.5220    5.2830   -6.7290 C   0  0  0  0  0  0  0  0  0  0  0  0
   -5.2020    4.3770   -7.6690 C   0  0  0  0  0  0  0  0  0  0  0  0
   -4.6780    4.1790   -8.8870 C   0  0  0  0  0  0  0  0  0  0  0  0
   -5.3120    3.2740   -9.8650 C   0  0  0  0  0  0  0  0  0  0  0  0
   -5.2530    1.8830   -9.6740 C   0  0  0  0  0  0  0  0  0  0  0  0
   -5.8400    1.0070  -10.5930 C   0  0  0  0  0  0  0  0  0  0  0  0
   -6.4820    1.5220  -11.7130 C   0  0  0  0  0  0  0  0  0  0  0  0
   -7.0680    0.7070  -12.6350 O   0  0  0  0  0  0  0  0  0  0  0  0
   -6.5450    2.8920  -11.9280 C   0  0  0  0  0  0  0  0  0  0  0  0
   -5.9590    3.7670  -11.0080 C   0  0  0  0  0  0  0  0  0  0  0  0
   -3.5020    4.7640   -9.3350 O   0  0  0  0  0  0  0  0  0  0  0  0
   -2.8390    5.6200   -8.4930 C   0  0  0  0  0  0  0  0  0  0  0  0
   -1.6660    6.2060   -8.9740 C   0  0  0  0  0  0  0  0  0  0  0  0
   -0.9460    7.0850   -8.1630 C   0  0  0  0  0  0  0  0  0  0  0  0
   -1.3940    7.3790   -6.8740 C   0  0  0  0  0  0  0  0  0  0  0  0
   -2.5670    6.7940   -6.3920 C   0  0  0  0  0  0  0  0  0  0  0  0
   -3.2840    5.9150   -7.2080 C   0  0  0  0  0  0  0  0  0  0  0  0
   -6.1313    3.8672   -7.3748 H   0  0  0  0  0  0  0  0  0  0  0  0
   -4.7385    1.4778   -8.7902 H   0  0  0  0  0  0  0  0  0  0  0  0
   -5.7939   -0.0800  -10.4307 H   0  0  0  0  0  0  0  0  0  0  0  0
   -7.6800    0.1080  -12.1770 H   0  0  0  0  0  0  0  0  0  0  0  0
   -7.0542    3.2879  -12.8191 H   0  0  0  0  0  0  0  0  0  0  0  0
   -6.0058    4.8521  -11.1822 H   0  0  0  0  0  0  0  0  0  0  0  0
   -1.3105    5.9755   -9.9891 H   0  0  0  0  0  0  0  0  0  0  0  0
   -0.0224    7.5476   -8.5410 H   0  0  0  0  0  0  0  0  0  0  0  0
   -0.8231    8.0714   -6.2379 H   0  0  0  0  0  0  0  0  0  0  0  0
   -2.9239    7.0236   -5.3772 H   0  0  0  0  0  0  0  0  0  0  0  0
  1  2  2  0
  2  3  1  0
  3  4  2  0
  4  5  1  0
  5  6  2  0
  6  7  1  0
  7  8  2  0
  8  9  1  0
  8 10  1  0
 10 11  2  0
  4 12  1  0
 12 13  1  0
 13 14  2  0
 14 15  1  0
 15 16  2  0
 16 17  1  0
 17 18  2  0
 18  2  1  0
 11  5  1  0
 18 13  1  0
  3 19  1  0
  6 20  1  0
  7 21  1  0
  9 22  1  0
 10 23  1  0
 11 24  1  0
 14 25  1  0
 15 26  1  0
 16 27  1  0
 17 28  1  0
M  END
>  <meeko>  (6) 
{"is_sidechain": [false], "free_energy": -8.028, "intermolecular_energy": -8.773, "internal_energy": -0.254}

$$$$
4kzq_ligand
     RDKit          3D

 28 30  0  0  0  0  0  0  0  0999 V2000
   -4.5220    5.1090   -7.6060 O   0  0  0  0  0  0  0  0  0  0  0  0
   -5.0990    4.0340   -7.6950 C   0  0  0  0  0  0  0  0  0  0  0  0
   -5.5090    3.2910   -6.4920 C   0  0  0  0  0  0  0  0  0  0  0  0
   -6.1440    2.1180   -6.6290 C   0  0  0  0  0  0  0  0  0  0  0  0
   -6.5690    1.3260   -5.4570 C   0  0  0  0  0  0  0  0  0  0  0  0
   -7.9260    1.2800   -5.0980 C   0  0  0  0  0  0  0  0  0  0  0  0
   -8.3490    0.5440   -3.9870 C   0  0  0  0  0  0  0  0  0  0  0  0
   -7.4110   -0.1440   -3.2260 C   0  0  0  0  0  0  0  0  0  0  0  0
   -7.7780   -0.8740   -2.1350 O   0  0  0  0  0  0  0  0  0  0  0  0
   -6.0640   -0.1050   -3.5560 C   0  0  0  0  0  0  0  0  0  0  0  0
   -5.6420    0.6300   -4.6670 C   0  0  0  0  0  0  0  0  0  0  0  0
   -6.4360    1.5260   -7.8490 O   0  0  0  0  0  0  0  0  0  0  0  0
   -6.0770    2.1870   -8.9960 C   0  0  0  0  0  0  0  0  0  0  0  0
   -6.3960    1.5760  -10.2100 C   0  0  0  0  0  0  0  0  0  0  0  0
   -6.0540    2.2000  -11.4120 C   0  0  0  0  0  0  0  0  0  0  0  0
   -5.3960    3.4310  -11.4030 C   0  0  0  0  0  0  0  0  0  0  0  0
   -5.0770    4.0430  -10.1890 C   0  0  0  0  0  0  0  0  0  0  0  0
   -5.4210    3.4150   -8.9890 C   0  0  0  0  0  0  0  0  0  0  0  0
   -5.2965    3.6941   -5.4908 H   0  0  0  0  0  0  0  0  0  0  0  0
   -8.6655    1.8300   -5.6985 H   0  0  0  0  0  0  0  0  0  0  0  0
   -9.4149    0.5097   -3.7175 H   0  0  0  0  0  0  0  0  0  0  0  0
   -6.9790   -1.1100   -1.6340 H   0  0  0  0  0  0  0  0  0  0  0  0
   -5.3303   -0.6511   -2.9448 H   0  0  0  0  0  0  0  0  0  0  0  0
   -4.5731    0.6631   -4.9245 H   0  0  0  0  0  0  0  0  0  0  0  0
   -6.9150    0.6062  -10.2200 H   0  0  0  0  0  0  0  0  0  0  0  0
   -6.3042    1.7195  -12.3693 H   0  0  0  0  0  0  0  0  0  0  0  0
   -5.1288    3.9189  -12.3520 H   0  0  0  0  0  0  0  0  0  0  0  0
   -4.5584    5.0130  -10.1774 H   0  0  0  0  0  0  0  0  0  0  0  0
  1  2  2  0
  2  3  1  0
  3  4  2  0
  4  5  1  0
  5  6  2  0
  6  7  1  0
  7  8  2  0
  8  9  1  0
  8 10  1  0
 10 11  2  0
  4 12  1  0
 12 13  1  0
 13 14  2  0
 14 15  1  0
 15 16  2  0
 16 17  1  0
 17 18  2  0
 18  2  1  0
 11  5  1  0
 18 13  1  0
  3 19  1  0
  6 20  1  0
  7 21  1  0
  9 22  1  0
 10 23  1  0
 11 24  1  0
 14 25  1  0
 15 26  1  0
 16 27  1  0
 17 28  1  0
M  END
>  <meeko>  (7) 
{"is_sidechain": [false], "free_energy": -8.01, "intermolecular_energy": -8.754, "internal_energy": -0.254}

$$$$
4kzq_ligand
     RDKit          3D

 28 30  0  0  0  0  0  0  0  0999 V2000
   -8.1480    5.2570  -10.8560 O   0  0  0  0  0  0  0  0  0  0  0  0
   -7.5460    4.2120  -10.6490 C   0  0  0  0  0  0  0  0  0  0  0  0
   -7.3170    3.7260   -9.2790 C   0  0  0  0  0  0  0  0  0  0  0  0
   -6.6560    2.5750   -9.0920 C   0  0  0  0  0  0  0  0  0  0  0  0
   -6.3910    2.0450   -7.7390 C   0  0  0  0  0  0  0  0  0  0  0  0
   -7.4180    2.0250   -6.7810 C   0  0  0  0  0  0  0  0  0  0  0  0
   -7.1850    1.5360   -5.4910 C   0  0  0  0  0  0  0  0  0  0  0  0
   -5.9190    1.0720   -5.1550 C   0  0  0  0  0  0  0  0  0  0  0  0
   -5.6470    0.5880   -3.9100 O   0  0  0  0  0  0  0  0  0  0  0  0
   -4.8870    1.0920   -6.0820 C   0  0  0  0  0  0  0  0  0  0  0  0
   -5.1200    1.5800   -7.3710 C   0  0  0  0  0  0  0  0  0  0  0  0
   -6.1420    1.7940  -10.1170 O   0  0  0  0  0  0  0  0  0  0  0  0
   -6.3380    2.2070  -11.4110 C   0  0  0  0  0  0  0  0  0  0  0  0
   -5.8230    1.3960  -12.4230 C   0  0  0  0  0  0  0  0  0  0  0  0
   -5.9890    1.7640  -13.7600 C   0  0  0  0  0  0  0  0  0  0  0  0
   -6.6670    2.9400  -14.0860 C   0  0  0  0  0  0  0  0  0  0  0  0
   -7.1830    3.7520  -13.0740 C   0  0  0  0  0  0  0  0  0  0  0  0
   -7.0140    3.3790  -11.7380 C   0  0  0  0  0  0  0  0  0  0  0  0
   -7.6847    4.3017   -8.4168 H   0  0  0  0  0  0  0  0  0  0  0  0
   -8.4176    2.3983   -7.0482 H   0  0  0  0  0  0  0  0  0  0  0  0
   -7.9970    1.5190   -4.7491 H   0  0  0  0  0  0  0  0  0  0  0  0
   -4.7010    0.3750   -3.8580 H   0  0  0  0  0  0  0  0  0  0  0  0
   -3.8882    0.7249   -5.8034 H   0  0  0  0  0  0  0  0  0  0  0  0
   -4.2993    1.5995   -8.1032 H   0  0  0  0  0  0  0  0  0  0  0  0
   -5.2877    0.4694  -12.1684 H   0  0  0  0  0  0  0  0  0  0  0  0
   -5.5842    1.1252  -14.5588 H   0  0  0  0  0  0  0  0  0  0  0  0
   -6.7947    3.2270  -15.1402 H   0  0  0  0  0  0  0  0  0  0  0  0
   -7.7188    4.6789  -13.3267 H   0  0  0  0  0  0  0  0  0  0  0  0
  1  2  2  0
  2  3  1  0
  3  4  2  0
  4  5  1  0
  5  6  2  0
  6  7  1  0
  7  8  2  0
  8  9  1  0
  8 10  1  0
 10 11  2  0
  4 12  1  0
 12 13  1  0
 13 14  2  0
 14 15  1  0
 15 16  2  0
 16 17  1  0
 17 18  2  0
 18  2  1  0
 11  5  1  0
 18 13  1  0
  3 19  1  0
  6 20  1  0
  7 21  1  0
  9 22  1  0
 10 23  1  0
 11 24  1  0
 14 25  1  0
 15 26  1  0
 16 27  1  0
 17 28  1  0
M  END
>  <meeko>  (8) 
{"is_sidechain": [false], "free_energy": -7.903, "intermolecular_energy": -8.616, "internal_energy": -0.276}

$$$$
4kzq_ligand
     RDKit          3D

 28 30  0  0  0  0  0  0  0  0999 V2000
   -5.6860    1.3070  -12.4330 O   0  0  0  0  0  0  0  0  0  0  0  0
   -6.1790    1.9330  -11.5040 C   0  0  0  0  0  0  0  0  0  0  0  0
   -5.9900    1.4970  -10.1110 C   0  0  0  0  0  0  0  0  0  0  0  0
   -6.5420    2.2110   -9.1190 C   0  0  0  0  0  0  0  0  0  0  0  0
   -6.3930    1.8140   -7.7040 C   0  0  0  0  0  0  0  0  0  0  0  0
   -7.4970    1.8800   -6.8380 C   0  0  0  0  0  0  0  0  0  0  0  0
   -7.3760    1.5170   -5.4930 C   0  0  0  0  0  0  0  0  0  0  0  0
   -6.1440    1.0940   -5.0080 C   0  0  0  0  0  0  0  0  0  0  0  0
   -5.9800    0.7320   -3.7040 O   0  0  0  0  0  0  0  0  0  0  0  0
   -5.0370    1.0310   -5.8420 C   0  0  0  0  0  0  0  0  0  0  0  0
   -5.1590    1.3920   -7.1870 C   0  0  0  0  0  0  0  0  0  0  0  0
   -7.3120    3.3490   -9.3100 O   0  0  0  0  0  0  0  0  0  0  0  0
   -7.5080    3.7930  -10.5930 C   0  0  0  0  0  0  0  0  0  0  0  0
   -8.2750    4.9480  -10.7560 C   0  0  0  0  0  0  0  0  0  0  0  0
   -8.5110    5.4490  -12.0390 C   0  0  0  0  0  0  0  0  0  0  0  0
   -7.9840    4.7990  -13.1550 C   0  0  0  0  0  0  0  0  0  0  0  0
   -7.2170    3.6440  -12.9930 C   0  0  0  0  0  0  0  0  0  0  0  0
   -6.9830    3.1470  -11.7080 C   0  0  0  0  0  0  0  0  0  0  0  0
   -5.4021    0.5949   -9.8859 H   0  0  0  0  0  0  0  0  0  0  0  0
   -8.4692    2.2216   -7.2228 H   0  0  0  0  0  0  0  0  0  0  0  0
   -8.2483    1.5658   -4.8246 H   0  0  0  0  0  0  0  0  0  0  0  0
   -5.0380    0.5550   -3.5460 H   0  0  0  0  0  0  0  0  0  0  0  0
   -4.0663    0.6980   -5.4461 H   0  0  0  0  0  0  0  0  0  0  0  0
   -4.2795    1.3447   -7.8459 H   0  0  0  0  0  0  0  0  0  0  0  0
   -8.6922    5.4620   -9.8775 H   0  0  0  0  0  0  0  0  0  0  0  0
   -9.1146    6.3593  -12.1693 H   0  0  0  0  0  0  0  0  0  0  0  0
   -8.1729    5.1967  -14.1630 H   0  0  0  0  0  0  0  0  0  0  0  0
   -6.7997    3.1286  -13.8707 H   0  0  0  0  0  0  0  0  0  0  0  0
  1  2  2  0
  2  3  1  0
  3  4  2  0
  4  5  1  0
  5  6  2  0
  6  7  1  0
  7  8  2  0
  8  9  1  0
  8 10  1  0
 10 11  2  0
  4 12  1  0
 12 13  1  0
 13 14  2  0
 14 15  1  0
 15 16  2  0
 16 17  1  0
 17 18  2  0
 18  2  1  0
 11  5  1  0
 18 13  1  0
  3 19  1  0
  6 20  1  0
  7 21  1  0
  9 22  1  0
 10 23  1  0
 11 24  1  0
 14 25  1  0
 15 26  1  0
 16 27  1  0
 17 28  1  0
M  END
>  <meeko>  (9) 
{"is_sidechain": [false], "free_energy": -7.655, "intermolecular_energy": -8.342, "internal_energy": -0.28}

$$$$
