
     RDKit          3D

 45 49  0  0  0  0  0  0  0  0999 V2000
   -9.5760   -4.0940    2.5030 C   0  0  0  0  0  0  0  0  0  0  0  0
   -8.1550   -4.3440    2.6600 N   0  0  0  0  0  0  0  0  0  0  0  0
   -7.4230   -3.7520    3.6280 C   0  0  0  0  0  0  0  0  0  0  0  0
   -7.9090   -3.0270    4.4240 O   0  0  0  0  0  0  0  0  0  0  0  0
   -5.9560   -4.0700    3.6740 C   0  0  0  0  0  0  0  0  0  0  0  0
   -5.1710   -3.9030    4.8520 C   0  0  0  0  0  0  0  0  0  0  0  0
   -3.8080   -4.2110    4.8550 C   0  0  0  0  0  0  0  0  0  0  0  0
   -3.2000   -4.6820    3.6820 C   0  0  0  0  0  0  0  0  0  0  0  0
   -3.9740   -4.8280    2.5100 C   0  0  0  0  0  0  0  0  0  0  0  0
   -3.4090   -5.3320    1.2740 C   0  0  0  0  0  0  0  0  0  0  0  0
   -2.5840   -4.6360    0.3680 N   0  0  0  0  0  0  0  0  0  0  0  0
   -2.8010   -3.2780   -0.1840 C   0  0  1  0  0  0  0  0  0  0  0  0
   -4.0910   -2.7190   -0.5520 C   0  0  0  0  0  0  0  0  0  0  0  0
   -4.9650   -3.5780   -1.1440 O   0  0  0  0  0  0  0  0  0  0  0  0
   -6.2830   -3.2310   -1.3640 C   0  0  0  0  0  0  0  0  0  0  0  0
   -7.2010   -4.2220   -1.7330 C   0  0  0  0  0  0  0  0  0  0  0  0
   -8.5360   -3.8880   -1.9190 C   0  0  0  0  0  0  0  0  0  0  0  0
   -8.9630   -2.5810   -1.7500 C   0  0  0  0  0  0  0  0  0  0  0  0
   -8.0600   -1.5930   -1.3930 C   0  0  0  0  0  0  0  0  0  0  0  0
   -6.7220   -1.9050   -1.1960 C   0  0  0  0  0  0  0  0  0  0  0  0
   -1.7270   -2.2330   -0.3620 C   0  0  1  0  0  0  0  0  0  0  0  0
   -2.0710   -1.0680    0.4110 O   0  0  0  0  0  0  0  0  0  0  0  0
   -0.2990   -2.5790   -0.0630 C   0  0  2  0  0  0  0  0  0  0  0  0
    0.5670   -1.4860   -0.2120 O   0  0  0  0  0  0  0  0  0  0  0  0
    0.2080   -3.7710   -0.8610 C   0  0  1  0  0  0  0  0  0  0  0  0
    1.5180   -3.7010   -1.6420 C   0  0  0  0  0  0  0  0  0  0  0  0
    1.3530   -4.2710   -2.9020 O   0  0  0  0  0  0  0  0  0  0  0  0
    2.3830   -4.3510   -3.8210 C   0  0  0  0  0  0  0  0  0  0  0  0
    3.5260   -5.1100   -3.5500 C   0  0  0  0  0  0  0  0  0  0  0  0
    4.5450   -5.1700   -4.4800 C   0  0  0  0  0  0  0  0  0  0  0  0
    4.4330   -4.4890   -5.6950 C   0  0  0  0  0  0  0  0  0  0  0  0
    3.2840   -3.7250   -5.9770 C   0  0  0  0  0  0  0  0  0  0  0  0
    2.2640   -3.6670   -5.0440 C   0  0  0  0  0  0  0  0  0  0  0  0
    0.0010   -4.9340   -0.0880 N   0  0  0  0  0  0  0  0  0  0  0  0
    0.6450   -4.9900    1.2730 C   0  0  0  0  0  0  0  0  0  0  0  0
    2.0820   -5.4670    1.2620 C   0  0  0  0  0  0  0  0  0  0  0  0
    2.3910   -6.8220    1.0540 C   0  0  0  0  0  0  0  0  0  0  0  0
    3.7240   -7.2510    1.0400 C   0  0  0  0  0  0  0  0  0  0  0  0
    4.7460   -6.2920    1.2350 C   0  0  0  0  0  0  0  0  0  0  0  0
    4.4490   -4.9460    1.4700 C   0  0  0  0  0  0  0  0  0  0  0  0
    3.1260   -4.5350    1.4820 C   0  0  0  0  0  0  0  0  0  0  0  0
   -1.4800   -5.6570   -0.3080 S   0  0  2  0  0  0  0  0  0  0  0  0
   -1.7850   -5.7980   -1.6650 O   0  0  0  0  0  0  0  0  0  0  0  0
   -1.4170   -6.8690    0.4110 O   0  0  0  0  0  0  0  0  0  0  0  0
   -5.3360   -4.5360    2.5240 C   0  0  0  0  0  0  0  0  0  0  0  0
  2  1  1  0
  3  2  1  0
  4  3  2  0
  5  3  1  0
  6  5  2  0
  7  6  1  0
  8  7  2  0
  9  8  1  0
 10  9  1  0
 11 10  1  0
 12 11  1  0
 12 13  1  1
 14 13  1  0
 15 14  1  0
 16 15  2  0
 17 16  1  0
 18 17  2  0
 19 18  1  0
 20 19  2  0
 20 15  1  0
 21 12  1  0
 21 22  1  1
 23 21  1  0
 23 24  1  6
 25 23  1  0
 25 26  1  1
 27 26  1  0
 28 27  1  0
 29 28  2  0
 30 29  1  0
 31 30  2  0
 32 31  1  0
 33 32  2  0
 33 28  1  0
 34 25  1  0
 35 34  1  0
 36 35  1  0
 37 36  2  0
 38 37  1  0
 39 38  2  0
 40 39  1  0
 41 36  1  0
 41 40  2  0
 42 34  1  6
 42 11  1  0
 43 42  2  0
 44 42  2  0
 45  5  1  0
 45  9  2  0
M  END
$$$$
