3ao4_ligand
     RDKit          3D

 27 29  0  0  0  0  0  0  0  0999 V2000
  -17.8280    8.9250   -3.7050 C   0  0  0  0  0  0  0  0  0  0  0  0
  -16.4450    8.5160   -3.6970 N   0  0  0  0  0  0  0  0  0  0  0  0
  -15.7360    8.5660   -4.8400 N   0  0  0  0  0  0  0  0  0  0  0  0
  -14.5000    8.1630   -4.4970 C   0  0  0  0  0  0  0  0  0  0  0  0
  -13.4140    8.0950   -5.4850 C   0  0  0  0  0  0  0  0  0  0  0  0
  -12.1740    7.5010   -5.1400 C   0  0  0  0  0  0  0  0  0  0  0  0
  -11.1200    7.4200   -6.0560 C   0  0  0  0  0  0  0  0  0  0  0  0
  -11.3260    7.9400   -7.3130 C   0  0  0  0  0  0  0  0  0  0  0  0
  -12.5230    8.5190   -7.6630 C   0  0  0  0  0  0  0  0  0  0  0  0
  -13.5810    8.6120   -6.7810 C   0  0  0  0  0  0  0  0  0  0  0  0
  -12.5230    8.9690   -8.9480 O   0  0  0  0  0  0  0  0  0  0  0  0
  -11.1900    8.6050   -9.3630 C   0  0  0  0  0  0  0  0  0  0  0  0
  -10.4250    7.9530   -8.3290 O   0  0  0  0  0  0  0  0  0  0  0  0
  -14.4550    7.8380   -3.1110 C   0  0  0  0  0  0  0  0  0  0  0  0
  -15.7200    8.0590   -2.6250 C   0  0  0  0  0  0  0  0  0  0  0  0
  -16.2210    7.9010   -1.3820 N   0  0  0  0  0  0  0  0  0  0  0  0
  -18.1851    9.0306   -2.6700 H   0  0  0  0  0  0  0  0  0  0  0  0
  -17.9221    9.8894   -4.2256 H   0  0  0  0  0  0  0  0  0  0  0  0
  -18.4316    8.1669   -4.2256 H   0  0  0  0  0  0  0  0  0  0  0  0
  -12.0373    7.0939   -4.1273 H   0  0  0  0  0  0  0  0  0  0  0  0
  -10.1607    6.9571   -5.7812 H   0  0  0  0  0  0  0  0  0  0  0  0
  -14.5297    9.0785   -7.0847 H   0  0  0  0  0  0  0  0  0  0  0  0
  -11.2667    7.9227  -10.2224 H   0  0  0  0  0  0  0  0  0  0  0  0
  -10.6637    9.5369   -9.6169 H   0  0  0  0  0  0  0  0  0  0  0  0
  -13.5824    7.4816   -2.5440 H   0  0  0  0  0  0  0  0  0  0  0  0
  -15.9320    7.0990   -0.8250 H   0  0  0  0  0  0  0  0  0  0  0  0
  -17.1490    8.2320   -1.1310 H   0  0  0  0  0  0  0  0  0  0  0  0
  1  2  1  0
  2  3  1  0
  3  4  2  0
  4  5  1  0
  5  6  2  0
  6  7  1  0
  7  8  2  0
  8  9  1  0
  9 10  2  0
  9 11  1  0
 11 12  1  0
 12 13  1  0
  4 14  1  0
 14 15  2  0
 15 16  1  0
 15  2  1  0
 10  5  1  0
 13  8  1  0
  1 17  1  0
  1 18  1  0
  1 19  1  0
  6 20  1  0
  7 21  1  0
 10 22  1  0
 12 23  1  0
 12 24  1  0
 14 25  1  0
 16 26  1  0
 16 27  1  0
M  END
>  <meeko>  (1) 
{"is_sidechain": [false], "free_energy": -6.464, "intermolecular_energy": -7.031, "internal_energy": -0.212}

$$$$
3ao4_ligand
     RDKit          3D

 27 29  0  0  0  0  0  0  0  0999 V2000
  -13.3820    7.5210   -7.7560 C   0  0  0  0  0  0  0  0  0  0  0  0
  -13.4250    7.6470   -6.3200 N   0  0  0  0  0  0  0  0  0  0  0  0
  -14.5990    7.4960   -5.6800 N   0  0  0  0  0  0  0  0  0  0  0  0
  -14.3010    7.6340   -4.3760 C   0  0  0  0  0  0  0  0  0  0  0  0
  -15.3350    7.5180   -3.3370 C   0  0  0  0  0  0  0  0  0  0  0  0
  -15.0320    6.8980   -2.0990 C   0  0  0  0  0  0  0  0  0  0  0  0
  -15.9930    6.7710   -1.0890 C   0  0  0  0  0  0  0  0  0  0  0  0
  -17.2490    7.2710   -1.3380 C   0  0  0  0  0  0  0  0  0  0  0  0
  -17.5580    7.8770   -2.5330 C   0  0  0  0  0  0  0  0  0  0  0  0
  -16.6310    8.0160   -3.5470 C   0  0  0  0  0  0  0  0  0  0  0  0
  -18.8500    8.3020   -2.5780 O   0  0  0  0  0  0  0  0  0  0  0  0
  -19.3150    7.8970   -1.2740 C   0  0  0  0  0  0  0  0  0  0  0  0
  -18.3040    7.2400   -0.4820 O   0  0  0  0  0  0  0  0  0  0  0  0
  -12.9110    7.8960   -4.2140 C   0  0  0  0  0  0  0  0  0  0  0  0
  -12.3750    7.9140   -5.4780 C   0  0  0  0  0  0  0  0  0  0  0  0
  -11.1070    8.1270   -5.8890 N   0  0  0  0  0  0  0  0  0  0  0  0
  -13.0375    6.5116   -8.0254 H   0  0  0  0  0  0  0  0  0  0  0  0
  -14.3878    7.6875   -8.1690 H   0  0  0  0  0  0  0  0  0  0  0  0
  -12.6878    8.2677   -8.1690 H   0  0  0  0  0  0  0  0  0  0  0  0
  -14.0180    6.5075   -1.9278 H   0  0  0  0  0  0  0  0  0  0  0  0
  -15.7517    6.2884   -0.1304 H   0  0  0  0  0  0  0  0  0  0  0  0
  -16.9009    8.5043   -4.4950 H   0  0  0  0  0  0  0  0  0  0  0  0
  -19.6551    8.7918   -0.7321 H   0  0  0  0  0  0  0  0  0  0  0  0
  -20.1265    7.1710   -1.4305 H   0  0  0  0  0  0  0  0  0  0  0  0
  -12.3743    8.0525   -3.2666 H   0  0  0  0  0  0  0  0  0  0  0  0
  -10.6080    7.3840   -6.3750 H   0  0  0  0  0  0  0  0  0  0  0  0
  -10.4800    8.7530   -5.3900 H   0  0  0  0  0  0  0  0  0  0  0  0
  1  2  1  0
  2  3  1  0
  3  4  2  0
  4  5  1  0
  5  6  2  0
  6  7  1  0
  7  8  2  0
  8  9  1  0
  9 10  2  0
  9 11  1  0
 11 12  1  0
 12 13  1  0
  4 14  1  0
 14 15  2  0
 15 16  1  0
 15  2  1  0
 10  5  1  0
 13  8  1  0
  1 17  1  0
  1 18  1  0
  1 19  1  0
  6 20  1  0
  7 21  1  0
 10 22  1  0
 12 23  1  0
 12 24  1  0
 14 25  1  0
 16 26  1  0
 16 27  1  0
M  END
>  <meeko>  (2) 
{"is_sidechain": [false], "free_energy": -6.177, "intermolecular_energy": -6.727, "internal_energy": -0.203}

$$$$
3ao4_ligand
     RDKit          3D

 27 29  0  0  0  0  0  0  0  0999 V2000
  -13.1300    9.0230   -8.8760 C   0  0  0  0  0  0  0  0  0  0  0  0
  -12.9100    8.4850   -7.5560 N   0  0  0  0  0  0  0  0  0  0  0  0
  -13.9650    8.2740   -6.7470 N   0  0  0  0  0  0  0  0  0  0  0  0
  -13.4410    7.7460   -5.6270 C   0  0  0  0  0  0  0  0  0  0  0  0
  -14.2890    7.3580   -4.4910 C   0  0  0  0  0  0  0  0  0  0  0  0
  -14.0950    7.9560   -3.2210 C   0  0  0  0  0  0  0  0  0  0  0  0
  -14.8850    7.6100   -2.1190 C   0  0  0  0  0  0  0  0  0  0  0  0
  -15.8630    6.6630   -2.3090 C   0  0  0  0  0  0  0  0  0  0  0  0
  -16.0650    6.0740   -3.5340 C   0  0  0  0  0  0  0  0  0  0  0  0
  -15.3020    6.3960   -4.6390 C   0  0  0  0  0  0  0  0  0  0  0  0
  -17.0790    5.1660   -3.5110 O   0  0  0  0  0  0  0  0  0  0  0  0
  -17.4910    5.2550   -2.1310 C   0  0  0  0  0  0  0  0  0  0  0  0
  -16.7220    6.2020   -1.3630 O   0  0  0  0  0  0  0  0  0  0  0  0
  -12.0250    7.6490   -5.7450 C   0  0  0  0  0  0  0  0  0  0  0  0
  -11.7100    8.1440   -6.9870 C   0  0  0  0  0  0  0  0  0  0  0  0
  -10.5130    8.2870   -7.5950 N   0  0  0  0  0  0  0  0  0  0  0  0
  -13.5452   10.0383   -8.7936 H   0  0  0  0  0  0  0  0  0  0  0  0
  -12.1750    9.0605   -9.4205 H   0  0  0  0  0  0  0  0  0  0  0  0
  -13.8376    8.3806   -9.4205 H   0  0  0  0  0  0  0  0  0  0  0  0
  -13.3041    8.7106   -3.0984 H   0  0  0  0  0  0  0  0  0  0  0  0
  -14.7290    8.0789   -1.1363 H   0  0  0  0  0  0  0  0  0  0  0  0
  -15.4827    5.9118   -5.6100 H   0  0  0  0  0  0  0  0  0  0  0  0
  -18.5478    5.5589   -2.1017 H   0  0  0  0  0  0  0  0  0  0  0  0
  -17.3300    4.2647   -1.6799 H   0  0  0  0  0  0  0  0  0  0  0  0
  -11.3246    7.2567   -4.9930 H   0  0  0  0  0  0  0  0  0  0  0  0
  -10.4660    8.2770   -8.6120 H   0  0  0  0  0  0  0  0  0  0  0  0
   -9.6510    7.9660   -7.1630 H   0  0  0  0  0  0  0  0  0  0  0  0
  1  2  1  0
  2  3  1  0
  3  4  2  0
  4  5  1  0
  5  6  2  0
  6  7  1  0
  7  8  2  0
  8  9  1  0
  9 10  2  0
  9 11  1  0
 11 12  1  0
 12 13  1  0
  4 14  1  0
 14 15  2  0
 15 16  1  0
 15  2  1  0
 10  5  1  0
 13  8  1  0
  1 17  1  0
  1 18  1  0
  1 19  1  0
  6 20  1  0
  7 21  1  0
 10 22  1  0
 12 23  1  0
 12 24  1  0
 14 25  1  0
 16 26  1  0
 16 27  1  0
M  END
>  <meeko>  (3) 
{"is_sidechain": [false], "free_energy": -6.106, "intermolecular_energy": -6.66, "internal_energy": -0.194}

$$$$
3ao4_ligand
     RDKit          3D

 27 29  0  0  0  0  0  0  0  0999 V2000
  -17.5490    7.3080   -1.1330 C   0  0  0  0  0  0  0  0  0  0  0  0
  -16.8940    6.8100   -2.3180 N   0  0  0  0  0  0  0  0  0  0  0  0
  -15.9450    7.5600   -2.9100 N   0  0  0  0  0  0  0  0  0  0  0  0
  -15.5140    6.8160   -3.9430 C   0  0  0  0  0  0  0  0  0  0  0  0
  -14.4500    7.2910   -4.8400 C   0  0  0  0  0  0  0  0  0  0  0  0
  -13.1340    7.4720   -4.3470 C   0  0  0  0  0  0  0  0  0  0  0  0
  -12.0980    7.9240   -5.1730 C   0  0  0  0  0  0  0  0  0  0  0  0
  -12.4010    8.1890   -6.4880 C   0  0  0  0  0  0  0  0  0  0  0  0
  -13.6730    8.0180   -6.9810 C   0  0  0  0  0  0  0  0  0  0  0  0
  -14.7140    7.5730   -6.1900 C   0  0  0  0  0  0  0  0  0  0  0  0
  -13.7620    8.3340   -8.3020 O   0  0  0  0  0  0  0  0  0  0  0  0
  -12.4000    8.7210   -8.5810 C   0  0  0  0  0  0  0  0  0  0  0  0
  -11.5320    8.6320   -7.4330 O   0  0  0  0  0  0  0  0  0  0  0  0
  -16.2310    5.5860   -3.9980 C   0  0  0  0  0  0  0  0  0  0  0  0
  -17.1200    5.6150   -2.9520 C   0  0  0  0  0  0  0  0  0  0  0  0
  -18.0380    4.7080   -2.5580 N   0  0  0  0  0  0  0  0  0  0  0  0
  -17.0373    6.9190   -0.2403 H   0  0  0  0  0  0  0  0  0  0  0  0
  -17.5109    8.4073   -1.1276 H   0  0  0  0  0  0  0  0  0  0  0  0
  -18.5981    6.9774   -1.1276 H   0  0  0  0  0  0  0  0  0  0  0  0
  -12.9214    7.2522   -3.2904 H   0  0  0  0  0  0  0  0  0  0  0  0
  -11.0783    8.0622   -4.7842 H   0  0  0  0  0  0  0  0  0  0  0  0
  -15.7237    7.4429   -6.6067 H   0  0  0  0  0  0  0  0  0  0  0  0
  -12.0049    8.0625   -9.3686 H   0  0  0  0  0  0  0  0  0  0  0  0
  -12.4197    9.7760   -8.8918 H   0  0  0  0  0  0  0  0  0  0  0  0
  -16.0990    4.7763   -4.7308 H   0  0  0  0  0  0  0  0  0  0  0  0
  -18.2870    4.6450   -1.5720 H   0  0  0  0  0  0  0  0  0  0  0  0
  -18.1640    3.8250   -3.0470 H   0  0  0  0  0  0  0  0  0  0  0  0
  1  2  1  0
  2  3  1  0
  3  4  2  0
  4  5  1  0
  5  6  2  0
  6  7  1  0
  7  8  2  0
  8  9  1  0
  9 10  2  0
  9 11  1  0
 11 12  1  0
 12 13  1  0
  4 14  1  0
 14 15  2  0
 15 16  1  0
 15  2  1  0
 10  5  1  0
 13  8  1  0
  1 17  1  0
  1 18  1  0
  1 19  1  0
  6 20  1  0
  7 21  1  0
 10 22  1  0
 12 23  1  0
 12 24  1  0
 14 25  1  0
 16 26  1  0
 16 27  1  0
M  END
>  <meeko>  (4) 
{"is_sidechain": [false], "free_energy": -5.852, "intermolecular_energy": -6.395, "internal_energy": -0.182}

$$$$
3ao4_ligand
     RDKit          3D

 27 29  0  0  0  0  0  0  0  0999 V2000
  -11.4860    7.8370   -5.8060 C   0  0  0  0  0  0  0  0  0  0  0  0
  -12.8830    7.5450   -5.6030 N   0  0  0  0  0  0  0  0  0  0  0  0
  -13.4040    7.6470   -4.3660 N   0  0  0  0  0  0  0  0  0  0  0  0
  -14.7070    7.3500   -4.5150 C   0  0  0  0  0  0  0  0  0  0  0  0
  -15.6330    7.3680   -3.3740 C   0  0  0  0  0  0  0  0  0  0  0  0
  -15.2390    6.8150   -2.1290 C   0  0  0  0  0  0  0  0  0  0  0  0
  -16.0960    6.8160   -1.0220 C   0  0  0  0  0  0  0  0  0  0  0  0
  -17.3430    7.3720   -1.1830 C   0  0  0  0  0  0  0  0  0  0  0  0
  -17.7400    7.9120   -2.3830 C   0  0  0  0  0  0  0  0  0  0  0  0
  -16.9160    7.9270   -3.4910 C   0  0  0  0  0  0  0  0  0  0  0  0
  -19.0060    8.4110   -2.3320 O   0  0  0  0  0  0  0  0  0  0  0  0
  -19.3560    8.1230   -0.9620 C   0  0  0  0  0  0  0  0  0  0  0  0
  -18.3050    7.4630   -0.2280 O   0  0  0  0  0  0  0  0  0  0  0  0
  -14.9880    7.0390   -5.8760 C   0  0  0  0  0  0  0  0  0  0  0  0
  -13.7970    7.1560   -6.5490 C   0  0  0  0  0  0  0  0  0  0  0  0
  -13.5050    6.9630   -7.8530 N   0  0  0  0  0  0  0  0  0  0  0  0
  -10.9877    7.9412   -4.8309 H   0  0  0  0  0  0  0  0  0  0  0  0
  -11.0184    7.0172   -6.3710 H   0  0  0  0  0  0  0  0  0  0  0  0
  -11.3859    8.7755   -6.3710 H   0  0  0  0  0  0  0  0  0  0  0  0
  -14.2358    6.3746   -2.0307 H   0  0  0  0  0  0  0  0  0  0  0  0
  -15.7830    6.3875   -0.0584 H   0  0  0  0  0  0  0  0  0  0  0  0
  -17.2558    8.3655   -4.4409 H   0  0  0  0  0  0  0  0  0  0  0  0
  -19.5922    9.0707   -0.4561 H   0  0  0  0  0  0  0  0  0  0  0  0
  -20.2159    7.4373   -0.9843 H   0  0  0  0  0  0  0  0  0  0  0  0
  -15.9631    6.7610   -6.3023 H   0  0  0  0  0  0  0  0  0  0  0  0
  -12.5670    6.6680   -8.1160 H   0  0  0  0  0  0  0  0  0  0  0  0
  -13.9660    7.4920   -8.5890 H   0  0  0  0  0  0  0  0  0  0  0  0
  1  2  1  0
  2  3  1  0
  3  4  2  0
  4  5  1  0
  5  6  2  0
  6  7  1  0
  7  8  2  0
  8  9  1  0
  9 10  2  0
  9 11  1  0
 11 12  1  0
 12 13  1  0
  4 14  1  0
 14 15  2  0
 15 16  1  0
 15  2  1  0
 10  5  1  0
 13  8  1  0
  1 17  1  0
  1 18  1  0
  1 19  1  0
  6 20  1  0
  7 21  1  0
 10 22  1  0
 12 23  1  0
 12 24  1  0
 14 25  1  0
 16 26  1  0
 16 27  1  0
M  END
>  <meeko>  (5) 
{"is_sidechain": [false], "free_energy": -5.824, "intermolecular_energy": -6.358, "internal_energy": -0.188}

$$$$
3ao4_ligand
     RDKit          3D

 27 29  0  0  0  0  0  0  0  0999 V2000
  -10.5950    7.5720   -7.7450 C   0  0  0  0  0  0  0  0  0  0  0  0
  -11.9120    7.9060   -7.2610 N   0  0  0  0  0  0  0  0  0  0  0  0
  -12.2730    7.5270   -6.0210 N   0  0  0  0  0  0  0  0  0  0  0  0
  -13.5170    8.0110   -5.8610 C   0  0  0  0  0  0  0  0  0  0  0  0
  -14.2620    7.8150   -4.6090 C   0  0  0  0  0  0  0  0  0  0  0  0
  -14.4250    8.8920   -3.7020 C   0  0  0  0  0  0  0  0  0  0  0  0
  -15.1280    8.7390   -2.5020 C   0  0  0  0  0  0  0  0  0  0  0  0
  -15.6580    7.5000   -2.2280 C   0  0  0  0  0  0  0  0  0  0  0  0
  -15.5100    6.4460   -3.0970 C   0  0  0  0  0  0  0  0  0  0  0  0
  -14.8220    6.5680   -4.2880 C   0  0  0  0  0  0  0  0  0  0  0  0
  -16.1090    5.3120   -2.6410 O   0  0  0  0  0  0  0  0  0  0  0  0
  -16.6510    5.7760   -1.3880 C   0  0  0  0  0  0  0  0  0  0  0  0
  -16.3680    7.1640   -1.1190 O   0  0  0  0  0  0  0  0  0  0  0  0
  -13.9370    8.6880   -7.0420 C   0  0  0  0  0  0  0  0  0  0  0  0
  -12.8930    8.5920   -7.9290 C   0  0  0  0  0  0  0  0  0  0  0  0
  -12.7730    9.0530   -9.1920 N   0  0  0  0  0  0  0  0  0  0  0  0
   -9.9229    7.4015   -6.8911 H   0  0  0  0  0  0  0  0  0  0  0  0
  -10.6496    6.6593   -8.3565 H   0  0  0  0  0  0  0  0  0  0  0  0
  -10.2081    8.4005   -8.3565 H   0  0  0  0  0  0  0  0  0  0  0  0
  -13.9884    9.8714   -3.9474 H   0  0  0  0  0  0  0  0  0  0  0  0
  -15.2522    9.5793   -1.8031 H   0  0  0  0  0  0  0  0  0  0  0  0
  -14.7153    5.7100   -4.9681 H   0  0  0  0  0  0  0  0  0  0  0  0
  -17.7424    5.6407   -1.4091 H   0  0  0  0  0  0  0  0  0  0  0  0
  -16.1736    5.1875   -0.5906 H   0  0  0  0  0  0  0  0  0  0  0  0
  -14.9028    9.1870   -7.2096 H   0  0  0  0  0  0  0  0  0  0  0  0
  -13.6110    9.2690   -9.7270 H   0  0  0  0  0  0  0  0  0  0  0  0
  -11.9900    8.7910   -9.7860 H   0  0  0  0  0  0  0  0  0  0  0  0
  1  2  1  0
  2  3  1  0
  3  4  2  0
  4  5  1  0
  5  6  2  0
  6  7  1  0
  7  8  2  0
  8  9  1  0
  9 10  2  0
  9 11  1  0
 11 12  1  0
 12 13  1  0
  4 14  1  0
 14 15  2  0
 15 16  1  0
 15  2  1  0
 10  5  1  0
 13  8  1  0
  1 17  1  0
  1 18  1  0
  1 19  1  0
  6 20  1  0
  7 21  1  0
 10 22  1  0
 12 23  1  0
 12 24  1  0
 14 25  1  0
 16 26  1  0
 16 27  1  0
M  END
>  <meeko>  (6) 
{"is_sidechain": [false], "free_energy": -5.794, "intermolecular_energy": -6.327, "internal_energy": -0.187}

$$$$
3ao4_ligand
     RDKit          3D

 27 29  0  0  0  0  0  0  0  0999 V2000
  -12.7670    8.7080   -8.4260 C   0  0  0  0  0  0  0  0  0  0  0  0
  -13.0400    8.3490   -7.0560 N   0  0  0  0  0  0  0  0  0  0  0  0
  -14.3170    8.2190   -6.6510 N   0  0  0  0  0  0  0  0  0  0  0  0
  -14.2340    7.8510   -5.3610 C   0  0  0  0  0  0  0  0  0  0  0  0
  -15.4380    7.5920   -4.5580 C   0  0  0  0  0  0  0  0  0  0  0  0
  -16.3070    8.6590   -4.2160 C   0  0  0  0  0  0  0  0  0  0  0  0
  -17.4610    8.4480   -3.4530 C   0  0  0  0  0  0  0  0  0  0  0  0
  -17.7260    7.1620   -3.0420 C   0  0  0  0  0  0  0  0  0  0  0  0
  -16.8940    6.1180   -3.3660 C   0  0  0  0  0  0  0  0  0  0  0  0
  -15.7500    6.2960   -4.1170 C   0  0  0  0  0  0  0  0  0  0  0  0
  -17.3350    4.9310   -2.8650 O   0  0  0  0  0  0  0  0  0  0  0  0
  -18.5390    5.3510   -2.1910 C   0  0  0  0  0  0  0  0  0  0  0  0
  -18.7930    6.7670   -2.2990 O   0  0  0  0  0  0  0  0  0  0  0  0
  -12.8700    7.7710   -4.9590 C   0  0  0  0  0  0  0  0  0  0  0  0
  -12.1260    8.1110   -6.0620 C   0  0  0  0  0  0  0  0  0  0  0  0
  -10.7880    8.2020   -6.2220 N   0  0  0  0  0  0  0  0  0  0  0  0
  -12.1013    9.5834   -8.4500 H   0  0  0  0  0  0  0  0  0  0  0  0
  -12.2808    7.8636   -8.9364 H   0  0  0  0  0  0  0  0  0  0  0  0
  -13.7107    8.9509   -8.9364 H   0  0  0  0  0  0  0  0  0  0  0  0
  -16.0684    9.6767   -4.5586 H   0  0  0  0  0  0  0  0  0  0  0  0
  -18.1316    9.2798   -3.1915 H   0  0  0  0  0  0  0  0  0  0  0  0
  -15.0991    5.4443   -4.3638 H   0  0  0  0  0  0  0  0  0  0  0  0
  -19.3905    4.8098   -2.6292 H   0  0  0  0  0  0  0  0  0  0  0  0
  -18.4078    5.1257   -1.1223 H   0  0  0  0  0  0  0  0  0  0  0  0
  -12.4892    7.4929   -3.9652 H   0  0  0  0  0  0  0  0  0  0  0  0
  -10.3960    9.0150   -6.6930 H   0  0  0  0  0  0  0  0  0  0  0  0
  -10.2030    7.3770   -6.3200 H   0  0  0  0  0  0  0  0  0  0  0  0
  1  2  1  0
  2  3  1  0
  3  4  2  0
  4  5  1  0
  5  6  2  0
  6  7  1  0
  7  8  2  0
  8  9  1  0
  9 10  2  0
  9 11  1  0
 11 12  1  0
 12 13  1  0
  4 14  1  0
 14 15  2  0
 15 16  1  0
 15  2  1  0
 10  5  1  0
 13  8  1  0
  1 17  1  0
  1 18  1  0
  1 19  1  0
  6 20  1  0
  7 21  1  0
 10 22  1  0
 12 23  1  0
 12 24  1  0
 14 25  1  0
 16 26  1  0
 16 27  1  0
M  END
>  <meeko>  (7) 
{"is_sidechain": [false], "free_energy": -5.352, "intermolecular_energy": -5.851, "internal_energy": -0.182}

$$$$
3ao4_ligand
     RDKit          3D

 27 29  0  0  0  0  0  0  0  0999 V2000
  -19.8110    8.2280   -4.4490 C   0  0  0  0  0  0  0  0  0  0  0  0
  -18.5660    7.5150   -4.3050 N   0  0  0  0  0  0  0  0  0  0  0  0
  -17.4490    8.0200   -4.8620 N   0  0  0  0  0  0  0  0  0  0  0  0
  -16.4760    7.1560   -4.5240 C   0  0  0  0  0  0  0  0  0  0  0  0
  -15.0820    7.3720   -4.9390 C   0  0  0  0  0  0  0  0  0  0  0  0
  -14.0830    7.6350   -3.9680 C   0  0  0  0  0  0  0  0  0  0  0  0
  -12.7470    7.8450   -4.3280 C   0  0  0  0  0  0  0  0  0  0  0  0
  -12.4320    7.7880   -5.6660 C   0  0  0  0  0  0  0  0  0  0  0  0
  -13.3880    7.5330   -6.6190 C   0  0  0  0  0  0  0  0  0  0  0  0
  -14.7130    7.3210   -6.2930 C   0  0  0  0  0  0  0  0  0  0  0  0
  -12.8720    7.5180   -7.8790 O   0  0  0  0  0  0  0  0  0  0  0  0
  -11.4820    7.7910   -7.6050 C   0  0  0  0  0  0  0  0  0  0  0  0
  -11.1960    7.9650   -6.2020 O   0  0  0  0  0  0  0  0  0  0  0  0
  -17.0130    6.0840   -3.7570 C   0  0  0  0  0  0  0  0  0  0  0  0
  -18.3590    6.3300   -3.6450 C   0  0  0  0  0  0  0  0  0  0  0  0
  -19.3310    5.6250   -3.0290 N   0  0  0  0  0  0  0  0  0  0  0  0
  -20.2175    8.4608   -3.4537 H   0  0  0  0  0  0  0  0  0  0  0  0
  -19.6363    9.1630   -5.0016 H   0  0  0  0  0  0  0  0  0  0  0  0
  -20.5290    7.6042   -5.0016 H   0  0  0  0  0  0  0  0  0  0  0  0
  -14.3649    7.6750   -2.9055 H   0  0  0  0  0  0  0  0  0  0  0  0
  -11.9771    8.0482   -3.5691 H   0  0  0  0  0  0  0  0  0  0  0  0
  -15.4604    7.1174   -7.0740 H   0  0  0  0  0  0  0  0  0  0  0  0
  -10.8811    6.9499   -7.9812 H   0  0  0  0  0  0  0  0  0  0  0  0
  -11.2332    8.7381   -8.1060 H   0  0  0  0  0  0  0  0  0  0  0  0
  -16.4605    5.2300   -3.3381 H   0  0  0  0  0  0  0  0  0  0  0  0
  -19.9330    6.0890   -2.3520 H   0  0  0  0  0  0  0  0  0  0  0  0
  -19.2350    4.6290   -2.8440 H   0  0  0  0  0  0  0  0  0  0  0  0
  1  2  1  0
  2  3  1  0
  3  4  2  0
  4  5  1  0
  5  6  2  0
  6  7  1  0
  7  8  2  0
  8  9  1  0
  9 10  2  0
  9 11  1  0
 11 12  1  0
 12 13  1  0
  4 14  1  0
 14 15  2  0
 15 16  1  0
 15  2  1  0
 10  5  1  0
 13  8  1  0
  1 17  1  0
  1 18  1  0
  1 19  1  0
  6 20  1  0
  7 21  1  0
 10 22  1  0
 12 23  1  0
 12 24  1  0
 14 25  1  0
 16 26  1  0
 16 27  1  0
M  END
>  <meeko>  (8) 
{"is_sidechain": [false], "free_energy": -5.269, "intermolecular_energy": -5.753, "internal_energy": -0.191}

$$$$
3ao4_ligand
     RDKit          3D

 27 29  0  0  0  0  0  0  0  0999 V2000
  -20.5150    7.6090   -2.6510 C   0  0  0  0  0  0  0  0  0  0  0  0
  -19.1120    7.5700   -2.3210 N   0  0  0  0  0  0  0  0  0  0  0  0
  -18.2010    7.6760   -3.3060 N   0  0  0  0  0  0  0  0  0  0  0  0
  -17.0110    7.6410   -2.6800 C   0  0  0  0  0  0  0  0  0  0  0  0
  -15.7490    7.7460   -3.4250 C   0  0  0  0  0  0  0  0  0  0  0  0
  -14.5660    8.1660   -2.7660 C   0  0  0  0  0  0  0  0  0  0  0  0
  -13.3480    8.2770   -3.4460 C   0  0  0  0  0  0  0  0  0  0  0  0
  -13.3350    7.9650   -4.7850 C   0  0  0  0  0  0  0  0  0  0  0  0
  -14.4730    7.5560   -5.4390 C   0  0  0  0  0  0  0  0  0  0  0  0
  -15.6880    7.4360   -4.7940 C   0  0  0  0  0  0  0  0  0  0  0  0
  -14.2470    7.2950   -6.7550 O   0  0  0  0  0  0  0  0  0  0  0  0
  -12.8370    7.5860   -6.8520 C   0  0  0  0  0  0  0  0  0  0  0  0
  -12.2530    8.0130   -5.6050 O   0  0  0  0  0  0  0  0  0  0  0  0
  -17.1980    7.4900   -1.2760 C   0  0  0  0  0  0  0  0  0  0  0  0
  -18.5550    7.4310   -1.0750 C   0  0  0  0  0  0  0  0  0  0  0  0
  -19.2670    7.2850    0.0630 N   0  0  0  0  0  0  0  0  0  0  0  0
  -21.1091    7.6255   -1.7254 H   0  0  0  0  0  0  0  0  0  0  0  0
  -20.7282    8.5134   -3.2397 H   0  0  0  0  0  0  0  0  0  0  0  0
  -20.7781    6.7178   -3.2397 H   0  0  0  0  0  0  0  0  0  0  0  0
  -14.6066    8.4105   -1.6943 H   0  0  0  0  0  0  0  0  0  0  0  0
  -12.4338    8.6022   -2.9279 H   0  0  0  0  0  0  0  0  0  0  0  0
  -16.5853    7.1061   -5.3381 H   0  0  0  0  0  0  0  0  0  0  0  0
  -12.3158    6.6774   -7.1880 H   0  0  0  0  0  0  0  0  0  0  0  0
  -12.7253    8.4170   -7.5640 H   0  0  0  0  0  0  0  0  0  0  0  0
  -16.4132    7.4323   -0.5074 H   0  0  0  0  0  0  0  0  0  0  0  0
  -20.2830    7.2620    0.0170 H   0  0  0  0  0  0  0  0  0  0  0  0
  -18.9270    7.6330    0.9560 H   0  0  0  0  0  0  0  0  0  0  0  0
  1  2  1  0
  2  3  1  0
  3  4  2  0
  4  5  1  0
  5  6  2  0
  6  7  1  0
  7  8  2  0
  8  9  1  0
  9 10  2  0
  9 11  1  0
 11 12  1  0
 12 13  1  0
  4 14  1  0
 14 15  2  0
 15 16  1  0
 15  2  1  0
 10  5  1  0
 13  8  1  0
  1 17  1  0
  1 18  1  0
  1 19  1  0
  6 20  1  0
  7 21  1  0
 10 22  1  0
 12 23  1  0
 12 24  1  0
 14 25  1  0
 16 26  1  0
 16 27  1  0
M  END
>  <meeko>  (9) 
{"is_sidechain": [false], "free_energy": -5.213, "intermolecular_energy": -5.673, "internal_energy": -0.209}

$$$$
