
     RDKit          3D

 16 18  0  0  0  0  0  0  0  0999 V2000
    6.2190   -0.5450   -2.0280 N   0  0  0  0  0  0  0  0  0  0  0  0
    7.5290   -0.2110   -2.2030 C   0  0  0  0  0  0  0  0  0  0  0  0
    7.8770    0.7580   -3.1600 C   0  0  0  0  0  0  0  0  0  0  0  0
    9.1870    1.0900   -3.2990 C   0  0  0  0  0  0  0  0  0  0  0  0
   10.1810    0.4720   -2.5100 C   0  0  0  0  0  0  0  0  0  0  0  0
   11.5420    0.8040   -2.6230 C   0  0  0  0  0  0  0  0  0  0  0  0
   12.4980    0.1680   -1.8210 C   0  0  0  0  0  0  0  0  0  0  0  0
   13.9080    0.5260   -1.9270 C   0  0  0  0  0  0  0  0  0  0  0  0
   14.3630    1.8370   -2.1850 C   0  0  0  0  0  0  0  0  0  0  0  0
   15.7620    1.9250   -2.2280 C   0  0  0  0  0  0  0  0  0  0  0  0
   16.4500    0.4160   -1.9430 S   0  0  0  0  0  0  0  0  0  0  0  0
   14.9380   -0.3800   -1.7680 C   0  0  0  0  0  0  0  0  0  0  0  0
   12.0850   -0.8130   -0.9000 C   0  0  0  0  0  0  0  0  0  0  0  0
   10.7430   -1.1390   -0.7730 C   0  0  0  0  0  0  0  0  0  0  0  0
    9.7790   -0.5030   -1.5720 C   0  0  0  0  0  0  0  0  0  0  0  0
    8.4420   -0.8210   -1.4410 N   0  0  0  0  0  0  0  0  0  0  0  0
  2  1  1  0
  3  2  2  0
  4  3  1  0
  5  4  2  0
  6  5  1  0
  7  6  2  0
  8  7  1  0
  9  8  1  0
 10  9  2  0
 11 10  1  0
 12  8  2  0
 12 11  1  0
 13  7  1  0
 14 13  2  0
 15 14  1  0
 15  5  1  0
 16 15  2  0
 16  2  1  0
M  END
$$$$
