
     RDKit          3D

 16 15  0  0  0  0  0  0  0  0999 V2000
   -0.2810  -20.2530   -5.9050 C   0  0  0  0  0  0  0  0  0  0  0  0
   -1.0900  -19.1120   -6.4360 C   0  0  0  0  0  0  0  0  0  0  0  0
   -0.5740  -18.6990   -7.7650 C   0  0  0  0  0  0  0  0  0  0  0  0
   -1.3660  -17.6090   -8.3760 C   0  0  0  0  0  0  0  0  0  0  0  0
   -0.5830  -17.0220   -9.5180 C   0  0  0  0  0  0  0  0  0  0  0  0
   -1.4130  -16.1290  -10.3780 C   0  0  0  0  0  0  0  0  0  0  0  0
   -0.5340  -15.5210  -11.4360 C   0  0  0  0  0  0  0  0  0  0  0  0
   -1.3380  -15.0200  -12.6110 C   0  0  0  0  0  0  0  0  0  0  0  0
   -0.6160  -13.9300  -13.3570 C   0  0  0  0  0  0  0  0  0  0  0  0
   -1.0310  -13.9110  -14.7940 C   0  0  0  0  0  0  0  0  0  0  0  0
   -1.5560  -12.5910  -15.2010 C   0  0  0  0  0  0  0  0  0  0  0  0
   -1.7470  -12.5710  -16.6770 C   0  0  0  0  0  0  0  0  0  0  0  0
   -3.0590  -11.9430  -17.0380 C   0  0  0  0  0  0  0  0  0  0  0  0
   -3.1650  -11.7400  -18.5460 C   0  0  0  0  0  0  0  0  0  0  0  0
   -3.5510  -10.6760  -18.9640 O   0  0  0  0  0  0  0  0  0  0  0  0
   -2.8440  -12.6770  -19.2830 O   0  0  0  0  0  0  0  0  0  0  0  0
  2  1  1  0
  3  2  1  0
  4  3  1  0
  5  4  1  0
  6  5  1  0
  7  6  1  0
  8  7  1  0
  9  8  1  0
 10  9  1  0
 11 10  1  0
 12 11  1  0
 13 12  1  0
 14 13  1  0
 15 14  2  0
 16 14  1  0
M  CHG  1  16  -1
M  END
$$$$
