3myg_ligand
     RDKit          3D

 57 60  0  0  0  0  0  0  0  0999 V2000
   -8.3880    7.7750   -4.4500 C   0  0  0  0  0  0  0  0  0  0  0  0
   -7.3450    6.9210   -3.7460 C   0  0  0  0  0  0  0  0  0  0  0  0
   -6.3660    6.3280   -4.7370 N   0  0  2  0  0  0  0  0  0  0  0  0
   -6.1070    7.2980   -5.9100 C   0  0  0  0  0  0  0  0  0  0  0  0
   -4.7020    7.8360   -5.8700 C   0  0  0  0  0  0  0  0  0  0  0  0
   -4.2230    8.9070   -5.0550 C   0  0  0  0  0  0  0  0  0  0  0  0
   -2.8750    9.1480   -5.2660 C   0  0  0  0  0  0  0  0  0  0  0  0
   -2.1290   10.0970   -4.6470 N   0  0  0  0  0  0  0  0  0  0  0  0
   -1.3370   10.0330   -3.5100 C   0  0  0  0  0  0  0  0  0  0  0  0
   -1.6890    9.3970   -2.4180 N   0  0  0  0  0  0  0  0  0  0  0  0
   -0.8350    9.3830   -1.3230 C   0  0  0  0  0  0  0  0  0  0  0  0
   -1.3390    8.6250   -0.1280 C   0  0  0  0  0  0  0  0  0  0  0  0
    0.3640    9.9980   -1.3120 C   0  0  0  0  0  0  0  0  0  0  0  0
    0.7730   10.6800   -2.4430 N   0  0  0  0  0  0  0  0  0  0  0  0
    1.8940   11.4030   -2.7830 C   0  0  0  0  0  0  0  0  0  0  0  0
    3.1700   11.7200   -1.9620 C   0  0  0  0  0  0  0  0  0  0  0  0
    3.2320   12.2900   -0.6700 C   0  0  0  0  0  0  0  0  0  0  0  0
    4.4860   12.4360   -0.2360 N   0  0  0  0  0  0  0  0  0  0  0  0
    5.2280   11.9620   -1.2480 N   0  0  0  0  0  0  0  0  0  0  0  0
    4.4830   11.5200   -2.3080 C   0  0  0  0  0  0  0  0  0  0  0  0
    1.6620   11.8220   -4.0830 C   0  0  0  0  0  0  0  0  0  0  0  0
    0.4460   11.3890   -4.5510 N   0  0  0  0  0  0  0  0  0  0  0  0
   -0.0500   10.7110   -3.5380 C   0  0  0  0  0  0  0  0  0  0  0  0
   -2.3420    8.0220   -6.4530 S   0  0  0  0  0  0  0  0  0  0  0  0
   -3.8000    7.2640   -6.6740 N   0  0  0  0  0  0  0  0  0  0  0  0
   -6.6280    4.8500   -5.1380 C   0  0  0  0  0  0  0  0  0  0  0  0
   -7.4330    4.8050   -6.4530 C   0  0  0  0  0  0  0  0  0  0  0  0
   -5.2700    4.1750   -5.4240 C   0  0  0  0  0  0  0  0  0  0  0  0
   -7.3690    4.0910   -4.0020 C   0  0  0  0  0  0  0  0  0  0  0  0
   -6.4600    3.3690   -3.1740 O   0  0  0  0  0  0  0  0  0  0  0  0
   -9.0109    8.2850   -3.7005 H   0  0  0  0  0  0  0  0  0  0  0  0
   -7.8847    8.5237   -5.0794 H   0  0  0  0  0  0  0  0  0  0  0  0
   -9.0227    7.1339   -5.0794 H   0  0  0  0  0  0  0  0  0  0  0  0
   -6.7945    7.5461   -3.0275 H   0  0  0  0  0  0  0  0  0  0  0  0
   -7.8593    6.0980   -3.2283 H   0  0  0  0  0  0  0  0  0  0  0  0
   -5.4410    6.3200   -4.2700 H   0  0  0  0  0  0  0  0  0  0  0  0
   -6.2596    6.7628   -6.8588 H   0  0  0  0  0  0  0  0  0  0  0  0
   -6.8064    8.1427   -5.8249 H   0  0  0  0  0  0  0  0  0  0  0  0
   -4.8477    9.4711   -4.3468 H   0  0  0  0  0  0  0  0  0  0  0  0
   -2.1090   11.0360   -5.0450 H   0  0  0  0  0  0  0  0  0  0  0  0
   -1.0052    9.1270    0.7921 H   0  0  0  0  0  0  0  0  0  0  0  0
   -2.4383    8.5938   -0.1505 H   0  0  0  0  0  0  0  0  0  0  0  0
   -0.9425    7.5992   -0.1505 H   0  0  0  0  0  0  0  0  0  0  0  0
    1.0057    9.9581   -0.4194 H   0  0  0  0  0  0  0  0  0  0  0  0
    2.3457   12.5809   -0.0871 H   0  0  0  0  0  0  0  0  0  0  0  0
    6.2380   11.9700   -1.1480 H   0  0  0  0  0  0  0  0  0  0  0  0
    4.8607   11.0909   -3.2478 H   0  0  0  0  0  0  0  0  0  0  0  0
    2.3673   12.4288   -4.6698 H   0  0  0  0  0  0  0  0  0  0  0  0
   -8.5071    4.7450   -6.2235 H   0  0  0  0  0  0  0  0  0  0  0  0
   -7.2331    5.7157   -7.0366 H   0  0  0  0  0  0  0  0  0  0  0  0
   -7.1328    3.9222   -7.0366 H   0  0  0  0  0  0  0  0  0  0  0  0
   -4.7752    3.9291   -4.4728 H   0  0  0  0  0  0  0  0  0  0  0  0
   -5.4332    3.2531   -6.0015 H   0  0  0  0  0  0  0  0  0  0  0  0
   -4.6336    4.8617   -6.0015 H   0  0  0  0  0  0  0  0  0  0  0  0
   -7.9147    4.8186   -3.3833 H   0  0  0  0  0  0  0  0  0  0  0  0
   -8.0608    3.3709   -4.4634 H   0  0  0  0  0  0  0  0  0  0  0  0
   -6.5750    2.4210   -3.3810 H   0  0  0  0  0  0  0  0  0  0  0  0
  1  2  1  0
  2  3  1  0
  3  4  1  0
  4  5  1  0
  5  6  1  0
  6  7  2  0
  7  8  1  0
  8  9  1  0
  9 10  2  0
 10 11  1  0
 11 12  1  0
 11 13  2  0
 13 14  1  0
 14 15  1  0
 15 16  1  0
 16 17  1  0
 17 18  2  0
 18 19  1  0
 19 20  1  0
 15 21  2  0
 21 22  1  0
 22 23  2  0
  7 24  1  0
 24 25  1  0
  3 26  1  0
 26 27  1  0
 26 28  1  0
 26 29  1  0
 29 30  1  0
 25  5  2  0
 23  9  1  0
 23 14  1  0
 20 16  2  0
  1 31  1  0
  1 32  1  0
  1 33  1  0
  2 34  1  0
  2 35  1  0
  3 36  1  1
  4 37  1  0
  4 38  1  0
  6 39  1  0
  8 40  1  0
 12 41  1  0
 12 42  1  0
 12 43  1  0
 13 44  1  0
 17 45  1  0
 19 46  1  0
 20 47  1  0
 21 48  1  0
 27 49  1  0
 27 50  1  0
 27 51  1  0
 28 52  1  0
 28 53  1  0
 28 54  1  0
 29 55  1  0
 29 56  1  0
 30 57  1  0
M  CHG  1   3   1
M  END
>  <meeko>  (1) 
{"is_sidechain": [false], "free_energy": -7.81, "intermolecular_energy": -11.691, "internal_energy": -1.062}

$$$$
3myg_ligand
     RDKit          3D

 57 60  0  0  0  0  0  0  0  0999 V2000
   -7.5580    9.7960   -3.8680 C   0  0  0  0  0  0  0  0  0  0  0  0
   -7.5830    8.3550   -3.3850 C   0  0  0  0  0  0  0  0  0  0  0  0
   -6.9400    7.4300   -4.3960 N   0  0  2  0  0  0  0  0  0  0  0  0
   -6.0660    8.2190   -5.3940 C   0  0  0  0  0  0  0  0  0  0  0  0
   -4.6010    7.9670   -5.1510 C   0  0  0  0  0  0  0  0  0  0  0  0
   -3.6070    8.9490   -4.8530 C   0  0  0  0  0  0  0  0  0  0  0  0
   -2.3560    8.3760   -4.6880 C   0  0  0  0  0  0  0  0  0  0  0  0
   -1.2080    9.0390   -4.3990 N   0  0  0  0  0  0  0  0  0  0  0  0
   -0.6690    9.4370   -3.1850 C   0  0  0  0  0  0  0  0  0  0  0  0
   -1.2330    9.1920   -2.0260 N   0  0  0  0  0  0  0  0  0  0  0  0
   -0.6240    9.6280   -0.8570 C   0  0  0  0  0  0  0  0  0  0  0  0
   -1.3580    9.2910    0.4100 C   0  0  0  0  0  0  0  0  0  0  0  0
    0.5410   10.3040   -0.8380 C   0  0  0  0  0  0  0  0  0  0  0  0
    1.1690   10.5840   -2.0370 N   0  0  0  0  0  0  0  0  0  0  0  0
    2.3300   11.2330   -2.3920 C   0  0  0  0  0  0  0  0  0  0  0  0
    3.4050   11.9190   -1.5100 C   0  0  0  0  0  0  0  0  0  0  0  0
    4.5670   12.5920   -1.9500 C   0  0  0  0  0  0  0  0  0  0  0  0
    5.2920   13.0750   -0.9390 N   0  0  0  0  0  0  0  0  0  0  0  0
    4.5970   12.7120    0.1490 N   0  0  0  0  0  0  0  0  0  0  0  0
    3.4560   12.0140   -0.1410 C   0  0  0  0  0  0  0  0  0  0  0  0
    2.3680   11.1570   -3.7750 C   0  0  0  0  0  0  0  0  0  0  0  0
    1.2790   10.4900   -4.2800 N   0  0  0  0  0  0  0  0  0  0  0  0
    0.5900   10.1670   -3.2070 C   0  0  0  0  0  0  0  0  0  0  0  0
   -2.5430    6.6810   -4.9190 S   0  0  0  0  0  0  0  0  0  0  0  0
   -4.1740    6.7030   -5.2180 N   0  0  0  0  0  0  0  0  0  0  0  0
   -7.8800    6.3660   -5.0280 C   0  0  0  0  0  0  0  0  0  0  0  0
   -9.3500    6.7450   -4.7520 C   0  0  0  0  0  0  0  0  0  0  0  0
   -7.6920    6.3990   -6.5590 C   0  0  0  0  0  0  0  0  0  0  0  0
   -7.5560    4.9470   -4.4830 C   0  0  0  0  0  0  0  0  0  0  0  0
   -6.1520    4.6980   -4.4730 O   0  0  0  0  0  0  0  0  0  0  0  0
   -7.5463   10.4731   -3.0012 H   0  0  0  0  0  0  0  0  0  0  0  0
   -6.6568    9.9633   -4.4762 H   0  0  0  0  0  0  0  0  0  0  0  0
   -8.4528    9.9944   -4.4762 H   0  0  0  0  0  0  0  0  0  0  0  0
   -7.0342    8.2852   -2.4343 H   0  0  0  0  0  0  0  0  0  0  0  0
   -8.6312    8.0501   -3.2497 H   0  0  0  0  0  0  0  0  0  0  0  0
   -6.2230    6.8840   -3.8830 H   0  0  0  0  0  0  0  0  0  0  0  0
   -6.3190    7.9065   -6.4179 H   0  0  0  0  0  0  0  0  0  0  0  0
   -6.2627    9.2926   -5.2569 H   0  0  0  0  0  0  0  0  0  0  0  0
   -3.8096   10.0266   -4.7654 H   0  0  0  0  0  0  0  0  0  0  0  0
   -0.5980    9.3140   -5.1690 H   0  0  0  0  0  0  0  0  0  0  0  0
   -0.7424    9.5737    1.2767 H   0  0  0  0  0  0  0  0  0  0  0  0
   -2.3092    9.8425    0.4405 H   0  0  0  0  0  0  0  0  0  0  0  0
   -1.5597    8.2101    0.4405 H   0  0  0  0  0  0  0  0  0  0  0  0
    0.9848   10.6275    0.1151 H   0  0  0  0  0  0  0  0  0  0  0  0
    4.8434   12.7053   -3.0087 H   0  0  0  0  0  0  0  0  0  0  0  0
    4.9610   12.9730    1.0600 H   0  0  0  0  0  0  0  0  0  0  0  0
    2.7271   11.6106    0.5773 H   0  0  0  0  0  0  0  0  0  0  0  0
    3.1732   11.5799   -4.3937 H   0  0  0  0  0  0  0  0  0  0  0  0
   -9.5197    6.7887   -3.6660 H   0  0  0  0  0  0  0  0  0  0  0  0
   -9.5649    7.7279   -5.1966 H   0  0  0  0  0  0  0  0  0  0  0  0
  -10.0134    5.9885   -5.1966 H   0  0  0  0  0  0  0  0  0  0  0  0
   -6.6337    6.5848   -6.7945 H   0  0  0  0  0  0  0  0  0  0  0  0
   -7.9989    5.4333   -6.9870 H   0  0  0  0  0  0  0  0  0  0  0  0
   -8.3094    7.2025   -6.9870 H   0  0  0  0  0  0  0  0  0  0  0  0
   -7.9412    4.8621   -3.4561 H   0  0  0  0  0  0  0  0  0  0  0  0
   -8.0326    4.2072   -5.1429 H   0  0  0  0  0  0  0  0  0  0  0  0
   -5.7070    5.5660   -4.4130 H   0  0  0  0  0  0  0  0  0  0  0  0
  1  2  1  0
  2  3  1  0
  3  4  1  0
  4  5  1  0
  5  6  1  0
  6  7  2  0
  7  8  1  0
  8  9  1  0
  9 10  2  0
 10 11  1  0
 11 12  1  0
 11 13  2  0
 13 14  1  0
 14 15  1  0
 15 16  1  0
 16 17  1  0
 17 18  2  0
 18 19  1  0
 19 20  1  0
 15 21  2  0
 21 22  1  0
 22 23  2  0
  7 24  1  0
 24 25  1  0
  3 26  1  0
 26 27  1  0
 26 28  1  0
 26 29  1  0
 29 30  1  0
 25  5  2  0
 23  9  1  0
 23 14  1  0
 20 16  2  0
  1 31  1  0
  1 32  1  0
  1 33  1  0
  2 34  1  0
  2 35  1  0
  3 36  1  1
  4 37  1  0
  4 38  1  0
  6 39  1  0
  8 40  1  0
 12 41  1  0
 12 42  1  0
 12 43  1  0
 13 44  1  0
 17 45  1  0
 19 46  1  0
 20 47  1  0
 21 48  1  0
 27 49  1  0
 27 50  1  0
 27 51  1  0
 28 52  1  0
 28 53  1  0
 28 54  1  0
 29 55  1  0
 29 56  1  0
 30 57  1  0
M  CHG  1   3   1
M  END
>  <meeko>  (2) 
{"is_sidechain": [false], "free_energy": -7.761, "intermolecular_energy": -11.483, "internal_energy": -1.197}

$$$$
3myg_ligand
     RDKit          3D

 57 60  0  0  0  0  0  0  0  0999 V2000
   -5.7420    7.8000   -7.6190 C   0  0  0  0  0  0  0  0  0  0  0  0
   -5.7390    6.2880   -7.4600 C   0  0  0  0  0  0  0  0  0  0  0  0
   -5.5400    5.8920   -6.0130 N   0  0  2  0  0  0  0  0  0  0  0  0
   -4.1090    5.3650   -5.7730 C   0  0  0  0  0  0  0  0  0  0  0  0
   -3.1700    6.4840   -5.4100 C   0  0  0  0  0  0  0  0  0  0  0  0
   -3.4020    7.5070   -4.4390 C   0  0  0  0  0  0  0  0  0  0  0  0
   -2.3310    8.3820   -4.3540 C   0  0  0  0  0  0  0  0  0  0  0  0
   -2.2430    9.4560   -3.5300 N   0  0  0  0  0  0  0  0  0  0  0  0
   -1.4650    9.6760   -2.4030 C   0  0  0  0  0  0  0  0  0  0  0  0
   -1.8020    9.2740   -1.2000 N   0  0  0  0  0  0  0  0  0  0  0  0
   -0.9630    9.5370   -0.1260 C   0  0  0  0  0  0  0  0  0  0  0  0
   -1.4480    9.0310    1.2040 C   0  0  0  0  0  0  0  0  0  0  0  0
    0.2060   10.1970   -0.2430 C   0  0  0  0  0  0  0  0  0  0  0  0
    0.5980   10.6390   -1.4930 N   0  0  0  0  0  0  0  0  0  0  0  0
    1.6900   11.3250   -1.9780 C   0  0  0  0  0  0  0  0  0  0  0  0
    2.9380   11.8730   -1.2390 C   0  0  0  0  0  0  0  0  0  0  0  0
    4.1280   12.3610   -1.8230 C   0  0  0  0  0  0  0  0  0  0  0  0
    5.0170   12.7620   -0.9120 N   0  0  0  0  0  0  0  0  0  0  0  0
    4.3990   12.5310    0.2550 N   0  0  0  0  0  0  0  0  0  0  0  0
    3.1470   11.9960    0.1120 C   0  0  0  0  0  0  0  0  0  0  0  0
    1.4560   11.4430   -3.3380 C   0  0  0  0  0  0  0  0  0  0  0  0
    0.2680   10.8610   -3.7060 N   0  0  0  0  0  0  0  0  0  0  0  0
   -0.2100   10.3940   -2.5720 C   0  0  0  0  0  0  0  0  0  0  0  0
   -1.1490    7.8450   -5.4850 S   0  0  0  0  0  0  0  0  0  0  0  0
   -2.0000    6.5390   -6.0510 N   0  0  0  0  0  0  0  0  0  0  0  0
   -6.6790    5.0420   -5.3850 C   0  0  0  0  0  0  0  0  0  0  0  0
   -7.4540    5.8930   -4.3580 C   0  0  0  0  0  0  0  0  0  0  0  0
   -7.6790    4.6690   -6.4990 C   0  0  0  0  0  0  0  0  0  0  0  0
   -6.1100    3.7530   -4.7280 C   0  0  0  0  0  0  0  0  0  0  0  0
   -6.7070    3.5050   -3.4570 O   0  0  0  0  0  0  0  0  0  0  0  0
   -5.7429    8.2731   -6.6259 H   0  0  0  0  0  0  0  0  0  0  0  0
   -4.8445    8.1122   -8.1730 H   0  0  0  0  0  0  0  0  0  0  0  0
   -6.6408    8.1086   -8.1730 H   0  0  0  0  0  0  0  0  0  0  0  0
   -6.7010    5.8879   -7.8128 H   0  0  0  0  0  0  0  0  0  0  0  0
   -4.9082    5.8764   -8.0520 H   0  0  0  0  0  0  0  0  0  0  0  0
   -5.5280    6.7720   -5.4650 H   0  0  0  0  0  0  0  0  0  0  0  0
   -4.1292    4.6332   -4.9520 H   0  0  0  0  0  0  0  0  0  0  0  0
   -3.7502    4.8969   -6.7015 H   0  0  0  0  0  0  0  0  0  0  0  0
   -4.3172    7.5894   -3.8343 H   0  0  0  0  0  0  0  0  0  0  0  0
   -2.8250   10.2700   -3.7280 H   0  0  0  0  0  0  0  0  0  0  0  0
   -0.9314    9.5699    2.0119 H   0  0  0  0  0  0  0  0  0  0  0  0
   -2.5321    9.1979    1.2866 H   0  0  0  0  0  0  0  0  0  0  0  0
   -1.2353    7.9549    1.2866 H   0  0  0  0  0  0  0  0  0  0  0  0
    0.8365   10.3807    0.6394 H   0  0  0  0  0  0  0  0  0  0  0  0
    4.3026   12.4056   -2.9081 H   0  0  0  0  0  0  0  0  0  0  0  0
    4.8910   12.7620    1.1130 H   0  0  0  0  0  0  0  0  0  0  0  0
    2.4497   11.7205    0.9169 H   0  0  0  0  0  0  0  0  0  0  0  0
    2.1400   11.9431   -4.0394 H   0  0  0  0  0  0  0  0  0  0  0  0
   -7.1733    5.5848   -3.3401 H   0  0  0  0  0  0  0  0  0  0  0  0
   -7.2066    6.9553   -4.5008 H   0  0  0  0  0  0  0  0  0  0  0  0
   -8.5347    5.7458   -4.5008 H   0  0  0  0  0  0  0  0  0  0  0  0
   -8.6183    4.3186   -6.0463 H   0  0  0  0  0  0  0  0  0  0  0  0
   -7.8797    5.5527   -7.1225 H   0  0  0  0  0  0  0  0  0  0  0  0
   -7.2520    3.8697   -7.1225 H   0  0  0  0  0  0  0  0  0  0  0  0
   -6.3096    2.8970   -5.3894 H   0  0  0  0  0  0  0  0  0  0  0  0
   -5.0288    3.8906   -4.5796 H   0  0  0  0  0  0  0  0  0  0  0  0
   -6.6840    4.3460   -2.9600 H   0  0  0  0  0  0  0  0  0  0  0  0
  1  2  1  0
  2  3  1  0
  3  4  1  0
  4  5  1  0
  5  6  1  0
  6  7  2  0
  7  8  1  0
  8  9  1  0
  9 10  2  0
 10 11  1  0
 11 12  1  0
 11 13  2  0
 13 14  1  0
 14 15  1  0
 15 16  1  0
 16 17  1  0
 17 18  2  0
 18 19  1  0
 19 20  1  0
 15 21  2  0
 21 22  1  0
 22 23  2  0
  7 24  1  0
 24 25  1  0
  3 26  1  0
 26 27  1  0
 26 28  1  0
 26 29  1  0
 29 30  1  0
 25  5  2  0
 23  9  1  0
 23 14  1  0
 20 16  2  0
  1 31  1  0
  1 32  1  0
  1 33  1  0
  2 34  1  0
  2 35  1  0
  3 36  1  1
  4 37  1  0
  4 38  1  0
  6 39  1  0
  8 40  1  0
 12 41  1  0
 12 42  1  0
 12 43  1  0
 13 44  1  0
 17 45  1  0
 19 46  1  0
 20 47  1  0
 21 48  1  0
 27 49  1  0
 27 50  1  0
 27 51  1  0
 28 52  1  0
 28 53  1  0
 28 54  1  0
 29 55  1  0
 29 56  1  0
 30 57  1  0
M  CHG  1   3   1
M  END
>  <meeko>  (3) 
{"is_sidechain": [false], "free_energy": -7.73, "intermolecular_energy": -11.621, "internal_energy": -1.012}

$$$$
3myg_ligand
     RDKit          3D

 57 60  0  0  0  0  0  0  0  0999 V2000
   -7.7360    9.8050   -3.5900 C   0  0  0  0  0  0  0  0  0  0  0  0
   -8.3060    8.4110   -3.7970 C   0  0  0  0  0  0  0  0  0  0  0  0
   -7.2870    7.4960   -4.4430 N   0  0  2  0  0  0  0  0  0  0  0  0
   -6.3290    8.2890   -5.3570 C   0  0  0  0  0  0  0  0  0  0  0  0
   -4.9070    8.1900   -4.8710 C   0  0  0  0  0  0  0  0  0  0  0  0
   -4.1410    9.2330   -4.2660 C   0  0  0  0  0  0  0  0  0  0  0  0
   -2.8650    8.8050   -3.9370 C   0  0  0  0  0  0  0  0  0  0  0  0
   -1.8990    9.5550   -3.3510 N   0  0  0  0  0  0  0  0  0  0  0  0
   -0.6370    9.9220   -3.7950 C   0  0  0  0  0  0  0  0  0  0  0  0
   -0.2320    9.7680   -5.0330 N   0  0  0  0  0  0  0  0  0  0  0  0
    1.0490   10.1640   -5.3940 C   0  0  0  0  0  0  0  0  0  0  0  0
    1.4050    9.9410   -6.8370 C   0  0  0  0  0  0  0  0  0  0  0  0
    1.9260   10.7100   -4.5280 C   0  0  0  0  0  0  0  0  0  0  0  0
    1.5390   10.8890   -3.2130 N   0  0  0  0  0  0  0  0  0  0  0  0
    2.1480   11.3970   -2.0870 C   0  0  0  0  0  0  0  0  0  0  0  0
    3.5700   11.9830   -1.8950 C   0  0  0  0  0  0  0  0  0  0  0  0
    4.4370   12.4640   -2.9000 C   0  0  0  0  0  0  0  0  0  0  0  0
    5.5970   12.9050   -2.4080 N   0  0  0  0  0  0  0  0  0  0  0  0
    5.4740   12.7070   -1.0870 N   0  0  0  0  0  0  0  0  0  0  0  0
    4.2740   12.1540   -0.7280 C   0  0  0  0  0  0  0  0  0  0  0  0
    1.1930   11.2840   -1.0890 C   0  0  0  0  0  0  0  0  0  0  0  0
    0.0280   10.7270   -1.5570 N   0  0  0  0  0  0  0  0  0  0  0  0
    0.2800   10.5080   -2.8290 C   0  0  0  0  0  0  0  0  0  0  0  0
   -2.7480    7.1550   -4.4130 S   0  0  0  0  0  0  0  0  0  0  0  0
   -4.2870    7.0160   -5.0160 N   0  0  0  0  0  0  0  0  0  0  0  0
   -7.8520    6.1810   -5.0490 C   0  0  0  0  0  0  0  0  0  0  0  0
   -9.3940    6.2090   -4.9980 C   0  0  0  0  0  0  0  0  0  0  0  0
   -7.4560    6.1210   -6.5380 C   0  0  0  0  0  0  0  0  0  0  0  0
   -7.2900    4.9400   -4.3000 C   0  0  0  0  0  0  0  0  0  0  0  0
   -5.9720    4.6170   -4.7380 O   0  0  0  0  0  0  0  0  0  0  0  0
   -7.6520   10.0105   -2.5126 H   0  0  0  0  0  0  0  0  0  0  0  0
   -6.7405    9.8667   -4.0538 H   0  0  0  0  0  0  0  0  0  0  0  0
   -8.4031   10.5465   -4.0538 H   0  0  0  0  0  0  0  0  0  0  0  0
   -8.5968    7.9933   -2.8218 H   0  0  0  0  0  0  0  0  0  0  0  0
   -9.1794    8.4857   -4.4615 H   0  0  0  0  0  0  0  0  0  0  0  0
   -6.6440    7.1900   -3.6890 H   0  0  0  0  0  0  0  0  0  0  0  0
   -6.3886    7.8831   -6.3776 H   0  0  0  0  0  0  0  0  0  0  0  0
   -6.6295    9.3471   -5.3426 H   0  0  0  0  0  0  0  0  0  0  0  0
   -4.5177   10.2503   -4.0838 H   0  0  0  0  0  0  0  0  0  0  0  0
   -2.0790    9.9420   -2.4240 H   0  0  0  0  0  0  0  0  0  0  0  0
    2.3357    9.3580   -6.8992 H   0  0  0  0  0  0  0  0  0  0  0  0
    0.5931    9.3897   -7.3340 H   0  0  0  0  0  0  0  0  0  0  0  0
    1.5467   10.9120   -7.3340 H   0  0  0  0  0  0  0  0  0  0  0  0
    2.9311   11.0076   -4.8616 H   0  0  0  0  0  0  0  0  0  0  0  0
    4.1845   12.4743   -3.9706 H   0  0  0  0  0  0  0  0  0  0  0  0
    6.2500   12.9710   -0.4870 H   0  0  0  0  0  0  0  0  0  0  0  0
    3.9412   11.8985    0.2888 H   0  0  0  0  0  0  0  0  0  0  0  0
    1.3492   11.6021   -0.0476 H   0  0  0  0  0  0  0  0  0  0  0  0
   -9.7261    6.2150   -3.9494 H   0  0  0  0  0  0  0  0  0  0  0  0
   -9.7612    7.1140   -5.5041 H   0  0  0  0  0  0  0  0  0  0  0  0
   -9.7938    5.3180   -5.5041 H   0  0  0  0  0  0  0  0  0  0  0  0
   -6.3716    5.9567   -6.6227 H   0  0  0  0  0  0  0  0  0  0  0  0
   -7.9915    5.2937   -7.0268 H   0  0  0  0  0  0  0  0  0  0  0  0
   -7.7224    7.0698   -7.0268 H   0  0  0  0  0  0  0  0  0  0  0  0
   -7.2656    5.1545   -3.2214 H   0  0  0  0  0  0  0  0  0  0  0  0
   -7.9445    4.0823   -4.5144 H   0  0  0  0  0  0  0  0  0  0  0  0
   -5.8630    5.0030   -5.6290 H   0  0  0  0  0  0  0  0  0  0  0  0
  1  2  1  0
  2  3  1  0
  3  4  1  0
  4  5  1  0
  5  6  1  0
  6  7  2  0
  7  8  1  0
  8  9  1  0
  9 10  2  0
 10 11  1  0
 11 12  1  0
 11 13  2  0
 13 14  1  0
 14 15  1  0
 15 16  1  0
 16 17  1  0
 17 18  2  0
 18 19  1  0
 19 20  1  0
 15 21  2  0
 21 22  1  0
 22 23  2  0
  7 24  1  0
 24 25  1  0
  3 26  1  0
 26 27  1  0
 26 28  1  0
 26 29  1  0
 29 30  1  0
 25  5  2  0
 23  9  1  0
 23 14  1  0
 20 16  2  0
  1 31  1  0
  1 32  1  0
  1 33  1  0
  2 34  1  0
  2 35  1  0
  3 36  1  1
  4 37  1  0
  4 38  1  0
  6 39  1  0
  8 40  1  0
 12 41  1  0
 12 42  1  0
 12 43  1  0
 13 44  1  0
 17 45  1  0
 19 46  1  0
 20 47  1  0
 21 48  1  0
 27 49  1  0
 27 50  1  0
 27 51  1  0
 28 52  1  0
 28 53  1  0
 28 54  1  0
 29 55  1  0
 29 56  1  0
 30 57  1  0
M  CHG  1   3   1
M  END
>  <meeko>  (4) 
{"is_sidechain": [false], "free_energy": -7.717, "intermolecular_energy": -11.575, "internal_energy": -1.039}

$$$$
3myg_ligand
     RDKit          3D

 57 60  0  0  0  0  0  0  0  0999 V2000
   -7.8660    4.8880   -8.1120 C   0  0  0  0  0  0  0  0  0  0  0  0
   -8.2190    6.1940   -7.4180 C   0  0  0  0  0  0  0  0  0  0  0  0
   -7.2310    6.5100   -6.3150 N   0  0  2  0  0  0  0  0  0  0  0  0
   -5.9450    5.6690   -6.4650 C   0  0  0  0  0  0  0  0  0  0  0  0
   -4.7170    6.5060   -6.2240 C   0  0  0  0  0  0  0  0  0  0  0  0
   -3.6140    6.1760   -5.3770 C   0  0  0  0  0  0  0  0  0  0  0  0
   -2.6490    7.1700   -5.3830 C   0  0  0  0  0  0  0  0  0  0  0  0
   -1.4860    7.1570   -4.6840 N   0  0  0  0  0  0  0  0  0  0  0  0
   -1.0800    7.8910   -3.5800 C   0  0  0  0  0  0  0  0  0  0  0  0
   -1.6910    7.8540   -2.4200 N   0  0  0  0  0  0  0  0  0  0  0  0
   -1.2170    8.6230   -1.3660 C   0  0  0  0  0  0  0  0  0  0  0  0
   -1.9940    8.5020   -0.0850 C   0  0  0  0  0  0  0  0  0  0  0  0
   -0.1390    9.4260   -1.4630 C   0  0  0  0  0  0  0  0  0  0  0  0
    0.5340    9.4950   -2.6680 N   0  0  0  0  0  0  0  0  0  0  0  0
    1.6370   10.1840   -3.1210 C   0  0  0  0  0  0  0  0  0  0  0  0
    2.5650   11.1850   -2.3870 C   0  0  0  0  0  0  0  0  0  0  0  0
    3.8770   11.5590   -2.7550 C   0  0  0  0  0  0  0  0  0  0  0  0
    4.4110   12.4460   -1.9130 N   0  0  0  0  0  0  0  0  0  0  0  0
    3.4430   12.6410   -1.0040 N   0  0  0  0  0  0  0  0  0  0  0  0
    2.3150   11.9050   -1.2450 C   0  0  0  0  0  0  0  0  0  0  0  0
    1.7780    9.7930   -4.4430 C   0  0  0  0  0  0  0  0  0  0  0  0
    0.8080    8.8950   -4.8170 N   0  0  0  0  0  0  0  0  0  0  0  0
    0.0880    8.7470   -3.7260 C   0  0  0  0  0  0  0  0  0  0  0  0
   -3.2090    8.4100   -6.4370 S   0  0  0  0  0  0  0  0  0  0  0  0
   -4.6360    7.6790   -6.8590 N   0  0  0  0  0  0  0  0  0  0  0  0
   -7.8220    6.5760   -4.8800 C   0  0  0  0  0  0  0  0  0  0  0  0
   -9.3630    6.5890   -4.9550 C   0  0  0  0  0  0  0  0  0  0  0  0
   -7.4240    5.2880   -4.1290 C   0  0  0  0  0  0  0  0  0  0  0  0
   -7.2880    7.8210   -4.1180 C   0  0  0  0  0  0  0  0  0  0  0  0
   -6.9530    8.8790   -5.0140 O   0  0  0  0  0  0  0  0  0  0  0  0
   -7.6574    4.1161   -7.3566 H   0  0  0  0  0  0  0  0  0  0  0  0
   -8.7097    4.5672   -8.7407 H   0  0  0  0  0  0  0  0  0  0  0  0
   -6.9756    5.0359   -8.7407 H   0  0  0  0  0  0  0  0  0  0  0  0
   -8.2050    7.0087   -8.1570 H   0  0  0  0  0  0  0  0  0  0  0  0
   -9.2196    6.0932   -6.9723 H   0  0  0  0  0  0  0  0  0  0  0  0
   -6.8740    7.4650   -6.5030 H   0  0  0  0  0  0  0  0  0  0  0  0
   -5.9672    4.8459   -5.7356 H   0  0  0  0  0  0  0  0  0  0  0  0
   -5.9031    5.2759   -7.4915 H   0  0  0  0  0  0  0  0  0  0  0  0
   -3.5404    5.2471   -4.7924 H   0  0  0  0  0  0  0  0  0  0  0  0
   -0.7510    6.5130   -4.9770 H   0  0  0  0  0  0  0  0  0  0  0  0
   -1.3102    8.6085    0.7700 H   0  0  0  0  0  0  0  0  0  0  0  0
   -2.7584    9.2919   -0.0438 H   0  0  0  0  0  0  0  0  0  0  0  0
   -2.4820    7.5170   -0.0438 H   0  0  0  0  0  0  0  0  0  0  0  0
    0.1992   10.0160   -0.5984 H   0  0  0  0  0  0  0  0  0  0  0  0
    4.4003   11.1629   -3.6378 H   0  0  0  0  0  0  0  0  0  0  0  0
    3.6210   13.2910   -0.2450 H   0  0  0  0  0  0  0  0  0  0  0  0
    1.3934   11.8926   -0.6446 H   0  0  0  0  0  0  0  0  0  0  0  0
    2.5711   10.1578   -5.1123 H   0  0  0  0  0  0  0  0  0  0  0  0
   -9.7796    6.5925   -3.9370 H   0  0  0  0  0  0  0  0  0  0  0  0
   -9.6964    7.4900   -5.4908 H   0  0  0  0  0  0  0  0  0  0  0  0
   -9.7116    5.6938   -5.4908 H   0  0  0  0  0  0  0  0  0  0  0  0
   -7.4784    5.4642   -3.0446 H   0  0  0  0  0  0  0  0  0  0  0  0
   -8.1130    4.4757   -4.4036 H   0  0  0  0  0  0  0  0  0  0  0  0
   -6.3968    5.0060   -4.4036 H   0  0  0  0  0  0  0  0  0  0  0  0
   -8.0636    8.1740   -3.4224 H   0  0  0  0  0  0  0  0  0  0  0  0
   -6.3777    7.5283   -3.5743 H   0  0  0  0  0  0  0  0  0  0  0  0
   -6.9370    9.7040   -4.4900 H   0  0  0  0  0  0  0  0  0  0  0  0
  1  2  1  0
  2  3  1  0
  3  4  1  0
  4  5  1  0
  5  6  1  0
  6  7  2  0
  7  8  1  0
  8  9  1  0
  9 10  2  0
 10 11  1  0
 11 12  1  0
 11 13  2  0
 13 14  1  0
 14 15  1  0
 15 16  1  0
 16 17  1  0
 17 18  2  0
 18 19  1  0
 19 20  1  0
 15 21  2  0
 21 22  1  0
 22 23  2  0
  7 24  1  0
 24 25  1  0
  3 26  1  0
 26 27  1  0
 26 28  1  0
 26 29  1  0
 29 30  1  0
 25  5  2  0
 23  9  1  0
 23 14  1  0
 20 16  2  0
  1 31  1  0
  1 32  1  0
  1 33  1  0
  2 34  1  0
  2 35  1  0
  3 36  1  6
  4 37  1  0
  4 38  1  0
  6 39  1  0
  8 40  1  0
 12 41  1  0
 12 42  1  0
 12 43  1  0
 13 44  1  0
 17 45  1  0
 19 46  1  0
 20 47  1  0
 21 48  1  0
 27 49  1  0
 27 50  1  0
 27 51  1  0
 28 52  1  0
 28 53  1  0
 28 54  1  0
 29 55  1  0
 29 56  1  0
 30 57  1  0
M  CHG  1   3   1
M  END
>  <meeko>  (5) 
{"is_sidechain": [false], "free_energy": -7.219, "intermolecular_energy": -10.583, "internal_energy": -1.286}

$$$$
3myg_ligand
     RDKit          3D

 57 60  0  0  0  0  0  0  0  0999 V2000
   -8.9140    6.5350   -5.0200 C   0  0  0  0  0  0  0  0  0  0  0  0
   -7.7740    5.5560   -4.7870 C   0  0  0  0  0  0  0  0  0  0  0  0
   -6.5310    5.9770   -5.5420 N   0  0  2  0  0  0  0  0  0  0  0  0
   -6.6200    7.4560   -5.9770 C   0  0  0  0  0  0  0  0  0  0  0  0
   -5.4970    8.2650   -5.3850 C   0  0  0  0  0  0  0  0  0  0  0  0
   -4.1530    8.3340   -5.8650 C   0  0  0  0  0  0  0  0  0  0  0  0
   -3.3740    9.1740   -5.0850 C   0  0  0  0  0  0  0  0  0  0  0  0
   -2.0600    9.4500   -5.2780 N   0  0  0  0  0  0  0  0  0  0  0  0
   -0.9540    9.2170   -4.4740 C   0  0  0  0  0  0  0  0  0  0  0  0
   -0.7810    8.1160   -3.7810 N   0  0  0  0  0  0  0  0  0  0  0  0
    0.3570    7.9640   -3.0010 C   0  0  0  0  0  0  0  0  0  0  0  0
    0.4500    6.6650   -2.2510 C   0  0  0  0  0  0  0  0  0  0  0  0
    1.3210    8.9010   -2.9090 C   0  0  0  0  0  0  0  0  0  0  0  0
    1.1780   10.0760   -3.6220 N   0  0  0  0  0  0  0  0  0  0  0  0
    1.9340   11.2180   -3.7660 C   0  0  0  0  0  0  0  0  0  0  0  0
    3.2960   11.6050   -3.1350 C   0  0  0  0  0  0  0  0  0  0  0  0
    3.5130   12.4530   -2.0260 C   0  0  0  0  0  0  0  0  0  0  0  0
    4.8070   12.5840   -1.7280 N   0  0  0  0  0  0  0  0  0  0  0  0
    5.4210   11.8220   -2.6450 N   0  0  0  0  0  0  0  0  0  0  0  0
    4.5570   11.2120   -3.5140 C   0  0  0  0  0  0  0  0  0  0  0  0
    1.2080   12.0140   -4.6370 C   0  0  0  0  0  0  0  0  0  0  0  0
    0.0400   11.4090   -5.0310 N   0  0  0  0  0  0  0  0  0  0  0  0
    0.0640   10.2540   -4.4010 C   0  0  0  0  0  0  0  0  0  0  0  0
   -4.3890    9.7900   -3.8390 S   0  0  0  0  0  0  0  0  0  0  0  0
   -5.7700    8.9970   -4.3010 N   0  0  0  0  0  0  0  0  0  0  0  0
   -6.0410    4.9880   -6.6360 C   0  0  0  0  0  0  0  0  0  0  0  0
   -7.0090    3.7900   -6.7210 C   0  0  0  0  0  0  0  0  0  0  0  0
   -6.0970    5.7040   -8.0010 C   0  0  0  0  0  0  0  0  0  0  0  0
   -4.5900    4.5150   -6.3430 C   0  0  0  0  0  0  0  0  0  0  0  0
   -4.1130    5.0250   -5.1000 O   0  0  0  0  0  0  0  0  0  0  0  0
   -9.3094    6.8746   -4.0513 H   0  0  0  0  0  0  0  0  0  0  0  0
   -8.5435    7.4007   -5.5886 H   0  0  0  0  0  0  0  0  0  0  0  0
   -9.7138    6.0379   -5.5886 H   0  0  0  0  0  0  0  0  0  0  0  0
   -7.5460    5.5195   -3.7115 H   0  0  0  0  0  0  0  0  0  0  0  0
   -8.0846    4.5652   -5.1502 H   0  0  0  0  0  0  0  0  0  0  0  0
   -5.7620    6.0140   -4.8490 H   0  0  0  0  0  0  0  0  0  0  0  0
   -6.5629    7.5116   -7.0741 H   0  0  0  0  0  0  0  0  0  0  0  0
   -7.5742    7.8685   -5.6174 H   0  0  0  0  0  0  0  0  0  0  0  0
   -3.7823    7.7879   -6.7450 H   0  0  0  0  0  0  0  0  0  0  0  0
   -1.7820    9.9060   -6.1470 H   0  0  0  0  0  0  0  0  0  0  0  0
    0.4357    6.8643   -1.1693 H   0  0  0  0  0  0  0  0  0  0  0  0
   -0.4047    6.0258   -2.5174 H   0  0  0  0  0  0  0  0  0  0  0  0
    1.3870    6.1541   -2.5174 H   0  0  0  0  0  0  0  0  0  0  0  0
    2.2060    8.7335   -2.2776 H   0  0  0  0  0  0  0  0  0  0  0  0
    2.7047   12.9502   -1.4698 H   0  0  0  0  0  0  0  0  0  0  0  0
    6.4340   11.7630   -2.6200 H   0  0  0  0  0  0  0  0  0  0  0  0
    4.8190   10.5429   -4.3468 H   0  0  0  0  0  0  0  0  0  0  0  0
    1.5288   13.0112   -4.9727 H   0  0  0  0  0  0  0  0  0  0  0  0
   -7.2750    3.4608   -5.7057 H   0  0  0  0  0  0  0  0  0  0  0  0
   -7.9197    4.0919   -7.2590 H   0  0  0  0  0  0  0  0  0  0  0  0
   -6.5225    2.9630   -7.2590 H   0  0  0  0  0  0  0  0  0  0  0  0
   -6.1819    6.7892   -7.8426 H   0  0  0  0  0  0  0  0  0  0  0  0
   -5.1791    5.4867   -8.5669 H   0  0  0  0  0  0  0  0  0  0  0  0
   -6.9699    5.3467   -8.5669 H   0  0  0  0  0  0  0  0  0  0  0  0
   -4.5730    3.4157   -6.3080 H   0  0  0  0  0  0  0  0  0  0  0  0
   -3.9367    4.8925   -7.1434 H   0  0  0  0  0  0  0  0  0  0  0  0
   -4.8310    5.5660   -4.7180 H   0  0  0  0  0  0  0  0  0  0  0  0
  1  2  1  0
  2  3  1  0
  3  4  1  0
  4  5  1  0
  5  6  1  0
  6  7  2  0
  7  8  1  0
  8  9  1  0
  9 10  2  0
 10 11  1  0
 11 12  1  0
 11 13  2  0
 13 14  1  0
 14 15  1  0
 15 16  1  0
 16 17  1  0
 17 18  2  0
 18 19  1  0
 19 20  1  0
 15 21  2  0
 21 22  1  0
 22 23  2  0
  7 24  1  0
 24 25  1  0
  3 26  1  0
 26 27  1  0
 26 28  1  0
 26 29  1  0
 29 30  1  0
 25  5  2  0
 23  9  1  0
 23 14  1  0
 20 16  2  0
  1 31  1  0
  1 32  1  0
  1 33  1  0
  2 34  1  0
  2 35  1  0
  3 36  1  1
  4 37  1  0
  4 38  1  0
  6 39  1  0
  8 40  1  0
 12 41  1  0
 12 42  1  0
 12 43  1  0
 13 44  1  0
 17 45  1  0
 19 46  1  0
 20 47  1  0
 21 48  1  0
 27 49  1  0
 27 50  1  0
 27 51  1  0
 28 52  1  0
 28 53  1  0
 28 54  1  0
 29 55  1  0
 29 56  1  0
 30 57  1  0
M  CHG  1   3   1
M  END
>  <meeko>  (6) 
{"is_sidechain": [false], "free_energy": -7.119, "intermolecular_energy": -10.514, "internal_energy": -1.205}

$$$$
3myg_ligand
     RDKit          3D

 57 60  0  0  0  0  0  0  0  0999 V2000
   -7.9360    8.1430   -4.5230 C   0  0  0  0  0  0  0  0  0  0  0  0
   -7.0510    7.1450   -3.7930 C   0  0  0  0  0  0  0  0  0  0  0  0
   -6.1420    6.4140   -4.7590 N   0  0  2  0  0  0  0  0  0  0  0  0
   -5.7490    7.3190   -5.9450 C   0  0  0  0  0  0  0  0  0  0  0  0
   -4.3120    7.1040   -6.3400 C   0  0  0  0  0  0  0  0  0  0  0  0
   -3.1650    7.2760   -5.5050 C   0  0  0  0  0  0  0  0  0  0  0  0
   -1.9910    6.9940   -6.1850 C   0  0  0  0  0  0  0  0  0  0  0  0
   -0.7370    7.0630   -5.6730 N   0  0  0  0  0  0  0  0  0  0  0  0
    0.0920    8.1500   -5.4400 C   0  0  0  0  0  0  0  0  0  0  0  0
    0.7370    8.7850   -6.3900 N   0  0  0  0  0  0  0  0  0  0  0  0
    1.5480    9.8650   -6.0690 C   0  0  0  0  0  0  0  0  0  0  0  0
    2.2370   10.5170   -7.2340 C   0  0  0  0  0  0  0  0  0  0  0  0
    1.7190   10.3140   -4.8090 C   0  0  0  0  0  0  0  0  0  0  0  0
    1.0580    9.6720   -3.7790 N   0  0  0  0  0  0  0  0  0  0  0  0
    0.9960    9.8450   -2.4140 C   0  0  0  0  0  0  0  0  0  0  0  0
    1.6910   10.8890   -1.5030 C   0  0  0  0  0  0  0  0  0  0  0  0
    1.2680   11.3250   -0.2280 C   0  0  0  0  0  0  0  0  0  0  0  0
    2.0880   12.2360    0.3000 N   0  0  0  0  0  0  0  0  0  0  0  0
    3.0370   12.3860   -0.6360 N   0  0  0  0  0  0  0  0  0  0  0  0
    2.8430   11.5990   -1.7390 C   0  0  0  0  0  0  0  0  0  0  0  0
    0.1390    8.8500   -1.9710 C   0  0  0  0  0  0  0  0  0  0  0  0
   -0.3240    8.0760   -3.0060 N   0  0  0  0  0  0  0  0  0  0  0  0
    0.2510    8.6030   -4.0660 C   0  0  0  0  0  0  0  0  0  0  0  0
   -2.4310    6.5470   -7.7880 S   0  0  0  0  0  0  0  0  0  0  0  0
   -4.0700    6.7150   -7.5950 N   0  0  0  0  0  0  0  0  0  0  0  0
   -6.5830    4.9720   -5.1360 C   0  0  0  0  0  0  0  0  0  0  0  0
   -7.3670    5.0020   -6.4640 C   0  0  0  0  0  0  0  0  0  0  0  0
   -5.3170    4.1260   -5.3850 C   0  0  0  0  0  0  0  0  0  0  0  0
   -7.4310    4.3370   -3.9990 C   0  0  0  0  0  0  0  0  0  0  0  0
   -6.6600    3.4320   -3.2130 O   0  0  0  0  0  0  0  0  0  0  0  0
   -8.4797    8.7562   -3.7893 H   0  0  0  0  0  0  0  0  0  0  0  0
   -7.3123    8.7933   -5.1539 H   0  0  0  0  0  0  0  0  0  0  0  0
   -8.6562    7.6015   -5.1539 H   0  0  0  0  0  0  0  0  0  0  0  0
   -6.4351    7.6823   -3.0567 H   0  0  0  0  0  0  0  0  0  0  0  0
   -7.6954    6.4069   -3.2929 H   0  0  0  0  0  0  0  0  0  0  0  0
   -5.2310    6.2990   -4.2780 H   0  0  0  0  0  0  0  0  0  0  0  0
   -6.3960    7.0865   -6.8037 H   0  0  0  0  0  0  0  0  0  0  0  0
   -5.8733    8.3683   -5.6391 H   0  0  0  0  0  0  0  0  0  0  0  0
   -3.2087    7.5931   -4.4526 H   0  0  0  0  0  0  0  0  0  0  0  0
   -0.2790    6.1960   -5.3920 H   0  0  0  0  0  0  0  0  0  0  0  0
    2.9893   11.2289   -6.8635 H   0  0  0  0  0  0  0  0  0  0  0  0
    2.7304    9.7474   -7.8457 H   0  0  0  0  0  0  0  0  0  0  0  0
    1.4958   11.0521   -7.8457 H   0  0  0  0  0  0  0  0  0  0  0  0
    2.3723   11.1751   -4.6048 H   0  0  0  0  0  0  0  0  0  0  0  0
    0.3624   10.9545    0.2745 H   0  0  0  0  0  0  0  0  0  0  0  0
    3.7890   13.0440   -0.4570 H   0  0  0  0  0  0  0  0  0  0  0  0
    3.4808   11.5458   -2.6337 H   0  0  0  0  0  0  0  0  0  0  0  0
   -0.1370    8.6987   -0.9170 H   0  0  0  0  0  0  0  0  0  0  0  0
   -8.4456    5.0433   -6.2522 H   0  0  0  0  0  0  0  0  0  0  0  0
   -7.0729    5.8895   -7.0435 H   0  0  0  0  0  0  0  0  0  0  0  0
   -7.1416    4.0946   -7.0435 H   0  0  0  0  0  0  0  0  0  0  0  0
   -4.8770    3.8320   -4.4207 H   0  0  0  0  0  0  0  0  0  0  0  0
   -5.5847    3.2247   -5.9559 H   0  0  0  0  0  0  0  0  0  0  0  0
   -4.5867    4.7182   -5.9559 H   0  0  0  0  0  0  0  0  0  0  0  0
   -7.8136    5.1378   -3.3491 H   0  0  0  0  0  0  0  0  0  0  0  0
   -8.2578    3.7756   -4.4586 H   0  0  0  0  0  0  0  0  0  0  0  0
   -5.8510    3.9070   -2.9390 H   0  0  0  0  0  0  0  0  0  0  0  0
  1  2  1  0
  2  3  1  0
  3  4  1  0
  4  5  1  0
  5  6  1  0
  6  7  2  0
  7  8  1  0
  8  9  1  0
  9 10  2  0
 10 11  1  0
 11 12  1  0
 11 13  2  0
 13 14  1  0
 14 15  1  0
 15 16  1  0
 16 17  1  0
 17 18  2  0
 18 19  1  0
 19 20  1  0
 15 21  2  0
 21 22  1  0
 22 23  2  0
  7 24  1  0
 24 25  1  0
  3 26  1  0
 26 27  1  0
 26 28  1  0
 26 29  1  0
 29 30  1  0
 25  5  2  0
 23  9  1  0
 23 14  1  0
 20 16  2  0
  1 31  1  0
  1 32  1  0
  1 33  1  0
  2 34  1  0
  2 35  1  0
  3 36  1  1
  4 37  1  0
  4 38  1  0
  6 39  1  0
  8 40  1  0
 12 41  1  0
 12 42  1  0
 12 43  1  0
 13 44  1  0
 17 45  1  0
 19 46  1  0
 20 47  1  0
 21 48  1  0
 27 49  1  0
 27 50  1  0
 27 51  1  0
 28 52  1  0
 28 53  1  0
 28 54  1  0
 29 55  1  0
 29 56  1  0
 30 57  1  0
M  CHG  1   3   1
M  END
>  <meeko>  (7) 
{"is_sidechain": [false], "free_energy": -7.094, "intermolecular_energy": -10.788, "internal_energy": -0.893}

$$$$
3myg_ligand
     RDKit          3D

 57 60  0  0  0  0  0  0  0  0999 V2000
   -7.0300    4.5090   -4.2140 C   0  0  0  0  0  0  0  0  0  0  0  0
   -7.0860    4.6350   -5.7280 C   0  0  0  0  0  0  0  0  0  0  0  0
   -5.8120    5.2450   -6.2720 N   0  0  2  0  0  0  0  0  0  0  0  0
   -5.8230    6.7810   -6.1190 C   0  0  0  0  0  0  0  0  0  0  0  0
   -4.6700    7.2510   -5.2720 C   0  0  0  0  0  0  0  0  0  0  0  0
   -4.5650    8.5070   -4.6000 C   0  0  0  0  0  0  0  0  0  0  0  0
   -3.3700    8.6180   -3.9070 C   0  0  0  0  0  0  0  0  0  0  0  0
   -2.9710    9.6850   -3.1710 N   0  0  0  0  0  0  0  0  0  0  0  0
   -1.9810    9.8070   -2.2070 C   0  0  0  0  0  0  0  0  0  0  0  0
   -2.1370    9.4380   -0.9580 N   0  0  0  0  0  0  0  0  0  0  0  0
   -1.0920    9.5950   -0.0580 C   0  0  0  0  0  0  0  0  0  0  0  0
   -1.3820    9.1380    1.3450 C   0  0  0  0  0  0  0  0  0  0  0  0
    0.1030   10.1170   -0.3950 C   0  0  0  0  0  0  0  0  0  0  0  0
    0.3100   10.5190   -1.7010 N   0  0  0  0  0  0  0  0  0  0  0  0
    1.3660   11.0770   -2.3860 C   0  0  0  0  0  0  0  0  0  0  0  0
    2.7820   11.4730   -1.8940 C   0  0  0  0  0  0  0  0  0  0  0  0
    3.1080   12.1940   -0.7240 C   0  0  0  0  0  0  0  0  0  0  0  0
    4.4230   12.3720   -0.5830 N   0  0  0  0  0  0  0  0  0  0  0  0
    4.9410   11.7670   -1.6620 N   0  0  0  0  0  0  0  0  0  0  0  0
    3.9960   11.2120   -2.4810 C   0  0  0  0  0  0  0  0  0  0  0  0
    0.9040   11.2310   -3.6830 C   0  0  0  0  0  0  0  0  0  0  0  0
   -0.3900   10.7930   -3.8200 N   0  0  0  0  0  0  0  0  0  0  0  0
   -0.7040   10.3760   -2.6120 C   0  0  0  0  0  0  0  0  0  0  0  0
   -2.5020    7.1530   -4.1620 S   0  0  0  0  0  0  0  0  0  0  0  0
   -3.6340    6.4200   -5.1270 N   0  0  0  0  0  0  0  0  0  0  0  0
   -5.3520    4.7150   -7.6590 C   0  0  0  0  0  0  0  0  0  0  0  0
   -6.4640    3.8400   -8.2730 C   0  0  0  0  0  0  0  0  0  0  0  0
   -5.1630    5.9210   -8.6020 C   0  0  0  0  0  0  0  0  0  0  0  0
   -4.0200    3.9240   -7.5350 C   0  0  0  0  0  0  0  0  0  0  0  0
   -3.5980    3.8190   -6.1770 O   0  0  0  0  0  0  0  0  0  0  0  0
   -7.4360    5.4224   -3.7548 H   0  0  0  0  0  0  0  0  0  0  0  0
   -7.6275    3.6419   -3.8959 H   0  0  0  0  0  0  0  0  0  0  0  0
   -5.9860    4.3715   -3.8959 H   0  0  0  0  0  0  0  0  0  0  0  0
   -7.2215    3.6355   -6.1668 H   0  0  0  0  0  0  0  0  0  0  0  0
   -7.9282    5.2912   -5.9929 H   0  0  0  0  0  0  0  0  0  0  0  0
   -5.0540    4.9790   -5.6180 H   0  0  0  0  0  0  0  0  0  0  0  0
   -5.7479    7.2416   -7.1151 H   0  0  0  0  0  0  0  0  0  0  0  0
   -6.7610    7.0757   -5.6258 H   0  0  0  0  0  0  0  0  0  0  0  0
   -5.3374    9.2897   -4.6290 H   0  0  0  0  0  0  0  0  0  0  0  0
   -3.4460   10.5770   -3.3120 H   0  0  0  0  0  0  0  0  0  0  0  0
   -0.9343    9.8435    2.0604 H   0  0  0  0  0  0  0  0  0  0  0  0
   -2.4703    9.0993    1.5005 H   0  0  0  0  0  0  0  0  0  0  0  0
   -0.9536    8.1369    1.5005 H   0  0  0  0  0  0  0  0  0  0  0  0
    0.9000   10.2215    0.3559 H   0  0  0  0  0  0  0  0  0  0  0  0
    2.3607   12.5674   -0.0083 H   0  0  0  0  0  0  0  0  0  0  0  0
    5.9500   11.7720   -1.7770 H   0  0  0  0  0  0  0  0  0  0  0  0
    4.1728   10.6669   -3.4199 H   0  0  0  0  0  0  0  0  0  0  0  0
    1.5019   11.6533   -4.5041 H   0  0  0  0  0  0  0  0  0  0  0  0
   -7.0528    3.3767   -7.4676 H   0  0  0  0  0  0  0  0  0  0  0  0
   -7.1215    4.4655   -8.8946 H   0  0  0  0  0  0  0  0  0  0  0  0
   -6.0107    3.0538   -8.8946 H   0  0  0  0  0  0  0  0  0  0  0  0
   -5.0199    6.8340   -8.0054 H   0  0  0  0  0  0  0  0  0  0  0  0
   -4.2798    5.7554   -9.2365 H   0  0  0  0  0  0  0  0  0  0  0  0
   -6.0545    6.0335   -9.2365 H   0  0  0  0  0  0  0  0  0  0  0  0
   -4.1656    2.9129   -7.9431 H   0  0  0  0  0  0  0  0  0  0  0  0
   -3.2441    4.4653   -8.0962 H   0  0  0  0  0  0  0  0  0  0  0  0
   -2.6290    3.9450   -6.1670 H   0  0  0  0  0  0  0  0  0  0  0  0
  1  2  1  0
  2  3  1  0
  3  4  1  0
  4  5  1  0
  5  6  1  0
  6  7  2  0
  7  8  1  0
  8  9  1  0
  9 10  2  0
 10 11  1  0
 11 12  1  0
 11 13  2  0
 13 14  1  0
 14 15  1  0
 15 16  1  0
 16 17  1  0
 17 18  2  0
 18 19  1  0
 19 20  1  0
 15 21  2  0
 21 22  1  0
 22 23  2  0
  7 24  1  0
 24 25  1  0
  3 26  1  0
 26 27  1  0
 26 28  1  0
 26 29  1  0
 29 30  1  0
 25  5  2  0
 23  9  1  0
 23 14  1  0
 20 16  2  0
  1 31  1  0
  1 32  1  0
  1 33  1  0
  2 34  1  0
  2 35  1  0
  3 36  1  1
  4 37  1  0
  4 38  1  0
  6 39  1  0
  8 40  1  0
 12 41  1  0
 12 42  1  0
 12 43  1  0
 13 44  1  0
 17 45  1  0
 19 46  1  0
 20 47  1  0
 21 48  1  0
 27 49  1  0
 27 50  1  0
 27 51  1  0
 28 52  1  0
 28 53  1  0
 28 54  1  0
 29 55  1  0
 29 56  1  0
 30 57  1  0
M  CHG  1   3   1
M  END
>  <meeko>  (8) 
{"is_sidechain": [false], "free_energy": -6.935, "intermolecular_energy": -10.232, "internal_energy": -1.212}

$$$$
3myg_ligand
     RDKit          3D

 57 60  0  0  0  0  0  0  0  0999 V2000
    1.8430    5.6340   -8.9690 C   0  0  0  0  0  0  0  0  0  0  0  0
    2.1290    6.5300  -10.1640 C   0  0  0  0  0  0  0  0  0  0  0  0
    2.0460    7.9920   -9.7810 N   0  0  2  0  0  0  0  0  0  0  0  0
    0.6470    8.5680  -10.0900 C   0  0  0  0  0  0  0  0  0  0  0  0
   -0.1460    8.7750   -8.8270 C   0  0  0  0  0  0  0  0  0  0  0  0
   -0.1070    9.9230   -7.9760 C   0  0  0  0  0  0  0  0  0  0  0  0
   -0.9640    9.7870   -6.8950 C   0  0  0  0  0  0  0  0  0  0  0  0
   -1.1540   10.7000   -5.9100 N   0  0  0  0  0  0  0  0  0  0  0  0
   -0.6900   10.7380   -4.6040 C   0  0  0  0  0  0  0  0  0  0  0  0
   -1.3990   10.3450   -3.5720 N   0  0  0  0  0  0  0  0  0  0  0  0
   -0.8570   10.4170   -2.2960 C   0  0  0  0  0  0  0  0  0  0  0  0
   -1.7570    9.9410   -1.1900 C   0  0  0  0  0  0  0  0  0  0  0  0
    0.3840   10.8780   -2.0440 C   0  0  0  0  0  0  0  0  0  0  0  0
    1.1640   11.3030   -3.1030 N   0  0  0  0  0  0  0  0  0  0  0  0
    2.4360   11.8170   -3.2220 C   0  0  0  0  0  0  0  0  0  0  0  0
    3.5020   12.1170   -2.1370 C   0  0  0  0  0  0  0  0  0  0  0  0
    3.2740   12.3720   -0.7660 C   0  0  0  0  0  0  0  0  0  0  0  0
    4.4050   12.5940   -0.0930 N   0  0  0  0  0  0  0  0  0  0  0  0
    5.3580   12.4820   -1.0300 N   0  0  0  0  0  0  0  0  0  0  0  0
    4.8650   12.1960   -2.2750 C   0  0  0  0  0  0  0  0  0  0  0  0
    2.6030   12.0320   -4.5800 C   0  0  0  0  0  0  0  0  0  0  0  0
    1.4880   11.6730   -5.2970 N   0  0  0  0  0  0  0  0  0  0  0  0
    0.6550   11.2430   -4.3740 C   0  0  0  0  0  0  0  0  0  0  0  0
   -1.7280    8.2520   -7.0470 S   0  0  0  0  0  0  0  0  0  0  0  0
   -0.9740    7.7960   -8.4520 N   0  0  0  0  0  0  0  0  0  0  0  0
    3.2450    8.8740  -10.2290 C   0  0  0  0  0  0  0  0  0  0  0  0
    4.1970    8.0420  -11.1120 C   0  0  0  0  0  0  0  0  0  0  0  0
    2.7040   10.0190  -11.1110 C   0  0  0  0  0  0  0  0  0  0  0  0
    3.9910    9.4600   -8.9980 C   0  0  0  0  0  0  0  0  0  0  0  0
    5.1020    8.6480   -8.6230 O   0  0  0  0  0  0  0  0  0  0  0  0
    2.0219    6.1943   -8.0395 H   0  0  0  0  0  0  0  0  0  0  0  0
    0.7945    5.3029   -9.0016 H   0  0  0  0  0  0  0  0  0  0  0  0
    2.5058    4.7567   -9.0016 H   0  0  0  0  0  0  0  0  0  0  0  0
    3.1395    6.3142  -10.5411 H   0  0  0  0  0  0  0  0  0  0  0  0
    1.3757    6.3287  -10.9399 H   0  0  0  0  0  0  0  0  0  0  0  0
    2.0580    8.0280   -8.7460 H   0  0  0  0  0  0  0  0  0  0  0  0
    0.7618    9.5336  -10.6043 H   0  0  0  0  0  0  0  0  0  0  0  0
    0.1077    7.8518  -10.7273 H   0  0  0  0  0  0  0  0  0  0  0  0
    0.5249   10.8051   -8.1566 H   0  0  0  0  0  0  0  0  0  0  0  0
   -1.7270   11.5190   -6.1110 H   0  0  0  0  0  0  0  0  0  0  0  0
   -1.3020   10.1816   -0.2178 H   0  0  0  0  0  0  0  0  0  0  0  0
   -2.7337   10.4405   -1.2714 H   0  0  0  0  0  0  0  0  0  0  0  0
   -1.8939    8.8526   -1.2714 H   0  0  0  0  0  0  0  0  0  0  0  0
    0.7692   10.9154   -1.0143 H   0  0  0  0  0  0  0  0  0  0  0  0
    2.2755   12.3860   -0.3047 H   0  0  0  0  0  0  0  0  0  0  0  0
    6.3250   12.6130   -0.7500 H   0  0  0  0  0  0  0  0  0  0  0  0
    5.4447   12.0575   -3.1995 H   0  0  0  0  0  0  0  0  0  0  0  0
    3.5192   12.4414   -5.0305 H   0  0  0  0  0  0  0  0  0  0  0  0
    4.8705    7.4534  -10.4717 H   0  0  0  0  0  0  0  0  0  0  0  0
    3.6088    7.3633  -11.7471 H   0  0  0  0  0  0  0  0  0  0  0  0
    4.7908    8.7158  -11.7471 H   0  0  0  0  0  0  0  0  0  0  0  0
    2.3223   10.8270  -10.4695 H   0  0  0  0  0  0  0  0  0  0  0  0
    3.5141   10.4068  -11.7461 H   0  0  0  0  0  0  0  0  0  0  0  0
    1.8900    9.6394  -11.7461 H   0  0  0  0  0  0  0  0  0  0  0  0
    4.3534   10.4683   -9.2468 H   0  0  0  0  0  0  0  0  0  0  0  0
    3.2878    9.4932   -8.1528 H   0  0  0  0  0  0  0  0  0  0  0  0
    5.3750    8.9300   -7.7290 H   0  0  0  0  0  0  0  0  0  0  0  0
  1  2  1  0
  2  3  1  0
  3  4  1  0
  4  5  1  0
  5  6  1  0
  6  7  2  0
  7  8  1  0
  8  9  1  0
  9 10  2  0
 10 11  1  0
 11 12  1  0
 11 13  2  0
 13 14  1  0
 14 15  1  0
 15 16  1  0
 16 17  1  0
 17 18  2  0
 18 19  1  0
 19 20  1  0
 15 21  2  0
 21 22  1  0
 22 23  2  0
  7 24  1  0
 24 25  1  0
  3 26  1  0
 26 27  1  0
 26 28  1  0
 26 29  1  0
 29 30  1  0
 25  5  2  0
 23  9  1  0
 23 14  1  0
 20 16  2  0
  1 31  1  0
  1 32  1  0
  1 33  1  0
  2 34  1  0
  2 35  1  0
  3 36  1  1
  4 37  1  0
  4 38  1  0
  6 39  1  0
  8 40  1  0
 12 41  1  0
 12 42  1  0
 12 43  1  0
 13 44  1  0
 17 45  1  0
 19 46  1  0
 20 47  1  0
 21 48  1  0
 27 49  1  0
 27 50  1  0
 27 51  1  0
 28 52  1  0
 28 53  1  0
 28 54  1  0
 29 55  1  0
 29 56  1  0
 30 57  1  0
M  CHG  1   3   1
M  END
>  <meeko>  (9) 
{"is_sidechain": [false], "free_energy": -6.815, "intermolecular_energy": -10.178, "internal_energy": -1.086}

$$$$
