4kz6_ligand
     RDKit          3D

 31 31  0  0  0  0  0  0  0  0999 V2000
   -4.8540   -8.3080   15.1990 C   0  0  0  0  0  0  0  0  0  0  0  0
   -5.8870   -8.1450   14.0840 C   0  0  2  0  0  0  0  0  0  0  0  0
   -7.1040   -9.0610   14.2320 C   0  0  0  0  0  0  0  0  0  0  0  0
   -6.8070  -10.5360   13.9960 C   0  0  0  0  0  0  0  0  0  0  0  0
   -5.5740  -10.7830   13.1350 C   0  0  0  0  0  0  0  0  0  0  0  0
   -5.2800   -9.6560   12.1330 C   0  0  2  0  0  0  0  0  0  0  0  0
   -3.9530  -10.1440   11.4700 C   0  0  0  0  0  0  0  0  0  0  0  0
   -4.0210  -10.4830   10.2540 O   0  0  0  0  0  0  0  0  0  0  0  0
   -2.9570  -10.1700   12.2530 O   0  0  0  0  0  0  0  0  0  0  0  0
   -5.2810   -8.2910   12.7550 N   0  0  0  0  0  0  0  0  0  0  0  0
   -4.9290   -7.1260   12.0670 C   0  0  0  0  0  0  0  0  0  0  0  0
   -3.8950   -7.0580   11.3940 O   0  0  0  0  0  0  0  0  0  0  0  0
   -5.8440   -5.9200   12.2050 C   0  0  0  0  0  0  0  0  0  0  0  0
   -5.5590   -4.8090   11.1990 C   0  0  0  0  0  0  0  0  0  0  0  0
   -4.3780   -3.5560   11.8060 S   0  0  0  0  0  0  0  0  0  0  0  0
   -5.3534   -8.2292   16.1759 H   0  0  0  0  0  0  0  0  0  0  0  0
   -4.3726   -9.2932   15.1117 H   0  0  0  0  0  0  0  0  0  0  0  0
   -4.0926   -7.5189   15.1117 H   0  0  0  0  0  0  0  0  0  0  0  0
   -6.2622   -7.1159   14.1854 H   0  0  0  0  0  0  0  0  0  0  0  0
   -7.4992   -8.9475   15.2523 H   0  0  0  0  0  0  0  0  0  0  0  0
   -7.8252   -8.7560   13.4595 H   0  0  0  0  0  0  0  0  0  0  0  0
   -6.6515  -11.0193   14.9718 H   0  0  0  0  0  0  0  0  0  0  0  0
   -7.6673  -10.9540   13.4526 H   0  0  0  0  0  0  0  0  0  0  0  0
   -4.7038  -10.8921   13.7990 H   0  0  0  0  0  0  0  0  0  0  0  0
   -5.7717  -11.6909   12.5463 H   0  0  0  0  0  0  0  0  0  0  0  0
   -6.0585   -9.4950   11.3728 H   0  0  0  0  0  0  0  0  0  0  0  0
   -6.8823   -6.2554   12.0656 H   0  0  0  0  0  0  0  0  0  0  0  0
   -5.6670   -5.4979   13.2053 H   0  0  0  0  0  0  0  0  0  0  0  0
   -5.1448   -5.2638   10.2871 H   0  0  0  0  0  0  0  0  0  0  0  0
   -6.5113   -4.2906   11.0136 H   0  0  0  0  0  0  0  0  0  0  0  0
   -3.9970   -3.1120   10.5980 H   0  0  0  0  0  0  0  0  0  0  0  0
  1  2  1  0
  2  3  1  0
  3  4  1  0
  4  5  1  0
  5  6  1  0
  6  7  1  0
  7  8  2  0
  7  9  1  0
  6 10  1  0
 10 11  1  0
 11 12  2  0
 11 13  1  0
 13 14  1  0
 14 15  1  0
 10  2  1  0
  1 16  1  0
  1 17  1  0
  1 18  1  0
  2 19  1  6
  3 20  1  0
  3 21  1  0
  4 22  1  0
  4 23  1  0
  5 24  1  0
  5 25  1  0
  6 26  1  6
 13 27  1  0
 13 28  1  0
 14 29  1  0
 14 30  1  0
 15 31  1  0
M  CHG  1   9  -1
M  END
>  <meeko>  (1) 
{"is_sidechain": [false], "free_energy": -5.08, "intermolecular_energy": -6.416, "internal_energy": -0.273}

$$$$
4kz6_ligand
     RDKit          3D

 31 31  0  0  0  0  0  0  0  0999 V2000
    7.0800   -6.2750    6.7060 C   0  0  0  0  0  0  0  0  0  0  0  0
    6.4590   -5.4560    5.5740 C   0  0  2  0  0  0  0  0  0  0  0  0
    7.4380   -5.1170    4.4490 C   0  0  0  0  0  0  0  0  0  0  0  0
    8.5120   -4.1110    4.8390 C   0  0  0  0  0  0  0  0  0  0  0  0
    8.1200   -3.2200    6.0120 C   0  0  0  0  0  0  0  0  0  0  0  0
    6.6080   -2.9820    6.1330 C   0  0  2  0  0  0  0  0  0  0  0  0
    6.5130   -2.1230    7.4350 C   0  0  0  0  0  0  0  0  0  0  0  0
    7.2100   -2.5070    8.4160 O   0  0  0  0  0  0  0  0  0  0  0  0
    5.7110   -1.1450    7.3570 O   0  0  0  0  0  0  0  0  0  0  0  0
    5.8000   -4.2450    6.0770 N   0  0  0  0  0  0  0  0  0  0  0  0
    4.4180   -4.2900    6.2800 C   0  0  0  0  0  0  0  0  0  0  0  0
    3.6280   -3.7800    5.4780 O   0  0  0  0  0  0  0  0  0  0  0  0
    3.9110   -4.9550    7.5490 C   0  0  0  0  0  0  0  0  0  0  0  0
    2.7160   -5.8790    7.3290 C   0  0  0  0  0  0  0  0  0  0  0  0
    1.1070   -5.0190    7.3800 S   0  0  0  0  0  0  0  0  0  0  0  0
    6.7650   -5.8596    7.6746 H   0  0  0  0  0  0  0  0  0  0  0  0
    6.7452   -7.3200    6.6289 H   0  0  0  0  0  0  0  0  0  0  0  0
    8.1766   -6.2347    6.6289 H   0  0  0  0  0  0  0  0  0  0  0  0
    5.6946   -6.1102    5.1293 H   0  0  0  0  0  0  0  0  0  0  0  0
    7.9343   -6.0460    4.1319 H   0  0  0  0  0  0  0  0  0  0  0  0
    6.8476   -4.6536    3.6449 H   0  0  0  0  0  0  0  0  0  0  0  0
    9.4229   -4.6638    5.1121 H   0  0  0  0  0  0  0  0  0  0  0  0
    8.6652   -3.4519    3.9718 H   0  0  0  0  0  0  0  0  0  0  0  0
    8.4715   -3.6944    6.9401 H   0  0  0  0  0  0  0  0  0  0  0  0
    8.5852   -2.2386    5.8375 H   0  0  0  0  0  0  0  0  0  0  0  0
    6.1515   -2.4525    5.2838 H   0  0  0  0  0  0  0  0  0  0  0  0
    4.7313   -5.5469    7.9812 H   0  0  0  0  0  0  0  0  0  0  0  0
    3.5727   -4.1498    8.2178 H   0  0  0  0  0  0  0  0  0  0  0  0
    2.8233   -6.3576    6.3444 H   0  0  0  0  0  0  0  0  0  0  0  0
    2.7174   -6.6090    8.1519 H   0  0  0  0  0  0  0  0  0  0  0  0
    0.4290   -6.0080    7.9830 H   0  0  0  0  0  0  0  0  0  0  0  0
  1  2  1  0
  2  3  1  0
  3  4  1  0
  4  5  1  0
  5  6  1  0
  6  7  1  0
  7  8  2  0
  7  9  1  0
  6 10  1  0
 10 11  1  0
 11 12  2  0
 11 13  1  0
 13 14  1  0
 14 15  1  0
 10  2  1  0
  1 16  1  0
  1 17  1  0
  1 18  1  0
  2 19  1  6
  3 20  1  0
  3 21  1  0
  4 22  1  0
  4 23  1  0
  5 24  1  0
  5 25  1  0
  6 26  1  6
 13 27  1  0
 13 28  1  0
 14 29  1  0
 14 30  1  0
 15 31  1  0
M  CHG  1   9  -1
M  END
>  <meeko>  (2) 
{"is_sidechain": [false], "free_energy": -5.002, "intermolecular_energy": -6.265, "internal_energy": -0.327}

$$$$
4kz6_ligand
     RDKit          3D

 31 31  0  0  0  0  0  0  0  0999 V2000
   -5.5580   -7.0850   16.3510 C   0  0  0  0  0  0  0  0  0  0  0  0
   -6.5900   -6.9380   15.2310 C   0  0  2  0  0  0  0  0  0  0  0  0
   -7.9900   -7.4200   15.6160 C   0  0  0  0  0  0  0  0  0  0  0  0
   -8.1070   -8.9290   15.7800 C   0  0  0  0  0  0  0  0  0  0  0  0
   -7.0460   -9.7130   15.0160 C   0  0  0  0  0  0  0  0  0  0  0  0
   -6.5390   -9.0020   13.7520 C   0  0  2  0  0  0  0  0  0  0  0  0
   -5.4370   -9.9850   13.2430 C   0  0  0  0  0  0  0  0  0  0  0  0
   -5.6710  -10.5810   12.1540 O   0  0  0  0  0  0  0  0  0  0  0  0
   -4.4360  -10.0900   14.0130 O   0  0  0  0  0  0  0  0  0  0  0  0
   -6.1380   -7.5770   13.9890 N   0  0  0  0  0  0  0  0  0  0  0  0
   -5.5430   -6.7670   13.0180 C   0  0  0  0  0  0  0  0  0  0  0  0
   -4.4230   -7.0190   12.5620 O   0  0  0  0  0  0  0  0  0  0  0  0
   -6.3050   -5.5330   12.5640 C   0  0  0  0  0  0  0  0  0  0  0  0
   -5.6880   -4.8340   11.3550 C   0  0  0  0  0  0  0  0  0  0  0  0
   -4.4290   -3.5870   11.7950 S   0  0  0  0  0  0  0  0  0  0  0  0
   -6.0623   -7.0132   17.3260 H   0  0  0  0  0  0  0  0  0  0  0  0
   -5.0616   -8.0629   16.2661 H   0  0  0  0  0  0  0  0  0  0  0  0
   -4.8082   -6.2846   16.2661 H   0  0  0  0  0  0  0  0  0  0  0  0
   -6.6760   -5.8556   15.0550 H   0  0  0  0  0  0  0  0  0  0  0  0
   -8.2678   -6.9468   16.5694 H   0  0  0  0  0  0  0  0  0  0  0  0
   -8.6596   -7.1389   14.7898 H   0  0  0  0  0  0  0  0  0  0  0  0
   -8.0142   -9.1703   16.8492 H   0  0  0  0  0  0  0  0  0  0  0  0
   -9.0832   -9.2224   15.3665 H   0  0  0  0  0  0  0  0  0  0  0  0
   -6.1900   -9.8815   15.6859 H   0  0  0  0  0  0  0  0  0  0  0  0
   -7.5159  -10.6521   14.6884 H   0  0  0  0  0  0  0  0  0  0  0  0
   -7.3006   -8.8343   12.9762 H   0  0  0  0  0  0  0  0  0  0  0  0
   -7.3299   -5.8355   12.3032 H   0  0  0  0  0  0  0  0  0  0  0  0
   -6.2751   -4.8152   13.3970 H   0  0  0  0  0  0  0  0  0  0  0  0
   -5.2153   -5.5953   10.7170 H   0  0  0  0  0  0  0  0  0  0  0  0
   -6.5017   -4.3027   10.8397 H   0  0  0  0  0  0  0  0  0  0  0  0
   -5.2780   -2.5520   11.9050 H   0  0  0  0  0  0  0  0  0  0  0  0
  1  2  1  0
  2  3  1  0
  3  4  1  0
  4  5  1  0
  5  6  1  0
  6  7  1  0
  7  8  2  0
  7  9  1  0
  6 10  1  0
 10 11  1  0
 11 12  2  0
 11 13  1  0
 13 14  1  0
 14 15  1  0
 10  2  1  0
  1 16  1  0
  1 17  1  0
  1 18  1  0
  2 19  1  6
  3 20  1  0
  3 21  1  0
  4 22  1  0
  4 23  1  0
  5 24  1  0
  5 25  1  0
  6 26  1  6
 13 27  1  0
 13 28  1  0
 14 29  1  0
 14 30  1  0
 15 31  1  0
M  CHG  1   9  -1
M  END
>  <meeko>  (3) 
{"is_sidechain": [false], "free_energy": -4.976, "intermolecular_energy": -6.208, "internal_energy": -0.35}

$$$$
4kz6_ligand
     RDKit          3D

 31 31  0  0  0  0  0  0  0  0999 V2000
   -7.4750   -7.6920   13.2990 C   0  0  0  0  0  0  0  0  0  0  0  0
   -6.1390   -7.1410   13.7980 C   0  0  2  0  0  0  0  0  0  0  0  0
   -5.6230   -5.9490   12.9890 C   0  0  0  0  0  0  0  0  0  0  0  0
   -5.1640   -6.3020   11.5810 C   0  0  0  0  0  0  0  0  0  0  0  0
   -4.7650   -7.7640   11.4150 C   0  0  0  0  0  0  0  0  0  0  0  0
   -4.2320   -8.4120   12.7020 C   0  0  2  0  0  0  0  0  0  0  0  0
   -3.9870   -9.8870   12.2500 C   0  0  0  0  0  0  0  0  0  0  0  0
   -5.0140  -10.5890   12.0300 O   0  0  0  0  0  0  0  0  0  0  0  0
   -2.7650  -10.2160   12.1850 O   0  0  0  0  0  0  0  0  0  0  0  0
   -5.1180   -8.1920   13.8920 N   0  0  0  0  0  0  0  0  0  0  0  0
   -4.8990   -8.7790   15.1400 C   0  0  0  0  0  0  0  0  0  0  0  0
   -5.0540   -9.9920   15.3230 O   0  0  0  0  0  0  0  0  0  0  0  0
   -4.4980   -7.8680   16.2890 C   0  0  0  0  0  0  0  0  0  0  0  0
   -5.3240   -8.0700   17.5570 C   0  0  0  0  0  0  0  0  0  0  0  0
   -6.9950   -7.3400   17.4650 S   0  0  0  0  0  0  0  0  0  0  0  0
   -8.1083   -7.9532   14.1596 H   0  0  0  0  0  0  0  0  0  0  0  0
   -7.9814   -6.9293   12.6892 H   0  0  0  0  0  0  0  0  0  0  0  0
   -7.2965   -8.5899   12.6892 H   0  0  0  0  0  0  0  0  0  0  0  0
   -6.3421   -6.7607   14.8100 H   0  0  0  0  0  0  0  0  0  0  0  0
   -6.4322   -5.2079   12.9124 H   0  0  0  0  0  0  0  0  0  0  0  0
   -4.7411   -5.5636   13.5216 H   0  0  0  0  0  0  0  0  0  0  0  0
   -5.9861   -6.0850   10.8831 H   0  0  0  0  0  0  0  0  0  0  0  0
   -4.2677   -5.6987   11.3743 H   0  0  0  0  0  0  0  0  0  0  0  0
   -5.6484   -8.3289   11.0826 H   0  0  0  0  0  0  0  0  0  0  0  0
   -3.9467   -7.7910   10.6804 H   0  0  0  0  0  0  0  0  0  0  0  0
   -3.3070   -7.9668   13.0972 H   0  0  0  0  0  0  0  0  0  0  0  0
   -3.4418   -8.0589   16.5298 H   0  0  0  0  0  0  0  0  0  0  0  0
   -4.6753   -6.8353   15.9540 H   0  0  0  0  0  0  0  0  0  0  0  0
   -5.4259   -9.1503   17.7372 H   0  0  0  0  0  0  0  0  0  0  0  0
   -4.7928   -7.5580   18.3729 H   0  0  0  0  0  0  0  0  0  0  0  0
   -7.5220   -8.2770   16.6610 H   0  0  0  0  0  0  0  0  0  0  0  0
  1  2  1  0
  2  3  1  0
  3  4  1  0
  4  5  1  0
  5  6  1  0
  6  7  1  0
  7  8  2  0
  7  9  1  0
  6 10  1  0
 10 11  1  0
 11 12  2  0
 11 13  1  0
 13 14  1  0
 14 15  1  0
 10  2  1  0
  1 16  1  0
  1 17  1  0
  1 18  1  0
  2 19  1  1
  3 20  1  0
  3 21  1  0
  4 22  1  0
  4 23  1  0
  5 24  1  0
  5 25  1  0
  6 26  1  1
 13 27  1  0
 13 28  1  0
 14 29  1  0
 14 30  1  0
 15 31  1  0
M  CHG  1   9  -1
M  END
>  <meeko>  (4) 
{"is_sidechain": [false], "free_energy": -4.955, "intermolecular_energy": -6.053, "internal_energy": -0.479}

$$$$
4kz6_ligand
     RDKit          3D

 31 31  0  0  0  0  0  0  0  0999 V2000
   -6.5480  -10.2280   14.2360 C   0  0  0  0  0  0  0  0  0  0  0  0
   -5.2010   -9.5040   14.2400 C   0  0  2  0  0  0  0  0  0  0  0  0
   -4.7400   -9.0670   15.6310 C   0  0  0  0  0  0  0  0  0  0  0  0
   -5.5600   -7.9350   16.2340 C   0  0  0  0  0  0  0  0  0  0  0  0
   -6.2800   -7.0810   15.1960 C   0  0  0  0  0  0  0  0  0  0  0  0
   -5.5670   -7.0230   13.8370 C   0  0  2  0  0  0  0  0  0  0  0  0
   -6.5540   -6.1630   12.9840 C   0  0  0  0  0  0  0  0  0  0  0  0
   -6.0520   -5.2010   12.3380 O   0  0  0  0  0  0  0  0  0  0  0  0
   -7.7660   -6.5240   13.0700 O   0  0  0  0  0  0  0  0  0  0  0  0
   -5.1880   -8.3730   13.3050 N   0  0  0  0  0  0  0  0  0  0  0  0
   -4.6350   -8.5790   12.0380 C   0  0  0  0  0  0  0  0  0  0  0  0
   -5.2940   -9.0660   11.1130 O   0  0  0  0  0  0  0  0  0  0  0  0
   -3.1710   -8.2200   11.8410 C   0  0  0  0  0  0  0  0  0  0  0  0
   -2.6140   -8.6160   10.4760 C   0  0  0  0  0  0  0  0  0  0  0  0
   -2.4760   -7.2190    9.3090 S   0  0  0  0  0  0  0  0  0  0  0  0
   -6.8734  -10.4029   15.2721 H   0  0  0  0  0  0  0  0  0  0  0  0
   -7.2950   -9.6098   13.7165 H   0  0  0  0  0  0  0  0  0  0  0  0
   -6.4446  -11.1921   13.7165 H   0  0  0  0  0  0  0  0  0  0  0  0
   -4.4706  -10.2504   13.8945 H   0  0  0  0  0  0  0  0  0  0  0  0
   -4.8034   -9.9350   16.3038 H   0  0  0  0  0  0  0  0  0  0  0  0
   -3.7134   -8.6882   15.5189 H   0  0  0  0  0  0  0  0  0  0  0  0
   -6.3124   -8.3714   16.9074 H   0  0  0  0  0  0  0  0  0  0  0  0
   -4.8571   -7.2745   16.7629 H   0  0  0  0  0  0  0  0  0  0  0  0
   -7.2863   -7.4977   15.0420 H   0  0  0  0  0  0  0  0  0  0  0  0
   -6.3047   -6.0537   15.5884 H   0  0  0  0  0  0  0  0  0  0  0  0
   -4.5676   -6.5637   13.8557 H   0  0  0  0  0  0  0  0  0  0  0  0
   -3.0630   -7.1314   11.9563 H   0  0  0  0  0  0  0  0  0  0  0  0
   -2.6005   -8.7837   12.5938 H   0  0  0  0  0  0  0  0  0  0  0  0
   -1.6128   -9.0480   10.6211 H   0  0  0  0  0  0  0  0  0  0  0  0
   -3.3205   -9.3351   10.0358 H   0  0  0  0  0  0  0  0  0  0  0  0
   -1.6100   -7.8110    8.4700 H   0  0  0  0  0  0  0  0  0  0  0  0
  1  2  1  0
  2  3  1  0
  3  4  1  0
  4  5  1  0
  5  6  1  0
  6  7  1  0
  7  8  2  0
  7  9  1  0
  6 10  1  0
 10 11  1  0
 11 12  2  0
 11 13  1  0
 13 14  1  0
 14 15  1  0
 10  2  1  0
  1 16  1  0
  1 17  1  0
  1 18  1  0
  2 19  1  6
  3 20  1  0
  3 21  1  0
  4 22  1  0
  4 23  1  0
  5 24  1  0
  5 25  1  0
  6 26  1  1
 13 27  1  0
 13 28  1  0
 14 29  1  0
 14 30  1  0
 15 31  1  0
M  CHG  1   9  -1
M  END
>  <meeko>  (5) 
{"is_sidechain": [false], "free_energy": -4.92, "intermolecular_energy": -6.009, "internal_energy": -0.478}

$$$$
4kz6_ligand
     RDKit          3D

 31 31  0  0  0  0  0  0  0  0999 V2000
   -2.5110   -7.9910   12.1260 C   0  0  0  0  0  0  0  0  0  0  0  0
   -3.9200   -8.1530   11.5540 C   0  0  2  0  0  0  0  0  0  0  0  0
   -3.9550   -8.2840   10.0310 C   0  0  0  0  0  0  0  0  0  0  0  0
   -3.5980   -7.0050    9.2860 C   0  0  0  0  0  0  0  0  0  0  0  0
   -3.8240   -5.7380   10.1020 C   0  0  0  0  0  0  0  0  0  0  0  0
   -4.9410   -5.8630   11.1480 C   0  0  2  0  0  0  0  0  0  0  0  0
   -4.8850   -4.4720   11.8580 C   0  0  0  0  0  0  0  0  0  0  0  0
   -5.9310   -4.1040   12.4630 O   0  0  0  0  0  0  0  0  0  0  0  0
   -3.7860   -3.8570   11.7120 O   0  0  0  0  0  0  0  0  0  0  0  0
   -4.8170   -7.0840   12.0090 N   0  0  0  0  0  0  0  0  0  0  0  0
   -5.6500   -7.3510   13.1000 C   0  0  0  0  0  0  0  0  0  0  0  0
   -5.3770   -6.9520   14.2370 O   0  0  0  0  0  0  0  0  0  0  0  0
   -6.8930   -8.1900   12.8500 C   0  0  0  0  0  0  0  0  0  0  0  0
   -7.0540   -9.3600   13.8170 C   0  0  0  0  0  0  0  0  0  0  0  0
   -5.9350  -10.7590   13.4650 S   0  0  0  0  0  0  0  0  0  0  0  0
   -2.5585   -7.9965   13.2250 H   0  0  0  0  0  0  0  0  0  0  0  0
   -1.8779   -8.8223   11.7822 H   0  0  0  0  0  0  0  0  0  0  0  0
   -2.0831   -7.0377   11.7822 H   0  0  0  0  0  0  0  0  0  0  0  0
   -4.2873   -9.1100   11.9529 H   0  0  0  0  0  0  0  0  0  0  0  0
   -3.2403   -9.0662    9.7356 H   0  0  0  0  0  0  0  0  0  0  0  0
   -4.9921   -8.5293    9.7587 H   0  0  0  0  0  0  0  0  0  0  0  0
   -2.5357   -7.0520    9.0044 H   0  0  0  0  0  0  0  0  0  0  0  0
   -4.2617   -6.9466    8.4107 H   0  0  0  0  0  0  0  0  0  0  0  0
   -2.8876   -5.4900   10.6232 H   0  0  0  0  0  0  0  0  0  0  0  0
   -4.1343   -4.9541    9.3954 H   0  0  0  0  0  0  0  0  0  0  0  0
   -5.9439   -6.0492   10.7362 H   0  0  0  0  0  0  0  0  0  0  0  0
   -7.7748   -7.5392   12.9439 H   0  0  0  0  0  0  0  0  0  0  0  0
   -6.7908   -8.6199   11.8427 H   0  0  0  0  0  0  0  0  0  0  0  0
   -6.8500   -8.9995   14.8360 H   0  0  0  0  0  0  0  0  0  0  0  0
   -8.0825   -9.7332   13.7031 H   0  0  0  0  0  0  0  0  0  0  0  0
   -4.8720  -10.2670   14.1200 H   0  0  0  0  0  0  0  0  0  0  0  0
  1  2  1  0
  2  3  1  0
  3  4  1  0
  4  5  1  0
  5  6  1  0
  6  7  1  0
  7  8  2  0
  7  9  1  0
  6 10  1  0
 10 11  1  0
 11 12  2  0
 11 13  1  0
 13 14  1  0
 14 15  1  0
 10  2  1  0
  1 16  1  0
  1 17  1  0
  1 18  1  0
  2 19  1  1
  3 20  1  0
  3 21  1  0
  4 22  1  0
  4 23  1  0
  5 24  1  0
  5 25  1  0
  6 26  1  6
 13 27  1  0
 13 28  1  0
 14 29  1  0
 14 30  1  0
 15 31  1  0
M  CHG  1   9  -1
M  END
>  <meeko>  (6) 
{"is_sidechain": [false], "free_energy": -4.893, "intermolecular_energy": -5.997, "internal_energy": -0.456}

$$$$
4kz6_ligand
     RDKit          3D

 31 31  0  0  0  0  0  0  0  0999 V2000
   -5.3870   -8.8550   15.4660 C   0  0  0  0  0  0  0  0  0  0  0  0
   -6.4980   -8.8960   14.4160 C   0  0  2  0  0  0  0  0  0  0  0  0
   -6.9660  -10.3100   14.0680 C   0  0  0  0  0  0  0  0  0  0  0  0
   -5.9460  -11.1320   13.2920 C   0  0  0  0  0  0  0  0  0  0  0  0
   -4.9340  -10.2880   12.5260 C   0  0  0  0  0  0  0  0  0  0  0  0
   -5.4720   -8.9160   12.0920 C   0  0  2  0  0  0  0  0  0  0  0  0
   -4.2190   -8.2700   11.4180 C   0  0  0  0  0  0  0  0  0  0  0  0
   -3.1520   -8.2700   12.0940 O   0  0  0  0  0  0  0  0  0  0  0  0
   -4.4360   -7.7890   10.2660 O   0  0  0  0  0  0  0  0  0  0  0  0
   -6.1290   -8.1540   13.2040 N   0  0  0  0  0  0  0  0  0  0  0  0
   -6.5900   -6.8410   13.0770 C   0  0  0  0  0  0  0  0  0  0  0  0
   -7.7950   -6.5830   12.9860 O   0  0  0  0  0  0  0  0  0  0  0  0
   -5.5530   -5.7310   13.0130 C   0  0  0  0  0  0  0  0  0  0  0  0
   -5.6840   -4.8320   11.7860 C   0  0  0  0  0  0  0  0  0  0  0  0
   -4.0830   -4.2360   11.1420 S   0  0  0  0  0  0  0  0  0  0  0  0
   -5.8322   -8.8714   16.4717 H   0  0  0  0  0  0  0  0  0  0  0  0
   -4.7317   -9.7296   15.3408 H   0  0  0  0  0  0  0  0  0  0  0  0
   -4.7979   -7.9345   15.3408 H   0  0  0  0  0  0  0  0  0  0  0  0
   -7.3574   -8.3942   14.8847 H   0  0  0  0  0  0  0  0  0  0  0  0
   -7.1936  -10.8385   15.0055 H   0  0  0  0  0  0  0  0  0  0  0  0
   -7.8452  -10.2004   13.4162 H   0  0  0  0  0  0  0  0  0  0  0  0
   -5.3996  -11.7688   14.0033 H   0  0  0  0  0  0  0  0  0  0  0  0
   -6.5048  -11.7181   12.5476 H   0  0  0  0  0  0  0  0  0  0  0  0
   -4.0570  -10.1284   13.1706 H   0  0  0  0  0  0  0  0  0  0  0  0
   -4.6868  -10.8401   11.6073 H   0  0  0  0  0  0  0  0  0  0  0  0
   -6.3180   -8.9498   11.3897 H   0  0  0  0  0  0  0  0  0  0  0  0
   -5.6580   -5.1067   13.9126 H   0  0  0  0  0  0  0  0  0  0  0  0
   -4.5684   -6.2172   12.9489 H   0  0  0  0  0  0  0  0  0  0  0  0
   -6.1888   -5.4003   10.9909 H   0  0  0  0  0  0  0  0  0  0  0  0
   -6.2573   -3.9456   12.0954 H   0  0  0  0  0  0  0  0  0  0  0  0
   -3.3850   -5.3470   11.4270 H   0  0  0  0  0  0  0  0  0  0  0  0
  1  2  1  0
  2  3  1  0
  3  4  1  0
  4  5  1  0
  5  6  1  0
  6  7  1  0
  7  8  2  0
  7  9  1  0
  6 10  1  0
 10 11  1  0
 11 12  2  0
 11 13  1  0
 13 14  1  0
 14 15  1  0
 10  2  1  0
  1 16  1  0
  1 17  1  0
  1 18  1  0
  2 19  1  1
  3 20  1  0
  3 21  1  0
  4 22  1  0
  4 23  1  0
  5 24  1  0
  5 25  1  0
  6 26  1  6
 13 27  1  0
 13 28  1  0
 14 29  1  0
 14 30  1  0
 15 31  1  0
M  CHG  1   9  -1
M  END
>  <meeko>  (7) 
{"is_sidechain": [false], "free_energy": -4.845, "intermolecular_energy": -6.02, "internal_energy": -0.372}

$$$$
4kz6_ligand
     RDKit          3D

 31 31  0  0  0  0  0  0  0  0999 V2000
   -5.9580   -9.9980   15.0490 C   0  0  0  0  0  0  0  0  0  0  0  0
   -4.8620   -8.9340   14.9680 C   0  0  2  0  0  0  0  0  0  0  0  0
   -4.6290   -8.1870   16.2820 C   0  0  0  0  0  0  0  0  0  0  0  0
   -5.7650   -7.2540   16.6800 C   0  0  0  0  0  0  0  0  0  0  0  0
   -6.6210   -6.7960   15.5040 C   0  0  0  0  0  0  0  0  0  0  0  0
   -5.8640   -6.7400   14.1690 C   0  0  2  0  0  0  0  0  0  0  0  0
   -6.9910   -6.3250   13.1690 C   0  0  0  0  0  0  0  0  0  0  0  0
   -6.6700   -5.5020   12.2670 O   0  0  0  0  0  0  0  0  0  0  0  0
   -8.1190   -6.8520   13.4080 O   0  0  0  0  0  0  0  0  0  0  0  0
   -5.0980   -7.9940   13.8660 N   0  0  0  0  0  0  0  0  0  0  0  0
   -4.4280   -8.2190   12.6600 C   0  0  0  0  0  0  0  0  0  0  0  0
   -3.2990   -7.7630   12.4510 O   0  0  0  0  0  0  0  0  0  0  0  0
   -5.1520   -9.0180   11.5880 C   0  0  0  0  0  0  0  0  0  0  0  0
   -4.6860  -10.4670   11.4750 C   0  0  0  0  0  0  0  0  0  0  0  0
   -3.3650  -10.7160   10.2410 S   0  0  0  0  0  0  0  0  0  0  0  0
   -6.1813  -10.2148   16.1041 H   0  0  0  0  0  0  0  0  0  0  0  0
   -6.8660   -9.6278   14.5506 H   0  0  0  0  0  0  0  0  0  0  0  0
   -5.6148  -10.9166   14.5506 H   0  0  0  0  0  0  0  0  0  0  0  0
   -3.9346   -9.4884   14.7617 H   0  0  0  0  0  0  0  0  0  0  0  0
   -4.4964   -8.9299   17.0823 H   0  0  0  0  0  0  0  0  0  0  0  0
   -3.7397   -7.5567   16.1337 H   0  0  0  0  0  0  0  0  0  0  0  0
   -6.4123   -7.7806   17.3967 H   0  0  0  0  0  0  0  0  0  0  0  0
   -5.3053   -6.3536   17.1136 H   0  0  0  0  0  0  0  0  0  0  0  0
   -7.4634   -7.4950   15.3956 H   0  0  0  0  0  0  0  0  0  0  0  0
   -6.9499   -5.7706   15.7282 H   0  0  0  0  0  0  0  0  0  0  0  0
   -5.0313   -6.0219   14.1365 H   0  0  0  0  0  0  0  0  0  0  0  0
   -6.2268   -9.0173   11.8223 H   0  0  0  0  0  0  0  0  0  0  0  0
   -4.9289   -8.5352   10.6251 H   0  0  0  0  0  0  0  0  0  0  0  0
   -4.3094  -10.7887   12.4572 H   0  0  0  0  0  0  0  0  0  0  0  0
   -5.5519  -11.0593   11.1442 H   0  0  0  0  0  0  0  0  0  0  0  0
   -4.0620  -10.2710    9.1840 H   0  0  0  0  0  0  0  0  0  0  0  0
  1  2  1  0
  2  3  1  0
  3  4  1  0
  4  5  1  0
  5  6  1  0
  6  7  1  0
  7  8  2  0
  7  9  1  0
  6 10  1  0
 10 11  1  0
 11 12  2  0
 11 13  1  0
 13 14  1  0
 14 15  1  0
 10  2  1  0
  1 16  1  0
  1 17  1  0
  1 18  1  0
  2 19  1  6
  3 20  1  0
  3 21  1  0
  4 22  1  0
  4 23  1  0
  5 24  1  0
  5 25  1  0
  6 26  1  1
 13 27  1  0
 13 28  1  0
 14 29  1  0
 14 30  1  0
 15 31  1  0
M  CHG  1   9  -1
M  END
>  <meeko>  (8) 
{"is_sidechain": [false], "free_energy": -4.82, "intermolecular_energy": -5.875, "internal_energy": -0.486}

$$$$
4kz6_ligand
     RDKit          3D

 31 31  0  0  0  0  0  0  0  0999 V2000
    7.6320   -6.6000    6.5470 C   0  0  0  0  0  0  0  0  0  0  0  0
    7.3100   -5.4700    5.5680 C   0  0  2  0  0  0  0  0  0  0  0  0
    7.6020   -5.8180    4.1070 C   0  0  0  0  0  0  0  0  0  0  0  0
    9.0850   -5.9330    3.7780 C   0  0  0  0  0  0  0  0  0  0  0  0
    9.9860   -5.1610    4.7340 C   0  0  0  0  0  0  0  0  0  0  0  0
    9.3170   -3.9270    5.3590 C   0  0  2  0  0  0  0  0  0  0  0  0
   10.4290   -3.4040    6.3240 C   0  0  0  0  0  0  0  0  0  0  0  0
   11.0990   -2.4090    5.9260 O   0  0  0  0  0  0  0  0  0  0  0  0
   10.5460   -4.0710    7.3940 O   0  0  0  0  0  0  0  0  0  0  0  0
    7.9690   -4.2150    5.9490 N   0  0  0  0  0  0  0  0  0  0  0  0
    7.2230   -3.2790    6.6700 C   0  0  0  0  0  0  0  0  0  0  0  0
    7.3810   -3.1200    7.8850 O   0  0  0  0  0  0  0  0  0  0  0  0
    6.1710   -2.4820    5.9150 C   0  0  0  0  0  0  0  0  0  0  0  0
    4.7920   -2.5020    6.5670 C   0  0  0  0  0  0  0  0  0  0  0  0
    3.8580   -4.0400    6.2550 S   0  0  0  0  0  0  0  0  0  0  0  0
    7.5273   -6.2325    7.5785 H   0  0  0  0  0  0  0  0  0  0  0  0
    6.9364   -7.4363    6.3833 H   0  0  0  0  0  0  0  0  0  0  0  0
    8.6639   -6.9440    6.3833 H   0  0  0  0  0  0  0  0  0  0  0  0
    6.2216   -5.3275    5.6387 H   0  0  0  0  0  0  0  0  0  0  0  0
    7.1222   -6.7812    3.8790 H   0  0  0  0  0  0  0  0  0  0  0  0
    7.2061   -4.9909    3.4993 H   0  0  0  0  0  0  0  0  0  0  0  0
    9.3678   -6.9954    3.8158 H   0  0  0  0  0  0  0  0  0  0  0  0
    9.2274   -5.4962    2.7785 H   0  0  0  0  0  0  0  0  0  0  0  0
   10.2911   -5.8381    5.5455 H   0  0  0  0  0  0  0  0  0  0  0  0
   10.8404   -4.7972    4.1444 H   0  0  0  0  0  0  0  0  0  0  0  0
    9.0233   -3.1449    4.6434 H   0  0  0  0  0  0  0  0  0  0  0  0
    6.5084   -1.4370    5.8512 H   0  0  0  0  0  0  0  0  0  0  0  0
    6.0630   -2.9530    4.9268 H   0  0  0  0  0  0  0  0  0  0  0  0
    4.9193   -2.3868    7.6535 H   0  0  0  0  0  0  0  0  0  0  0  0
    4.2137   -1.6779    6.1239 H   0  0  0  0  0  0  0  0  0  0  0  0
    4.3720   -4.2820    5.0390 H   0  0  0  0  0  0  0  0  0  0  0  0
  1  2  1  0
  2  3  1  0
  3  4  1  0
  4  5  1  0
  5  6  1  0
  6  7  1  0
  7  8  2  0
  7  9  1  0
  6 10  1  0
 10 11  1  0
 11 12  2  0
 11 13  1  0
 13 14  1  0
 14 15  1  0
 10  2  1  0
  1 16  1  0
  1 17  1  0
  1 18  1  0
  2 19  1  6
  3 20  1  0
  3 21  1  0
  4 22  1  0
  4 23  1  0
  5 24  1  0
  5 25  1  0
  6 26  1  6
 13 27  1  0
 13 28  1  0
 14 29  1  0
 14 30  1  0
 15 31  1  0
M  CHG  1   9  -1
M  END
>  <meeko>  (9) 
{"is_sidechain": [false], "free_energy": -4.761, "intermolecular_energy": -5.764, "internal_energy": -0.522}

$$$$
