3jya_ligand
     RDKit          3D

 20 22  0  0  0  0  0  0  0  0999 V2000
    7.6350   -8.8930    5.2530 O   0  0  0  0  0  0  0  0  0  0  0  0
    6.8560   -8.7940    4.3110 C   0  0  0  0  0  0  0  0  0  0  0  0
    5.4960   -8.8430    4.5130 N   0  0  0  0  0  0  0  0  0  0  0  0
    4.5910   -8.7360    3.4860 C   0  0  0  0  0  0  0  0  0  0  0  0
    4.8740   -8.5800    2.2340 N   0  0  0  0  0  0  0  0  0  0  0  0
    6.2510   -8.5200    1.9430 C   0  0  0  0  0  0  0  0  0  0  0  0
    7.1920   -8.6220    2.9280 C   0  0  0  0  0  0  0  0  0  0  0  0
    8.7630   -8.5220    2.3380 S   0  0  0  0  0  0  0  0  0  0  0  0
    8.2120   -8.3350    0.7010 C   0  0  0  0  0  0  0  0  0  0  0  0
    9.0060   -8.1810   -0.4620 C   0  0  0  0  0  0  0  0  0  0  0  0
   10.7310   -8.1580   -0.3910 Cl  0  0  0  0  0  0  0  0  0  0  0  0
    8.3950   -8.0420   -1.7110 C   0  0  0  0  0  0  0  0  0  0  0  0
    7.0150   -8.0540   -1.8180 C   0  0  0  0  0  0  0  0  0  0  0  0
    6.2360   -8.2070   -0.6700 C   0  0  0  0  0  0  0  0  0  0  0  0
    4.5280   -8.2210   -0.8110 Cl  0  0  0  0  0  0  0  0  0  0  0  0
    6.8010   -8.3520    0.6260 C   0  0  0  0  0  0  0  0  0  0  0  0
    5.1920   -8.9630    5.4670 H   0  0  0  0  0  0  0  0  0  0  0  0
    3.5253   -8.7879    3.7534 H   0  0  0  0  0  0  0  0  0  0  0  0
    9.0133   -7.9225   -2.6129 H   0  0  0  0  0  0  0  0  0  0  0  0
    6.5352   -7.9436   -2.8017 H   0  0  0  0  0  0  0  0  0  0  0  0
  1  2  2  0
  2  3  1  0
  3  4  1  0
  4  5  2  0
  5  6  1  0
  6  7  2  0
  7  8  1  0
  8  9  1  0
  9 10  2  0
 10 11  1  0
 10 12  1  0
 12 13  2  0
 13 14  1  0
 14 15  1  0
 14 16  2  0
  7  2  1  0
 16  9  1  0
 16  6  1  0
  3 17  1  0
  4 18  1  0
 12 19  1  0
 13 20  1  0
M  END
>  <meeko>  (1) 
{"is_sidechain": [false], "free_energy": -7.276, "intermolecular_energy": -7.276, "internal_energy": 0.0}

$$$$
3jya_ligand
     RDKit          3D

 20 22  0  0  0  0  0  0  0  0999 V2000
    8.1490   -8.8450    4.7440 O   0  0  0  0  0  0  0  0  0  0  0  0
    7.6040   -8.7090    3.6530 C   0  0  0  0  0  0  0  0  0  0  0  0
    6.2330   -8.7210    3.5430 N   0  0  0  0  0  0  0  0  0  0  0  0
    5.5860   -8.5730    2.3420 C   0  0  0  0  0  0  0  0  0  0  0  0
    6.1470   -8.4080    1.1880 N   0  0  0  0  0  0  0  0  0  0  0  0
    7.5560   -8.3850    1.2160 C   0  0  0  0  0  0  0  0  0  0  0  0
    8.2480   -8.5290    2.3850 C   0  0  0  0  0  0  0  0  0  0  0  0
    9.9130   -8.4670    2.1650 S   0  0  0  0  0  0  0  0  0  0  0  0
    9.7500   -8.2420    0.4500 C   0  0  0  0  0  0  0  0  0  0  0  0
   10.7900   -8.0960   -0.5010 C   0  0  0  0  0  0  0  0  0  0  0  0
   12.4550   -8.1250   -0.0440 Cl  0  0  0  0  0  0  0  0  0  0  0  0
   10.4800   -7.9210   -1.8520 C   0  0  0  0  0  0  0  0  0  0  0  0
    9.1590   -7.8900   -2.2670 C   0  0  0  0  0  0  0  0  0  0  0  0
    8.1380   -8.0360   -1.3270 C   0  0  0  0  0  0  0  0  0  0  0  0
    6.5060   -7.9970   -1.8490 Cl  0  0  0  0  0  0  0  0  0  0  0  0
    8.3930   -8.2150    0.0590 C   0  0  0  0  0  0  0  0  0  0  0  0
    5.7190   -8.8450    4.4020 H   0  0  0  0  0  0  0  0  0  0  0  0
    4.4864   -8.5969    2.3624 H   0  0  0  0  0  0  0  0  0  0  0  0
   11.2885   -7.8074   -2.5892 H   0  0  0  0  0  0  0  0  0  0  0  0
    8.9162   -7.7512   -3.3308 H   0  0  0  0  0  0  0  0  0  0  0  0
  1  2  2  0
  2  3  1  0
  3  4  1  0
  4  5  2  0
  5  6  1  0
  6  7  2  0
  7  8  1  0
  8  9  1  0
  9 10  2  0
 10 11  1  0
 10 12  1  0
 12 13  2  0
 13 14  1  0
 14 15  1  0
 14 16  2  0
  7  2  1  0
 16  9  1  0
 16  6  1  0
  3 17  1  0
  4 18  1  0
 12 19  1  0
 13 20  1  0
M  END
>  <meeko>  (2) 
{"is_sidechain": [false], "free_energy": -7.167, "intermolecular_energy": -7.167, "internal_energy": 0.0}

$$$$
3jya_ligand
     RDKit          3D

 20 22  0  0  0  0  0  0  0  0999 V2000
    4.3160   -8.7400    4.5420 O   0  0  0  0  0  0  0  0  0  0  0  0
    5.4670   -8.7700    4.1190 C   0  0  0  0  0  0  0  0  0  0  0  0
    6.5280   -8.9580    4.9740 N   0  0  0  0  0  0  0  0  0  0  0  0
    7.8290   -8.9970    4.5410 C   0  0  0  0  0  0  0  0  0  0  0  0
    8.2310   -8.8680    3.3190 N   0  0  0  0  0  0  0  0  0  0  0  0
    7.2010   -8.6710    2.3780 C   0  0  0  0  0  0  0  0  0  0  0  0
    5.8890   -8.6230    2.7570 C   0  0  0  0  0  0  0  0  0  0  0  0
    4.8470   -8.3800    1.4610 S   0  0  0  0  0  0  0  0  0  0  0  0
    6.1600   -8.3280    0.3230 C   0  0  0  0  0  0  0  0  0  0  0  0
    6.0770   -8.1400   -1.0780 C   0  0  0  0  0  0  0  0  0  0  0  0
    4.5630   -7.9260   -1.8820 Cl  0  0  0  0  0  0  0  0  0  0  0  0
    7.2410   -8.1250   -1.8500 C   0  0  0  0  0  0  0  0  0  0  0  0
    8.4780   -8.2940   -1.2510 C   0  0  0  0  0  0  0  0  0  0  0  0
    8.5550   -8.4780    0.1300 C   0  0  0  0  0  0  0  0  0  0  0  0
   10.0900   -8.6850    0.8630 Cl  0  0  0  0  0  0  0  0  0  0  0  0
    7.4060   -8.5030    0.9650 C   0  0  0  0  0  0  0  0  0  0  0  0
    6.2980   -9.0670    5.9510 H   0  0  0  0  0  0  0  0  0  0  0  0
    8.6038   -9.1528    5.3061 H   0  0  0  0  0  0  0  0  0  0  0  0
    7.1748   -7.9783   -2.9382 H   0  0  0  0  0  0  0  0  0  0  0  0
    9.3940   -8.2833   -1.8599 H   0  0  0  0  0  0  0  0  0  0  0  0
  1  2  2  0
  2  3  1  0
  3  4  1  0
  4  5  2  0
  5  6  1  0
  6  7  2  0
  7  8  1  0
  8  9  1  0
  9 10  2  0
 10 11  1  0
 10 12  1  0
 12 13  2  0
 13 14  1  0
 14 15  1  0
 14 16  2  0
  7  2  1  0
 16  9  1  0
 16  6  1  0
  3 17  1  0
  4 18  1  0
 12 19  1  0
 13 20  1  0
M  END
>  <meeko>  (3) 
{"is_sidechain": [false], "free_energy": -7.115, "intermolecular_energy": -7.115, "internal_energy": 0.0}

$$$$
3jya_ligand
     RDKit          3D

 20 22  0  0  0  0  0  0  0  0999 V2000
   11.7150   -8.1130    0.2790 O   0  0  0  0  0  0  0  0  0  0  0  0
   10.6560   -8.0850   -0.3400 C   0  0  0  0  0  0  0  0  0  0  0  0
   10.6430   -7.9330   -1.7070 N   0  0  0  0  0  0  0  0  0  0  0  0
    9.4810   -7.8970   -2.4360 C   0  0  0  0  0  0  0  0  0  0  0  0
    8.2810   -7.9980   -1.9640 N   0  0  0  0  0  0  0  0  0  0  0  0
    8.2090   -8.1570   -0.5660 C   0  0  0  0  0  0  0  0  0  0  0  0
    9.3360   -8.1980    0.2050 C   0  0  0  0  0  0  0  0  0  0  0  0
    8.9970   -8.3940    1.8400 S   0  0  0  0  0  0  0  0  0  0  0  0
    7.2830   -8.4300    1.5530 C   0  0  0  0  0  0  0  0  0  0  0  0
    6.2530   -8.5770    2.5140 C   0  0  0  0  0  0  0  0  0  0  0  0
    6.5950   -8.7520    4.1980 Cl  0  0  0  0  0  0  0  0  0  0  0  0
    4.9160   -8.5840    2.1080 C   0  0  0  0  0  0  0  0  0  0  0  0
    4.5930   -8.4480    0.7690 C   0  0  0  0  0  0  0  0  0  0  0  0
    5.6110   -8.3020   -0.1750 C   0  0  0  0  0  0  0  0  0  0  0  0
    5.2010   -8.1330   -1.8300 Cl  0  0  0  0  0  0  0  0  0  0  0  0
    6.9870   -8.2880    0.1790 C   0  0  0  0  0  0  0  0  0  0  0  0
   11.5440   -7.8470   -2.1540 H   0  0  0  0  0  0  0  0  0  0  0  0
    9.5793   -7.7703   -3.5243 H   0  0  0  0  0  0  0  0  0  0  0  0
    4.1171   -8.6980    2.8555 H   0  0  0  0  0  0  0  0  0  0  0  0
    3.5401   -8.4549    0.4505 H   0  0  0  0  0  0  0  0  0  0  0  0
  1  2  2  0
  2  3  1  0
  3  4  1  0
  4  5  2  0
  5  6  1  0
  6  7  2  0
  7  8  1  0
  8  9  1  0
  9 10  2  0
 10 11  1  0
 10 12  1  0
 12 13  2  0
 13 14  1  0
 14 15  1  0
 14 16  2  0
  7  2  1  0
 16  9  1  0
 16  6  1  0
  3 17  1  0
  4 18  1  0
 12 19  1  0
 13 20  1  0
M  END
>  <meeko>  (4) 
{"is_sidechain": [false], "free_energy": -7.078, "intermolecular_energy": -7.078, "internal_energy": 0.0}

$$$$
3jya_ligand
     RDKit          3D

 20 22  0  0  0  0  0  0  0  0999 V2000
   10.7620   -7.7830   -2.2220 O   0  0  0  0  0  0  0  0  0  0  0  0
   10.3810   -7.9520   -1.0670 C   0  0  0  0  0  0  0  0  0  0  0  0
   11.2840   -8.0470   -0.0340 N   0  0  0  0  0  0  0  0  0  0  0  0
   10.8990   -8.2360    1.2690 C   0  0  0  0  0  0  0  0  0  0  0  0
    9.6840   -8.3470    1.6970 N   0  0  0  0  0  0  0  0  0  0  0  0
    8.6960   -8.2600    0.6970 C   0  0  0  0  0  0  0  0  0  0  0  0
    9.0260   -8.0730   -0.6160 C   0  0  0  0  0  0  0  0  0  0  0  0
    7.6800   -8.0010   -1.6200 S   0  0  0  0  0  0  0  0  0  0  0  0
    6.5860   -8.2250   -0.2880 C   0  0  0  0  0  0  0  0  0  0  0  0
    5.1720   -8.2830   -0.3370 C   0  0  0  0  0  0  0  0  0  0  0  0
    4.3030   -8.1260   -1.8220 Cl  0  0  0  0  0  0  0  0  0  0  0  0
    4.4400   -8.4700    0.8380 C   0  0  0  0  0  0  0  0  0  0  0  0
    5.0920   -8.6000    2.0530 C   0  0  0  0  0  0  0  0  0  0  0  0
    6.4860   -8.5440    2.0970 C   0  0  0  0  0  0  0  0  0  0  0  0
    7.2840   -8.7060    3.6040 Cl  0  0  0  0  0  0  0  0  0  0  0  0
    7.2820   -8.3550    0.9350 C   0  0  0  0  0  0  0  0  0  0  0  0
   12.2580   -7.9710   -0.2860 H   0  0  0  0  0  0  0  0  0  0  0  0
   11.6996   -8.2991    2.0207 H   0  0  0  0  0  0  0  0  0  0  0  0
    3.3416   -8.5142    0.7981 H   0  0  0  0  0  0  0  0  0  0  0  0
    4.5147   -8.7465    2.9778 H   0  0  0  0  0  0  0  0  0  0  0  0
  1  2  2  0
  2  3  1  0
  3  4  1  0
  4  5  2  0
  5  6  1  0
  6  7  2  0
  7  8  1  0
  8  9  1  0
  9 10  2  0
 10 11  1  0
 10 12  1  0
 12 13  2  0
 13 14  1  0
 14 15  1  0
 14 16  2  0
  7  2  1  0
 16  9  1  0
 16  6  1  0
  3 17  1  0
  4 18  1  0
 12 19  1  0
 13 20  1  0
M  END
>  <meeko>  (5) 
{"is_sidechain": [false], "free_energy": -7.026, "intermolecular_energy": -7.026, "internal_energy": 0.0}

$$$$
3jya_ligand
     RDKit          3D

 20 22  0  0  0  0  0  0  0  0999 V2000
   11.2890   -7.9460    4.0820 O   0  0  0  0  0  0  0  0  0  0  0  0
   11.2790   -7.8800    2.8570 C   0  0  0  0  0  0  0  0  0  0  0  0
   12.4460   -7.7030    2.1510 N   0  0  0  0  0  0  0  0  0  0  0  0
   12.4770   -7.6240    0.7820 C   0  0  0  0  0  0  0  0  0  0  0  0
   11.4580   -7.7010   -0.0100 N   0  0  0  0  0  0  0  0  0  0  0  0
   10.2200   -7.8830    0.6370 C   0  0  0  0  0  0  0  0  0  0  0  0
   10.1350   -7.9670    1.9990 C   0  0  0  0  0  0  0  0  0  0  0  0
    8.5570   -8.1830    2.5370 S   0  0  0  0  0  0  0  0  0  0  0  0
    7.9260   -8.1690    0.9180 C   0  0  0  0  0  0  0  0  0  0  0  0
    6.5740   -8.3060    0.5210 C   0  0  0  0  0  0  0  0  0  0  0  0
    5.3020   -8.5190    1.6700 Cl  0  0  0  0  0  0  0  0  0  0  0  0
    6.2380   -8.2710   -0.8350 C   0  0  0  0  0  0  0  0  0  0  0  0
    7.2230   -8.1030   -1.7940 C   0  0  0  0  0  0  0  0  0  0  0  0
    8.5540   -7.9670   -1.3980 C   0  0  0  0  0  0  0  0  0  0  0  0
    9.7660   -7.7580   -2.5910 Cl  0  0  0  0  0  0  0  0  0  0  0  0
    8.9550   -7.9950   -0.0350 C   0  0  0  0  0  0  0  0  0  0  0  0
   13.2910   -7.6330    2.6980 H   0  0  0  0  0  0  0  0  0  0  0  0
   13.4621   -7.4817    0.3136 H   0  0  0  0  0  0  0  0  0  0  0  0
    5.1870   -8.3773   -1.1419 H   0  0  0  0  0  0  0  0  0  0  0  0
    6.9577   -8.0769   -2.8612 H   0  0  0  0  0  0  0  0  0  0  0  0
  1  2  2  0
  2  3  1  0
  3  4  1  0
  4  5  2  0
  5  6  1  0
  6  7  2  0
  7  8  1  0
  8  9  1  0
  9 10  2  0
 10 11  1  0
 10 12  1  0
 12 13  2  0
 13 14  1  0
 14 15  1  0
 14 16  2  0
  7  2  1  0
 16  9  1  0
 16  6  1  0
  3 17  1  0
  4 18  1  0
 12 19  1  0
 13 20  1  0
M  END
>  <meeko>  (6) 
{"is_sidechain": [false], "free_energy": -6.965, "intermolecular_energy": -6.965, "internal_energy": 0.0}

$$$$
3jya_ligand
     RDKit          3D

 20 22  0  0  0  0  0  0  0  0999 V2000
   12.1750   -8.0430    2.2140 O   0  0  0  0  0  0  0  0  0  0  0  0
   11.3780   -8.0320    1.2810 C   0  0  0  0  0  0  0  0  0  0  0  0
   11.8150   -7.9160   -0.0180 N   0  0  0  0  0  0  0  0  0  0  0  0
   10.9560   -7.8990   -1.0880 C   0  0  0  0  0  0  0  0  0  0  0  0
    9.6670   -7.9870   -1.0330 N   0  0  0  0  0  0  0  0  0  0  0  0
    9.1390   -8.1090    0.2670 C   0  0  0  0  0  0  0  0  0  0  0  0
    9.9510   -8.1300    1.3660 C   0  0  0  0  0  0  0  0  0  0  0  0
    9.0920   -8.2830    2.8040 S   0  0  0  0  0  0  0  0  0  0  0  0
    7.5670   -8.3260    1.9720 C   0  0  0  0  0  0  0  0  0  0  0  0
    6.2780   -8.4480    2.5450 C   0  0  0  0  0  0  0  0  0  0  0  0
    6.0470   -8.5790    4.2520 Cl  0  0  0  0  0  0  0  0  0  0  0  0
    5.1480   -8.4660    1.7240 C   0  0  0  0  0  0  0  0  0  0  0  0
    5.2830   -8.3660    0.3490 C   0  0  0  0  0  0  0  0  0  0  0  0
    6.5550   -8.2440   -0.2120 C   0  0  0  0  0  0  0  0  0  0  0  0
    6.7120   -8.1200   -1.9130 Cl  0  0  0  0  0  0  0  0  0  0  0  0
    7.7390   -8.2210    0.5730 C   0  0  0  0  0  0  0  0  0  0  0  0
   12.8120   -7.8420   -0.1470 H   0  0  0  0  0  0  0  0  0  0  0  0
   11.4064   -7.8013   -2.0868 H   0  0  0  0  0  0  0  0  0  0  0  0
    4.1473   -8.5599    2.1710 H   0  0  0  0  0  0  0  0  0  0  0  0
    4.3928   -8.3827   -0.2969 H   0  0  0  0  0  0  0  0  0  0  0  0
  1  2  2  0
  2  3  1  0
  3  4  1  0
  4  5  2  0
  5  6  1  0
  6  7  2  0
  7  8  1  0
  8  9  1  0
  9 10  2  0
 10 11  1  0
 10 12  1  0
 12 13  2  0
 13 14  1  0
 14 15  1  0
 14 16  2  0
  7  2  1  0
 16  9  1  0
 16  6  1  0
  3 17  1  0
  4 18  1  0
 12 19  1  0
 13 20  1  0
M  END
>  <meeko>  (7) 
{"is_sidechain": [false], "free_energy": -6.863, "intermolecular_energy": -6.863, "internal_energy": 0.0}

$$$$
3jya_ligand
     RDKit          3D

 20 22  0  0  0  0  0  0  0  0999 V2000
    4.1940   -8.6820   -0.0580 O   0  0  0  0  0  0  0  0  0  0  0  0
    5.0090   -8.6150    0.8570 C   0  0  0  0  0  0  0  0  0  0  0  0
    4.6010   -8.6800    2.1690 N   0  0  0  0  0  0  0  0  0  0  0  0
    5.4800   -8.6090    3.2210 C   0  0  0  0  0  0  0  0  0  0  0  0
    6.7630   -8.4760    3.1350 N   0  0  0  0  0  0  0  0  0  0  0  0
    7.2620   -8.4020    1.8200 C   0  0  0  0  0  0  0  0  0  0  0  0
    6.4290   -8.4670    0.7380 C   0  0  0  0  0  0  0  0  0  0  0  0
    7.2540   -8.3570   -0.7230 S   0  0  0  0  0  0  0  0  0  0  0  0
    8.7910   -8.2140    0.0730 C   0  0  0  0  0  0  0  0  0  0  0  0
   10.0640   -8.0730   -0.5320 C   0  0  0  0  0  0  0  0  0  0  0  0
   10.2570   -8.0230   -2.2470 Cl  0  0  0  0  0  0  0  0  0  0  0  0
   11.2070   -7.9700    0.2640 C   0  0  0  0  0  0  0  0  0  0  0  0
   11.1030   -8.0060    1.6440 C   0  0  0  0  0  0  0  0  0  0  0  0
    9.8470   -8.1440    2.2370 C   0  0  0  0  0  0  0  0  0  0  0  0
    9.7270   -8.1870    3.9450 Cl  0  0  0  0  0  0  0  0  0  0  0  0
    8.6500   -8.2540    1.4790 C   0  0  0  0  0  0  0  0  0  0  0  0
    3.6100   -8.7840    2.3230 H   0  0  0  0  0  0  0  0  0  0  0  0
    5.0523   -8.6711    4.2325 H   0  0  0  0  0  0  0  0  0  0  0  0
   12.1945   -7.8598   -0.2078 H   0  0  0  0  0  0  0  0  0  0  0  0
   12.0045   -7.9264    2.2692 H   0  0  0  0  0  0  0  0  0  0  0  0
  1  2  2  0
  2  3  1  0
  3  4  1  0
  4  5  2  0
  5  6  1  0
  6  7  2  0
  7  8  1  0
  8  9  1  0
  9 10  2  0
 10 11  1  0
 10 12  1  0
 12 13  2  0
 13 14  1  0
 14 15  1  0
 14 16  2  0
  7  2  1  0
 16  9  1  0
 16  6  1  0
  3 17  1  0
  4 18  1  0
 12 19  1  0
 13 20  1  0
M  END
>  <meeko>  (8) 
{"is_sidechain": [false], "free_energy": -6.703, "intermolecular_energy": -6.703, "internal_energy": 0.0}

$$$$
3jya_ligand
     RDKit          3D

 20 22  0  0  0  0  0  0  0  0999 V2000
   13.4600   -7.6180    0.7840 O   0  0  0  0  0  0  0  0  0  0  0  0
   12.5250   -7.7330    1.5710 C   0  0  0  0  0  0  0  0  0  0  0  0
   12.7320   -7.6450    2.9280 N   0  0  0  0  0  0  0  0  0  0  0  0
   11.7140   -7.7690    3.8410 C   0  0  0  0  0  0  0  0  0  0  0  0
   10.4670   -7.9770    3.5690 N   0  0  0  0  0  0  0  0  0  0  0  0
   10.1720   -8.0790    2.1950 C   0  0  0  0  0  0  0  0  0  0  0  0
   11.1490   -7.9650    1.2460 C   0  0  0  0  0  0  0  0  0  0  0  0
   10.5550   -8.1220   -0.3190 S   0  0  0  0  0  0  0  0  0  0  0  0
    8.9290   -8.3560    0.2460 C   0  0  0  0  0  0  0  0  0  0  0  0
    7.7690   -8.5710   -0.5390 C   0  0  0  0  0  0  0  0  0  0  0  0
    7.8320   -8.6320   -2.2630 Cl  0  0  0  0  0  0  0  0  0  0  0  0
    6.5290   -8.7420    0.0820 C   0  0  0  0  0  0  0  0  0  0  0  0
    6.4280   -8.7010    1.4630 C   0  0  0  0  0  0  0  0  0  0  0  0
    7.5730   -8.4890    2.2320 C   0  0  0  0  0  0  0  0  0  0  0  0
    7.4390   -8.4400    3.9390 Cl  0  0  0  0  0  0  0  0  0  0  0  0
    8.8600   -8.3090    1.6560 C   0  0  0  0  0  0  0  0  0  0  0  0
   13.6830   -7.4830    3.2240 H   0  0  0  0  0  0  0  0  0  0  0  0
   11.9846   -7.6834    4.9037 H   0  0  0  0  0  0  0  0  0  0  0  0
    5.6293   -8.9099   -0.5282 H   0  0  0  0  0  0  0  0  0  0  0  0
    5.4510   -8.8348    1.9505 H   0  0  0  0  0  0  0  0  0  0  0  0
  1  2  2  0
  2  3  1  0
  3  4  1  0
  4  5  2  0
  5  6  1  0
  6  7  2  0
  7  8  1  0
  8  9  1  0
  9 10  2  0
 10 11  1  0
 10 12  1  0
 12 13  2  0
 13 14  1  0
 14 15  1  0
 14 16  2  0
  7  2  1  0
 16  9  1  0
 16  6  1  0
  3 17  1  0
  4 18  1  0
 12 19  1  0
 13 20  1  0
M  END
>  <meeko>  (9) 
{"is_sidechain": [false], "free_energy": -6.631, "intermolecular_energy": -6.631, "internal_energy": 0.0}

$$$$
