3g31_ligand
     RDKit          3D

 31 33  0  0  0  0  0  0  0  0999 V2000
   -6.5230   -3.0070    7.8310 C   0  0  0  0  0  0  0  0  0  0  0  0
   -7.5580   -2.9100    6.7120 C   0  0  2  0  0  0  0  0  0  0  0  0
   -7.0110   -2.1430    5.4710 C   0  0  0  0  0  0  0  0  0  0  0  0
   -7.8840   -1.5660    4.7590 O   0  0  0  0  0  0  0  0  0  0  0  0
   -5.7610   -2.2130    5.2870 O   0  0  0  0  0  0  0  0  0  0  0  0
   -8.8500   -2.3950    7.2030 N   0  0  0  0  0  0  0  0  0  0  0  0
  -10.0070   -3.1250    7.1100 C   0  0  0  0  0  0  0  0  0  0  0  0
  -10.1390   -4.3010    6.7930 O   0  0  0  0  0  0  0  0  0  0  0  0
  -11.1600   -2.2620    7.5390 C   0  0  2  0  0  0  0  0  0  0  0  0
  -12.2380   -1.9400    6.4900 C   0  0  2  0  0  0  0  0  0  0  0  0
  -11.6230   -1.5410    5.1380 C   0  0  0  0  0  0  0  0  0  0  0  0
  -11.0050   -0.1660    5.4300 C   0  0  0  0  0  0  0  0  0  0  0  0
  -11.3310    0.0550    6.9170 C   0  0  1  0  0  0  0  0  0  0  0  0
  -12.7270   -0.5770    6.9990 C   0  0  0  0  0  0  0  0  0  0  0  0
  -10.5320   -0.8970    7.8260 C   0  0  2  0  0  0  0  0  0  0  0  0
   -9.0690   -1.0800    7.5300 C   0  0  0  0  0  0  0  0  0  0  0  0
   -8.2570   -0.1710    7.6320 O   0  0  0  0  0  0  0  0  0  0  0  0
   -7.0310   -2.9594    8.8055 H   0  0  0  0  0  0  0  0  0  0  0  0
   -5.9801   -3.9600    7.7467 H   0  0  0  0  0  0  0  0  0  0  0  0
   -5.8125   -2.1715    7.7467 H   0  0  0  0  0  0  0  0  0  0  0  0
   -7.7587   -3.9321    6.3585 H   0  0  0  0  0  0  0  0  0  0  0  0
  -11.6572   -2.8117    8.3518 H   0  0  0  0  0  0  0  0  0  0  0  0
  -12.9382   -2.7798    6.3696 H   0  0  0  0  0  0  0  0  0  0  0  0
  -10.8530   -2.2620    4.8261 H   0  0  0  0  0  0  0  0  0  0  0  0
  -12.3561   -1.5207    4.3182 H   0  0  0  0  0  0  0  0  0  0  0  0
   -9.9180   -0.1779    5.2617 H   0  0  0  0  0  0  0  0  0  0  0  0
  -11.3952    0.6302    4.7791 H   0  0  0  0  0  0  0  0  0  0  0  0
  -11.1711    1.1043    7.2057 H   0  0  0  0  0  0  0  0  0  0  0  0
  -13.1298   -0.6127    8.0220 H   0  0  0  0  0  0  0  0  0  0  0  0
  -13.5591   -0.0861    6.4730 H   0  0  0  0  0  0  0  0  0  0  0  0
  -10.5774   -0.4836    8.8443 H   0  0  0  0  0  0  0  0  0  0  0  0
  1  2  1  0
  2  3  1  0
  3  4  2  0
  3  5  1  0
  2  6  1  0
  6  7  1  0
  7  8  2  0
  7  9  1  0
  9 10  1  0
 10 11  1  0
 11 12  1  0
 12 13  1  0
 13 14  1  0
 13 15  1  0
 15 16  1  0
 16 17  2  0
 16  6  1  0
 15  9  1  0
 14 10  1  0
  1 18  1  0
  1 19  1  0
  1 20  1  0
  2 21  1  6
  9 22  1  1
 10 23  1  6
 11 24  1  0
 11 25  1  0
 12 26  1  0
 12 27  1  0
 13 28  1  1
 14 29  1  0
 14 30  1  0
 15 31  1  1
M  CHG  1   5  -1
M  END
>  <meeko>  (1) 
{"is_sidechain": [false], "free_energy": -5.606, "intermolecular_energy": -6.262, "internal_energy": 0.068}

$$$$
3g31_ligand
     RDKit          3D

 31 33  0  0  0  0  0  0  0  0999 V2000
  -12.8110   -3.0060    4.2890 C   0  0  0  0  0  0  0  0  0  0  0  0
  -13.3800   -2.4130    5.5760 C   0  0  2  0  0  0  0  0  0  0  0  0
  -14.8090   -1.8260    5.3700 C   0  0  0  0  0  0  0  0  0  0  0  0
  -15.2860   -1.9490    4.2040 O   0  0  0  0  0  0  0  0  0  0  0  0
  -15.3210   -1.2550    6.3770 O   0  0  0  0  0  0  0  0  0  0  0  0
  -12.4390   -1.4700    6.2090 N   0  0  0  0  0  0  0  0  0  0  0  0
  -12.0210   -0.3250    5.5790 C   0  0  0  0  0  0  0  0  0  0  0  0
  -12.4480    0.1690    4.5430 O   0  0  0  0  0  0  0  0  0  0  0  0
  -10.9500    0.3210    6.4100 C   0  0  2  0  0  0  0  0  0  0  0  0
   -9.5450    0.4400    5.7950 C   0  0  2  0  0  0  0  0  0  0  0  0
   -9.1070   -0.8660    5.1100 C   0  0  0  0  0  0  0  0  0  0  0  0
   -8.8860   -1.8220    6.2910 C   0  0  0  0  0  0  0  0  0  0  0  0
   -9.2340   -0.9540    7.5120 C   0  0  1  0  0  0  0  0  0  0  0  0
   -8.6790    0.4050    7.0630 C   0  0  0  0  0  0  0  0  0  0  0  0
  -10.7390   -0.6400    7.5820 C   0  0  2  0  0  0  0  0  0  0  0  0
  -11.7000   -1.7690    7.3260 C   0  0  0  0  0  0  0  0  0  0  0  0
  -11.7860   -2.7400    8.0640 O   0  0  0  0  0  0  0  0  0  0  0  0
  -12.0692   -3.7791    4.5381 H   0  0  0  0  0  0  0  0  0  0  0  0
  -13.6250   -3.4549    3.7009 H   0  0  0  0  0  0  0  0  0  0  0  0
  -12.3289   -2.2112    3.7009 H   0  0  0  0  0  0  0  0  0  0  0  0
  -13.5032   -3.2378    6.2933 H   0  0  0  0  0  0  0  0  0  0  0  0
  -11.3027    1.3444    6.6054 H   0  0  0  0  0  0  0  0  0  0  0  0
   -9.4871    1.2886    5.0975 H   0  0  0  0  0  0  0  0  0  0  0  0
   -9.8930   -1.2427    4.4389 H   0  0  0  0  0  0  0  0  0  0  0  0
   -8.2141   -0.7448    4.4791 H   0  0  0  0  0  0  0  0  0  0  0  0
   -9.5531   -2.6940    6.2234 H   0  0  0  0  0  0  0  0  0  0  0  0
   -7.8666   -2.2335    6.3294 H   0  0  0  0  0  0  0  0  0  0  0  0
   -8.8849   -1.4237    8.4434 H   0  0  0  0  0  0  0  0  0  0  0  0
   -8.9024    1.2209    7.7661 H   0  0  0  0  0  0  0  0  0  0  0  0
   -7.5900    0.5215    6.9606 H   0  0  0  0  0  0  0  0  0  0  0  0
  -10.9491   -0.2993    8.6066 H   0  0  0  0  0  0  0  0  0  0  0  0
  1  2  1  0
  2  3  1  0
  3  4  2  0
  3  5  1  0
  2  6  1  0
  6  7  1  0
  7  8  2  0
  7  9  1  0
  9 10  1  0
 10 11  1  0
 11 12  1  0
 12 13  1  0
 13 14  1  0
 13 15  1  0
 15 16  1  0
 16 17  2  0
 16  6  1  0
 15  9  1  0
 14 10  1  0
  1 18  1  0
  1 19  1  0
  1 20  1  0
  2 21  1  1
  9 22  1  1
 10 23  1  6
 11 24  1  0
 11 25  1  0
 12 26  1  0
 12 27  1  0
 13 28  1  1
 14 29  1  0
 14 30  1  0
 15 31  1  1
M  CHG  1   5  -1
M  END
>  <meeko>  (2) 
{"is_sidechain": [false], "free_energy": -5.559, "intermolecular_energy": -5.909, "internal_energy": -0.231}

$$$$
3g31_ligand
     RDKit          3D

 31 33  0  0  0  0  0  0  0  0999 V2000
  -13.7040    0.5490    4.1810 C   0  0  0  0  0  0  0  0  0  0  0  0
  -12.6330   -0.5370    4.2560 C   0  0  2  0  0  0  0  0  0  0  0  0
  -13.1970   -1.9440    3.8980 C   0  0  0  0  0  0  0  0  0  0  0  0
  -14.3630   -1.9540    3.4030 O   0  0  0  0  0  0  0  0  0  0  0  0
  -12.4490   -2.9260    4.1750 O   0  0  0  0  0  0  0  0  0  0  0  0
  -11.9040   -0.5010    5.5380 N   0  0  0  0  0  0  0  0  0  0  0  0
  -10.5480   -0.3090    5.5990 C   0  0  0  0  0  0  0  0  0  0  0  0
   -9.7860    0.0150    4.6960 O   0  0  0  0  0  0  0  0  0  0  0  0
  -10.0960   -0.4930    7.0200 C   0  0  2  0  0  0  0  0  0  0  0  0
   -9.1270   -1.6510    7.3160 C   0  0  2  0  0  0  0  0  0  0  0  0
   -9.5590   -2.9530    6.6200 C   0  0  0  0  0  0  0  0  0  0  0  0
  -10.8230   -3.3570    7.3910 C   0  0  0  0  0  0  0  0  0  0  0  0
  -10.9720   -2.2330    8.4310 C   0  0  1  0  0  0  0  0  0  0  0  0
   -9.5000   -1.9640    8.7720 C   0  0  0  0  0  0  0  0  0  0  0  0
  -11.3630   -0.8960    7.7770 C   0  0  2  0  0  0  0  0  0  0  0  0
  -12.4410   -0.9210    6.7290 C   0  0  0  0  0  0  0  0  0  0  0  0
  -13.5980   -1.2290    6.9810 O   0  0  0  0  0  0  0  0  0  0  0  0
  -13.9969    0.8460    5.1988 H   0  0  0  0  0  0  0  0  0  0  0  0
  -13.3038    1.4223    3.6451 H   0  0  0  0  0  0  0  0  0  0  0  0
  -14.5828    0.1610    3.6451 H   0  0  0  0  0  0  0  0  0  0  0  0
  -11.8848   -0.3164    3.4804 H   0  0  0  0  0  0  0  0  0  0  0  0
   -9.5758    0.4380    7.2895 H   0  0  0  0  0  0  0  0  0  0  0  0
   -8.0949   -1.3846    7.0444 H   0  0  0  0  0  0  0  0  0  0  0  0
   -9.7838   -2.7771    5.5577 H   0  0  0  0  0  0  0  0  0  0  0  0
   -8.7791   -3.7287    6.6314 H   0  0  0  0  0  0  0  0  0  0  0  0
  -11.6968   -3.3961    6.7239 H   0  0  0  0  0  0  0  0  0  0  0  0
  -10.7524   -4.3574    7.8429 H   0  0  0  0  0  0  0  0  0  0  0  0
  -11.6890   -2.5133    9.2167 H   0  0  0  0  0  0  0  0  0  0  0  0
   -9.3589   -1.1103    9.4512 H   0  0  0  0  0  0  0  0  0  0  0  0
   -8.9326   -2.7406    9.3058 H   0  0  0  0  0  0  0  0  0  0  0  0
  -11.7447   -0.2461    8.5782 H   0  0  0  0  0  0  0  0  0  0  0  0
  1  2  1  0
  2  3  1  0
  3  4  2  0
  3  5  1  0
  2  6  1  0
  6  7  1  0
  7  8  2  0
  7  9  1  0
  9 10  1  0
 10 11  1  0
 11 12  1  0
 12 13  1  0
 13 14  1  0
 13 15  1  0
 15 16  1  0
 16 17  2  0
 16  6  1  0
 15  9  1  0
 14 10  1  0
  1 18  1  0
  1 19  1  0
  1 20  1  0
  2 21  1  6
  9 22  1  1
 10 23  1  1
 11 24  1  0
 11 25  1  0
 12 26  1  0
 12 27  1  0
 13 28  1  1
 14 29  1  0
 14 30  1  0
 15 31  1  1
M  CHG  1   5  -1
M  END
>  <meeko>  (3) 
{"is_sidechain": [false], "free_energy": -5.502, "intermolecular_energy": -5.926, "internal_energy": -0.152}

$$$$
3g31_ligand
     RDKit          3D

 31 33  0  0  0  0  0  0  0  0999 V2000
  -12.0050    0.1270    5.2120 C   0  0  0  0  0  0  0  0  0  0  0  0
  -11.3140   -1.2310    5.3100 C   0  0  2  0  0  0  0  0  0  0  0  0
  -12.3330   -2.3960    5.4900 C   0  0  0  0  0  0  0  0  0  0  0  0
  -13.5430   -2.0470    5.6180 O   0  0  0  0  0  0  0  0  0  0  0  0
  -11.8380   -3.5600    5.5280 O   0  0  0  0  0  0  0  0  0  0  0  0
  -10.2370   -1.2260    6.3180 N   0  0  0  0  0  0  0  0  0  0  0  0
   -8.9160   -1.3510    5.9720 C   0  0  0  0  0  0  0  0  0  0  0  0
   -8.4180   -1.3150    4.8540 O   0  0  0  0  0  0  0  0  0  0  0  0
   -8.0980   -1.4780    7.2250 C   0  0  2  0  0  0  0  0  0  0  0  0
   -7.3240   -2.7910    7.4420 C   0  0  2  0  0  0  0  0  0  0  0  0
   -8.1880   -4.0240    7.1270 C   0  0  0  0  0  0  0  0  0  0  0  0
   -9.2110   -4.0350    8.2720 C   0  0  0  0  0  0  0  0  0  0  0  0
   -8.8180   -2.8000    9.1010 C   0  0  1  0  0  0  0  0  0  0  0  0
   -7.2890   -2.8470    8.9760 C   0  0  0  0  0  0  0  0  0  0  0  0
   -9.1260   -1.4880    8.3580 C   0  0  2  0  0  0  0  0  0  0  0  0
  -10.4560   -1.3750    7.6650 C   0  0  0  0  0  0  0  0  0  0  0  0
  -11.5180   -1.3750    8.2720 O   0  0  0  0  0  0  0  0  0  0  0  0
  -12.2011    0.5124    6.2234 H   0  0  0  0  0  0  0  0  0  0  0  0
  -11.3554    0.8308    4.6710 H   0  0  0  0  0  0  0  0  0  0  0  0
  -12.9563    0.0161    4.6710 H   0  0  0  0  0  0  0  0  0  0  0  0
  -10.8200   -1.4215    4.3458 H   0  0  0  0  0  0  0  0  0  0  0  0
   -7.3534   -0.6698    7.1758 H   0  0  0  0  0  0  0  0  0  0  0  0
   -6.3922   -2.8042    6.8576 H   0  0  0  0  0  0  0  0  0  0  0  0
   -8.6872   -3.9177    6.1526 H   0  0  0  0  0  0  0  0  0  0  0  0
   -7.6050   -4.9543    7.0595 H   0  0  0  0  0  0  0  0  0  0  0  0
  -10.2369   -3.9418    7.8862 H   0  0  0  0  0  0  0  0  0  0  0  0
   -9.1996   -4.9685    8.8538 H   0  0  0  0  0  0  0  0  0  0  0  0
   -9.3020   -2.8172   10.0886 H   0  0  0  0  0  0  0  0  0  0  0  0
   -6.7874   -1.9810    9.4325 H   0  0  0  0  0  0  0  0  0  0  0  0
   -6.7457   -3.6714    9.4610 H   0  0  0  0  0  0  0  0  0  0  0  0
   -9.1132   -0.6834    9.1080 H   0  0  0  0  0  0  0  0  0  0  0  0
  1  2  1  0
  2  3  1  0
  3  4  2  0
  3  5  1  0
  2  6  1  0
  6  7  1  0
  7  8  2  0
  7  9  1  0
  9 10  1  0
 10 11  1  0
 11 12  1  0
 12 13  1  0
 13 14  1  0
 13 15  1  0
 15 16  1  0
 16 17  2  0
 16  6  1  0
 15  9  1  0
 14 10  1  0
  1 18  1  0
  1 19  1  0
  1 20  1  0
  2 21  1  6
  9 22  1  1
 10 23  1  6
 11 24  1  0
 11 25  1  0
 12 26  1  0
 12 27  1  0
 13 28  1  1
 14 29  1  0
 14 30  1  0
 15 31  1  1
M  CHG  1   5  -1
M  END
>  <meeko>  (4) 
{"is_sidechain": [false], "free_energy": -5.438, "intermolecular_energy": -5.843, "internal_energy": -0.164}

$$$$
3g31_ligand
     RDKit          3D

 31 33  0  0  0  0  0  0  0  0999 V2000
  -13.1200   -4.7210    7.2500 C   0  0  0  0  0  0  0  0  0  0  0  0
  -12.9150   -3.4350    6.4520 C   0  0  2  0  0  0  0  0  0  0  0  0
  -12.7380   -3.7100    4.9290 C   0  0  0  0  0  0  0  0  0  0  0  0
  -12.6250   -4.9290    4.6050 O   0  0  0  0  0  0  0  0  0  0  0  0
  -12.6870   -2.6870    4.1860 O   0  0  0  0  0  0  0  0  0  0  0  0
  -11.8470   -2.5960    7.0290 N   0  0  0  0  0  0  0  0  0  0  0  0
  -12.0380   -1.2680    7.3140 C   0  0  0  0  0  0  0  0  0  0  0  0
  -13.0860   -0.6350    7.3090 O   0  0  0  0  0  0  0  0  0  0  0  0
  -10.7240   -0.6680    7.7250 C   0  0  2  0  0  0  0  0  0  0  0  0
  -10.1380    0.4440    6.8370 C   0  0  2  0  0  0  0  0  0  0  0  0
  -10.2280    0.0900    5.3430 C   0  0  0  0  0  0  0  0  0  0  0  0
   -9.2050   -1.0460    5.1920 C   0  0  0  0  0  0  0  0  0  0  0  0
   -8.6590   -1.2150    6.6200 C   0  0  1  0  0  0  0  0  0  0  0  0
   -8.6370    0.2460    7.0920 C   0  0  0  0  0  0  0  0  0  0  0  0
   -9.7150   -1.8070    7.5710 C   0  0  2  0  0  0  0  0  0  0  0  0
  -10.5270   -2.9700    7.0730 C   0  0  0  0  0  0  0  0  0  0  0  0
  -10.0310   -4.0580    6.8160 O   0  0  0  0  0  0  0  0  0  0  0  0
  -13.0839   -4.4946    8.3258 H   0  0  0  0  0  0  0  0  0  0  0  0
  -14.0988   -5.1559    6.9994 H   0  0  0  0  0  0  0  0  0  0  0  0
  -12.3249   -5.4387    6.9994 H   0  0  0  0  0  0  0  0  0  0  0  0
  -13.8388   -2.8438    6.5363 H   0  0  0  0  0  0  0  0  0  0  0  0
  -10.8968   -0.2278    8.7181 H   0  0  0  0  0  0  0  0  0  0  0  0
  -10.6196    1.4117    7.0412 H   0  0  0  0  0  0  0  0  0  0  0  0
  -11.2395   -0.2517    5.0784 H   0  0  0  0  0  0  0  0  0  0  0  0
  -10.0243    0.9459    4.6828 H   0  0  0  0  0  0  0  0  0  0  0  0
   -9.6892   -1.9697    4.8424 H   0  0  0  0  0  0  0  0  0  0  0  0
   -8.4210   -0.8267    4.4522 H   0  0  0  0  0  0  0  0  0  0  0  0
   -7.7406   -1.8205    6.6229 H   0  0  0  0  0  0  0  0  0  0  0  0
   -8.3559    0.3583    8.1495 H   0  0  0  0  0  0  0  0  0  0  0  0
   -7.9263    0.9412    6.6212 H   0  0  0  0  0  0  0  0  0  0  0  0
   -9.1785   -2.1783    8.4566 H   0  0  0  0  0  0  0  0  0  0  0  0
  1  2  1  0
  2  3  1  0
  3  4  2  0
  3  5  1  0
  2  6  1  0
  6  7  1  0
  7  8  2  0
  7  9  1  0
  9 10  1  0
 10 11  1  0
 11 12  1  0
 12 13  1  0
 13 14  1  0
 13 15  1  0
 15 16  1  0
 16 17  2  0
 16  6  1  0
 15  9  1  0
 14 10  1  0
  1 18  1  0
  1 19  1  0
  1 20  1  0
  2 21  1  6
  9 22  1  1
 10 23  1  6
 11 24  1  0
 11 25  1  0
 12 26  1  0
 12 27  1  0
 13 28  1  6
 14 29  1  0
 14 30  1  0
 15 31  1  1
M  CHG  1   5  -1
M  END
>  <meeko>  (5) 
{"is_sidechain": [false], "free_energy": -5.344, "intermolecular_energy": -5.651, "internal_energy": -0.249}

$$$$
3g31_ligand
     RDKit          3D

 31 33  0  0  0  0  0  0  0  0999 V2000
  -12.7480   -3.1190    4.3730 C   0  0  0  0  0  0  0  0  0  0  0  0
  -12.4980   -3.5750    5.8090 C   0  0  2  0  0  0  0  0  0  0  0  0
  -13.8210   -3.9220    6.5540 C   0  0  0  0  0  0  0  0  0  0  0  0
  -14.8790   -3.4690    6.0260 O   0  0  0  0  0  0  0  0  0  0  0  0
  -13.6940   -4.5830    7.6250 O   0  0  0  0  0  0  0  0  0  0  0  0
  -11.6370   -2.6270    6.5430 N   0  0  0  0  0  0  0  0  0  0  0  0
  -11.9570   -1.2990    6.6660 C   0  0  0  0  0  0  0  0  0  0  0  0
  -13.0050   -0.7410    6.3680 O   0  0  0  0  0  0  0  0  0  0  0  0
  -10.8070   -0.5830    7.3150 C   0  0  2  0  0  0  0  0  0  0  0  0
  -10.0870    0.5020    6.4960 C   0  0  2  0  0  0  0  0  0  0  0  0
   -9.8070    0.0400    5.0550 C   0  0  0  0  0  0  0  0  0  0  0  0
   -8.7220   -1.0300    5.2370 C   0  0  0  0  0  0  0  0  0  0  0  0
   -8.5160   -1.0630    6.7620 C   0  0  1  0  0  0  0  0  0  0  0  0
   -8.6790    0.4250    7.1030 C   0  0  0  0  0  0  0  0  0  0  0  0
   -9.7340   -1.6590    7.4910 C   0  0  2  0  0  0  0  0  0  0  0  0
  -10.3480   -2.9070    6.9190 C   0  0  0  0  0  0  0  0  0  0  0  0
   -9.7510   -3.9730    6.8730 O   0  0  0  0  0  0  0  0  0  0  0  0
  -13.2768   -2.1545    4.3814 H   0  0  0  0  0  0  0  0  0  0  0  0
  -11.7861   -3.0053    3.8517 H   0  0  0  0  0  0  0  0  0  0  0  0
  -13.3612   -3.8688    3.8517 H   0  0  0  0  0  0  0  0  0  0  0  0
  -11.9335   -4.5180    5.7626 H   0  0  0  0  0  0  0  0  0  0  0  0
  -11.2287   -0.0873    8.2018 H   0  0  0  0  0  0  0  0  0  0  0  0
  -10.6514    1.4462    6.5037 H   0  0  0  0  0  0  0  0  0  0  0  0
  -10.7100   -0.3876    4.5949 H   0  0  0  0  0  0  0  0  0  0  0  0
   -9.4981    0.8602    4.3903 H   0  0  0  0  0  0  0  0  0  0  0  0
   -9.0640   -2.0065    4.8636 H   0  0  0  0  0  0  0  0  0  0  0  0
   -7.7991   -0.8087    4.6809 H   0  0  0  0  0  0  0  0  0  0  0  0
   -7.5944   -1.6024    7.0258 H   0  0  0  0  0  0  0  0  0  0  0  0
   -8.6585    0.6292    8.1837 H   0  0  0  0  0  0  0  0  0  0  0  0
   -7.9142    1.1329    6.7508 H   0  0  0  0  0  0  0  0  0  0  0  0
   -9.4011   -1.9314    8.5034 H   0  0  0  0  0  0  0  0  0  0  0  0
  1  2  1  0
  2  3  1  0
  3  4  2  0
  3  5  1  0
  2  6  1  0
  6  7  1  0
  7  8  2  0
  7  9  1  0
  9 10  1  0
 10 11  1  0
 11 12  1  0
 12 13  1  0
 13 14  1  0
 13 15  1  0
 15 16  1  0
 16 17  2  0
 16  6  1  0
 15  9  1  0
 14 10  1  0
  1 18  1  0
  1 19  1  0
  1 20  1  0
  2 21  1  6
  9 22  1  1
 10 23  1  6
 11 24  1  0
 11 25  1  0
 12 26  1  0
 12 27  1  0
 13 28  1  6
 14 29  1  0
 14 30  1  0
 15 31  1  1
M  CHG  1   5  -1
M  END
>  <meeko>  (6) 
{"is_sidechain": [false], "free_energy": -5.265, "intermolecular_energy": -5.61, "internal_energy": -0.202}

$$$$
3g31_ligand
     RDKit          3D

 31 33  0  0  0  0  0  0  0  0999 V2000
   -9.3520   -4.8330    7.7320 C   0  0  0  0  0  0  0  0  0  0  0  0
   -8.2530   -3.7750    7.7770 C   0  0  2  0  0  0  0  0  0  0  0  0
   -7.3810   -3.8870    9.0630 C   0  0  0  0  0  0  0  0  0  0  0  0
   -6.7250   -2.8480    9.3690 O   0  0  0  0  0  0  0  0  0  0  0  0
   -7.3920   -5.0130    9.6410 O   0  0  0  0  0  0  0  0  0  0  0  0
   -8.7860   -2.4200    7.5410 N   0  0  0  0  0  0  0  0  0  0  0  0
   -9.7940   -1.8910    8.3050 C   0  0  0  0  0  0  0  0  0  0  0  0
  -10.2730   -2.3350    9.3420 O   0  0  0  0  0  0  0  0  0  0  0  0
  -10.2180   -0.5790    7.7080 C   0  0  2  0  0  0  0  0  0  0  0  0
  -11.6590   -0.4670    7.1830 C   0  0  2  0  0  0  0  0  0  0  0  0
  -12.0640   -1.6960    6.3510 C   0  0  0  0  0  0  0  0  0  0  0  0
  -11.2200   -1.5470    5.0760 C   0  0  0  0  0  0  0  0  0  0  0  0
  -10.4250   -0.2560    5.3340 C   0  0  1  0  0  0  0  0  0  0  0  0
  -11.4750    0.5820    6.0770 C   0  0  0  0  0  0  0  0  0  0  0  0
   -9.3720   -0.4420    6.4410 C   0  0  2  0  0  0  0  0  0  0  0  0
   -8.5360   -1.6920    6.4040 C   0  0  0  0  0  0  0  0  0  0  0  0
   -7.7460   -1.9300    5.5010 O   0  0  0  0  0  0  0  0  0  0  0  0
   -9.6381   -5.1084    8.7578 H   0  0  0  0  0  0  0  0  0  0  0  0
  -10.2279   -4.4295    7.2029 H   0  0  0  0  0  0  0  0  0  0  0  0
   -8.9821   -5.7236    7.2029 H   0  0  0  0  0  0  0  0  0  0  0  0
   -7.5672   -3.9767    6.9409 H   0  0  0  0  0  0  0  0  0  0  0  0
  -10.1118    0.1624    8.5136 H   0  0  0  0  0  0  0  0  0  0  0  0
  -12.3691   -0.2983    8.0059 H   0  0  0  0  0  0  0  0  0  0  0  0
  -11.8192   -2.6290    6.8798 H   0  0  0  0  0  0  0  0  0  0  0  0
  -13.1445   -1.7458    6.1510 H   0  0  0  0  0  0  0  0  0  0  0  0
  -10.5461   -2.4066    4.9457 H   0  0  0  0  0  0  0  0  0  0  0  0
  -11.8255   -1.5063    4.1585 H   0  0  0  0  0  0  0  0  0  0  0  0
   -9.9626    0.1149    4.4074 H   0  0  0  0  0  0  0  0  0  0  0  0
  -11.0848    1.5416    6.4469 H   0  0  0  0  0  0  0  0  0  0  0  0
  -12.3617    0.9262    5.5244 H   0  0  0  0  0  0  0  0  0  0  0  0
   -8.6608    0.3925    6.3529 H   0  0  0  0  0  0  0  0  0  0  0  0
  1  2  1  0
  2  3  1  0
  3  4  2  0
  3  5  1  0
  2  6  1  0
  6  7  1  0
  7  8  2  0
  7  9  1  0
  9 10  1  0
 10 11  1  0
 11 12  1  0
 12 13  1  0
 13 14  1  0
 13 15  1  0
 15 16  1  0
 16 17  2  0
 16  6  1  0
 15  9  1  0
 14 10  1  0
  1 18  1  0
  1 19  1  0
  1 20  1  0
  2 21  1  6
  9 22  1  1
 10 23  1  1
 11 24  1  0
 11 25  1  0
 12 26  1  0
 12 27  1  0
 13 28  1  6
 14 29  1  0
 14 30  1  0
 15 31  1  1
M  CHG  1   5  -1
M  END
>  <meeko>  (7) 
{"is_sidechain": [false], "free_energy": -5.168, "intermolecular_energy": -5.555, "internal_energy": -0.149}

$$$$
3g31_ligand
     RDKit          3D

 31 33  0  0  0  0  0  0  0  0999 V2000
  -14.6960   -3.0590    6.0560 C   0  0  0  0  0  0  0  0  0  0  0  0
  -13.7280   -3.2300    4.8880 C   0  0  2  0  0  0  0  0  0  0  0  0
  -13.6770   -4.7010    4.3770 C   0  0  0  0  0  0  0  0  0  0  0  0
  -14.4580   -5.5080    4.9610 O   0  0  0  0  0  0  0  0  0  0  0  0
  -12.8350   -4.9380    3.4620 O   0  0  0  0  0  0  0  0  0  0  0  0
  -12.3990   -2.6630    5.1890 N   0  0  0  0  0  0  0  0  0  0  0  0
  -11.5880   -3.1870    6.1640 C   0  0  0  0  0  0  0  0  0  0  0  0
  -11.7290   -4.2320    6.7860 O   0  0  0  0  0  0  0  0  0  0  0  0
  -10.3950   -2.2900    6.3340 C   0  0  2  0  0  0  0  0  0  0  0  0
  -10.2130   -1.5960    7.6950 C   0  0  2  0  0  0  0  0  0  0  0  0
  -11.5310   -0.9940    8.2120 C   0  0  0  0  0  0  0  0  0  0  0  0
  -11.7760    0.1820    7.2560 C   0  0  0  0  0  0  0  0  0  0  0  0
  -10.5750    0.1080    6.2980 C   0  0  1  0  0  0  0  0  0  0  0  0
   -9.4650   -0.3260    7.2650 C   0  0  0  0  0  0  0  0  0  0  0  0
  -10.6510   -1.1240    5.3780 C   0  0  2  0  0  0  0  0  0  0  0  0
  -11.9770   -1.4370    4.7400 C   0  0  0  0  0  0  0  0  0  0  0  0
  -12.5080   -0.6950    3.9260 O   0  0  0  0  0  0  0  0  0  0  0  0
  -14.1471   -3.1560    7.0043 H   0  0  0  0  0  0  0  0  0  0  0  0
  -15.1630   -2.0645    6.0026 H   0  0  0  0  0  0  0  0  0  0  0  0
  -15.4754   -3.8334    6.0026 H   0  0  0  0  0  0  0  0  0  0  0  0
  -14.1209   -2.6415    4.0458 H   0  0  0  0  0  0  0  0  0  0  0  0
   -9.5155   -2.9328    6.1814 H   0  0  0  0  0  0  0  0  0  0  0  0
   -9.7768   -2.2822    8.4359 H   0  0  0  0  0  0  0  0  0  0  0  0
  -12.3493   -1.7269    8.1541 H   0  0  0  0  0  0  0  0  0  0  0  0
  -11.4822   -0.6896    9.2679 H   0  0  0  0  0  0  0  0  0  0  0  0
  -12.7237    0.0577    6.7116 H   0  0  0  0  0  0  0  0  0  0  0  0
  -11.8583    1.1496    7.7726 H   0  0  0  0  0  0  0  0  0  0  0  0
  -10.4793    1.0338    5.7118 H   0  0  0  0  0  0  0  0  0  0  0  0
   -8.5073   -0.5325    6.7648 H   0  0  0  0  0  0  0  0  0  0  0  0
   -9.1371    0.3806    8.0417 H   0  0  0  0  0  0  0  0  0  0  0  0
   -9.9566   -0.9462    4.5436 H   0  0  0  0  0  0  0  0  0  0  0  0
  1  2  1  0
  2  3  1  0
  3  4  2  0
  3  5  1  0
  2  6  1  0
  6  7  1  0
  7  8  2  0
  7  9  1  0
  9 10  1  0
 10 11  1  0
 11 12  1  0
 12 13  1  0
 13 14  1  0
 13 15  1  0
 15 16  1  0
 16 17  2  0
 16  6  1  0
 15  9  1  0
 14 10  1  0
  1 18  1  0
  1 19  1  0
  1 20  1  0
  2 21  1  6
  9 22  1  6
 10 23  1  1
 11 24  1  0
 11 25  1  0
 12 26  1  0
 12 27  1  0
 13 28  1  6
 14 29  1  0
 14 30  1  0
 15 31  1  6
M  CHG  1   5  -1
M  END
>  <meeko>  (8) 
{"is_sidechain": [false], "free_energy": -5.09, "intermolecular_energy": -5.397, "internal_energy": -0.22}

$$$$
3g31_ligand
     RDKit          3D

 31 33  0  0  0  0  0  0  0  0999 V2000
  -13.0970   -0.7210    8.8470 C   0  0  0  0  0  0  0  0  0  0  0  0
  -13.4100   -0.9590    7.3710 C   0  0  2  0  0  0  0  0  0  0  0  0
  -14.5910   -1.9560    7.1750 C   0  0  0  0  0  0  0  0  0  0  0  0
  -15.0130   -2.0740    5.9870 O   0  0  0  0  0  0  0  0  0  0  0  0
  -15.0270   -2.5090    8.2260 O   0  0  0  0  0  0  0  0  0  0  0  0
  -12.2020   -1.3160    6.6050 N   0  0  0  0  0  0  0  0  0  0  0  0
  -11.4490   -2.4220    6.9060 C   0  0  0  0  0  0  0  0  0  0  0  0
  -11.7140   -3.3310    7.6820 O   0  0  0  0  0  0  0  0  0  0  0  0
  -10.2090   -2.4090    6.0580 C   0  0  2  0  0  0  0  0  0  0  0  0
   -8.8540   -2.2950    6.7780 C   0  0  2  0  0  0  0  0  0  0  0  0
   -8.8770   -1.2180    7.8750 C   0  0  0  0  0  0  0  0  0  0  0  0
   -8.9530    0.0920    7.0760 C   0  0  0  0  0  0  0  0  0  0  0  0
   -8.9760   -0.3930    5.6160 C   0  0  1  0  0  0  0  0  0  0  0  0
   -8.0200   -1.5910    5.6980 C   0  0  0  0  0  0  0  0  0  0  0  0
  -10.2960   -1.1020    5.2680 C   0  0  2  0  0  0  0  0  0  0  0  0
  -11.5760   -0.4620    5.7320 C   0  0  0  0  0  0  0  0  0  0  0  0
  -11.9560    0.6240    5.3180 O   0  0  0  0  0  0  0  0  0  0  0  0
  -13.8196   -1.2704    9.4683 H   0  0  0  0  0  0  0  0  0  0  0  0
  -12.0794   -1.0755    9.0678 H   0  0  0  0  0  0  0  0  0  0  0  0
  -13.1666    0.3544    9.0678 H   0  0  0  0  0  0  0  0  0  0  0  0
  -13.7597   -0.0050    6.9495 H   0  0  0  0  0  0  0  0  0  0  0  0
  -10.2073   -3.3684    5.5199 H   0  0  0  0  0  0  0  0  0  0  0  0
   -8.5386   -3.2659    7.1877 H   0  0  0  0  0  0  0  0  0  0  0  0
   -9.7564   -1.3355    8.5253 H   0  0  0  0  0  0  0  0  0  0  0  0
   -8.0064   -1.2654    8.5457 H   0  0  0  0  0  0  0  0  0  0  0  0
   -9.8677    0.6518    7.3209 H   0  0  0  0  0  0  0  0  0  0  0  0
   -8.1216    0.7794    7.2911 H   0  0  0  0  0  0  0  0  0  0  0  0
   -8.7787    0.4365    4.9210 H   0  0  0  0  0  0  0  0  0  0  0  0
   -7.9526   -2.1602    4.7591 H   0  0  0  0  0  0  0  0  0  0  0  0
   -6.9542   -1.4025    5.8944 H   0  0  0  0  0  0  0  0  0  0  0  0
  -10.3630   -1.1353    4.1705 H   0  0  0  0  0  0  0  0  0  0  0  0
  1  2  1  0
  2  3  1  0
  3  4  2  0
  3  5  1  0
  2  6  1  0
  6  7  1  0
  7  8  2  0
  7  9  1  0
  9 10  1  0
 10 11  1  0
 11 12  1  0
 12 13  1  0
 13 14  1  0
 13 15  1  0
 15 16  1  0
 16 17  2  0
 16  6  1  0
 15  9  1  0
 14 10  1  0
  1 18  1  0
  1 19  1  0
  1 20  1  0
  2 21  1  6
  9 22  1  6
 10 23  1  1
 11 24  1  0
 11 25  1  0
 12 26  1  0
 12 27  1  0
 13 28  1  6
 14 29  1  0
 14 30  1  0
 15 31  1  6
M  CHG  1   5  -1
M  END
>  <meeko>  (9) 
{"is_sidechain": [false], "free_energy": -4.923, "intermolecular_energy": -5.203, "internal_energy": -0.227}

$$$$
