
     RDKit          3D

 40 45  0  0  0  0  0  0  0  0999 V2000
   14.3420    7.0280    4.5730 N   0  0  0  0  0  0  0  0  0  0  0  0
   13.5510    8.0780    4.8920 C   0  0  0  0  0  0  0  0  0  0  0  0
   13.8410    8.9790    5.8430 N   0  0  0  0  0  0  0  0  0  0  0  0
   12.8480    9.8810    5.9040 N   0  0  0  0  0  0  0  0  0  0  0  0
   11.9000    9.5460    4.9690 C   0  0  0  0  0  0  0  0  0  0  0  0
   10.6790   10.1760    4.6530 C   0  0  0  0  0  0  0  0  0  0  0  0
    9.8880    9.6210    3.6540 C   0  0  0  0  0  0  0  0  0  0  0  0
    8.6180   10.2360    3.2930 C   0  0  0  0  0  0  0  0  0  0  0  0
    8.1280   11.4820    3.6660 C   0  0  0  0  0  0  0  0  0  0  0  0
    6.9050   11.6210    3.0770 N   0  0  0  0  0  0  0  0  0  0  0  0
    6.6900   10.5010    2.4130 C   0  0  0  0  0  0  0  0  0  0  0  0
    5.5010   10.1890    1.5840 C   0  0  2  0  0  0  0  0  0  0  0  0
    5.4770   11.1280    0.3660 C   0  0  0  0  0  0  0  0  0  0  0  0
    6.6960   10.8210   -0.4830 C   0  0  0  0  0  0  0  0  0  0  0  0
    7.6110   11.8330   -0.7960 C   0  0  0  0  0  0  0  0  0  0  0  0
    8.7120   11.5290   -1.5750 C   0  0  0  0  0  0  0  0  0  0  0  0
    8.9260   10.2260   -2.0460 C   0  0  0  0  0  0  0  0  0  0  0  0
    8.0150    9.2370   -1.7220 C   0  0  0  0  0  0  0  0  0  0  0  0
    6.9160    9.5290   -0.9580 C   0  0  0  0  0  0  0  0  0  0  0  0
    4.2400   10.2400    2.3580 N   0  0  0  0  0  0  0  0  0  0  0  0
    3.8860    9.2240    3.1900 C   0  0  0  0  0  0  0  0  0  0  0  0
    4.6560    8.2770    3.3810 O   0  0  0  0  0  0  0  0  0  0  0  0
    2.5700    9.2240    3.8840 C   0  0  0  0  0  0  0  0  0  0  0  0
    1.6960   10.3150    3.8310 C   0  0  0  0  0  0  0  0  0  0  0  0
    0.4050   10.2500    4.5920 C   0  0  0  0  0  0  0  0  0  0  0  0
   -0.5280    9.2560    4.2950 C   0  0  0  0  0  0  0  0  0  0  0  0
   -1.7180    9.1460    5.0150 C   0  0  0  0  0  0  0  0  0  0  0  0
   -2.8630    7.9250    4.6460 Cl  0  0  0  0  0  0  0  0  0  0  0  0
   -1.9920   10.0520    6.0360 C   0  0  0  0  0  0  0  0  0  0  0  0
   -1.0860   11.0640    6.3300 C   0  0  0  0  0  0  0  0  0  0  0  0
    0.1150   11.1890    5.6150 C   0  0  0  0  0  0  0  0  0  0  0  0
    0.9770   12.2380    5.9020 N   0  0  0  0  0  0  0  0  0  0  0  0
    0.6680   13.5510    5.9020 C   0  0  0  0  0  0  0  0  0  0  0  0
    1.7800   14.2020    6.2250 N   0  0  0  0  0  0  0  0  0  0  0  0
    2.7440   13.2950    6.4120 N   0  0  0  0  0  0  0  0  0  0  0  0
    2.2530   12.0940    6.2130 N   0  0  0  0  0  0  0  0  0  0  0  0
    7.7020    9.6410    2.5030 N   0  0  0  0  0  0  0  0  0  0  0  0
   10.3030    8.4570    2.9850 C   0  0  0  0  0  0  0  0  0  0  0  0
   11.5190    7.8270    3.2950 C   0  0  0  0  0  0  0  0  0  0  0  0
   12.3150    8.4080    4.3130 C   0  0  0  0  0  0  0  0  0  0  0  0
  2  1  1  0
  3  2  2  0
  4  3  1  0
  5  4  1  0
  6  5  2  0
  7  6  1  0
  8  7  1  0
  9  8  2  0
 10  9  1  0
 11 10  1  0
 12 11  1  0
 12 13  1  6
 14 13  1  0
 15 14  2  0
 16 15  1  0
 17 16  2  0
 18 17  1  0
 19 18  2  0
 19 14  1  0
 20 12  1  0
 21 20  1  0
 22 21  2  0
 23 21  1  0
 24 23  2  3
 25 24  1  0
 26 25  2  0
 27 26  1  0
 28 27  1  0
 29 27  2  0
 30 29  1  0
 31 25  1  0
 31 30  2  0
 32 31  1  0
 33 32  1  0
 34 33  2  0
 35 34  1  0
 36 35  2  0
 36 32  1  0
 37 11  2  0
 37  8  1  0
 38  7  2  0
 39 38  1  0
 40 39  2  0
 40  5  1  0
 40  2  1  0
M  CHG  1   3   1
M  END
$$$$
