3twp_ligand
     RDKit          3D

 15 15  0  0  0  0  0  0  0  0999 V2000
    1.3230   -0.2960   -7.3340 O   0  0  0  0  0  0  0  0  0  0  0  0
    0.6470   -0.5300   -8.3910 C   0  0  0  0  0  0  0  0  0  0  0  0
   -0.0200   -1.5820   -8.6370 O   0  0  0  0  0  0  0  0  0  0  0  0
    0.6600    0.5640   -9.4310 C   0  0  0  0  0  0  0  0  0  0  0  0
    0.8180    1.9100   -9.0560 C   0  0  0  0  0  0  0  0  0  0  0  0
    0.8320    2.9270  -10.0150 C   0  0  0  0  0  0  0  0  0  0  0  0
    0.6880    2.6150  -11.3660 C   0  0  0  0  0  0  0  0  0  0  0  0
    0.5300    1.2870  -11.7580 C   0  0  0  0  0  0  0  0  0  0  0  0
    0.5180    0.2760  -10.7970 C   0  0  0  0  0  0  0  0  0  0  0  0
    0.3590   -1.0090  -11.2520 O   0  0  0  0  0  0  0  0  0  0  0  0
    0.9323    2.1664   -7.9924 H   0  0  0  0  0  0  0  0  0  0  0  0
    0.9568    3.9745   -9.7033 H   0  0  0  0  0  0  0  0  0  0  0  0
    0.6991    3.4151  -12.1208 H   0  0  0  0  0  0  0  0  0  0  0  0
    0.4150    1.0366  -12.8229 H   0  0  0  0  0  0  0  0  0  0  0  0
   -0.5480   -1.2800  -10.9400 H   0  0  0  0  0  0  0  0  0  0  0  0
  1  2  2  0
  2  3  1  0
  2  4  1  0
  4  5  2  0
  5  6  1  0
  6  7  2  0
  7  8  1  0
  8  9  2  0
  9 10  1  0
  9  4  1  0
  5 11  1  0
  6 12  1  0
  7 13  1  0
  8 14  1  0
 10 15  1  0
M  CHG  1   3  -1
M  END
>  <meeko>  (1) 
{"is_sidechain": [false], "free_energy": -5.247, "intermolecular_energy": -5.707, "internal_energy": -0.213}

$$$$
3twp_ligand
     RDKit          3D

 15 15  0  0  0  0  0  0  0  0999 V2000
    0.1980    3.1050  -10.8900 O   0  0  0  0  0  0  0  0  0  0  0  0
    0.8430    2.0140  -11.0440 C   0  0  0  0  0  0  0  0  0  0  0  0
    1.5970    1.7200  -12.0220 O   0  0  0  0  0  0  0  0  0  0  0  0
    0.6740    0.9930   -9.9440 C   0  0  0  0  0  0  0  0  0  0  0  0
    0.7520    1.3740   -8.5940 C   0  0  0  0  0  0  0  0  0  0  0  0
    0.5950    0.4340   -7.5710 C   0  0  0  0  0  0  0  0  0  0  0  0
    0.3590   -0.9040   -7.8830 C   0  0  0  0  0  0  0  0  0  0  0  0
    0.2780   -1.3010   -9.2160 C   0  0  0  0  0  0  0  0  0  0  0  0
    0.4340   -0.3590  -10.2320 C   0  0  0  0  0  0  0  0  0  0  0  0
    0.3430   -0.8180  -11.5220 O   0  0  0  0  0  0  0  0  0  0  0  0
    0.9393    2.4273   -8.3381 H   0  0  0  0  0  0  0  0  0  0  0  0
    0.6577    0.7504   -6.5194 H   0  0  0  0  0  0  0  0  0  0  0  0
    0.2370   -1.6445   -7.0788 H   0  0  0  0  0  0  0  0  0  0  0  0
    0.0913   -2.3557   -9.4664 H   0  0  0  0  0  0  0  0  0  0  0  0
    0.2750   -1.8090  -11.4370 H   0  0  0  0  0  0  0  0  0  0  0  0
  1  2  2  0
  2  3  1  0
  2  4  1  0
  4  5  2  0
  5  6  1  0
  6  7  2  0
  7  8  1  0
  8  9  2  0
  9 10  1  0
  9  4  1  0
  5 11  1  0
  6 12  1  0
  7 13  1  0
  8 14  1  0
 10 15  1  0
M  CHG  1   3  -1
M  END
>  <meeko>  (2) 
{"is_sidechain": [false], "free_energy": -5.115, "intermolecular_energy": -5.522, "internal_energy": -0.255}

$$$$
3twp_ligand
     RDKit          3D

 15 15  0  0  0  0  0  0  0  0999 V2000
   -0.6890    0.4890   -5.9670 O   0  0  0  0  0  0  0  0  0  0  0  0
    0.2900    0.0410   -6.6530 C   0  0  0  0  0  0  0  0  0  0  0  0
    1.3850   -0.4060   -6.1930 O   0  0  0  0  0  0  0  0  0  0  0  0
    0.1010    0.0580   -8.1510 C   0  0  0  0  0  0  0  0  0  0  0  0
   -0.3240    1.2260   -8.8080 C   0  0  0  0  0  0  0  0  0  0  0  0
   -0.4990    1.2480  -10.1950 C   0  0  0  0  0  0  0  0  0  0  0  0
   -0.2520    0.1020  -10.9480 C   0  0  0  0  0  0  0  0  0  0  0  0
    0.1700   -1.0660  -10.3150 C   0  0  0  0  0  0  0  0  0  0  0  0
    0.3450   -1.0820   -8.9320 C   0  0  0  0  0  0  0  0  0  0  0  0
    0.7620   -2.2640   -8.3740 O   0  0  0  0  0  0  0  0  0  0  0  0
   -0.5217    2.1359   -8.2223 H   0  0  0  0  0  0  0  0  0  0  0  0
   -0.8320    2.1710  -10.6922 H   0  0  0  0  0  0  0  0  0  0  0  0
   -0.3897    0.1189  -12.0392 H   0  0  0  0  0  0  0  0  0  0  0  0
    0.3646   -1.9734  -10.9056 H   0  0  0  0  0  0  0  0  0  0  0  0
    1.5310   -2.0140   -7.7910 H   0  0  0  0  0  0  0  0  0  0  0  0
  1  2  2  0
  2  3  1  0
  2  4  1  0
  4  5  2  0
  5  6  1  0
  6  7  2  0
  7  8  1  0
  8  9  2  0
  9 10  1  0
  9  4  1  0
  5 11  1  0
  6 12  1  0
  7 13  1  0
  8 14  1  0
 10 15  1  0
M  CHG  1   3  -1
M  END
>  <meeko>  (3) 
{"is_sidechain": [false], "free_energy": -5.004, "intermolecular_energy": -5.398, "internal_energy": -0.258}

$$$$
3twp_ligand
     RDKit          3D

 15 15  0  0  0  0  0  0  0  0999 V2000
    1.7800    0.5910   -9.8160 O   0  0  0  0  0  0  0  0  0  0  0  0
    0.7070   -0.0850   -9.6730 C   0  0  0  0  0  0  0  0  0  0  0  0
    0.2420   -0.9380  -10.4890 O   0  0  0  0  0  0  0  0  0  0  0  0
   -0.0670    0.1780   -8.4020 C   0  0  0  0  0  0  0  0  0  0  0  0
   -1.4100    0.5880   -8.4510 C   0  0  0  0  0  0  0  0  0  0  0  0
   -2.1320    0.8310   -7.2790 C   0  0  0  0  0  0  0  0  0  0  0  0
   -1.5210    0.6690   -6.0370 C   0  0  0  0  0  0  0  0  0  0  0  0
   -0.1890    0.2630   -5.9670 C   0  0  0  0  0  0  0  0  0  0  0  0
    0.5250    0.0200   -7.1390 C   0  0  0  0  0  0  0  0  0  0  0  0
    1.8310   -0.3760   -6.9980 O   0  0  0  0  0  0  0  0  0  0  0  0
   -1.9008    0.7198   -9.4266 H   0  0  0  0  0  0  0  0  0  0  0  0
   -3.1830    1.1503   -7.3371 H   0  0  0  0  0  0  0  0  0  0  0  0
   -2.0882    0.8610   -5.1142 H   0  0  0  0  0  0  0  0  0  0  0  0
    0.2974    0.1347   -4.9887 H   0  0  0  0  0  0  0  0  0  0  0  0
    2.1340   -0.5930   -7.9230 H   0  0  0  0  0  0  0  0  0  0  0  0
  1  2  2  0
  2  3  1  0
  2  4  1  0
  4  5  2  0
  5  6  1  0
  6  7  2  0
  7  8  1  0
  8  9  2  0
  9 10  1  0
  9  4  1  0
  5 11  1  0
  6 12  1  0
  7 13  1  0
  8 14  1  0
 10 15  1  0
M  CHG  1   3  -1
M  END
>  <meeko>  (4) 
{"is_sidechain": [false], "free_energy": -4.845, "intermolecular_energy": -5.225, "internal_energy": -0.258}

$$$$
3twp_ligand
     RDKit          3D

 15 15  0  0  0  0  0  0  0  0999 V2000
   -0.7030    0.9360  -12.4960 O   0  0  0  0  0  0  0  0  0  0  0  0
    0.2280    1.2210  -11.6700 C   0  0  0  0  0  0  0  0  0  0  0  0
    1.3400    1.7650  -11.9510 O   0  0  0  0  0  0  0  0  0  0  0  0
   -0.0460    0.8650  -10.2290 C   0  0  0  0  0  0  0  0  0  0  0  0
    0.9960    0.4480   -9.3820 C   0  0  0  0  0  0  0  0  0  0  0  0
    0.7500    0.1180   -8.0460 C   0  0  0  0  0  0  0  0  0  0  0  0
   -0.5440    0.1980   -7.5350 C   0  0  0  0  0  0  0  0  0  0  0  0
   -1.5910    0.6090   -8.3580 C   0  0  0  0  0  0  0  0  0  0  0  0
   -1.3390    0.9380   -9.6890 C   0  0  0  0  0  0  0  0  0  0  0  0
   -2.4150    1.3350  -10.4440 O   0  0  0  0  0  0  0  0  0  0  0  0
    2.0205    0.3804   -9.7767 H   0  0  0  0  0  0  0  0  0  0  0  0
    1.5781   -0.2049   -7.3979 H   0  0  0  0  0  0  0  0  0  0  0  0
   -0.7387   -0.0627   -6.4842 H   0  0  0  0  0  0  0  0  0  0  0  0
   -2.6138    0.6736   -7.9582 H   0  0  0  0  0  0  0  0  0  0  0  0
   -3.2070    0.9320   -9.9920 H   0  0  0  0  0  0  0  0  0  0  0  0
  1  2  2  0
  2  3  1  0
  2  4  1  0
  4  5  2  0
  5  6  1  0
  6  7  2  0
  7  8  1  0
  8  9  2  0
  9 10  1  0
  9  4  1  0
  5 11  1  0
  6 12  1  0
  7 13  1  0
  8 14  1  0
 10 15  1  0
M  CHG  1   3  -1
M  END
>  <meeko>  (5) 
{"is_sidechain": [false], "free_energy": -4.837, "intermolecular_energy": -5.261, "internal_energy": -0.213}

$$$$
3twp_ligand
     RDKit          3D

 15 15  0  0  0  0  0  0  0  0999 V2000
   -0.5660   -1.7700   -8.4510 O   0  0  0  0  0  0  0  0  0  0  0  0
    0.3240   -1.1690   -9.1420 C   0  0  0  0  0  0  0  0  0  0  0  0
    1.3620   -1.6950   -9.6490 O   0  0  0  0  0  0  0  0  0  0  0  0
    0.0960    0.3080   -9.3600 C   0  0  0  0  0  0  0  0  0  0  0  0
   -1.2050    0.8390   -9.3740 C   0  0  0  0  0  0  0  0  0  0  0  0
   -1.4210    2.2060   -9.5740 C   0  0  0  0  0  0  0  0  0  0  0  0
   -0.3400    3.0640   -9.7640 C   0  0  0  0  0  0  0  0  0  0  0  0
    0.9580    2.5560   -9.7540 C   0  0  0  0  0  0  0  0  0  0  0  0
    1.1690    1.1920   -9.5530 C   0  0  0  0  0  0  0  0  0  0  0  0
    2.4710    0.7600   -9.5540 O   0  0  0  0  0  0  0  0  0  0  0  0
   -2.0655    0.1700   -9.2256 H   0  0  0  0  0  0  0  0  0  0  0  0
   -2.4462    2.6046   -9.5813 H   0  0  0  0  0  0  0  0  0  0  0  0
   -0.5103    4.1393   -9.9215 H   0  0  0  0  0  0  0  0  0  0  0  0
    1.8145    3.2297   -9.9044 H   0  0  0  0  0  0  0  0  0  0  0  0
    2.9750    1.4680  -10.0420 H   0  0  0  0  0  0  0  0  0  0  0  0
  1  2  2  0
  2  3  1  0
  2  4  1  0
  4  5  2  0
  5  6  1  0
  6  7  2  0
  7  8  1  0
  8  9  2  0
  9 10  1  0
  9  4  1  0
  5 11  1  0
  6 12  1  0
  7 13  1  0
  8 14  1  0
 10 15  1  0
M  CHG  1   3  -1
M  END
>  <meeko>  (6) 
{"is_sidechain": [false], "free_energy": -4.81, "intermolecular_energy": -5.236, "internal_energy": -0.208}

$$$$
3twp_ligand
     RDKit          3D

 15 15  0  0  0  0  0  0  0  0999 V2000
    0.6100    0.3520   -8.2980 O   0  0  0  0  0  0  0  0  0  0  0  0
   -0.6590    0.4900   -8.3300 C   0  0  0  0  0  0  0  0  0  0  0  0
   -1.3490    0.8530   -9.3320 O   0  0  0  0  0  0  0  0  0  0  0  0
   -1.3830    0.1880   -7.0400 C   0  0  0  0  0  0  0  0  0  0  0  0
   -2.4100   -0.7700   -7.0000 C   0  0  0  0  0  0  0  0  0  0  0  0
   -3.0830   -1.0550   -5.8090 C   0  0  0  0  0  0  0  0  0  0  0  0
   -2.7400   -0.3850   -4.6360 C   0  0  0  0  0  0  0  0  0  0  0  0
   -1.7240    0.5690   -4.6540 C   0  0  0  0  0  0  0  0  0  0  0  0
   -1.0550    0.8480   -5.8450 C   0  0  0  0  0  0  0  0  0  0  0  0
   -0.0660    1.7970   -5.7920 O   0  0  0  0  0  0  0  0  0  0  0  0
   -2.6886   -1.3039   -7.9205 H   0  0  0  0  0  0  0  0  0  0  0  0
   -3.8841   -1.8087   -5.7972 H   0  0  0  0  0  0  0  0  0  0  0  0
   -3.2698   -0.6086   -3.6983 H   0  0  0  0  0  0  0  0  0  0  0  0
   -1.4506    1.1006   -3.7306 H   0  0  0  0  0  0  0  0  0  0  0  0
   -0.4180    2.5000   -5.1790 H   0  0  0  0  0  0  0  0  0  0  0  0
  1  2  2  0
  2  3  1  0
  2  4  1  0
  4  5  2  0
  5  6  1  0
  6  7  2  0
  7  8  1  0
  8  9  2  0
  9 10  1  0
  9  4  1  0
  5 11  1  0
  6 12  1  0
  7 13  1  0
  8 14  1  0
 10 15  1  0
M  CHG  1   3  -1
M  END
>  <meeko>  (7) 
{"is_sidechain": [false], "free_energy": -4.802, "intermolecular_energy": -5.177, "internal_energy": -0.259}

$$$$
3twp_ligand
     RDKit          3D

 15 15  0  0  0  0  0  0  0  0999 V2000
   -3.1630    1.2650   -7.6330 O   0  0  0  0  0  0  0  0  0  0  0  0
   -2.3500    0.2940   -7.7880 C   0  0  0  0  0  0  0  0  0  0  0  0
   -2.4460   -0.8570   -7.2610 O   0  0  0  0  0  0  0  0  0  0  0  0
   -1.1670    0.5670   -8.6860 C   0  0  0  0  0  0  0  0  0  0  0  0
    0.1380    0.2520   -8.2700 C   0  0  0  0  0  0  0  0  0  0  0  0
    1.2370    0.5010   -9.0980 C   0  0  0  0  0  0  0  0  0  0  0  0
    1.0480    1.0720  -10.3550 C   0  0  0  0  0  0  0  0  0  0  0  0
   -0.2380    1.3930  -10.7860 C   0  0  0  0  0  0  0  0  0  0  0  0
   -1.3300    1.1400   -9.9570 C   0  0  0  0  0  0  0  0  0  0  0  0
   -2.5680    1.4790  -10.4420 O   0  0  0  0  0  0  0  0  0  0  0  0
    0.2972   -0.1970   -7.2785 H   0  0  0  0  0  0  0  0  0  0  0  0
    2.2512    0.2460   -8.7569 H   0  0  0  0  0  0  0  0  0  0  0  0
    1.9124    1.2691  -11.0061 H   0  0  0  0  0  0  0  0  0  0  0  0
   -0.3909    1.8446  -11.7773 H   0  0  0  0  0  0  0  0  0  0  0  0
   -2.3890    1.8970  -11.3300 H   0  0  0  0  0  0  0  0  0  0  0  0
  1  2  2  0
  2  3  1  0
  2  4  1  0
  4  5  2  0
  5  6  1  0
  6  7  2  0
  7  8  1  0
  8  9  2  0
  9 10  1  0
  9  4  1  0
  5 11  1  0
  6 12  1  0
  7 13  1  0
  8 14  1  0
 10 15  1  0
M  CHG  1   3  -1
M  END
>  <meeko>  (8) 
{"is_sidechain": [false], "free_energy": -4.781, "intermolecular_energy": -5.159, "internal_energy": -0.255}

$$$$
3twp_ligand
     RDKit          3D

 15 15  0  0  0  0  0  0  0  0999 V2000
   -4.0470    7.5110   -3.9500 O   0  0  0  0  0  0  0  0  0  0  0  0
   -3.6210    7.7600   -2.7730 C   0  0  0  0  0  0  0  0  0  0  0  0
   -2.5100    8.2970   -2.4750 O   0  0  0  0  0  0  0  0  0  0  0  0
   -4.5450    7.3640   -1.6460 C   0  0  0  0  0  0  0  0  0  0  0  0
   -5.1330    6.0880   -1.6140 C   0  0  0  0  0  0  0  0  0  0  0  0
   -5.9890    5.7160   -0.5730 C   0  0  0  0  0  0  0  0  0  0  0  0
   -6.2700    6.6150    0.4540 C   0  0  0  0  0  0  0  0  0  0  0  0
   -5.6960    7.8850    0.4410 C   0  0  0  0  0  0  0  0  0  0  0  0
   -4.8430    8.2510   -0.5990 C   0  0  0  0  0  0  0  0  0  0  0  0
   -4.3130    9.5150   -0.5510 O   0  0  0  0  0  0  0  0  0  0  0  0
   -4.9166    5.3713   -2.4199 H   0  0  0  0  0  0  0  0  0  0  0  0
   -6.4409    4.7131   -0.5647 H   0  0  0  0  0  0  0  0  0  0  0  0
   -6.9434    6.3229    1.2732 H   0  0  0  0  0  0  0  0  0  0  0  0
   -5.9157    8.5972    1.2500 H   0  0  0  0  0  0  0  0  0  0  0  0
   -3.8400    9.5610    0.3260 H   0  0  0  0  0  0  0  0  0  0  0  0
  1  2  2  0
  2  3  1  0
  2  4  1  0
  4  5  2  0
  5  6  1  0
  6  7  2  0
  7  8  1  0
  8  9  2  0
  9 10  1  0
  9  4  1  0
  5 11  1  0
  6 12  1  0
  7 13  1  0
  8 14  1  0
 10 15  1  0
M  CHG  1   3  -1
M  END
>  <meeko>  (9) 
{"is_sidechain": [false], "free_energy": -4.768, "intermolecular_energy": -5.142, "internal_energy": -0.257}

$$$$
