4jsz_ligand
     RDKit          3D

 17 17  0  0  0  0  0  0  0  0999 V2000
    6.5010   -1.1360    1.2090 N   0  0  0  0  0  0  0  0  0  0  0  0
    6.0470   -0.7140   -0.3520 S   0  0  0  0  0  0  0  0  0  0  0  0
    7.1110    0.1180   -0.8620 O   0  0  0  0  0  0  0  0  0  0  0  0
    4.6810   -0.2530   -0.2560 O   0  0  0  0  0  0  0  0  0  0  0  0
    6.0800   -2.2770   -1.1770 C   0  0  0  0  0  0  0  0  0  0  0  0
    6.7480   -2.4010   -2.3980 C   0  0  0  0  0  0  0  0  0  0  0  0
    6.7500   -3.6290   -3.0590 C   0  0  0  0  0  0  0  0  0  0  0  0
    6.0790   -4.7220   -2.5060 C   0  0  0  0  0  0  0  0  0  0  0  0
    5.4020   -4.5900   -1.2920 C   0  0  0  0  0  0  0  0  0  0  0  0
    5.3960   -3.3650   -0.6250 C   0  0  0  0  0  0  0  0  0  0  0  0
    5.6720   -1.2110    1.8000 H   0  0  0  0  0  0  0  0  0  0  0  0
    7.1970   -0.4770    1.5560 H   0  0  0  0  0  0  0  0  0  0  0  0
    7.2687   -1.5361   -2.8348 H   0  0  0  0  0  0  0  0  0  0  0  0
    7.2804   -3.7368   -4.0166 H   0  0  0  0  0  0  0  0  0  0  0  0
    6.0839   -5.6899   -3.0286 H   0  0  0  0  0  0  0  0  0  0  0  0
    4.8729   -5.4528   -0.8612 H   0  0  0  0  0  0  0  0  0  0  0  0
    4.8574   -3.2554    0.3279 H   0  0  0  0  0  0  0  0  0  0  0  0
  1  2  1  0
  2  3  2  0
  2  4  2  0
  2  5  1  0
  5  6  2  0
  6  7  1  0
  7  8  2  0
  8  9  1  0
  9 10  2  0
 10  5  1  0
  1 11  1  0
  1 12  1  0
  6 13  1  0
  7 14  1  0
  8 15  1  0
  9 16  1  0
 10 17  1  0
M  END
>  <meeko>  (1) 
{"is_sidechain": [false], "free_energy": -4.584, "intermolecular_energy": -4.986, "internal_energy": -0.031}

$$$$
4jsz_ligand
     RDKit          3D

 17 17  0  0  0  0  0  0  0  0999 V2000
    6.5710   -1.0410    1.1150 N   0  0  0  0  0  0  0  0  0  0  0  0
    6.0850   -0.6910   -0.4550 S   0  0  0  0  0  0  0  0  0  0  0  0
    7.1270    0.1380   -1.0160 O   0  0  0  0  0  0  0  0  0  0  0  0
    4.7140   -0.2490   -0.3550 O   0  0  0  0  0  0  0  0  0  0  0  0
    6.1320   -2.2850   -1.2160 C   0  0  0  0  0  0  0  0  0  0  0  0
    5.3650   -3.3280   -0.6880 C   0  0  0  0  0  0  0  0  0  0  0  0
    5.4260   -4.5910   -1.2750 C   0  0  0  0  0  0  0  0  0  0  0  0
    6.2550   -4.8110   -2.3770 C   0  0  0  0  0  0  0  0  0  0  0  0
    7.0290   -3.7710   -2.8930 C   0  0  0  0  0  0  0  0  0  0  0  0
    6.9740   -2.5030   -2.3110 C   0  0  0  0  0  0  0  0  0  0  0  0
    5.7630   -1.3210    1.6710 H   0  0  0  0  0  0  0  0  0  0  0  0
    7.0850   -0.2500    1.5010 H   0  0  0  0  0  0  0  0  0  0  0  0
    4.7181   -3.1532    0.1843 H   0  0  0  0  0  0  0  0  0  0  0  0
    4.8205   -5.4151   -0.8697 H   0  0  0  0  0  0  0  0  0  0  0  0
    6.2980   -5.8079   -2.8400 H   0  0  0  0  0  0  0  0  0  0  0  0
    7.6831   -3.9502   -3.7591 H   0  0  0  0  0  0  0  0  0  0  0  0
    7.5879   -1.6823   -2.7105 H   0  0  0  0  0  0  0  0  0  0  0  0
  1  2  1  0
  2  3  2  0
  2  4  2  0
  2  5  1  0
  5  6  2  0
  6  7  1  0
  7  8  2  0
  8  9  1  0
  9 10  2  0
 10  5  1  0
  1 11  1  0
  1 12  1  0
  6 13  1  0
  7 14  1  0
  8 15  1  0
  9 16  1  0
 10 17  1  0
M  END
>  <meeko>  (2) 
{"is_sidechain": [false], "free_energy": -4.548, "intermolecular_energy": -4.947, "internal_energy": -0.031}

$$$$
4jsz_ligand
     RDKit          3D

 17 17  0  0  0  0  0  0  0  0999 V2000
   10.7250   -3.8430   -1.3590 N   0  0  0  0  0  0  0  0  0  0  0  0
    9.9650   -4.1330   -2.8290 S   0  0  0  0  0  0  0  0  0  0  0  0
   10.5500   -5.3500   -3.3420 O   0  0  0  0  0  0  0  0  0  0  0  0
   10.0150   -2.8850   -3.5530 O   0  0  0  0  0  0  0  0  0  0  0  0
    8.3020   -4.4520   -2.3240 C   0  0  0  0  0  0  0  0  0  0  0  0
    7.9260   -5.7470   -1.9560 C   0  0  0  0  0  0  0  0  0  0  0  0
    6.6060   -6.0000   -1.5840 C   0  0  0  0  0  0  0  0  0  0  0  0
    5.6680   -4.9650   -1.5880 C   0  0  0  0  0  0  0  0  0  0  0  0
    6.0450   -3.6760   -1.9680 C   0  0  0  0  0  0  0  0  0  0  0  0
    7.3640   -3.4150   -2.3420 C   0  0  0  0  0  0  0  0  0  0  0  0
   10.1650   -3.1950   -0.8040 H   0  0  0  0  0  0  0  0  0  0  0  0
   11.6810   -3.5280   -1.5220 H   0  0  0  0  0  0  0  0  0  0  0  0
    8.6661   -6.5608   -1.9598 H   0  0  0  0  0  0  0  0  0  0  0  0
    6.3034   -7.0151   -1.2873 H   0  0  0  0  0  0  0  0  0  0  0  0
    4.6283   -5.1666   -1.2906 H   0  0  0  0  0  0  0  0  0  0  0  0
    5.3018   -2.8651   -1.9727 H   0  0  0  0  0  0  0  0  0  0  0  0
    7.6633   -2.4018   -2.6484 H   0  0  0  0  0  0  0  0  0  0  0  0
  1  2  1  0
  2  3  2  0
  2  4  2  0
  2  5  1  0
  5  6  2  0
  6  7  1  0
  7  8  2  0
  8  9  1  0
  9 10  2  0
 10  5  1  0
  1 11  1  0
  1 12  1  0
  6 13  1  0
  7 14  1  0
  8 15  1  0
  9 16  1  0
 10 17  1  0
M  END
>  <meeko>  (3) 
{"is_sidechain": [false], "free_energy": -4.49, "intermolecular_energy": -4.885, "internal_energy": -0.03}

$$$$
4jsz_ligand
     RDKit          3D

 17 17  0  0  0  0  0  0  0  0999 V2000
   10.7140   -3.8970   -1.3340 N   0  0  0  0  0  0  0  0  0  0  0  0
    9.9970   -4.2090   -2.8200 S   0  0  0  0  0  0  0  0  0  0  0  0
   10.5810   -5.4440   -3.2890 O   0  0  0  0  0  0  0  0  0  0  0  0
   10.0850   -2.9770   -3.5680 O   0  0  0  0  0  0  0  0  0  0  0  0
    8.3140   -4.4960   -2.3610 C   0  0  0  0  0  0  0  0  0  0  0  0
    7.3960   -3.4430   -2.4040 C   0  0  0  0  0  0  0  0  0  0  0  0
    6.0760   -3.6660   -2.0150 C   0  0  0  0  0  0  0  0  0  0  0  0
    5.6800   -4.9320   -1.5780 C   0  0  0  0  0  0  0  0  0  0  0  0
    6.6040   -5.9770   -1.5250 C   0  0  0  0  0  0  0  0  0  0  0  0
    7.9270   -5.7620   -1.9120 C   0  0  0  0  0  0  0  0  0  0  0  0
   10.9920   -2.9160   -1.2840 H   0  0  0  0  0  0  0  0  0  0  0  0
   11.4800   -4.5510   -1.1760 H   0  0  0  0  0  0  0  0  0  0  0  0
    7.7128   -2.4454   -2.7424 H   0  0  0  0  0  0  0  0  0  0  0  0
    5.3458   -2.8442   -2.0523 H   0  0  0  0  0  0  0  0  0  0  0  0
    4.6371   -5.1061   -1.2747 H   0  0  0  0  0  0  0  0  0  0  0  0
    6.2884   -6.9718   -1.1775 H   0  0  0  0  0  0  0  0  0  0  0  0
    8.6592   -6.5815   -1.8642 H   0  0  0  0  0  0  0  0  0  0  0  0
  1  2  1  0
  2  3  2  0
  2  4  2  0
  2  5  1  0
  5  6  2  0
  6  7  1  0
  7  8  2  0
  8  9  1  0
  9 10  2  0
 10  5  1  0
  1 11  1  0
  1 12  1  0
  6 13  1  0
  7 14  1  0
  8 15  1  0
  9 16  1  0
 10 17  1  0
M  END
>  <meeko>  (4) 
{"is_sidechain": [false], "free_energy": -4.484, "intermolecular_energy": -4.878, "internal_energy": -0.03}

$$$$
4jsz_ligand
     RDKit          3D

 17 17  0  0  0  0  0  0  0  0999 V2000
    7.8740   -4.2570   -1.8740 N   0  0  0  0  0  0  0  0  0  0  0  0
    6.2350   -3.9490   -2.0690 S   0  0  0  0  0  0  0  0  0  0  0  0
    5.5510   -4.8840   -1.2060 O   0  0  0  0  0  0  0  0  0  0  0  0
    6.0070   -3.9030   -3.4950 O   0  0  0  0  0  0  0  0  0  0  0  0
    6.0870   -2.3200   -1.4000 C   0  0  0  0  0  0  0  0  0  0  0  0
    5.4450   -2.1310   -0.1730 C   0  0  0  0  0  0  0  0  0  0  0  0
    5.3070   -0.8410    0.3390 C   0  0  0  0  0  0  0  0  0  0  0  0
    5.8000    0.2520   -0.3780 C   0  0  0  0  0  0  0  0  0  0  0  0
    6.4290    0.0590   -1.6080 C   0  0  0  0  0  0  0  0  0  0  0  0
    6.5710   -1.2280   -2.1270 C   0  0  0  0  0  0  0  0  0  0  0  0
    8.3400   -3.4250   -1.5100 H   0  0  0  0  0  0  0  0  0  0  0  0
    8.2670   -4.6000   -2.7500 H   0  0  0  0  0  0  0  0  0  0  0  0
    5.0514   -2.9935    0.3849 H   0  0  0  0  0  0  0  0  0  0  0  0
    4.8098   -0.6841    1.3076 H   0  0  0  0  0  0  0  0  0  0  0  0
    5.6918    1.2683    0.0288 H   0  0  0  0  0  0  0  0  0  0  0  0
    6.8137    0.9231   -2.1696 H   0  0  0  0  0  0  0  0  0  0  0  0
    7.0597   -1.3826   -3.1003 H   0  0  0  0  0  0  0  0  0  0  0  0
  1  2  1  0
  2  3  2  0
  2  4  2  0
  2  5  1  0
  5  6  2  0
  6  7  1  0
  7  8  2  0
  8  9  1  0
  9 10  2  0
 10  5  1  0
  1 11  1  0
  1 12  1  0
  6 13  1  0
  7 14  1  0
  8 15  1  0
  9 16  1  0
 10 17  1  0
M  END
>  <meeko>  (5) 
{"is_sidechain": [false], "free_energy": -4.383, "intermolecular_energy": -4.769, "internal_energy": -0.03}

$$$$
4jsz_ligand
     RDKit          3D

 17 17  0  0  0  0  0  0  0  0999 V2000
    6.6540   -0.7050    1.4420 N   0  0  0  0  0  0  0  0  0  0  0  0
    5.6300   -0.6910    0.1110 S   0  0  0  0  0  0  0  0  0  0  0  0
    5.1850    0.6760   -0.0320 O   0  0  0  0  0  0  0  0  0  0  0  0
    4.7110   -1.7880    0.3070 O   0  0  0  0  0  0  0  0  0  0  0  0
    6.7390   -1.0850   -1.2080 C   0  0  0  0  0  0  0  0  0  0  0  0
    6.5370   -2.2480   -1.9580 C   0  0  0  0  0  0  0  0  0  0  0  0
    7.4290   -2.5700   -2.9800 C   0  0  0  0  0  0  0  0  0  0  0  0
    8.5200   -1.7380   -3.2430 C   0  0  0  0  0  0  0  0  0  0  0  0
    8.7240   -0.5850   -2.4840 C   0  0  0  0  0  0  0  0  0  0  0  0
    7.8360   -0.2560   -1.4590 C   0  0  0  0  0  0  0  0  0  0  0  0
    6.5280    0.1520    1.9820 H   0  0  0  0  0  0  0  0  0  0  0  0
    7.6140   -0.8630    1.1360 H   0  0  0  0  0  0  0  0  0  0  0  0
    5.6805   -2.9040   -1.7431 H   0  0  0  0  0  0  0  0  0  0  0  0
    7.2737   -3.4792   -3.5793 H   0  0  0  0  0  0  0  0  0  0  0  0
    9.2209   -1.9928   -4.0515 H   0  0  0  0  0  0  0  0  0  0  0  0
    9.5859    0.0654   -2.6939 H   0  0  0  0  0  0  0  0  0  0  0  0
    7.9980    0.6481   -0.8537 H   0  0  0  0  0  0  0  0  0  0  0  0
  1  2  1  0
  2  3  2  0
  2  4  2  0
  2  5  1  0
  5  6  2  0
  6  7  1  0
  7  8  2  0
  8  9  1  0
  9 10  2  0
 10  5  1  0
  1 11  1  0
  1 12  1  0
  6 13  1  0
  7 14  1  0
  8 15  1  0
  9 16  1  0
 10 17  1  0
M  END
>  <meeko>  (6) 
{"is_sidechain": [false], "free_energy": -4.328, "intermolecular_energy": -4.708, "internal_energy": -0.031}

$$$$
4jsz_ligand
     RDKit          3D

 17 17  0  0  0  0  0  0  0  0999 V2000
    9.3000   -1.7030   -1.7860 N   0  0  0  0  0  0  0  0  0  0  0  0
    7.9430   -1.8980   -2.7560 S   0  0  0  0  0  0  0  0  0  0  0  0
    8.4280   -1.9100   -4.1170 O   0  0  0  0  0  0  0  0  0  0  0  0
    6.9780   -0.9320   -2.2860 O   0  0  0  0  0  0  0  0  0  0  0  0
    7.4080   -3.5230   -2.3120 C   0  0  0  0  0  0  0  0  0  0  0  0
    6.0850   -3.7310   -1.9110 C   0  0  0  0  0  0  0  0  0  0  0  0
    5.6730   -5.0090   -1.5360 C   0  0  0  0  0  0  0  0  0  0  0  0
    6.5820   -6.0700   -1.5540 C   0  0  0  0  0  0  0  0  0  0  0  0
    7.9050   -5.8550   -1.9440 C   0  0  0  0  0  0  0  0  0  0  0  0
    8.3250   -4.5790   -2.3200 C   0  0  0  0  0  0  0  0  0  0  0  0
    9.9920   -2.4190   -2.0130 H   0  0  0  0  0  0  0  0  0  0  0  0
    9.0240   -1.6910   -0.8050 H   0  0  0  0  0  0  0  0  0  0  0  0
    5.3739   -2.8920   -1.8915 H   0  0  0  0  0  0  0  0  0  0  0  0
    4.6319   -5.1821   -1.2258 H   0  0  0  0  0  0  0  0  0  0  0  0
    6.2540   -7.0779   -1.2599 H   0  0  0  0  0  0  0  0  0  0  0  0
    8.6174   -6.6931   -1.9548 H   0  0  0  0  0  0  0  0  0  0  0  0
    9.3688   -4.4048   -2.6203 H   0  0  0  0  0  0  0  0  0  0  0  0
  1  2  1  0
  2  3  2  0
  2  4  2  0
  2  5  1  0
  5  6  2  0
  6  7  1  0
  7  8  2  0
  8  9  1  0
  9 10  2  0
 10  5  1  0
  1 11  1  0
  1 12  1  0
  6 13  1  0
  7 14  1  0
  8 15  1  0
  9 16  1  0
 10 17  1  0
M  END
>  <meeko>  (7) 
{"is_sidechain": [false], "free_energy": -4.327, "intermolecular_energy": -4.706, "internal_energy": -0.032}

$$$$
4jsz_ligand
     RDKit          3D

 17 17  0  0  0  0  0  0  0  0999 V2000
    8.1670   -3.9430   -1.9710 N   0  0  0  0  0  0  0  0  0  0  0  0
    6.5250   -3.7800   -2.2840 S   0  0  0  0  0  0  0  0  0  0  0  0
    5.8740   -4.8290   -1.5340 O   0  0  0  0  0  0  0  0  0  0  0  0
    6.4050   -3.6650   -3.7180 O   0  0  0  0  0  0  0  0  0  0  0  0
    6.1640   -2.2190   -1.5390 C   0  0  0  0  0  0  0  0  0  0  0  0
    6.5480   -1.0390   -2.1840 C   0  0  0  0  0  0  0  0  0  0  0  0
    6.2860    0.1900   -1.5800 C   0  0  0  0  0  0  0  0  0  0  0  0
    5.6520    0.2380   -0.3370 C   0  0  0  0  0  0  0  0  0  0  0  0
    5.2810   -0.9430    0.3080 C   0  0  0  0  0  0  0  0  0  0  0  0
    5.5400   -2.1770   -0.2890 C   0  0  0  0  0  0  0  0  0  0  0  0
    8.6000   -4.5190   -2.6940 H   0  0  0  0  0  0  0  0  0  0  0  0
    8.3050   -4.2960   -1.0250 H   0  0  0  0  0  0  0  0  0  0  0  0
    7.0529   -1.0802   -3.1604 H   0  0  0  0  0  0  0  0  0  0  0  0
    6.5792    1.1230   -2.0835 H   0  0  0  0  0  0  0  0  0  0  0  0
    5.4442    1.2094    0.1354 H   0  0  0  0  0  0  0  0  0  0  0  0
    4.7838   -0.9006    1.2883 H   0  0  0  0  0  0  0  0  0  0  0  0
    5.2554   -3.1097    0.2200 H   0  0  0  0  0  0  0  0  0  0  0  0
  1  2  1  0
  2  3  2  0
  2  4  2  0
  2  5  1  0
  5  6  2  0
  6  7  1  0
  7  8  2  0
  8  9  1  0
  9 10  2  0
 10  5  1  0
  1 11  1  0
  1 12  1  0
  6 13  1  0
  7 14  1  0
  8 15  1  0
  9 16  1  0
 10 17  1  0
M  END
>  <meeko>  (8) 
{"is_sidechain": [false], "free_energy": -4.289, "intermolecular_energy": -4.666, "internal_energy": -0.03}

$$$$
4jsz_ligand
     RDKit          3D

 17 17  0  0  0  0  0  0  0  0999 V2000
    9.6530   -2.4420   -1.8070 N   0  0  0  0  0  0  0  0  0  0  0  0
    8.9600   -3.2370   -3.1140 S   0  0  0  0  0  0  0  0  0  0  0  0
    9.9850   -4.1120   -3.6340 O   0  0  0  0  0  0  0  0  0  0  0  0
    8.3380   -2.2100   -3.9170 O   0  0  0  0  0  0  0  0  0  0  0  0
    7.7060   -4.2060   -2.3300 C   0  0  0  0  0  0  0  0  0  0  0  0
    7.9250   -5.5680   -2.1030 C   0  0  0  0  0  0  0  0  0  0  0  0
    6.9240   -6.3350   -1.5080 C   0  0  0  0  0  0  0  0  0  0  0  0
    5.7100   -5.7440   -1.1520 C   0  0  0  0  0  0  0  0  0  0  0  0
    5.4910   -4.3870   -1.3920 C   0  0  0  0  0  0  0  0  0  0  0  0
    6.4880   -3.6120   -1.9860 C   0  0  0  0  0  0  0  0  0  0  0  0
    9.0340   -2.5050   -0.9980 H   0  0  0  0  0  0  0  0  0  0  0  0
    9.8910   -1.4870   -2.0720 H   0  0  0  0  0  0  0  0  0  0  0  0
    8.8800   -6.0312   -2.3917 H   0  0  0  0  0  0  0  0  0  0  0  0
    7.0907   -7.4058   -1.3190 H   0  0  0  0  0  0  0  0  0  0  0  0
    4.9230   -6.3508   -0.6804 H   0  0  0  0  0  0  0  0  0  0  0  0
    4.5314   -3.9276   -1.1127 H   0  0  0  0  0  0  0  0  0  0  0  0
    6.3171   -2.5432   -2.1818 H   0  0  0  0  0  0  0  0  0  0  0  0
  1  2  1  0
  2  3  2  0
  2  4  2  0
  2  5  1  0
  5  6  2  0
  6  7  1  0
  7  8  2  0
  8  9  1  0
  9 10  2  0
 10  5  1  0
  1 11  1  0
  1 12  1  0
  6 13  1  0
  7 14  1  0
  8 15  1  0
  9 16  1  0
 10 17  1  0
M  END
>  <meeko>  (9) 
{"is_sidechain": [false], "free_energy": -4.152, "intermolecular_energy": -4.518, "internal_energy": -0.03}

$$$$
