
     RDKit          3D

 34 40  0  0  0  0  0  0  0  0999 V2000
    3.5920    2.8080   -3.7490 O   0  0  0  0  0  0  0  0  0  0  0  0
    3.7590    3.9540   -4.1190 C   0  0  0  0  0  0  0  0  0  0  0  0
    3.3060    4.3900   -5.3120 N   0  0  0  0  0  0  0  0  0  0  0  0
    2.4720    3.5500   -6.1360 C   0  0  2  0  0  0  0  0  0  0  0  0
    3.0470    3.1870   -7.4540 C   0  0  0  0  0  0  0  0  0  0  0  0
    4.2530    2.5370   -7.6920 C   0  0  0  0  0  0  0  0  0  0  0  0
    4.5830    2.2130   -9.0000 C   0  0  0  0  0  0  0  0  0  0  0  0
    3.7090    2.5100  -10.0360 C   0  0  0  0  0  0  0  0  0  0  0  0
    2.4730    3.1640   -9.7700 C   0  0  0  0  0  0  0  0  0  0  0  0
    2.1550    3.5090   -8.4490 C   0  0  0  0  0  0  0  0  0  0  0  0
    1.0200    4.2090   -7.8660 C   0  0  0  0  0  0  0  0  0  0  0  0
   -0.1400    4.7940   -8.4060 C   0  0  0  0  0  0  0  0  0  0  0  0
   -0.4710    4.7470   -9.8120 C   0  0  0  0  0  0  0  0  0  0  0  0
   -0.4750    3.6420  -10.5720 N   0  0  0  0  0  0  0  0  0  0  0  0
   -0.9450    4.0590  -11.7950 C   0  0  0  0  0  0  0  0  0  0  0  0
   -1.1680    3.3320  -12.9690 C   0  0  0  0  0  0  0  0  0  0  0  0
   -1.6300    4.0530  -14.0760 C   0  0  0  0  0  0  0  0  0  0  0  0
   -1.8600    5.3730  -14.0520 N   0  0  0  0  0  0  0  0  0  0  0  0
   -1.6410    6.0810  -12.8950 C   0  0  0  0  0  0  0  0  0  0  0  0
   -1.1750    5.3970  -11.7650 C   0  0  0  0  0  0  0  0  0  0  0  0
   -0.8790    5.8390  -10.5050 N   0  0  0  0  0  0  0  0  0  0  0  0
   -1.0450    5.4490   -7.5440 C   0  0  0  0  0  0  0  0  0  0  0  0
   -0.7920    5.5160   -6.1830 C   0  0  0  0  0  0  0  0  0  0  0  0
    0.3520    4.9330   -5.6440 C   0  0  0  0  0  0  0  0  0  0  0  0
    1.2230    4.2860   -6.5080 C   0  0  0  0  0  0  0  0  0  0  0  0
    4.4340    4.9190   -3.2320 C   0  0  0  0  0  0  0  0  0  0  0  0
    5.0740    6.0390   -3.7480 C   0  0  0  0  0  0  0  0  0  0  0  0
    5.6830    6.9470   -2.8810 C   0  0  0  0  0  0  0  0  0  0  0  0
    5.6470    6.7810   -1.5420 N   0  0  0  0  0  0  0  0  0  0  0  0
    5.0120    5.7070   -1.0430 C   0  0  0  0  0  0  0  0  0  0  0  0
    4.8470    5.3330    0.2460 N   0  0  0  0  0  0  0  0  0  0  0  0
    4.1480    4.1770    0.2770 C   0  0  0  0  0  0  0  0  0  0  0  0
    3.8470    3.7830   -0.9990 C   0  0  0  0  0  0  0  0  0  0  0  0
    4.3990    4.7580   -1.8520 C   0  0  0  0  0  0  0  0  0  0  0  0
  2  1  2  0
  3  2  1  0
  4  3  1  1
  5  4  1  0
  6  5  2  0
  7  6  1  0
  8  7  2  0
  9  8  1  0
 10  9  2  0
 10  5  1  0
 11 10  1  0
 12 11  2  0
 13 12  1  0
 14 13  2  0
 15 14  1  0
 16 15  2  0
 17 16  1  0
 18 17  2  0
 19 18  1  0
 20 15  1  0
 20 19  2  0
 21 20  1  0
 21 13  1  0
 22 12  1  0
 23 22  2  0
 24 23  1  0
 25 24  2  0
 25 11  1  0
 25  4  1  0
 26  2  1  0
 27 26  2  0
 28 27  1  0
 29 28  2  0
 30 29  1  0
 31 30  1  0
 32 31  1  0
 33 32  2  0
 34 33  1  0
 34 26  1  0
 34 30  2  0
M  END
$$$$
