
     RDKit          3D

 19 22  0  0  0  0  0  0  0  0999 V2000
    4.8410    7.8570    4.3960 C   0  0  0  0  0  0  0  0  0  0  0  0
    4.8400    8.6220    3.1100 C   0  0  0  0  0  0  0  0  0  0  0  0
    4.5030    9.8920    3.0030 N   0  0  0  0  0  0  0  0  0  0  0  0
    4.6100   10.2600    1.7050 C   0  0  0  0  0  0  0  0  0  0  0  0
    4.3530   11.4820    1.0680 C   0  0  0  0  0  0  0  0  0  0  0  0
    4.5330   11.6180   -0.2710 N   0  0  0  0  0  0  0  0  0  0  0  0
    4.9790   10.5580   -0.9680 C   0  0  0  0  0  0  0  0  0  0  0  0
    5.2300   10.4840   -2.2940 N   0  0  0  0  0  0  0  0  0  0  0  0
    5.6590    9.2250   -2.5730 C   0  0  0  0  0  0  0  0  0  0  0  0
    5.6830    8.4830   -1.4160 C   0  0  0  0  0  0  0  0  0  0  0  0
    5.2550    9.3020   -0.3840 C   0  0  0  0  0  0  0  0  0  0  0  0
    5.0570    9.1580    0.9910 C   0  0  0  0  0  0  0  0  0  0  0  0
    5.1800    8.1170    1.9120 N   0  0  0  0  0  0  0  0  0  0  0  0
    5.5400    6.7020    1.7690 C   0  0  2  0  0  0  0  0  0  0  0  0
    6.9750    6.4280    1.4010 C   0  0  0  0  0  0  0  0  0  0  0  0
    7.2410    4.9280    1.4360 C   0  0  0  0  0  0  0  0  0  0  0  0
    6.2720    4.1740    0.5910 N   0  0  0  0  0  0  0  0  0  0  0  0
    4.8800    4.4300    0.9610 C   0  0  0  0  0  0  0  0  0  0  0  0
    4.5550    5.9010    0.9000 C   0  0  0  0  0  0  0  0  0  0  0  0
  2  1  1  0
  3  2  2  0
  4  3  1  0
  5  4  2  0
  6  5  1  0
  7  6  2  0
  8  7  1  0
  9  8  1  0
 10  9  2  0
 11  7  1  0
 11 10  1  0
 12 11  2  0
 12  4  1  0
 13 12  1  0
 13  2  1  0
 14 13  1  6
 15 14  1  0
 16 15  1  0
 17 16  1  0
 18 17  1  0
 19 18  1  0
 19 14  1  0
M  CHG  1  17   1
M  END
$$$$
