3r88_ligand
     RDKit          3D

 24 24  0  0  0  0  0  0  0  0999 V2000
   11.8900  -19.3030  -15.0670 C   0  0  0  0  0  0  0  0  0  0  0  0
   11.6440  -19.6120  -13.7030 O   0  0  0  0  0  0  0  0  0  0  0  0
   10.4630  -20.2530  -13.4110 C   0  0  0  0  0  0  0  0  0  0  0  0
   10.1760  -21.5780  -13.7580 C   0  0  0  0  0  0  0  0  0  0  0  0
    8.9370  -22.1580  -13.4500 C   0  0  0  0  0  0  0  0  0  0  0  0
    8.7760  -23.5460  -13.7230 N   0  0  0  0  0  0  0  0  0  0  0  0
    7.9870  -21.4350  -12.7050 C   0  0  0  0  0  0  0  0  0  0  0  0
    6.6550  -22.0290  -12.2790 C   0  0  0  0  0  0  0  0  0  0  0  0
    6.6820  -22.9930  -11.4500 O   0  0  0  0  0  0  0  0  0  0  0  0
    5.6030  -21.5210  -12.7900 O   0  0  0  0  0  0  0  0  0  0  0  0
    8.2890  -20.1020  -12.3550 C   0  0  0  0  0  0  0  0  0  0  0  0
    9.5070  -19.5050  -12.7020 C   0  0  0  0  0  0  0  0  0  0  0  0
    9.8540  -18.2120  -12.3890 O   0  0  0  0  0  0  0  0  0  0  0  0
    9.0080  -17.1830  -12.8820 C   0  0  0  0  0  0  0  0  0  0  0  0
   12.5740  -18.4439  -15.1307 H   0  0  0  0  0  0  0  0  0  0  0  0
   12.3460  -20.1723  -15.5634 H   0  0  0  0  0  0  0  0  0  0  0  0
   10.9406  -19.0535  -15.5634 H   0  0  0  0  0  0  0  0  0  0  0  0
   10.9364  -22.1756  -14.2821 H   0  0  0  0  0  0  0  0  0  0  0  0
    9.2020  -23.7410  -14.6260 H   0  0  0  0  0  0  0  0  0  0  0  0
    9.4170  -24.0330  -13.0570 H   0  0  0  0  0  0  0  0  0  0  0  0
    7.5468  -19.5153  -11.7938 H   0  0  0  0  0  0  0  0  0  0  0  0
    8.5610  -16.6393  -12.0366 H   0  0  0  0  0  0  0  0  0  0  0  0
    9.5977  -16.4860  -13.4956 H   0  0  0  0  0  0  0  0  0  0  0  0
    8.2101  -17.6268  -13.4956 H   0  0  0  0  0  0  0  0  0  0  0  0
  1  2  1  0
  2  3  1  0
  3  4  2  0
  4  5  1  0
  5  6  1  0
  5  7  2  0
  7  8  1  0
  8  9  2  0
  8 10  1  0
  7 11  1  0
 11 12  2  0
 12 13  1  0
 13 14  1  0
 12  3  1  0
  1 15  1  0
  1 16  1  0
  1 17  1  0
  4 18  1  0
  6 19  1  0
  6 20  1  0
 11 21  1  0
 14 22  1  0
 14 23  1  0
 14 24  1  0
M  CHG  1  10  -1
M  END
>  <meeko>  (1) 
{"is_sidechain": [false], "free_energy": -6.018, "intermolecular_energy": -7.249, "internal_energy": -0.429}

$$$$
3r88_ligand
     RDKit          3D

 24 24  0  0  0  0  0  0  0  0999 V2000
    5.3150  -21.0960  -12.9060 C   0  0  0  0  0  0  0  0  0  0  0  0
    6.3190  -21.5770  -13.7880 O   0  0  0  0  0  0  0  0  0  0  0  0
    7.5900  -21.0830  -13.6160 C   0  0  0  0  0  0  0  0  0  0  0  0
    8.4610  -21.4820  -12.5950 C   0  0  0  0  0  0  0  0  0  0  0  0
    9.7370  -20.9150  -12.4650 C   0  0  0  0  0  0  0  0  0  0  0  0
   10.6040  -21.4680  -11.4810 N   0  0  0  0  0  0  0  0  0  0  0  0
   10.1960  -19.9880  -13.4190 C   0  0  0  0  0  0  0  0  0  0  0  0
   11.5910  -19.3890  -13.3740 C   0  0  0  0  0  0  0  0  0  0  0  0
   12.1170  -19.2150  -12.2300 O   0  0  0  0  0  0  0  0  0  0  0  0
   12.1330  -19.0960  -14.4900 O   0  0  0  0  0  0  0  0  0  0  0  0
    9.3120  -19.5970  -14.4480 C   0  0  0  0  0  0  0  0  0  0  0  0
    8.0200  -20.1280  -14.5520 C   0  0  0  0  0  0  0  0  0  0  0  0
    7.1180  -19.7840  -15.5310 O   0  0  0  0  0  0  0  0  0  0  0  0
    6.4880  -18.5170  -15.4070 C   0  0  0  0  0  0  0  0  0  0  0  0
    5.6366  -21.2501  -11.8654 H   0  0  0  0  0  0  0  0  0  0  0  0
    5.1535  -20.0227  -13.0847 H   0  0  0  0  0  0  0  0  0  0  0  0
    4.3774  -21.6427  -13.0847 H   0  0  0  0  0  0  0  0  0  0  0  0
    8.1384  -22.2546  -11.8815 H   0  0  0  0  0  0  0  0  0  0  0  0
   11.2980  -22.0380  -11.9580 H   0  0  0  0  0  0  0  0  0  0  0  0
   11.1710  -20.6620  -11.1320 H   0  0  0  0  0  0  0  0  0  0  0  0
    9.6469  -18.8553  -15.1881 H   0  0  0  0  0  0  0  0  0  0  0  0
    6.3657  -18.2710  -14.3419 H   0  0  0  0  0  0  0  0  0  0  0  0
    7.1094  -17.7495  -15.8916 H   0  0  0  0  0  0  0  0  0  0  0  0
    5.5010  -18.5493  -15.8916 H   0  0  0  0  0  0  0  0  0  0  0  0
  1  2  1  0
  2  3  1  0
  3  4  2  0
  4  5  1  0
  5  6  1  0
  5  7  2  0
  7  8  1  0
  8  9  2  0
  8 10  1  0
  7 11  1  0
 11 12  2  0
 12 13  1  0
 13 14  1  0
 12  3  1  0
  1 15  1  0
  1 16  1  0
  1 17  1  0
  4 18  1  0
  6 19  1  0
  6 20  1  0
 11 21  1  0
 14 22  1  0
 14 23  1  0
 14 24  1  0
M  CHG  1  10  -1
M  END
>  <meeko>  (2) 
{"is_sidechain": [false], "free_energy": -5.881, "intermolecular_energy": -7.142, "internal_energy": -0.372}

$$$$
3r88_ligand
     RDKit          3D

 24 24  0  0  0  0  0  0  0  0999 V2000
   10.6650  -16.1420  -11.9910 C   0  0  0  0  0  0  0  0  0  0  0  0
    9.4830  -16.5940  -12.6370 O   0  0  0  0  0  0  0  0  0  0  0  0
    9.2530  -17.9490  -12.6420 C   0  0  0  0  0  0  0  0  0  0  0  0
   10.1150  -18.8990  -12.0820 C   0  0  0  0  0  0  0  0  0  0  0  0
    9.8280  -20.2700  -12.1480 C   0  0  0  0  0  0  0  0  0  0  0  0
   10.6900  -21.1560  -11.4420 N   0  0  0  0  0  0  0  0  0  0  0  0
    8.6160  -20.7090  -12.7110 C   0  0  0  0  0  0  0  0  0  0  0  0
    8.2140  -22.1730  -12.7510 C   0  0  0  0  0  0  0  0  0  0  0  0
    7.2710  -22.5430  -11.9820 O   0  0  0  0  0  0  0  0  0  0  0  0
    8.8560  -22.9300  -13.5510 O   0  0  0  0  0  0  0  0  0  0  0  0
    7.7510  -19.7430  -13.2670 C   0  0  0  0  0  0  0  0  0  0  0  0
    8.0580  -18.3760  -13.2440 C   0  0  0  0  0  0  0  0  0  0  0  0
    7.2550  -17.3920  -13.7710 O   0  0  0  0  0  0  0  0  0  0  0  0
    6.9940  -17.4550  -15.1660 C   0  0  0  0  0  0  0  0  0  0  0  0
   10.5296  -16.1938  -10.9006 H   0  0  0  0  0  0  0  0  0  0  0  0
   11.5110  -16.7800  -12.2861 H   0  0  0  0  0  0  0  0  0  0  0  0
   10.8695  -15.1022  -12.2861 H   0  0  0  0  0  0  0  0  0  0  0  0
   11.0349  -18.5638  -11.5807 H   0  0  0  0  0  0  0  0  0  0  0  0
   11.4360  -20.6040  -11.0250 H   0  0  0  0  0  0  0  0  0  0  0  0
   10.1410  -21.4660  -10.6080 H   0  0  0  0  0  0  0  0  0  0  0  0
    6.8097  -20.0720  -13.7313 H   0  0  0  0  0  0  0  0  0  0  0  0
    5.9367  -17.7102  -15.3300 H   0  0  0  0  0  0  0  0  0  0  0  0
    7.2109  -16.4787  -15.6241 H   0  0  0  0  0  0  0  0  0  0  0  0
    7.6324  -18.2249  -15.6241 H   0  0  0  0  0  0  0  0  0  0  0  0
  1  2  1  0
  2  3  1  0
  3  4  2  0
  4  5  1  0
  5  6  1  0
  5  7  2  0
  7  8  1  0
  8  9  2  0
  8 10  1  0
  7 11  1  0
 11 12  2  0
 12 13  1  0
 13 14  1  0
 12  3  1  0
  1 15  1  0
  1 16  1  0
  1 17  1  0
  4 18  1  0
  6 19  1  0
  6 20  1  0
 11 21  1  0
 14 22  1  0
 14 23  1  0
 14 24  1  0
M  CHG  1  10  -1
M  END
>  <meeko>  (3) 
{"is_sidechain": [false], "free_energy": -5.816, "intermolecular_energy": -7.077, "internal_energy": -0.358}

$$$$
3r88_ligand
     RDKit          3D

 24 24  0  0  0  0  0  0  0  0999 V2000
   11.9250  -19.4530  -12.4980 C   0  0  0  0  0  0  0  0  0  0  0  0
   10.5790  -19.4310  -12.0460 O   0  0  0  0  0  0  0  0  0  0  0  0
    9.6430  -20.0470  -12.8420 C   0  0  0  0  0  0  0  0  0  0  0  0
    9.5790  -21.4280  -13.0630 C   0  0  0  0  0  0  0  0  0  0  0  0
    8.6110  -21.9850  -13.9100 C   0  0  0  0  0  0  0  0  0  0  0  0
    8.5350  -23.4050  -13.9780 N   0  0  0  0  0  0  0  0  0  0  0  0
    7.6260  -21.1630  -14.4900 C   0  0  0  0  0  0  0  0  0  0  0  0
    6.5090  -21.7130  -15.3620 C   0  0  0  0  0  0  0  0  0  0  0  0
    6.8070  -22.6410  -16.1780 O   0  0  0  0  0  0  0  0  0  0  0  0
    5.3530  -21.1980  -15.2160 O   0  0  0  0  0  0  0  0  0  0  0  0
    7.6960  -19.7730  -14.2560 C   0  0  0  0  0  0  0  0  0  0  0  0
    8.6910  -19.2090  -13.4480 C   0  0  0  0  0  0  0  0  0  0  0  0
    8.8080  -17.8650  -13.1860 O   0  0  0  0  0  0  0  0  0  0  0  0
    7.8320  -17.0110  -13.7680 C   0  0  0  0  0  0  0  0  0  0  0  0
   12.6026  -19.4641  -11.6316 H   0  0  0  0  0  0  0  0  0  0  0  0
   12.0928  -20.3540  -13.1063 H   0  0  0  0  0  0  0  0  0  0  0  0
   12.1222  -18.5580  -13.1063 H   0  0  0  0  0  0  0  0  0  0  0  0
   10.3022  -22.0886  -12.5624 H   0  0  0  0  0  0  0  0  0  0  0  0
    9.4780  -23.7750  -13.8850 H   0  0  0  0  0  0  0  0  0  0  0  0
    8.0850  -23.6990  -13.0820 H   0  0  0  0  0  0  0  0  0  0  0  0
    6.9480  -19.1142  -14.7213 H   0  0  0  0  0  0  0  0  0  0  0  0
    7.2607  -16.5111  -12.9719 H   0  0  0  0  0  0  0  0  0  0  0  0
    8.3315  -16.2546  -14.3912 H   0  0  0  0  0  0  0  0  0  0  0  0
    7.1486  -17.6064  -14.3912 H   0  0  0  0  0  0  0  0  0  0  0  0
  1  2  1  0
  2  3  1  0
  3  4  2  0
  4  5  1  0
  5  6  1  0
  5  7  2  0
  7  8  1  0
  8  9  2  0
  8 10  1  0
  7 11  1  0
 11 12  2  0
 12 13  1  0
 13 14  1  0
 12  3  1  0
  1 15  1  0
  1 16  1  0
  1 17  1  0
  4 18  1  0
  6 19  1  0
  6 20  1  0
 11 21  1  0
 14 22  1  0
 14 23  1  0
 14 24  1  0
M  CHG  1  10  -1
M  END
>  <meeko>  (4) 
{"is_sidechain": [false], "free_energy": -5.775, "intermolecular_energy": -6.995, "internal_energy": -0.391}

$$$$
3r88_ligand
     RDKit          3D

 24 24  0  0  0  0  0  0  0  0999 V2000
    3.6900  -21.1290  -15.0490 C   0  0  0  0  0  0  0  0  0  0  0  0
    4.4860  -20.1550  -14.3900 O   0  0  0  0  0  0  0  0  0  0  0  0
    5.7010  -20.5700  -13.8990 C   0  0  0  0  0  0  0  0  0  0  0  0
    5.8610  -21.5180  -12.8830 C   0  0  0  0  0  0  0  0  0  0  0  0
    7.1330  -21.8750  -12.4140 C   0  0  0  0  0  0  0  0  0  0  0  0
    7.2130  -22.9380  -11.4710 N   0  0  0  0  0  0  0  0  0  0  0  0
    8.2830  -21.3390  -13.0230 C   0  0  0  0  0  0  0  0  0  0  0  0
    9.6900  -21.7350  -12.6090 C   0  0  0  0  0  0  0  0  0  0  0  0
   10.4070  -20.8470  -12.0480 O   0  0  0  0  0  0  0  0  0  0  0  0
   10.0550  -22.9300  -12.8600 O   0  0  0  0  0  0  0  0  0  0  0  0
    8.1110  -20.3880  -14.0510 C   0  0  0  0  0  0  0  0  0  0  0  0
    6.8400  -19.9950  -14.4890 C   0  0  0  0  0  0  0  0  0  0  0  0
    6.6130  -19.0740  -15.4840 O   0  0  0  0  0  0  0  0  0  0  0  0
    6.9560  -17.7250  -15.2010 C   0  0  0  0  0  0  0  0  0  0  0  0
    3.1799  -21.7531  -14.3005 H   0  0  0  0  0  0  0  0  0  0  0  0
    2.9413  -20.6258  -15.6785 H   0  0  0  0  0  0  0  0  0  0  0  0
    4.3322  -21.7625  -15.6785 H   0  0  0  0  0  0  0  0  0  0  0  0
    4.9714  -21.9927  -12.4434 H   0  0  0  0  0  0  0  0  0  0  0  0
    8.1960  -23.1180  -11.2820 H   0  0  0  0  0  0  0  0  0  0  0  0
    6.8780  -22.5310  -10.5690 H   0  0  0  0  0  0  0  0  0  0  0  0
    9.0000  -19.9428  -14.5216 H   0  0  0  0  0  0  0  0  0  0  0  0
    6.9936  -17.5770  -14.1116 H   0  0  0  0  0  0  0  0  0  0  0  0
    7.9405  -17.4980  -15.6361 H   0  0  0  0  0  0  0  0  0  0  0  0
    6.1996  -17.0553  -15.6361 H   0  0  0  0  0  0  0  0  0  0  0  0
  1  2  1  0
  2  3  1  0
  3  4  2  0
  4  5  1  0
  5  6  1  0
  5  7  2  0
  7  8  1  0
  8  9  2  0
  8 10  1  0
  7 11  1  0
 11 12  2  0
 12 13  1  0
 13 14  1  0
 12  3  1  0
  1 15  1  0
  1 16  1  0
  1 17  1  0
  4 18  1  0
  6 19  1  0
  6 20  1  0
 11 21  1  0
 14 22  1  0
 14 23  1  0
 14 24  1  0
M  CHG  1  10  -1
M  END
>  <meeko>  (5) 
{"is_sidechain": [false], "free_energy": -5.74, "intermolecular_energy": -6.933, "internal_energy": -0.411}

$$$$
3r88_ligand
     RDKit          3D

 24 24  0  0  0  0  0  0  0  0999 V2000
    3.4590  -21.5380  -15.2140 C   0  0  0  0  0  0  0  0  0  0  0  0
    3.6850  -20.6220  -14.1510 O   0  0  0  0  0  0  0  0  0  0  0  0
    4.9580  -20.5690  -13.6340 C   0  0  0  0  0  0  0  0  0  0  0  0
    5.5620  -21.6060  -12.9140 C   0  0  0  0  0  0  0  0  0  0  0  0
    6.8560  -21.4710  -12.3920 C   0  0  0  0  0  0  0  0  0  0  0  0
    7.4440  -22.6170  -11.7850 N   0  0  0  0  0  0  0  0  0  0  0  0
    7.6060  -20.3100  -12.6600 C   0  0  0  0  0  0  0  0  0  0  0  0
    9.0370  -20.1300  -12.1830 C   0  0  0  0  0  0  0  0  0  0  0  0
    9.8950  -20.9860  -12.5700 O   0  0  0  0  0  0  0  0  0  0  0  0
    9.2750  -19.1350  -11.4220 O   0  0  0  0  0  0  0  0  0  0  0  0
    6.9890  -19.2730  -13.3920 C   0  0  0  0  0  0  0  0  0  0  0  0
    5.6790  -19.3870  -13.8740 C   0  0  0  0  0  0  0  0  0  0  0  0
    5.0290  -18.4110  -14.5910 O   0  0  0  0  0  0  0  0  0  0  0  0
    5.4960  -18.1640  -15.9100 C   0  0  0  0  0  0  0  0  0  0  0  0
    3.2149  -22.5274  -14.7998 H   0  0  0  0  0  0  0  0  0  0  0  0
    2.6216  -21.1826  -15.8324 H   0  0  0  0  0  0  0  0  0  0  0  0
    4.3656  -21.6129  -15.8324 H   0  0  0  0  0  0  0  0  0  0  0  0
    5.0110  -22.5446  -12.7547 H   0  0  0  0  0  0  0  0  0  0  0  0
    8.4490  -22.5690  -11.9300 H   0  0  0  0  0  0  0  0  0  0  0  0
    7.3530  -22.4590  -10.7560 H   0  0  0  0  0  0  0  0  0  0  0  0
    7.5528  -18.3494  -13.5895 H   0  0  0  0  0  0  0  0  0  0  0  0
    6.4675  -17.6501  -15.8648 H   0  0  0  0  0  0  0  0  0  0  0  0
    5.6109  -19.1193  -16.4432 H   0  0  0  0  0  0  0  0  0  0  0  0
    4.7711  -17.5314  -16.4432 H   0  0  0  0  0  0  0  0  0  0  0  0
  1  2  1  0
  2  3  1  0
  3  4  2  0
  4  5  1  0
  5  6  1  0
  5  7  2  0
  7  8  1  0
  8  9  2  0
  8 10  1  0
  7 11  1  0
 11 12  2  0
 12 13  1  0
 13 14  1  0
 12  3  1  0
  1 15  1  0
  1 16  1  0
  1 17  1  0
  4 18  1  0
  6 19  1  0
  6 20  1  0
 11 21  1  0
 14 22  1  0
 14 23  1  0
 14 24  1  0
M  CHG  1  10  -1
M  END
>  <meeko>  (6) 
{"is_sidechain": [false], "free_energy": -5.725, "intermolecular_energy": -6.883, "internal_energy": -0.443}

$$$$
3r88_ligand
     RDKit          3D

 24 24  0  0  0  0  0  0  0  0999 V2000
    6.3360  -15.9170  -14.7860 C   0  0  0  0  0  0  0  0  0  0  0  0
    6.4750  -17.3260  -14.9020 O   0  0  0  0  0  0  0  0  0  0  0  0
    7.5360  -17.9040  -14.2460 C   0  0  0  0  0  0  0  0  0  0  0  0
    8.3090  -17.2610  -13.2730 C   0  0  0  0  0  0  0  0  0  0  0  0
    9.3950  -17.9050  -12.6630 C   0  0  0  0  0  0  0  0  0  0  0  0
   10.0460  -17.2270  -11.5950 N   0  0  0  0  0  0  0  0  0  0  0  0
    9.6730  -19.2520  -12.9640 C   0  0  0  0  0  0  0  0  0  0  0  0
   10.7910  -20.0280  -12.2880 C   0  0  0  0  0  0  0  0  0  0  0  0
   11.9460  -19.4950  -12.2700 O   0  0  0  0  0  0  0  0  0  0  0  0
   10.4920  -21.1640  -11.7920 O   0  0  0  0  0  0  0  0  0  0  0  0
    8.8840  -19.8930  -13.9420 C   0  0  0  0  0  0  0  0  0  0  0  0
    7.8280  -19.2360  -14.5860 C   0  0  0  0  0  0  0  0  0  0  0  0
    7.0270  -19.8100  -15.5450 O   0  0  0  0  0  0  0  0  0  0  0  0
    6.4790  -21.0860  -15.2440 C   0  0  0  0  0  0  0  0  0  0  0  0
    6.3084  -15.6376  -13.7224 H   0  0  0  0  0  0  0  0  0  0  0  0
    7.1898  -15.4230  -15.2729 H   0  0  0  0  0  0  0  0  0  0  0  0
    5.4022  -15.5994  -15.2729 H   0  0  0  0  0  0  0  0  0  0  0  0
    8.0599  -16.2302  -12.9809 H   0  0  0  0  0  0  0  0  0  0  0  0
    9.3320  -16.8910  -10.9530 H   0  0  0  0  0  0  0  0  0  0  0  0
   10.5180  -17.9770  -11.0410 H   0  0  0  0  0  0  0  0  0  0  0  0
    9.1042  -20.9378  -14.2062 H   0  0  0  0  0  0  0  0  0  0  0  0
    6.4243  -21.2134  -14.1528 H   0  0  0  0  0  0  0  0  0  0  0  0
    5.4690  -21.1618  -15.6731 H   0  0  0  0  0  0  0  0  0  0  0  0
    7.1195  -21.8706  -15.6731 H   0  0  0  0  0  0  0  0  0  0  0  0
  1  2  1  0
  2  3  1  0
  3  4  2  0
  4  5  1  0
  5  6  1  0
  5  7  2  0
  7  8  1  0
  8  9  2  0
  8 10  1  0
  7 11  1  0
 11 12  2  0
 12 13  1  0
 13 14  1  0
 12  3  1  0
  1 15  1  0
  1 16  1  0
  1 17  1  0
  4 18  1  0
  6 19  1  0
  6 20  1  0
 11 21  1  0
 14 22  1  0
 14 23  1  0
 14 24  1  0
M  CHG  1  10  -1
M  END
>  <meeko>  (7) 
{"is_sidechain": [false], "free_energy": -5.68, "intermolecular_energy": -6.864, "internal_energy": -0.408}

$$$$
3r88_ligand
     RDKit          3D

 24 24  0  0  0  0  0  0  0  0999 V2000
    9.6730  -18.4470  -13.2790 C   0  0  0  0  0  0  0  0  0  0  0  0
    9.3680  -19.2430  -14.4150 O   0  0  0  0  0  0  0  0  0  0  0  0
    8.0370  -19.4050  -14.7240 C   0  0  0  0  0  0  0  0  0  0  0  0
    7.2290  -18.4090  -15.2830 C   0  0  0  0  0  0  0  0  0  0  0  0
    5.8710  -18.6380  -15.5480 C   0  0  0  0  0  0  0  0  0  0  0  0
    5.1540  -17.6180  -16.2340 N   0  0  0  0  0  0  0  0  0  0  0  0
    5.3170  -19.9130  -15.3300 C   0  0  0  0  0  0  0  0  0  0  0  0
    3.8720  -20.2460  -15.6600 C   0  0  0  0  0  0  0  0  0  0  0  0
    3.6600  -21.2340  -16.4330 O   0  0  0  0  0  0  0  0  0  0  0  0
    2.9720  -19.5050  -15.1430 O   0  0  0  0  0  0  0  0  0  0  0  0
    6.1420  -20.9120  -14.7720 C   0  0  0  0  0  0  0  0  0  0  0  0
    7.4870  -20.6710  -14.4630 C   0  0  0  0  0  0  0  0  0  0  0  0
    8.3370  -21.6050  -13.9180 O   0  0  0  0  0  0  0  0  0  0  0  0
    8.1380  -21.9310  -12.5500 C   0  0  0  0  0  0  0  0  0  0  0  0
    9.4549  -19.0161  -12.3633 H   0  0  0  0  0  0  0  0  0  0  0  0
   10.7388  -18.1756  -13.2969 H   0  0  0  0  0  0  0  0  0  0  0  0
    9.0615  -17.5328  -13.2969 H   0  0  0  0  0  0  0  0  0  0  0  0
    7.6670  -17.4280  -15.5191 H   0  0  0  0  0  0  0  0  0  0  0  0
    5.4000  -16.7240  -15.8150 H   0  0  0  0  0  0  0  0  0  0  0  0
    5.5990  -17.5570  -17.1780 H   0  0  0  0  0  0  0  0  0  0  0  0
    5.7176  -21.9074  -14.5741 H   0  0  0  0  0  0  0  0  0  0  0  0
    8.6071  -21.1626  -11.9180 H   0  0  0  0  0  0  0  0  0  0  0  0
    7.0598  -21.9735  -12.3363 H   0  0  0  0  0  0  0  0  0  0  0  0
    8.5930  -22.9094  -12.3363 H   0  0  0  0  0  0  0  0  0  0  0  0
  1  2  1  0
  2  3  1  0
  3  4  2  0
  4  5  1  0
  5  6  1  0
  5  7  2  0
  7  8  1  0
  8  9  2  0
  8 10  1  0
  7 11  1  0
 11 12  2  0
 12 13  1  0
 13 14  1  0
 12  3  1  0
  1 15  1  0
  1 16  1  0
  1 17  1  0
  4 18  1  0
  6 19  1  0
  6 20  1  0
 11 21  1  0
 14 22  1  0
 14 23  1  0
 14 24  1  0
M  CHG  1  10  -1
M  END
>  <meeko>  (8) 
{"is_sidechain": [false], "free_energy": -5.602, "intermolecular_energy": -6.746, "internal_energy": -0.432}

$$$$
3r88_ligand
     RDKit          3D

 24 24  0  0  0  0  0  0  0  0999 V2000
    9.9600  -22.6350  -13.1710 C   0  0  0  0  0  0  0  0  0  0  0  0
    9.4770  -21.6090  -12.3150 O   0  0  0  0  0  0  0  0  0  0  0  0
    8.2990  -20.9980  -12.6770 C   0  0  0  0  0  0  0  0  0  0  0  0
    7.0470  -21.6240  -12.6620 C   0  0  0  0  0  0  0  0  0  0  0  0
    5.8900  -20.9450  -13.0690 C   0  0  0  0  0  0  0  0  0  0  0  0
    4.6440  -21.6120  -12.9020 N   0  0  0  0  0  0  0  0  0  0  0  0
    5.9600  -19.5840  -13.4220 C   0  0  0  0  0  0  0  0  0  0  0  0
    4.7340  -18.7730  -13.8070 C   0  0  0  0  0  0  0  0  0  0  0  0
    4.0530  -19.1780  -14.8010 O   0  0  0  0  0  0  0  0  0  0  0  0
    4.4790  -17.7390  -13.1060 O   0  0  0  0  0  0  0  0  0  0  0  0
    7.2260  -18.9610  -13.4270 C   0  0  0  0  0  0  0  0  0  0  0  0
    8.3900  -19.6510  -13.0660 C   0  0  0  0  0  0  0  0  0  0  0  0
    9.6480  -19.0960  -13.0530 O   0  0  0  0  0  0  0  0  0  0  0  0
    9.8660  -18.0200  -12.1520 C   0  0  0  0  0  0  0  0  0  0  0  0
   10.3508  -23.4651  -12.5642 H   0  0  0  0  0  0  0  0  0  0  0  0
    9.1390  -22.9997  -13.8058 H   0  0  0  0  0  0  0  0  0  0  0  0
   10.7642  -22.2346  -13.8058 H   0  0  0  0  0  0  0  0  0  0  0  0
    6.9696  -22.6681  -12.3246 H   0  0  0  0  0  0  0  0  0  0  0  0
    4.4780  -21.7230  -11.9050 H   0  0  0  0  0  0  0  0  0  0  0  0
    3.9190  -20.9110  -13.1780 H   0  0  0  0  0  0  0  0  0  0  0  0
    7.3008  -17.9041  -13.7226 H   0  0  0  0  0  0  0  0  0  0  0  0
    9.7916  -18.3870  -11.1177 H   0  0  0  0  0  0  0  0  0  0  0  0
   10.8679  -17.5981  -12.3202 H   0  0  0  0  0  0  0  0  0  0  0  0
    9.1073  -17.2415  -12.3202 H   0  0  0  0  0  0  0  0  0  0  0  0
  1  2  1  0
  2  3  1  0
  3  4  2  0
  4  5  1  0
  5  6  1  0
  5  7  2  0
  7  8  1  0
  8  9  2  0
  8 10  1  0
  7 11  1  0
 11 12  2  0
 12 13  1  0
 13 14  1  0
 12  3  1  0
  1 15  1  0
  1 16  1  0
  1 17  1  0
  4 18  1  0
  6 19  1  0
  6 20  1  0
 11 21  1  0
 14 22  1  0
 14 23  1  0
 14 24  1  0
M  CHG  1  10  -1
M  END
>  <meeko>  (9) 
{"is_sidechain": [false], "free_energy": -5.5, "intermolecular_energy": -6.64, "internal_energy": -0.414}

$$$$
