
     RDKit          3D

 18 18  0  0  0  0  0  0  0  0999 V2000
   12.4420   -7.3410   -3.3830 C   0  0  0  0  0  0  0  0  0  0  0  0
   11.8520   -7.9100   -4.5710 N   0  0  0  0  0  0  0  0  0  0  0  0
   12.4310   -7.7260   -5.7810 N   0  0  0  0  0  0  0  0  0  0  0  0
   13.2540   -6.8060   -5.9180 O   0  0  0  0  0  0  0  0  0  0  0  0
   10.7000   -8.6540   -4.5040 C   0  0  0  0  0  0  0  0  0  0  0  0
   10.0830   -8.7120   -3.4770 O   0  0  0  0  0  0  0  0  0  0  0  0
   10.3280   -9.3230   -5.6640 N   0  0  0  0  0  0  0  0  0  0  0  0
    9.0870  -10.0570   -5.7950 C   0  0  2  0  0  0  0  0  0  0  0  0
    7.9710   -9.0200   -6.0880 C   0  0  1  0  0  0  0  0  0  0  0  0
    8.1410   -8.5040   -7.3950 O   0  0  0  0  0  0  0  0  0  0  0  0
    6.6130   -9.6670   -5.9560 C   0  0  2  0  0  0  0  0  0  0  0  0
    5.5960   -8.6510   -6.1170 O   0  0  0  0  0  0  0  0  0  0  0  0
    6.4920  -10.3180   -4.5960 C   0  0  1  0  0  0  0  0  0  0  0  0
    5.1230  -10.8860   -4.3130 C   0  0  0  0  0  0  0  0  0  0  0  0
    4.7810  -11.8710   -5.2780 O   0  0  0  0  0  0  0  0  0  0  0  0
    7.4690  -11.3870   -4.5520 O   0  0  0  0  0  0  0  0  0  0  0  0
    8.8080  -10.9130   -4.5670 C   0  0  1  0  0  0  0  0  0  0  0  0
    9.6600  -12.0280   -4.6040 O   0  0  0  0  0  0  0  0  0  0  0  0
  2  1  1  0
  3  2  1  0
  4  3  2  0
  5  2  1  0
  6  5  2  0
  7  5  1  0
  8  7  1  1
  9  8  1  0
  9 10  1  6
 11  9  1  0
 11 12  1  1
 13 11  1  0
 13 14  1  6
 15 14  1  0
 16 13  1  0
 17 16  1  0
 17  8  1  0
 17 18  1  6
M  END
$$$$
