
     RDKit          3D

 21 23  0  0  0  0  0  0  0  0999 V2000
   -8.4020    9.3360    3.5560 O   0  0  0  0  0  0  0  0  0  0  0  0
   -8.5300    9.3790    2.3430 C   0  0  0  0  0  0  0  0  0  0  0  0
   -8.9900    8.3020    1.6340 N   0  0  0  0  0  0  0  0  0  0  0  0
   -9.3190    7.0370    2.1300 C   0  0  0  0  0  0  0  0  0  0  0  0
   -9.7390    6.8200    3.4420 C   0  0  0  0  0  0  0  0  0  0  0  0
  -10.0270    5.5230    3.8900 C   0  0  0  0  0  0  0  0  0  0  0  0
   -9.9060    4.4480    2.9990 C   0  0  0  0  0  0  0  0  0  0  0  0
   -9.4930    4.6780    1.6730 C   0  0  0  0  0  0  0  0  0  0  0  0
   -9.3410    3.5560    0.7160 C   0  0  0  0  0  0  0  0  0  0  0  0
   -9.2190    3.6820   -0.6080 N   0  0  0  0  0  0  0  0  0  0  0  0
   -9.1090    2.4290   -1.1120 N   0  0  0  0  0  0  0  0  0  0  0  0
   -9.1490    1.5810   -0.1170 N   0  0  0  0  0  0  0  0  0  0  0  0
   -9.2920    2.2680    1.0260 N   0  0  0  0  0  0  0  0  0  0  0  0
   -9.2050    5.9690    1.2470 C   0  0  0  0  0  0  0  0  0  0  0  0
   -8.1720   10.6130    1.5780 C   0  0  0  0  0  0  0  0  0  0  0  0
   -8.5190   10.7480    0.2290 C   0  0  0  0  0  0  0  0  0  0  0  0
   -8.1640   11.8960   -0.4850 C   0  0  0  0  0  0  0  0  0  0  0  0
   -7.4460   12.8970    0.1620 C   0  0  0  0  0  0  0  0  0  0  0  0
   -7.1110   12.7410    1.4950 C   0  0  0  0  0  0  0  0  0  0  0  0
   -6.1000   14.1080    2.3970 Br  0  0  0  0  0  0  0  0  0  0  0  0
   -7.4770   11.6220    2.2020 C   0  0  0  0  0  0  0  0  0  0  0  0
  2  1  2  0
  3  2  1  0
  4  3  1  0
  5  4  2  0
  6  5  1  0
  7  6  2  0
  8  7  1  0
  9  8  1  0
 10  9  2  0
 11 10  1  0
 12 11  1  0
 13 12  2  0
 13  9  1  0
 14  8  2  0
 14  4  1  0
 15  2  1  0
 16 15  2  0
 17 16  1  0
 18 17  2  0
 19 18  1  0
 20 19  1  0
 21 15  1  0
 21 19  2  0
M  END
$$$$
