
     RDKit          3D

 31 33  0  0  0  0  0  0  0  0999 V2000
    5.0290   -3.4510   14.3490 C   0  0  0  0  0  0  0  0  0  0  0  0
    5.9680   -3.4100   15.0410 C   0  0  0  0  0  0  0  0  0  0  0  0
    7.1430   -3.3530   15.8290 C   0  0  0  0  0  0  0  0  0  0  0  0
    8.3540   -3.0510   15.2360 C   0  0  0  0  0  0  0  0  0  0  0  0
    9.4980   -2.9910   15.9890 C   0  0  0  0  0  0  0  0  0  0  0  0
   10.7240   -2.6740   15.3570 C   0  0  0  0  0  0  0  0  0  0  0  0
   11.7530   -2.4540   14.7880 C   0  0  0  0  0  0  0  0  0  0  0  0
   13.0000   -2.1830   14.1440 C   0  0  0  0  0  0  0  0  0  0  0  0
   13.3770   -0.8650   14.3510 O   0  0  0  0  0  0  0  0  0  0  0  0
   14.3120   -0.5560   15.2630 C   0  0  0  0  0  0  0  0  0  0  0  0
   15.0090    0.6520   15.1490 C   0  0  0  0  0  0  0  0  0  0  0  0
   15.9500    0.9900   16.0790 C   0  0  0  0  0  0  0  0  0  0  0  0
   16.2220    0.1550   17.1520 C   0  0  0  0  0  0  0  0  0  0  0  0
   15.5210   -1.0310   17.2880 C   0  0  0  0  0  0  0  0  0  0  0  0
   14.5820   -1.3770   16.3540 C   0  0  0  0  0  0  0  0  0  0  0  0
    9.4630   -3.2270   17.3470 C   0  0  0  0  0  0  0  0  0  0  0  0
    8.2620   -3.5410   17.9610 C   0  0  0  0  0  0  0  0  0  0  0  0
    8.2540   -3.7980   19.4370 C   0  0  0  0  0  0  0  0  0  0  0  0
    7.4140   -4.8690   19.8930 N   0  0  0  0  0  0  0  0  0  0  0  0
    7.9090   -6.1730   19.4490 C   0  0  0  0  0  0  0  0  0  0  0  0
    7.0100   -7.2910   19.9650 C   0  0  0  0  0  0  0  0  0  0  0  0
    6.8850   -7.2260   21.4650 C   0  0  2  0  0  0  0  0  0  0  0  0
    5.8970   -8.1920   21.9700 N   0  0  0  0  0  0  0  0  0  0  0  0
    5.8860   -8.1240   23.4520 C   0  0  0  0  0  0  0  0  0  0  0  0
    4.5120   -8.1100   24.0150 C   0  0  0  0  0  0  0  0  0  0  0  0
    6.1300   -9.5660   21.5230 C   0  0  0  0  0  0  0  0  0  0  0  0
    4.9150  -10.4260   21.6840 C   0  0  0  0  0  0  0  0  0  0  0  0
    6.4200   -5.8740   21.8720 C   0  0  0  0  0  0  0  0  0  0  0  0
    7.3400   -4.8060   21.3550 C   0  0  0  0  0  0  0  0  0  0  0  0
    7.1050   -3.6100   17.2250 C   0  0  0  0  0  0  0  0  0  0  0  0
    5.9330   -3.9280   17.8300 O   0  0  0  0  0  0  0  0  0  0  0  0
  2  1  3  0
  3  2  1  0
  4  3  2  0
  5  4  1  0
  6  5  1  0
  7  6  3  0
  8  7  1  0
  9  8  1  0
 10  9  1  0
 11 10  2  0
 12 11  1  0
 13 12  2  0
 14 13  1  0
 15 10  1  0
 15 14  2  0
 16  5  2  0
 17 16  1  0
 18 17  1  0
 19 18  1  0
 20 19  1  0
 21 20  1  0
 22 21  1  0
 22 23  1  6
 24 23  1  0
 25 24  1  0
 26 23  1  0
 27 26  1  0
 28 22  1  0
 29 28  1  0
 29 19  1  0
 30  3  1  0
 30 17  2  0
 31 30  1  0
M  CHG  2  19   1  23   1
M  END
$$$$
