
     RDKit          3D

 38 42  0  0  0  0  0  0  0  0999 V2000
   -2.9960   -5.0320   -3.0870 C   0  0  0  0  0  0  0  0  0  0  0  0
   -3.2730   -6.5140   -2.9390 C   0  0  0  0  0  0  0  0  0  0  0  0
   -2.5920   -7.0760   -1.7310 C   0  0  0  0  0  0  0  0  0  0  0  0
   -1.2220   -6.9310   -1.6120 C   0  0  0  0  0  0  0  0  0  0  0  0
   -0.5390   -7.4380   -0.5320 C   0  0  0  0  0  0  0  0  0  0  0  0
   -1.2180   -8.1190    0.4680 C   0  0  0  0  0  0  0  0  0  0  0  0
   -0.5250   -8.6540    1.5610 C   0  0  0  0  0  0  0  0  0  0  0  0
   -1.2190   -9.3450    2.5410 C   0  0  0  0  0  0  0  0  0  0  0  0
   -2.5920   -9.5170    2.4470 C   0  0  0  0  0  0  0  0  0  0  0  0
   -3.2790   -8.9950    1.3960 C   0  0  0  0  0  0  0  0  0  0  0  0
   -2.6170   -8.2840    0.3760 C   0  0  0  0  0  0  0  0  0  0  0  0
   -3.3280   -7.7550   -0.7390 C   0  0  0  0  0  0  0  0  0  0  0  0
   -4.8300   -7.9230   -0.8740 C   0  0  0  0  0  0  0  0  0  0  0  0
   -5.2430   -9.3280   -0.8440 N   0  0  0  0  0  0  0  0  0  0  0  0
   -6.0560   -9.9230   -1.7550 C   0  0  0  0  0  0  0  0  0  0  0  0
   -6.4880   -9.3040   -2.6880 O   0  0  0  0  0  0  0  0  0  0  0  0
   -6.3750  -11.3690   -1.5740 C   0  0  0  0  0  0  0  0  0  0  0  0
   -6.2770  -12.0390   -0.3320 C   0  0  0  0  0  0  0  0  0  0  0  0
   -5.8480  -11.3390    0.7420 O   0  0  0  0  0  0  0  0  0  0  0  0
   -5.7940  -11.9860    2.0100 C   0  0  0  0  0  0  0  0  0  0  0  0
   -6.6210  -13.3990   -0.2370 C   0  0  0  0  0  0  0  0  0  0  0  0
   -7.0820  -14.1190   -1.3450 C   0  0  0  0  0  0  0  0  0  0  0  0
   -7.4320  -15.4090   -1.2410 O   0  0  0  0  0  0  0  0  0  0  0  0
   -7.1560  -13.4710   -2.5670 C   0  0  0  0  0  0  0  0  0  0  0  0
   -6.8050  -12.1180   -2.6520 C   0  0  0  0  0  0  0  0  0  0  0  0
   -6.9190  -11.6660   -3.9400 O   0  0  0  0  0  0  0  0  0  0  0  0
   -7.1280  -12.7920   -4.7370 C   0  0  0  0  0  0  0  0  0  0  0  0
   -6.8030  -12.9030   -6.0770 C   0  0  0  0  0  0  0  0  0  0  0  0
   -6.7600  -14.2360   -6.6530 C   0  0  0  0  0  0  0  0  0  0  0  0
   -6.5020  -14.3290   -7.9240 O   0  0  0  0  0  0  0  0  0  0  0  0
   -6.9540  -15.3850   -5.8640 C   0  0  0  0  0  0  0  0  0  0  0  0
   -6.8180  -16.7290   -6.4310 C   0  0  0  0  0  0  0  0  0  0  0  0
   -7.3880  -17.0320   -7.7750 C   0  0  0  0  0  0  0  0  0  0  0  0
   -6.2950  -17.6370   -5.7600 O   0  0  0  0  0  0  0  0  0  0  0  0
   -7.2780  -15.2330   -4.4440 C   0  0  0  0  0  0  0  0  0  0  0  0
   -7.3380  -16.2510   -3.7230 O   0  0  0  0  0  0  0  0  0  0  0  0
   -7.6600  -13.9030   -3.9140 C   0  0  1  0  0  0  0  0  0  0  0  0
   -9.2050  -13.8550   -3.9560 C   0  0  0  0  0  0  0  0  0  0  0  0
  2  1  1  0
  3  2  1  0
  4  3  2  0
  5  4  1  0
  6  5  2  0
  7  6  1  0
  8  7  2  0
  9  8  1  0
 10  9  2  0
 11 10  1  0
 11  6  1  0
 12 11  2  0
 12  3  1  0
 13 12  1  0
 14 13  1  0
 15 14  1  0
 16 15  2  0
 17 15  1  0
 18 17  2  0
 19 18  1  0
 20 19  1  0
 21 18  1  0
 22 21  2  0
 23 22  1  0
 24 22  1  0
 25 24  2  0
 25 17  1  0
 26 25  1  0
 27 26  1  0
 28 27  2  0
 29 28  1  0
 30 29  1  0
 31 29  2  0
 32 31  1  0
 33 32  1  0
 34 32  2  0
 35 31  1  0
 36 35  2  0
 37 35  1  0
 37 27  1  0
 37 24  1  0
 37 38  1  1
M  END
$$$$
