
     RDKit          3D

 24 25  0  0  0  0  0  0  0  0999 V2000
  -25.2350   -0.8290   -4.5660 C   0  0  0  0  0  0  0  0  0  0  0  0
  -23.8250   -0.3800   -4.3480 C   0  0  0  0  0  0  0  0  0  0  0  0
  -23.5490   -0.1090   -2.8940 N   0  0  0  0  0  0  0  0  0  0  0  0
  -22.5080    0.9360   -2.7040 C   0  0  0  0  0  0  0  0  0  0  0  0
  -23.1160    2.2810   -2.2900 C   0  0  0  0  0  0  0  0  0  0  0  0
  -23.2340   -1.3650   -2.1610 C   0  0  2  0  0  0  0  0  0  0  0  0
  -23.2810   -1.1130   -0.6710 C   0  0  0  0  0  0  0  0  0  0  0  0
  -22.9800   -2.3940    0.0930 C   0  0  0  0  0  0  0  0  0  0  0  0
  -21.6480   -2.8950   -0.2840 N   0  0  0  0  0  0  0  0  0  0  0  0
  -21.3690   -4.0630    0.5350 C   0  0  0  0  0  0  0  0  0  0  0  0
  -19.9680   -4.5420    0.5980 C   0  0  0  0  0  0  0  0  0  0  0  0
  -19.7050   -5.8940    0.6800 C   0  0  0  0  0  0  0  0  0  0  0  0
  -18.4020   -6.3780    0.7350 C   0  0  0  0  0  0  0  0  0  0  0  0
  -18.1320   -7.7670    0.8080 C   0  0  0  0  0  0  0  0  0  0  0  0
  -17.8770   -8.9260    0.8490 C   0  0  0  0  0  0  0  0  0  0  0  0
  -17.5750  -10.3520    0.9240 C   0  0  0  0  0  0  0  0  0  0  0  0
  -18.3730  -11.0210    1.8000 O   0  0  0  0  0  0  0  0  0  0  0  0
  -17.3310   -5.4710    0.7190 C   0  0  0  0  0  0  0  0  0  0  0  0
  -17.5540   -4.1240    0.6550 C   0  0  0  0  0  0  0  0  0  0  0  0
  -15.9920   -2.8420    0.6460 I   0  0  0  0  0  0  0  0  0  0  0  0
  -18.8940   -3.6370    0.5810 C   0  0  0  0  0  0  0  0  0  0  0  0
  -19.1260   -2.3030    0.4930 O   0  0  0  0  0  0  0  0  0  0  0  0
  -21.6000   -3.2200   -1.7160 C   0  0  0  0  0  0  0  0  0  0  0  0
  -21.8960   -1.9610   -2.5560 C   0  0  0  0  0  0  0  0  0  0  0  0
  2  1  1  0
  3  2  1  0
  4  3  1  0
  5  4  1  0
  6  3  1  6
  7  6  1  0
  8  7  1  0
  9  8  1  0
 10  9  1  0
 11 10  1  0
 12 11  2  0
 13 12  1  0
 14 13  1  0
 15 14  3  0
 16 15  1  0
 17 16  1  0
 18 13  2  0
 19 18  1  0
 20 19  1  0
 21 19  2  0
 21 11  1  0
 22 21  1  0
 23  9  1  0
 24  6  1  0
 24 23  1  0
M  CHG  1   3   1
M  END
$$$$
