4jxs_ligand
     RDKit          3D

 31 32  0  0  0  0  0  0  0  0999 V2000
   -0.5720   -4.6690    9.2520 O   0  0  0  0  0  0  0  0  0  0  0  0
   -1.2940   -3.7510    9.7600 C   0  0  0  0  0  0  0  0  0  0  0  0
   -0.9920   -2.5140    9.7930 O   0  0  0  0  0  0  0  0  0  0  0  0
   -2.6270   -4.1630   10.3600 C   0  0  0  0  0  0  0  0  0  0  0  0
   -3.2810   -3.3440   11.2940 C   0  0  0  0  0  0  0  0  0  0  0  0
   -4.4940   -3.7350   11.8730 C   0  0  0  0  0  0  0  0  0  0  0  0
   -5.0800   -4.9650   11.5440 C   0  0  0  0  0  0  0  0  0  0  0  0
   -6.3510   -5.4120   12.2250 C   0  0  0  0  0  0  0  0  0  0  0  0
   -6.1450   -5.7780   13.6310 N   0  0  0  0  0  0  0  0  0  0  0  0
   -7.1640   -6.9680   14.2320 S   0  0  0  0  0  0  0  0  0  0  0  0
   -8.2040   -6.3090   15.0040 O   0  0  0  0  0  0  0  0  0  0  0  0
   -7.5240   -7.8950   13.1810 O   0  0  0  0  0  0  0  0  0  0  0  0
   -6.3500   -7.9550   15.4180 C   0  0  0  0  0  0  0  0  0  0  0  0
   -6.7540   -7.9860   16.7940 C   0  0  0  0  0  0  0  0  0  0  0  0
   -6.0010   -8.8620   17.5410 C   0  0  0  0  0  0  0  0  0  0  0  0
   -4.8210   -9.6560   16.5940 S   0  0  0  0  0  0  0  0  0  0  0  0
   -5.2970   -8.8180   15.1790 C   0  0  0  0  0  0  0  0  0  0  0  0
   -4.5870   -9.0290   13.7870 C   0  0  0  0  0  0  0  0  0  0  0  0
   -4.0080   -8.0260   13.2780 O   0  0  0  0  0  0  0  0  0  0  0  0
   -4.6970  -10.1870   13.2810 O   0  0  0  0  0  0  0  0  0  0  0  0
   -4.4570   -5.7690   10.5820 C   0  0  0  0  0  0  0  0  0  0  0  0
   -3.2430   -5.3740   10.0030 C   0  0  0  0  0  0  0  0  0  0  0  0
   -2.8331   -2.3795   11.5754 H   0  0  0  0  0  0  0  0  0  0  0  0
   -4.9925   -3.0700   12.5937 H   0  0  0  0  0  0  0  0  0  0  0  0
   -7.0817   -4.5910   12.1791 H   0  0  0  0  0  0  0  0  0  0  0  0
   -6.7106   -6.3086   11.6989 H   0  0  0  0  0  0  0  0  0  0  0  0
   -6.2940   -4.9400   14.2420 H   0  0  0  0  0  0  0  0  0  0  0  0
   -7.5733   -7.3781   17.2054 H   0  0  0  0  0  0  0  0  0  0  0  0
   -6.1417   -9.0311   18.6188 H   0  0  0  0  0  0  0  0  0  0  0  0
   -4.9236   -6.7177   10.2782 H   0  0  0  0  0  0  0  0  0  0  0  0
   -2.7642   -6.0239    9.2558 H   0  0  0  0  0  0  0  0  0  0  0  0
  1  2  2  0
  2  3  1  0
  2  4  1  0
  4  5  2  0
  5  6  1  0
  6  7  2  0
  7  8  1  0
  8  9  1  0
  9 10  1  0
 10 11  2  0
 10 12  2  0
 10 13  1  0
 13 14  1  0
 14 15  2  0
 15 16  1  0
 16 17  1  0
 17 18  1  0
 18 19  2  0
 18 20  1  0
  7 21  1  0
 21 22  2  0
 22  4  1  0
 17 13  2  0
  5 23  1  0
  6 24  1  0
  8 25  1  0
  8 26  1  0
  9 27  1  0
 14 28  1  0
 15 29  1  0
 21 30  1  0
 22 31  1  0
M  CHG  2   3  -1  20  -1
M  END
>  <meeko>  (1) 
{"is_sidechain": [false], "free_energy": -6.647, "intermolecular_energy": -8.979, "internal_energy": -0.705}

$$$$
4jxs_ligand
     RDKit          3D

 31 32  0  0  0  0  0  0  0  0999 V2000
   -1.9440   -3.4160   10.2570 O   0  0  0  0  0  0  0  0  0  0  0  0
   -2.3730   -4.6140   10.1890 C   0  0  0  0  0  0  0  0  0  0  0  0
   -1.7950   -5.5660    9.5720 O   0  0  0  0  0  0  0  0  0  0  0  0
   -3.6690   -4.9320   10.9140 C   0  0  0  0  0  0  0  0  0  0  0  0
   -4.4500   -3.9100   11.4760 C   0  0  0  0  0  0  0  0  0  0  0  0
   -5.6290   -4.2020   12.1730 C   0  0  0  0  0  0  0  0  0  0  0  0
   -6.0530   -5.5270   12.3380 C   0  0  0  0  0  0  0  0  0  0  0  0
   -7.2860   -5.8390   13.1500 C   0  0  0  0  0  0  0  0  0  0  0  0
   -7.4030   -7.2630   13.4850 N   0  0  0  0  0  0  0  0  0  0  0  0
   -7.1200   -7.6610   15.0900 S   0  0  0  0  0  0  0  0  0  0  0  0
   -5.7230   -7.3800   15.3740 O   0  0  0  0  0  0  0  0  0  0  0  0
   -8.1530   -7.1020   15.9340 O   0  0  0  0  0  0  0  0  0  0  0  0
   -7.2410   -9.3830   15.3430 C   0  0  0  0  0  0  0  0  0  0  0  0
   -8.1330   -9.9530   16.3100 C   0  0  0  0  0  0  0  0  0  0  0  0
   -8.0950  -11.3280   16.3120 C   0  0  0  0  0  0  0  0  0  0  0  0
   -7.0020  -11.9370   15.1480 S   0  0  0  0  0  0  0  0  0  0  0  0
   -6.5570  -10.3610   14.6450 C   0  0  0  0  0  0  0  0  0  0  0  0
   -5.4840  -10.1000   13.5200 C   0  0  0  0  0  0  0  0  0  0  0  0
   -4.2760  -10.0150   13.8850 O   0  0  0  0  0  0  0  0  0  0  0  0
   -5.9390   -9.9570   12.3450 O   0  0  0  0  0  0  0  0  0  0  0  0
   -5.3030   -6.5500   11.7450 C   0  0  0  0  0  0  0  0  0  0  0  0
   -4.1240   -6.2550   11.0470 C   0  0  0  0  0  0  0  0  0  0  0  0
   -4.1308   -2.8630   11.3672 H   0  0  0  0  0  0  0  0  0  0  0  0
   -6.2286   -3.3822   12.5954 H   0  0  0  0  0  0  0  0  0  0  0  0
   -7.2465   -5.2605   14.0847 H   0  0  0  0  0  0  0  0  0  0  0  0
   -8.1606   -5.5702   12.5393 H   0  0  0  0  0  0  0  0  0  0  0  0
   -6.7110   -7.8170   12.9270 H   0  0  0  0  0  0  0  0  0  0  0  0
   -8.7755   -9.3577   16.9755 H   0  0  0  0  0  0  0  0  0  0  0  0
   -8.6961  -11.9598   16.9825 H   0  0  0  0  0  0  0  0  0  0  0  0
   -5.6418   -7.5933   11.8276 H   0  0  0  0  0  0  0  0  0  0  0  0
   -3.5445   -7.0736   10.5952 H   0  0  0  0  0  0  0  0  0  0  0  0
  1  2  2  0
  2  3  1  0
  2  4  1  0
  4  5  2  0
  5  6  1  0
  6  7  2  0
  7  8  1  0
  8  9  1  0
  9 10  1  0
 10 11  2  0
 10 12  2  0
 10 13  1  0
 13 14  1  0
 14 15  2  0
 15 16  1  0
 16 17  1  0
 17 18  1  0
 18 19  2  0
 18 20  1  0
  7 21  1  0
 21 22  2  0
 22  4  1  0
 17 13  2  0
  5 23  1  0
  6 24  1  0
  8 25  1  0
  8 26  1  0
  9 27  1  0
 14 28  1  0
 15 29  1  0
 21 30  1  0
 22 31  1  0
M  CHG  2   3  -1  20  -1
M  END
>  <meeko>  (2) 
{"is_sidechain": [false], "free_energy": -6.388, "intermolecular_energy": -8.548, "internal_energy": -0.785}

$$$$
4jxs_ligand
     RDKit          3D

 31 32  0  0  0  0  0  0  0  0999 V2000
   -2.8580   -3.2670   11.0150 O   0  0  0  0  0  0  0  0  0  0  0  0
   -2.3160   -4.2290   10.3790 C   0  0  0  0  0  0  0  0  0  0  0  0
   -1.2690   -4.1350    9.6590 O   0  0  0  0  0  0  0  0  0  0  0  0
   -2.9640   -5.5970   10.5000 C   0  0  0  0  0  0  0  0  0  0  0  0
   -4.1120   -5.7830   11.2850 C   0  0  0  0  0  0  0  0  0  0  0  0
   -4.6940   -7.0490   11.4260 C   0  0  0  0  0  0  0  0  0  0  0  0
   -4.1350   -8.1670   10.7930 C   0  0  0  0  0  0  0  0  0  0  0  0
   -4.7250   -9.5400   11.0060 C   0  0  0  0  0  0  0  0  0  0  0  0
   -5.9510   -9.5140   11.8120 N   0  0  0  0  0  0  0  0  0  0  0  0
   -5.7910  -10.0320   13.4000 S   0  0  0  0  0  0  0  0  0  0  0  0
   -6.5780  -11.2440   13.5500 O   0  0  0  0  0  0  0  0  0  0  0  0
   -4.3980  -10.0250   13.7900 O   0  0  0  0  0  0  0  0  0  0  0  0
   -6.5540   -8.9200   14.5060 C   0  0  0  0  0  0  0  0  0  0  0  0
   -7.2770   -7.7660   14.0540 C   0  0  0  0  0  0  0  0  0  0  0  0
   -7.8300   -7.0530   15.0920 C   0  0  0  0  0  0  0  0  0  0  0  0
   -7.4970   -7.7720   16.6060 S   0  0  0  0  0  0  0  0  0  0  0  0
   -6.5910   -9.0330   15.8830 C   0  0  0  0  0  0  0  0  0  0  0  0
   -5.8930  -10.1680   16.7250 C   0  0  0  0  0  0  0  0  0  0  0  0
   -4.7080   -9.9510   17.1130 O   0  0  0  0  0  0  0  0  0  0  0  0
   -6.5740  -11.2220   16.9050 O   0  0  0  0  0  0  0  0  0  0  0  0
   -3.0140   -7.9840    9.9740 C   0  0  0  0  0  0  0  0  0  0  0  0
   -2.4340   -6.7150    9.8350 C   0  0  0  0  0  0  0  0  0  0  0  0
   -4.5622   -4.9204   11.7980 H   0  0  0  0  0  0  0  0  0  0  0  0
   -5.5991   -7.1668   12.0399 H   0  0  0  0  0  0  0  0  0  0  0  0
   -4.9591   -9.9780   10.0245 H   0  0  0  0  0  0  0  0  0  0  0  0
   -3.9817  -10.1383   11.5534 H   0  0  0  0  0  0  0  0  0  0  0  0
   -6.6740  -10.1390   11.3800 H   0  0  0  0  0  0  0  0  0  0  0  0
   -7.3777   -7.4832   12.9958 H   0  0  0  0  0  0  0  0  0  0  0  0
   -8.4160   -6.1311   14.9631 H   0  0  0  0  0  0  0  0  0  0  0  0
   -2.5852   -8.8421    9.4357 H   0  0  0  0  0  0  0  0  0  0  0  0
   -1.5485   -6.5929    9.1940 H   0  0  0  0  0  0  0  0  0  0  0  0
  1  2  2  0
  2  3  1  0
  2  4  1  0
  4  5  2  0
  5  6  1  0
  6  7  2  0
  7  8  1  0
  8  9  1  0
  9 10  1  0
 10 11  2  0
 10 12  2  0
 10 13  1  0
 13 14  1  0
 14 15  2  0
 15 16  1  0
 16 17  1  0
 17 18  1  0
 18 19  2  0
 18 20  1  0
  7 21  1  0
 21 22  2  0
 22  4  1  0
 17 13  2  0
  5 23  1  0
  6 24  1  0
  8 25  1  0
  8 26  1  0
  9 27  1  0
 14 28  1  0
 15 29  1  0
 21 30  1  0
 22 31  1  0
M  CHG  2   3  -1  20  -1
M  END
>  <meeko>  (3) 
{"is_sidechain": [false], "free_energy": -6.365, "intermolecular_energy": -8.576, "internal_energy": -0.728}

$$$$
4jxs_ligand
     RDKit          3D

 31 32  0  0  0  0  0  0  0  0999 V2000
   -4.3240   -3.1970   11.8510 O   0  0  0  0  0  0  0  0  0  0  0  0
   -3.8690   -4.2100   11.2270 C   0  0  0  0  0  0  0  0  0  0  0  0
   -2.9440   -4.1780   10.3510 O   0  0  0  0  0  0  0  0  0  0  0  0
   -4.4660   -5.5640   11.5670 C   0  0  0  0  0  0  0  0  0  0  0  0
   -4.0400   -6.7270   10.9060 C   0  0  0  0  0  0  0  0  0  0  0  0
   -4.6100   -7.9720   11.1930 C   0  0  0  0  0  0  0  0  0  0  0  0
   -5.6340   -8.0880   12.1420 C   0  0  0  0  0  0  0  0  0  0  0  0
   -6.2940   -9.4220   12.3960 C   0  0  0  0  0  0  0  0  0  0  0  0
   -7.2820   -9.3720   13.4790 N   0  0  0  0  0  0  0  0  0  0  0  0
   -6.8430  -10.1420   14.9040 S   0  0  0  0  0  0  0  0  0  0  0  0
   -8.0590  -10.4230   15.6470 O   0  0  0  0  0  0  0  0  0  0  0  0
   -5.9050  -11.2080   14.6270 O   0  0  0  0  0  0  0  0  0  0  0  0
   -5.9690   -9.0630   15.9590 C   0  0  0  0  0  0  0  0  0  0  0  0
   -4.5830   -9.2560   16.2760 C   0  0  0  0  0  0  0  0  0  0  0  0
   -4.0880   -8.2660   17.0910 C   0  0  0  0  0  0  0  0  0  0  0  0
   -5.2770   -7.0970   17.4670 S   0  0  0  0  0  0  0  0  0  0  0  0
   -6.4700   -7.9200   16.5560 C   0  0  0  0  0  0  0  0  0  0  0  0
   -7.9560   -7.4070   16.4410 C   0  0  0  0  0  0  0  0  0  0  0  0
   -8.3010   -6.8810   15.3440 O   0  0  0  0  0  0  0  0  0  0  0  0
   -8.6670   -7.5330   17.4840 O   0  0  0  0  0  0  0  0  0  0  0  0
   -6.0380   -6.9410   12.8370 C   0  0  0  0  0  0  0  0  0  0  0  0
   -5.4640   -5.6950   12.5480 C   0  0  0  0  0  0  0  0  0  0  0  0
   -3.2444   -6.6582   10.1495 H   0  0  0  0  0  0  0  0  0  0  0  0
   -4.2504   -8.8692   10.6680 H   0  0  0  0  0  0  0  0  0  0  0  0
   -6.7997   -9.7448   11.4740 H   0  0  0  0  0  0  0  0  0  0  0  0
   -5.5067  -10.1279   12.6992 H   0  0  0  0  0  0  0  0  0  0  0  0
   -8.1720   -9.8320   13.1700 H   0  0  0  0  0  0  0  0  0  0  0  0
   -3.9836  -10.1017   15.9079 H   0  0  0  0  0  0  0  0  0  0  0  0
   -3.0514   -8.2303   17.4572 H   0  0  0  0  0  0  0  0  0  0  0  0
   -6.8114   -7.0184   13.6154 H   0  0  0  0  0  0  0  0  0  0  0  0
   -5.8006   -4.8042   13.0987 H   0  0  0  0  0  0  0  0  0  0  0  0
  1  2  2  0
  2  3  1  0
  2  4  1  0
  4  5  2  0
  5  6  1  0
  6  7  2  0
  7  8  1  0
  8  9  1  0
  9 10  1  0
 10 11  2  0
 10 12  2  0
 10 13  1  0
 13 14  1  0
 14 15  2  0
 15 16  1  0
 16 17  1  0
 17 18  1  0
 18 19  2  0
 18 20  1  0
  7 21  1  0
 21 22  2  0
 22  4  1  0
 17 13  2  0
  5 23  1  0
  6 24  1  0
  8 25  1  0
  8 26  1  0
  9 27  1  0
 14 28  1  0
 15 29  1  0
 21 30  1  0
 22 31  1  0
M  CHG  2   3  -1  20  -1
M  END
>  <meeko>  (4) 
{"is_sidechain": [false], "free_energy": -6.295, "intermolecular_energy": -8.339, "internal_energy": -0.87}

$$$$
4jxs_ligand
     RDKit          3D

 31 32  0  0  0  0  0  0  0  0999 V2000
    0.2560   -4.5780    8.2350 O   0  0  0  0  0  0  0  0  0  0  0  0
   -0.2610   -3.9800    9.2340 C   0  0  0  0  0  0  0  0  0  0  0  0
    0.2100   -2.9350    9.7890 O   0  0  0  0  0  0  0  0  0  0  0  0
   -1.5510   -4.5520    9.7970 C   0  0  0  0  0  0  0  0  0  0  0  0
   -2.4520   -3.7390   10.5020 C   0  0  0  0  0  0  0  0  0  0  0  0
   -3.6260   -4.2690   11.0500 C   0  0  0  0  0  0  0  0  0  0  0  0
   -3.9260   -5.6320   10.9170 C   0  0  0  0  0  0  0  0  0  0  0  0
   -5.1580   -6.2100   11.5700 C   0  0  0  0  0  0  0  0  0  0  0  0
   -4.8420   -7.1250   12.6730 N   0  0  0  0  0  0  0  0  0  0  0  0
   -6.0760   -7.3900   13.7780 S   0  0  0  0  0  0  0  0  0  0  0  0
   -5.6040   -6.9520   15.0810 O   0  0  0  0  0  0  0  0  0  0  0  0
   -7.3290   -6.8860   13.2590 O   0  0  0  0  0  0  0  0  0  0  0  0
   -6.3600   -9.0950   14.0080 C   0  0  0  0  0  0  0  0  0  0  0  0
   -7.2960   -9.5920   14.9760 C   0  0  0  0  0  0  0  0  0  0  0  0
   -7.3900  -10.9630   14.9590 C   0  0  0  0  0  0  0  0  0  0  0  0
   -6.3700  -11.6580   13.7770 S   0  0  0  0  0  0  0  0  0  0  0  0
   -5.7790  -10.1250   13.2920 C   0  0  0  0  0  0  0  0  0  0  0  0
   -4.6940   -9.9520   12.1610 C   0  0  0  0  0  0  0  0  0  0  0  0
   -5.1150   -9.7780   10.9810 O   0  0  0  0  0  0  0  0  0  0  0  0
   -3.4860  -10.0430   12.5350 O   0  0  0  0  0  0  0  0  0  0  0  0
   -3.0550   -6.4410   10.1790 C   0  0  0  0  0  0  0  0  0  0  0  0
   -1.8800   -5.9080    9.6310 C   0  0  0  0  0  0  0  0  0  0  0  0
   -2.2321   -2.6683   10.6259 H   0  0  0  0  0  0  0  0  0  0  0  0
   -4.3204   -3.6091   11.5907 H   0  0  0  0  0  0  0  0  0  0  0  0
   -5.7678   -5.3833   11.9632 H   0  0  0  0  0  0  0  0  0  0  0  0
   -5.6975   -6.7878   10.8051 H   0  0  0  0  0  0  0  0  0  0  0  0
   -4.0380   -6.7470   13.2290 H   0  0  0  0  0  0  0  0  0  0  0  0
   -7.8734   -8.9477   15.6554 H   0  0  0  0  0  0  0  0  0  0  0  0
   -8.0437  -11.5436   15.6265 H   0  0  0  0  0  0  0  0  0  0  0  0
   -3.2942   -7.5039   10.0276 H   0  0  0  0  0  0  0  0  0  0  0  0
   -1.2039   -6.5625    9.0613 H   0  0  0  0  0  0  0  0  0  0  0  0
  1  2  2  0
  2  3  1  0
  2  4  1  0
  4  5  2  0
  5  6  1  0
  6  7  2  0
  7  8  1  0
  8  9  1  0
  9 10  1  0
 10 11  2  0
 10 12  2  0
 10 13  1  0
 13 14  1  0
 14 15  2  0
 15 16  1  0
 16 17  1  0
 17 18  1  0
 18 19  2  0
 18 20  1  0
  7 21  1  0
 21 22  2  0
 22  4  1  0
 17 13  2  0
  5 23  1  0
  6 24  1  0
  8 25  1  0
  8 26  1  0
  9 27  1  0
 14 28  1  0
 15 29  1  0
 21 30  1  0
 22 31  1  0
M  CHG  2   3  -1  20  -1
M  END
>  <meeko>  (5) 
{"is_sidechain": [false], "free_energy": -6.294, "intermolecular_energy": -8.805, "internal_energy": -0.402}

$$$$
4jxs_ligand
     RDKit          3D

 31 32  0  0  0  0  0  0  0  0999 V2000
   -0.2270   -4.4390    8.8380 O   0  0  0  0  0  0  0  0  0  0  0  0
   -1.2360   -4.2330    9.5890 C   0  0  0  0  0  0  0  0  0  0  0  0
   -1.5260   -3.1210   10.1390 O   0  0  0  0  0  0  0  0  0  0  0  0
   -2.1730   -5.4020    9.8330 C   0  0  0  0  0  0  0  0  0  0  0  0
   -3.4050   -5.2150   10.4800 C   0  0  0  0  0  0  0  0  0  0  0  0
   -4.2580   -6.2950   10.7360 C   0  0  0  0  0  0  0  0  0  0  0  0
   -3.8960   -7.5970   10.3620 C   0  0  0  0  0  0  0  0  0  0  0  0
   -4.7880   -8.7650   10.7050 C   0  0  0  0  0  0  0  0  0  0  0  0
   -5.5660   -8.5490   11.9300 N   0  0  0  0  0  0  0  0  0  0  0  0
   -5.2130   -9.5750   13.2090 S   0  0  0  0  0  0  0  0  0  0  0  0
   -6.2650  -10.5770   13.2740 O   0  0  0  0  0  0  0  0  0  0  0  0
   -3.8280   -9.9890   13.1510 O   0  0  0  0  0  0  0  0  0  0  0  0
   -5.3530   -8.7480   14.7380 C   0  0  0  0  0  0  0  0  0  0  0  0
   -4.7210   -9.2320   15.9310 C   0  0  0  0  0  0  0  0  0  0  0  0
   -4.9290   -8.4040   17.0090 C   0  0  0  0  0  0  0  0  0  0  0  0
   -5.8700   -7.0400   16.5910 S   0  0  0  0  0  0  0  0  0  0  0  0
   -6.0220   -7.5590   14.9660 C   0  0  0  0  0  0  0  0  0  0  0  0
   -6.8420   -6.7520   13.8890 C   0  0  0  0  0  0  0  0  0  0  0  0
   -6.2770   -5.7460   13.3700 O   0  0  0  0  0  0  0  0  0  0  0  0
   -8.0200   -7.1650   13.6670 O   0  0  0  0  0  0  0  0  0  0  0  0
   -2.6890   -7.7870    9.6790 C   0  0  0  0  0  0  0  0  0  0  0  0
   -1.8370   -6.7040    9.4240 C   0  0  0  0  0  0  0  0  0  0  0  0
   -3.7048   -4.2033   10.7908 H   0  0  0  0  0  0  0  0  0  0  0  0
   -5.2223   -6.1205   11.2357 H   0  0  0  0  0  0  0  0  0  0  0  0
   -5.4856   -8.9307    9.8708 H   0  0  0  0  0  0  0  0  0  0  0  0
   -4.1392   -9.6368   10.8755 H   0  0  0  0  0  0  0  0  0  0  0  0
   -6.5870   -8.6820   11.7310 H   0  0  0  0  0  0  0  0  0  0  0  0
   -4.1352  -10.1618   15.9784 H   0  0  0  0  0  0  0  0  0  0  0  0
   -4.5370   -8.5964   18.0186 H   0  0  0  0  0  0  0  0  0  0  0  0
   -2.4070   -8.7946    9.3397 H   0  0  0  0  0  0  0  0  0  0  0  0
   -0.8884   -6.8760    8.8943 H   0  0  0  0  0  0  0  0  0  0  0  0
  1  2  2  0
  2  3  1  0
  2  4  1  0
  4  5  2  0
  5  6  1  0
  6  7  2  0
  7  8  1  0
  8  9  1  0
  9 10  1  0
 10 11  2  0
 10 12  2  0
 10 13  1  0
 13 14  1  0
 14 15  2  0
 15 16  1  0
 16 17  1  0
 17 18  1  0
 18 19  2  0
 18 20  1  0
  7 21  1  0
 21 22  2  0
 22  4  1  0
 17 13  2  0
  5 23  1  0
  6 24  1  0
  8 25  1  0
  8 26  1  0
  9 27  1  0
 14 28  1  0
 15 29  1  0
 21 30  1  0
 22 31  1  0
M  CHG  2   3  -1  20  -1
M  END
>  <meeko>  (6) 
{"is_sidechain": [false], "free_energy": -6.207, "intermolecular_energy": -8.573, "internal_energy": -0.517}

$$$$
4jxs_ligand
     RDKit          3D

 31 32  0  0  0  0  0  0  0  0999 V2000
    1.3840   -4.6010    7.5370 O   0  0  0  0  0  0  0  0  0  0  0  0
    2.3550   -5.3920    7.3020 C   0  0  0  0  0  0  0  0  0  0  0  0
    2.2820   -6.6630    7.3010 O   0  0  0  0  0  0  0  0  0  0  0  0
    3.7020   -4.7670    6.9820 C   0  0  0  0  0  0  0  0  0  0  0  0
    3.8130   -3.7400    6.0320 C   0  0  0  0  0  0  0  0  0  0  0  0
    5.0560   -3.1830    5.7110 C   0  0  0  0  0  0  0  0  0  0  0  0
    6.2270   -3.6470    6.3260 C   0  0  0  0  0  0  0  0  0  0  0  0
    7.5720   -3.0910    5.9240 C   0  0  0  0  0  0  0  0  0  0  0  0
    8.6470   -4.0870    6.0030 N   0  0  0  0  0  0  0  0  0  0  0  0
    8.8470   -5.0540    4.6480 S   0  0  0  0  0  0  0  0  0  0  0  0
    9.5070   -6.2770    5.0720 O   0  0  0  0  0  0  0  0  0  0  0  0
    7.6120   -5.1260    3.8980 O   0  0  0  0  0  0  0  0  0  0  0  0
    9.9880   -4.3490    3.5330 C   0  0  0  0  0  0  0  0  0  0  0  0
    9.7690   -4.3430    2.1150 C   0  0  0  0  0  0  0  0  0  0  0  0
   10.7750   -3.7000    1.4320 C   0  0  0  0  0  0  0  0  0  0  0  0
   11.9740   -3.0920    2.4870 S   0  0  0  0  0  0  0  0  0  0  0  0
   11.1640   -3.7030    3.8670 C   0  0  0  0  0  0  0  0  0  0  0  0
   11.7290   -3.5340    5.3280 C   0  0  0  0  0  0  0  0  0  0  0  0
   12.4600   -4.4650    5.7750 O   0  0  0  0  0  0  0  0  0  0  0  0
   11.3640   -2.4870    5.9450 O   0  0  0  0  0  0  0  0  0  0  0  0
    6.1220   -4.6410    7.3060 C   0  0  0  0  0  0  0  0  0  0  0  0
    4.8750   -5.1960    7.6250 C   0  0  0  0  0  0  0  0  0  0  0  0
    2.9076   -3.3665    5.5312 H   0  0  0  0  0  0  0  0  0  0  0  0
    5.1147   -2.3732    4.9689 H   0  0  0  0  0  0  0  0  0  0  0  0
    7.5061   -2.7267    4.8882 H   0  0  0  0  0  0  0  0  0  0  0  0
    7.8187   -2.2817    6.6269 H   0  0  0  0  0  0  0  0  0  0  0  0
    8.4640   -4.7450    6.7990 H   0  0  0  0  0  0  0  0  0  0  0  0
    8.8950   -4.8010    1.6288 H   0  0  0  0  0  0  0  0  0  0  0  0
   10.8042   -3.5903    0.3379 H   0  0  0  0  0  0  0  0  0  0  0  0
    7.0246   -4.9891    7.8296 H   0  0  0  0  0  0  0  0  0  0  0  0
    4.8138   -5.9815    8.3926 H   0  0  0  0  0  0  0  0  0  0  0  0
  1  2  2  0
  2  3  1  0
  2  4  1  0
  4  5  2  0
  5  6  1  0
  6  7  2  0
  7  8  1  0
  8  9  1  0
  9 10  1  0
 10 11  2  0
 10 12  2  0
 10 13  1  0
 13 14  1  0
 14 15  2  0
 15 16  1  0
 16 17  1  0
 17 18  1  0
 18 19  2  0
 18 20  1  0
  7 21  1  0
 21 22  2  0
 22  4  1  0
 17 13  2  0
  5 23  1  0
  6 24  1  0
  8 25  1  0
  8 26  1  0
  9 27  1  0
 14 28  1  0
 15 29  1  0
 21 30  1  0
 22 31  1  0
M  CHG  2   3  -1  20  -1
M  END
>  <meeko>  (7) 
{"is_sidechain": [false], "free_energy": -6.206, "intermolecular_energy": -8.517, "internal_energy": -0.572}

$$$$
4jxs_ligand
     RDKit          3D

 31 32  0  0  0  0  0  0  0  0999 V2000
   -2.5390   -3.8970   10.2800 O   0  0  0  0  0  0  0  0  0  0  0  0
   -3.5110   -4.0610   11.0870 C   0  0  0  0  0  0  0  0  0  0  0  0
   -4.0590   -3.1390   11.7730 O   0  0  0  0  0  0  0  0  0  0  0  0
   -4.0680   -5.4670   11.2310 C   0  0  0  0  0  0  0  0  0  0  0  0
   -5.0320   -5.7640   12.2060 C   0  0  0  0  0  0  0  0  0  0  0  0
   -5.5250   -7.0640   12.3630 C   0  0  0  0  0  0  0  0  0  0  0  0
   -5.0570   -8.1090   11.5550 C   0  0  0  0  0  0  0  0  0  0  0  0
   -5.5400   -9.5220   11.7770 C   0  0  0  0  0  0  0  0  0  0  0  0
   -6.5750   -9.6140   12.8120 N   0  0  0  0  0  0  0  0  0  0  0  0
   -6.1720  -10.5170   14.1680 S   0  0  0  0  0  0  0  0  0  0  0  0
   -6.3180  -11.9210   13.8220 O   0  0  0  0  0  0  0  0  0  0  0  0
   -4.9300  -10.0400   14.7360 O   0  0  0  0  0  0  0  0  0  0  0  0
   -7.3420  -10.2960   15.4420 C   0  0  0  0  0  0  0  0  0  0  0  0
   -7.9300  -11.4020   16.1420 C   0  0  0  0  0  0  0  0  0  0  0  0
   -8.7930  -10.9970   17.1330 C   0  0  0  0  0  0  0  0  0  0  0  0
   -8.8900   -9.2940   17.2360 S   0  0  0  0  0  0  0  0  0  0  0  0
   -7.7910   -9.0860   15.9390 C   0  0  0  0  0  0  0  0  0  0  0  0
   -7.3700   -7.6660   15.4010 C   0  0  0  0  0  0  0  0  0  0  0  0
   -6.4020   -7.0940   15.9810 O   0  0  0  0  0  0  0  0  0  0  0  0
   -8.0730   -7.2040   14.4520 O   0  0  0  0  0  0  0  0  0  0  0  0
   -4.1260   -7.8150   10.5510 C   0  0  0  0  0  0  0  0  0  0  0  0
   -3.6350   -6.5110   10.3960 C   0  0  0  0  0  0  0  0  0  0  0  0
   -5.4066   -4.9612   12.8581 H   0  0  0  0  0  0  0  0  0  0  0  0
   -6.2880   -7.2679   13.1287 H   0  0  0  0  0  0  0  0  0  0  0  0
   -5.9533   -9.9045   10.8320 H   0  0  0  0  0  0  0  0  0  0  0  0
   -4.6789  -10.1163   12.1167 H   0  0  0  0  0  0  0  0  0  0  0  0
   -7.4350  -10.0630   12.4160 H   0  0  0  0  0  0  0  0  0  0  0  0
   -7.7145  -12.4558   15.9117 H   0  0  0  0  0  0  0  0  0  0  0  0
   -9.3535  -11.6864   17.7815 H   0  0  0  0  0  0  0  0  0  0  0  0
   -3.7774   -8.6131    9.8790 H   0  0  0  0  0  0  0  0  0  0  0  0
   -2.8979   -6.3014    9.6069 H   0  0  0  0  0  0  0  0  0  0  0  0
  1  2  2  0
  2  3  1  0
  2  4  1  0
  4  5  2  0
  5  6  1  0
  6  7  2  0
  7  8  1  0
  8  9  1  0
  9 10  1  0
 10 11  2  0
 10 12  2  0
 10 13  1  0
 13 14  1  0
 14 15  2  0
 15 16  1  0
 16 17  1  0
 17 18  1  0
 18 19  2  0
 18 20  1  0
  7 21  1  0
 21 22  2  0
 22  4  1  0
 17 13  2  0
  5 23  1  0
  6 24  1  0
  8 25  1  0
  8 26  1  0
  9 27  1  0
 14 28  1  0
 15 29  1  0
 21 30  1  0
 22 31  1  0
M  CHG  2   3  -1  20  -1
M  END
>  <meeko>  (8) 
{"is_sidechain": [false], "free_energy": -6.189, "intermolecular_energy": -8.331, "internal_energy": -0.733}

$$$$
4jxs_ligand
     RDKit          3D

 31 32  0  0  0  0  0  0  0  0999 V2000
   -2.2110   -4.9990    9.9610 O   0  0  0  0  0  0  0  0  0  0  0  0
   -2.9530   -6.0350    9.9510 C   0  0  0  0  0  0  0  0  0  0  0  0
   -2.8230   -7.0230    9.1590 O   0  0  0  0  0  0  0  0  0  0  0  0
   -4.0710   -6.1000   10.9760 C   0  0  0  0  0  0  0  0  0  0  0  0
   -4.8910   -4.9870   11.2210 C   0  0  0  0  0  0  0  0  0  0  0  0
   -5.9030   -5.0330   12.1870 C   0  0  0  0  0  0  0  0  0  0  0  0
   -6.1150   -6.1930   12.9460 C   0  0  0  0  0  0  0  0  0  0  0  0
   -7.1600   -6.2120   14.0340 C   0  0  0  0  0  0  0  0  0  0  0  0
   -6.6210   -6.6270   15.3350 N   0  0  0  0  0  0  0  0  0  0  0  0
   -7.3080   -8.0040   16.0030 S   0  0  0  0  0  0  0  0  0  0  0  0
   -8.4080   -7.5800   16.8540 O   0  0  0  0  0  0  0  0  0  0  0  0
   -7.5340   -8.9990   14.9770 O   0  0  0  0  0  0  0  0  0  0  0  0
   -6.2140   -8.7760   17.1200 C   0  0  0  0  0  0  0  0  0  0  0  0
   -5.8970  -10.1730   17.0390 C   0  0  0  0  0  0  0  0  0  0  0  0
   -4.9830  -10.5590   17.9920 C   0  0  0  0  0  0  0  0  0  0  0  0
   -4.4940   -9.2490   18.9740 S   0  0  0  0  0  0  0  0  0  0  0  0
   -5.5180   -8.1570   18.1420 C   0  0  0  0  0  0  0  0  0  0  0  0
   -5.6310   -6.6340   18.5320 C   0  0  0  0  0  0  0  0  0  0  0  0
   -6.5400   -6.3150   19.3520 O   0  0  0  0  0  0  0  0  0  0  0  0
   -4.8180   -5.8530   17.9510 O   0  0  0  0  0  0  0  0  0  0  0  0
   -5.3310   -7.3220   12.6790 C   0  0  0  0  0  0  0  0  0  0  0  0
   -4.3190   -7.2730   11.7100 C   0  0  0  0  0  0  0  0  0  0  0  0
   -4.7356   -4.0634   10.6442 H   0  0  0  0  0  0  0  0  0  0  0  0
   -6.5383   -4.1504   12.3524 H   0  0  0  0  0  0  0  0  0  0  0  0
   -7.5807   -5.2006   14.1346 H   0  0  0  0  0  0  0  0  0  0  0  0
   -7.9259   -6.9463   13.7440 H   0  0  0  0  0  0  0  0  0  0  0  0
   -6.7670   -5.8650   16.0390 H   0  0  0  0  0  0  0  0  0  0  0  0
   -6.3354  -10.8581   16.2984 H   0  0  0  0  0  0  0  0  0  0  0  0
   -4.6115  -11.5878   18.1079 H   0  0  0  0  0  0  0  0  0  0  0  0
   -5.5105   -8.2547   13.2339 H   0  0  0  0  0  0  0  0  0  0  0  0
   -3.7083   -8.1681   11.5207 H   0  0  0  0  0  0  0  0  0  0  0  0
  1  2  2  0
  2  3  1  0
  2  4  1  0
  4  5  2  0
  5  6  1  0
  6  7  2  0
  7  8  1  0
  8  9  1  0
  9 10  1  0
 10 11  2  0
 10 12  2  0
 10 13  1  0
 13 14  1  0
 14 15  2  0
 15 16  1  0
 16 17  1  0
 17 18  1  0
 18 19  2  0
 18 20  1  0
  7 21  1  0
 21 22  2  0
 22  4  1  0
 17 13  2  0
  5 23  1  0
  6 24  1  0
  8 25  1  0
  8 26  1  0
  9 27  1  0
 14 28  1  0
 15 29  1  0
 21 30  1  0
 22 31  1  0
M  CHG  2   3  -1  20  -1
M  END
>  <meeko>  (9) 
{"is_sidechain": [false], "free_energy": -6.155, "intermolecular_energy": -8.345, "internal_energy": -0.675}

$$$$
