
     RDKit          3D

 13 14  0  0  0  0  0  0  0  0999 V2000
    3.8780   -3.0330   -8.3240 N   0  0  0  0  0  0  0  0  0  0  0  0
    5.0050   -2.9850   -7.4960 C   0  0  0  0  0  0  0  0  0  0  0  0
    5.2060   -1.8560   -6.6930 C   0  0  0  0  0  0  0  0  0  0  0  0
    6.3160   -1.7780   -5.8630 C   0  0  0  0  0  0  0  0  0  0  0  0
    7.2420   -2.8250   -5.8160 C   0  0  0  0  0  0  0  0  0  0  0  0
    8.3290   -2.7380   -5.0000 N   0  0  0  0  0  0  0  0  0  0  0  0
    9.2290   -3.7530   -4.9640 C   0  0  0  0  0  0  0  0  0  0  0  0
   10.3120   -3.6510   -4.1390 N   0  0  0  0  0  0  0  0  0  0  0  0
    9.0850   -4.8690   -5.7130 N   0  0  0  0  0  0  0  0  0  0  0  0
    8.0200   -5.0380   -6.5520 C   0  0  0  0  0  0  0  0  0  0  0  0
    7.9270   -6.0850   -7.2370 O   0  0  0  0  0  0  0  0  0  0  0  0
    7.0380   -3.9690   -6.6270 C   0  0  0  0  0  0  0  0  0  0  0  0
    5.9160   -4.0460   -7.4620 C   0  0  0  0  0  0  0  0  0  0  0  0
  2  1  1  0
  3  2  2  0
  4  3  1  0
  5  4  2  0
  6  5  1  0
  7  6  2  0
  8  7  1  0
  9  7  1  0
 10  9  1  0
 11 10  2  0
 12 10  1  0
 12  5  1  0
 13  2  1  0
 13 12  2  0
M  END
$$$$
