
     RDKit          3D

 11 11  0  0  0  0  0  0  0  0999 V2000
   -8.5290   -1.0450  -18.5540 N   0  0  0  0  0  0  0  0  0  0  0  0
   -9.4540   -2.0320  -18.2680 C   0  0  0  0  0  0  0  0  0  0  0  0
   -9.0680   -3.3650  -18.2270 C   0  0  0  0  0  0  0  0  0  0  0  0
   -7.7610   -3.6840  -18.4720 F   0  0  0  0  0  0  0  0  0  0  0  0
   -9.9580   -4.3690  -17.9450 C   0  0  0  0  0  0  0  0  0  0  0  0
  -11.2660   -4.0460  -17.6920 C   0  0  0  0  0  0  0  0  0  0  0  0
  -11.6980   -2.7330  -17.7240 C   0  0  0  0  0  0  0  0  0  0  0  0
  -10.8060   -1.6990  -18.0070 C   0  0  0  0  0  0  0  0  0  0  0  0
  -11.2930   -0.2710  -18.0310 C   0  0  0  0  0  0  0  0  0  0  0  0
  -10.4800    0.6500  -18.1950 O   0  0  0  0  0  0  0  0  0  0  0  0
  -12.5020   -0.0580  -17.8810 O   0  0  0  0  0  0  0  0  0  0  0  0
  2  1  1  0
  3  2  2  0
  4  3  1  0
  5  3  1  0
  6  5  2  0
  7  6  1  0
  8  7  2  0
  8  2  1  0
  9  8  1  0
 10  9  1  0
 11  9  2  0
M  CHG  1  10  -1
M  END
$$$$
