2ymd_ligand
     RDKit          3D

 26 27  0  0  0  0  0  0  0  0999 V2000
   14.3890   12.3350   11.7600 N   0  0  0  0  0  0  0  0  0  0  0  0
   14.9630   12.3500   10.3860 C   0  0  0  0  0  0  0  0  0  0  0  0
   15.8830   11.1470   10.1610 C   0  0  0  0  0  0  0  0  0  0  0  0
   17.0310   11.1130   11.1200 C   0  0  0  0  0  0  0  0  0  0  0  0
   18.0380   12.0540   11.2170 C   0  0  0  0  0  0  0  0  0  0  0  0
   18.8860   11.6770   12.2260 N   0  0  0  0  0  0  0  0  0  0  0  0
   18.4280   10.5250   12.8190 C   0  0  0  0  0  0  0  0  0  0  0  0
   18.9500    9.8090   13.9020 C   0  0  0  0  0  0  0  0  0  0  0  0
   18.2900    8.6380   14.2810 C   0  0  0  0  0  0  0  0  0  0  0  0
   17.1720    8.2010   13.5860 C   0  0  0  0  0  0  0  0  0  0  0  0
   16.5930    7.0380   14.0030 O   0  0  0  0  0  0  0  0  0  0  0  0
   16.6520    8.9190   12.5070 C   0  0  0  0  0  0  0  0  0  0  0  0
   17.2880   10.1200   12.1210 C   0  0  0  0  0  0  0  0  0  0  0  0
   13.7190   13.1120   11.8720 H   0  0  0  0  0  0  0  0  0  0  0  0
   13.8750   11.4660   11.9510 H   0  0  0  0  0  0  0  0  0  0  0  0
   15.1130   12.4480   12.4790 H   0  0  0  0  0  0  0  0  0  0  0  0
   14.1430   12.3174    9.6535 H   0  0  0  0  0  0  0  0  0  0  0  0
   15.5537   13.2699   10.2636 H   0  0  0  0  0  0  0  0  0  0  0  0
   15.2945   10.2257   10.2832 H   0  0  0  0  0  0  0  0  0  0  0  0
   16.2991   11.2311    9.1462 H   0  0  0  0  0  0  0  0  0  0  0  0
   18.1416   12.9527   10.5912 H   0  0  0  0  0  0  0  0  0  0  0  0
   19.7330   12.1620   12.4980 H   0  0  0  0  0  0  0  0  0  0  0  0
   19.8474   10.1558   14.4353 H   0  0  0  0  0  0  0  0  0  0  0  0
   18.6602    8.0569   15.1385 H   0  0  0  0  0  0  0  0  0  0  0  0
   17.1740    6.2900   13.7930 H   0  0  0  0  0  0  0  0  0  0  0  0
   15.7643    8.5564   11.9680 H   0  0  0  0  0  0  0  0  0  0  0  0
  1  2  1  0
  2  3  1  0
  3  4  1  0
  4  5  2  0
  5  6  1  0
  6  7  1  0
  7  8  2  0
  8  9  1  0
  9 10  2  0
 10 11  1  0
 10 12  1  0
 12 13  2  0
 13  4  1  0
 13  7  1  0
  1 14  1  0
  1 15  1  0
  1 16  1  0
  2 17  1  0
  2 18  1  0
  3 19  1  0
  3 20  1  0
  5 21  1  0
  6 22  1  0
  8 23  1  0
  9 24  1  0
 11 25  1  0
 12 26  1  0
M  CHG  1   1   1
M  END
>  <meeko>  (1) 
{"is_sidechain": [false], "free_energy": -8.332, "intermolecular_energy": -9.794, "internal_energy": -0.15}

$$$$
2ymd_ligand
     RDKit          3D

 26 27  0  0  0  0  0  0  0  0999 V2000
   14.3240   12.6880   11.6880 N   0  0  0  0  0  0  0  0  0  0  0  0
   14.8130   12.9670   10.3100 C   0  0  0  0  0  0  0  0  0  0  0  0
   16.2990   12.6240   10.1730 C   0  0  0  0  0  0  0  0  0  0  0  0
   16.6880   11.4200   10.9710 C   0  0  0  0  0  0  0  0  0  0  0  0
   16.3030   10.1170   10.7170 C   0  0  0  0  0  0  0  0  0  0  0  0
   16.8800    9.3040   11.6580 N   0  0  0  0  0  0  0  0  0  0  0  0
   17.6720   10.0490   12.5000 C   0  0  0  0  0  0  0  0  0  0  0  0
   18.4720    9.6370   13.5710 C   0  0  0  0  0  0  0  0  0  0  0  0
   19.1550   10.6230   14.2840 C   0  0  0  0  0  0  0  0  0  0  0  0
   19.0190   11.9620   13.9470 C   0  0  0  0  0  0  0  0  0  0  0  0
   19.7010   12.8690   14.7020 O   0  0  0  0  0  0  0  0  0  0  0  0
   18.2210   12.3690   12.8760 C   0  0  0  0  0  0  0  0  0  0  0  0
   17.5400   11.3870   12.1230 C   0  0  0  0  0  0  0  0  0  0  0  0
   13.2930   12.7110   11.7090 H   0  0  0  0  0  0  0  0  0  0  0  0
   14.6090   11.7560   12.0140 H   0  0  0  0  0  0  0  0  0  0  0  0
   14.6610   13.3840   12.3630 H   0  0  0  0  0  0  0  0  0  0  0  0
   14.2370   12.3614    9.5948 H   0  0  0  0  0  0  0  0  0  0  0  0
   14.6811   14.0392   10.1026 H   0  0  0  0  0  0  0  0  0  0  0  0
   16.5194   12.4302    9.1129 H   0  0  0  0  0  0  0  0  0  0  0  0
   16.8748   13.4787   10.5577 H   0  0  0  0  0  0  0  0  0  0  0  0
   15.6454    9.7882    9.8988 H   0  0  0  0  0  0  0  0  0  0  0  0
   16.7460    8.3030   11.7370 H   0  0  0  0  0  0  0  0  0  0  0  0
   18.5595    8.5743   13.8413 H   0  0  0  0  0  0  0  0  0  0  0  0
   19.8077   10.3358   15.1216 H   0  0  0  0  0  0  0  0  0  0  0  0
   20.6170   12.9350   14.3870 H   0  0  0  0  0  0  0  0  0  0  0  0
   18.1244   13.4352   12.6232 H   0  0  0  0  0  0  0  0  0  0  0  0
  1  2  1  0
  2  3  1  0
  3  4  1  0
  4  5  2  0
  5  6  1  0
  6  7  1  0
  7  8  2  0
  8  9  1  0
  9 10  2  0
 10 11  1  0
 10 12  1  0
 12 13  2  0
 13  4  1  0
 13  7  1  0
  1 14  1  0
  1 15  1  0
  1 16  1  0
  2 17  1  0
  2 18  1  0
  3 19  1  0
  3 20  1  0
  5 21  1  0
  6 22  1  0
  8 23  1  0
  9 24  1  0
 11 25  1  0
 12 26  1  0
M  CHG  1   1   1
M  END
>  <meeko>  (2) 
{"is_sidechain": [false], "free_energy": -7.946, "intermolecular_energy": -9.458, "internal_energy": -0.031}

$$$$
2ymd_ligand
     RDKit          3D

 26 27  0  0  0  0  0  0  0  0999 V2000
   17.3660    6.9540   14.3330 N   0  0  0  0  0  0  0  0  0  0  0  0
   16.8980    8.3070   13.9250 C   0  0  0  0  0  0  0  0  0  0  0  0
   16.6060    8.3570   12.4230 C   0  0  0  0  0  0  0  0  0  0  0  0
   17.1420    9.5950   11.7730 C   0  0  0  0  0  0  0  0  0  0  0  0
   18.4550   10.0240   11.8000 C   0  0  0  0  0  0  0  0  0  0  0  0
   18.5460   11.1840   11.0750 N   0  0  0  0  0  0  0  0  0  0  0  0
   17.3190   11.4990   10.5380 C   0  0  0  0  0  0  0  0  0  0  0  0
   16.9560   12.5640    9.7070 C   0  0  0  0  0  0  0  0  0  0  0  0
   15.6140   12.6610    9.3310 C   0  0  0  0  0  0  0  0  0  0  0  0
   14.6830   11.7420    9.7920 C   0  0  0  0  0  0  0  0  0  0  0  0
   13.3890   11.9140    9.3990 O   0  0  0  0  0  0  0  0  0  0  0  0
   15.0510   10.6790   10.6200 C   0  0  0  0  0  0  0  0  0  0  0  0
   16.4070   10.5450   10.9920 C   0  0  0  0  0  0  0  0  0  0  0  0
   18.3310    6.7980   14.0010 H   0  0  0  0  0  0  0  0  0  0  0  0
   17.3800    6.8450   15.3550 H   0  0  0  0  0  0  0  0  0  0  0  0
   16.7820    6.2090   13.9360 H   0  0  0  0  0  0  0  0  0  0  0  0
   15.9794    8.5518   14.4783 H   0  0  0  0  0  0  0  0  0  0  0  0
   17.6906    9.0351   14.1522 H   0  0  0  0  0  0  0  0  0  0  0  0
   17.0673    7.4802   11.9451 H   0  0  0  0  0  0  0  0  0  0  0  0
   15.5134    8.3604   12.2960 H   0  0  0  0  0  0  0  0  0  0  0  0
   19.2861    9.5205   12.3155 H   0  0  0  0  0  0  0  0  0  0  0  0
   19.3830   11.7390   10.9510 H   0  0  0  0  0  0  0  0  0  0  0  0
   17.6995   13.2978    9.3624 H   0  0  0  0  0  0  0  0  0  0  0  0
   15.2927   13.4738    8.6631 H   0  0  0  0  0  0  0  0  0  0  0  0
   13.0450   12.7470    9.7590 H   0  0  0  0  0  0  0  0  0  0  0  0
   14.2988    9.9596   10.9758 H   0  0  0  0  0  0  0  0  0  0  0  0
  1  2  1  0
  2  3  1  0
  3  4  1  0
  4  5  2  0
  5  6  1  0
  6  7  1  0
  7  8  2  0
  8  9  1  0
  9 10  2  0
 10 11  1  0
 10 12  1  0
 12 13  2  0
 13  4  1  0
 13  7  1  0
  1 14  1  0
  1 15  1  0
  1 16  1  0
  2 17  1  0
  2 18  1  0
  3 19  1  0
  3 20  1  0
  5 21  1  0
  6 22  1  0
  8 23  1  0
  9 24  1  0
 11 25  1  0
 12 26  1  0
M  CHG  1   1   1
M  END
>  <meeko>  (3) 
{"is_sidechain": [false], "free_energy": -7.649, "intermolecular_energy": -9.057, "internal_energy": -0.083}

$$$$
2ymd_ligand
     RDKit          3D

 26 27  0  0  0  0  0  0  0  0999 V2000
   19.2950   15.0870    1.0980 N   0  0  0  0  0  0  0  0  0  0  0  0
   19.0240   16.3840    1.7750 C   0  0  0  0  0  0  0  0  0  0  0  0
   19.7550   16.4660    3.1190 C   0  0  0  0  0  0  0  0  0  0  0  0
   20.8040   17.5330    3.1390 C   0  0  0  0  0  0  0  0  0  0  0  0
   21.8450   17.6670    2.2410 C   0  0  0  0  0  0  0  0  0  0  0  0
   22.5730   18.7760    2.5850 N   0  0  0  0  0  0  0  0  0  0  0  0
   22.0010   19.3950    3.6720 C   0  0  0  0  0  0  0  0  0  0  0  0
   22.3800   20.5670    4.3340 C   0  0  0  0  0  0  0  0  0  0  0  0
   21.6270   20.9550    5.4440 C   0  0  0  0  0  0  0  0  0  0  0  0
   20.5580   20.1830    5.8770 C   0  0  0  0  0  0  0  0  0  0  0  0
   19.8830   20.6160    6.9800 O   0  0  0  0  0  0  0  0  0  0  0  0
   20.1810   19.0150    5.2120 C   0  0  0  0  0  0  0  0  0  0  0  0
   20.9130   18.6170    4.0710 C   0  0  0  0  0  0  0  0  0  0  0  0
   18.4380   14.7420    0.6360 H   0  0  0  0  0  0  0  0  0  0  0  0
   20.0120   15.1770    0.3680 H   0  0  0  0  0  0  0  0  0  0  0  0
   19.5970   14.3630    1.7610 H   0  0  0  0  0  0  0  0  0  0  0  0
   19.3666   17.2055    1.1286 H   0  0  0  0  0  0  0  0  0  0  0  0
   17.9425   16.4635    1.9593 H   0  0  0  0  0  0  0  0  0  0  0  0
   19.0190   16.6806    3.9079 H   0  0  0  0  0  0  0  0  0  0  0  0
   20.2574   15.5015    3.2845 H   0  0  0  0  0  0  0  0  0  0  0  0
   22.0541   16.9974    1.3937 H   0  0  0  0  0  0  0  0  0  0  0  0
   23.4140   19.0980    2.1220 H   0  0  0  0  0  0  0  0  0  0  0  0
   23.2401   21.1617    3.9927 H   0  0  0  0  0  0  0  0  0  0  0  0
   21.8833   21.8807    5.9800 H   0  0  0  0  0  0  0  0  0  0  0  0
   19.3400   19.8940    7.3350 H   0  0  0  0  0  0  0  0  0  0  0  0
   19.3304   18.4160    5.5694 H   0  0  0  0  0  0  0  0  0  0  0  0
  1  2  1  0
  2  3  1  0
  3  4  1  0
  4  5  2  0
  5  6  1  0
  6  7  1  0
  7  8  2  0
  8  9  1  0
  9 10  2  0
 10 11  1  0
 10 12  1  0
 12 13  2  0
 13  4  1  0
 13  7  1  0
  1 14  1  0
  1 15  1  0
  1 16  1  0
  2 17  1  0
  2 18  1  0
  3 19  1  0
  3 20  1  0
  5 21  1  0
  6 22  1  0
  8 23  1  0
  9 24  1  0
 11 25  1  0
 12 26  1  0
M  CHG  1   1   1
M  END
>  <meeko>  (4) 
{"is_sidechain": [false], "free_energy": -7.434, "intermolecular_energy": -8.788, "internal_energy": -0.099}

$$$$
2ymd_ligand
     RDKit          3D

 26 27  0  0  0  0  0  0  0  0999 V2000
   15.8370    7.3760   12.8100 N   0  0  0  0  0  0  0  0  0  0  0  0
   16.5040    8.0760   13.9420 C   0  0  0  0  0  0  0  0  0  0  0  0
   17.9780    8.3470   13.6300 C   0  0  0  0  0  0  0  0  0  0  0  0
   18.2610    9.8000   13.4070 C   0  0  0  0  0  0  0  0  0  0  0  0
   19.0250   10.6140   14.2200 C   0  0  0  0  0  0  0  0  0  0  0  0
   19.0620   11.8670   13.6660 N   0  0  0  0  0  0  0  0  0  0  0  0
   18.3670   11.8770   12.4800 C   0  0  0  0  0  0  0  0  0  0  0  0
   18.1750   12.9180   11.5660 C   0  0  0  0  0  0  0  0  0  0  0  0
   17.3880   12.6550   10.4420 C   0  0  0  0  0  0  0  0  0  0  0  0
   16.8060   11.4080   10.2640 C   0  0  0  0  0  0  0  0  0  0  0  0
   16.0350   11.2330    9.1520 O   0  0  0  0  0  0  0  0  0  0  0  0
   17.0030   10.3700   11.1770 C   0  0  0  0  0  0  0  0  0  0  0  0
   17.8160   10.6060   12.3080 C   0  0  0  0  0  0  0  0  0  0  0  0
   14.8470    7.1980   13.0370 H   0  0  0  0  0  0  0  0  0  0  0  0
   15.8510    7.9380   11.9500 H   0  0  0  0  0  0  0  0  0  0  0  0
   16.2740    6.4680   12.6100 H   0  0  0  0  0  0  0  0  0  0  0  0
   15.9933    9.0332   14.1237 H   0  0  0  0  0  0  0  0  0  0  0  0
   16.4477    7.4329   14.8326 H   0  0  0  0  0  0  0  0  0  0  0  0
   18.5876    7.9949   14.4752 H   0  0  0  0  0  0  0  0  0  0  0  0
   18.2258    7.8127   12.7010 H   0  0  0  0  0  0  0  0  0  0  0  0
   19.5198   10.3085   15.1537 H   0  0  0  0  0  0  0  0  0  0  0  0
   19.5220   12.6770   14.0650 H   0  0  0  0  0  0  0  0  0  0  0  0
   18.6272   13.9079   11.7263 H   0  0  0  0  0  0  0  0  0  0  0  0
   17.2284   13.4433    9.6916 H   0  0  0  0  0  0  0  0  0  0  0  0
   15.2580   11.8130    9.1990 H   0  0  0  0  0  0  0  0  0  0  0  0
   16.5342    9.3876   11.0187 H   0  0  0  0  0  0  0  0  0  0  0  0
  1  2  1  0
  2  3  1  0
  3  4  1  0
  4  5  2  0
  5  6  1  0
  6  7  1  0
  7  8  2  0
  8  9  1  0
  9 10  2  0
 10 11  1  0
 10 12  1  0
 12 13  2  0
 13  4  1  0
 13  7  1  0
  1 14  1  0
  1 15  1  0
  1 16  1  0
  2 17  1  0
  2 18  1  0
  3 19  1  0
  3 20  1  0
  5 21  1  0
  6 22  1  0
  8 23  1  0
  9 24  1  0
 11 25  1  0
 12 26  1  0
M  CHG  1   1   1
M  END
>  <meeko>  (5) 
{"is_sidechain": [false], "free_energy": -7.402, "intermolecular_energy": -8.732, "internal_energy": -0.118}

$$$$
2ymd_ligand
     RDKit          3D

 26 27  0  0  0  0  0  0  0  0999 V2000
   18.5920   24.3480    1.2180 N   0  0  0  0  0  0  0  0  0  0  0  0
   19.6090   23.4270    1.7970 C   0  0  0  0  0  0  0  0  0  0  0  0
   19.5470   22.0500    1.1300 C   0  0  0  0  0  0  0  0  0  0  0  0
   20.3100   21.0090    1.8870 C   0  0  0  0  0  0  0  0  0  0  0  0
   21.3640   21.2400    2.7510 C   0  0  0  0  0  0  0  0  0  0  0  0
   21.7790   20.0370    3.2590 N   0  0  0  0  0  0  0  0  0  0  0  0
   20.9870   19.0240    2.7730 C   0  0  0  0  0  0  0  0  0  0  0  0
   21.0220   17.6530    3.0480 C   0  0  0  0  0  0  0  0  0  0  0  0
   20.1070   16.8360    2.3810 C   0  0  0  0  0  0  0  0  0  0  0  0
   19.2150   17.3760    1.4640 C   0  0  0  0  0  0  0  0  0  0  0  0
   18.3650   16.5120    0.8380 O   0  0  0  0  0  0  0  0  0  0  0  0
   19.1820   18.7450    1.1940 C   0  0  0  0  0  0  0  0  0  0  0  0
   20.0810   19.5940    1.8760 C   0  0  0  0  0  0  0  0  0  0  0  0
   17.8560   23.8060    0.7390 H   0  0  0  0  0  0  0  0  0  0  0  0
   18.1280   24.9100    1.9420 H   0  0  0  0  0  0  0  0  0  0  0  0
   19.0020   24.9860    0.5260 H   0  0  0  0  0  0  0  0  0  0  0  0
   20.6105   23.8556    1.6444 H   0  0  0  0  0  0  0  0  0  0  0  0
   19.4006   23.3057    2.8702 H   0  0  0  0  0  0  0  0  0  0  0  0
   18.4944   21.7373    1.0646 H   0  0  0  0  0  0  0  0  0  0  0  0
   20.0058   22.1411    0.1344 H   0  0  0  0  0  0  0  0  0  0  0  0
   21.7963   22.2228    2.9902 H   0  0  0  0  0  0  0  0  0  0  0  0
   22.5570   19.9000    3.8920 H   0  0  0  0  0  0  0  0  0  0  0  0
   21.7443   17.2336    3.7639 H   0  0  0  0  0  0  0  0  0  0  0  0
   20.0927   15.7549    2.5838 H   0  0  0  0  0  0  0  0  0  0  0  0
   18.7040   16.3050   -0.0480 H   0  0  0  0  0  0  0  0  0  0  0  0
   18.4690   19.1549    0.4636 H   0  0  0  0  0  0  0  0  0  0  0  0
  1  2  1  0
  2  3  1  0
  3  4  1  0
  4  5  2  0
  5  6  1  0
  6  7  1  0
  7  8  2  0
  8  9  1  0
  9 10  2  0
 10 11  1  0
 10 12  1  0
 12 13  2  0
 13  4  1  0
 13  7  1  0
  1 14  1  0
  1 15  1  0
  1 16  1  0
  2 17  1  0
  2 18  1  0
  3 19  1  0
  3 20  1  0
  5 21  1  0
  6 22  1  0
  8 23  1  0
  9 24  1  0
 11 25  1  0
 12 26  1  0
M  CHG  1   1   1
M  END
>  <meeko>  (6) 
{"is_sidechain": [false], "free_energy": -7.396, "intermolecular_energy": -8.769, "internal_energy": -0.073}

$$$$
2ymd_ligand
     RDKit          3D

 26 27  0  0  0  0  0  0  0  0999 V2000
   24.0490   20.0800    4.6780 N   0  0  0  0  0  0  0  0  0  0  0  0
   23.7240   20.2280    3.2330 C   0  0  0  0  0  0  0  0  0  0  0  0
   22.9670   19.0030    2.7130 C   0  0  0  0  0  0  0  0  0  0  0  0
   21.4880   19.2240    2.6490 C   0  0  0  0  0  0  0  0  0  0  0  0
   20.8300   20.4080    2.9220 C   0  0  0  0  0  0  0  0  0  0  0  0
   19.4870   20.2100    2.7320 N   0  0  0  0  0  0  0  0  0  0  0  0
   19.2580   18.9260    2.2980 C   0  0  0  0  0  0  0  0  0  0  0  0
   18.0560   18.3030    1.9460 C   0  0  0  0  0  0  0  0  0  0  0  0
   18.1110   16.9610    1.5650 C   0  0  0  0  0  0  0  0  0  0  0  0
   19.3180   16.2760    1.5620 C   0  0  0  0  0  0  0  0  0  0  0  0
   19.2890   14.9620    1.1970 O   0  0  0  0  0  0  0  0  0  0  0  0
   20.5160   16.9020    1.9110 C   0  0  0  0  0  0  0  0  0  0  0  0
   20.4880   18.2660    2.2760 C   0  0  0  0  0  0  0  0  0  0  0  0
   24.8370   19.4250    4.7990 H   0  0  0  0  0  0  0  0  0  0  0  0
   24.3350   20.9730    5.1000 H   0  0  0  0  0  0  0  0  0  0  0  0
   23.2570   19.7080    5.2140 H   0  0  0  0  0  0  0  0  0  0  0  0
   23.0991   21.1226    3.0946 H   0  0  0  0  0  0  0  0  0  0  0  0
   24.6642   20.3241    2.6702 H   0  0  0  0  0  0  0  0  0  0  0  0
   23.3318   18.7663    1.7026 H   0  0  0  0  0  0  0  0  0  0  0  0
   23.1500   18.1760    3.4148 H   0  0  0  0  0  0  0  0  0  0  0  0
   21.3034   21.3493    3.2380 H   0  0  0  0  0  0  0  0  0  0  0  0
   18.7600   20.8970    2.8910 H   0  0  0  0  0  0  0  0  0  0  0  0
   17.1022   18.8505    1.9686 H   0  0  0  0  0  0  0  0  0  0  0  0
   17.1891   16.4417    1.2644 H   0  0  0  0  0  0  0  0  0  0  0  0
   19.8700   14.8220    0.4320 H   0  0  0  0  0  0  0  0  0  0  0  0
   21.4636   16.3435    1.9019 H   0  0  0  0  0  0  0  0  0  0  0  0
  1  2  1  0
  2  3  1  0
  3  4  1  0
  4  5  2  0
  5  6  1  0
  6  7  1  0
  7  8  2  0
  8  9  1  0
  9 10  2  0
 10 11  1  0
 10 12  1  0
 12 13  2  0
 13  4  1  0
 13  7  1  0
  1 14  1  0
  1 15  1  0
  1 16  1  0
  2 17  1  0
  2 18  1  0
  3 19  1  0
  3 20  1  0
  5 21  1  0
  6 22  1  0
  8 23  1  0
  9 24  1  0
 11 25  1  0
 12 26  1  0
M  CHG  1   1   1
M  END
>  <meeko>  (7) 
{"is_sidechain": [false], "free_energy": -7.367, "intermolecular_energy": -8.707, "internal_energy": -0.102}

$$$$
2ymd_ligand
     RDKit          3D

 26 27  0  0  0  0  0  0  0  0999 V2000
   20.9090   14.1970   14.7120 N   0  0  0  0  0  0  0  0  0  0  0  0
   19.5990   14.2240   14.0050 C   0  0  0  0  0  0  0  0  0  0  0  0
   18.6360   13.1890   14.5920 C   0  0  0  0  0  0  0  0  0  0  0  0
   18.6350   11.9030   13.8260 C   0  0  0  0  0  0  0  0  0  0  0  0
   19.0620   10.6760   14.2960 C   0  0  0  0  0  0  0  0  0  0  0  0
   18.8830    9.7470   13.3040 N   0  0  0  0  0  0  0  0  0  0  0  0
   18.3070   10.3380   12.2050 C   0  0  0  0  0  0  0  0  0  0  0  0
   17.9130    9.7710   10.9880 C   0  0  0  0  0  0  0  0  0  0  0  0
   17.3750   10.6220   10.0210 C   0  0  0  0  0  0  0  0  0  0  0  0
   17.2620   11.9840   10.2640 C   0  0  0  0  0  0  0  0  0  0  0  0
   16.7450   12.7550    9.2640 O   0  0  0  0  0  0  0  0  0  0  0  0
   17.6530   12.5460   11.4800 C   0  0  0  0  0  0  0  0  0  0  0  0
   18.1760   11.7000   12.4830 C   0  0  0  0  0  0  0  0  0  0  0  0
   21.5690   13.5810   14.2120 H   0  0  0  0  0  0  0  0  0  0  0  0
   21.3420   15.1280   14.7530 H   0  0  0  0  0  0  0  0  0  0  0  0
   20.8200   13.8390   15.6700 H   0  0  0  0  0  0  0  0  0  0  0  0
   19.1560   15.2257   14.1070 H   0  0  0  0  0  0  0  0  0  0  0  0
   19.7683   13.9829   12.9452 H   0  0  0  0  0  0  0  0  0  0  0  0
   18.9335   12.9802   15.6302 H   0  0  0  0  0  0  0  0  0  0  0  0
   17.6212   13.6099   14.5371 H   0  0  0  0  0  0  0  0  0  0  0  0
   19.4753   10.4782   15.2960 H   0  0  0  0  0  0  0  0  0  0  0  0
   19.1400    8.7690   13.3570 H   0  0  0  0  0  0  0  0  0  0  0  0
   18.0233    8.6928   10.7999 H   0  0  0  0  0  0  0  0  0  0  0  0
   17.0378   10.2099    9.0585 H   0  0  0  0  0  0  0  0  0  0  0  0
   16.7570   13.6880    9.5310 H   0  0  0  0  0  0  0  0  0  0  0  0
   17.5557   13.6278   11.6542 H   0  0  0  0  0  0  0  0  0  0  0  0
  1  2  1  0
  2  3  1  0
  3  4  1  0
  4  5  2  0
  5  6  1  0
  6  7  1  0
  7  8  2  0
  8  9  1  0
  9 10  2  0
 10 11  1  0
 10 12  1  0
 12 13  2  0
 13  4  1  0
 13  7  1  0
  1 14  1  0
  1 15  1  0
  1 16  1  0
  2 17  1  0
  2 18  1  0
  3 19  1  0
  3 20  1  0
  5 21  1  0
  6 22  1  0
  8 23  1  0
  9 24  1  0
 11 25  1  0
 12 26  1  0
M  CHG  1   1   1
M  END
>  <meeko>  (8) 
{"is_sidechain": [false], "free_energy": -7.337, "intermolecular_energy": -8.688, "internal_energy": -0.086}

$$$$
2ymd_ligand
     RDKit          3D

 26 27  0  0  0  0  0  0  0  0999 V2000
   19.9870   22.4630    6.1810 N   0  0  0  0  0  0  0  0  0  0  0  0
   20.3550   21.9320    4.8400 C   0  0  0  0  0  0  0  0  0  0  0  0
   21.6290   21.0850    4.9140 C   0  0  0  0  0  0  0  0  0  0  0  0
   21.8320   20.2450    3.6930 C   0  0  0  0  0  0  0  0  0  0  0  0
   22.6380   20.5580    2.6140 C   0  0  0  0  0  0  0  0  0  0  0  0
   22.5730   19.5280    1.7120 N   0  0  0  0  0  0  0  0  0  0  0  0
   21.7700   18.5250    2.2010 C   0  0  0  0  0  0  0  0  0  0  0  0
   21.4520   17.2830    1.6420 C   0  0  0  0  0  0  0  0  0  0  0  0
   20.5740   16.4600    2.3510 C   0  0  0  0  0  0  0  0  0  0  0  0
   20.0270   16.8830    3.5550 C   0  0  0  0  0  0  0  0  0  0  0  0
   19.1620   16.0330    4.1790 O   0  0  0  0  0  0  0  0  0  0  0  0
   20.3490   18.1220    4.1110 C   0  0  0  0  0  0  0  0  0  0  0  0
   21.2550   18.9600    3.4240 C   0  0  0  0  0  0  0  0  0  0  0  0
   19.4150   23.3160    6.0800 H   0  0  0  0  0  0  0  0  0  0  0  0
   19.4290   21.7900    6.7200 H   0  0  0  0  0  0  0  0  0  0  0  0
   20.8150   22.7130    6.7350 H   0  0  0  0  0  0  0  0  0  0  0  0
   19.5309   21.3094    4.4614 H   0  0  0  0  0  0  0  0  0  0  0  0
   20.5384   22.7815    4.1657 H   0  0  0  0  0  0  0  0  0  0  0  0
   22.4927   21.7567    5.0273 H   0  0  0  0  0  0  0  0  0  0  0  0
   21.5284   20.4056    5.7733 H   0  0  0  0  0  0  0  0  0  0  0  0
   23.2307   21.4775    2.4990 H   0  0  0  0  0  0  0  0  0  0  0  0
   23.0360   19.5010    0.8120 H   0  0  0  0  0  0  0  0  0  0  0  0
   21.8780   16.9658    0.6787 H   0  0  0  0  0  0  0  0  0  0  0  0
   20.3137   15.4684    1.9522 H   0  0  0  0  0  0  0  0  0  0  0  0
   18.6910   16.5050    4.8840 H   0  0  0  0  0  0  0  0  0  0  0  0
   19.9056   18.4399    5.0662 H   0  0  0  0  0  0  0  0  0  0  0  0
  1  2  1  0
  2  3  1  0
  3  4  1  0
  4  5  2  0
  5  6  1  0
  6  7  1  0
  7  8  2  0
  8  9  1  0
  9 10  2  0
 10 11  1  0
 10 12  1  0
 12 13  2  0
 13  4  1  0
 13  7  1  0
  1 14  1  0
  1 15  1  0
  1 16  1  0
  2 17  1  0
  2 18  1  0
  3 19  1  0
  3 20  1  0
  5 21  1  0
  6 22  1  0
  8 23  1  0
  9 24  1  0
 11 25  1  0
 12 26  1  0
M  CHG  1   1   1
M  END
>  <meeko>  (9) 
{"is_sidechain": [false], "free_energy": -7.153, "intermolecular_energy": -8.46, "internal_energy": -0.097}

$$$$
