5c28_ligand
     RDKit          3D

 22 23  0  0  0  0  0  0  0  0999 V2000
    2.0990   -8.7030   -2.3340 C   0  0  0  0  0  0  0  0  0  0  0  0
    0.9420   -8.5820   -3.2690 C   0  0  0  0  0  0  0  0  0  0  0  0
    0.2680   -7.4040   -3.5040 C   0  0  0  0  0  0  0  0  0  0  0  0
    0.6290   -6.2080   -2.8840 N   0  0  0  0  0  0  0  0  0  0  0  0
   -0.7590   -7.3030   -4.3580 N   0  0  0  0  0  0  0  0  0  0  0  0
   -1.1680   -8.4110   -5.0050 C   0  0  0  0  0  0  0  0  0  0  0  0
   -2.3240   -8.2970   -5.9670 C   0  0  0  0  0  0  0  0  0  0  0  0
   -2.6350   -6.9740   -6.6280 C   0  0  0  0  0  0  0  0  0  0  0  0
   -2.0670   -8.0950   -7.4440 C   0  0  0  0  0  0  0  0  0  0  0  0
   -0.6050   -9.6100   -4.8180 N   0  0  0  0  0  0  0  0  0  0  0  0
    0.4290   -9.6580   -3.9630 C   0  0  0  0  0  0  0  0  0  0  0  0
    1.0690  -11.2500   -3.7990 Cl  0  0  0  0  0  0  0  0  0  0  0  0
    1.7371   -8.6651   -1.2959 H   0  0  0  0  0  0  0  0  0  0  0  0
    2.6129   -9.6598   -2.5085 H   0  0  0  0  0  0  0  0  0  0  0  0
    2.7998   -7.8732   -2.5085 H   0  0  0  0  0  0  0  0  0  0  0  0
    1.0330   -6.4470   -1.9810 H   0  0  0  0  0  0  0  0  0  0  0  0
    1.2750   -5.6660   -3.4460 H   0  0  0  0  0  0  0  0  0  0  0  0
   -2.8913   -9.0217   -5.3645 H   0  0  0  0  0  0  0  0  0  0  0  0
   -3.6807   -6.6648   -6.7725 H   0  0  0  0  0  0  0  0  0  0  0  0
   -2.3500   -5.9280   -6.4421 H   0  0  0  0  0  0  0  0  0  0  0  0
   -2.6964   -8.6078   -8.1862 H   0  0  0  0  0  0  0  0  0  0  0  0
   -1.1939   -8.2106   -8.1030 H   0  0  0  0  0  0  0  0  0  0  0  0
  1  2  1  0
  2  3  2  0
  3  4  1  0
  3  5  1  0
  5  6  2  0
  6  7  1  0
  7  8  1  0
  8  9  1  0
  6 10  1  0
 10 11  2  0
 11 12  1  0
 11  2  1  0
  9  7  1  0
  1 13  1  0
  1 14  1  0
  1 15  1  0
  4 16  1  0
  4 17  1  0
  7 18  1  0
  8 19  1  0
  8 20  1  0
  9 21  1  0
  9 22  1  0
M  END
>  <meeko>  (1) 
{"is_sidechain": [false], "free_energy": -5.565, "intermolecular_energy": -6.053, "internal_energy": 0.032}

$$$$
5c28_ligand
     RDKit          3D

 22 23  0  0  0  0  0  0  0  0999 V2000
   -0.5550   -6.7460   -3.9180 C   0  0  0  0  0  0  0  0  0  0  0  0
    0.0060   -8.1250   -4.0360 C   0  0  0  0  0  0  0  0  0  0  0  0
    0.9930   -8.6220   -3.2140 C   0  0  0  0  0  0  0  0  0  0  0  0
    1.5450   -7.8670   -2.1800 N   0  0  0  0  0  0  0  0  0  0  0  0
    1.4780   -9.8660   -3.3180 N   0  0  0  0  0  0  0  0  0  0  0  0
    0.9920  -10.6660   -4.2870 C   0  0  0  0  0  0  0  0  0  0  0  0
    1.5380  -12.0670   -4.4040 C   0  0  0  0  0  0  0  0  0  0  0  0
    2.1060  -12.7650   -3.1890 C   0  0  0  0  0  0  0  0  0  0  0  0
    0.8010  -13.2250   -3.7670 C   0  0  0  0  0  0  0  0  0  0  0  0
    0.0610  -10.2660   -5.1610 N   0  0  0  0  0  0  0  0  0  0  0  0
   -0.4030   -9.0150   -5.0070 C   0  0  0  0  0  0  0  0  0  0  0  0
   -1.5920   -8.6090   -6.1880 Cl  0  0  0  0  0  0  0  0  0  0  0  0
   -0.6619   -6.4833   -2.8552 H   0  0  0  0  0  0  0  0  0  0  0  0
    0.1238   -6.0310   -4.4060 H   0  0  0  0  0  0  0  0  0  0  0  0
   -1.5401   -6.7079   -4.4060 H   0  0  0  0  0  0  0  0  0  0  0  0
    1.4510   -8.4120   -1.3250 H   0  0  0  0  0  0  0  0  0  0  0  0
    2.5130   -7.6240   -2.3580 H   0  0  0  0  0  0  0  0  0  0  0  0
    1.9054  -11.8357   -5.4147 H   0  0  0  0  0  0  0  0  0  0  0  0
    3.0023  -13.3951   -3.2867 H   0  0  0  0  0  0  0  0  0  0  0  0
    2.4418  -12.4394   -2.1934 H   0  0  0  0  0  0  0  0  0  0  0  0
    0.7415  -14.1918   -4.2884 H   0  0  0  0  0  0  0  0  0  0  0  0
   -0.2139  -13.3754   -3.3702 H   0  0  0  0  0  0  0  0  0  0  0  0
  1  2  1  0
  2  3  2  0
  3  4  1  0
  3  5  1  0
  5  6  2  0
  6  7  1  0
  7  8  1  0
  8  9  1  0
  6 10  1  0
 10 11  2  0
 11 12  1  0
 11  2  1  0
  9  7  1  0
  1 13  1  0
  1 14  1  0
  1 15  1  0
  4 16  1  0
  4 17  1  0
  7 18  1  0
  8 19  1  0
  8 20  1  0
  9 21  1  0
  9 22  1  0
M  END
>  <meeko>  (2) 
{"is_sidechain": [false], "free_energy": -5.437, "intermolecular_energy": -5.917, "internal_energy": 0.034}

$$$$
5c28_ligand
     RDKit          3D

 22 23  0  0  0  0  0  0  0  0999 V2000
    2.6480  -12.1600   -2.0870 C   0  0  0  0  0  0  0  0  0  0  0  0
    1.9680  -11.1140   -2.9080 C   0  0  0  0  0  0  0  0  0  0  0  0
    1.9590   -9.7750   -2.5850 C   0  0  0  0  0  0  0  0  0  0  0  0
    2.6060   -9.2810   -1.4540 N   0  0  0  0  0  0  0  0  0  0  0  0
    1.3600   -8.8430   -3.3380 N   0  0  0  0  0  0  0  0  0  0  0  0
    0.7170   -9.2350   -4.4550 C   0  0  0  0  0  0  0  0  0  0  0  0
    0.0430   -8.1850   -5.3030 C   0  0  0  0  0  0  0  0  0  0  0  0
    0.3130   -6.7190   -5.0540 C   0  0  0  0  0  0  0  0  0  0  0  0
    0.8510   -7.3730   -6.2910 C   0  0  0  0  0  0  0  0  0  0  0  0
    0.6360  -10.5150   -4.8350 N   0  0  0  0  0  0  0  0  0  0  0  0
    1.2630  -11.4100   -4.0550 C   0  0  0  0  0  0  0  0  0  0  0  0
    1.0870  -13.0230   -4.6390 Cl  0  0  0  0  0  0  0  0  0  0  0  0
    2.5042  -11.9388   -1.0191 H   0  0  0  0  0  0  0  0  0  0  0  0
    2.2173  -13.1453   -2.3186 H   0  0  0  0  0  0  0  0  0  0  0  0
    3.7233  -12.1663   -2.3186 H   0  0  0  0  0  0  0  0  0  0  0  0
    2.0260   -8.5330   -1.0780 H   0  0  0  0  0  0  0  0  0  0  0  0
    2.7710  -10.0030   -0.7620 H   0  0  0  0  0  0  0  0  0  0  0  0
   -0.8573   -8.8145   -5.3603 H   0  0  0  0  0  0  0  0  0  0  0  0
   -0.5063   -5.9890   -5.1308 H   0  0  0  0  0  0  0  0  0  0  0  0
    0.7529   -6.1404   -4.2283 H   0  0  0  0  0  0  0  0  0  0  0  0
    0.4258   -7.1226   -7.2741 H   0  0  0  0  0  0  0  0  0  0  0  0
    1.8475   -7.4720   -6.7462 H   0  0  0  0  0  0  0  0  0  0  0  0
  1  2  1  0
  2  3  2  0
  3  4  1  0
  3  5  1  0
  5  6  2  0
  6  7  1  0
  7  8  1  0
  8  9  1  0
  6 10  1  0
 10 11  2  0
 11 12  1  0
 11  2  1  0
  9  7  1  0
  1 13  1  0
  1 14  1  0
  1 15  1  0
  4 16  1  0
  4 17  1  0
  7 18  1  0
  8 19  1  0
  8 20  1  0
  9 21  1  0
  9 22  1  0
M  END
>  <meeko>  (3) 
{"is_sidechain": [false], "free_energy": -5.336, "intermolecular_energy": -5.808, "internal_energy": 0.036}

$$$$
5c28_ligand
     RDKit          3D

 22 23  0  0  0  0  0  0  0  0999 V2000
    2.1550  -12.4330   -2.9860 C   0  0  0  0  0  0  0  0  0  0  0  0
    1.5350  -11.2720   -3.6910 C   0  0  0  0  0  0  0  0  0  0  0  0
    0.8620  -11.3750   -4.8890 C   0  0  0  0  0  0  0  0  0  0  0  0
    0.6930  -12.5960   -5.5400 N   0  0  0  0  0  0  0  0  0  0  0  0
    0.2960  -10.3300   -5.5050 N   0  0  0  0  0  0  0  0  0  0  0  0
    0.4060   -9.1130   -4.9390 C   0  0  0  0  0  0  0  0  0  0  0  0
   -0.2330   -7.9350   -5.6320 C   0  0  0  0  0  0  0  0  0  0  0  0
    0.1230   -6.5260   -5.2190 C   0  0  0  0  0  0  0  0  0  0  0  0
    0.5900   -7.0510   -6.5430 C   0  0  0  0  0  0  0  0  0  0  0  0
    1.0720   -8.9000   -3.7970 N   0  0  0  0  0  0  0  0  0  0  0  0
    1.6100   -9.9810   -3.2110 C   0  0  0  0  0  0  0  0  0  0  0  0
    2.4450   -9.5870   -1.7550 Cl  0  0  0  0  0  0  0  0  0  0  0  0
    2.0766  -12.2862   -1.8987 H   0  0  0  0  0  0  0  0  0  0  0  0
    1.6303  -13.3572   -3.2700 H   0  0  0  0  0  0  0  0  0  0  0  0
    3.2148  -12.5110   -3.2700 H   0  0  0  0  0  0  0  0  0  0  0  0
    1.5400  -13.1390   -5.3870 H   0  0  0  0  0  0  0  0  0  0  0  0
   -0.1280  -13.0930   -5.2140 H   0  0  0  0  0  0  0  0  0  0  0  0
   -1.1673   -8.5066   -5.7333 H   0  0  0  0  0  0  0  0  0  0  0  0
   -0.6573   -5.7517   -5.1797 H   0  0  0  0  0  0  0  0  0  0  0  0
    0.6166   -6.0749   -4.3456 H   0  0  0  0  0  0  0  0  0  0  0  0
    0.1517   -6.6620   -7.4739 H   0  0  0  0  0  0  0  0  0  0  0  0
    1.5665   -7.1441   -7.0408 H   0  0  0  0  0  0  0  0  0  0  0  0
  1  2  1  0
  2  3  2  0
  3  4  1  0
  3  5  1  0
  5  6  2  0
  6  7  1  0
  7  8  1  0
  8  9  1  0
  6 10  1  0
 10 11  2  0
 11 12  1  0
 11  2  1  0
  9  7  1  0
  1 13  1  0
  1 14  1  0
  1 15  1  0
  4 16  1  0
  4 17  1  0
  7 18  1  0
  8 19  1  0
  8 20  1  0
  9 21  1  0
  9 22  1  0
M  END
>  <meeko>  (4) 
{"is_sidechain": [false], "free_energy": -5.234, "intermolecular_energy": -5.699, "internal_energy": 0.038}

$$$$
5c28_ligand
     RDKit          3D

 22 23  0  0  0  0  0  0  0  0999 V2000
    1.6290  -13.8000   -5.3720 C   0  0  0  0  0  0  0  0  0  0  0  0
    1.3610  -12.3830   -4.9840 C   0  0  0  0  0  0  0  0  0  0  0  0
    1.5940  -11.8790   -3.7230 C   0  0  0  0  0  0  0  0  0  0  0  0
    2.1190  -12.6630   -2.6970 N   0  0  0  0  0  0  0  0  0  0  0  0
    1.3660  -10.6020   -3.3900 N   0  0  0  0  0  0  0  0  0  0  0  0
    0.8650   -9.7730   -4.3260 C   0  0  0  0  0  0  0  0  0  0  0  0
    0.6090   -8.3350   -3.9510 C   0  0  0  0  0  0  0  0  0  0  0  0
    0.3460   -7.3050   -5.0260 C   0  0  0  0  0  0  0  0  0  0  0  0
   -0.7700   -7.7380   -4.1250 C   0  0  0  0  0  0  0  0  0  0  0  0
    0.5690  -10.1740   -5.5680 N   0  0  0  0  0  0  0  0  0  0  0  0
    0.8280  -11.4590   -5.8570 C   0  0  0  0  0  0  0  0  0  0  0  0
    0.4030  -11.8630   -7.4790 Cl  0  0  0  0  0  0  0  0  0  0  0  0
    1.7449  -14.4127   -4.4658 H   0  0  0  0  0  0  0  0  0  0  0  0
    0.7873  -14.1824   -5.9680 H   0  0  0  0  0  0  0  0  0  0  0  0
    2.5523  -13.8486   -5.9680 H   0  0  0  0  0  0  0  0  0  0  0  0
    3.1180  -12.4690   -2.6520 H   0  0  0  0  0  0  0  0  0  0  0  0
    1.6680  -12.4820   -1.8080 H   0  0  0  0  0  0  0  0  0  0  0  0
    1.3198   -8.4300   -3.1169 H   0  0  0  0  0  0  0  0  0  0  0  0
    0.7668   -6.2931   -4.9315 H   0  0  0  0  0  0  0  0  0  0  0  0
    0.4928   -7.2658   -6.1155 H   0  0  0  0  0  0  0  0  0  0  0  0
   -1.1672   -7.0436   -3.3699 H   0  0  0  0  0  0  0  0  0  0  0  0
   -1.7790   -8.1474   -4.2808 H   0  0  0  0  0  0  0  0  0  0  0  0
  1  2  1  0
  2  3  2  0
  3  4  1  0
  3  5  1  0
  5  6  2  0
  6  7  1  0
  7  8  1  0
  8  9  1  0
  6 10  1  0
 10 11  2  0
 11 12  1  0
 11  2  1  0
  9  7  1  0
  1 13  1  0
  1 14  1  0
  1 15  1  0
  4 16  1  0
  4 17  1  0
  7 18  1  0
  8 19  1  0
  8 20  1  0
  9 21  1  0
  9 22  1  0
M  END
>  <meeko>  (5) 
{"is_sidechain": [false], "free_energy": -5.208, "intermolecular_energy": -5.787, "internal_energy": 0.154}

$$$$
5c28_ligand
     RDKit          3D

 22 23  0  0  0  0  0  0  0  0999 V2000
   -2.5140   -4.6970   -6.5710 C   0  0  0  0  0  0  0  0  0  0  0  0
   -1.5810   -5.7270   -6.0260 C   0  0  0  0  0  0  0  0  0  0  0  0
   -1.2790   -5.8560   -4.6880 C   0  0  0  0  0  0  0  0  0  0  0  0
   -1.8430   -5.0270   -3.7200 N   0  0  0  0  0  0  0  0  0  0  0  0
   -0.4530   -6.7940   -4.2090 N   0  0  0  0  0  0  0  0  0  0  0  0
    0.1290   -7.6430   -5.0780 C   0  0  0  0  0  0  0  0  0  0  0  0
    1.0590   -8.7000   -4.5380 C   0  0  0  0  0  0  0  0  0  0  0  0
    1.1040   -8.9870   -3.0550 C   0  0  0  0  0  0  0  0  0  0  0  0
    0.5010   -9.9940   -3.9870 C   0  0  0  0  0  0  0  0  0  0  0  0
   -0.0680   -7.5770   -6.4000 N   0  0  0  0  0  0  0  0  0  0  0  0
   -0.9140   -6.6280   -6.8300 C   0  0  0  0  0  0  0  0  0  0  0  0
   -1.0860   -6.6350   -8.5460 Cl  0  0  0  0  0  0  0  0  0  0  0  0
   -2.9974   -4.1634   -5.7394 H   0  0  0  0  0  0  0  0  0  0  0  0
   -1.9504   -3.9813   -7.1876 H   0  0  0  0  0  0  0  0  0  0  0  0
   -3.2817   -5.1873   -7.1876 H   0  0  0  0  0  0  0  0  0  0  0  0
   -2.3070   -5.6290   -3.0410 H   0  0  0  0  0  0  0  0  0  0  0  0
   -1.1530   -4.4340   -3.2750 H   0  0  0  0  0  0  0  0  0  0  0  0
    1.8011   -8.4328   -5.3047 H   0  0  0  0  0  0  0  0  0  0  0  0
    2.0662   -9.1988   -2.5657 H   0  0  0  0  0  0  0  0  0  0  0  0
    0.7591   -8.4614   -2.1523 H   0  0  0  0  0  0  0  0  0  0  0  0
    1.0214  -10.9435   -4.1812 H   0  0  0  0  0  0  0  0  0  0  0  0
   -0.4679  -10.5110   -4.0502 H   0  0  0  0  0  0  0  0  0  0  0  0
  1  2  1  0
  2  3  2  0
  3  4  1  0
  3  5  1  0
  5  6  2  0
  6  7  1  0
  7  8  1  0
  8  9  1  0
  6 10  1  0
 10 11  2  0
 11 12  1  0
 11  2  1  0
  9  7  1  0
  1 13  1  0
  1 14  1  0
  1 15  1  0
  4 16  1  0
  4 17  1  0
  7 18  1  0
  8 19  1  0
  8 20  1  0
  9 21  1  0
  9 22  1  0
M  END
>  <meeko>  (6) 
{"is_sidechain": [false], "free_energy": -5.199, "intermolecular_energy": -5.657, "internal_energy": 0.034}

$$$$
5c28_ligand
     RDKit          3D

 22 23  0  0  0  0  0  0  0  0999 V2000
   -5.7690   -3.9940   -8.6080 C   0  0  0  0  0  0  0  0  0  0  0  0
   -4.3620   -4.3570   -8.2690 C   0  0  0  0  0  0  0  0  0  0  0  0
   -3.7800   -4.1050   -7.0450 C   0  0  0  0  0  0  0  0  0  0  0  0
   -4.4780   -3.4920   -6.0060 N   0  0  0  0  0  0  0  0  0  0  0  0
   -2.5210   -4.4500   -6.7460 N   0  0  0  0  0  0  0  0  0  0  0  0
   -1.7780   -5.0550   -7.6920 C   0  0  0  0  0  0  0  0  0  0  0  0
   -0.3610   -5.4450   -7.3550 C   0  0  0  0  0  0  0  0  0  0  0  0
    0.0040   -5.8360   -5.9410 C   0  0  0  0  0  0  0  0  0  0  0  0
   -0.0270   -6.8810   -7.0150 C   0  0  0  0  0  0  0  0  0  0  0  0
   -2.2370   -5.3100   -8.9240 N   0  0  0  0  0  0  0  0  0  0  0  0
   -3.5090   -4.9570   -9.1710 C   0  0  0  0  0  0  0  0  0  0  0  0
   -3.9870   -5.3280  -10.7850 Cl  0  0  0  0  0  0  0  0  0  0  0  0
   -6.3429   -3.8459   -7.6813 H   0  0  0  0  0  0  0  0  0  0  0  0
   -5.7763   -3.0646   -9.1963 H   0  0  0  0  0  0  0  0  0  0  0  0
   -6.2251   -4.8039   -9.1963 H   0  0  0  0  0  0  0  0  0  0  0  0
   -5.3950   -3.9330   -5.9590 H   0  0  0  0  0  0  0  0  0  0  0  0
   -3.9890   -3.5630   -5.1220 H   0  0  0  0  0  0  0  0  0  0  0  0
    0.0099   -4.7079   -8.0824 H   0  0  0  0  0  0  0  0  0  0  0  0
    0.9658   -5.5161   -5.5138 H   0  0  0  0  0  0  0  0  0  0  0  0
   -0.4731   -5.7209   -4.9565 H   0  0  0  0  0  0  0  0  0  0  0  0
    0.9120   -7.3266   -7.3751 H   0  0  0  0  0  0  0  0  0  0  0  0
   -0.5360   -7.8477   -7.1431 H   0  0  0  0  0  0  0  0  0  0  0  0
  1  2  1  0
  2  3  2  0
  3  4  1  0
  3  5  1  0
  5  6  2  0
  6  7  1  0
  7  8  1  0
  8  9  1  0
  6 10  1  0
 10 11  2  0
 11 12  1  0
 11  2  1  0
  9  7  1  0
  1 13  1  0
  1 14  1  0
  1 15  1  0
  4 16  1  0
  4 17  1  0
  7 18  1  0
  8 19  1  0
  8 20  1  0
  9 21  1  0
  9 22  1  0
M  END
>  <meeko>  (7) 
{"is_sidechain": [false], "free_energy": -5.159, "intermolecular_energy": -5.624, "internal_energy": 0.045}

$$$$
5c28_ligand
     RDKit          3D

 22 23  0  0  0  0  0  0  0  0999 V2000
    1.3880   -8.6990   -2.8460 C   0  0  0  0  0  0  0  0  0  0  0  0
    0.4180   -8.1320   -3.8280 C   0  0  0  0  0  0  0  0  0  0  0  0
    0.0140   -6.8150   -3.8310 C   0  0  0  0  0  0  0  0  0  0  0  0
    0.4980   -5.8900   -2.9070 N   0  0  0  0  0  0  0  0  0  0  0  0
   -0.8450   -6.3120   -4.7270 N   0  0  0  0  0  0  0  0  0  0  0  0
   -1.3550   -7.1370   -5.6610 C   0  0  0  0  0  0  0  0  0  0  0  0
   -2.3210   -6.5710   -6.6720 C   0  0  0  0  0  0  0  0  0  0  0  0
   -2.5590   -5.0800   -6.7440 C   0  0  0  0  0  0  0  0  0  0  0  0
   -1.8090   -5.7660   -7.8460 C   0  0  0  0  0  0  0  0  0  0  0  0
   -1.0560   -8.4400   -5.7210 N   0  0  0  0  0  0  0  0  0  0  0  0
   -0.1810   -8.8940   -4.8090 C   0  0  0  0  0  0  0  0  0  0  0  0
    0.1240  -10.5820   -4.9790 Cl  0  0  0  0  0  0  0  0  0  0  0  0
    1.0371   -8.4939   -1.8238 H   0  0  0  0  0  0  0  0  0  0  0  0
    1.4677   -9.7859   -2.9951 H   0  0  0  0  0  0  0  0  0  0  0  0
    2.3742   -8.2351   -2.9951 H   0  0  0  0  0  0  0  0  0  0  0  0
    0.6900   -5.0280   -3.4160 H   0  0  0  0  0  0  0  0  0  0  0  0
   -0.1520   -5.7320   -2.1460 H   0  0  0  0  0  0  0  0  0  0  0  0
   -2.9590   -7.4591   -6.5528 H   0  0  0  0  0  0  0  0  0  0  0  0
   -3.5726   -4.6940   -6.9272 H   0  0  0  0  0  0  0  0  0  0  0  0
   -2.3535   -4.2284   -6.0787 H   0  0  0  0  0  0  0  0  0  0  0  0
   -2.2731   -5.8829   -8.8364 H   0  0  0  0  0  0  0  0  0  0  0  0
   -0.8272   -5.6252   -8.3217 H   0  0  0  0  0  0  0  0  0  0  0  0
  1  2  1  0
  2  3  2  0
  3  4  1  0
  3  5  1  0
  5  6  2  0
  6  7  1  0
  7  8  1  0
  8  9  1  0
  6 10  1  0
 10 11  2  0
 11 12  1  0
 11  2  1  0
  9  7  1  0
  1 13  1  0
  1 14  1  0
  1 15  1  0
  4 16  1  0
  4 17  1  0
  7 18  1  0
  8 19  1  0
  8 20  1  0
  9 21  1  0
  9 22  1  0
M  END
>  <meeko>  (8) 
{"is_sidechain": [false], "free_energy": -5.137, "intermolecular_energy": -5.599, "internal_energy": 0.044}

$$$$
5c28_ligand
     RDKit          3D

 22 23  0  0  0  0  0  0  0  0999 V2000
   -0.1830   -6.3100   -4.3170 C   0  0  0  0  0  0  0  0  0  0  0  0
   -1.3110   -6.5650   -5.2610 C   0  0  0  0  0  0  0  0  0  0  0  0
   -1.7610   -5.6430   -6.1820 C   0  0  0  0  0  0  0  0  0  0  0  0
   -1.1780   -4.3840   -6.3140 N   0  0  0  0  0  0  0  0  0  0  0  0
   -2.7640   -5.8880   -7.0360 N   0  0  0  0  0  0  0  0  0  0  0  0
   -3.3770   -7.0850   -6.9800 C   0  0  0  0  0  0  0  0  0  0  0  0
   -4.5060   -7.3610   -7.9420 C   0  0  0  0  0  0  0  0  0  0  0  0
   -5.5780   -8.3660   -7.5880 C   0  0  0  0  0  0  0  0  0  0  0  0
   -5.9110   -6.9050   -7.6170 C   0  0  0  0  0  0  0  0  0  0  0  0
   -3.0420   -8.0340   -6.0970 N   0  0  0  0  0  0  0  0  0  0  0  0
   -2.0230   -7.7460   -5.2720 C   0  0  0  0  0  0  0  0  0  0  0  0
   -1.6830   -9.0350   -4.1790 Cl  0  0  0  0  0  0  0  0  0  0  0  0
   -0.5456   -6.3920   -3.2817 H   0  0  0  0  0  0  0  0  0  0  0  0
    0.6119   -7.0511   -4.4868 H   0  0  0  0  0  0  0  0  0  0  0  0
    0.2159   -5.2990   -4.4868 H   0  0  0  0  0  0  0  0  0  0  0  0
   -0.3410   -4.4980   -6.8830 H   0  0  0  0  0  0  0  0  0  0  0  0
   -1.8130   -3.7100   -6.7240 H   0  0  0  0  0  0  0  0  0  0  0  0
   -3.8148   -7.2208   -8.7861 H   0  0  0  0  0  0  0  0  0  0  0  0
   -5.9796   -9.0362   -8.3623 H   0  0  0  0  0  0  0  0  0  0  0  0
   -5.6730   -9.1688   -6.8420 H   0  0  0  0  0  0  0  0  0  0  0  0
   -6.5563   -6.5044   -8.4126 H   0  0  0  0  0  0  0  0  0  0  0  0
   -6.3506   -6.1946   -6.9014 H   0  0  0  0  0  0  0  0  0  0  0  0
  1  2  1  0
  2  3  2  0
  3  4  1  0
  3  5  1  0
  5  6  2  0
  6  7  1  0
  7  8  1  0
  8  9  1  0
  6 10  1  0
 10 11  2  0
 11 12  1  0
 11  2  1  0
  9  7  1  0
  1 13  1  0
  1 14  1  0
  1 15  1  0
  4 16  1  0
  4 17  1  0
  7 18  1  0
  8 19  1  0
  8 20  1  0
  9 21  1  0
  9 22  1  0
M  END
>  <meeko>  (9) 
{"is_sidechain": [false], "free_energy": -5.073, "intermolecular_energy": -5.527, "internal_energy": 0.041}

$$$$
