
     RDKit          3D

 14 13  0  0  0  0  0  0  0  0999 V2000
   -2.3480   -0.1400    4.0800 N   0  0  0  0  0  0  0  0  0  0  0  0
   -2.8210   -1.1630    3.1540 C   0  0  0  0  0  0  0  0  0  0  0  0
   -4.2390   -1.6070    3.4640 C   0  0  0  0  0  0  0  0  0  0  0  0
   -5.2930   -0.7950    2.6950 C   0  0  0  0  0  0  0  0  0  0  0  0
   -5.8470    0.2610    3.5320 N   0  0  0  0  0  0  0  0  0  0  0  0
   -7.2660    0.5080    3.2170 C   0  0  0  0  0  0  0  0  0  0  0  0
   -7.9110    1.2460    4.3730 C   0  0  0  0  0  0  0  0  0  0  0  0
   -9.4070    1.2440    4.2460 C   0  0  0  0  0  0  0  0  0  0  0  0
  -10.0690    1.4880    5.5800 C   0  0  0  0  0  0  0  0  0  0  0  0
  -11.4450    1.9680    5.4080 N   0  0  0  0  0  0  0  0  0  0  0  0
  -12.4640    0.9540    5.6360 C   0  0  0  0  0  0  0  0  0  0  0  0
  -13.8400    1.4680    5.1940 C   0  0  0  0  0  0  0  0  0  0  0  0
  -14.9670    0.5980    5.7410 C   0  0  0  0  0  0  0  0  0  0  0  0
  -16.2760    1.1320    5.3470 N   0  0  0  0  0  0  0  0  0  0  0  0
  2  1  1  0
  3  2  1  0
  4  3  1  0
  5  4  1  0
  6  5  1  0
  7  6  1  0
  8  7  1  0
  9  8  1  0
 10  9  1  0
 11 10  1  0
 12 11  1  0
 13 12  1  0
 14 13  1  0
M  CHG  4   1   1   5   1  10   1  14   1
M  END
$$$$
