
     RDKit          3D

 24 27  0  0  0  0  0  0  0  0999 V2000
   -5.9320   10.3870  -14.7120 C   0  0  0  0  0  0  0  0  0  0  0  0
   -5.1120    9.7740  -15.6560 O   0  0  0  0  0  0  0  0  0  0  0  0
   -4.6300    8.4960  -15.3100 C   0  0  0  0  0  0  0  0  0  0  0  0
   -4.2640    7.8210  -16.6210 C   0  0  0  0  0  0  0  0  0  0  0  0
   -5.0110    6.7490  -17.1220 C   0  0  0  0  0  0  0  0  0  0  0  0
   -4.7460    6.2290  -18.3870 C   0  0  0  0  0  0  0  0  0  0  0  0
   -5.4880    5.2130  -18.8780 O   0  0  0  0  0  0  0  0  0  0  0  0
   -3.7190    6.7530  -19.1550 C   0  0  0  0  0  0  0  0  0  0  0  0
   -2.9590    7.8020  -18.6720 C   0  0  0  0  0  0  0  0  0  0  0  0
   -3.2250    8.3220  -17.3840 C   0  0  0  0  0  0  0  0  0  0  0  0
   -2.4350    9.3090  -16.8400 O   0  0  0  0  0  0  0  0  0  0  0  0
   -1.7650   10.1750  -17.7660 C   0  0  1  0  0  0  0  0  0  0  0  0
   -0.8290   11.1390  -17.0610 C   0  0  0  0  0  0  0  0  0  0  0  0
   -0.7410   11.2020  -15.6870 C   0  0  0  0  0  0  0  0  0  0  0  0
    0.1470   12.0730  -15.0710 C   0  0  0  0  0  0  0  0  0  0  0  0
    0.9520   12.8820  -15.8510 C   0  0  0  0  0  0  0  0  0  0  0  0
    1.8360   13.7410  -15.2640 O   0  0  0  0  0  0  0  0  0  0  0  0
    0.8860   12.8470  -17.2310 C   0  0  0  0  0  0  0  0  0  0  0  0
    0.0070   11.9880  -17.8380 C   0  0  0  0  0  0  0  0  0  0  0  0
   -0.9600    9.3260  -18.7460 C   0  0  1  0  0  0  0  0  0  0  0  0
    0.0500    8.4750  -17.9970 C   0  0  0  0  0  0  0  0  0  0  0  0
   -0.0450    7.0880  -18.5510 C   0  0  0  0  0  0  0  0  0  0  0  0
   -0.8660    7.1580  -19.7880 C   0  0  0  0  0  0  0  0  0  0  0  0
   -1.8330    8.3200  -19.5310 C   0  0  1  0  0  0  0  0  0  0  0  0
  2  1  1  0
  3  2  1  0
  4  3  1  0
  5  4  2  0
  6  5  1  0
  7  6  1  0
  8  6  2  0
  9  8  1  0
 10  9  2  0
 10  4  1  0
 11 10  1  0
 12 11  1  0
 12 13  1  1
 14 13  2  0
 15 14  1  0
 16 15  2  0
 17 16  1  0
 18 16  1  0
 19 18  2  0
 19 13  1  0
 20 12  1  0
 20 21  1  1
 22 21  1  0
 23 22  1  0
 24 23  1  1
 24 20  1  0
 24  9  1  0
M  END
$$$$
