1sqa_ligand
     RDKit          3D

 54 57  0  0  0  0  0  0  0  0999 V2000
   -5.0150   -8.2130   -5.1390 N   0  0  0  0  0  0  0  0  0  0  0  0
   -6.2500   -8.0070   -4.7380 C   0  0  0  0  0  0  0  0  0  0  0  0
   -7.0340   -9.0080   -4.3970 N   0  0  0  0  0  0  0  0  0  0  0  0
   -6.7650   -6.6330   -4.6650 C   0  0  0  0  0  0  0  0  0  0  0  0
   -6.2280   -5.7190   -3.7550 C   0  0  0  0  0  0  0  0  0  0  0  0
   -6.7360   -4.4220   -3.6790 C   0  0  0  0  0  0  0  0  0  0  0  0
   -7.7850   -4.0030   -4.5110 C   0  0  0  0  0  0  0  0  0  0  0  0
   -8.2900   -2.7030   -4.3950 C   0  0  0  0  0  0  0  0  0  0  0  0
   -9.3490   -2.2690   -5.1960 C   0  0  0  0  0  0  0  0  0  0  0  0
   -9.8380   -0.8690   -5.0290 C   0  0  0  0  0  0  0  0  0  0  0  0
  -10.9680   -0.7030   -4.5860 O   0  0  0  0  0  0  0  0  0  0  0  0
   -8.9670    0.1260   -5.4420 N   0  0  0  0  0  0  0  0  0  0  0  0
   -9.1570    1.5190   -5.3230 C   0  0  0  0  0  0  0  0  0  0  0  0
   -9.7360    2.1890   -6.4060 C   0  0  0  0  0  0  0  0  0  0  0  0
   -9.9510    3.5740   -6.3630 C   0  0  0  0  0  0  0  0  0  0  0  0
   -9.5750    4.3170   -5.2360 C   0  0  0  0  0  0  0  0  0  0  0  0
   -9.8290    5.7930   -5.1620 C   0  0  0  0  0  0  0  0  0  0  0  0
   -9.4180    6.4660   -6.4120 N   0  0  0  0  0  0  0  0  0  0  0  0
   -8.9890    3.6450   -4.1560 C   0  0  0  0  0  0  0  0  0  0  0  0
   -8.7840    2.2620   -4.2020 C   0  0  0  0  0  0  0  0  0  0  0  0
   -9.8860   -3.1320   -6.1530 C   0  0  0  0  0  0  0  0  0  0  0  0
   -9.3930   -4.4370   -6.3150 C   0  0  0  0  0  0  0  0  0  0  0  0
   -9.9530   -5.3140   -7.2660 N   0  0  0  0  0  0  0  0  0  0  0  0
  -10.5980   -5.0940   -8.4820 C   0  0  0  0  0  0  0  0  0  0  0  0
  -10.0860   -4.2730   -9.4150 N   0  0  0  0  0  0  0  0  0  0  0  0
  -10.8110   -4.1020  -10.5400 C   0  0  0  0  0  0  0  0  0  0  0  0
  -12.0160   -4.7160  -10.7680 C   0  0  0  0  0  0  0  0  0  0  0  0
  -12.4560   -5.5300   -9.7570 C   0  0  0  0  0  0  0  0  0  0  0  0
  -11.7740   -5.7290   -8.6130 N   0  0  0  0  0  0  0  0  0  0  0  0
   -8.3390   -4.8950   -5.4620 C   0  0  0  0  0  0  0  0  0  0  0  0
   -7.8110   -6.2110   -5.5050 C   0  0  0  0  0  0  0  0  0  0  0  0
   -4.4350   -7.4280   -5.4230 H   0  0  0  0  0  0  0  0  0  0  0  0
   -4.6080   -9.1360   -5.2050 H   0  0  0  0  0  0  0  0  0  0  0  0
   -7.9760   -8.8260   -4.0640 H   0  0  0  0  0  0  0  0  0  0  0  0
   -6.7300   -9.9720   -4.4240 H   0  0  0  0  0  0  0  0  0  0  0  0
   -5.4015   -6.0232   -3.0960 H   0  0  0  0  0  0  0  0  0  0  0  0
   -6.3064   -3.7152   -2.9538 H   0  0  0  0  0  0  0  0  0  0  0  0
   -7.8465   -2.0127   -3.6623 H   0  0  0  0  0  0  0  0  0  0  0  0
   -8.1330   -0.1690   -5.9360 H   0  0  0  0  0  0  0  0  0  0  0  0
  -10.0263    1.6221   -7.3028 H   0  0  0  0  0  0  0  0  0  0  0  0
  -10.4182    4.0809   -7.2202 H   0  0  0  0  0  0  0  0  0  0  0  0
  -10.9029    5.9651   -4.9975 H   0  0  0  0  0  0  0  0  0  0  0  0
   -9.2397    6.2081   -4.3311 H   0  0  0  0  0  0  0  0  0  0  0  0
   -8.4110    6.3450   -6.5750 H   0  0  0  0  0  0  0  0  0  0  0  0
   -9.9200    6.0930   -7.2270 H   0  0  0  0  0  0  0  0  0  0  0  0
   -9.5970    7.4760   -6.3580 H   0  0  0  0  0  0  0  0  0  0  0  0
   -8.6868    4.2106   -3.2623 H   0  0  0  0  0  0  0  0  0  0  0  0
   -8.3225    1.7531   -3.3429 H   0  0  0  0  0  0  0  0  0  0  0  0
  -10.7106   -2.7833   -6.7921 H   0  0  0  0  0  0  0  0  0  0  0  0
   -9.5310   -6.2310   -7.3210 H   0  0  0  0  0  0  0  0  0  0  0  0
  -10.4135   -3.4330  -11.3175 H   0  0  0  0  0  0  0  0  0  0  0  0
  -12.5881   -4.5659  -11.6955 H   0  0  0  0  0  0  0  0  0  0  0  0
  -13.4175   -6.0484   -9.8869 H   0  0  0  0  0  0  0  0  0  0  0  0
   -8.2358   -6.9285   -6.2225 H   0  0  0  0  0  0  0  0  0  0  0  0
  1  2  1  0
  2  3  2  0
  2  4  1  0
  4  5  2  0
  5  6  1  0
  6  7  2  0
  7  8  1  0
  8  9  2  0
  9 10  1  0
 10 11  2  0
 10 12  1  0
 12 13  1  0
 13 14  2  0
 14 15  1  0
 15 16  2  0
 16 17  1  0
 17 18  1  0
 16 19  1  0
 19 20  2  0
  9 21  1  0
 21 22  2  0
 22 23  1  0
 23 24  1  0
 24 25  2  0
 25 26  1  0
 26 27  2  0
 27 28  1  0
 28 29  2  0
 22 30  1  0
 30 31  2  0
 31  4  1  0
 30  7  1  0
 20 13  1  0
 29 24  1  0
  1 32  1  0
  1 33  1  0
  3 34  1  0
  3 35  1  0
  5 36  1  0
  6 37  1  0
  8 38  1  0
 12 39  1  0
 14 40  1  0
 15 41  1  0
 17 42  1  0
 17 43  1  0
 18 44  1  0
 18 45  1  0
 18 46  1  0
 19 47  1  0
 20 48  1  0
 21 49  1  0
 23 50  1  0
 26 51  1  0
 27 52  1  0
 28 53  1  0
 31 54  1  0
M  CHG  2   3   1  18   1
M  END
>  <meeko>  (1) 
{"is_sidechain": [false], "free_energy": -8.816, "intermolecular_energy": -12.166, "internal_energy": -0.844}

$$$$
1sqa_ligand
     RDKit          3D

 54 57  0  0  0  0  0  0  0  0999 V2000
   -8.2700   -4.7110   -9.4120 N   0  0  0  0  0  0  0  0  0  0  0  0
   -8.3580   -3.4540   -9.7900 C   0  0  0  0  0  0  0  0  0  0  0  0
   -8.1820   -3.1040  -11.0460 N   0  0  0  0  0  0  0  0  0  0  0  0
   -8.6630   -2.4210   -8.7900 C   0  0  0  0  0  0  0  0  0  0  0  0
   -8.8230   -1.0860   -9.1710 C   0  0  0  0  0  0  0  0  0  0  0  0
   -9.0940   -0.1090   -8.2130 C   0  0  0  0  0  0  0  0  0  0  0  0
   -9.2180   -0.4390   -6.8550 C   0  0  0  0  0  0  0  0  0  0  0  0
   -9.4650    0.5670   -5.9130 C   0  0  0  0  0  0  0  0  0  0  0  0
   -9.5700    0.2680   -4.5530 C   0  0  0  0  0  0  0  0  0  0  0  0
   -9.8420    1.3830   -3.6000 C   0  0  0  0  0  0  0  0  0  0  0  0
   -9.2040    1.4150   -2.5540 O   0  0  0  0  0  0  0  0  0  0  0  0
  -10.8400    2.2670   -3.9770 N   0  0  0  0  0  0  0  0  0  0  0  0
  -11.2340    3.4380   -3.2940 C   0  0  0  0  0  0  0  0  0  0  0  0
  -10.8730    4.6670   -3.8560 C   0  0  0  0  0  0  0  0  0  0  0  0
  -11.2240    5.8730   -3.2330 C   0  0  0  0  0  0  0  0  0  0  0  0
  -11.9320    5.8690   -2.0230 C   0  0  0  0  0  0  0  0  0  0  0  0
  -12.3430    7.1510   -1.3630 C   0  0  0  0  0  0  0  0  0  0  0  0
  -13.3450    6.9050   -0.3050 N   0  0  0  0  0  0  0  0  0  0  0  0
  -12.2860    4.6370   -1.4600 C   0  0  0  0  0  0  0  0  0  0  0  0
  -11.9390    3.4360   -2.0900 C   0  0  0  0  0  0  0  0  0  0  0  0
   -9.4650   -1.0590   -4.1300 C   0  0  0  0  0  0  0  0  0  0  0  0
   -9.2380   -2.0990   -5.0460 C   0  0  0  0  0  0  0  0  0  0  0  0
   -9.1090   -3.4340   -4.6130 N   0  0  0  0  0  0  0  0  0  0  0  0
   -8.0370   -4.3250   -4.6210 C   0  0  0  0  0  0  0  0  0  0  0  0
   -6.7650   -3.9010   -4.7170 N   0  0  0  0  0  0  0  0  0  0  0  0
   -5.8080   -4.8500   -4.7540 C   0  0  0  0  0  0  0  0  0  0  0  0
   -6.0680   -6.1950   -4.6980 C   0  0  0  0  0  0  0  0  0  0  0  0
   -7.3940   -6.5290   -4.6060 C   0  0  0  0  0  0  0  0  0  0  0  0
   -8.3880   -5.6210   -4.5720 N   0  0  0  0  0  0  0  0  0  0  0  0
   -9.0850   -1.7850   -6.4330 C   0  0  0  0  0  0  0  0  0  0  0  0
   -8.7950   -2.7530   -7.4300 C   0  0  0  0  0  0  0  0  0  0  0  0
   -8.3830   -4.9560   -8.4330 H   0  0  0  0  0  0  0  0  0  0  0  0
   -8.0660   -5.4630  -10.0570 H   0  0  0  0  0  0  0  0  0  0  0  0
   -8.2810   -2.1310  -11.3210 H   0  0  0  0  0  0  0  0  0  0  0  0
   -7.9750   -3.7730  -11.7750 H   0  0  0  0  0  0  0  0  0  0  0  0
   -8.7349   -0.8045  -10.2307 H   0  0  0  0  0  0  0  0  0  0  0  0
   -9.2125    0.9383   -8.5277 H   0  0  0  0  0  0  0  0  0  0  0  0
   -9.5780    1.6082   -6.2492 H   0  0  0  0  0  0  0  0  0  0  0  0
  -11.3890    2.0210   -4.7920 H   0  0  0  0  0  0  0  0  0  0  0  0
  -10.3065    4.6876   -4.7987 H   0  0  0  0  0  0  0  0  0  0  0  0
  -10.9417    6.8295   -3.6971 H   0  0  0  0  0  0  0  0  0  0  0  0
  -11.4570    7.6255   -0.9159 H   0  0  0  0  0  0  0  0  0  0  0  0
  -12.7903    7.8085   -2.1230 H   0  0  0  0  0  0  0  0  0  0  0  0
  -12.9000    6.5050    0.5300 H   0  0  0  0  0  0  0  0  0  0  0  0
  -13.8240    7.7700   -0.0270 H   0  0  0  0  0  0  0  0  0  0  0  0
  -14.0530    6.2330   -0.6230 H   0  0  0  0  0  0  0  0  0  0  0  0
  -12.8431    4.6125   -0.5118 H   0  0  0  0  0  0  0  0  0  0  0  0
  -12.2257    2.4788   -1.6301 H   0  0  0  0  0  0  0  0  0  0  0  0
   -9.5619   -1.2938   -3.0597 H   0  0  0  0  0  0  0  0  0  0  0  0
   -9.7110   -3.7090   -3.8500 H   0  0  0  0  0  0  0  0  0  0  0  0
   -4.7595   -4.5269   -4.8336 H   0  0  0  0  0  0  0  0  0  0  0  0
   -5.2699   -6.9515   -4.7250 H   0  0  0  0  0  0  0  0  0  0  0  0
   -7.6605   -7.5951   -4.5574 H   0  0  0  0  0  0  0  0  0  0  0  0
   -8.6687   -3.8029   -7.1271 H   0  0  0  0  0  0  0  0  0  0  0  0
  1  2  1  0
  2  3  2  0
  2  4  1  0
  4  5  2  0
  5  6  1  0
  6  7  2  0
  7  8  1  0
  8  9  2  0
  9 10  1  0
 10 11  2  0
 10 12  1  0
 12 13  1  0
 13 14  2  0
 14 15  1  0
 15 16  2  0
 16 17  1  0
 17 18  1  0
 16 19  1  0
 19 20  2  0
  9 21  1  0
 21 22  2  0
 22 23  1  0
 23 24  1  0
 24 25  2  0
 25 26  1  0
 26 27  2  0
 27 28  1  0
 28 29  2  0
 22 30  1  0
 30 31  2  0
 31  4  1  0
 30  7  1  0
 20 13  1  0
 29 24  1  0
  1 32  1  0
  1 33  1  0
  3 34  1  0
  3 35  1  0
  5 36  1  0
  6 37  1  0
  8 38  1  0
 12 39  1  0
 14 40  1  0
 15 41  1  0
 17 42  1  0
 17 43  1  0
 18 44  1  0
 18 45  1  0
 18 46  1  0
 19 47  1  0
 20 48  1  0
 21 49  1  0
 23 50  1  0
 26 51  1  0
 27 52  1  0
 28 53  1  0
 31 54  1  0
M  CHG  2   3   1  18   1
M  END
>  <meeko>  (2) 
{"is_sidechain": [false], "free_energy": -8.616, "intermolecular_energy": -12.029, "internal_energy": -0.704}

$$$$
1sqa_ligand
     RDKit          3D

 54 57  0  0  0  0  0  0  0  0999 V2000
   -6.8570   -8.9600   -4.5240 N   0  0  0  0  0  0  0  0  0  0  0  0
   -6.1050   -7.9150   -4.7890 C   0  0  0  0  0  0  0  0  0  0  0  0
   -4.8360   -8.0500   -5.1110 N   0  0  0  0  0  0  0  0  0  0  0  0
   -6.6920   -6.5690   -4.7290 C   0  0  0  0  0  0  0  0  0  0  0  0
   -6.1830   -5.6070   -3.8530 C   0  0  0  0  0  0  0  0  0  0  0  0
   -6.7600   -4.3390   -3.7890 C   0  0  0  0  0  0  0  0  0  0  0  0
   -7.8520   -3.9960   -4.6010 C   0  0  0  0  0  0  0  0  0  0  0  0
   -8.4250   -2.7230   -4.4970 C   0  0  0  0  0  0  0  0  0  0  0  0
   -9.5270   -2.3650   -5.2770 C   0  0  0  0  0  0  0  0  0  0  0  0
  -10.0880   -0.9910   -5.1260 C   0  0  0  0  0  0  0  0  0  0  0  0
  -10.8350   -0.5740   -6.0030 O   0  0  0  0  0  0  0  0  0  0  0  0
   -9.6660   -0.2890   -4.0090 N   0  0  0  0  0  0  0  0  0  0  0  0
  -10.1030    0.9890   -3.5990 C   0  0  0  0  0  0  0  0  0  0  0  0
   -9.4540    2.1020   -4.1440 C   0  0  0  0  0  0  0  0  0  0  0  0
   -9.8290    3.4030   -3.7810 C   0  0  0  0  0  0  0  0  0  0  0  0
  -10.8540    3.6130   -2.8490 C   0  0  0  0  0  0  0  0  0  0  0  0
  -11.2890    4.9990   -2.4760 C   0  0  0  0  0  0  0  0  0  0  0  0
  -11.9090    5.0180   -1.1350 N   0  0  0  0  0  0  0  0  0  0  0  0
  -11.4980    2.4970   -2.2990 C   0  0  0  0  0  0  0  0  0  0  0  0
  -11.1240    1.2010   -2.6720 C   0  0  0  0  0  0  0  0  0  0  0  0
  -10.0400   -3.2770   -6.2020 C   0  0  0  0  0  0  0  0  0  0  0  0
   -9.4800   -4.5560   -6.3510 C   0  0  0  0  0  0  0  0  0  0  0  0
  -10.0150   -5.4830   -7.2690 N   0  0  0  0  0  0  0  0  0  0  0  0
  -10.9140   -5.3460   -8.3260 C   0  0  0  0  0  0  0  0  0  0  0  0
  -12.1520   -5.8660   -8.2720 N   0  0  0  0  0  0  0  0  0  0  0  0
  -12.9260   -5.7090   -9.3660 C   0  0  0  0  0  0  0  0  0  0  0  0
  -12.5150   -5.0570  -10.5000 C   0  0  0  0  0  0  0  0  0  0  0  0
  -11.2360   -4.5660  -10.4610 C   0  0  0  0  0  0  0  0  0  0  0  0
  -10.4210   -4.7020   -9.3970 N   0  0  0  0  0  0  0  0  0  0  0  0
   -8.3810   -4.9370   -5.5180 C   0  0  0  0  0  0  0  0  0  0  0  0
   -7.7820   -6.2230   -5.5490 C   0  0  0  0  0  0  0  0  0  0  0  0
   -7.8280   -8.8320   -4.2520 H   0  0  0  0  0  0  0  0  0  0  0  0
   -6.5070   -9.9080   -4.5540 H   0  0  0  0  0  0  0  0  0  0  0  0
   -4.2790   -7.2310   -5.3380 H   0  0  0  0  0  0  0  0  0  0  0  0
   -4.3810   -8.9510   -5.1710 H   0  0  0  0  0  0  0  0  0  0  0  0
   -5.3236   -5.8507   -3.2111 H   0  0  0  0  0  0  0  0  0  0  0  0
   -6.3519   -3.5945   -3.0896 H   0  0  0  0  0  0  0  0  0  0  0  0
   -8.0012   -1.9940   -3.7907 H   0  0  0  0  0  0  0  0  0  0  0  0
   -8.9230   -0.7030   -3.4580 H   0  0  0  0  0  0  0  0  0  0  0  0
   -8.6384    1.9543   -4.8672 H   0  0  0  0  0  0  0  0  0  0  0  0
   -9.3150    4.2651   -4.2310 H   0  0  0  0  0  0  0  0  0  0  0  0
  -10.4121    5.6632   -2.4760 H   0  0  0  0  0  0  0  0  0  0  0  0
  -12.0329    5.3417   -3.2103 H   0  0  0  0  0  0  0  0  0  0  0  0
  -12.5070    4.1940   -1.0000 H   0  0  0  0  0  0  0  0  0  0  0  0
  -11.2020    5.0250   -0.3900 H   0  0  0  0  0  0  0  0  0  0  0  0
  -12.5050    5.8470   -1.0210 H   0  0  0  0  0  0  0  0  0  0  0  0
  -12.3059    2.6409   -1.5665 H   0  0  0  0  0  0  0  0  0  0  0  0
  -11.6419    0.3379   -2.2284 H   0  0  0  0  0  0  0  0  0  0  0  0
  -10.8989   -2.9879   -6.8255 H   0  0  0  0  0  0  0  0  0  0  0  0
   -9.4280   -6.2760   -7.4850 H   0  0  0  0  0  0  0  0  0  0  0  0
  -13.9432   -6.1273   -9.3471 H   0  0  0  0  0  0  0  0  0  0  0  0
  -13.1656   -4.9365  -11.3787 H   0  0  0  0  0  0  0  0  0  0  0  0
  -10.8551   -4.0330  -11.3447 H   0  0  0  0  0  0  0  0  0  0  0  0
   -8.1849   -6.9780   -6.2401 H   0  0  0  0  0  0  0  0  0  0  0  0
  1  2  1  0
  2  3  2  0
  2  4  1  0
  4  5  2  0
  5  6  1  0
  6  7  2  0
  7  8  1  0
  8  9  2  0
  9 10  1  0
 10 11  2  0
 10 12  1  0
 12 13  1  0
 13 14  2  0
 14 15  1  0
 15 16  2  0
 16 17  1  0
 17 18  1  0
 16 19  1  0
 19 20  2  0
  9 21  1  0
 21 22  2  0
 22 23  1  0
 23 24  1  0
 24 25  2  0
 25 26  1  0
 26 27  2  0
 27 28  1  0
 28 29  2  0
 22 30  1  0
 30 31  2  0
 31  4  1  0
 30  7  1  0
 20 13  1  0
 29 24  1  0
  1 32  1  0
  1 33  1  0
  3 34  1  0
  3 35  1  0
  5 36  1  0
  6 37  1  0
  8 38  1  0
 12 39  1  0
 14 40  1  0
 15 41  1  0
 17 42  1  0
 17 43  1  0
 18 44  1  0
 18 45  1  0
 18 46  1  0
 19 47  1  0
 20 48  1  0
 21 49  1  0
 23 50  1  0
 26 51  1  0
 27 52  1  0
 28 53  1  0
 31 54  1  0
M  CHG  2   3   1  18   1
M  END
>  <meeko>  (3) 
{"is_sidechain": [false], "free_energy": -8.536, "intermolecular_energy": -11.76, "internal_energy": -0.863}

$$$$
1sqa_ligand
     RDKit          3D

 54 57  0  0  0  0  0  0  0  0999 V2000
  -11.9430    5.3160   -1.2380 N   0  0  0  0  0  0  0  0  0  0  0  0
  -11.5240    5.0840   -2.4620 C   0  0  0  0  0  0  0  0  0  0  0  0
  -11.4040    6.0570   -3.3400 N   0  0  0  0  0  0  0  0  0  0  0  0
  -11.1770    3.7110   -2.8570 C   0  0  0  0  0  0  0  0  0  0  0  0
  -11.4290    2.6380   -2.0000 C   0  0  0  0  0  0  0  0  0  0  0  0
  -11.0800    1.3410   -2.3760 C   0  0  0  0  0  0  0  0  0  0  0  0
  -10.4780    1.0820   -3.6160 C   0  0  0  0  0  0  0  0  0  0  0  0
  -10.1160   -0.2270   -3.9550 C   0  0  0  0  0  0  0  0  0  0  0  0
   -9.4950   -0.5080   -5.1750 C   0  0  0  0  0  0  0  0  0  0  0  0
   -9.1400   -1.9250   -5.4810 C   0  0  0  0  0  0  0  0  0  0  0  0
   -9.5900   -2.4220   -6.5060 O   0  0  0  0  0  0  0  0  0  0  0  0
   -8.3570   -2.5670   -4.5360 N   0  0  0  0  0  0  0  0  0  0  0  0
   -7.8270   -3.8720   -4.6230 C   0  0  0  0  0  0  0  0  0  0  0  0
   -6.4420   -4.0000   -4.7770 C   0  0  0  0  0  0  0  0  0  0  0  0
   -5.8430   -5.2630   -4.8760 C   0  0  0  0  0  0  0  0  0  0  0  0
   -6.6250   -6.4260   -4.8390 C   0  0  0  0  0  0  0  0  0  0  0  0
   -5.9950   -7.7850   -4.9110 C   0  0  0  0  0  0  0  0  0  0  0  0
   -6.9030   -8.8200   -4.3740 N   0  0  0  0  0  0  0  0  0  0  0  0
   -8.0120   -6.2950   -4.6930 C   0  0  0  0  0  0  0  0  0  0  0  0
   -8.6030   -5.0310   -4.5860 C   0  0  0  0  0  0  0  0  0  0  0  0
   -9.2660    0.5260   -6.0850 C   0  0  0  0  0  0  0  0  0  0  0  0
   -9.6340    1.8490   -5.7900 C   0  0  0  0  0  0  0  0  0  0  0  0
   -9.3810    2.8940   -6.7010 N   0  0  0  0  0  0  0  0  0  0  0  0
   -9.7010    3.0670   -8.0470 C   0  0  0  0  0  0  0  0  0  0  0  0
   -8.8760    2.6590   -9.0270 N   0  0  0  0  0  0  0  0  0  0  0  0
   -9.2660    2.9100  -10.2940 C   0  0  0  0  0  0  0  0  0  0  0  0
  -10.4380    3.5450  -10.6180 C   0  0  0  0  0  0  0  0  0  0  0  0
  -11.2090    3.9260   -9.5500 C   0  0  0  0  0  0  0  0  0  0  0  0
  -10.8620    3.7050   -8.2670 N   0  0  0  0  0  0  0  0  0  0  0  0
  -10.2280    2.1420   -4.5220 C   0  0  0  0  0  0  0  0  0  0  0  0
  -10.5810    3.4510   -4.1040 C   0  0  0  0  0  0  0  0  0  0  0  0
  -12.0530    4.5470   -0.5830 H   0  0  0  0  0  0  0  0  0  0  0  0
  -12.1910    6.2400   -0.9100 H   0  0  0  0  0  0  0  0  0  0  0  0
  -11.0520    5.8600   -4.2720 H   0  0  0  0  0  0  0  0  0  0  0  0
  -11.6230    7.0190   -3.1210 H   0  0  0  0  0  0  0  0  0  0  0  0
  -11.9047    2.8162   -1.0243 H   0  0  0  0  0  0  0  0  0  0  0  0
  -11.2804    0.5065   -1.6879 H   0  0  0  0  0  0  0  0  0  0  0  0
  -10.3233   -1.0463   -3.2509 H   0  0  0  0  0  0  0  0  0  0  0  0
   -8.1960   -2.0780   -3.6630 H   0  0  0  0  0  0  0  0  0  0  0  0
   -5.8151   -3.0972   -4.8209 H   0  0  0  0  0  0  0  0  0  0  0  0
   -4.7512   -5.3425   -4.9835 H   0  0  0  0  0  0  0  0  0  0  0  0
   -5.7639   -8.0190   -5.9607 H   0  0  0  0  0  0  0  0  0  0  0  0
   -5.0763   -7.7774   -4.3061 H   0  0  0  0  0  0  0  0  0  0  0  0
   -6.5540   -9.7600   -4.5970 H   0  0  0  0  0  0  0  0  0  0  0  0
   -6.9980   -8.7490   -3.3540 H   0  0  0  0  0  0  0  0  0  0  0  0
   -7.8370   -8.7370   -4.7920 H   0  0  0  0  0  0  0  0  0  0  0  0
   -8.6433   -7.1953   -4.6621 H   0  0  0  0  0  0  0  0  0  0  0  0
   -9.6940   -4.9501   -4.4712 H   0  0  0  0  0  0  0  0  0  0  0  0
   -8.7889    0.3004   -7.0501 H   0  0  0  0  0  0  0  0  0  0  0  0
   -9.3030    3.8180   -6.3000 H   0  0  0  0  0  0  0  0  0  0  0  0
   -8.6069    2.5872  -11.1134 H   0  0  0  0  0  0  0  0  0  0  0  0
  -10.7376    3.7348  -11.6592 H   0  0  0  0  0  0  0  0  0  0  0  0
  -12.1609    4.4391   -9.7513 H   0  0  0  0  0  0  0  0  0  0  0  0
  -10.3809    4.2946   -4.7810 H   0  0  0  0  0  0  0  0  0  0  0  0
  1  2  1  0
  2  3  2  0
  2  4  1  0
  4  5  2  0
  5  6  1  0
  6  7  2  0
  7  8  1  0
  8  9  2  0
  9 10  1  0
 10 11  2  0
 10 12  1  0
 12 13  1  0
 13 14  2  0
 14 15  1  0
 15 16  2  0
 16 17  1  0
 17 18  1  0
 16 19  1  0
 19 20  2  0
  9 21  1  0
 21 22  2  0
 22 23  1  0
 23 24  1  0
 24 25  2  0
 25 26  1  0
 26 27  2  0
 27 28  1  0
 28 29  2  0
 22 30  1  0
 30 31  2  0
 31  4  1  0
 30  7  1  0
 20 13  1  0
 29 24  1  0
  1 32  1  0
  1 33  1  0
  3 34  1  0
  3 35  1  0
  5 36  1  0
  6 37  1  0
  8 38  1  0
 12 39  1  0
 14 40  1  0
 15 41  1  0
 17 42  1  0
 17 43  1  0
 18 44  1  0
 18 45  1  0
 18 46  1  0
 19 47  1  0
 20 48  1  0
 21 49  1  0
 23 50  1  0
 26 51  1  0
 27 52  1  0
 28 53  1  0
 31 54  1  0
M  CHG  2   3   1  18   1
M  END
>  <meeko>  (4) 
{"is_sidechain": [false], "free_energy": -8.462, "intermolecular_energy": -11.644, "internal_energy": -0.876}

$$$$
1sqa_ligand
     RDKit          3D

 54 57  0  0  0  0  0  0  0  0999 V2000
   -9.4970    6.8980   -6.4520 N   0  0  0  0  0  0  0  0  0  0  0  0
   -9.8980    6.1640   -5.4380 C   0  0  0  0  0  0  0  0  0  0  0  0
  -10.4720    6.7070   -4.3860 N   0  0  0  0  0  0  0  0  0  0  0  0
   -9.7050    4.7080   -5.4820 C   0  0  0  0  0  0  0  0  0  0  0  0
   -9.3130    4.0060   -4.3390 C   0  0  0  0  0  0  0  0  0  0  0  0
   -9.1150    2.6270   -4.3950 C   0  0  0  0  0  0  0  0  0  0  0  0
   -9.3080    1.9130   -5.5870 C   0  0  0  0  0  0  0  0  0  0  0  0
   -9.0770    0.5330   -5.6180 C   0  0  0  0  0  0  0  0  0  0  0  0
   -9.2400   -0.1970   -6.7980 C   0  0  0  0  0  0  0  0  0  0  0  0
   -8.9850   -1.6670   -6.7650 C   0  0  0  0  0  0  0  0  0  0  0  0
   -9.2680   -2.3220   -7.7610 O   0  0  0  0  0  0  0  0  0  0  0  0
   -8.4850   -2.1640   -5.5730 N   0  0  0  0  0  0  0  0  0  0  0  0
   -8.0920   -3.4940   -5.3110 C   0  0  0  0  0  0  0  0  0  0  0  0
   -6.7220   -3.7730   -5.2930 C   0  0  0  0  0  0  0  0  0  0  0  0
   -6.2550   -5.0710   -5.0460 C   0  0  0  0  0  0  0  0  0  0  0  0
   -7.1570   -6.1210   -4.8250 C   0  0  0  0  0  0  0  0  0  0  0  0
   -6.6720   -7.5080   -4.5250 C   0  0  0  0  0  0  0  0  0  0  0  0
   -5.2570   -7.6720   -4.9170 N   0  0  0  0  0  0  0  0  0  0  0  0
   -8.5290   -5.8410   -4.8500 C   0  0  0  0  0  0  0  0  0  0  0  0
   -8.9880   -4.5410   -5.0900 C   0  0  0  0  0  0  0  0  0  0  0  0
   -9.6770    0.4530   -7.9540 C   0  0  0  0  0  0  0  0  0  0  0  0
   -9.9400    1.8330   -7.9580 C   0  0  0  0  0  0  0  0  0  0  0  0
  -10.3580    2.4910   -9.1330 N   0  0  0  0  0  0  0  0  0  0  0  0
   -9.6700    2.9120  -10.2700 C   0  0  0  0  0  0  0  0  0  0  0  0
   -8.8070    3.9410  -10.2330 N   0  0  0  0  0  0  0  0  0  0  0  0
   -8.2250    4.2900  -11.3990 C   0  0  0  0  0  0  0  0  0  0  0  0
   -8.4680    3.6550  -12.5900 C   0  0  0  0  0  0  0  0  0  0  0  0
   -9.3660    2.6210  -12.5270 C   0  0  0  0  0  0  0  0  0  0  0  0
   -9.9790    2.2380  -11.3900 N   0  0  0  0  0  0  0  0  0  0  0  0
   -9.7280    2.5860   -6.7610 C   0  0  0  0  0  0  0  0  0  0  0  0
   -9.9070    3.9920   -6.6750 C   0  0  0  0  0  0  0  0  0  0  0  0
   -9.0320    6.4620   -7.2430 H   0  0  0  0  0  0  0  0  0  0  0  0
   -9.6070    7.9040   -6.4770 H   0  0  0  0  0  0  0  0  0  0  0  0
  -10.8000    6.1190   -3.6250 H   0  0  0  0  0  0  0  0  0  0  0  0
  -10.6340    7.7010   -4.3050 H   0  0  0  0  0  0  0  0  0  0  0  0
   -9.1601    4.5434   -3.3915 H   0  0  0  0  0  0  0  0  0  0  0  0
   -8.8018    2.0892   -3.4880 H   0  0  0  0  0  0  0  0  0  0  0  0
   -8.7625    0.0155   -4.6997 H   0  0  0  0  0  0  0  0  0  0  0  0
   -8.4530   -1.5270   -4.7860 H   0  0  0  0  0  0  0  0  0  0  0  0
   -6.0009   -2.9626   -5.4752 H   0  0  0  0  0  0  0  0  0  0  0  0
   -5.1729   -5.2673   -5.0254 H   0  0  0  0  0  0  0  0  0  0  0  0
   -6.7704   -7.6976   -3.4459 H   0  0  0  0  0  0  0  0  0  0  0  0
   -7.2793   -8.2229   -5.0996 H   0  0  0  0  0  0  0  0  0  0  0  0
   -4.6440   -7.1190   -4.3050 H   0  0  0  0  0  0  0  0  0  0  0  0
   -4.9590   -8.6530   -4.8630 H   0  0  0  0  0  0  0  0  0  0  0  0
   -5.1040   -7.3410   -5.8770 H   0  0  0  0  0  0  0  0  0  0  0  0
   -9.2532   -6.6512   -4.6792 H   0  0  0  0  0  0  0  0  0  0  0  0
  -10.0697   -4.3416   -5.1047 H   0  0  0  0  0  0  0  0  0  0  0  0
   -9.8179   -0.1261   -8.8785 H   0  0  0  0  0  0  0  0  0  0  0  0
  -11.3130    2.3200   -9.4160 H   0  0  0  0  0  0  0  0  0  0  0  0
   -7.5159    5.1309  -11.3941 H   0  0  0  0  0  0  0  0  0  0  0  0
   -7.9777    3.9538  -13.5283 H   0  0  0  0  0  0  0  0  0  0  0  0
   -9.5982    2.0754  -13.4535 H   0  0  0  0  0  0  0  0  0  0  0  0
  -10.2155    4.5421   -7.5763 H   0  0  0  0  0  0  0  0  0  0  0  0
  1  2  1  0
  2  3  2  0
  2  4  1  0
  4  5  2  0
  5  6  1  0
  6  7  2  0
  7  8  1  0
  8  9  2  0
  9 10  1  0
 10 11  2  0
 10 12  1  0
 12 13  1  0
 13 14  2  0
 14 15  1  0
 15 16  2  0
 16 17  1  0
 17 18  1  0
 16 19  1  0
 19 20  2  0
  9 21  1  0
 21 22  2  0
 22 23  1  0
 23 24  1  0
 24 25  2  0
 25 26  1  0
 26 27  2  0
 27 28  1  0
 28 29  2  0
 22 30  1  0
 30 31  2  0
 31  4  1  0
 30  7  1  0
 20 13  1  0
 29 24  1  0
  1 32  1  0
  1 33  1  0
  3 34  1  0
  3 35  1  0
  5 36  1  0
  6 37  1  0
  8 38  1  0
 12 39  1  0
 14 40  1  0
 15 41  1  0
 17 42  1  0
 17 43  1  0
 18 44  1  0
 18 45  1  0
 18 46  1  0
 19 47  1  0
 20 48  1  0
 21 49  1  0
 23 50  1  0
 26 51  1  0
 27 52  1  0
 28 53  1  0
 31 54  1  0
M  CHG  2   3   1  18   1
M  END
>  <meeko>  (5) 
{"is_sidechain": [false], "free_energy": -8.363, "intermolecular_energy": -11.418, "internal_energy": -0.967}

$$$$
1sqa_ligand
     RDKit          3D

 54 57  0  0  0  0  0  0  0  0999 V2000
  -11.5270    6.5180   -3.9760 N   0  0  0  0  0  0  0  0  0  0  0  0
  -11.3030    5.5790   -3.0830 C   0  0  0  0  0  0  0  0  0  0  0  0
  -11.6120    5.7520   -1.8160 N   0  0  0  0  0  0  0  0  0  0  0  0
  -10.6990    4.3080   -3.5090 C   0  0  0  0  0  0  0  0  0  0  0  0
   -9.4290    4.2830   -4.0900 C   0  0  0  0  0  0  0  0  0  0  0  0
   -8.8720    3.0740   -4.5080 C   0  0  0  0  0  0  0  0  0  0  0  0
   -9.5630    1.8630   -4.3520 C   0  0  0  0  0  0  0  0  0  0  0  0
   -8.9880    0.6690   -4.8040 C   0  0  0  0  0  0  0  0  0  0  0  0
   -9.6660   -0.5460   -4.6810 C   0  0  0  0  0  0  0  0  0  0  0  0
   -8.9960   -1.7850   -5.1750 C   0  0  0  0  0  0  0  0  0  0  0  0
   -8.8910   -1.9380   -6.3860 O   0  0  0  0  0  0  0  0  0  0  0  0
   -8.5910   -2.6800   -4.1990 N   0  0  0  0  0  0  0  0  0  0  0  0
   -7.8740   -3.8800   -4.3980 C   0  0  0  0  0  0  0  0  0  0  0  0
   -8.6130   -5.0560   -4.5630 C   0  0  0  0  0  0  0  0  0  0  0  0
   -7.9710   -6.2870   -4.7580 C   0  0  0  0  0  0  0  0  0  0  0  0
   -6.5720   -6.3640   -4.7780 C   0  0  0  0  0  0  0  0  0  0  0  0
   -5.8720   -7.6680   -5.0200 C   0  0  0  0  0  0  0  0  0  0  0  0
   -6.4870   -8.7550   -4.2320 N   0  0  0  0  0  0  0  0  0  0  0  0
   -5.8340   -5.1850   -4.6060 C   0  0  0  0  0  0  0  0  0  0  0  0
   -6.4810   -3.9590   -4.4180 C   0  0  0  0  0  0  0  0  0  0  0  0
  -10.9170   -0.5760   -4.0630 C   0  0  0  0  0  0  0  0  0  0  0  0
  -11.5180    0.5970   -3.5770 C   0  0  0  0  0  0  0  0  0  0  0  0
  -12.7920    0.5660   -2.9750 N   0  0  0  0  0  0  0  0  0  0  0  0
  -14.0530    0.2250   -3.4610 C   0  0  0  0  0  0  0  0  0  0  0  0
  -14.8660   -0.6120   -2.7940 N   0  0  0  0  0  0  0  0  0  0  0  0
  -16.0480   -0.9040   -3.3730 C   0  0  0  0  0  0  0  0  0  0  0  0
  -16.4490   -0.3950   -4.5830 C   0  0  0  0  0  0  0  0  0  0  0  0
  -15.5510    0.4460   -5.1880 C   0  0  0  0  0  0  0  0  0  0  0  0
  -14.3550    0.7630   -4.6550 N   0  0  0  0  0  0  0  0  0  0  0  0
  -10.8430    1.8470   -3.7460 C   0  0  0  0  0  0  0  0  0  0  0  0
  -11.3890    3.0940   -3.3450 C   0  0  0  0  0  0  0  0  0  0  0  0
  -11.2570    6.3730   -4.9450 H   0  0  0  0  0  0  0  0  0  0  0  0
  -11.9440    7.4090   -3.7400 H   0  0  0  0  0  0  0  0  0  0  0  0
  -11.4560    5.0040   -1.1470 H   0  0  0  0  0  0  0  0  0  0  0  0
  -12.0330    6.6030   -1.4690 H   0  0  0  0  0  0  0  0  0  0  0  0
   -8.8663    5.2194   -4.2184 H   0  0  0  0  0  0  0  0  0  0  0  0
   -7.8729    3.0702   -4.9682 H   0  0  0  0  0  0  0  0  0  0  0  0
   -7.9883    0.6881   -5.2624 H   0  0  0  0  0  0  0  0  0  0  0  0
   -8.8890   -2.4920   -3.2490 H   0  0  0  0  0  0  0  0  0  0  0  0
   -9.7120   -5.0145   -4.5395 H   0  0  0  0  0  0  0  0  0  0  0  0
   -8.5700   -7.1992   -4.8963 H   0  0  0  0  0  0  0  0  0  0  0  0
   -5.9373   -7.9179   -6.0892 H   0  0  0  0  0  0  0  0  0  0  0  0
   -4.8214   -7.5635   -4.7112 H   0  0  0  0  0  0  0  0  0  0  0  0
   -7.4780   -8.8660   -4.4780 H   0  0  0  0  0  0  0  0  0  0  0  0
   -6.0170   -9.6540   -4.3920 H   0  0  0  0  0  0  0  0  0  0  0  0
   -6.4470   -8.5450   -3.2270 H   0  0  0  0  0  0  0  0  0  0  0  0
   -4.7348   -5.2241   -4.6190 H   0  0  0  0  0  0  0  0  0  0  0  0
   -5.8837   -3.0451   -4.2842 H   0  0  0  0  0  0  0  0  0  0  0  0
  -11.4423   -1.5363   -3.9544 H   0  0  0  0  0  0  0  0  0  0  0  0
  -12.8050    0.3860   -1.9810 H   0  0  0  0  0  0  0  0  0  0  0  0
  -16.7292   -1.5885   -2.8462 H   0  0  0  0  0  0  0  0  0  0  0  0
  -17.4206   -0.6439   -5.0347 H   0  0  0  0  0  0  0  0  0  0  0  0
  -15.8213    0.8850   -6.1597 H   0  0  0  0  0  0  0  0  0  0  0  0
  -12.3897    3.1114   -2.8887 H   0  0  0  0  0  0  0  0  0  0  0  0
  1  2  1  0
  2  3  2  0
  2  4  1  0
  4  5  2  0
  5  6  1  0
  6  7  2  0
  7  8  1  0
  8  9  2  0
  9 10  1  0
 10 11  2  0
 10 12  1  0
 12 13  1  0
 13 14  2  0
 14 15  1  0
 15 16  2  0
 16 17  1  0
 17 18  1  0
 16 19  1  0
 19 20  2  0
  9 21  1  0
 21 22  2  0
 22 23  1  0
 23 24  1  0
 24 25  2  0
 25 26  1  0
 26 27  2  0
 27 28  1  0
 28 29  2  0
 22 30  1  0
 30 31  2  0
 31  4  1  0
 30  7  1  0
 20 13  1  0
 29 24  1  0
  1 32  1  0
  1 33  1  0
  3 34  1  0
  3 35  1  0
  5 36  1  0
  6 37  1  0
  8 38  1  0
 12 39  1  0
 14 40  1  0
 15 41  1  0
 17 42  1  0
 17 43  1  0
 18 44  1  0
 18 45  1  0
 18 46  1  0
 19 47  1  0
 20 48  1  0
 21 49  1  0
 23 50  1  0
 26 51  1  0
 27 52  1  0
 28 53  1  0
 31 54  1  0
M  CHG  2   3   1  18   1
M  END
>  <meeko>  (6) 
{"is_sidechain": [false], "free_energy": -7.893, "intermolecular_energy": -10.773, "internal_energy": -0.963}

$$$$
1sqa_ligand
     RDKit          3D

 54 57  0  0  0  0  0  0  0  0999 V2000
  -11.3220    0.9180   -2.1510 N   0  0  0  0  0  0  0  0  0  0  0  0
  -10.3080    0.9120   -2.9880 C   0  0  0  0  0  0  0  0  0  0  0  0
   -9.1960    1.5620   -2.7180 N   0  0  0  0  0  0  0  0  0  0  0  0
  -10.4150    0.1610   -4.2460 C   0  0  0  0  0  0  0  0  0  0  0  0
  -11.1630    0.6630   -5.3140 C   0  0  0  0  0  0  0  0  0  0  0  0
  -11.2750   -0.0660   -6.4980 C   0  0  0  0  0  0  0  0  0  0  0  0
  -10.6390   -1.3080   -6.6490 C   0  0  0  0  0  0  0  0  0  0  0  0
  -10.7900   -2.0280   -7.8400 C   0  0  0  0  0  0  0  0  0  0  0  0
  -10.1860   -3.2770   -8.0060 C   0  0  0  0  0  0  0  0  0  0  0  0
  -10.3780   -3.9910   -9.3020 C   0  0  0  0  0  0  0  0  0  0  0  0
   -9.5200   -3.8580  -10.1650 O   0  0  0  0  0  0  0  0  0  0  0  0
  -11.5540   -4.7140   -9.4210 N   0  0  0  0  0  0  0  0  0  0  0  0
  -11.9360   -5.5330  -10.5060 C   0  0  0  0  0  0  0  0  0  0  0  0
  -11.8440   -6.9180  -10.3360 C   0  0  0  0  0  0  0  0  0  0  0  0
  -12.2000   -7.7950  -11.3710 C   0  0  0  0  0  0  0  0  0  0  0  0
  -12.6420   -7.2960  -12.6040 C   0  0  0  0  0  0  0  0  0  0  0  0
  -13.0590   -8.2220  -13.7080 C   0  0  0  0  0  0  0  0  0  0  0  0
  -12.8920   -9.6350  -13.3080 N   0  0  0  0  0  0  0  0  0  0  0  0
  -12.7270   -5.9090  -12.7730 C   0  0  0  0  0  0  0  0  0  0  0  0
  -12.3770   -5.0390  -11.7340 C   0  0  0  0  0  0  0  0  0  0  0  0
   -9.3890   -3.7970   -6.9840 C   0  0  0  0  0  0  0  0  0  0  0  0
   -9.1960   -3.0950   -5.7830 C   0  0  0  0  0  0  0  0  0  0  0  0
   -8.4100   -3.6340   -4.7440 N   0  0  0  0  0  0  0  0  0  0  0  0
   -7.5650   -4.7410   -4.6820 C   0  0  0  0  0  0  0  0  0  0  0  0
   -6.2310   -4.6200   -4.7930 N   0  0  0  0  0  0  0  0  0  0  0  0
   -5.5110   -5.7600   -4.7570 C   0  0  0  0  0  0  0  0  0  0  0  0
   -6.0660   -7.0060   -4.6160 C   0  0  0  0  0  0  0  0  0  0  0  0
   -7.4330   -7.0270   -4.5150 C   0  0  0  0  0  0  0  0  0  0  0  0
   -8.1980   -5.9190   -4.5510 N   0  0  0  0  0  0  0  0  0  0  0  0
   -9.8530   -1.8380   -5.5960 C   0  0  0  0  0  0  0  0  0  0  0  0
   -9.7710   -1.0800   -4.4000 C   0  0  0  0  0  0  0  0  0  0  0  0
  -12.1810    0.4310   -2.3900 H   0  0  0  0  0  0  0  0  0  0  0  0
  -11.3020    1.4150   -1.2700 H   0  0  0  0  0  0  0  0  0  0  0  0
   -8.4140    1.5230   -3.3650 H   0  0  0  0  0  0  0  0  0  0  0  0
   -9.0660    2.0910   -1.8670 H   0  0  0  0  0  0  0  0  0  0  0  0
  -11.6656    1.6370   -5.2208 H   0  0  0  0  0  0  0  0  0  0  0  0
  -11.8723    0.3397   -7.3279 H   0  0  0  0  0  0  0  0  0  0  0  0
  -11.3928   -1.6044   -8.6569 H   0  0  0  0  0  0  0  0  0  0  0  0
  -12.2410   -4.6010   -8.6850 H   0  0  0  0  0  0  0  0  0  0  0  0
  -11.4878   -7.3249   -9.3781 H   0  0  0  0  0  0  0  0  0  0  0  0
  -12.1319   -8.8816  -11.2141 H   0  0  0  0  0  0  0  0  0  0  0  0
  -14.1164   -8.0396  -13.9499 H   0  0  0  0  0  0  0  0  0  0  0  0
  -12.4233   -8.0293  -14.5848 H   0  0  0  0  0  0  0  0  0  0  0  0
  -12.0010  -10.0080  -13.6580 H   0  0  0  0  0  0  0  0  0  0  0  0
  -12.9040   -9.7450  -12.2870 H   0  0  0  0  0  0  0  0  0  0  0  0
  -13.6400  -10.2160  -13.7040 H   0  0  0  0  0  0  0  0  0  0  0  0
  -13.0727   -5.4983  -13.7331 H   0  0  0  0  0  0  0  0  0  0  0  0
  -12.4505   -3.9523  -11.8875 H   0  0  0  0  0  0  0  0  0  0  0  0
   -8.9035   -4.7743   -7.1222 H   0  0  0  0  0  0  0  0  0  0  0  0
   -8.0740   -2.9720   -4.0580 H   0  0  0  0  0  0  0  0  0  0  0  0
   -4.4171   -5.6860   -4.8457 H   0  0  0  0  0  0  0  0  0  0  0  0
   -5.4583   -7.9224   -4.5861 H   0  0  0  0  0  0  0  0  0  0  0  0
   -7.9316   -8.0005   -4.3984 H   0  0  0  0  0  0  0  0  0  0  0  0
   -9.1813   -1.4778   -3.5609 H   0  0  0  0  0  0  0  0  0  0  0  0
  1  2  1  0
  2  3  2  0
  2  4  1  0
  4  5  2  0
  5  6  1  0
  6  7  2  0
  7  8  1  0
  8  9  2  0
  9 10  1  0
 10 11  2  0
 10 12  1  0
 12 13  1  0
 13 14  2  0
 14 15  1  0
 15 16  2  0
 16 17  1  0
 17 18  1  0
 16 19  1  0
 19 20  2  0
  9 21  1  0
 21 22  2  0
 22 23  1  0
 23 24  1  0
 24 25  2  0
 25 26  1  0
 26 27  2  0
 27 28  1  0
 28 29  2  0
 22 30  1  0
 30 31  2  0
 31  4  1  0
 30  7  1  0
 20 13  1  0
 29 24  1  0
  1 32  1  0
  1 33  1  0
  3 34  1  0
  3 35  1  0
  5 36  1  0
  6 37  1  0
  8 38  1  0
 12 39  1  0
 14 40  1  0
 15 41  1  0
 17 42  1  0
 17 43  1  0
 18 44  1  0
 18 45  1  0
 18 46  1  0
 19 47  1  0
 20 48  1  0
 21 49  1  0
 23 50  1  0
 26 51  1  0
 27 52  1  0
 28 53  1  0
 31 54  1  0
M  CHG  2   3   1  18   1
M  END
>  <meeko>  (7) 
{"is_sidechain": [false], "free_energy": -7.565, "intermolecular_energy": -10.471, "internal_energy": -0.813}

$$$$
1sqa_ligand
     RDKit          3D

 54 57  0  0  0  0  0  0  0  0999 V2000
  -12.7120   -6.1570  -10.0220 N   0  0  0  0  0  0  0  0  0  0  0  0
  -11.9670   -6.1260   -8.9390 C   0  0  0  0  0  0  0  0  0  0  0  0
  -11.3580   -7.2060   -8.4980 N   0  0  0  0  0  0  0  0  0  0  0  0
  -11.8080   -4.8610   -8.2090 C   0  0  0  0  0  0  0  0  0  0  0  0
  -12.9030   -4.0220   -7.9890 C   0  0  0  0  0  0  0  0  0  0  0  0
  -12.7380   -2.8140   -7.3110 C   0  0  0  0  0  0  0  0  0  0  0  0
  -11.4810   -2.4170   -6.8310 C   0  0  0  0  0  0  0  0  0  0  0  0
  -11.3420   -1.1870   -6.1770 C   0  0  0  0  0  0  0  0  0  0  0  0
  -10.0970   -0.7580   -5.7100 C   0  0  0  0  0  0  0  0  0  0  0  0
  -10.0160    0.5590   -5.0140 C   0  0  0  0  0  0  0  0  0  0  0  0
   -8.9250    1.1150   -4.9600 O   0  0  0  0  0  0  0  0  0  0  0  0
  -11.1950    1.0140   -4.4460 N   0  0  0  0  0  0  0  0  0  0  0  0
  -11.4000    2.2530   -3.8030 C   0  0  0  0  0  0  0  0  0  0  0  0
  -11.5630    3.3830   -4.6120 C   0  0  0  0  0  0  0  0  0  0  0  0
  -11.7650    4.6490   -4.0450 C   0  0  0  0  0  0  0  0  0  0  0  0
  -11.7940    4.8090   -2.6530 C   0  0  0  0  0  0  0  0  0  0  0  0
  -12.0430    6.1520   -2.0330 C   0  0  0  0  0  0  0  0  0  0  0  0
  -12.7340    6.0170   -0.7340 N   0  0  0  0  0  0  0  0  0  0  0  0
  -11.6240    3.6770   -1.8460 C   0  0  0  0  0  0  0  0  0  0  0  0
  -11.4300    2.4150   -2.4180 C   0  0  0  0  0  0  0  0  0  0  0  0
   -8.9820   -1.5840   -5.8640 C   0  0  0  0  0  0  0  0  0  0  0  0
   -9.0850   -2.8350   -6.4970 C   0  0  0  0  0  0  0  0  0  0  0  0
   -7.9530   -3.6560   -6.6720 N   0  0  0  0  0  0  0  0  0  0  0  0
   -7.4240   -4.7020   -5.9170 C   0  0  0  0  0  0  0  0  0  0  0  0
   -8.0590   -5.8810   -5.8000 N   0  0  0  0  0  0  0  0  0  0  0  0
   -7.4780   -6.8100   -5.0140 C   0  0  0  0  0  0  0  0  0  0  0  0
   -6.2960   -6.6100   -4.3470 C   0  0  0  0  0  0  0  0  0  0  0  0
   -5.7270   -5.3760   -4.5250 C   0  0  0  0  0  0  0  0  0  0  0  0
   -6.2710   -4.4120   -5.2930 N   0  0  0  0  0  0  0  0  0  0  0  0
  -10.3510   -3.2520   -7.0150 C   0  0  0  0  0  0  0  0  0  0  0  0
  -10.5490   -4.4670   -7.7210 C   0  0  0  0  0  0  0  0  0  0  0  0
  -13.1950   -5.3180  -10.3310 H   0  0  0  0  0  0  0  0  0  0  0  0
  -12.8540   -6.9980  -10.5660 H   0  0  0  0  0  0  0  0  0  0  0  0
  -10.7650   -7.1560   -7.6750 H   0  0  0  0  0  0  0  0  0  0  0  0
  -11.4290   -8.1010   -8.9630 H   0  0  0  0  0  0  0  0  0  0  0  0
  -13.8993   -4.3150   -8.3518 H   0  0  0  0  0  0  0  0  0  0  0  0
  -13.6087   -2.1614   -7.1500 H   0  0  0  0  0  0  0  0  0  0  0  0
  -12.2258   -0.5491   -6.0287 H   0  0  0  0  0  0  0  0  0  0  0  0
  -11.9780    0.3700   -4.4340 H   0  0  0  0  0  0  0  0  0  0  0  0
  -11.5322    3.2766   -5.7064 H   0  0  0  0  0  0  0  0  0  0  0  0
  -11.9018    5.5237   -4.6978 H   0  0  0  0  0  0  0  0  0  0  0  0
  -11.0799    6.6600   -1.8768 H   0  0  0  0  0  0  0  0  0  0  0  0
  -12.6825    6.7370   -2.7104 H   0  0  0  0  0  0  0  0  0  0  0  0
  -13.7220    6.2860   -0.8180 H   0  0  0  0  0  0  0  0  0  0  0  0
  -12.6960    5.0530   -0.3820 H   0  0  0  0  0  0  0  0  0  0  0  0
  -12.3110    6.6340   -0.0310 H   0  0  0  0  0  0  0  0  0  0  0  0
  -11.6432    3.7812   -0.7511 H   0  0  0  0  0  0  0  0  0  0  0  0
  -11.2993    1.5384   -1.7664 H   0  0  0  0  0  0  0  0  0  0  0  0
   -8.0055   -1.2500   -5.4833 H   0  0  0  0  0  0  0  0  0  0  0  0
   -7.6690   -3.8150   -7.6290 H   0  0  0  0  0  0  0  0  0  0  0  0
   -7.9798   -7.7824   -4.9014 H   0  0  0  0  0  0  0  0  0  0  0  0
   -5.8377   -7.3846   -3.7146 H   0  0  0  0  0  0  0  0  0  0  0  0
   -4.7767   -5.1615   -4.0142 H   0  0  0  0  0  0  0  0  0  0  0  0
   -9.6850   -5.1257   -7.8932 H   0  0  0  0  0  0  0  0  0  0  0  0
  1  2  1  0
  2  3  2  0
  2  4  1  0
  4  5  2  0
  5  6  1  0
  6  7  2  0
  7  8  1  0
  8  9  2  0
  9 10  1  0
 10 11  2  0
 10 12  1  0
 12 13  1  0
 13 14  2  0
 14 15  1  0
 15 16  2  0
 16 17  1  0
 17 18  1  0
 16 19  1  0
 19 20  2  0
  9 21  1  0
 21 22  2  0
 22 23  1  0
 23 24  1  0
 24 25  2  0
 25 26  1  0
 26 27  2  0
 27 28  1  0
 28 29  2  0
 22 30  1  0
 30 31  2  0
 31  4  1  0
 30  7  1  0
 20 13  1  0
 29 24  1  0
  1 32  1  0
  1 33  1  0
  3 34  1  0
  3 35  1  0
  5 36  1  0
  6 37  1  0
  8 38  1  0
 12 39  1  0
 14 40  1  0
 15 41  1  0
 17 42  1  0
 17 43  1  0
 18 44  1  0
 18 45  1  0
 18 46  1  0
 19 47  1  0
 20 48  1  0
 21 49  1  0
 23 50  1  0
 26 51  1  0
 27 52  1  0
 28 53  1  0
 31 54  1  0
M  CHG  2   3   1  18   1
M  END
>  <meeko>  (8) 
{"is_sidechain": [false], "free_energy": -7.478, "intermolecular_energy": -10.299, "internal_energy": -0.865}

$$$$
1sqa_ligand
     RDKit          3D

 54 57  0  0  0  0  0  0  0  0999 V2000
   -7.6780   -7.7670   -4.2250 N   0  0  0  0  0  0  0  0  0  0  0  0
   -6.7700   -6.9870   -4.7690 C   0  0  0  0  0  0  0  0  0  0  0  0
   -5.5060   -7.3490   -4.8280 N   0  0  0  0  0  0  0  0  0  0  0  0
   -7.1740   -5.6890   -5.3270 C   0  0  0  0  0  0  0  0  0  0  0  0
   -6.5670   -4.5080   -4.8940 C   0  0  0  0  0  0  0  0  0  0  0  0
   -6.9700   -3.2790   -5.4160 C   0  0  0  0  0  0  0  0  0  0  0  0
   -7.9830   -3.1980   -6.3840 C   0  0  0  0  0  0  0  0  0  0  0  0
   -8.3840   -1.9480   -6.8700 C   0  0  0  0  0  0  0  0  0  0  0  0
   -9.4050   -1.8390   -7.8170 C   0  0  0  0  0  0  0  0  0  0  0  0
   -9.7810   -0.4790   -8.3020 C   0  0  0  0  0  0  0  0  0  0  0  0
  -10.5440    0.1870   -7.6120 O   0  0  0  0  0  0  0  0  0  0  0  0
   -9.2580   -0.1120   -9.5310 N   0  0  0  0  0  0  0  0  0  0  0  0
   -9.3990    1.1380  -10.1700 C   0  0  0  0  0  0  0  0  0  0  0  0
   -8.8510    2.2570   -9.5340 C   0  0  0  0  0  0  0  0  0  0  0  0
   -8.9560    3.5330  -10.1050 C   0  0  0  0  0  0  0  0  0  0  0  0
   -9.6280    3.7140  -11.3210 C   0  0  0  0  0  0  0  0  0  0  0  0
   -9.7200    5.0680  -11.9610 C   0  0  0  0  0  0  0  0  0  0  0  0
  -11.1280    5.4470  -12.2010 N   0  0  0  0  0  0  0  0  0  0  0  0
  -10.1820    2.5940  -11.9530 C   0  0  0  0  0  0  0  0  0  0  0  0
  -10.0670    1.3210  -11.3810 C   0  0  0  0  0  0  0  0  0  0  0  0
  -10.0080   -2.9960   -8.3150 C   0  0  0  0  0  0  0  0  0  0  0  0
   -9.6190   -4.2700   -7.8680 C   0  0  0  0  0  0  0  0  0  0  0  0
  -10.2470   -5.4340   -8.3540 N   0  0  0  0  0  0  0  0  0  0  0  0
  -11.4640   -5.6470   -8.9980 C   0  0  0  0  0  0  0  0  0  0  0  0
  -12.5510   -6.0760   -8.3340 N   0  0  0  0  0  0  0  0  0  0  0  0
  -13.6670   -6.2850   -9.0610 C   0  0  0  0  0  0  0  0  0  0  0  0
  -13.7400   -6.0830  -10.4160 C   0  0  0  0  0  0  0  0  0  0  0  0
  -12.5810   -5.6490  -11.0050 C   0  0  0  0  0  0  0  0  0  0  0  0
  -11.4390   -5.4310  -10.3240 N   0  0  0  0  0  0  0  0  0  0  0  0
   -8.6060   -4.3760   -6.8640 C   0  0  0  0  0  0  0  0  0  0  0  0
   -8.1830   -5.6100   -6.3030 C   0  0  0  0  0  0  0  0  0  0  0  0
   -8.6440   -7.4580   -4.1660 H   0  0  0  0  0  0  0  0  0  0  0  0
   -7.4570   -8.6710   -3.8290 H   0  0  0  0  0  0  0  0  0  0  0  0
   -4.8240   -6.7440   -5.2770 H   0  0  0  0  0  0  0  0  0  0  0  0
   -5.1730   -8.2310   -4.4650 H   0  0  0  0  0  0  0  0  0  0  0  0
   -5.7683   -4.5473   -4.1387 H   0  0  0  0  0  0  0  0  0  0  0  0
   -6.4853   -2.3569   -5.0627 H   0  0  0  0  0  0  0  0  0  0  0  0
   -7.8879   -1.0383   -6.5008 H   0  0  0  0  0  0  0  0  0  0  0  0
   -8.7730   -0.8290  -10.0580 H   0  0  0  0  0  0  0  0  0  0  0  0
   -8.3306    2.1340   -8.5727 H   0  0  0  0  0  0  0  0  0  0  0  0
   -8.5076    4.3982   -9.5947 H   0  0  0  0  0  0  0  0  0  0  0  0
   -9.2557    5.8119  -11.2969 H   0  0  0  0  0  0  0  0  0  0  0  0
   -9.1970    5.0342  -12.9281 H   0  0  0  0  0  0  0  0  0  0  0  0
  -11.2320    6.4690  -12.2060 H   0  0  0  0  0  0  0  0  0  0  0  0
  -11.4700    5.0870  -13.1000 H   0  0  0  0  0  0  0  0  0  0  0  0
  -11.7350    5.0850  -11.4560 H   0  0  0  0  0  0  0  0  0  0  0  0
  -10.7130    2.7154  -12.9087 H   0  0  0  0  0  0  0  0  0  0  0  0
  -10.5092    0.4538  -11.8933 H   0  0  0  0  0  0  0  0  0  0  0  0
  -10.8021   -2.9083   -9.0711 H   0  0  0  0  0  0  0  0  0  0  0  0
   -9.6280   -6.1770   -8.6480 H   0  0  0  0  0  0  0  0  0  0  0  0
  -14.5689   -6.6370   -8.5388 H   0  0  0  0  0  0  0  0  0  0  0  0
  -14.6628   -6.2569  -10.9888 H   0  0  0  0  0  0  0  0  0  0  0  0
  -12.5833   -5.4693  -12.0902 H   0  0  0  0  0  0  0  0  0  0  0  0
   -8.6627   -6.5390   -6.6448 H   0  0  0  0  0  0  0  0  0  0  0  0
  1  2  1  0
  2  3  2  0
  2  4  1  0
  4  5  2  0
  5  6  1  0
  6  7  2  0
  7  8  1  0
  8  9  2  0
  9 10  1  0
 10 11  2  0
 10 12  1  0
 12 13  1  0
 13 14  2  0
 14 15  1  0
 15 16  2  0
 16 17  1  0
 17 18  1  0
 16 19  1  0
 19 20  2  0
  9 21  1  0
 21 22  2  0
 22 23  1  0
 23 24  1  0
 24 25  2  0
 25 26  1  0
 26 27  2  0
 27 28  1  0
 28 29  2  0
 22 30  1  0
 30 31  2  0
 31  4  1  0
 30  7  1  0
 20 13  1  0
 29 24  1  0
  1 32  1  0
  1 33  1  0
  3 34  1  0
  3 35  1  0
  5 36  1  0
  6 37  1  0
  8 38  1  0
 12 39  1  0
 14 40  1  0
 15 41  1  0
 17 42  1  0
 17 43  1  0
 18 44  1  0
 18 45  1  0
 18 46  1  0
 19 47  1  0
 20 48  1  0
 21 49  1  0
 23 50  1  0
 26 51  1  0
 27 52  1  0
 28 53  1  0
 31 54  1  0
M  CHG  2   3   1  18   1
M  END
>  <meeko>  (9) 
{"is_sidechain": [false], "free_energy": -7.352, "intermolecular_energy": -10.251, "internal_energy": -0.739}

$$$$
