4tmn_ligand
     RDKit          3D

 68 69  0  0  0  0  0  0  0  0999 V2000
    3.2770    5.3940   -1.7560 C   0  0  0  0  0  0  0  0  0  0  0  0
    2.0510    5.1040   -0.8920 C   0  0  0  0  0  0  0  0  0  0  0  0
    1.8940    6.1690    0.1930 C   0  0  0  0  0  0  0  0  0  0  0  0
    2.0280    3.6610   -0.3430 C   0  0  0  0  0  0  0  0  0  0  0  0
    0.7360    2.8450   -0.5350 C   0  0  2  0  0  0  0  0  0  0  0  0
   -0.0530    3.5260   -1.6000 N   0  0  0  0  0  0  0  0  0  0  0  0
   -0.9000    2.5020   -2.7320 P   0  0  2  0  0  5  0  0  0  0  0  0
   -0.7600    3.1010   -4.1060 O   0  0  0  0  0  0  0  0  0  0  0  0
   -2.2400    2.2890   -2.0690 O   0  0  0  0  0  0  0  0  0  0  0  0
    0.0530    0.9080   -2.6130 C   0  0  2  0  0  0  0  0  0  0  0  0
    1.2020    0.7880   -3.6210 C   0  0  0  0  0  0  0  0  0  0  0  0
    2.6050    0.9260   -3.0770 C   0  0  0  0  0  0  0  0  0  0  0  0
    3.1060   -0.0060   -2.1560 C   0  0  0  0  0  0  0  0  0  0  0  0
    4.4000    0.1190   -1.6490 C   0  0  0  0  0  0  0  0  0  0  0  0
    5.2100    1.1760   -2.0620 C   0  0  0  0  0  0  0  0  0  0  0  0
    4.7260    2.1030   -2.9830 C   0  0  0  0  0  0  0  0  0  0  0  0
    3.4300    1.9800   -3.4860 C   0  0  0  0  0  0  0  0  0  0  0  0
   -0.9340   -0.1640   -2.6910 N   0  0  0  0  0  0  0  0  0  0  0  0
   -1.2600   -0.9810   -1.6680 C   0  0  0  0  0  0  0  0  0  0  0  0
   -0.6930   -1.0230   -0.5850 O   0  0  0  0  0  0  0  0  0  0  0  0
   -2.3090   -1.7560   -2.0310 O   0  0  0  0  0  0  0  0  0  0  0  0
   -1.9240   -2.9710   -2.6720 C   0  0  0  0  0  0  0  0  0  0  0  0
   -2.9770   -3.3210   -3.6950 C   0  0  0  0  0  0  0  0  0  0  0  0
   -2.9350   -4.5490   -4.3710 C   0  0  0  0  0  0  0  0  0  0  0  0
   -3.9020   -4.8640   -5.3280 C   0  0  0  0  0  0  0  0  0  0  0  0
   -4.9140   -3.9520   -5.6240 C   0  0  0  0  0  0  0  0  0  0  0  0
   -4.9570   -2.7240   -4.9660 C   0  0  0  0  0  0  0  0  0  0  0  0
   -3.9910   -2.4080   -4.0090 C   0  0  0  0  0  0  0  0  0  0  0  0
   -0.0890    2.7140    0.7570 C   0  0  0  0  0  0  0  0  0  0  0  0
    0.0140    3.5260    1.6780 O   0  0  0  0  0  0  0  0  0  0  0  0
   -0.9620    1.6530    0.7890 N   0  0  0  0  0  0  0  0  0  0  0  0
   -1.8210    1.3110    1.9370 C   0  0  1  0  0  0  0  0  0  0  0  0
   -3.1420    0.7070    1.4740 C   0  0  0  0  0  0  0  0  0  0  0  0
   -1.1770    0.2570    2.8950 C   0  0  0  0  0  0  0  0  0  0  0  0
   -1.5320   -0.9450    2.7200 O   0  0  0  0  0  0  0  0  0  0  0  0
   -0.3720    0.7350    3.7510 O   0  0  0  0  0  0  0  0  0  0  0  0
    4.1421    5.5986   -1.1081 H   0  0  0  0  0  0  0  0  0  0  0  0
    3.4926    4.5221   -2.3910 H   0  0  0  0  0  0  0  0  0  0  0  0
    3.0791    6.2701   -2.3910 H   0  0  0  0  0  0  0  0  0  0  0  0
    1.1639    5.1661   -1.5394 H   0  0  0  0  0  0  0  0  0  0  0  0
    1.9637    5.6962    1.1837 H   0  0  0  0  0  0  0  0  0  0  0  0
    2.6912    6.9196    0.0881 H   0  0  0  0  0  0  0  0  0  0  0  0
    0.9141    6.6577    0.0881 H   0  0  0  0  0  0  0  0  0  0  0  0
    2.8421    3.1087   -0.8352 H   0  0  0  0  0  0  0  0  0  0  0  0
    2.1265    3.7753    0.7466 H   0  0  0  0  0  0  0  0  0  0  0  0
    0.9952    1.8147   -0.8203 H   0  0  0  0  0  0  0  0  0  0  0  0
   -0.6950    4.2410   -1.2540 H   0  0  0  0  0  0  0  0  0  0  0  0
    0.5946    0.8541   -1.6571 H   0  0  0  0  0  0  0  0  0  0  0  0
    1.1255   -0.2011   -4.0961 H   0  0  0  0  0  0  0  0  0  0  0  0
    1.0741    1.6401   -4.3048 H   0  0  0  0  0  0  0  0  0  0  0  0
    2.4723   -0.8440   -1.8301 H   0  0  0  0  0  0  0  0  0  0  0  0
    4.7807   -0.6157   -0.9242 H   0  0  0  0  0  0  0  0  0  0  0  0
    6.2294    1.2780   -1.6615 H   0  0  0  0  0  0  0  0  0  0  0  0
    5.3668    2.9335   -3.3143 H   0  0  0  0  0  0  0  0  0  0  0  0
    3.0537    2.7177   -4.2100 H   0  0  0  0  0  0  0  0  0  0  0  0
   -1.4390   -0.2320   -3.5720 H   0  0  0  0  0  0  0  0  0  0  0  0
   -0.9520   -2.8374   -3.1694 H   0  0  0  0  0  0  0  0  0  0  0  0
   -1.8326   -3.7784   -1.9305 H   0  0  0  0  0  0  0  0  0  0  0  0
   -2.1346   -5.2692   -4.1458 H   0  0  0  0  0  0  0  0  0  0  0  0
   -3.8652   -5.8323   -5.8486 H   0  0  0  0  0  0  0  0  0  0  0  0
   -5.6774   -4.2011   -6.3757 H   0  0  0  0  0  0  0  0  0  0  0  0
   -5.7535   -2.0026   -5.2012 H   0  0  0  0  0  0  0  0  0  0  0  0
   -4.0267   -1.4346   -3.4979 H   0  0  0  0  0  0  0  0  0  0  0  0
   -0.9920    0.9660    0.0380 H   0  0  0  0  0  0  0  0  0  0  0  0
   -1.9665    2.2623    2.4698 H   0  0  0  0  0  0  0  0  0  0  0  0
   -3.7462    0.4308    2.3508 H   0  0  0  0  0  0  0  0  0  0  0  0
   -3.6900    1.4440    0.8686 H   0  0  0  0  0  0  0  0  0  0  0  0
   -2.9430   -0.1896    0.8686 H   0  0  0  0  0  0  0  0  0  0  0  0
  1  2  1  0
  2  3  1  0
  2  4  1  0
  4  5  1  0
  5  6  1  0
  6  7  1  0
  7  8  2  0
  7  9  1  1
  7 10  1  0
 10 11  1  0
 11 12  1  0
 12 13  2  0
 13 14  1  0
 14 15  2  0
 15 16  1  0
 16 17  2  0
 10 18  1  0
 18 19  1  0
 19 20  2  0
 19 21  1  0
 21 22  1  0
 22 23  1  0
 23 24  2  0
 24 25  1  0
 25 26  2  0
 26 27  1  0
 27 28  2  0
  5 29  1  0
 29 30  2  0
 29 31  1  0
 31 32  1  0
 32 33  1  0
 32 34  1  0
 34 35  2  0
 34 36  1  0
 17 12  1  0
 28 23  1  0
  1 37  1  0
  1 38  1  0
  1 39  1  0
  2 40  1  0
  3 41  1  0
  3 42  1  0
  3 43  1  0
  4 44  1  0
  4 45  1  0
  5 46  1  6
  6 47  1  0
 10 48  1  1
 11 49  1  0
 11 50  1  0
 13 51  1  0
 14 52  1  0
 15 53  1  0
 16 54  1  0
 17 55  1  0
 18 56  1  0
 22 57  1  0
 22 58  1  0
 24 59  1  0
 25 60  1  0
 26 61  1  0
 27 62  1  0
 28 63  1  0
 31 64  1  0
 32 65  1  1
 33 66  1  0
 33 67  1  0
 33 68  1  0
M  CHG  2   9  -1  36  -1
M  END
>  <meeko>  (1) 
{"is_sidechain": [false], "free_energy": -8.464, "intermolecular_energy": -15.392, "internal_energy": -3.427}

$$$$
4tmn_ligand
     RDKit          3D

 68 69  0  0  0  0  0  0  0  0999 V2000
    3.5280    5.5820   -1.8110 C   0  0  0  0  0  0  0  0  0  0  0  0
    2.2850    5.3170   -0.9630 C   0  0  0  0  0  0  0  0  0  0  0  0
    2.1870    6.3290    0.1770 C   0  0  0  0  0  0  0  0  0  0  0  0
    2.1770    3.8500   -0.4940 C   0  0  0  0  0  0  0  0  0  0  0  0
    0.8690    3.0970   -0.8010 C   0  0  2  0  0  0  0  0  0  0  0  0
    0.1040    3.9340   -1.7670 N   0  0  0  0  0  0  0  0  0  0  0  0
   -0.6710    3.1030   -3.0930 P   0  0  2  0  0  5  0  0  0  0  0  0
   -0.4340    3.8960   -4.3510 O   0  0  0  0  0  0  0  0  0  0  0  0
   -2.0550    2.8170   -2.5600 O   0  0  0  0  0  0  0  0  0  0  0  0
    0.2610    1.4940   -3.1490 C   0  0  2  0  0  0  0  0  0  0  0  0
    1.5610    1.5500   -3.9600 C   0  0  0  0  0  0  0  0  0  0  0  0
    2.8470    1.2860   -3.2090 C   0  0  0  0  0  0  0  0  0  0  0  0
    3.9430    2.1500   -3.3510 C   0  0  0  0  0  0  0  0  0  0  0  0
    5.1320    1.9090   -2.6620 C   0  0  0  0  0  0  0  0  0  0  0  0
    5.2360    0.8040   -1.8180 C   0  0  0  0  0  0  0  0  0  0  0  0
    4.1500   -0.0560   -1.6630 C   0  0  0  0  0  0  0  0  0  0  0  0
    2.9620    0.1830   -2.3570 C   0  0  0  0  0  0  0  0  0  0  0  0
   -0.6910    0.4860   -3.6030 N   0  0  0  0  0  0  0  0  0  0  0  0
   -1.3650   -0.3540   -2.7890 C   0  0  0  0  0  0  0  0  0  0  0  0
   -1.1810   -0.4760   -1.5860 O   0  0  0  0  0  0  0  0  0  0  0  0
   -2.2710   -1.0500   -3.5150 O   0  0  0  0  0  0  0  0  0  0  0  0
   -2.9320   -2.0720   -2.7720 C   0  0  0  0  0  0  0  0  0  0  0  0
   -2.2530   -3.3870   -3.0660 C   0  0  0  0  0  0  0  0  0  0  0  0
   -2.7190   -4.2170   -4.0960 C   0  0  0  0  0  0  0  0  0  0  0  0
   -2.0970   -5.4390   -4.3570 C   0  0  0  0  0  0  0  0  0  0  0  0
   -1.0090   -5.8480   -3.5860 C   0  0  0  0  0  0  0  0  0  0  0  0
   -0.5460   -5.0360   -2.5530 C   0  0  0  0  0  0  0  0  0  0  0  0
   -1.1670   -3.8130   -2.2910 C   0  0  0  0  0  0  0  0  0  0  0  0
    0.0310    2.8080    0.4550 C   0  0  0  0  0  0  0  0  0  0  0  0
    0.0380    3.5660    1.4270 O   0  0  0  0  0  0  0  0  0  0  0  0
   -0.7390    1.6720    0.3980 N   0  0  0  0  0  0  0  0  0  0  0  0
   -1.5880    1.1810    1.4980 C   0  0  1  0  0  0  0  0  0  0  0  0
   -2.9720    0.7870    0.9900 C   0  0  0  0  0  0  0  0  0  0  0  0
   -1.0100   -0.0890    2.2010 C   0  0  0  0  0  0  0  0  0  0  0  0
   -1.8000   -0.7070    2.9740 O   0  0  0  0  0  0  0  0  0  0  0  0
    0.1990   -0.3520    1.9190 O   0  0  0  0  0  0  0  0  0  0  0  0
    4.3893    5.7656   -1.1518 H   0  0  0  0  0  0  0  0  0  0  0  0
    3.7321    4.7072   -2.4459 H   0  0  0  0  0  0  0  0  0  0  0  0
    3.3576    6.4640   -2.4459 H   0  0  0  0  0  0  0  0  0  0  0  0
    1.4041    5.4651   -1.6049 H   0  0  0  0  0  0  0  0  0  0  0  0
    2.2381    5.8015    1.1409 H   0  0  0  0  0  0  0  0  0  0  0  0
    3.0201    7.0437    0.1055 H   0  0  0  0  0  0  0  0  0  0  0  0
    1.2322    6.8705    0.1055 H   0  0  0  0  0  0  0  0  0  0  0  0
    2.9972    3.2916   -0.9688 H   0  0  0  0  0  0  0  0  0  0  0  0
    2.2165    3.9044    0.6039 H   0  0  0  0  0  0  0  0  0  0  0  0
    1.1087    2.1094   -1.2220 H   0  0  0  0  0  0  0  0  0  0  0  0
   -0.5710    4.5660   -1.3320 H   0  0  0  0  0  0  0  0  0  0  0  0
    0.6384    1.2341   -2.1490 H   0  0  0  0  0  0  0  0  0  0  0  0
    1.4848    0.8013   -4.7623 H   0  0  0  0  0  0  0  0  0  0  0  0
    1.6390    2.5913   -4.3058 H   0  0  0  0  0  0  0  0  0  0  0  0
    3.8642    3.0258   -4.0119 H   0  0  0  0  0  0  0  0  0  0  0  0
    5.9869    2.5903   -2.7845 H   0  0  0  0  0  0  0  0  0  0  0  0
    6.1733    0.6113   -1.2755 H   0  0  0  0  0  0  0  0  0  0  0  0
    4.2289   -0.9246   -0.9927 H   0  0  0  0  0  0  0  0  0  0  0  0
    2.1101   -0.5016   -2.2325 H   0  0  0  0  0  0  0  0  0  0  0  0
   -0.8870    0.4860   -4.6010 H   0  0  0  0  0  0  0  0  0  0  0  0
   -2.8657   -1.8516   -1.6963 H   0  0  0  0  0  0  0  0  0  0  0  0
   -3.9931   -2.1216   -3.0575 H   0  0  0  0  0  0  0  0  0  0  0  0
   -3.5811   -3.9026   -4.7027 H   0  0  0  0  0  0  0  0  0  0  0  0
   -2.4652   -6.0801   -5.1715 H   0  0  0  0  0  0  0  0  0  0  0  0
   -0.5174   -6.8100   -3.7932 H   0  0  0  0  0  0  0  0  0  0  0  0
    0.3103   -5.3588   -1.9426 H   0  0  0  0  0  0  0  0  0  0  0  0
   -0.8005   -3.1795   -1.4698 H   0  0  0  0  0  0  0  0  0  0  0  0
   -0.6880    1.0350   -0.3940 H   0  0  0  0  0  0  0  0  0  0  0  0
   -1.6323    2.0172    2.2113 H   0  0  0  0  0  0  0  0  0  0  0  0
   -3.6366    0.5978    1.8459 H   0  0  0  0  0  0  0  0  0  0  0  0
   -3.3844    1.6034    0.3790 H   0  0  0  0  0  0  0  0  0  0  0  0
   -2.8926   -0.1242    0.3790 H   0  0  0  0  0  0  0  0  0  0  0  0
  1  2  1  0
  2  3  1  0
  2  4  1  0
  4  5  1  0
  5  6  1  0
  6  7  1  0
  7  8  2  0
  7  9  1  1
  7 10  1  0
 10 11  1  0
 11 12  1  0
 12 13  2  0
 13 14  1  0
 14 15  2  0
 15 16  1  0
 16 17  2  0
 10 18  1  0
 18 19  1  0
 19 20  2  0
 19 21  1  0
 21 22  1  0
 22 23  1  0
 23 24  2  0
 24 25  1  0
 25 26  2  0
 26 27  1  0
 27 28  2  0
  5 29  1  0
 29 30  2  0
 29 31  1  0
 31 32  1  0
 32 33  1  0
 32 34  1  0
 34 35  2  0
 34 36  1  0
 17 12  1  0
 28 23  1  0
  1 37  1  0
  1 38  1  0
  1 39  1  0
  2 40  1  0
  3 41  1  0
  3 42  1  0
  3 43  1  0
  4 44  1  0
  4 45  1  0
  5 46  1  6
  6 47  1  0
 10 48  1  1
 11 49  1  0
 11 50  1  0
 13 51  1  0
 14 52  1  0
 15 53  1  0
 16 54  1  0
 17 55  1  0
 18 56  1  0
 22 57  1  0
 22 58  1  0
 24 59  1  0
 25 60  1  0
 26 61  1  0
 27 62  1  0
 28 63  1  0
 31 64  1  0
 32 65  1  1
 33 66  1  0
 33 67  1  0
 33 68  1  0
M  CHG  2   9  -1  36  -1
M  END
>  <meeko>  (2) 
{"is_sidechain": [false], "free_energy": -8.367, "intermolecular_energy": -15.61, "internal_energy": -3.033}

$$$$
4tmn_ligand
     RDKit          3D

 68 69  0  0  0  0  0  0  0  0999 V2000
   -4.4210   -3.1710   -4.7400 C   0  0  0  0  0  0  0  0  0  0  0  0
   -2.9660   -3.4300   -4.3520 C   0  0  0  0  0  0  0  0  0  0  0  0
   -2.6360   -4.9170   -4.4670 C   0  0  0  0  0  0  0  0  0  0  0  0
   -2.5910   -2.8210   -2.9830 C   0  0  0  0  0  0  0  0  0  0  0  0
   -1.2650   -2.0440   -2.8880 C   0  0  2  0  0  0  0  0  0  0  0  0
   -0.7900   -1.8240   -4.2820 N   0  0  0  0  0  0  0  0  0  0  0  0
   -0.5640   -0.1680   -4.7880 P   0  0  2  0  0  5  0  0  0  0  0  0
   -1.4540    0.0890   -5.9750 O   0  0  0  0  0  0  0  0  0  0  0  0
    0.9380   -0.0280   -4.8510 O   0  0  0  0  0  0  0  0  0  0  0  0
   -1.1630    0.7830   -3.3050 C   0  0  2  0  0  0  0  0  0  0  0  0
   -2.5920    1.3220   -3.4400 C   0  0  0  0  0  0  0  0  0  0  0  0
   -3.6560    0.6520   -2.6010 C   0  0  0  0  0  0  0  0  0  0  0  0
   -3.4610    0.4610   -1.2250 C   0  0  0  0  0  0  0  0  0  0  0  0
   -4.4400   -0.1590   -0.4470 C   0  0  0  0  0  0  0  0  0  0  0  0
   -5.6280   -0.5900   -1.0370 C   0  0  0  0  0  0  0  0  0  0  0  0
   -5.8360   -0.3970   -2.4010 C   0  0  0  0  0  0  0  0  0  0  0  0
   -4.8540    0.2180   -3.1800 C   0  0  0  0  0  0  0  0  0  0  0  0
   -0.1540    1.8050   -3.0410 N   0  0  0  0  0  0  0  0  0  0  0  0
    0.8060    1.7090   -2.0980 C   0  0  0  0  0  0  0  0  0  0  0  0
    0.8890    0.8240   -1.2580 O   0  0  0  0  0  0  0  0  0  0  0  0
    1.6600    2.7510   -2.2210 O   0  0  0  0  0  0  0  0  0  0  0  0
    2.5920    2.8550   -1.1460 C   0  0  0  0  0  0  0  0  0  0  0  0
    2.1440    3.9720   -0.2360 C   0  0  0  0  0  0  0  0  0  0  0  0
    1.3760    3.6980    0.9050 C   0  0  0  0  0  0  0  0  0  0  0  0
    0.9500    4.7340    1.7380 C   0  0  0  0  0  0  0  0  0  0  0  0
    1.2800    6.0540    1.4340 C   0  0  0  0  0  0  0  0  0  0  0  0
    2.0320    6.3380    0.2950 C   0  0  0  0  0  0  0  0  0  0  0  0
    2.4590    5.3020   -0.5380 C   0  0  0  0  0  0  0  0  0  0  0  0
   -0.1980   -2.7750   -2.0560 C   0  0  0  0  0  0  0  0  0  0  0  0
   -0.3810   -3.9140   -1.6220 O   0  0  0  0  0  0  0  0  0  0  0  0
    0.9720   -2.0800   -1.8630 N   0  0  0  0  0  0  0  0  0  0  0  0
    2.1130   -2.5680   -1.0670 C   0  0  1  0  0  0  0  0  0  0  0  0
    3.3100   -1.6320   -1.1930 C   0  0  0  0  0  0  0  0  0  0  0  0
    1.8000   -2.6650    0.4610 C   0  0  0  0  0  0  0  0  0  0  0  0
    1.7090   -3.8340    0.9380 O   0  0  0  0  0  0  0  0  0  0  0  0
    1.6660   -1.5490    1.0500 O   0  0  0  0  0  0  0  0  0  0  0  0
   -5.0294   -3.0627   -3.8300 H   0  0  0  0  0  0  0  0  0  0  0  0
   -4.4831   -2.2477   -5.3347 H   0  0  0  0  0  0  0  0  0  0  0  0
   -4.7979   -4.0162   -5.3347 H   0  0  0  0  0  0  0  0  0  0  0  0
   -2.3271   -2.8995   -5.0734 H   0  0  0  0  0  0  0  0  0  0  0  0
   -2.5399   -5.3502   -3.4605 H   0  0  0  0  0  0  0  0  0  0  0  0
   -3.4421   -5.4304   -5.0117 H   0  0  0  0  0  0  0  0  0  0  0  0
   -1.6884   -5.0412   -5.0117 H   0  0  0  0  0  0  0  0  0  0  0  0
   -3.3983   -2.1305   -2.6977 H   0  0  0  0  0  0  0  0  0  0  0  0
   -2.4553   -3.6876   -2.3193 H   0  0  0  0  0  0  0  0  0  0  0  0
   -1.4385   -1.0918   -2.3653 H   0  0  0  0  0  0  0  0  0  0  0  0
    0.0400   -2.3640   -4.5330 H   0  0  0  0  0  0  0  0  0  0  0  0
   -1.2628    0.1161   -2.4359 H   0  0  0  0  0  0  0  0  0  0  0  0
   -2.5732    2.3869   -3.1650 H   0  0  0  0  0  0  0  0  0  0  0  0
   -2.8783    1.1197   -4.4826 H   0  0  0  0  0  0  0  0  0  0  0  0
   -2.5274    0.8032   -0.7546 H   0  0  0  0  0  0  0  0  0  0  0  0
   -4.2748   -0.3075    0.6303 H   0  0  0  0  0  0  0  0  0  0  0  0
   -6.3996   -1.0816   -0.4263 H   0  0  0  0  0  0  0  0  0  0  0  0
   -6.7760   -0.7299   -2.8653 H   0  0  0  0  0  0  0  0  0  0  0  0
   -5.0232    0.3626   -4.2572 H   0  0  0  0  0  0  0  0  0  0  0  0
   -0.1640    2.6030   -3.6730 H   0  0  0  0  0  0  0  0  0  0  0  0
    2.6212    1.9085   -0.5863 H   0  0  0  0  0  0  0  0  0  0  0  0
    3.5986    3.0654   -1.5365 H   0  0  0  0  0  0  0  0  0  0  0  0
    1.1072    2.6588    1.1454 H   0  0  0  0  0  0  0  0  0  0  0  0
    0.3538    4.5088    2.6345 H   0  0  0  0  0  0  0  0  0  0  0  0
    0.9474    6.8703    2.0920 H   0  0  0  0  0  0  0  0  0  0  0  0
    2.2893    7.3796    0.0522 H   0  0  0  0  0  0  0  0  0  0  0  0
    3.0474    5.5327   -1.4383 H   0  0  0  0  0  0  0  0  0  0  0  0
    1.0800   -1.1210   -2.1860 H   0  0  0  0  0  0  0  0  0  0  0  0
    2.3274   -3.5689   -1.4697 H   0  0  0  0  0  0  0  0  0  0  0  0
    3.6654   -1.3541   -0.1898 H   0  0  0  0  0  0  0  0  0  0  0  0
    4.1173   -2.1408   -1.7401 H   0  0  0  0  0  0  0  0  0  0  0  0
    3.0109   -0.7258   -1.7401 H   0  0  0  0  0  0  0  0  0  0  0  0
  1  2  1  0
  2  3  1  0
  2  4  1  0
  4  5  1  0
  5  6  1  0
  6  7  1  0
  7  8  2  0
  7  9  1  6
  7 10  1  0
 10 11  1  0
 11 12  1  0
 12 13  2  0
 13 14  1  0
 14 15  2  0
 15 16  1  0
 16 17  2  0
 10 18  1  0
 18 19  1  0
 19 20  2  0
 19 21  1  0
 21 22  1  0
 22 23  1  0
 23 24  2  0
 24 25  1  0
 25 26  2  0
 26 27  1  0
 27 28  2  0
  5 29  1  0
 29 30  2  0
 29 31  1  0
 31 32  1  0
 32 33  1  0
 32 34  1  0
 34 35  2  0
 34 36  1  0
 17 12  1  0
 28 23  1  0
  1 37  1  0
  1 38  1  0
  1 39  1  0
  2 40  1  0
  3 41  1  0
  3 42  1  0
  3 43  1  0
  4 44  1  0
  4 45  1  0
  5 46  1  1
  6 47  1  0
 10 48  1  1
 11 49  1  0
 11 50  1  0
 13 51  1  0
 14 52  1  0
 15 53  1  0
 16 54  1  0
 17 55  1  0
 18 56  1  0
 22 57  1  0
 22 58  1  0
 24 59  1  0
 25 60  1  0
 26 61  1  0
 27 62  1  0
 28 63  1  0
 31 64  1  0
 32 65  1  6
 33 66  1  0
 33 67  1  0
 33 68  1  0
M  CHG  2   9  -1  36  -1
M  END
>  <meeko>  (3) 
{"is_sidechain": [false], "free_energy": -8.278, "intermolecular_energy": -15.258, "internal_energy": -3.221}

$$$$
4tmn_ligand
     RDKit          3D

 68 69  0  0  0  0  0  0  0  0999 V2000
    3.2850    5.0630   -1.6540 C   0  0  0  0  0  0  0  0  0  0  0  0
    2.0320    4.9020   -0.7950 C   0  0  0  0  0  0  0  0  0  0  0  0
    1.9570    6.0070    0.2580 C   0  0  0  0  0  0  0  0  0  0  0  0
    1.8840    3.4820   -0.2070 C   0  0  0  0  0  0  0  0  0  0  0  0
    0.5210    2.7830   -0.3630 C   0  0  2  0  0  0  0  0  0  0  0  0
   -0.2560    3.5680   -1.3630 N   0  0  0  0  0  0  0  0  0  0  0  0
   -0.8410    2.7050   -2.7640 P   0  0  2  0  0  5  0  0  0  0  0  0
   -0.4590    3.4870   -3.9930 O   0  0  0  0  0  0  0  0  0  0  0  0
   -2.2760    2.4000   -2.4070 O   0  0  0  0  0  0  0  0  0  0  0  0
    0.1180    1.1140   -2.6770 C   0  0  2  0  0  0  0  0  0  0  0  0
    1.2700    1.0200   -3.6840 C   0  0  0  0  0  0  0  0  0  0  0  0
    2.6730    1.0910   -3.1260 C   0  0  0  0  0  0  0  0  0  0  0  0
    3.0890    0.1930   -2.1320 C   0  0  0  0  0  0  0  0  0  0  0  0
    4.3830    0.2560   -1.6130 C   0  0  0  0  0  0  0  0  0  0  0  0
    5.2770    1.2150   -2.0860 C   0  0  0  0  0  0  0  0  0  0  0  0
    4.8770    2.1070   -3.0800 C   0  0  0  0  0  0  0  0  0  0  0  0
    3.5810    2.0460   -3.5960 C   0  0  0  0  0  0  0  0  0  0  0  0
   -0.8640    0.0390   -2.7790 N   0  0  0  0  0  0  0  0  0  0  0  0
   -1.0650   -0.9080   -1.8390 C   0  0  0  0  0  0  0  0  0  0  0  0
   -0.3770   -1.0750   -0.8420 O   0  0  0  0  0  0  0  0  0  0  0  0
   -2.1430   -1.6520   -2.1770 O   0  0  0  0  0  0  0  0  0  0  0  0
   -1.8070   -2.9130   -2.7540 C   0  0  0  0  0  0  0  0  0  0  0  0
   -2.8840   -3.2840   -3.7430 C   0  0  0  0  0  0  0  0  0  0  0  0
   -3.9220   -2.3870   -4.0380 C   0  0  0  0  0  0  0  0  0  0  0  0
   -4.9260   -2.7390   -4.9420 C   0  0  0  0  0  0  0  0  0  0  0  0
   -4.9080   -3.9920   -5.5540 C   0  0  0  0  0  0  0  0  0  0  0  0
   -3.8880   -4.8950   -5.2570 C   0  0  0  0  0  0  0  0  0  0  0  0
   -2.8840   -4.5450   -4.3530 C   0  0  0  0  0  0  0  0  0  0  0  0
   -0.2520    2.6670    0.9610 C   0  0  0  0  0  0  0  0  0  0  0  0
   -1.1160    1.8060    1.1340 O   0  0  0  0  0  0  0  0  0  0  0  0
    0.1130    3.5660    1.9340 N   0  0  0  0  0  0  0  0  0  0  0  0
   -0.5180    3.6630    3.2620 C   0  0  1  0  0  0  0  0  0  0  0  0
    0.1320    2.7010    4.2510 C   0  0  0  0  0  0  0  0  0  0  0  0
   -0.3940    5.0850    3.9000 C   0  0  0  0  0  0  0  0  0  0  0  0
   -0.2800    6.0510    3.0900 O   0  0  0  0  0  0  0  0  0  0  0  0
   -0.4140    5.1040    5.1680 O   0  0  0  0  0  0  0  0  0  0  0  0
    4.1641    5.1760   -1.0026 H   0  0  0  0  0  0  0  0  0  0  0  0
    3.4110    4.1737   -2.2890 H   0  0  0  0  0  0  0  0  0  0  0  0
    3.1821    5.9553   -2.2890 H   0  0  0  0  0  0  0  0  0  0  0  0
    1.1578    5.0201   -1.4521 H   0  0  0  0  0  0  0  0  0  0  0  0
    1.9874    5.5592    1.2623 H   0  0  0  0  0  0  0  0  0  0  0  0
    2.8109    6.6894    0.1348 H   0  0  0  0  0  0  0  0  0  0  0  0
    1.0187    6.5678    0.1348 H   0  0  0  0  0  0  0  0  0  0  0  0
    2.6378    2.8448   -0.6925 H   0  0  0  0  0  0  0  0  0  0  0  0
    2.0063    3.6154    0.8780 H   0  0  0  0  0  0  0  0  0  0  0  0
    0.6801    1.7469   -0.6963 H   0  0  0  0  0  0  0  0  0  0  0  0
   -1.0240    4.1120   -0.9640 H   0  0  0  0  0  0  0  0  0  0  0  0
    0.6579    1.0427   -1.7213 H   0  0  0  0  0  0  0  0  0  0  0  0
    1.1711    0.0610   -4.2137 H   0  0  0  0  0  0  0  0  0  0  0  0
    1.1687    1.9118   -4.3200 H   0  0  0  0  0  0  0  0  0  0  0  0
    2.3886   -0.5682   -1.7579 H   0  0  0  0  0  0  0  0  0  0  0  0
    4.6972   -0.4509   -0.8310 H   0  0  0  0  0  0  0  0  0  0  0  0
    6.2963    1.2680   -1.6758 H   0  0  0  0  0  0  0  0  0  0  0  0
    5.5837    2.8602   -3.4585 H   0  0  0  0  0  0  0  0  0  0  0  0
    3.2714    2.7545   -4.3784 H   0  0  0  0  0  0  0  0  0  0  0  0
   -1.4660    0.0730   -3.5980 H   0  0  0  0  0  0  0  0  0  0  0  0
   -0.8380   -2.8397   -3.2695 H   0  0  0  0  0  0  0  0  0  0  0  0
   -1.7323   -3.6806   -1.9696 H   0  0  0  0  0  0  0  0  0  0  0  0
   -3.9448   -1.3996   -3.5536 H   0  0  0  0  0  0  0  0  0  0  0  0
   -5.7324   -2.0270   -5.1719 H   0  0  0  0  0  0  0  0  0  0  0  0
   -5.6968   -4.2673   -6.2695 H   0  0  0  0  0  0  0  0  0  0  0  0
   -3.8746   -5.8851   -5.7361 H   0  0  0  0  0  0  0  0  0  0  0  0
   -2.0864   -5.2650   -4.1176 H   0  0  0  0  0  0  0  0  0  0  0  0
    0.7930    4.3020    1.7500 H   0  0  0  0  0  0  0  0  0  0  0  0
   -1.5767    3.4216    3.0860 H   0  0  0  0  0  0  0  0  0  0  0  0
   -0.0882    3.0270    5.2782 H   0  0  0  0  0  0  0  0  0  0  0  0
   -0.2677    1.6883    4.0940 H   0  0  0  0  0  0  0  0  0  0  0  0
    1.2207    2.6939    4.0940 H   0  0  0  0  0  0  0  0  0  0  0  0
  1  2  1  0
  2  3  1  0
  2  4  1  0
  4  5  1  0
  5  6  1  0
  6  7  1  0
  7  8  2  0
  7  9  1  1
  7 10  1  0
 10 11  1  0
 11 12  1  0
 12 13  2  0
 13 14  1  0
 14 15  2  0
 15 16  1  0
 16 17  2  0
 10 18  1  0
 18 19  1  0
 19 20  2  0
 19 21  1  0
 21 22  1  0
 22 23  1  0
 23 24  2  0
 24 25  1  0
 25 26  2  0
 26 27  1  0
 27 28  2  0
  5 29  1  0
 29 30  2  0
 29 31  1  0
 31 32  1  0
 32 33  1  0
 32 34  1  0
 34 35  2  0
 34 36  1  0
 17 12  1  0
 28 23  1  0
  1 37  1  0
  1 38  1  0
  1 39  1  0
  2 40  1  0
  3 41  1  0
  3 42  1  0
  3 43  1  0
  4 44  1  0
  4 45  1  0
  5 46  1  6
  6 47  1  0
 10 48  1  1
 11 49  1  0
 11 50  1  0
 13 51  1  0
 14 52  1  0
 15 53  1  0
 16 54  1  0
 17 55  1  0
 18 56  1  0
 22 57  1  0
 22 58  1  0
 24 59  1  0
 25 60  1  0
 26 61  1  0
 27 62  1  0
 28 63  1  0
 31 64  1  0
 32 65  1  6
 33 66  1  0
 33 67  1  0
 33 68  1  0
M  CHG  2   9  -1  36  -1
M  END
>  <meeko>  (4) 
{"is_sidechain": [false], "free_energy": -8.246, "intermolecular_energy": -15.671, "internal_energy": -2.751}

$$$$
4tmn_ligand
     RDKit          3D

 68 69  0  0  0  0  0  0  0  0999 V2000
   -4.0060   -3.0150   -4.4470 C   0  0  0  0  0  0  0  0  0  0  0  0
   -2.5630   -3.3790   -4.1030 C   0  0  0  0  0  0  0  0  0  0  0  0
   -2.3320   -4.8800   -4.2730 C   0  0  0  0  0  0  0  0  0  0  0  0
   -2.1190   -2.8430   -2.7250 C   0  0  0  0  0  0  0  0  0  0  0  0
   -0.8360   -1.9930   -2.6700 C   0  0  2  0  0  0  0  0  0  0  0  0
   -0.6020   -1.4710   -4.0450 N   0  0  0  0  0  0  0  0  0  0  0  0
   -0.2370    0.2300   -4.1940 P   0  0  2  0  0  5  0  0  0  0  0  0
   -1.1970    0.8340   -5.1830 O   0  0  0  0  0  0  0  0  0  0  0  0
    1.2590    0.2450   -4.3990 O   0  0  0  0  0  0  0  0  0  0  0  0
   -0.5830    0.8600   -2.4780 C   0  0  2  0  0  0  0  0  0  0  0  0
   -1.8930    1.6450   -2.3510 C   0  0  0  0  0  0  0  0  0  0  0  0
   -3.1220    0.8630   -1.9450 C   0  0  0  0  0  0  0  0  0  0  0  0
   -4.0730    0.4850   -2.9040 C   0  0  0  0  0  0  0  0  0  0  0  0
   -5.2100   -0.2350   -2.5340 C   0  0  0  0  0  0  0  0  0  0  0  0
   -5.4050   -0.5890   -1.2000 C   0  0  0  0  0  0  0  0  0  0  0  0
   -4.4620   -0.2260   -0.2400 C   0  0  0  0  0  0  0  0  0  0  0  0
   -3.3270    0.4980   -0.6100 C   0  0  0  0  0  0  0  0  0  0  0  0
    0.6060    1.5980   -2.0660 N   0  0  0  0  0  0  0  0  0  0  0  0
    1.2800    1.3860   -0.9160 C   0  0  0  0  0  0  0  0  0  0  0  0
    0.9220    0.6470   -0.0100 O   0  0  0  0  0  0  0  0  0  0  0  0
    2.4120    2.1290   -0.9170 O   0  0  0  0  0  0  0  0  0  0  0  0
    2.5150    3.0080   -2.0360 C   0  0  0  0  0  0  0  0  0  0  0  0
    2.7280    4.4090   -1.5190 C   0  0  0  0  0  0  0  0  0  0  0  0
    2.0480    4.8600   -0.3780 C   0  0  0  0  0  0  0  0  0  0  0  0
    2.2360    6.1620    0.0910 C   0  0  0  0  0  0  0  0  0  0  0  0
    3.0980    7.0280   -0.5810 C   0  0  0  0  0  0  0  0  0  0  0  0
    3.7690    6.5930   -1.7230 C   0  0  0  0  0  0  0  0  0  0  0  0
    3.5820    5.2920   -2.1920 C   0  0  0  0  0  0  0  0  0  0  0  0
    0.3870   -2.7810   -2.1690 C   0  0  0  0  0  0  0  0  0  0  0  0
    1.4740   -2.2350   -1.9750 O   0  0  0  0  0  0  0  0  0  0  0  0
    0.1660   -4.1150   -1.9280 N   0  0  0  0  0  0  0  0  0  0  0  0
    1.2000   -5.0670   -1.4830 C   0  0  1  0  0  0  0  0  0  0  0  0
    1.1270   -5.2920    0.0240 C   0  0  0  0  0  0  0  0  0  0  0  0
    1.0580   -6.4790   -2.1370 C   0  0  0  0  0  0  0  0  0  0  0  0
    0.7870   -6.4970   -3.3730 O   0  0  0  0  0  0  0  0  0  0  0  0
    1.2270   -7.4540   -1.3420 O   0  0  0  0  0  0  0  0  0  0  0  0
   -4.5789   -2.8705   -3.5191 H   0  0  0  0  0  0  0  0  0  0  0  0
   -4.0195   -2.0853   -5.0348 H   0  0  0  0  0  0  0  0  0  0  0  0
   -4.4588   -3.8270   -5.0348 H   0  0  0  0  0  0  0  0  0  0  0  0
   -1.9083   -2.8657   -4.8226 H   0  0  0  0  0  0  0  0  0  0  0  0
   -2.2590   -5.3542   -3.2831 H   0  0  0  0  0  0  0  0  0  0  0  0
   -3.1730   -5.3198   -4.8291 H   0  0  0  0  0  0  0  0  0  0  0  0
   -1.3977   -5.0465   -4.8291 H   0  0  0  0  0  0  0  0  0  0  0  0
   -2.9400   -2.2253   -2.3321 H   0  0  0  0  0  0  0  0  0  0  0  0
   -1.8831   -3.7430   -2.1381 H   0  0  0  0  0  0  0  0  0  0  0  0
   -0.9719   -1.1767   -1.9454 H   0  0  0  0  0  0  0  0  0  0  0  0
    0.0800   -2.0060   -4.5870 H   0  0  0  0  0  0  0  0  0  0  0  0
   -0.7635    0.0209   -1.7901 H   0  0  0  0  0  0  0  0  0  0  0  0
   -1.7369    2.4328   -1.5993 H   0  0  0  0  0  0  0  0  0  0  0  0
   -2.1079    2.0108   -3.3659 H   0  0  0  0  0  0  0  0  0  0  0  0
   -3.9213    0.7588   -3.9585 H   0  0  0  0  0  0  0  0  0  0  0  0
   -5.9512   -0.5227   -3.2941 H   0  0  0  0  0  0  0  0  0  0  0  0
   -6.3017   -1.1539   -0.9054 H   0  0  0  0  0  0  0  0  0  0  0  0
   -4.6124   -0.5107    0.8118 H   0  0  0  0  0  0  0  0  0  0  0  0
   -2.5886    0.7835    0.1537 H   0  0  0  0  0  0  0  0  0  0  0  0
    0.9640    2.2660   -2.7450 H   0  0  0  0  0  0  0  0  0  0  0  0
    3.3663    2.7104   -2.6658 H   0  0  0  0  0  0  0  0  0  0  0  0
    1.5968    2.9622   -2.6400 H   0  0  0  0  0  0  0  0  0  0  0  0
    1.3614    4.1830    0.1514 H   0  0  0  0  0  0  0  0  0  0  0  0
    1.7039    6.5045    0.9908 H   0  0  0  0  0  0  0  0  0  0  0  0
    3.2483    8.0528   -0.2106 H   0  0  0  0  0  0  0  0  0  0  0  0
    4.4470    7.2764   -2.2553 H   0  0  0  0  0  0  0  0  0  0  0  0
    4.1095    4.9573   -3.0974 H   0  0  0  0  0  0  0  0  0  0  0  0
   -0.7270   -4.5540   -2.1450 H   0  0  0  0  0  0  0  0  0  0  0  0
    2.1523   -4.6075   -1.7862 H   0  0  0  0  0  0  0  0  0  0  0  0
    1.4256   -4.3715    0.5470 H   0  0  0  0  0  0  0  0  0  0  0  0
    0.0971   -5.5562    0.3058 H   0  0  0  0  0  0  0  0  0  0  0  0
    1.8057   -6.1105    0.3058 H   0  0  0  0  0  0  0  0  0  0  0  0
  1  2  1  0
  2  3  1  0
  2  4  1  0
  4  5  1  0
  5  6  1  0
  6  7  1  0
  7  8  2  0
  7  9  1  6
  7 10  1  0
 10 11  1  0
 11 12  1  0
 12 13  2  0
 13 14  1  0
 14 15  2  0
 15 16  1  0
 16 17  2  0
 10 18  1  0
 18 19  1  0
 19 20  2  0
 19 21  1  0
 21 22  1  0
 22 23  1  0
 23 24  2  0
 24 25  1  0
 25 26  2  0
 26 27  1  0
 27 28  2  0
  5 29  1  0
 29 30  2  0
 29 31  1  0
 31 32  1  0
 32 33  1  0
 32 34  1  0
 34 35  2  0
 34 36  1  0
 17 12  1  0
 28 23  1  0
  1 37  1  0
  1 38  1  0
  1 39  1  0
  2 40  1  0
  3 41  1  0
  3 42  1  0
  3 43  1  0
  4 44  1  0
  4 45  1  0
  5 46  1  1
  6 47  1  0
 10 48  1  1
 11 49  1  0
 11 50  1  0
 13 51  1  0
 14 52  1  0
 15 53  1  0
 16 54  1  0
 17 55  1  0
 18 56  1  0
 22 57  1  0
 22 58  1  0
 24 59  1  0
 25 60  1  0
 26 61  1  0
 27 62  1  0
 28 63  1  0
 31 64  1  0
 32 65  1  1
 33 66  1  0
 33 67  1  0
 33 68  1  0
M  CHG  2   9  -1  36  -1
M  END
>  <meeko>  (5) 
{"is_sidechain": [false], "free_energy": -8.216, "intermolecular_energy": -15.449, "internal_energy": -2.918}

$$$$
4tmn_ligand
     RDKit          3D

 68 69  0  0  0  0  0  0  0  0999 V2000
   -0.9860   -2.4800    0.8190 C   0  0  0  0  0  0  0  0  0  0  0  0
   -0.4270   -1.1320    1.2730 C   0  0  0  0  0  0  0  0  0  0  0  0
   -1.4380   -0.4000    2.1530 C   0  0  0  0  0  0  0  0  0  0  0  0
    0.1030   -0.2760    0.1020 C   0  0  0  0  0  0  0  0  0  0  0  0
   -0.3710    1.1870    0.0180 C   0  0  2  0  0  0  0  0  0  0  0  0
   -0.6620    1.4680   -1.4150 N   0  0  0  0  0  0  0  0  0  0  0  0
   -2.3140    1.2650   -1.9420 P   0  0  2  0  0  5  0  0  0  0  0  0
   -2.6900    2.4530   -2.7860 O   0  0  0  0  0  0  0  0  0  0  0  0
   -3.0410    0.9080   -0.6670 O   0  0  0  0  0  0  0  0  0  0  0  0
   -2.2090   -0.2720   -2.9860 C   0  0  2  0  0  0  0  0  0  0  0  0
   -2.6550   -1.5500   -2.2670 C   0  0  0  0  0  0  0  0  0  0  0  0
   -2.6020   -2.8350   -3.0620 C   0  0  0  0  0  0  0  0  0  0  0  0
   -1.6210   -3.8000   -2.7890 C   0  0  0  0  0  0  0  0  0  0  0  0
   -1.5680   -4.9870   -3.5230 C   0  0  0  0  0  0  0  0  0  0  0  0
   -2.4980   -5.2230   -4.5330 C   0  0  0  0  0  0  0  0  0  0  0  0
   -3.4820   -4.2750   -4.8070 C   0  0  0  0  0  0  0  0  0  0  0  0
   -3.5330   -3.0860   -4.0770 C   0  0  0  0  0  0  0  0  0  0  0  0
   -0.8480   -0.3170   -3.5100 N   0  0  0  0  0  0  0  0  0  0  0  0
   -0.4840    0.1160   -4.7360 C   0  0  0  0  0  0  0  0  0  0  0  0
   -1.2510    0.4820   -5.6160 O   0  0  0  0  0  0  0  0  0  0  0  0
    0.8640    0.0720   -4.8440 O   0  0  0  0  0  0  0  0  0  0  0  0
    1.4960    1.3310   -4.6170 C   0  0  0  0  0  0  0  0  0  0  0  0
    2.6020    1.1330   -3.6120 C   0  0  0  0  0  0  0  0  0  0  0  0
    2.5690    0.0520   -2.7180 C   0  0  0  0  0  0  0  0  0  0  0  0
    3.5880   -0.1210   -1.7790 C   0  0  0  0  0  0  0  0  0  0  0  0
    4.6440    0.7870   -1.7180 C   0  0  0  0  0  0  0  0  0  0  0  0
    4.6790    1.8710   -2.5930 C   0  0  0  0  0  0  0  0  0  0  0  0
    3.6620    2.0460   -3.5330 C   0  0  0  0  0  0  0  0  0  0  0  0
    0.6590    2.1860    0.5720 C   0  0  0  0  0  0  0  0  0  0  0  0
    1.1140    2.0820    1.7130 O   0  0  0  0  0  0  0  0  0  0  0  0
    1.0510    3.1700   -0.3020 N   0  0  0  0  0  0  0  0  0  0  0  0
    1.9950    4.2530    0.0260 C   0  0  1  0  0  0  0  0  0  0  0  0
    2.6810    4.7830   -1.2300 C   0  0  0  0  0  0  0  0  0  0  0  0
    1.3080    5.4880    0.6940 C   0  0  0  0  0  0  0  0  0  0  0  0
    0.8590    6.3710   -0.0940 O   0  0  0  0  0  0  0  0  0  0  0  0
    1.2860    5.4640    1.9630 O   0  0  0  0  0  0  0  0  0  0  0  0
   -1.2381   -3.0880    1.7004 H   0  0  0  0  0  0  0  0  0  0  0  0
   -1.8907   -2.3171    0.2149 H   0  0  0  0  0  0  0  0  0  0  0  0
   -0.2315   -3.0052    0.2149 H   0  0  0  0  0  0  0  0  0  0  0  0
    0.4597   -1.3283    1.8936 H   0  0  0  0  0  0  0  0  0  0  0  0
   -1.1967   -0.5747    3.2119 H   0  0  0  0  0  0  0  0  0  0  0  0
   -1.3960    0.6785    1.9405 H   0  0  0  0  0  0  0  0  0  0  0  0
   -2.4495   -0.7765    1.9405 H   0  0  0  0  0  0  0  0  0  0  0  0
    1.2006   -0.2629    0.1740 H   0  0  0  0  0  0  0  0  0  0  0  0
   -0.3042   -0.7544   -0.8010 H   0  0  0  0  0  0  0  0  0  0  0  0
   -1.2659    1.3148    0.6448 H   0  0  0  0  0  0  0  0  0  0  0  0
   -0.3170    2.3720   -1.7440 H   0  0  0  0  0  0  0  0  0  0  0  0
   -2.9315   -0.2242   -3.8141 H   0  0  0  0  0  0  0  0  0  0  0  0
   -2.0100   -1.6777   -1.3852 H   0  0  0  0  0  0  0  0  0  0  0  0
   -3.7205   -1.3956   -2.0413 H   0  0  0  0  0  0  0  0  0  0  0  0
   -0.8870   -3.6201   -1.9897 H   0  0  0  0  0  0  0  0  0  0  0  0
   -0.7922   -5.7353   -3.3037 H   0  0  0  0  0  0  0  0  0  0  0  0
   -2.4557   -6.1564   -5.1135 H   0  0  0  0  0  0  0  0  0  0  0  0
   -4.2202   -4.4639   -5.6003 H   0  0  0  0  0  0  0  0  0  0  0  0
   -4.3105   -2.3408   -4.3010 H   0  0  0  0  0  0  0  0  0  0  0  0
   -0.1380   -0.6420   -2.8590 H   0  0  0  0  0  0  0  0  0  0  0  0
    1.9147    1.7121   -5.5601 H   0  0  0  0  0  0  0  0  0  0  0  0
    0.7642    2.0583   -4.2357 H   0  0  0  0  0  0  0  0  0  0  0  0
    1.7348   -0.6640   -2.7571 H   0  0  0  0  0  0  0  0  0  0  0  0
    3.5574   -0.9750   -1.0864 H   0  0  0  0  0  0  0  0  0  0  0  0
    5.4482    0.6481   -0.9805 H   0  0  0  0  0  0  0  0  0  0  0  0
    5.5098    2.5902   -2.5428 H   0  0  0  0  0  0  0  0  0  0  0  0
    3.6929    2.9071   -4.2168 H   0  0  0  0  0  0  0  0  0  0  0  0
    0.6230    3.2660   -1.2210 H   0  0  0  0  0  0  0  0  0  0  0  0
    2.7097    3.7968    0.7268 H   0  0  0  0  0  0  0  0  0  0  0  0
    3.5212    5.4322   -0.9427 H   0  0  0  0  0  0  0  0  0  0  0  0
    3.0572    3.9387   -1.8263 H   0  0  0  0  0  0  0  0  0  0  0  0
    1.9590    5.3602   -1.8263 H   0  0  0  0  0  0  0  0  0  0  0  0
  1  2  1  0
  2  3  1  0
  2  4  1  0
  4  5  1  0
  5  6  1  0
  6  7  1  0
  7  8  2  0
  7  9  1  1
  7 10  1  0
 10 11  1  0
 11 12  1  0
 12 13  2  0
 13 14  1  0
 14 15  2  0
 15 16  1  0
 16 17  2  0
 10 18  1  0
 18 19  1  0
 19 20  2  0
 19 21  1  0
 21 22  1  0
 22 23  1  0
 23 24  2  0
 24 25  1  0
 25 26  2  0
 26 27  1  0
 27 28  2  0
  5 29  1  0
 29 30  2  0
 29 31  1  0
 31 32  1  0
 32 33  1  0
 32 34  1  0
 34 35  2  0
 34 36  1  0
 17 12  1  0
 28 23  1  0
  1 37  1  0
  1 38  1  0
  1 39  1  0
  2 40  1  0
  3 41  1  0
  3 42  1  0
  3 43  1  0
  4 44  1  0
  4 45  1  0
  5 46  1  1
  6 47  1  0
 10 48  1  6
 11 49  1  0
 11 50  1  0
 13 51  1  0
 14 52  1  0
 15 53  1  0
 16 54  1  0
 17 55  1  0
 18 56  1  0
 22 57  1  0
 22 58  1  0
 24 59  1  0
 25 60  1  0
 26 61  1  0
 27 62  1  0
 28 63  1  0
 31 64  1  0
 32 65  1  1
 33 66  1  0
 33 67  1  0
 33 68  1  0
M  CHG  2   9  -1  36  -1
M  END
>  <meeko>  (6) 
{"is_sidechain": [false], "free_energy": -8.18, "intermolecular_energy": -15.065, "internal_energy": -3.236}

$$$$
4tmn_ligand
     RDKit          3D

 68 69  0  0  0  0  0  0  0  0999 V2000
   -1.9110   -4.7160   -5.2930 C   0  0  0  0  0  0  0  0  0  0  0  0
   -3.0130   -3.8900   -4.6330 C   0  0  0  0  0  0  0  0  0  0  0  0
   -4.3770   -4.2430   -5.2260 C   0  0  0  0  0  0  0  0  0  0  0  0
   -2.7150   -2.3750   -4.6380 C   0  0  0  0  0  0  0  0  0  0  0  0
   -2.6560   -1.6550   -3.2780 C   0  0  2  0  0  0  0  0  0  0  0  0
   -2.3100   -2.6840   -2.2580 N   0  0  0  0  0  0  0  0  0  0  0  0
   -0.9960   -2.3100   -1.1700 P   0  0  2  0  0  5  0  0  0  0  0  0
   -0.0540   -3.4840   -1.1470 O   0  0  0  0  0  0  0  0  0  0  0  0
   -1.7030   -1.8080    0.0660 O   0  0  0  0  0  0  0  0  0  0  0  0
   -0.2000   -0.8490   -2.0030 C   0  0  2  0  0  0  0  0  0  0  0  0
    1.0730   -1.1910   -2.7860 C   0  0  0  0  0  0  0  0  0  0  0  0
    2.2210   -0.2120   -2.6850 C   0  0  0  0  0  0  0  0  0  0  0  0
    3.2870   -0.4540   -1.8070 C   0  0  0  0  0  0  0  0  0  0  0  0
    4.3470    0.4480   -1.7090 C   0  0  0  0  0  0  0  0  0  0  0  0
    4.3550    1.6000   -2.4930 C   0  0  0  0  0  0  0  0  0  0  0  0
    3.3050    1.8470   -3.3750 C   0  0  0  0  0  0  0  0  0  0  0  0
    2.2420    0.9470   -3.4700 C   0  0  0  0  0  0  0  0  0  0  0  0
   -0.0180    0.1620   -0.9660 N   0  0  0  0  0  0  0  0  0  0  0  0
   -0.6130    1.3740   -0.9640 C   0  0  0  0  0  0  0  0  0  0  0  0
   -1.2770    1.8400   -1.8790 O   0  0  0  0  0  0  0  0  0  0  0  0
   -0.3520    1.9980    0.2080 O   0  0  0  0  0  0  0  0  0  0  0  0
    1.0400    2.0850    0.5100 C   0  0  0  0  0  0  0  0  0  0  0  0
    1.4530    3.5330    0.4300 C   0  0  0  0  0  0  0  0  0  0  0  0
    1.0640    4.4430    1.4240 C   0  0  0  0  0  0  0  0  0  0  0  0
    1.4350    5.7860    1.3400 C   0  0  0  0  0  0  0  0  0  0  0  0
    2.1920    6.2350    0.2580 C   0  0  0  0  0  0  0  0  0  0  0  0
    2.5720    5.3420   -0.7420 C   0  0  0  0  0  0  0  0  0  0  0  0
    2.2020    3.9980   -0.6590 C   0  0  0  0  0  0  0  0  0  0  0  0
   -3.9710   -0.9450   -2.9150 C   0  0  0  0  0  0  0  0  0  0  0  0
   -4.1920   -0.5350   -1.7740 O   0  0  0  0  0  0  0  0  0  0  0  0
   -4.8540   -0.7790   -3.9540 N   0  0  0  0  0  0  0  0  0  0  0  0
   -6.1870   -0.1630   -3.8280 C   0  0  1  0  0  0  0  0  0  0  0  0
   -6.1900    1.2580   -4.3820 C   0  0  0  0  0  0  0  0  0  0  0  0
   -7.2970   -0.9330   -4.6130 C   0  0  0  0  0  0  0  0  0  0  0  0
   -6.9030   -1.8880   -5.3450 O   0  0  0  0  0  0  0  0  0  0  0  0
   -8.4770   -0.5030   -4.4290 O   0  0  0  0  0  0  0  0  0  0  0  0
   -1.2878   -5.1831   -4.5162 H   0  0  0  0  0  0  0  0  0  0  0  0
   -2.3644   -5.4986   -5.9191 H   0  0  0  0  0  0  0  0  0  0  0  0
   -1.2871   -4.0612   -5.9191 H   0  0  0  0  0  0  0  0  0  0  0  0
   -3.0419   -4.1610   -3.5673 H   0  0  0  0  0  0  0  0  0  0  0  0
   -5.0937   -4.4285   -4.4124 H   0  0  0  0  0  0  0  0  0  0  0  0
   -4.7345   -3.4078   -5.8462 H   0  0  0  0  0  0  0  0  0  0  0  0
   -4.2844   -5.1468   -5.8462 H   0  0  0  0  0  0  0  0  0  0  0  0
   -1.7404   -2.2330   -5.1280 H   0  0  0  0  0  0  0  0  0  0  0  0
   -3.5739   -1.9233   -5.1559 H   0  0  0  0  0  0  0  0  0  0  0  0
   -1.8994   -0.8577   -3.3211 H   0  0  0  0  0  0  0  0  0  0  0  0
   -3.1080   -3.0180   -1.7120 H   0  0  0  0  0  0  0  0  0  0  0  0
   -0.8497   -0.4600   -2.8009 H   0  0  0  0  0  0  0  0  0  0  0  0
    1.4340   -2.1652   -2.4246 H   0  0  0  0  0  0  0  0  0  0  0  0
    0.7728   -1.1733   -3.8441 H   0  0  0  0  0  0  0  0  0  0  0  0
    3.2877   -1.3641   -1.1892 H   0  0  0  0  0  0  0  0  0  0  0  0
    5.1758    0.2499   -1.0134 H   0  0  0  0  0  0  0  0  0  0  0  0
    5.1889    2.3132   -2.4157 H   0  0  0  0  0  0  0  0  0  0  0  0
    3.3137    2.7535   -3.9981 H   0  0  0  0  0  0  0  0  0  0  0  0
    1.4152    1.1499   -4.1665 H   0  0  0  0  0  0  0  0  0  0  0  0
    0.5510   -0.1220   -0.1720 H   0  0  0  0  0  0  0  0  0  0  0  0
    1.2252    1.7010    1.5240 H   0  0  0  0  0  0  0  0  0  0  0  0
    1.6210    1.4854   -0.2061 H   0  0  0  0  0  0  0  0  0  0  0  0
    0.4618    4.0955    2.2764 H   0  0  0  0  0  0  0  0  0  0  0  0
    1.1301    6.4907    2.1277 H   0  0  0  0  0  0  0  0  0  0  0  0
    2.4886    7.2923    0.1941 H   0  0  0  0  0  0  0  0  0  0  0  0
    3.1645    5.6964   -1.5983 H   0  0  0  0  0  0  0  0  0  0  0  0
    2.5007    3.2993   -1.4544 H   0  0  0  0  0  0  0  0  0  0  0  0
   -4.6720   -1.1730   -4.8750 H   0  0  0  0  0  0  0  0  0  0  0  0
   -6.4047   -0.1867   -2.7500 H   0  0  0  0  0  0  0  0  0  0  0  0
   -6.1915    1.9763   -3.5489 H   0  0  0  0  0  0  0  0  0  0  0  0
   -5.2922    1.4132   -4.9983 H   0  0  0  0  0  0  0  0  0  0  0  0
   -7.0885    1.4094   -4.9983 H   0  0  0  0  0  0  0  0  0  0  0  0
  1  2  1  0
  2  3  1  0
  2  4  1  0
  4  5  1  0
  5  6  1  0
  6  7  1  0
  7  8  2  0
  7  9  1  1
  7 10  1  0
 10 11  1  0
 11 12  1  0
 12 13  2  0
 13 14  1  0
 14 15  2  0
 15 16  1  0
 16 17  2  0
 10 18  1  0
 18 19  1  0
 19 20  2  0
 19 21  1  0
 21 22  1  0
 22 23  1  0
 23 24  2  0
 24 25  1  0
 25 26  2  0
 26 27  1  0
 27 28  2  0
  5 29  1  0
 29 30  2  0
 29 31  1  0
 31 32  1  0
 32 33  1  0
 32 34  1  0
 34 35  2  0
 34 36  1  0
 17 12  1  0
 28 23  1  0
  1 37  1  0
  1 38  1  0
  1 39  1  0
  2 40  1  0
  3 41  1  0
  3 42  1  0
  3 43  1  0
  4 44  1  0
  4 45  1  0
  5 46  1  6
  6 47  1  0
 10 48  1  6
 11 49  1  0
 11 50  1  0
 13 51  1  0
 14 52  1  0
 15 53  1  0
 16 54  1  0
 17 55  1  0
 18 56  1  0
 22 57  1  0
 22 58  1  0
 24 59  1  0
 25 60  1  0
 26 61  1  0
 27 62  1  0
 28 63  1  0
 31 64  1  0
 32 65  1  1
 33 66  1  0
 33 67  1  0
 33 68  1  0
M  CHG  2   9  -1  36  -1
M  END
>  <meeko>  (7) 
{"is_sidechain": [false], "free_energy": -8.125, "intermolecular_energy": -15.613, "internal_energy": -2.589}

$$$$
4tmn_ligand
     RDKit          3D

 68 69  0  0  0  0  0  0  0  0999 V2000
   -4.1160   -2.8600   -4.4340 C   0  0  0  0  0  0  0  0  0  0  0  0
   -2.6830   -3.3070   -4.1470 C   0  0  0  0  0  0  0  0  0  0  0  0
   -2.5560   -4.8240   -4.2820 C   0  0  0  0  0  0  0  0  0  0  0  0
   -2.1400   -2.7620   -2.8080 C   0  0  0  0  0  0  0  0  0  0  0  0
   -0.9060   -1.8420   -2.8610 C   0  0  2  0  0  0  0  0  0  0  0  0
   -0.6410   -1.5540   -4.2980 N   0  0  0  0  0  0  0  0  0  0  0  0
   -0.5960    0.1250   -4.7740 P   0  0  2  0  0  5  0  0  0  0  0  0
   -1.7200    0.3710   -5.7450 O   0  0  0  0  0  0  0  0  0  0  0  0
    0.8540    0.3430   -5.1360 O   0  0  0  0  0  0  0  0  0  0  0  0
   -0.9190    1.0000   -3.1650 C   0  0  2  0  0  0  0  0  0  0  0  0
   -2.3060    1.6450   -3.0690 C   0  0  0  0  0  0  0  0  0  0  0  0
   -3.3630    0.8800   -2.3040 C   0  0  0  0  0  0  0  0  0  0  0  0
   -4.5120    0.4080   -2.9570 C   0  0  0  0  0  0  0  0  0  0  0  0
   -5.4910   -0.2960   -2.2550 C   0  0  0  0  0  0  0  0  0  0  0  0
   -5.3290   -0.5420   -0.8920 C   0  0  0  0  0  0  0  0  0  0  0  0
   -4.1870   -0.0860   -0.2360 C   0  0  0  0  0  0  0  0  0  0  0  0
   -3.2100    0.6230   -0.9370 C   0  0  0  0  0  0  0  0  0  0  0  0
    0.1920    1.9270   -2.9740 N   0  0  0  0  0  0  0  0  0  0  0  0
    0.9790    1.9660   -1.8770 C   0  0  0  0  0  0  0  0  0  0  0  0
    0.7950    1.3280   -0.8500 O   0  0  0  0  0  0  0  0  0  0  0  0
    1.9980    2.8300   -2.0890 O   0  0  0  0  0  0  0  0  0  0  0  0
    3.0220    2.3080   -2.9340 C   0  0  0  0  0  0  0  0  0  0  0  0
    3.9780    3.4260   -3.2670 C   0  0  0  0  0  0  0  0  0  0  0  0
    3.7330    4.7320   -2.8180 C   0  0  0  0  0  0  0  0  0  0  0  0
    4.6110    5.7690   -3.1400 C   0  0  0  0  0  0  0  0  0  0  0  0
    5.7380    5.5120   -3.9200 C   0  0  0  0  0  0  0  0  0  0  0  0
    5.9840    4.2200   -4.3810 C   0  0  0  0  0  0  0  0  0  0  0  0
    5.1060    3.1820   -4.0600 C   0  0  0  0  0  0  0  0  0  0  0  0
    0.3330   -2.4560   -2.1890 C   0  0  0  0  0  0  0  0  0  0  0  0
    0.4790   -3.6760   -2.0900 O   0  0  0  0  0  0  0  0  0  0  0  0
    1.2660   -1.5530   -1.7410 N   0  0  0  0  0  0  0  0  0  0  0  0
    2.5080   -1.9140   -1.0340 C   0  0  1  0  0  0  0  0  0  0  0  0
    3.6130   -0.9000   -1.3120 C   0  0  0  0  0  0  0  0  0  0  0  0
    2.3410   -1.9550    0.5200 C   0  0  0  0  0  0  0  0  0  0  0  0
    2.0430   -3.0790    1.0190 O   0  0  0  0  0  0  0  0  0  0  0  0
    2.5190   -0.8430    1.1050 O   0  0  0  0  0  0  0  0  0  0  0  0
   -4.6457   -2.6948   -3.4842 H   0  0  0  0  0  0  0  0  0  0  0  0
   -4.0994   -1.9244   -5.0122 H   0  0  0  0  0  0  0  0  0  0  0  0
   -4.6343   -3.6392   -5.0122 H   0  0  0  0  0  0  0  0  0  0  0  0
   -2.0322   -2.8577   -4.9116 H   0  0  0  0  0  0  0  0  0  0  0  0
   -2.5179   -5.2792   -3.2814 H   0  0  0  0  0  0  0  0  0  0  0  0
   -3.4244   -5.2172   -4.8309 H   0  0  0  0  0  0  0  0  0  0  0  0
   -1.6343   -5.0674   -4.8309 H   0  0  0  0  0  0  0  0  0  0  0  0
   -2.9525   -2.1957   -2.3294 H   0  0  0  0  0  0  0  0  0  0  0  0
   -1.8006   -3.6536   -2.2604 H   0  0  0  0  0  0  0  0  0  0  0  0
   -1.1152   -0.9217   -2.2959 H   0  0  0  0  0  0  0  0  0  0  0  0
    0.1830   -2.0280   -4.6760 H   0  0  0  0  0  0  0  0  0  0  0  0
   -0.9559    0.2776   -2.3363 H   0  0  0  0  0  0  0  0  0  0  0  0
   -2.1849    2.6233   -2.5810 H   0  0  0  0  0  0  0  0  0  0  0  0
   -2.6752    1.6884   -4.1043 H   0  0  0  0  0  0  0  0  0  0  0  0
   -4.6421    0.5949   -4.0332 H   0  0  0  0  0  0  0  0  0  0  0  0
   -6.3899   -0.6567   -2.7764 H   0  0  0  0  0  0  0  0  0  0  0  0
   -6.1006   -1.0946   -0.3359 H   0  0  0  0  0  0  0  0  0  0  0  0
   -4.0551   -0.2855    0.8377 H   0  0  0  0  0  0  0  0  0  0  0  0
   -2.3133    0.9823   -0.4109 H   0  0  0  0  0  0  0  0  0  0  0  0
    0.4030    2.5280   -3.7670 H   0  0  0  0  0  0  0  0  0  0  0  0
    3.5594    1.5022   -2.4126 H   0  0  0  0  0  0  0  0  0  0  0  0
    2.5811    1.8998   -3.8554 H   0  0  0  0  0  0  0  0  0  0  0  0
    2.8422    4.9410   -2.2074 H   0  0  0  0  0  0  0  0  0  0  0  0
    4.4136    6.7889   -2.7783 H   0  0  0  0  0  0  0  0  0  0  0  0
    6.4318    6.3278   -4.1711 H   0  0  0  0  0  0  0  0  0  0  0  0
    6.8712    4.0172   -4.9988 H   0  0  0  0  0  0  0  0  0  0  0  0
    5.3021    2.1658   -4.4328 H   0  0  0  0  0  0  0  0  0  0  0  0
    1.1000   -0.5490   -1.7870 H   0  0  0  0  0  0  0  0  0  0  0  0
    2.7630   -2.9156   -1.4104 H   0  0  0  0  0  0  0  0  0  0  0  0
    4.0179   -0.5284   -0.3591 H   0  0  0  0  0  0  0  0  0  0  0  0
    4.4163   -1.3819   -1.8887 H   0  0  0  0  0  0  0  0  0  0  0  0
    3.2017   -0.0584   -1.8887 H   0  0  0  0  0  0  0  0  0  0  0  0
  1  2  1  0
  2  3  1  0
  2  4  1  0
  4  5  1  0
  5  6  1  0
  6  7  1  0
  7  8  2  0
  7  9  1  6
  7 10  1  0
 10 11  1  0
 11 12  1  0
 12 13  2  0
 13 14  1  0
 14 15  2  0
 15 16  1  0
 16 17  2  0
 10 18  1  0
 18 19  1  0
 19 20  2  0
 19 21  1  0
 21 22  1  0
 22 23  1  0
 23 24  2  0
 24 25  1  0
 25 26  2  0
 26 27  1  0
 27 28  2  0
  5 29  1  0
 29 30  2  0
 29 31  1  0
 31 32  1  0
 32 33  1  0
 32 34  1  0
 34 35  2  0
 34 36  1  0
 17 12  1  0
 28 23  1  0
  1 37  1  0
  1 38  1  0
  1 39  1  0
  2 40  1  0
  3 41  1  0
  3 42  1  0
  3 43  1  0
  4 44  1  0
  4 45  1  0
  5 46  1  1
  6 47  1  0
 10 48  1  1
 11 49  1  0
 11 50  1  0
 13 51  1  0
 14 52  1  0
 15 53  1  0
 16 54  1  0
 17 55  1  0
 18 56  1  0
 22 57  1  0
 22 58  1  0
 24 59  1  0
 25 60  1  0
 26 61  1  0
 27 62  1  0
 28 63  1  0
 31 64  1  0
 32 65  1  6
 33 66  1  0
 33 67  1  0
 33 68  1  0
M  CHG  2   9  -1  36  -1
M  END
>  <meeko>  (8) 
{"is_sidechain": [false], "free_energy": -8.014, "intermolecular_energy": -14.548, "internal_energy": -3.453}

$$$$
4tmn_ligand
     RDKit          3D

 68 69  0  0  0  0  0  0  0  0999 V2000
    3.2440    6.6570   -1.0210 C   0  0  0  0  0  0  0  0  0  0  0  0
    2.0940    5.8020   -0.4910 C   0  0  0  0  0  0  0  0  0  0  0  0
    1.7830    6.1610    0.9610 C   0  0  0  0  0  0  0  0  0  0  0  0
    2.3150    4.2900   -0.7160 C   0  0  0  0  0  0  0  0  0  0  0  0
    2.3060    3.7760   -2.1680 C   0  0  2  0  0  0  0  0  0  0  0  0
    1.3980    2.5960   -2.2050 N   0  0  0  0  0  0  0  0  0  0  0  0
    0.9040    2.0260   -3.7800 P   0  0  2  0  0  5  0  0  0  0  0  0
    1.8980    0.9940   -4.2410 O   0  0  0  0  0  0  0  0  0  0  0  0
    0.6430    3.3030   -4.5430 O   0  0  0  0  0  0  0  0  0  0  0  0
   -0.7390    1.2340   -3.4150 C   0  0  2  0  0  0  0  0  0  0  0  0
   -1.5290    1.9170   -2.2930 C   0  0  0  0  0  0  0  0  0  0  0  0
   -2.6580    1.1250   -1.6730 C   0  0  0  0  0  0  0  0  0  0  0  0
   -3.6620    0.5680   -2.4780 C   0  0  0  0  0  0  0  0  0  0  0  0
   -4.7070   -0.1620   -1.9100 C   0  0  0  0  0  0  0  0  0  0  0  0
   -4.7560   -0.3470   -0.5290 C   0  0  0  0  0  0  0  0  0  0  0  0
   -3.7590    0.1950    0.2800 C   0  0  0  0  0  0  0  0  0  0  0  0
   -2.7160    0.9290   -0.2880 C   0  0  0  0  0  0  0  0  0  0  0  0
   -0.4690   -0.1820   -3.1900 N   0  0  0  0  0  0  0  0  0  0  0  0
    0.0940   -0.6860   -2.0720 C   0  0  0  0  0  0  0  0  0  0  0  0
    0.5680   -0.0280   -1.1570 O   0  0  0  0  0  0  0  0  0  0  0  0
    0.0600   -2.0380   -2.1250 O   0  0  0  0  0  0  0  0  0  0  0  0
   -1.1570   -2.5980   -1.6340 C   0  0  0  0  0  0  0  0  0  0  0  0
   -1.7490   -3.4660   -2.7170 C   0  0  0  0  0  0  0  0  0  0  0  0
   -2.9060   -3.0630   -3.4010 C   0  0  0  0  0  0  0  0  0  0  0  0
   -3.4610   -3.8740   -4.3930 C   0  0  0  0  0  0  0  0  0  0  0  0
   -2.8710   -5.0980   -4.7050 C   0  0  0  0  0  0  0  0  0  0  0  0
   -1.7290   -5.5130   -4.0220 C   0  0  0  0  0  0  0  0  0  0  0  0
   -1.1720   -4.7030   -3.0300 C   0  0  0  0  0  0  0  0  0  0  0  0
    3.7060    3.4050   -2.6840 C   0  0  0  0  0  0  0  0  0  0  0  0
    4.2700    2.3650   -2.3360 O   0  0  0  0  0  0  0  0  0  0  0  0
    4.2580    4.2940   -3.5740 N   0  0  0  0  0  0  0  0  0  0  0  0
    5.6020    4.1600   -4.1650 C   0  0  1  0  0  0  0  0  0  0  0  0
    5.5340    3.5160   -5.5460 C   0  0  0  0  0  0  0  0  0  0  0  0
    6.3250    5.5320   -4.3640 C   0  0  0  0  0  0  0  0  0  0  0  0
    5.7060    6.5540   -3.9480 O   0  0  0  0  0  0  0  0  0  0  0  0
    7.4560    5.4600   -4.9340 O   0  0  0  0  0  0  0  0  0  0  0  0
    3.8087    7.0768   -0.1755 H   0  0  0  0  0  0  0  0  0  0  0  0
    3.9115    6.0341   -1.6345 H   0  0  0  0  0  0  0  0  0  0  0  0
    2.8398    7.4756   -1.6345 H   0  0  0  0  0  0  0  0  0  0  0  0
    1.1984    6.0405   -1.0834 H   0  0  0  0  0  0  0  0  0  0  0  0
    2.3538    5.5021    1.6319 H   0  0  0  0  0  0  0  0  0  0  0  0
    2.0645    7.2078    1.1483 H   0  0  0  0  0  0  0  0  0  0  0  0
    0.7068    6.0316    1.1483 H   0  0  0  0  0  0  0  0  0  0  0  0
    3.2922    4.0321   -0.2817 H   0  0  0  0  0  0  0  0  0  0  0  0
    1.4466    3.8076   -0.2437 H   0  0  0  0  0  0  0  0  0  0  0  0
    1.9548    4.5774   -2.8346 H   0  0  0  0  0  0  0  0  0  0  0  0
    1.7210    1.8000   -1.6500 H   0  0  0  0  0  0  0  0  0  0  0  0
   -1.4226    1.3566   -4.2680 H   0  0  0  0  0  0  0  0  0  0  0  0
   -0.8189    2.1674   -1.4911 H   0  0  0  0  0  0  0  0  0  0  0  0
   -2.0127    2.7831   -2.7683 H   0  0  0  0  0  0  0  0  0  0  0  0
   -3.6255    0.7079   -3.5685 H   0  0  0  0  0  0  0  0  0  0  0  0
   -5.4912   -0.5910   -2.5512 H   0  0  0  0  0  0  0  0  0  0  0  0
   -5.5801   -0.9198   -0.0787 H   0  0  0  0  0  0  0  0  0  0  0  0
   -3.7939    0.0441    1.3690 H   0  0  0  0  0  0  0  0  0  0  0  0
   -1.9343    1.3563    0.3572 H   0  0  0  0  0  0  0  0  0  0  0  0
   -0.7990   -0.8120   -3.9170 H   0  0  0  0  0  0  0  0  0  0  0  0
   -0.9530   -3.2057   -0.7401 H   0  0  0  0  0  0  0  0  0  0  0  0
   -1.8607   -1.7973   -1.3626 H   0  0  0  0  0  0  0  0  0  0  0  0
   -3.3792   -2.1012   -3.1540 H   0  0  0  0  0  0  0  0  0  0  0  0
   -4.3644   -3.5469   -4.9287 H   0  0  0  0  0  0  0  0  0  0  0  0
   -3.3060   -5.7353   -5.4890 H   0  0  0  0  0  0  0  0  0  0  0  0
   -1.2655   -6.4806   -4.2649 H   0  0  0  0  0  0  0  0  0  0  0  0
   -0.2740   -5.0390   -2.4909 H   0  0  0  0  0  0  0  0  0  0  0  0
    3.7960    5.1710   -3.8050 H   0  0  0  0  0  0  0  0  0  0  0  0
    6.1619    3.5408   -3.4487 H   0  0  0  0  0  0  0  0  0  0  0  0
    5.4191    2.4274   -5.4377 H   0  0  0  0  0  0  0  0  0  0  0  0
    4.6738    3.9224   -6.0981 H   0  0  0  0  0  0  0  0  0  0  0  0
    6.4601    3.7338   -6.0981 H   0  0  0  0  0  0  0  0  0  0  0  0
  1  2  1  0
  2  3  1  0
  2  4  1  0
  4  5  1  0
  5  6  1  0
  6  7  1  0
  7  8  2  0
  7  9  1  6
  7 10  1  0
 10 11  1  0
 11 12  1  0
 12 13  2  0
 13 14  1  0
 14 15  2  0
 15 16  1  0
 16 17  2  0
 10 18  1  0
 18 19  1  0
 19 20  2  0
 19 21  1  0
 21 22  1  0
 22 23  1  0
 23 24  2  0
 24 25  1  0
 25 26  2  0
 26 27  1  0
 27 28  2  0
  5 29  1  0
 29 30  2  0
 29 31  1  0
 31 32  1  0
 32 33  1  0
 32 34  1  0
 34 35  2  0
 34 36  1  0
 17 12  1  0
 28 23  1  0
  1 37  1  0
  1 38  1  0
  1 39  1  0
  2 40  1  0
  3 41  1  0
  3 42  1  0
  3 43  1  0
  4 44  1  0
  4 45  1  0
  5 46  1  6
  6 47  1  0
 10 48  1  6
 11 49  1  0
 11 50  1  0
 13 51  1  0
 14 52  1  0
 15 53  1  0
 16 54  1  0
 17 55  1  0
 18 56  1  0
 22 57  1  0
 22 58  1  0
 24 59  1  0
 25 60  1  0
 26 61  1  0
 27 62  1  0
 28 63  1  0
 31 64  1  0
 32 65  1  1
 33 66  1  0
 33 67  1  0
 33 68  1  0
M  CHG  2   9  -1  36  -1
M  END
>  <meeko>  (9) 
{"is_sidechain": [false], "free_energy": -8.002, "intermolecular_energy": -16.208, "internal_energy": -1.771}

$$$$
