3ary_ligand
     RDKit          3D

 27 29  0  0  0  0  0  0  0  0999 V2000
    1.1120   -6.1160  -10.4320 S   0  0  0  0  0  0  0  0  0  0  0  0
    2.3810   -6.4200   -9.1930 C   0  0  0  0  0  0  0  0  0  0  0  0
    3.2160   -6.6170   -8.3900 N   0  0  0  0  0  0  0  0  0  0  0  0
    4.0090   -7.7300   -8.7140 C   0  0  0  0  0  0  0  0  0  0  0  0
    4.4140   -7.9490  -10.0410 C   0  0  0  0  0  0  0  0  0  0  0  0
    5.1790   -9.0650  -10.4050 C   0  0  0  0  0  0  0  0  0  0  0  0
    5.4990   -9.9530   -9.3830 C   0  0  0  0  0  0  0  0  0  0  0  0
    6.2270  -11.0930   -9.5250 O   0  0  0  0  0  0  0  0  0  0  0  0
    6.3100  -11.6870   -8.2940 C   0  0  0  0  0  0  0  0  0  0  0  0
    7.0100  -12.9210   -8.0720 C   0  0  0  0  0  0  0  0  0  0  0  0
    6.9230  -13.5520   -6.9220 N   0  0  0  0  0  0  0  0  0  0  0  0
    7.7260  -14.7770   -6.9540 C   0  0  0  0  0  0  0  0  0  0  0  0
    8.3220  -14.7610   -8.3730 C   0  0  0  0  0  0  0  0  0  0  0  0
    7.7760  -13.5260   -8.9540 N   0  0  0  0  0  0  0  0  0  0  0  0
    5.6320  -10.9190   -7.3640 C   0  0  0  0  0  0  0  0  0  0  0  0
    5.1070   -9.7960   -8.0610 C   0  0  0  0  0  0  0  0  0  0  0  0
    4.3400   -8.6680   -7.7170 C   0  0  0  0  0  0  0  0  0  0  0  0
    4.1226   -7.2245  -10.8157 H   0  0  0  0  0  0  0  0  0  0  0  0
    5.5083   -9.2299  -11.4415 H   0  0  0  0  0  0  0  0  0  0  0  0
    6.3510  -13.1530   -6.1820 H   0  0  0  0  0  0  0  0  0  0  0  0
    8.5185  -14.7506   -6.1916 H   0  0  0  0  0  0  0  0  0  0  0  0
    7.1427  -15.6843   -6.7382 H   0  0  0  0  0  0  0  0  0  0  0  0
    9.4210  -14.7282   -8.3387 H   0  0  0  0  0  0  0  0  0  0  0  0
    8.0707  -15.6593   -8.9561 H   0  0  0  0  0  0  0  0  0  0  0  0
    7.9240  -13.1410   -9.8780 H   0  0  0  0  0  0  0  0  0  0  0  0
    5.5204  -11.1355   -6.2913 H   0  0  0  0  0  0  0  0  0  0  0  0
    4.0025   -8.5202   -6.6806 H   0  0  0  0  0  0  0  0  0  0  0  0
  1  2  2  0
  2  3  2  0
  3  4  1  0
  4  5  2  0
  5  6  1  0
  6  7  2  0
  7  8  1  0
  8  9  1  0
  9 10  1  0
 10 11  2  0
 11 12  1  0
 12 13  1  0
 13 14  1  0
  9 15  2  0
 15 16  1  0
 16 17  2  0
 17  4  1  0
 16  7  1  0
 14 10  1  0
  5 18  1  0
  6 19  1  0
 11 20  1  0
 12 21  1  0
 12 22  1  0
 13 23  1  0
 13 24  1  0
 14 25  1  0
 15 26  1  0
 17 27  1  0
M  CHG  1  11   1
M  END
>  <meeko>  (1) 
{"is_sidechain": [false], "free_energy": -7.628, "intermolecular_energy": -8.52, "internal_energy": -0.225}

$$$$
3ary_ligand
     RDKit          3D

 27 29  0  0  0  0  0  0  0  0999 V2000
    2.5000   -7.2020  -11.8170 S   0  0  0  0  0  0  0  0  0  0  0  0
    3.4180   -8.1060  -13.0730 C   0  0  0  0  0  0  0  0  0  0  0  0
    4.0130   -8.7050  -13.8910 N   0  0  0  0  0  0  0  0  0  0  0  0
    4.7210   -9.7880  -13.3450 C   0  0  0  0  0  0  0  0  0  0  0  0
    5.0980  -10.8690  -14.1590 C   0  0  0  0  0  0  0  0  0  0  0  0
    5.7770  -11.9810  -13.6420 C   0  0  0  0  0  0  0  0  0  0  0  0
    6.0400  -11.9620  -12.2760 C   0  0  0  0  0  0  0  0  0  0  0  0
    6.6830  -12.9380  -11.5810 O   0  0  0  0  0  0  0  0  0  0  0  0
    6.7330  -12.5480  -10.2700 C   0  0  0  0  0  0  0  0  0  0  0  0
    7.3430  -13.3470   -9.2440 C   0  0  0  0  0  0  0  0  0  0  0  0
    6.7480  -13.5340   -8.0870 N   0  0  0  0  0  0  0  0  0  0  0  0
    7.5740  -14.3810   -7.2230 C   0  0  0  0  0  0  0  0  0  0  0  0
    8.8050  -14.6720   -8.1010 C   0  0  0  0  0  0  0  0  0  0  0  0
    8.5090  -13.9490   -9.3460 N   0  0  0  0  0  0  0  0  0  0  0  0
    6.1200  -11.3160  -10.1300 C   0  0  0  0  0  0  0  0  0  0  0  0
    5.6720  -10.9300  -11.4240 C   0  0  0  0  0  0  0  0  0  0  0  0
    4.9910   -9.8230  -11.9630 C   0  0  0  0  0  0  0  0  0  0  0  0
    4.8538  -10.8421  -15.2312 H   0  0  0  0  0  0  0  0  0  0  0  0
    6.0848  -12.8219  -14.2808 H   0  0  0  0  0  0  0  0  0  0  0  0
    5.8420  -13.1040   -7.9220 H   0  0  0  0  0  0  0  0  0  0  0  0
    7.8604  -13.8486   -6.3040 H   0  0  0  0  0  0  0  0  0  0  0  0
    7.0570  -15.2911   -6.8847 H   0  0  0  0  0  0  0  0  0  0  0  0
    9.7234  -14.2895   -7.6317 H   0  0  0  0  0  0  0  0  0  0  0  0
    8.9784  -15.7469   -8.2576 H   0  0  0  0  0  0  0  0  0  0  0  0
    9.0670  -13.8810  -10.1880 H   0  0  0  0  0  0  0  0  0  0  0  0
    6.0016  -10.7446   -9.1975 H   0  0  0  0  0  0  0  0  0  0  0  0
    4.6732   -8.9946  -11.3128 H   0  0  0  0  0  0  0  0  0  0  0  0
  1  2  2  0
  2  3  2  0
  3  4  1  0
  4  5  2  0
  5  6  1  0
  6  7  2  0
  7  8  1  0
  8  9  1  0
  9 10  1  0
 10 11  2  0
 11 12  1  0
 12 13  1  0
 13 14  1  0
  9 15  2  0
 15 16  1  0
 16 17  2  0
 17  4  1  0
 16  7  1  0
 14 10  1  0
  5 18  1  0
  6 19  1  0
 11 20  1  0
 12 21  1  0
 12 22  1  0
 13 23  1  0
 13 24  1  0
 14 25  1  0
 15 26  1  0
 17 27  1  0
M  CHG  1  11   1
M  END
>  <meeko>  (2) 
{"is_sidechain": [false], "free_energy": -7.601, "intermolecular_energy": -8.557, "internal_energy": -0.157}

$$$$
3ary_ligand
     RDKit          3D

 27 29  0  0  0  0  0  0  0  0999 V2000
    6.7930  -10.9700  -17.2740 S   0  0  0  0  0  0  0  0  0  0  0  0
    5.4850  -10.5170  -16.1250 C   0  0  0  0  0  0  0  0  0  0  0  0
    4.6370  -10.2160  -15.3690 N   0  0  0  0  0  0  0  0  0  0  0  0
    4.9840  -10.5070  -14.0400 C   0  0  0  0  0  0  0  0  0  0  0  0
    4.6970   -9.5880  -13.0160 C   0  0  0  0  0  0  0  0  0  0  0  0
    5.0560   -9.8310  -11.6840 C   0  0  0  0  0  0  0  0  0  0  0  0
    5.7280  -11.0230  -11.4340 C   0  0  0  0  0  0  0  0  0  0  0  0
    6.1640  -11.4450  -10.2170 O   0  0  0  0  0  0  0  0  0  0  0  0
    6.7810  -12.6540  -10.3960 C   0  0  0  0  0  0  0  0  0  0  0  0
    7.3680  -13.3940   -9.3130 C   0  0  0  0  0  0  0  0  0  0  0  0
    6.7130  -13.5840   -8.1890 N   0  0  0  0  0  0  0  0  0  0  0  0
    7.5270  -14.3640   -7.2540 C   0  0  0  0  0  0  0  0  0  0  0  0
    8.8220  -14.6120   -8.0480 C   0  0  0  0  0  0  0  0  0  0  0  0
    8.5670  -13.9360   -9.3290 N   0  0  0  0  0  0  0  0  0  0  0  0
    6.7360  -13.0040  -11.7330 C   0  0  0  0  0  0  0  0  0  0  0  0
    6.0550  -11.9540  -12.4090 C   0  0  0  0  0  0  0  0  0  0  0  0
    5.6850  -11.6910  -13.7420 C   0  0  0  0  0  0  0  0  0  0  0  0
    4.1762   -8.6523  -13.2675 H   0  0  0  0  0  0  0  0  0  0  0  0
    4.8195   -9.1185  -10.8800 H   0  0  0  0  0  0  0  0  0  0  0  0
    5.7770  -13.1990   -8.0910 H   0  0  0  0  0  0  0  0  0  0  0  0
    7.7294  -13.7941   -6.3351 H   0  0  0  0  0  0  0  0  0  0  0  0
    7.0375  -15.2913   -6.9215 H   0  0  0  0  0  0  0  0  0  0  0  0
    9.6894  -14.1708   -7.5352 H   0  0  0  0  0  0  0  0  0  0  0  0
    9.0584  -15.6800   -8.1640 H   0  0  0  0  0  0  0  0  0  0  0  0
    9.1710  -13.8600  -10.1360 H   0  0  0  0  0  0  0  0  0  0  0  0
    7.1474  -13.9179  -12.1863 H   0  0  0  0  0  0  0  0  0  0  0  0
    5.9407  -12.4024  -14.5411 H   0  0  0  0  0  0  0  0  0  0  0  0
  1  2  2  0
  2  3  2  0
  3  4  1  0
  4  5  2  0
  5  6  1  0
  6  7  2  0
  7  8  1  0
  8  9  1  0
  9 10  1  0
 10 11  2  0
 11 12  1  0
 12 13  1  0
 13 14  1  0
  9 15  2  0
 15 16  1  0
 16 17  2  0
 17  4  1  0
 16  7  1  0
 14 10  1  0
  5 18  1  0
  6 19  1  0
 11 20  1  0
 12 21  1  0
 12 22  1  0
 13 23  1  0
 13 24  1  0
 14 25  1  0
 15 26  1  0
 17 27  1  0
M  CHG  1  11   1
M  END
>  <meeko>  (3) 
{"is_sidechain": [false], "free_energy": -7.418, "intermolecular_energy": -8.295, "internal_energy": -0.215}

$$$$
3ary_ligand
     RDKit          3D

 27 29  0  0  0  0  0  0  0  0999 V2000
    5.4900  -10.2140  -16.6150 S   0  0  0  0  0  0  0  0  0  0  0  0
    5.7850  -11.2460  -15.1710 C   0  0  0  0  0  0  0  0  0  0  0  0
    5.9690  -11.9170  -14.2240 N   0  0  0  0  0  0  0  0  0  0  0  0
    5.8130  -11.2000  -13.0270 C   0  0  0  0  0  0  0  0  0  0  0  0
    6.5030  -11.5960  -11.8700 C   0  0  0  0  0  0  0  0  0  0  0  0
    6.3480  -10.9230  -10.6500 C   0  0  0  0  0  0  0  0  0  0  0  0
    5.4600   -9.8530  -10.6460 C   0  0  0  0  0  0  0  0  0  0  0  0
    5.1660   -9.0730   -9.5710 O   0  0  0  0  0  0  0  0  0  0  0  0
    4.2460   -8.1430   -9.9740 C   0  0  0  0  0  0  0  0  0  0  0  0
    3.7050   -7.1500   -9.0870 C   0  0  0  0  0  0  0  0  0  0  0  0
    2.9320   -6.1880   -9.5390 N   0  0  0  0  0  0  0  0  0  0  0  0
    2.5160   -5.3140   -8.4400 C   0  0  0  0  0  0  0  0  0  0  0  0
    3.2020   -5.9490   -7.2160 C   0  0  0  0  0  0  0  0  0  0  0  0
    3.9160   -7.0990   -7.7890 N   0  0  0  0  0  0  0  0  0  0  0  0
    3.9550   -8.3300  -11.3130 C   0  0  0  0  0  0  0  0  0  0  0  0
    4.7380   -9.4330  -11.7540 C   0  0  0  0  0  0  0  0  0  0  0  0
    4.9080  -10.1220  -12.9690 C   0  0  0  0  0  0  0  0  0  0  0  0
    7.1841  -12.4582  -11.9223 H   0  0  0  0  0  0  0  0  0  0  0  0
    6.8981  -11.2245   -9.7464 H   0  0  0  0  0  0  0  0  0  0  0  0
    2.7180   -6.1510  -10.5320 H   0  0  0  0  0  0  0  0  0  0  0  0
    2.8664   -4.2836   -8.5996 H   0  0  0  0  0  0  0  0  0  0  0  0
    1.4236   -5.2386   -8.3349 H   0  0  0  0  0  0  0  0  0  0  0  0
    3.9034   -5.2433   -6.7469 H   0  0  0  0  0  0  0  0  0  0  0  0
    2.4935   -6.2327   -6.4238 H   0  0  0  0  0  0  0  0  0  0  0  0
    4.4950   -7.7830   -7.3210 H   0  0  0  0  0  0  0  0  0  0  0  0
    3.2532   -7.7395  -11.9203 H   0  0  0  0  0  0  0  0  0  0  0  0
    4.3411   -9.8225  -13.8628 H   0  0  0  0  0  0  0  0  0  0  0  0
  1  2  2  0
  2  3  2  0
  3  4  1  0
  4  5  2  0
  5  6  1  0
  6  7  2  0
  7  8  1  0
  8  9  1  0
  9 10  1  0
 10 11  2  0
 11 12  1  0
 12 13  1  0
 13 14  1  0
  9 15  2  0
 15 16  1  0
 16 17  2  0
 17  4  1  0
 16  7  1  0
 14 10  1  0
  5 18  1  0
  6 19  1  0
 11 20  1  0
 12 21  1  0
 12 22  1  0
 13 23  1  0
 13 24  1  0
 14 25  1  0
 15 26  1  0
 17 27  1  0
M  CHG  1  11   1
M  END
>  <meeko>  (4) 
{"is_sidechain": [false], "free_energy": -7.396, "intermolecular_energy": -8.29, "internal_energy": -0.196}

$$$$
3ary_ligand
     RDKit          3D

 27 29  0  0  0  0  0  0  0  0999 V2000
    7.4210  -14.6340   -8.8980 S   0  0  0  0  0  0  0  0  0  0  0  0
    7.5900  -13.6670  -10.4060 C   0  0  0  0  0  0  0  0  0  0  0  0
    7.7030  -13.0280  -11.3850 N   0  0  0  0  0  0  0  0  0  0  0  0
    6.7940  -11.9580  -11.4270 C   0  0  0  0  0  0  0  0  0  0  0  0
    6.1420  -11.6300  -12.6270 C   0  0  0  0  0  0  0  0  0  0  0  0
    5.2530  -10.5500  -12.7130 C   0  0  0  0  0  0  0  0  0  0  0  0
    5.0670   -9.8110  -11.5490 C   0  0  0  0  0  0  0  0  0  0  0  0
    4.2520   -8.7290  -11.4220 O   0  0  0  0  0  0  0  0  0  0  0  0
    4.3570   -8.2830  -10.1310 C   0  0  0  0  0  0  0  0  0  0  0  0
    3.6300   -7.1450   -9.6410 C   0  0  0  0  0  0  0  0  0  0  0  0
    2.6790   -6.5890  -10.3580 N   0  0  0  0  0  0  0  0  0  0  0  0
    2.0990   -5.4540   -9.6370 C   0  0  0  0  0  0  0  0  0  0  0  0
    2.9010   -5.4340   -8.3230 C   0  0  0  0  0  0  0  0  0  0  0  0
    3.8290   -6.5630   -8.4780 N   0  0  0  0  0  0  0  0  0  0  0  0
    5.2400   -9.0870   -9.4340 C   0  0  0  0  0  0  0  0  0  0  0  0
    5.7010  -10.0780  -10.3440 C   0  0  0  0  0  0  0  0  0  0  0  0
    6.5900  -11.1670  -10.2790 C   0  0  0  0  0  0  0  0  0  0  0  0
    6.3344  -12.2373  -13.5237 H   0  0  0  0  0  0  0  0  0  0  0  0
    4.7313  -10.3005  -13.6487 H   0  0  0  0  0  0  0  0  0  0  0  0
    2.4590   -6.9750  -11.2720 H   0  0  0  0  0  0  0  0  0  0  0  0
    2.2353   -4.5176  -10.1979 H   0  0  0  0  0  0  0  0  0  0  0  0
    1.0140   -5.5470   -9.4819 H   0  0  0  0  0  0  0  0  0  0  0  0
    3.4482   -4.4865   -8.2094 H   0  0  0  0  0  0  0  0  0  0  0  0
    2.2657   -5.5177   -7.4289 H   0  0  0  0  0  0  0  0  0  0  0  0
    4.5340   -6.8970   -7.8340 H   0  0  0  0  0  0  0  0  0  0  0  0
    5.5302   -8.9806   -8.3783 H   0  0  0  0  0  0  0  0  0  0  0  0
    7.1194  -11.3980   -9.3429 H   0  0  0  0  0  0  0  0  0  0  0  0
  1  2  2  0
  2  3  2  0
  3  4  1  0
  4  5  2  0
  5  6  1  0
  6  7  2  0
  7  8  1  0
  8  9  1  0
  9 10  1  0
 10 11  2  0
 11 12  1  0
 12 13  1  0
 13 14  1  0
  9 15  2  0
 15 16  1  0
 16 17  2  0
 17  4  1  0
 16  7  1  0
 14 10  1  0
  5 18  1  0
  6 19  1  0
 11 20  1  0
 12 21  1  0
 12 22  1  0
 13 23  1  0
 13 24  1  0
 14 25  1  0
 15 26  1  0
 17 27  1  0
M  CHG  1  11   1
M  END
>  <meeko>  (5) 
{"is_sidechain": [false], "free_energy": -7.349, "intermolecular_energy": -8.201, "internal_energy": -0.232}

$$$$
3ary_ligand
     RDKit          3D

 27 29  0  0  0  0  0  0  0  0999 V2000
    7.6220  -15.6830  -12.6870 S   0  0  0  0  0  0  0  0  0  0  0  0
    7.6180  -14.2920  -13.8290 C   0  0  0  0  0  0  0  0  0  0  0  0
    7.6190  -13.3780  -14.5660 N   0  0  0  0  0  0  0  0  0  0  0  0
    6.7630  -12.3500  -14.1380 C   0  0  0  0  0  0  0  0  0  0  0  0
    5.9720  -11.6550  -15.0670 C   0  0  0  0  0  0  0  0  0  0  0  0
    5.1300  -10.6040  -14.6790 C   0  0  0  0  0  0  0  0  0  0  0  0
    5.1350  -10.2760  -13.3270 C   0  0  0  0  0  0  0  0  0  0  0  0
    4.3960   -9.2910  -12.7490 O   0  0  0  0  0  0  0  0  0  0  0  0
    4.6920   -9.2830  -11.4120 C   0  0  0  0  0  0  0  0  0  0  0  0
    4.0910   -8.3620  -10.4890 C   0  0  0  0  0  0  0  0  0  0  0  0
    2.8390   -7.9850  -10.6260 N   0  0  0  0  0  0  0  0  0  0  0  0
    2.4720   -7.0480   -9.5620 C   0  0  0  0  0  0  0  0  0  0  0  0
    3.7700   -6.9310   -8.7430 C   0  0  0  0  0  0  0  0  0  0  0  0
    4.6990   -7.8200   -9.4550 N   0  0  0  0  0  0  0  0  0  0  0  0
    5.6230  -10.2690  -11.1380 C   0  0  0  0  0  0  0  0  0  0  0  0
    5.9120  -10.9160  -12.3720 C   0  0  0  0  0  0  0  0  0  0  0  0
    6.7500  -11.9690  -12.7820 C   0  0  0  0  0  0  0  0  0  0  0  0
    6.0144  -11.9432  -16.1277 H   0  0  0  0  0  0  0  0  0  0  0  0
    4.4997  -10.0678  -15.4037 H   0  0  0  0  0  0  0  0  0  0  0  0
    2.2940   -8.3560  -11.4000 H   0  0  0  0  0  0  0  0  0  0  0  0
    2.1772   -6.0731   -9.9776 H   0  0  0  0  0  0  0  0  0  0  0  0
    1.6111   -7.3841   -8.9654 H   0  0  0  0  0  0  0  0  0  0  0  0
    4.1410   -5.8955   -8.7380 H   0  0  0  0  0  0  0  0  0  0  0  0
    3.6382   -7.2033   -7.6854 H   0  0  0  0  0  0  0  0  0  0  0  0
    5.6650   -8.0290   -9.2420 H   0  0  0  0  0  0  0  0  0  0  0  0
    6.0564  -10.5070  -10.1554 H   0  0  0  0  0  0  0  0  0  0  0  0
    7.3878  -12.4889  -12.0520 H   0  0  0  0  0  0  0  0  0  0  0  0
  1  2  2  0
  2  3  2  0
  3  4  1  0
  4  5  2  0
  5  6  1  0
  6  7  2  0
  7  8  1  0
  8  9  1  0
  9 10  1  0
 10 11  2  0
 11 12  1  0
 12 13  1  0
 13 14  1  0
  9 15  2  0
 15 16  1  0
 16 17  2  0
 17  4  1  0
 16  7  1  0
 14 10  1  0
  5 18  1  0
  6 19  1  0
 11 20  1  0
 12 21  1  0
 12 22  1  0
 13 23  1  0
 13 24  1  0
 14 25  1  0
 15 26  1  0
 17 27  1  0
M  CHG  1  11   1
M  END
>  <meeko>  (6) 
{"is_sidechain": [false], "free_energy": -7.25, "intermolecular_energy": -8.094, "internal_energy": -0.228}

$$$$
3ary_ligand
     RDKit          3D

 27 29  0  0  0  0  0  0  0  0999 V2000
    2.0590   -7.1800   -8.7840 S   0  0  0  0  0  0  0  0  0  0  0  0
    2.9350   -7.4600  -10.3300 C   0  0  0  0  0  0  0  0  0  0  0  0
    3.5020   -7.6510  -11.3410 N   0  0  0  0  0  0  0  0  0  0  0  0
    4.3180   -8.7930  -11.2830 C   0  0  0  0  0  0  0  0  0  0  0  0
    5.1530   -9.0090  -10.1740 C   0  0  0  0  0  0  0  0  0  0  0  0
    6.0030  -10.1210  -10.0950 C   0  0  0  0  0  0  0  0  0  0  0  0
    5.9880  -10.9860  -11.1850 C   0  0  0  0  0  0  0  0  0  0  0  0
    6.7360  -12.1150  -11.3070 O   0  0  0  0  0  0  0  0  0  0  0  0
    6.4400  -12.6770  -12.5210 C   0  0  0  0  0  0  0  0  0  0  0  0
    7.0540  -13.8890  -12.9860 C   0  0  0  0  0  0  0  0  0  0  0  0
    7.6030  -13.9560  -14.1790 N   0  0  0  0  0  0  0  0  0  0  0  0
    8.1550  -15.2930  -14.4080 C   0  0  0  0  0  0  0  0  0  0  0  0
    7.8260  -16.0310  -13.0980 C   0  0  0  0  0  0  0  0  0  0  0  0
    7.1310  -15.0100  -12.3020 N   0  0  0  0  0  0  0  0  0  0  0  0
    5.4980  -11.9010  -13.1720 C   0  0  0  0  0  0  0  0  0  0  0  0
    5.2000  -10.8080  -12.3130 C   0  0  0  0  0  0  0  0  0  0  0  0
    4.3530   -9.6860  -12.3710 C   0  0  0  0  0  0  0  0  0  0  0  0
    5.1395   -8.2859   -9.3452 H   0  0  0  0  0  0  0  0  0  0  0  0
    6.6458  -10.2998   -9.2204 H   0  0  0  0  0  0  0  0  0  0  0  0
    7.5880  -13.1330  -14.7760 H   0  0  0  0  0  0  0  0  0  0  0  0
    7.6709  -15.7788  -15.2680 H   0  0  0  0  0  0  0  0  0  0  0  0
    9.2295  -15.2844  -14.6432 H   0  0  0  0  0  0  0  0  0  0  0  0
    7.1733  -16.8962  -13.2861 H   0  0  0  0  0  0  0  0  0  0  0  0
    8.7170  -16.4362  -12.5960 H   0  0  0  0  0  0  0  0  0  0  0  0
    6.7450  -15.0880  -11.3700 H   0  0  0  0  0  0  0  0  0  0  0  0
    5.0629  -12.0928  -14.1639 H   0  0  0  0  0  0  0  0  0  0  0  0
    3.7251   -9.5084  -13.2566 H   0  0  0  0  0  0  0  0  0  0  0  0
  1  2  2  0
  2  3  2  0
  3  4  1  0
  4  5  2  0
  5  6  1  0
  6  7  2  0
  7  8  1  0
  8  9  1  0
  9 10  1  0
 10 11  2  0
 11 12  1  0
 12 13  1  0
 13 14  1  0
  9 15  2  0
 15 16  1  0
 16 17  2  0
 17  4  1  0
 16  7  1  0
 14 10  1  0
  5 18  1  0
  6 19  1  0
 11 20  1  0
 12 21  1  0
 12 22  1  0
 13 23  1  0
 13 24  1  0
 14 25  1  0
 15 26  1  0
 17 27  1  0
M  CHG  1  11   1
M  END
>  <meeko>  (7) 
{"is_sidechain": [false], "free_energy": -7.207, "intermolecular_energy": -8.051, "internal_energy": -0.223}

$$$$
3ary_ligand
     RDKit          3D

 27 29  0  0  0  0  0  0  0  0999 V2000
    2.0810   -6.7820   -8.7350 S   0  0  0  0  0  0  0  0  0  0  0  0
    2.4980   -6.8260  -10.4850 C   0  0  0  0  0  0  0  0  0  0  0  0
    2.7650   -6.8640  -11.6280 N   0  0  0  0  0  0  0  0  0  0  0  0
    3.5780   -7.9640  -11.9460 C   0  0  0  0  0  0  0  0  0  0  0  0
    3.6020   -8.4710  -13.2560 C   0  0  0  0  0  0  0  0  0  0  0  0
    4.3770   -9.5860  -13.6020 C   0  0  0  0  0  0  0  0  0  0  0  0
    5.1050  -10.1740  -12.5730 C   0  0  0  0  0  0  0  0  0  0  0  0
    5.9140  -11.2600  -12.6970 O   0  0  0  0  0  0  0  0  0  0  0  0
    6.4380  -11.5290  -11.4600 C   0  0  0  0  0  0  0  0  0  0  0  0
    7.3390  -12.6210  -11.2190 C   0  0  0  0  0  0  0  0  0  0  0  0
    7.0610  -13.5440  -10.3260 N   0  0  0  0  0  0  0  0  0  0  0  0
    8.1360  -14.5390  -10.2740 C   0  0  0  0  0  0  0  0  0  0  0  0
    9.1320  -14.0250  -11.3290 C   0  0  0  0  0  0  0  0  0  0  0  0
    8.4860  -12.8060  -11.8370 N   0  0  0  0  0  0  0  0  0  0  0  0
    5.9610  -10.6080  -10.5460 C   0  0  0  0  0  0  0  0  0  0  0  0
    5.1010   -9.7270  -11.2590 C   0  0  0  0  0  0  0  0  0  0  0  0
    4.3160   -8.6060  -10.9330 C   0  0  0  0  0  0  0  0  0  0  0  0
    2.9959   -7.9793  -14.0312 H   0  0  0  0  0  0  0  0  0  0  0  0
    4.4079   -9.9748  -14.6305 H   0  0  0  0  0  0  0  0  0  0  0  0
    6.1940  -13.4780   -9.8010 H   0  0  0  0  0  0  0  0  0  0  0  0
    8.5978  -14.5708   -9.2762 H   0  0  0  0  0  0  0  0  0  0  0  0
    7.7884  -15.5644  -10.4681 H   0  0  0  0  0  0  0  0  0  0  0  0
   10.1057  -13.7941  -10.8724 H   0  0  0  0  0  0  0  0  0  0  0  0
    9.3423  -14.7620  -12.1181 H   0  0  0  0  0  0  0  0  0  0  0  0
    8.8140  -12.1640  -12.5470 H   0  0  0  0  0  0  0  0  0  0  0  0
    6.2004  -10.5646   -9.4733 H   0  0  0  0  0  0  0  0  0  0  0  0
    4.2791   -8.2350   -9.8981 H   0  0  0  0  0  0  0  0  0  0  0  0
  1  2  2  0
  2  3  2  0
  3  4  1  0
  4  5  2  0
  5  6  1  0
  6  7  2  0
  7  8  1  0
  8  9  1  0
  9 10  1  0
 10 11  2  0
 11 12  1  0
 12 13  1  0
 13 14  1  0
  9 15  2  0
 15 16  1  0
 16 17  2  0
 17  4  1  0
 16  7  1  0
 14 10  1  0
  5 18  1  0
  6 19  1  0
 11 20  1  0
 12 21  1  0
 12 22  1  0
 13 23  1  0
 13 24  1  0
 14 25  1  0
 15 26  1  0
 17 27  1  0
M  CHG  1  11   1
M  END
>  <meeko>  (8) 
{"is_sidechain": [false], "free_energy": -7.162, "intermolecular_energy": -8.067, "internal_energy": -0.157}

$$$$
3ary_ligand
     RDKit          3D

 27 29  0  0  0  0  0  0  0  0999 V2000
    1.8520   -9.6790  -17.0580 S   0  0  0  0  0  0  0  0  0  0  0  0
    2.4710   -8.5860  -15.7700 C   0  0  0  0  0  0  0  0  0  0  0  0
    2.8840   -7.8750  -14.9310 N   0  0  0  0  0  0  0  0  0  0  0  0
    3.5630   -8.5810  -13.9250 C   0  0  0  0  0  0  0  0  0  0  0  0
    3.5230   -8.1320  -12.5950 C   0  0  0  0  0  0  0  0  0  0  0  0
    4.2140   -8.7930  -11.5710 C   0  0  0  0  0  0  0  0  0  0  0  0
    4.9560   -9.9080  -11.9480 C   0  0  0  0  0  0  0  0  0  0  0  0
    5.6970  -10.6850  -11.1130 O   0  0  0  0  0  0  0  0  0  0  0  0
    6.2770  -11.6670  -11.8690 C   0  0  0  0  0  0  0  0  0  0  0  0
    7.1370  -12.6730  -11.3090 C   0  0  0  0  0  0  0  0  0  0  0  0
    8.3430  -12.8780  -11.7910 N   0  0  0  0  0  0  0  0  0  0  0  0
    9.0090  -13.9500  -11.0490 C   0  0  0  0  0  0  0  0  0  0  0  0
    7.9520  -14.3570  -10.0070 C   0  0  0  0  0  0  0  0  0  0  0  0
    6.8260  -13.4590  -10.3010 N   0  0  0  0  0  0  0  0  0  0  0  0
    5.9030  -11.5160  -13.1920 C   0  0  0  0  0  0  0  0  0  0  0  0
    5.0470  -10.3810  -13.2500 C   0  0  0  0  0  0  0  0  0  0  0  0
    4.3450   -9.7020  -14.2630 C   0  0  0  0  0  0  0  0  0  0  0  0
    2.9328   -7.2365  -12.3504 H   0  0  0  0  0  0  0  0  0  0  0  0
    4.1722   -8.4495  -10.5268 H   0  0  0  0  0  0  0  0  0  0  0  0
    8.6650  -12.3140  -12.5730 H   0  0  0  0  0  0  0  0  0  0  0  0
    9.2578  -14.7932  -11.7102 H   0  0  0  0  0  0  0  0  0  0  0  0
    9.9636  -13.6385  -10.5998 H   0  0  0  0  0  0  0  0  0  0  0  0
    7.6597  -15.4100  -10.1325 H   0  0  0  0  0  0  0  0  0  0  0  0
    8.3125  -14.2714   -8.9713 H   0  0  0  0  0  0  0  0  0  0  0  0
    5.9260  -13.4000   -9.8420 H   0  0  0  0  0  0  0  0  0  0  0  0
    6.2085  -12.1511  -14.0366 H   0  0  0  0  0  0  0  0  0  0  0  0
    4.4065  -10.0431  -15.3070 H   0  0  0  0  0  0  0  0  0  0  0  0
  1  2  2  0
  2  3  2  0
  3  4  1  0
  4  5  2  0
  5  6  1  0
  6  7  2  0
  7  8  1  0
  8  9  1  0
  9 10  1  0
 10 11  2  0
 11 12  1  0
 12 13  1  0
 13 14  1  0
  9 15  2  0
 15 16  1  0
 16 17  2  0
 17  4  1  0
 16  7  1  0
 14 10  1  0
  5 18  1  0
  6 19  1  0
 11 20  1  0
 12 21  1  0
 12 22  1  0
 13 23  1  0
 13 24  1  0
 14 25  1  0
 15 26  1  0
 17 27  1  0
M  CHG  1  11   1
M  END
>  <meeko>  (9) 
{"is_sidechain": [false], "free_energy": -7.071, "intermolecular_energy": -7.919, "internal_energy": -0.204}

$$$$
