3utu_ligand
     RDKit          3D

 82 85  0  0  0  0  0  0  0  0999 V2000
   -7.3330   -2.7580    9.3840 C   0  0  0  0  0  0  0  0  0  0  0  0
   -8.6320   -3.3230    9.2680 O   0  0  0  0  0  0  0  0  0  0  0  0
   -8.7490   -4.5450    8.6620 C   0  0  0  0  0  0  0  0  0  0  0  0
   -7.7430   -5.5200    8.6410 C   0  0  0  0  0  0  0  0  0  0  0  0
   -7.9550   -6.7460    8.0010 C   0  0  0  0  0  0  0  0  0  0  0  0
   -9.1800   -6.9980    7.3820 C   0  0  0  0  0  0  0  0  0  0  0  0
   -9.4880   -8.5590    6.5970 S   0  0  0  0  0  0  0  0  0  0  0  0
   -8.2230   -9.1710    6.2550 O   0  0  0  0  0  0  0  0  0  0  0  0
  -10.5210   -8.3510    5.6110 O   0  0  0  0  0  0  0  0  0  0  0  0
  -10.1870   -9.4490    7.8520 N   0  0  0  0  0  0  0  0  0  0  0  0
   -9.3910  -10.5870    8.3940 C   0  0  1  0  0  0  0  0  0  0  0  0
   -8.9490  -10.2860    9.8300 C   0  0  0  0  0  0  0  0  0  0  0  0
   -7.4740   -9.9510    9.8720 C   0  0  0  0  0  0  0  0  0  0  0  0
   -6.8880   -9.6540   10.9080 O   0  0  0  0  0  0  0  0  0  0  0  0
   -6.8550  -10.0290    8.6460 N   0  0  0  0  0  0  0  0  0  0  0  0
   -5.4180   -9.8910    8.5210 C   0  0  0  0  0  0  0  0  0  0  0  0
   -5.0190   -9.6970    7.0800 C   0  0  0  0  0  0  0  0  0  0  0  0
   -4.8870  -10.7950    6.2190 C   0  0  0  0  0  0  0  0  0  0  0  0
   -4.4890  -10.6100    4.8910 C   0  0  0  0  0  0  0  0  0  0  0  0
   -4.2140   -9.3260    4.4120 C   0  0  0  0  0  0  0  0  0  0  0  0
   -3.8010   -9.1390    3.0510 C   0  0  0  0  0  0  0  0  0  0  0  0
   -3.4590   -8.9940    1.9520 N   0  0  0  0  0  0  0  0  0  0  0  0
   -4.3370   -8.2270    5.2660 C   0  0  0  0  0  0  0  0  0  0  0  0
   -4.7340   -8.4130    6.5920 C   0  0  0  0  0  0  0  0  0  0  0  0
  -10.1080  -11.9400    8.3420 C   0  0  0  0  0  0  0  0  0  0  0  0
   -9.4340  -12.9760    8.2810 O   0  0  0  0  0  0  0  0  0  0  0  0
  -11.4860  -11.9960    8.3940 N   0  0  0  0  0  0  0  0  0  0  0  0
  -12.3650  -11.4140    9.3990 C   0  0  0  0  0  0  0  0  0  0  0  0
  -13.5200  -12.3950    9.4870 C   0  0  0  0  0  0  0  0  0  0  0  0
  -13.6690  -12.8720    8.0540 C   0  0  0  0  0  0  0  0  0  0  0  0
  -12.2300  -12.9220    7.5230 C   0  0  1  0  0  0  0  0  0  0  0  0
  -12.2580  -12.5590    6.0260 C   0  0  0  0  0  0  0  0  0  0  0  0
  -12.6260  -13.3750    5.1810 O   0  0  0  0  0  0  0  0  0  0  0  0
  -12.0010  -11.2390    5.7250 N   0  0  0  0  0  0  0  0  0  0  0  0
  -12.0290  -10.7440    4.3720 C   0  0  0  0  0  0  0  0  0  0  0  0
  -13.2530   -9.8990    4.1110 C   0  0  0  0  0  0  0  0  0  0  0  0
  -14.0300   -9.4410    5.1830 C   0  0  0  0  0  0  0  0  0  0  0  0
  -15.1920   -8.7040    4.9560 C   0  0  0  0  0  0  0  0  0  0  0  0
  -15.6000   -8.4100    3.6480 C   0  0  0  0  0  0  0  0  0  0  0  0
  -16.8370   -7.6590    3.4150 C   0  0  0  0  0  0  0  0  0  0  0  0
  -16.7940   -6.5560    2.7000 N   0  0  0  0  0  0  0  0  0  0  0  0
  -17.9610   -8.1090    3.9250 N   0  0  0  0  0  0  0  0  0  0  0  0
  -14.8190   -8.8620    2.5730 C   0  0  0  0  0  0  0  0  0  0  0  0
  -13.6590   -9.6050    2.8040 C   0  0  0  0  0  0  0  0  0  0  0  0
  -10.1850   -6.0290    7.3680 C   0  0  0  0  0  0  0  0  0  0  0  0
   -9.9690   -4.8120    8.0150 C   0  0  0  0  0  0  0  0  0  0  0  0
  -11.2570   -3.6590    8.0030 Cl  0  0  0  0  0  0  0  0  0  0  0  0
   -7.0755   -2.6460   10.4476 H   0  0  0  0  0  0  0  0  0  0  0  0
   -6.6008   -3.4190    8.8971 H   0  0  0  0  0  0  0  0  0  0  0  0
   -7.3173   -1.7717    8.8971 H   0  0  0  0  0  0  0  0  0  0  0  0
   -6.7790   -5.3200    9.1315 H   0  0  0  0  0  0  0  0  0  0  0  0
   -7.1607   -7.5068    7.9859 H   0  0  0  0  0  0  0  0  0  0  0  0
  -10.5400   -8.8080    8.5680 H   0  0  0  0  0  0  0  0  0  0  0  0
   -8.5169  -10.6810    7.7329 H   0  0  0  0  0  0  0  0  0  0  0  0
   -9.5252   -9.4315   10.2144 H   0  0  0  0  0  0  0  0  0  0  0  0
   -9.1293  -11.1757   10.4513 H   0  0  0  0  0  0  0  0  0  0  0  0
   -7.3490  -10.4390    7.8650 H   0  0  0  0  0  0  0  0  0  0  0  0
   -5.0876   -9.0203    9.1064 H   0  0  0  0  0  0  0  0  0  0  0  0
   -4.9430  -10.8094    8.8964 H   0  0  0  0  0  0  0  0  0  0  0  0
   -5.0978  -11.8088    6.5901 H   0  0  0  0  0  0  0  0  0  0  0  0
   -4.3921  -11.4775    4.2216 H   0  0  0  0  0  0  0  0  0  0  0  0
   -4.1210   -7.2147    4.8937 H   0  0  0  0  0  0  0  0  0  0  0  0
   -4.8241   -7.5440    7.2604 H   0  0  0  0  0  0  0  0  0  0  0  0
  -11.8498  -11.3284   10.3671 H   0  0  0  0  0  0  0  0  0  0  0  0
  -12.6919  -10.3966    9.1383 H   0  0  0  0  0  0  0  0  0  0  0  0
  -13.2786  -13.2313   10.1595 H   0  0  0  0  0  0  0  0  0  0  0  0
  -14.4392  -11.9487    9.8943 H   0  0  0  0  0  0  0  0  0  0  0  0
  -14.1321  -13.8692    8.0208 H   0  0  0  0  0  0  0  0  0  0  0  0
  -14.3165  -12.2140    7.4558 H   0  0  0  0  0  0  0  0  0  0  0  0
  -11.7363  -13.9043    7.5606 H   0  0  0  0  0  0  0  0  0  0  0  0
  -11.5020  -10.6820    6.4150 H   0  0  0  0  0  0  0  0  0  0  0  0
  -11.1307  -10.1337    4.1972 H   0  0  0  0  0  0  0  0  0  0  0  0
  -12.0576  -11.6079    3.6916 H   0  0  0  0  0  0  0  0  0  0  0  0
  -13.7203   -9.6650    6.2145 H   0  0  0  0  0  0  0  0  0  0  0  0
  -15.7915   -8.3516    5.8083 H   0  0  0  0  0  0  0  0  0  0  0  0
  -15.9010   -6.2220    2.3500 H   0  0  0  0  0  0  0  0  0  0  0  0
  -17.6120   -5.9940    2.5140 H   0  0  0  0  0  0  0  0  0  0  0  0
  -17.9560   -8.9770    4.4550 H   0  0  0  0  0  0  0  0  0  0  0  0
  -18.8470   -7.6400    3.8050 H   0  0  0  0  0  0  0  0  0  0  0  0
  -15.1225   -8.6295    1.5416 H   0  0  0  0  0  0  0  0  0  0  0  0
  -13.0603   -9.9616    1.9529 H   0  0  0  0  0  0  0  0  0  0  0  0
  -11.1371   -6.2230    6.8523 H   0  0  0  0  0  0  0  0  0  0  0  0
  1  2  1  0
  2  3  1  0
  3  4  2  0
  4  5  1  0
  5  6  2  0
  6  7  1  0
  7  8  2  0
  7  9  2  0
  7 10  1  0
 10 11  1  0
 11 12  1  0
 12 13  1  0
 13 14  2  0
 13 15  1  0
 15 16  1  0
 16 17  1  0
 17 18  2  0
 18 19  1  0
 19 20  2  0
 20 21  1  0
 21 22  3  0
 20 23  1  0
 23 24  2  0
 11 25  1  0
 25 26  2  0
 25 27  1  0
 27 28  1  0
 28 29  1  0
 29 30  1  0
 30 31  1  0
 31 32  1  0
 32 33  2  0
 32 34  1  0
 34 35  1  0
 35 36  1  0
 36 37  2  0
 37 38  1  0
 38 39  2  0
 39 40  1  0
 40 41  1  0
 40 42  2  0
 39 43  1  0
 43 44  2  0
  6 45  1  0
 45 46  2  0
 46 47  1  0
 46  3  1  0
 24 17  1  0
 31 27  1  0
 44 36  1  0
  1 48  1  0
  1 49  1  0
  1 50  1  0
  4 51  1  0
  5 52  1  0
 10 53  1  0
 11 54  1  6
 12 55  1  0
 12 56  1  0
 15 57  1  0
 16 58  1  0
 16 59  1  0
 18 60  1  0
 19 61  1  0
 23 62  1  0
 24 63  1  0
 28 64  1  0
 28 65  1  0
 29 66  1  0
 29 67  1  0
 30 68  1  0
 30 69  1  0
 31 70  1  6
 34 71  1  0
 35 72  1  0
 35 73  1  0
 37 74  1  0
 38 75  1  0
 41 76  1  0
 41 77  1  0
 42 78  1  0
 42 79  1  0
 43 80  1  0
 44 81  1  0
 45 82  1  0
M  CHG  1  42   1
M  END
>  <meeko>  (1) 
{"is_sidechain": [false], "free_energy": -9.175, "intermolecular_energy": -16.683, "internal_energy": -3.466}

$$$$
3utu_ligand
     RDKit          3D

 82 85  0  0  0  0  0  0  0  0999 V2000
   -3.7610   -8.8310    2.1510 C   0  0  0  0  0  0  0  0  0  0  0  0
   -3.0800   -9.0960    3.3690 O   0  0  0  0  0  0  0  0  0  0  0  0
   -3.8280   -9.2200    4.5100 C   0  0  0  0  0  0  0  0  0  0  0  0
   -4.1440   -8.1590    5.3700 C   0  0  0  0  0  0  0  0  0  0  0  0
   -4.9200   -8.3790    6.5130 C   0  0  0  0  0  0  0  0  0  0  0  0
   -5.3840   -9.6650    6.7950 C   0  0  0  0  0  0  0  0  0  0  0  0
   -6.4030   -9.9620    8.2160 S   0  0  0  0  0  0  0  0  0  0  0  0
   -6.3760   -8.7930    9.0670 O   0  0  0  0  0  0  0  0  0  0  0  0
   -6.0710  -11.2740    8.7190 O   0  0  0  0  0  0  0  0  0  0  0  0
   -7.9400  -10.0830    7.5250 N   0  0  0  0  0  0  0  0  0  0  0  0
   -9.0980  -10.1220    8.4640 C   0  0  1  0  0  0  0  0  0  0  0  0
  -10.0890   -9.0020    8.1290 C   0  0  0  0  0  0  0  0  0  0  0  0
   -9.3700   -7.8330    7.4920 C   0  0  0  0  0  0  0  0  0  0  0  0
   -9.2730   -7.6940    6.2770 O   0  0  0  0  0  0  0  0  0  0  0  0
   -8.8550   -6.9380    8.4010 N   0  0  0  0  0  0  0  0  0  0  0  0
   -8.2700   -5.6840    7.9710 C   0  0  0  0  0  0  0  0  0  0  0  0
   -7.8180   -4.8670    9.1550 C   0  0  0  0  0  0  0  0  0  0  0  0
   -7.6480   -5.4610   10.4130 C   0  0  0  0  0  0  0  0  0  0  0  0
   -7.2560   -4.6920   11.5130 C   0  0  0  0  0  0  0  0  0  0  0  0
   -7.0350   -3.3180   11.3670 C   0  0  0  0  0  0  0  0  0  0  0  0
   -6.6380   -2.5300   12.4970 C   0  0  0  0  0  0  0  0  0  0  0  0
   -6.3260   -1.8950   13.4160 N   0  0  0  0  0  0  0  0  0  0  0  0
   -7.2100   -2.7180   10.1180 C   0  0  0  0  0  0  0  0  0  0  0  0
   -7.6020   -3.4880    9.0200 C   0  0  0  0  0  0  0  0  0  0  0  0
   -9.8300  -11.4690    8.5060 C   0  0  0  0  0  0  0  0  0  0  0  0
   -9.1670  -12.5130    8.5220 O   0  0  0  0  0  0  0  0  0  0  0  0
  -11.2080  -11.5070    8.5580 N   0  0  0  0  0  0  0  0  0  0  0  0
  -12.0810  -10.8890    9.5470 C   0  0  0  0  0  0  0  0  0  0  0  0
  -13.2490  -11.8540    9.6570 C   0  0  0  0  0  0  0  0  0  0  0  0
  -13.4010  -12.3640    8.2350 C   0  0  0  0  0  0  0  0  0  0  0  0
  -11.9620  -12.4430    7.7080 C   0  0  1  0  0  0  0  0  0  0  0  0
  -11.9840  -12.1160    6.2030 C   0  0  0  0  0  0  0  0  0  0  0  0
  -12.3620  -12.9480    5.3760 O   0  0  0  0  0  0  0  0  0  0  0  0
  -11.7100  -10.8080    5.8710 N   0  0  0  0  0  0  0  0  0  0  0  0
  -11.7310  -10.3450    4.5060 C   0  0  0  0  0  0  0  0  0  0  0  0
  -13.0060   -9.6010    4.1860 C   0  0  0  0  0  0  0  0  0  0  0  0
  -13.6810   -8.9020    5.1950 C   0  0  0  0  0  0  0  0  0  0  0  0
  -14.8870   -8.2540    4.9280 C   0  0  0  0  0  0  0  0  0  0  0  0
  -15.4410   -8.2930    3.6420 C   0  0  0  0  0  0  0  0  0  0  0  0
  -16.7220   -7.6340    3.3740 C   0  0  0  0  0  0  0  0  0  0  0  0
  -16.7360   -6.5110    2.6900 N   0  0  0  0  0  0  0  0  0  0  0  0
  -17.8280   -8.1830    3.8240 N   0  0  0  0  0  0  0  0  0  0  0  0
  -14.7630   -8.9860    2.6280 C   0  0  0  0  0  0  0  0  0  0  0  0
  -13.5580   -9.6390    2.9010 C   0  0  0  0  0  0  0  0  0  0  0  0
   -5.0580  -10.7390    5.9650 C   0  0  0  0  0  0  0  0  0  0  0  0
   -4.2900  -10.5110    4.8230 C   0  0  0  0  0  0  0  0  0  0  0  0
   -3.9430  -11.8650    3.8070 Cl  0  0  0  0  0  0  0  0  0  0  0  0
   -4.7656   -8.4401    2.3701 H   0  0  0  0  0  0  0  0  0  0  0  0
   -3.1967   -8.0868    1.5698 H   0  0  0  0  0  0  0  0  0  0  0  0
   -3.8481   -9.7609    1.5698 H   0  0  0  0  0  0  0  0  0  0  0  0
   -3.7791   -7.1461    5.1444 H   0  0  0  0  0  0  0  0  0  0  0  0
   -5.1632   -7.5433    7.1857 H   0  0  0  0  0  0  0  0  0  0  0  0
   -8.0330   -9.3900    6.7780 H   0  0  0  0  0  0  0  0  0  0  0  0
   -8.6731   -9.9736    9.4677 H   0  0  0  0  0  0  0  0  0  0  0  0
  -10.8466   -9.3858    7.4299 H   0  0  0  0  0  0  0  0  0  0  0  0
  -10.5693   -8.6615    9.0582 H   0  0  0  0  0  0  0  0  0  0  0  0
   -9.1110   -7.0180    9.3760 H   0  0  0  0  0  0  0  0  0  0  0  0
   -7.4038   -5.8931    7.3260 H   0  0  0  0  0  0  0  0  0  0  0  0
   -9.0308   -5.1122    7.4193 H   0  0  0  0  0  0  0  0  0  0  0  0
   -7.8242   -6.5398   10.5358 H   0  0  0  0  0  0  0  0  0  0  0  0
   -7.1210   -5.1682   12.4954 H   0  0  0  0  0  0  0  0  0  0  0  0
   -7.0390   -1.6380    9.9986 H   0  0  0  0  0  0  0  0  0  0  0  0
   -7.7425   -3.0079    8.0403 H   0  0  0  0  0  0  0  0  0  0  0  0
  -11.5661  -10.7859   10.5136 H   0  0  0  0  0  0  0  0  0  0  0  0
  -12.3946   -9.8742    9.2610 H   0  0  0  0  0  0  0  0  0  0  0  0
  -13.0191  -12.6766   10.3502 H   0  0  0  0  0  0  0  0  0  0  0  0
  -14.1634  -11.3869   10.0516 H   0  0  0  0  0  0  0  0  0  0  0  0
  -13.8752  -13.3565    8.2250 H   0  0  0  0  0  0  0  0  0  0  0  0
  -14.0400  -11.7133    7.6199 H   0  0  0  0  0  0  0  0  0  0  0  0
  -11.4796  -13.4296    7.7697 H   0  0  0  0  0  0  0  0  0  0  0  0
  -11.2050  -10.2400    6.5480 H   0  0  0  0  0  0  0  0  0  0  0  0
  -10.8760   -9.6720    4.3450 H   0  0  0  0  0  0  0  0  0  0  0  0
  -11.6725  -11.2231    3.8460 H   0  0  0  0  0  0  0  0  0  0  0  0
  -13.2555   -8.8637    6.2086 H   0  0  0  0  0  0  0  0  0  0  0  0
  -15.4055   -7.7098    5.7311 H   0  0  0  0  0  0  0  0  0  0  0  0
  -15.8590   -6.0980    2.3870 H   0  0  0  0  0  0  0  0  0  0  0  0
  -17.5880   -6.0090    2.4830 H   0  0  0  0  0  0  0  0  0  0  0  0
  -17.7760   -9.0630    4.3320 H   0  0  0  0  0  0  0  0  0  0  0  0
  -18.7420   -7.7810    3.6770 H   0  0  0  0  0  0  0  0  0  0  0  0
  -15.1825   -9.0156    1.6116 H   0  0  0  0  0  0  0  0  0  0  0  0
  -13.0399  -10.1867    2.1000 H   0  0  0  0  0  0  0  0  0  0  0  0
   -5.4031  -11.7546    6.2089 H   0  0  0  0  0  0  0  0  0  0  0  0
  1  2  1  0
  2  3  1  0
  3  4  2  0
  4  5  1  0
  5  6  2  0
  6  7  1  0
  7  8  2  0
  7  9  2  0
  7 10  1  0
 10 11  1  0
 11 12  1  0
 12 13  1  0
 13 14  2  0
 13 15  1  0
 15 16  1  0
 16 17  1  0
 17 18  2  0
 18 19  1  0
 19 20  2  0
 20 21  1  0
 21 22  3  0
 20 23  1  0
 23 24  2  0
 11 25  1  0
 25 26  2  0
 25 27  1  0
 27 28  1  0
 28 29  1  0
 29 30  1  0
 30 31  1  0
 31 32  1  0
 32 33  2  0
 32 34  1  0
 34 35  1  0
 35 36  1  0
 36 37  2  0
 37 38  1  0
 38 39  2  0
 39 40  1  0
 40 41  1  0
 40 42  2  0
 39 43  1  0
 43 44  2  0
  6 45  1  0
 45 46  2  0
 46 47  1  0
 46  3  1  0
 24 17  1  0
 31 27  1  0
 44 36  1  0
  1 48  1  0
  1 49  1  0
  1 50  1  0
  4 51  1  0
  5 52  1  0
 10 53  1  0
 11 54  1  1
 12 55  1  0
 12 56  1  0
 15 57  1  0
 16 58  1  0
 16 59  1  0
 18 60  1  0
 19 61  1  0
 23 62  1  0
 24 63  1  0
 28 64  1  0
 28 65  1  0
 29 66  1  0
 29 67  1  0
 30 68  1  0
 30 69  1  0
 31 70  1  6
 34 71  1  0
 35 72  1  0
 35 73  1  0
 37 74  1  0
 38 75  1  0
 41 76  1  0
 41 77  1  0
 42 78  1  0
 42 79  1  0
 43 80  1  0
 44 81  1  0
 45 82  1  0
M  CHG  1  42   1
M  END
>  <meeko>  (2) 
{"is_sidechain": [false], "free_energy": -8.983, "intermolecular_energy": -17.329, "internal_energy": -2.473}

$$$$
3utu_ligand
     RDKit          3D

 82 85  0  0  0  0  0  0  0  0999 V2000
  -17.0030   -7.5000    3.6580 C   0  0  0  0  0  0  0  0  0  0  0  0
  -15.8100   -8.0410    3.1090 O   0  0  0  0  0  0  0  0  0  0  0  0
  -15.0900   -8.9200    3.8740 C   0  0  0  0  0  0  0  0  0  0  0  0
  -15.3730   -9.2220    5.2130 C   0  0  0  0  0  0  0  0  0  0  0  0
  -14.5850  -10.1390    5.9160 C   0  0  0  0  0  0  0  0  0  0  0  0
  -13.5100  -10.7590    5.2750 C   0  0  0  0  0  0  0  0  0  0  0  0
  -12.5190  -11.9550    6.1320 S   0  0  0  0  0  0  0  0  0  0  0  0
  -12.1760  -13.0230    5.2190 O   0  0  0  0  0  0  0  0  0  0  0  0
  -13.1570  -12.2160    7.4000 O   0  0  0  0  0  0  0  0  0  0  0  0
  -11.1180  -11.0710    6.4670 N   0  0  0  0  0  0  0  0  0  0  0  0
  -11.2970   -9.7690    7.1720 C   0  0  1  0  0  0  0  0  0  0  0  0
  -10.9680   -9.9240    8.6600 C   0  0  0  0  0  0  0  0  0  0  0  0
   -9.7490  -10.8010    8.8440 C   0  0  0  0  0  0  0  0  0  0  0  0
   -9.8190  -11.9650    9.2250 O   0  0  0  0  0  0  0  0  0  0  0  0
   -8.5650  -10.1760    8.5280 N   0  0  0  0  0  0  0  0  0  0  0  0
   -7.3150  -10.9080    8.4980 C   0  0  0  0  0  0  0  0  0  0  0  0
   -6.4630  -10.4710    7.3330 C   0  0  0  0  0  0  0  0  0  0  0  0
   -6.5750   -9.1750    6.8100 C   0  0  0  0  0  0  0  0  0  0  0  0
   -5.8020   -8.7860    5.7120 C   0  0  0  0  0  0  0  0  0  0  0  0
   -4.9140   -9.6900    5.1210 C   0  0  0  0  0  0  0  0  0  0  0  0
   -4.1260   -9.2900    3.9920 C   0  0  0  0  0  0  0  0  0  0  0  0
   -3.4970   -8.9650    3.0720 N   0  0  0  0  0  0  0  0  0  0  0  0
   -4.8020  -10.9850    5.6320 C   0  0  0  0  0  0  0  0  0  0  0  0
   -5.5750  -11.3730    6.7300 C   0  0  0  0  0  0  0  0  0  0  0  0
  -10.4860   -8.6120    6.5770 C   0  0  0  0  0  0  0  0  0  0  0  0
   -9.6390   -8.8570    5.7090 O   0  0  0  0  0  0  0  0  0  0  0  0
  -10.7240   -7.3170    6.9870 N   0  0  0  0  0  0  0  0  0  0  0  0
  -12.0110   -6.6590    7.1630 C   0  0  0  0  0  0  0  0  0  0  0  0
  -11.7400   -5.2150    6.7820 C   0  0  0  0  0  0  0  0  0  0  0  0
  -10.3240   -4.9930    7.2850 C   0  0  0  0  0  0  0  0  0  0  0  0
   -9.6250   -6.3380    7.0450 C   0  0  1  0  0  0  0  0  0  0  0  0
   -8.5950   -6.5500    8.1700 C   0  0  0  0  0  0  0  0  0  0  0  0
   -8.7730   -7.4000    9.0440 O   0  0  0  0  0  0  0  0  0  0  0  0
   -7.4150   -5.8500    8.0410 N   0  0  0  0  0  0  0  0  0  0  0  0
   -6.3440   -5.9760    8.9970 C   0  0  0  0  0  0  0  0  0  0  0  0
   -6.3740   -4.8670   10.0210 C   0  0  0  0  0  0  0  0  0  0  0  0
   -7.3780   -4.8440   10.9990 C   0  0  0  0  0  0  0  0  0  0  0  0
   -7.4510   -3.7980   11.9190 C   0  0  0  0  0  0  0  0  0  0  0  0
   -6.5190   -2.7530   11.8790 C   0  0  0  0  0  0  0  0  0  0  0  0
   -6.6170   -1.6430   12.8310 C   0  0  0  0  0  0  0  0  0  0  0  0
   -6.4960   -0.4090   12.3930 N   0  0  0  0  0  0  0  0  0  0  0  0
   -6.8260   -1.9090   14.1010 N   0  0  0  0  0  0  0  0  0  0  0  0
   -5.5080   -2.7780   10.9050 C   0  0  0  0  0  0  0  0  0  0  0  0
   -5.4420   -3.8240    9.9820 C   0  0  0  0  0  0  0  0  0  0  0  0
  -13.1960  -10.4520    3.9500 C   0  0  0  0  0  0  0  0  0  0  0  0
  -13.9920   -9.5420    3.2530 C   0  0  0  0  0  0  0  0  0  0  0  0
  -13.5860   -9.2210    1.6040 Cl  0  0  0  0  0  0  0  0  0  0  0  0
  -16.9459   -7.5259    4.7562 H   0  0  0  0  0  0  0  0  0  0  0  0
  -17.1226   -6.4596    3.3215 H   0  0  0  0  0  0  0  0  0  0  0  0
  -17.8645   -8.0955    3.3215 H   0  0  0  0  0  0  0  0  0  0  0  0
  -16.2215   -8.7340    5.7149 H   0  0  0  0  0  0  0  0  0  0  0  0
  -14.8105  -10.3706    6.9674 H   0  0  0  0  0  0  0  0  0  0  0  0
  -10.4220  -11.6850    6.8970 H   0  0  0  0  0  0  0  0  0  0  0  0
  -12.3550   -9.5001    7.0365 H   0  0  0  0  0  0  0  0  0  0  0  0
  -10.7691   -8.9322    9.0921 H   0  0  0  0  0  0  0  0  0  0  0  0
  -11.8240  -10.3934    9.1669 H   0  0  0  0  0  0  0  0  0  0  0  0
   -8.5860   -9.2780    8.0640 H   0  0  0  0  0  0  0  0  0  0  0  0
   -6.7672  -10.7236    9.4339 H   0  0  0  0  0  0  0  0  0  0  0  0
   -7.5379  -11.9795    8.3878 H   0  0  0  0  0  0  0  0  0  0  0  0
   -7.2753   -8.4600    7.2664 H   0  0  0  0  0  0  0  0  0  0  0  0
   -5.8927   -7.7654    5.3117 H   0  0  0  0  0  0  0  0  0  0  0  0
   -4.1051  -11.6999    5.1701 H   0  0  0  0  0  0  0  0  0  0  0  0
   -5.4858  -12.3958    7.1248 H   0  0  0  0  0  0  0  0  0  0  0  0
  -12.7703   -7.1020    6.5018 H   0  0  0  0  0  0  0  0  0  0  0  0
  -12.4022   -6.7608    8.1860 H   0  0  0  0  0  0  0  0  0  0  0  0
  -11.7998   -5.0750    5.6926 H   0  0  0  0  0  0  0  0  0  0  0  0
  -12.4684   -4.5089    7.2072 H   0  0  0  0  0  0  0  0  0  0  0  0
   -9.8300   -4.1899    6.7185 H   0  0  0  0  0  0  0  0  0  0  0  0
  -10.2949   -4.6851    8.3406 H   0  0  0  0  0  0  0  0  0  0  0  0
   -9.0412   -6.4192    6.1162 H   0  0  0  0  0  0  0  0  0  0  0  0
   -7.4140   -5.0250    7.4450 H   0  0  0  0  0  0  0  0  0  0  0  0
   -6.4406   -6.9417    9.5149 H   0  0  0  0  0  0  0  0  0  0  0  0
   -5.3902   -5.9134    8.4526 H   0  0  0  0  0  0  0  0  0  0  0  0
   -8.1156   -5.6589   11.0414 H   0  0  0  0  0  0  0  0  0  0  0  0
   -8.2450   -3.7937   12.6803 H   0  0  0  0  0  0  0  0  0  0  0  0
   -6.3030   -0.2440   11.4090 H   0  0  0  0  0  0  0  0  0  0  0  0
   -6.5470    0.3940   13.0040 H   0  0  0  0  0  0  0  0  0  0  0  0
   -6.9340   -2.8760   14.3960 H   0  0  0  0  0  0  0  0  0  0  0  0
   -6.9010   -1.1920   14.8080 H   0  0  0  0  0  0  0  0  0  0  0  0
   -4.7636   -1.9690   10.8687 H   0  0  0  0  0  0  0  0  0  0  0  0
   -4.6507   -3.8280    9.2179 H   0  0  0  0  0  0  0  0  0  0  0  0
  -12.3304  -10.9223    3.4605 H   0  0  0  0  0  0  0  0  0  0  0  0
  1  2  1  0
  2  3  1  0
  3  4  2  0
  4  5  1  0
  5  6  2  0
  6  7  1  0
  7  8  2  0
  7  9  2  0
  7 10  1  0
 10 11  1  0
 11 12  1  0
 12 13  1  0
 13 14  2  0
 13 15  1  0
 15 16  1  0
 16 17  1  0
 17 18  2  0
 18 19  1  0
 19 20  2  0
 20 21  1  0
 21 22  3  0
 20 23  1  0
 23 24  2  0
 11 25  1  0
 25 26  2  0
 25 27  1  0
 27 28  1  0
 28 29  1  0
 29 30  1  0
 30 31  1  0
 31 32  1  0
 32 33  2  0
 32 34  1  0
 34 35  1  0
 35 36  1  0
 36 37  2  0
 37 38  1  0
 38 39  2  0
 39 40  1  0
 40 41  1  0
 40 42  2  0
 39 43  1  0
 43 44  2  0
  6 45  1  0
 45 46  2  0
 46 47  1  0
 46  3  1  0
 24 17  1  0
 31 27  1  0
 44 36  1  0
  1 48  1  0
  1 49  1  0
  1 50  1  0
  4 51  1  0
  5 52  1  0
 10 53  1  0
 11 54  1  1
 12 55  1  0
 12 56  1  0
 15 57  1  0
 16 58  1  0
 16 59  1  0
 18 60  1  0
 19 61  1  0
 23 62  1  0
 24 63  1  0
 28 64  1  0
 28 65  1  0
 29 66  1  0
 29 67  1  0
 30 68  1  0
 30 69  1  0
 31 70  1  6
 34 71  1  0
 35 72  1  0
 35 73  1  0
 37 74  1  0
 38 75  1  0
 41 76  1  0
 41 77  1  0
 42 78  1  0
 42 79  1  0
 43 80  1  0
 44 81  1  0
 45 82  1  0
M  CHG  1  42   1
M  END
>  <meeko>  (3) 
{"is_sidechain": [false], "free_energy": -8.868, "intermolecular_energy": -16.372, "internal_energy": -3.219}

$$$$
3utu_ligand
     RDKit          3D

 82 85  0  0  0  0  0  0  0  0999 V2000
   -3.7960   -8.4730    1.8900 C   0  0  0  0  0  0  0  0  0  0  0  0
   -3.2520   -9.4270    2.7900 O   0  0  0  0  0  0  0  0  0  0  0  0
   -3.8310   -9.5480    4.0260 C   0  0  0  0  0  0  0  0  0  0  0  0
   -4.0950   -8.4740    4.8860 C   0  0  0  0  0  0  0  0  0  0  0  0
   -4.6960   -8.6910    6.1310 C   0  0  0  0  0  0  0  0  0  0  0  0
   -5.0360   -9.9900    6.5140 C   0  0  0  0  0  0  0  0  0  0  0  0
   -5.8350  -10.2890    8.0700 S   0  0  0  0  0  0  0  0  0  0  0  0
   -5.4000   -9.2890    9.0210 O   0  0  0  0  0  0  0  0  0  0  0  0
   -5.7220  -11.7000    8.3500 O   0  0  0  0  0  0  0  0  0  0  0  0
   -7.4550   -9.9950    7.6930 N   0  0  0  0  0  0  0  0  0  0  0  0
   -8.4160   -9.9650    8.8330 C   0  0  1  0  0  0  0  0  0  0  0  0
   -8.0680  -11.0600    9.8470 C   0  0  0  0  0  0  0  0  0  0  0  0
   -8.8800  -12.3080    9.5770 C   0  0  0  0  0  0  0  0  0  0  0  0
   -9.1340  -13.1370   10.4450 O   0  0  0  0  0  0  0  0  0  0  0  0
   -9.3190  -12.4130    8.2770 N   0  0  0  0  0  0  0  0  0  0  0  0
  -10.2340  -13.4610    7.8770 C   0  0  0  0  0  0  0  0  0  0  0  0
  -11.5640  -12.8840    7.4600 C   0  0  0  0  0  0  0  0  0  0  0  0
  -12.2360  -11.9670    8.2800 C   0  0  0  0  0  0  0  0  0  0  0  0
  -13.4820  -11.4580    7.9000 C   0  0  0  0  0  0  0  0  0  0  0  0
  -14.0710  -11.8650    6.6990 C   0  0  0  0  0  0  0  0  0  0  0  0
  -15.3510  -11.3450    6.3140 C   0  0  0  0  0  0  0  0  0  0  0  0
  -16.3900  -10.9290    6.0110 N   0  0  0  0  0  0  0  0  0  0  0  0
  -13.4100  -12.7830    5.8790 C   0  0  0  0  0  0  0  0  0  0  0  0
  -12.1660  -13.2910    6.2600 C   0  0  0  0  0  0  0  0  0  0  0  0
   -8.5110   -8.6090    9.5420 C   0  0  0  0  0  0  0  0  0  0  0  0
   -8.6860   -8.5820   10.7660 O   0  0  0  0  0  0  0  0  0  0  0  0
   -8.3700   -7.4400    8.8230 N   0  0  0  0  0  0  0  0  0  0  0  0
   -7.3530   -6.4100    8.9850 C   0  0  0  0  0  0  0  0  0  0  0  0
   -8.0800   -5.1220    8.6410 C   0  0  0  0  0  0  0  0  0  0  0  0
   -9.0290   -5.5530    7.5370 C   0  0  0  0  0  0  0  0  0  0  0  0
   -9.4500   -6.9730    7.9380 C   0  0  1  0  0  0  0  0  0  0  0  0
   -9.6640   -7.7910    6.6490 C   0  0  0  0  0  0  0  0  0  0  0  0
   -8.8390   -7.7650    5.7350 O   0  0  0  0  0  0  0  0  0  0  0  0
  -10.7360   -8.6560    6.6610 N   0  0  0  0  0  0  0  0  0  0  0  0
  -11.0390   -9.5130    5.5420 C   0  0  0  0  0  0  0  0  0  0  0  0
  -12.3810   -9.1830    4.9320 C   0  0  0  0  0  0  0  0  0  0  0  0
  -13.2320   -8.2680    5.5650 C   0  0  0  0  0  0  0  0  0  0  0  0
  -14.4960   -7.9930    5.0430 C   0  0  0  0  0  0  0  0  0  0  0  0
  -14.9330   -8.6300    3.8740 C   0  0  0  0  0  0  0  0  0  0  0  0
  -16.2720   -8.3580    3.3460 C   0  0  0  0  0  0  0  0  0  0  0  0
  -17.1830   -9.3060    3.3850 N   0  0  0  0  0  0  0  0  0  0  0  0
  -16.5310   -7.1700    2.8460 N   0  0  0  0  0  0  0  0  0  0  0  0
  -14.0790   -9.5420    3.2350 C   0  0  0  0  0  0  0  0  0  0  0  0
  -12.8160   -9.8190    3.7640 C   0  0  0  0  0  0  0  0  0  0  0  0
   -4.7570  -11.0760    5.6830 C   0  0  0  0  0  0  0  0  0  0  0  0
   -4.1650  -10.8500    4.4400 C   0  0  0  0  0  0  0  0  0  0  0  0
   -3.8730  -12.2220    3.4300 Cl  0  0  0  0  0  0  0  0  0  0  0  0
   -4.2621   -7.6556    2.4597 H   0  0  0  0  0  0  0  0  0  0  0  0
   -2.9935   -8.0673    1.2565 H   0  0  0  0  0  0  0  0  0  0  0  0
   -4.5539   -8.9571    1.2565 H   0  0  0  0  0  0  0  0  0  0  0  0
   -3.8277   -7.4518    4.5801 H   0  0  0  0  0  0  0  0  0  0  0  0
   -4.8991   -7.8443    6.8031 H   0  0  0  0  0  0  0  0  0  0  0  0
   -7.5190   -9.1840    7.0730 H   0  0  0  0  0  0  0  0  0  0  0  0
   -9.4071  -10.1484    8.3926 H   0  0  0  0  0  0  0  0  0  0  0  0
   -6.9975  -11.3002    9.7677 H   0  0  0  0  0  0  0  0  0  0  0  0
   -8.3003  -10.6957   10.8586 H   0  0  0  0  0  0  0  0  0  0  0  0
   -9.2210  -11.6220    7.6550 H   0  0  0  0  0  0  0  0  0  0  0  0
   -9.8003  -14.0143    7.0310 H   0  0  0  0  0  0  0  0  0  0  0  0
  -10.3951  -14.1326    8.7331 H   0  0  0  0  0  0  0  0  0  0  0  0
  -11.7805  -11.6457    9.2283 H   0  0  0  0  0  0  0  0  0  0  0  0
  -14.0000  -10.7355    8.5478 H   0  0  0  0  0  0  0  0  0  0  0  0
  -13.8694  -13.1058    4.9331 H   0  0  0  0  0  0  0  0  0  0  0  0
  -11.6531  -14.0175    5.6126 H   0  0  0  0  0  0  0  0  0  0  0  0
   -6.9821   -6.3856   10.0203 H   0  0  0  0  0  0  0  0  0  0  0  0
   -6.4706   -6.5815    8.3510 H   0  0  0  0  0  0  0  0  0  0  0  0
   -8.6330   -4.7355    9.5098 H   0  0  0  0  0  0  0  0  0  0  0  0
   -7.4037   -4.3085    8.3396 H   0  0  0  0  0  0  0  0  0  0  0  0
   -9.9021   -4.8855    7.4900 H   0  0  0  0  0  0  0  0  0  0  0  0
   -8.5626   -5.5164    6.5414 H   0  0  0  0  0  0  0  0  0  0  0  0
  -10.4023   -7.0580    8.4819 H   0  0  0  0  0  0  0  0  0  0  0  0
  -11.4840   -8.4790    7.3280 H   0  0  0  0  0  0  0  0  0  0  0  0
  -10.2592   -9.3884    4.7763 H   0  0  0  0  0  0  0  0  0  0  0  0
  -11.0734  -10.5509    5.9048 H   0  0  0  0  0  0  0  0  0  0  0  0
  -12.9001   -7.7611    6.4831 H   0  0  0  0  0  0  0  0  0  0  0  0
  -15.1531   -7.2723    5.5517 H   0  0  0  0  0  0  0  0  0  0  0  0
  -16.9360  -10.2220    3.7480 H   0  0  0  0  0  0  0  0  0  0  0  0
  -18.1190   -9.1780    3.0280 H   0  0  0  0  0  0  0  0  0  0  0  0
  -15.8060   -6.4580    2.8530 H   0  0  0  0  0  0  0  0  0  0  0  0
  -17.4310   -6.9190    2.4640 H   0  0  0  0  0  0  0  0  0  0  0  0
  -14.4062  -10.0421    2.3115 H   0  0  0  0  0  0  0  0  0  0  0  0
  -12.1589  -10.5422    3.2588 H   0  0  0  0  0  0  0  0  0  0  0  0
   -5.0012  -12.0992    6.0046 H   0  0  0  0  0  0  0  0  0  0  0  0
  1  2  1  0
  2  3  1  0
  3  4  2  0
  4  5  1  0
  5  6  2  0
  6  7  1  0
  7  8  2  0
  7  9  2  0
  7 10  1  0
 10 11  1  0
 11 12  1  0
 12 13  1  0
 13 14  2  0
 13 15  1  0
 15 16  1  0
 16 17  1  0
 17 18  2  0
 18 19  1  0
 19 20  2  0
 20 21  1  0
 21 22  3  0
 20 23  1  0
 23 24  2  0
 11 25  1  0
 25 26  2  0
 25 27  1  0
 27 28  1  0
 28 29  1  0
 29 30  1  0
 30 31  1  0
 31 32  1  0
 32 33  2  0
 32 34  1  0
 34 35  1  0
 35 36  1  0
 36 37  2  0
 37 38  1  0
 38 39  2  0
 39 40  1  0
 40 41  1  0
 40 42  2  0
 39 43  1  0
 43 44  2  0
  6 45  1  0
 45 46  2  0
 46 47  1  0
 46  3  1  0
 24 17  1  0
 31 27  1  0
 44 36  1  0
  1 48  1  0
  1 49  1  0
  1 50  1  0
  4 51  1  0
  5 52  1  0
 10 53  1  0
 11 54  1  6
 12 55  1  0
 12 56  1  0
 15 57  1  0
 16 58  1  0
 16 59  1  0
 18 60  1  0
 19 61  1  0
 23 62  1  0
 24 63  1  0
 28 64  1  0
 28 65  1  0
 29 66  1  0
 29 67  1  0
 30 68  1  0
 30 69  1  0
 31 70  1  1
 34 71  1  0
 35 72  1  0
 35 73  1  0
 37 74  1  0
 38 75  1  0
 41 76  1  0
 41 77  1  0
 42 78  1  0
 42 79  1  0
 43 80  1  0
 44 81  1  0
 45 82  1  0
M  CHG  1  42   1
M  END
>  <meeko>  (4) 
{"is_sidechain": [false], "free_energy": -8.714, "intermolecular_energy": -15.356, "internal_energy": -3.955}

$$$$
3utu_ligand
     RDKit          3D

 82 85  0  0  0  0  0  0  0  0999 V2000
  -18.7500   -7.2630    6.2840 C   0  0  0  0  0  0  0  0  0  0  0  0
  -18.3510   -8.0060    5.1410 O   0  0  0  0  0  0  0  0  0  0  0  0
  -17.0940   -8.5500    5.1340 C   0  0  0  0  0  0  0  0  0  0  0  0
  -16.6490   -9.5290    6.0320 C   0  0  0  0  0  0  0  0  0  0  0  0
  -15.3460  -10.0320    5.9470 C   0  0  0  0  0  0  0  0  0  0  0  0
  -14.4860   -9.5540    4.9560 C   0  0  0  0  0  0  0  0  0  0  0  0
  -12.8430  -10.2030    4.8010 S   0  0  0  0  0  0  0  0  0  0  0  0
  -12.4290  -10.1120    3.4180 O   0  0  0  0  0  0  0  0  0  0  0  0
  -12.8010  -11.4520    5.5240 O   0  0  0  0  0  0  0  0  0  0  0  0
  -11.9430   -9.0910    5.7010 N   0  0  0  0  0  0  0  0  0  0  0  0
  -10.7600   -9.6220    6.4380 C   0  0  1  0  0  0  0  0  0  0  0  0
   -9.5140   -8.7950    6.1060 C   0  0  0  0  0  0  0  0  0  0  0  0
   -9.7880   -7.3200    6.3100 C   0  0  0  0  0  0  0  0  0  0  0  0
  -10.5100   -6.6680    5.5630 O   0  0  0  0  0  0  0  0  0  0  0  0
   -9.1670   -6.7910    7.4180 N   0  0  0  0  0  0  0  0  0  0  0  0
   -9.4370   -5.4370    7.8540 C   0  0  0  0  0  0  0  0  0  0  0  0
   -8.3230   -4.9200    8.7300 C   0  0  0  0  0  0  0  0  0  0  0  0
   -8.4580   -3.7070    9.4190 C   0  0  0  0  0  0  0  0  0  0  0  0
   -7.4110   -3.2210   10.2080 C   0  0  0  0  0  0  0  0  0  0  0  0
   -6.2150   -3.9400   10.3100 C   0  0  0  0  0  0  0  0  0  0  0  0
   -5.1410   -3.4360   11.1150 C   0  0  0  0  0  0  0  0  0  0  0  0
   -4.2700   -3.0210   11.7600 N   0  0  0  0  0  0  0  0  0  0  0  0
   -6.0710   -5.1460    9.6200 C   0  0  0  0  0  0  0  0  0  0  0  0
   -7.1190   -5.6310    8.8330 C   0  0  0  0  0  0  0  0  0  0  0  0
  -10.9460   -9.6960    7.9580 C   0  0  0  0  0  0  0  0  0  0  0  0
  -11.8050   -8.9860    8.4940 O   0  0  0  0  0  0  0  0  0  0  0  0
  -10.1830  -10.5680    8.7070 N   0  0  0  0  0  0  0  0  0  0  0  0
  -10.0920  -12.0160    8.5720 C   0  0  0  0  0  0  0  0  0  0  0  0
   -9.8820  -12.5040    9.9940 C   0  0  0  0  0  0  0  0  0  0  0  0
   -9.0240  -11.4090   10.6040 C   0  0  0  0  0  0  0  0  0  0  0  0
   -9.5440  -10.1190    9.9550 C   0  0  1  0  0  0  0  0  0  0  0  0
   -8.3560   -9.1520    9.7910 C   0  0  0  0  0  0  0  0  0  0  0  0
   -8.3010   -8.0990   10.4260 O   0  0  0  0  0  0  0  0  0  0  0  0
   -7.3090   -9.6150    9.0240 N   0  0  0  0  0  0  0  0  0  0  0  0
   -6.1150   -8.8380    8.8120 C   0  0  0  0  0  0  0  0  0  0  0  0
   -5.4620   -9.1630    7.4890 C   0  0  0  0  0  0  0  0  0  0  0  0
   -4.8970   -8.1400    6.7170 C   0  0  0  0  0  0  0  0  0  0  0  0
   -4.3380   -8.4160    5.4690 C   0  0  0  0  0  0  0  0  0  0  0  0
   -4.3340   -9.7250    4.9700 C   0  0  0  0  0  0  0  0  0  0  0  0
   -3.7710  -10.0050    3.6460 C   0  0  0  0  0  0  0  0  0  0  0  0
   -3.0890  -11.1140    3.4590 N   0  0  0  0  0  0  0  0  0  0  0  0
   -3.9630   -9.1400    2.6750 N   0  0  0  0  0  0  0  0  0  0  0  0
   -4.8940  -10.7530    5.7450 C   0  0  0  0  0  0  0  0  0  0  0  0
   -5.4580  -10.4710    6.9920 C   0  0  0  0  0  0  0  0  0  0  0  0
  -14.9030   -8.5600    4.0690 C   0  0  0  0  0  0  0  0  0  0  0  0
  -16.2050   -8.0690    4.1560 C   0  0  0  0  0  0  0  0  0  0  0  0
  -16.6860   -6.8650    3.0130 Cl  0  0  0  0  0  0  0  0  0  0  0  0
  -18.4582   -7.8064    7.1948 H   0  0  0  0  0  0  0  0  0  0  0  0
  -18.2591   -6.2787    6.2712 H   0  0  0  0  0  0  0  0  0  0  0  0
  -19.8417   -7.1285    6.2712 H   0  0  0  0  0  0  0  0  0  0  0  0
  -17.3294   -9.9053    6.8101 H   0  0  0  0  0  0  0  0  0  0  0  0
  -15.0013  -10.7990    6.6562 H   0  0  0  0  0  0  0  0  0  0  0  0
  -11.7390   -8.2710    5.1230 H   0  0  0  0  0  0  0  0  0  0  0  0
  -10.6362  -10.6596    6.0945 H   0  0  0  0  0  0  0  0  0  0  0  0
   -8.6882   -9.1043    6.7636 H   0  0  0  0  0  0  0  0  0  0  0  0
   -9.2438   -8.9649    5.0533 H   0  0  0  0  0  0  0  0  0  0  0  0
   -8.7250   -7.4110    8.0830 H   0  0  0  0  0  0  0  0  0  0  0  0
   -9.5322   -4.7870    6.9717 H   0  0  0  0  0  0  0  0  0  0  0  0
  -10.3705   -5.4353    8.4358 H   0  0  0  0  0  0  0  0  0  0  0  0
   -9.3934   -3.1338    9.3385 H   0  0  0  0  0  0  0  0  0  0  0  0
   -7.5278   -2.2709   10.7500 H   0  0  0  0  0  0  0  0  0  0  0  0
   -5.1322   -5.7142    9.6962 H   0  0  0  0  0  0  0  0  0  0  0  0
   -6.9982   -6.5795    8.2892 H   0  0  0  0  0  0  0  0  0  0  0  0
  -11.0202  -12.4286    8.1499 H   0  0  0  0  0  0  0  0  0  0  0  0
   -9.2847  -12.3284    7.8932 H   0  0  0  0  0  0  0  0  0  0  0  0
  -10.8403  -12.5986   10.5257 H   0  0  0  0  0  0  0  0  0  0  0  0
   -9.4188  -13.5003   10.0479 H   0  0  0  0  0  0  0  0  0  0  0  0
   -9.1521  -11.3756   11.6960 H   0  0  0  0  0  0  0  0  0  0  0  0
   -7.9499  -11.5669   10.4268 H   0  0  0  0  0  0  0  0  0  0  0  0
  -10.2848   -9.5515   10.5373 H   0  0  0  0  0  0  0  0  0  0  0  0
   -7.4980  -10.3690    8.3670 H   0  0  0  0  0  0  0  0  0  0  0  0
   -6.3779   -7.7700    8.8265 H   0  0  0  0  0  0  0  0  0  0  0  0
   -5.4022   -9.0805    9.6140 H   0  0  0  0  0  0  0  0  0  0  0  0
   -4.8940   -7.1083    7.0987 H   0  0  0  0  0  0  0  0  0  0  0  0
   -3.8983   -7.6020    4.8740 H   0  0  0  0  0  0  0  0  0  0  0  0
   -2.9320  -11.7430    4.2420 H   0  0  0  0  0  0  0  0  0  0  0  0
   -2.6710  -11.3550    2.5720 H   0  0  0  0  0  0  0  0  0  0  0  0
   -4.5140   -8.3040    2.8550 H   0  0  0  0  0  0  0  0  0  0  0  0
   -3.6000   -9.2700    1.7420 H   0  0  0  0  0  0  0  0  0  0  0  0
   -4.8888  -11.7865    5.3684 H   0  0  0  0  0  0  0  0  0  0  0  0
   -5.9019  -11.2828    7.5870 H   0  0  0  0  0  0  0  0  0  0  0  0
  -14.2112   -8.1680    3.3089 H   0  0  0  0  0  0  0  0  0  0  0  0
  1  2  1  0
  2  3  1  0
  3  4  2  0
  4  5  1  0
  5  6  2  0
  6  7  1  0
  7  8  2  0
  7  9  2  0
  7 10  1  0
 10 11  1  0
 11 12  1  0
 12 13  1  0
 13 14  2  0
 13 15  1  0
 15 16  1  0
 16 17  1  0
 17 18  2  0
 18 19  1  0
 19 20  2  0
 20 21  1  0
 21 22  3  0
 20 23  1  0
 23 24  2  0
 11 25  1  0
 25 26  2  0
 25 27  1  0
 27 28  1  0
 28 29  1  0
 29 30  1  0
 30 31  1  0
 31 32  1  0
 32 33  2  0
 32 34  1  0
 34 35  1  0
 35 36  1  0
 36 37  2  0
 37 38  1  0
 38 39  2  0
 39 40  1  0
 40 41  1  0
 40 42  2  0
 39 43  1  0
 43 44  2  0
  6 45  1  0
 45 46  2  0
 46 47  1  0
 46  3  1  0
 24 17  1  0
 31 27  1  0
 44 36  1  0
  1 48  1  0
  1 49  1  0
  1 50  1  0
  4 51  1  0
  5 52  1  0
 10 53  1  0
 11 54  1  6
 12 55  1  0
 12 56  1  0
 15 57  1  0
 16 58  1  0
 16 59  1  0
 18 60  1  0
 19 61  1  0
 23 62  1  0
 24 63  1  0
 28 64  1  0
 28 65  1  0
 29 66  1  0
 29 67  1  0
 30 68  1  0
 30 69  1  0
 31 70  1  1
 34 71  1  0
 35 72  1  0
 35 73  1  0
 37 74  1  0
 38 75  1  0
 41 76  1  0
 41 77  1  0
 42 78  1  0
 42 79  1  0
 43 80  1  0
 44 81  1  0
 45 82  1  0
M  CHG  1  42   1
M  END
>  <meeko>  (5) 
{"is_sidechain": [false], "free_energy": -8.705, "intermolecular_energy": -16.181, "internal_energy": -3.115}

$$$$
3utu_ligand
     RDKit          3D

 82 85  0  0  0  0  0  0  0  0999 V2000
   -3.8270   -8.5820    1.8610 C   0  0  0  0  0  0  0  0  0  0  0  0
   -3.4860   -9.1800    3.1040 O   0  0  0  0  0  0  0  0  0  0  0  0
   -4.3220   -8.9710    4.1690 C   0  0  0  0  0  0  0  0  0  0  0  0
   -4.8850   -7.7320    4.5040 C   0  0  0  0  0  0  0  0  0  0  0  0
   -5.7360   -7.6140    5.6090 C   0  0  0  0  0  0  0  0  0  0  0  0
   -6.0260   -8.7420    6.3790 C   0  0  0  0  0  0  0  0  0  0  0  0
   -7.1310   -8.6280    7.7620 S   0  0  0  0  0  0  0  0  0  0  0  0
   -6.9800   -7.3270    8.3780 O   0  0  0  0  0  0  0  0  0  0  0  0
   -7.0000   -9.8470    8.5230 O   0  0  0  0  0  0  0  0  0  0  0  0
   -8.6420   -8.6860    7.0070 N   0  0  0  0  0  0  0  0  0  0  0  0
   -9.7090   -7.8100    7.5690 C   0  0  1  0  0  0  0  0  0  0  0  0
   -9.9850   -6.6380    6.6200 C   0  0  0  0  0  0  0  0  0  0  0  0
  -10.1690   -5.3560    7.4030 C   0  0  0  0  0  0  0  0  0  0  0  0
  -11.2300   -4.7410    7.4320 O   0  0  0  0  0  0  0  0  0  0  0  0
   -9.0440   -4.9600    8.0870 N   0  0  0  0  0  0  0  0  0  0  0  0
   -9.0800   -3.8420    9.0080 C   0  0  0  0  0  0  0  0  0  0  0  0
   -7.8090   -3.7690    9.8170 C   0  0  0  0  0  0  0  0  0  0  0  0
   -7.6800   -4.4860   11.0150 C   0  0  0  0  0  0  0  0  0  0  0  0
   -6.5100   -4.3910   11.7740 C   0  0  0  0  0  0  0  0  0  0  0  0
   -5.4580   -3.5740   11.3460 C   0  0  0  0  0  0  0  0  0  0  0  0
   -4.2610   -3.4750   12.1290 C   0  0  0  0  0  0  0  0  0  0  0  0
   -3.2980   -3.3900   12.7700 N   0  0  0  0  0  0  0  0  0  0  0  0
   -5.5820   -2.8510   10.1570 C   0  0  0  0  0  0  0  0  0  0  0  0
   -6.7520   -2.9470    9.3990 C   0  0  0  0  0  0  0  0  0  0  0  0
  -11.0190   -8.5380    7.8920 C   0  0  0  0  0  0  0  0  0  0  0  0
  -12.0920   -8.0210    7.5580 O   0  0  0  0  0  0  0  0  0  0  0  0
  -10.9910   -9.7670    8.5180 N   0  0  0  0  0  0  0  0  0  0  0  0
  -11.1760  -10.0520    9.9340 C   0  0  0  0  0  0  0  0  0  0  0  0
  -10.2720  -11.2440   10.1890 C   0  0  0  0  0  0  0  0  0  0  0  0
  -10.3790  -12.0330    8.8960 C   0  0  0  0  0  0  0  0  0  0  0  0
  -10.4900  -10.9560    7.8080 C   0  0  1  0  0  0  0  0  0  0  0  0
  -11.3940  -11.5000    6.6860 C   0  0  0  0  0  0  0  0  0  0  0  0
  -12.1130  -12.4830    6.8680 O   0  0  0  0  0  0  0  0  0  0  0  0
  -11.4600  -10.7300    5.5450 N   0  0  0  0  0  0  0  0  0  0  0  0
  -12.2930  -11.0930    4.4260 C   0  0  0  0  0  0  0  0  0  0  0  0
  -13.4720  -10.1600    4.2810 C   0  0  0  0  0  0  0  0  0  0  0  0
  -13.7810   -9.6100    3.0300 C   0  0  0  0  0  0  0  0  0  0  0  0
  -14.8340   -8.7060    2.8900 C   0  0  0  0  0  0  0  0  0  0  0  0
  -15.6010   -8.3340    4.0020 C   0  0  0  0  0  0  0  0  0  0  0  0
  -16.6880   -7.3630    3.8550 C   0  0  0  0  0  0  0  0  0  0  0  0
  -17.4260   -7.0610    4.9000 N   0  0  0  0  0  0  0  0  0  0  0  0
  -16.8980   -6.8150    2.6780 N   0  0  0  0  0  0  0  0  0  0  0  0
  -15.2970   -8.8900    5.2550 C   0  0  0  0  0  0  0  0  0  0  0  0
  -14.2380   -9.7900    5.3920 C   0  0  0  0  0  0  0  0  0  0  0  0
   -5.4530   -9.9790    6.0770 C   0  0  0  0  0  0  0  0  0  0  0  0
   -4.6130  -10.0900    4.9700 C   0  0  0  0  0  0  0  0  0  0  0  0
   -3.9580  -11.6500    4.6140 Cl  0  0  0  0  0  0  0  0  0  0  0  0
   -4.3644   -7.6396    2.0427 H   0  0  0  0  0  0  0  0  0  0  0  0
   -2.9101   -8.3768    1.2890 H   0  0  0  0  0  0  0  0  0  0  0  0
   -4.4705   -9.2666    1.2890 H   0  0  0  0  0  0  0  0  0  0  0  0
   -4.6564   -6.8457    3.8940 H   0  0  0  0  0  0  0  0  0  0  0  0
   -6.1735   -6.6388    5.8691 H   0  0  0  0  0  0  0  0  0  0  0  0
   -8.5200   -8.5980    5.9950 H   0  0  0  0  0  0  0  0  0  0  0  0
   -9.3189   -7.4450    8.5306 H   0  0  0  0  0  0  0  0  0  0  0  0
   -9.1359   -6.5226    5.9303 H   0  0  0  0  0  0  0  0  0  0  0  0
  -10.9057   -6.8459    6.0552 H   0  0  0  0  0  0  0  0  0  0  0  0
   -8.2570   -5.5920    8.1600 H   0  0  0  0  0  0  0  0  0  0  0  0
   -9.1976   -2.9090    8.4373 H   0  0  0  0  0  0  0  0  0  0  0  0
   -9.9268   -3.9811    9.6962 H   0  0  0  0  0  0  0  0  0  0  0  0
   -8.5046   -5.1272   11.3597 H   0  0  0  0  0  0  0  0  0  0  0  0
   -6.4162   -4.9603   12.7105 H   0  0  0  0  0  0  0  0  0  0  0  0
   -4.7583   -2.2059    9.8174 H   0  0  0  0  0  0  0  0  0  0  0  0
   -6.8450   -2.3725    8.4656 H   0  0  0  0  0  0  0  0  0  0  0  0
  -10.8722   -9.1921   10.5490 H   0  0  0  0  0  0  0  0  0  0  0  0
  -12.2261  -10.2539   10.1919 H   0  0  0  0  0  0  0  0  0  0  0  0
   -9.2360  -10.9230   10.3723 H   0  0  0  0  0  0  0  0  0  0  0  0
  -10.5593  -11.8251   11.0777 H   0  0  0  0  0  0  0  0  0  0  0  0
   -9.4836  -12.6530    8.7417 H   0  0  0  0  0  0  0  0  0  0  0  0
  -11.2339  -12.7252    8.8935 H   0  0  0  0  0  0  0  0  0  0  0  0
   -9.5524  -10.6845    7.3008 H   0  0  0  0  0  0  0  0  0  0  0  0
  -10.7030  -10.0740    5.3690 H   0  0  0  0  0  0  0  0  0  0  0  0
  -11.6914  -11.0528    3.5060 H   0  0  0  0  0  0  0  0  0  0  0  0
  -12.6787  -12.1082    4.6009 H   0  0  0  0  0  0  0  0  0  0  0  0
  -13.1869   -9.8941    2.1489 H   0  0  0  0  0  0  0  0  0  0  0  0
  -15.0636   -8.2827    1.9010 H   0  0  0  0  0  0  0  0  0  0  0  0
  -17.2560   -7.5300    5.7850 H   0  0  0  0  0  0  0  0  0  0  0  0
  -18.1930   -6.4060    4.8550 H   0  0  0  0  0  0  0  0  0  0  0  0
  -16.2910   -7.0600    1.9000 H   0  0  0  0  0  0  0  0  0  0  0  0
  -17.6300   -6.1410    2.5080 H   0  0  0  0  0  0  0  0  0  0  0  0
  -15.8972   -8.6148    6.1348 H   0  0  0  0  0  0  0  0  0  0  0  0
  -14.0042  -10.2113    6.3809 H   0  0  0  0  0  0  0  0  0  0  0  0
   -5.6622  -10.8568    6.7061 H   0  0  0  0  0  0  0  0  0  0  0  0
  1  2  1  0
  2  3  1  0
  3  4  2  0
  4  5  1  0
  5  6  2  0
  6  7  1  0
  7  8  2  0
  7  9  2  0
  7 10  1  0
 10 11  1  0
 11 12  1  0
 12 13  1  0
 13 14  2  0
 13 15  1  0
 15 16  1  0
 16 17  1  0
 17 18  2  0
 18 19  1  0
 19 20  2  0
 20 21  1  0
 21 22  3  0
 20 23  1  0
 23 24  2  0
 11 25  1  0
 25 26  2  0
 25 27  1  0
 27 28  1  0
 28 29  1  0
 29 30  1  0
 30 31  1  0
 31 32  1  0
 32 33  2  0
 32 34  1  0
 34 35  1  0
 35 36  1  0
 36 37  2  0
 37 38  1  0
 38 39  2  0
 39 40  1  0
 40 41  1  0
 40 42  2  0
 39 43  1  0
 43 44  2  0
  6 45  1  0
 45 46  2  0
 46 47  1  0
 46  3  1  0
 24 17  1  0
 31 27  1  0
 44 36  1  0
  1 48  1  0
  1 49  1  0
  1 50  1  0
  4 51  1  0
  5 52  1  0
 10 53  1  0
 11 54  1  1
 12 55  1  0
 12 56  1  0
 15 57  1  0
 16 58  1  0
 16 59  1  0
 18 60  1  0
 19 61  1  0
 23 62  1  0
 24 63  1  0
 28 64  1  0
 28 65  1  0
 29 66  1  0
 29 67  1  0
 30 68  1  0
 30 69  1  0
 31 70  1  6
 34 71  1  0
 35 72  1  0
 35 73  1  0
 37 74  1  0
 38 75  1  0
 41 76  1  0
 41 77  1  0
 42 78  1  0
 42 79  1  0
 43 80  1  0
 44 81  1  0
 45 82  1  0
M  CHG  1  42   1
M  END
>  <meeko>  (6) 
{"is_sidechain": [false], "free_energy": -8.688, "intermolecular_energy": -16.897, "internal_energy": -2.367}

$$$$
3utu_ligand
     RDKit          3D

 82 85  0  0  0  0  0  0  0  0999 V2000
   -4.9200   -2.9840    9.8350 C   0  0  0  0  0  0  0  0  0  0  0  0
   -5.7550   -3.9510   10.4560 O   0  0  0  0  0  0  0  0  0  0  0  0
   -6.4790   -4.7890    9.6490 C   0  0  0  0  0  0  0  0  0  0  0  0
   -6.0060   -6.0060    9.1420 C   0  0  0  0  0  0  0  0  0  0  0  0
   -6.8210   -6.8010    8.3280 C   0  0  0  0  0  0  0  0  0  0  0  0
   -8.1160   -6.3760    8.0230 C   0  0  0  0  0  0  0  0  0  0  0  0
   -9.1820   -7.3830    7.0260 S   0  0  0  0  0  0  0  0  0  0  0  0
   -8.3850   -8.0780    6.0390 O   0  0  0  0  0  0  0  0  0  0  0  0
  -10.3160   -6.5720    6.6510 O   0  0  0  0  0  0  0  0  0  0  0  0
   -9.7450   -8.5140    8.1490 N   0  0  0  0  0  0  0  0  0  0  0  0
  -10.0610   -9.8750    7.6300 C   0  0  1  0  0  0  0  0  0  0  0  0
   -9.2180  -10.9280    8.3580 C   0  0  0  0  0  0  0  0  0  0  0  0
   -7.8020  -10.4300    8.5530 C   0  0  0  0  0  0  0  0  0  0  0  0
   -7.3930   -9.9900    9.6220 O   0  0  0  0  0  0  0  0  0  0  0  0
   -7.0200  -10.5350    7.4260 N   0  0  0  0  0  0  0  0  0  0  0  0
   -5.6000  -10.2500    7.4700 C   0  0  0  0  0  0  0  0  0  0  0  0
   -5.0750   -9.9190    6.0960 C   0  0  0  0  0  0  0  0  0  0  0  0
   -4.4740  -10.9060    5.3020 C   0  0  0  0  0  0  0  0  0  0  0  0
   -3.9640  -10.5860    4.0400 C   0  0  0  0  0  0  0  0  0  0  0  0
   -4.0440   -9.2740    3.5610 C   0  0  0  0  0  0  0  0  0  0  0  0
   -3.5150   -8.9480    2.2690 C   0  0  0  0  0  0  0  0  0  0  0  0
   -3.0780   -8.6860    1.2270 N   0  0  0  0  0  0  0  0  0  0  0  0
   -4.6340   -8.2840    4.3500 C   0  0  0  0  0  0  0  0  0  0  0  0
   -5.1440   -8.6050    5.6100 C   0  0  0  0  0  0  0  0  0  0  0  0
  -11.5460  -10.2510    7.7090 C   0  0  0  0  0  0  0  0  0  0  0  0
  -12.2680   -9.6770    8.5330 O   0  0  0  0  0  0  0  0  0  0  0  0
  -12.0680  -11.1950    6.8490 N   0  0  0  0  0  0  0  0  0  0  0  0
  -12.6500  -12.4870    7.1880 C   0  0  0  0  0  0  0  0  0  0  0  0
  -12.2730  -13.3770    6.0180 C   0  0  0  0  0  0  0  0  0  0  0  0
  -12.3420  -12.4270    4.8350 C   0  0  0  0  0  0  0  0  0  0  0  0
  -11.8420  -11.0900    5.3980 C   0  0  1  0  0  0  0  0  0  0  0  0
  -12.5990   -9.9550    4.6810 C   0  0  0  0  0  0  0  0  0  0  0  0
  -12.5110   -8.7890    5.0660 O   0  0  0  0  0  0  0  0  0  0  0  0
  -13.2360  -10.3070    3.5110 N   0  0  0  0  0  0  0  0  0  0  0  0
  -13.9530   -9.3450    2.7120 C   0  0  0  0  0  0  0  0  0  0  0  0
  -15.3210   -9.0540    3.2810 C   0  0  0  0  0  0  0  0  0  0  0  0
  -15.7990   -7.7380    3.3180 C   0  0  0  0  0  0  0  0  0  0  0  0
  -17.0380   -7.4460    3.8880 C   0  0  0  0  0  0  0  0  0  0  0  0
  -17.8250   -8.4690    4.4320 C   0  0  0  0  0  0  0  0  0  0  0  0
  -19.1140   -8.1530    5.0550 C   0  0  0  0  0  0  0  0  0  0  0  0
  -20.0400   -9.0840    5.1230 N   0  0  0  0  0  0  0  0  0  0  0  0
  -19.3120   -6.9440    5.5330 N   0  0  0  0  0  0  0  0  0  0  0  0
  -17.3520   -9.7890    4.3900 C   0  0  0  0  0  0  0  0  0  0  0  0
  -16.1070  -10.0770    3.8240 C   0  0  0  0  0  0  0  0  0  0  0  0
   -8.5950   -5.1530    8.4980 C   0  0  0  0  0  0  0  0  0  0  0  0
   -7.7790   -4.3700    9.3150 C   0  0  0  0  0  0  0  0  0  0  0  0
   -8.4310   -2.8830    9.9070 Cl  0  0  0  0  0  0  0  0  0  0  0  0
   -4.4082   -2.3913   10.6075 H   0  0  0  0  0  0  0  0  0  0  0  0
   -4.1728   -3.4930    9.2083 H   0  0  0  0  0  0  0  0  0  0  0  0
   -5.5324   -2.3190    9.2083 H   0  0  0  0  0  0  0  0  0  0  0  0
   -4.9864   -6.3394    9.3854 H   0  0  0  0  0  0  0  0  0  0  0  0
   -6.4438   -7.7549    7.9308 H   0  0  0  0  0  0  0  0  0  0  0  0
   -9.1330   -8.5120    8.9690 H   0  0  0  0  0  0  0  0  0  0  0  0
   -9.8087   -9.8518    6.5596 H   0  0  0  0  0  0  0  0  0  0  0  0
   -9.6673  -11.1357    9.3403 H   0  0  0  0  0  0  0  0  0  0  0  0
   -9.1925  -11.8453    7.7515 H   0  0  0  0  0  0  0  0  0  0  0  0
   -7.3610  -11.0570    6.6300 H   0  0  0  0  0  0  0  0  0  0  0  0
   -5.4250   -9.3940    8.1383 H   0  0  0  0  0  0  0  0  0  0  0  0
   -5.0739  -11.1416    7.8419 H   0  0  0  0  0  0  0  0  0  0  0  0
   -4.4032  -11.9387    5.6742 H   0  0  0  0  0  0  0  0  0  0  0  0
   -3.4986  -11.3680    3.4221 H   0  0  0  0  0  0  0  0  0  0  0  0
   -4.6971   -7.2505    3.9787 H   0  0  0  0  0  0  0  0  0  0  0  0
   -5.6044   -7.8195    6.2274 H   0  0  0  0  0  0  0  0  0  0  0  0
  -12.2250  -12.8734    8.1262 H   0  0  0  0  0  0  0  0  0  0  0  0
  -13.7372  -12.4334    7.3465 H   0  0  0  0  0  0  0  0  0  0  0  0
  -11.2583  -13.7837    6.1406 H   0  0  0  0  0  0  0  0  0  0  0  0
  -12.9278  -14.2543    5.9101 H   0  0  0  0  0  0  0  0  0  0  0  0
  -11.6926  -12.7736    4.0176 H   0  0  0  0  0  0  0  0  0  0  0  0
  -13.3544  -12.3540    4.4110 H   0  0  0  0  0  0  0  0  0  0  0  0
  -10.7787  -10.8641    5.2299 H   0  0  0  0  0  0  0  0  0  0  0  0
  -13.4550  -11.2900    3.3650 H   0  0  0  0  0  0  0  0  0  0  0  0
  -13.3753   -8.4096    2.6770 H   0  0  0  0  0  0  0  0  0  0  0  0
  -14.0836   -9.7661    1.7042 H   0  0  0  0  0  0  0  0  0  0  0  0
  -15.1907   -6.9260    2.8929 H   0  0  0  0  0  0  0  0  0  0  0  0
  -17.3989   -6.4071    3.9104 H   0  0  0  0  0  0  0  0  0  0  0  0
  -19.8630   -9.9970    4.7130 H   0  0  0  0  0  0  0  0  0  0  0  0
  -20.9490   -8.9210    5.5330 H   0  0  0  0  0  0  0  0  0  0  0  0
  -18.5630   -6.2590    5.4790 H   0  0  0  0  0  0  0  0  0  0  0  0
  -20.1760   -6.6610    5.9710 H   0  0  0  0  0  0  0  0  0  0  0  0
  -17.9649  -10.6026    4.8052 H   0  0  0  0  0  0  0  0  0  0  0  0
  -15.7424  -11.1146    3.8051 H   0  0  0  0  0  0  0  0  0  0  0  0
   -9.6056   -4.8106    8.2306 H   0  0  0  0  0  0  0  0  0  0  0  0
  1  2  1  0
  2  3  1  0
  3  4  2  0
  4  5  1  0
  5  6  2  0
  6  7  1  0
  7  8  2  0
  7  9  2  0
  7 10  1  0
 10 11  1  0
 11 12  1  0
 12 13  1  0
 13 14  2  0
 13 15  1  0
 15 16  1  0
 16 17  1  0
 17 18  2  0
 18 19  1  0
 19 20  2  0
 20 21  1  0
 21 22  3  0
 20 23  1  0
 23 24  2  0
 11 25  1  0
 25 26  2  0
 25 27  1  0
 27 28  1  0
 28 29  1  0
 29 30  1  0
 30 31  1  0
 31 32  1  0
 32 33  2  0
 32 34  1  0
 34 35  1  0
 35 36  1  0
 36 37  2  0
 37 38  1  0
 38 39  2  0
 39 40  1  0
 40 41  1  0
 40 42  2  0
 39 43  1  0
 43 44  2  0
  6 45  1  0
 45 46  2  0
 46 47  1  0
 46  3  1  0
 24 17  1  0
 31 27  1  0
 44 36  1  0
  1 48  1  0
  1 49  1  0
  1 50  1  0
  4 51  1  0
  5 52  1  0
 10 53  1  0
 11 54  1  6
 12 55  1  0
 12 56  1  0
 15 57  1  0
 16 58  1  0
 16 59  1  0
 18 60  1  0
 19 61  1  0
 23 62  1  0
 24 63  1  0
 28 64  1  0
 28 65  1  0
 29 66  1  0
 29 67  1  0
 30 68  1  0
 30 69  1  0
 31 70  1  1
 34 71  1  0
 35 72  1  0
 35 73  1  0
 37 74  1  0
 38 75  1  0
 41 76  1  0
 41 77  1  0
 42 78  1  0
 42 79  1  0
 43 80  1  0
 44 81  1  0
 45 82  1  0
M  CHG  1  42   1
M  END
>  <meeko>  (7) 
{"is_sidechain": [false], "free_energy": -8.658, "intermolecular_energy": -16.099, "internal_energy": -3.111}

$$$$
3utu_ligand
     RDKit          3D

 82 85  0  0  0  0  0  0  0  0999 V2000
  -16.6380   -7.0340    3.4470 C   0  0  0  0  0  0  0  0  0  0  0  0
  -16.1070   -8.2280    2.8890 O   0  0  0  0  0  0  0  0  0  0  0  0
  -15.3790   -9.0510    3.7070 C   0  0  0  0  0  0  0  0  0  0  0  0
  -15.7650   -9.4270    5.0000 C   0  0  0  0  0  0  0  0  0  0  0  0
  -14.9590  -10.2790    5.7630 C   0  0  0  0  0  0  0  0  0  0  0  0
  -13.7630  -10.7600    5.2260 C   0  0  0  0  0  0  0  0  0  0  0  0
  -12.7420  -11.8730    6.1570 S   0  0  0  0  0  0  0  0  0  0  0  0
  -12.3820  -12.9940    5.3170 O   0  0  0  0  0  0  0  0  0  0  0  0
  -13.3680  -12.0600    7.4440 O   0  0  0  0  0  0  0  0  0  0  0  0
  -11.3590  -10.9390    6.4210 N   0  0  0  0  0  0  0  0  0  0  0  0
  -11.5490   -9.6410    7.1300 C   0  0  1  0  0  0  0  0  0  0  0  0
  -10.9080   -9.6990    8.5210 C   0  0  0  0  0  0  0  0  0  0  0  0
  -10.0230  -10.9210    8.6450 C   0  0  0  0  0  0  0  0  0  0  0  0
  -10.4440  -12.0130    9.0120 O   0  0  0  0  0  0  0  0  0  0  0  0
   -8.7130  -10.6920    8.2910 N   0  0  0  0  0  0  0  0  0  0  0  0
   -7.7600  -11.7790    8.2020 C   0  0  0  0  0  0  0  0  0  0  0  0
   -7.0100  -11.9450    9.5000 C   0  0  0  0  0  0  0  0  0  0  0  0
   -7.3630  -12.9540   10.4070 C   0  0  0  0  0  0  0  0  0  0  0  0
   -6.6820  -13.0850   11.6210 C   0  0  0  0  0  0  0  0  0  0  0  0
   -5.6440  -12.2040   11.9440 C   0  0  0  0  0  0  0  0  0  0  0  0
   -4.9500  -12.3380   13.1920 C   0  0  0  0  0  0  0  0  0  0  0  0
   -4.3980  -12.4430   14.2070 N   0  0  0  0  0  0  0  0  0  0  0  0
   -5.2910  -11.1920   11.0480 C   0  0  0  0  0  0  0  0  0  0  0  0
   -5.9730  -11.0620    9.8350 C   0  0  0  0  0  0  0  0  0  0  0  0
  -11.0240   -8.4210    6.3650 C   0  0  0  0  0  0  0  0  0  0  0  0
  -10.7380   -8.5410    5.1670 O   0  0  0  0  0  0  0  0  0  0  0  0
  -10.9030   -7.2030    7.0020 N   0  0  0  0  0  0  0  0  0  0  0  0
  -11.9420   -6.4530    7.6950 C   0  0  0  0  0  0  0  0  0  0  0  0
  -11.5740   -5.0020    7.4430 C   0  0  0  0  0  0  0  0  0  0  0  0
  -10.0560   -5.0300    7.4560 C   0  0  0  0  0  0  0  0  0  0  0  0
   -9.7000   -6.3760    6.8120 C   0  0  1  0  0  0  0  0  0  0  0  0
   -8.4130   -6.9000    7.4770 C   0  0  0  0  0  0  0  0  0  0  0  0
   -8.4470   -7.4710    8.5680 O   0  0  0  0  0  0  0  0  0  0  0  0
   -7.2710   -6.8290    6.7100 N   0  0  0  0  0  0  0  0  0  0  0  0
   -6.0000   -7.3140    7.1840 C   0  0  0  0  0  0  0  0  0  0  0  0
   -5.3940   -8.3180    6.2330 C   0  0  0  0  0  0  0  0  0  0  0  0
   -5.4800   -9.6880    6.5120 C   0  0  0  0  0  0  0  0  0  0  0  0
   -4.8800  -10.6260    5.6710 C   0  0  0  0  0  0  0  0  0  0  0  0
   -4.1810  -10.2080    4.5310 C   0  0  0  0  0  0  0  0  0  0  0  0
   -3.5280  -11.1960    3.6660 C   0  0  0  0  0  0  0  0  0  0  0  0
   -2.6420  -10.7900    2.7840 N   0  0  0  0  0  0  0  0  0  0  0  0
   -3.8460  -12.4650    3.7950 N   0  0  0  0  0  0  0  0  0  0  0  0
   -4.0990   -8.8360    4.2460 C   0  0  0  0  0  0  0  0  0  0  0  0
   -4.6960   -7.9010    5.0940 C   0  0  0  0  0  0  0  0  0  0  0  0
  -13.3480  -10.3760    3.9500 C   0  0  0  0  0  0  0  0  0  0  0  0
  -14.1610   -9.5320    3.1930 C   0  0  0  0  0  0  0  0  0  0  0  0
  -13.6230   -9.1140    1.6040 Cl  0  0  0  0  0  0  0  0  0  0  0  0
  -16.6095   -7.0980    4.5448 H   0  0  0  0  0  0  0  0  0  0  0  0
  -16.0371   -6.1749    3.1141 H   0  0  0  0  0  0  0  0  0  0  0  0
  -17.6784   -6.9048    3.1141 H   0  0  0  0  0  0  0  0  0  0  0  0
  -16.7094   -9.0494    5.4189 H   0  0  0  0  0  0  0  0  0  0  0  0
  -15.2654  -10.5680    6.7792 H   0  0  0  0  0  0  0  0  0  0  0  0
  -10.6220  -11.5270    6.8190 H   0  0  0  0  0  0  0  0  0  0  0  0
  -12.6373   -9.5034    7.2121 H   0  0  0  0  0  0  0  0  0  0  0  0
  -10.3014   -8.7950    8.6783 H   0  0  0  0  0  0  0  0  0  0  0  0
  -11.7040   -9.7572    9.2780 H   0  0  0  0  0  0  0  0  0  0  0  0
   -8.4650   -9.8210    7.8400 H   0  0  0  0  0  0  0  0  0  0  0  0
   -8.2975  -12.7115    7.9749 H   0  0  0  0  0  0  0  0  0  0  0  0
   -7.0372  -11.5483    7.4055 H   0  0  0  0  0  0  0  0  0  0  0  0
   -8.1812  -13.6472   10.1619 H   0  0  0  0  0  0  0  0  0  0  0  0
   -6.9630  -13.8829   12.3242 H   0  0  0  0  0  0  0  0  0  0  0  0
   -4.4757  -10.4970   11.2973 H   0  0  0  0  0  0  0  0  0  0  0  0
   -5.6938  -10.2595    9.1364 H   0  0  0  0  0  0  0  0  0  0  0  0
  -12.9341   -6.6831    7.2794 H   0  0  0  0  0  0  0  0  0  0  0  0
  -11.9984   -6.6966    8.7662 H   0  0  0  0  0  0  0  0  0  0  0  0
  -11.9552   -4.6604    6.4694 H   0  0  0  0  0  0  0  0  0  0  0  0
  -12.0021   -4.3103    8.1835 H   0  0  0  0  0  0  0  0  0  0  0  0
   -9.6452   -4.1955    6.8687 H   0  0  0  0  0  0  0  0  0  0  0  0
   -9.6409   -4.9243    8.4692 H   0  0  0  0  0  0  0  0  0  0  0  0
   -9.4657   -6.3492    5.7376 H   0  0  0  0  0  0  0  0  0  0  0  0
   -7.2580   -6.1690    5.9350 H   0  0  0  0  0  0  0  0  0  0  0  0
   -5.3111   -6.4630    7.2902 H   0  0  0  0  0  0  0  0  0  0  0  0
   -6.1629   -7.8131    8.1506 H   0  0  0  0  0  0  0  0  0  0  0  0
   -6.0266  -10.0282    7.4039 H   0  0  0  0  0  0  0  0  0  0  0  0
   -4.9562  -11.6983    5.9041 H   0  0  0  0  0  0  0  0  0  0  0  0
   -2.4470   -9.7980    2.6900 H   0  0  0  0  0  0  0  0  0  0  0  0
   -2.1680  -11.4240    2.1560 H   0  0  0  0  0  0  0  0  0  0  0  0
   -4.5220  -12.7390    4.5040 H   0  0  0  0  0  0  0  0  0  0  0  0
   -3.4360  -13.1940    3.2300 H   0  0  0  0  0  0  0  0  0  0  0  0
   -3.5611   -8.4953    3.3490 H   0  0  0  0  0  0  0  0  0  0  0  0
   -4.6170   -6.8280    4.8649 H   0  0  0  0  0  0  0  0  0  0  0  0
  -12.3901  -10.7350    3.5455 H   0  0  0  0  0  0  0  0  0  0  0  0
  1  2  1  0
  2  3  1  0
  3  4  2  0
  4  5  1  0
  5  6  2  0
  6  7  1  0
  7  8  2  0
  7  9  2  0
  7 10  1  0
 10 11  1  0
 11 12  1  0
 12 13  1  0
 13 14  2  0
 13 15  1  0
 15 16  1  0
 16 17  1  0
 17 18  2  0
 18 19  1  0
 19 20  2  0
 20 21  1  0
 21 22  3  0
 20 23  1  0
 23 24  2  0
 11 25  1  0
 25 26  2  0
 25 27  1  0
 27 28  1  0
 28 29  1  0
 29 30  1  0
 30 31  1  0
 31 32  1  0
 32 33  2  0
 32 34  1  0
 34 35  1  0
 35 36  1  0
 36 37  2  0
 37 38  1  0
 38 39  2  0
 39 40  1  0
 40 41  1  0
 40 42  2  0
 39 43  1  0
 43 44  2  0
  6 45  1  0
 45 46  2  0
 46 47  1  0
 46  3  1  0
 24 17  1  0
 31 27  1  0
 44 36  1  0
  1 48  1  0
  1 49  1  0
  1 50  1  0
  4 51  1  0
  5 52  1  0
 10 53  1  0
 11 54  1  1
 12 55  1  0
 12 56  1  0
 15 57  1  0
 16 58  1  0
 16 59  1  0
 18 60  1  0
 19 61  1  0
 23 62  1  0
 24 63  1  0
 28 64  1  0
 28 65  1  0
 29 66  1  0
 29 67  1  0
 30 68  1  0
 30 69  1  0
 31 70  1  6
 34 71  1  0
 35 72  1  0
 35 73  1  0
 37 74  1  0
 38 75  1  0
 41 76  1  0
 41 77  1  0
 42 78  1  0
 42 79  1  0
 43 80  1  0
 44 81  1  0
 45 82  1  0
M  CHG  1  42   1
M  END
>  <meeko>  (8) 
{"is_sidechain": [false], "free_energy": -8.566, "intermolecular_energy": -15.34, "internal_energy": -3.704}

$$$$
3utu_ligand
     RDKit          3D

 82 85  0  0  0  0  0  0  0  0999 V2000
   -9.4110   -2.8850   15.7230 C   0  0  0  0  0  0  0  0  0  0  0  0
   -8.1600   -2.5540   15.1370 O   0  0  0  0  0  0  0  0  0  0  0  0
   -7.9000   -3.0130   13.8730 C   0  0  0  0  0  0  0  0  0  0  0  0
   -8.1960   -4.3060   13.4220 C   0  0  0  0  0  0  0  0  0  0  0  0
   -7.9000   -4.6860   12.1090 C   0  0  0  0  0  0  0  0  0  0  0  0
   -7.3070   -3.7660   11.2420 C   0  0  0  0  0  0  0  0  0  0  0  0
   -6.9560   -4.2100    9.5600 S   0  0  0  0  0  0  0  0  0  0  0  0
   -5.7120   -4.9470    9.5190 O   0  0  0  0  0  0  0  0  0  0  0  0
   -7.1690   -3.0350    8.7500 O   0  0  0  0  0  0  0  0  0  0  0  0
   -8.2190   -5.2770    9.2110 N   0  0  0  0  0  0  0  0  0  0  0  0
   -7.8390   -6.6160    8.6750 C   0  0  1  0  0  0  0  0  0  0  0  0
   -8.2290   -7.7140    9.6690 C   0  0  0  0  0  0  0  0  0  0  0  0
   -7.4420   -8.9780    9.3980 C   0  0  0  0  0  0  0  0  0  0  0  0
   -7.9200  -10.1000    9.5320 O   0  0  0  0  0  0  0  0  0  0  0  0
   -6.1550   -8.7470    8.9730 N   0  0  0  0  0  0  0  0  0  0  0  0
   -5.3080   -9.8320    8.5220 C   0  0  0  0  0  0  0  0  0  0  0  0
   -4.8880   -9.6270    7.0880 C   0  0  0  0  0  0  0  0  0  0  0  0
   -4.5850   -8.3460    6.6060 C   0  0  0  0  0  0  0  0  0  0  0  0
   -4.2240   -8.1600    5.2690 C   0  0  0  0  0  0  0  0  0  0  0  0
   -4.1670   -9.2520    4.3970 C   0  0  0  0  0  0  0  0  0  0  0  0
   -3.8000   -9.0570    3.0240 C   0  0  0  0  0  0  0  0  0  0  0  0
   -3.5130   -8.8940    1.9120 N   0  0  0  0  0  0  0  0  0  0  0  0
   -4.4730  -10.5300    4.8680 C   0  0  0  0  0  0  0  0  0  0  0  0
   -4.8350  -10.7150    6.2050 C   0  0  0  0  0  0  0  0  0  0  0  0
   -8.4240   -6.9320    7.2940 C   0  0  0  0  0  0  0  0  0  0  0  0
   -7.7320   -7.5470    6.4740 O   0  0  0  0  0  0  0  0  0  0  0  0
   -9.7170   -6.5590    6.9880 N   0  0  0  0  0  0  0  0  0  0  0  0
  -10.1660   -5.3160    6.3740 C   0  0  0  0  0  0  0  0  0  0  0  0
  -11.5200   -5.0620    7.0120 C   0  0  0  0  0  0  0  0  0  0  0  0
  -12.0850   -6.4620    7.1770 C   0  0  0  0  0  0  0  0  0  0  0  0
  -10.8600   -7.3230    7.5160 C   0  0  1  0  0  0  0  0  0  0  0  0
  -11.0730   -8.7210    6.9060 C   0  0  0  0  0  0  0  0  0  0  0  0
  -11.0320   -9.7340    7.6060 O   0  0  0  0  0  0  0  0  0  0  0  0
  -11.4610   -8.7450    5.5850 N   0  0  0  0  0  0  0  0  0  0  0  0
  -11.7330   -9.9780    4.8900 C   0  0  0  0  0  0  0  0  0  0  0  0
  -13.1940  -10.1050    4.5270 C   0  0  0  0  0  0  0  0  0  0  0  0
  -14.0560  -10.8500    5.3430 C   0  0  0  0  0  0  0  0  0  0  0  0
  -15.3950  -11.0210    4.9940 C   0  0  0  0  0  0  0  0  0  0  0  0
  -15.9000  -10.4480    3.8190 C   0  0  0  0  0  0  0  0  0  0  0  0
  -17.3010  -10.6540    3.4430 C   0  0  0  0  0  0  0  0  0  0  0  0
  -17.6110  -11.6480    2.6390 N   0  0  0  0  0  0  0  0  0  0  0  0
  -18.2160   -9.8400    3.9210 N   0  0  0  0  0  0  0  0  0  0  0  0
  -15.0390   -9.6950    3.0040 C   0  0  0  0  0  0  0  0  0  0  0  0
  -13.6970   -9.5310    3.3540 C   0  0  0  0  0  0  0  0  0  0  0  0
   -6.9800   -2.4810   11.6800 C   0  0  0  0  0  0  0  0  0  0  0  0
   -7.2860   -2.1080   12.9890 C   0  0  0  0  0  0  0  0  0  0  0  0
   -6.8950   -0.4960   13.4740 Cl  0  0  0  0  0  0  0  0  0  0  0  0
   -9.3203   -2.8610   16.8190 H   0  0  0  0  0  0  0  0  0  0  0  0
  -10.1704   -2.1569   15.4019 H   0  0  0  0  0  0  0  0  0  0  0  0
   -9.7110   -3.8934   15.4019 H   0  0  0  0  0  0  0  0  0  0  0  0
   -8.6651   -5.0283   14.1063 H   0  0  0  0  0  0  0  0  0  0  0  0
   -8.1329   -5.7033   11.7615 H   0  0  0  0  0  0  0  0  0  0  0  0
   -8.8640   -5.3140   10.0050 H   0  0  0  0  0  0  0  0  0  0  0  0
   -6.7473   -6.5850    8.5435 H   0  0  0  0  0  0  0  0  0  0  0  0
   -8.0177   -7.3682   10.6916 H   0  0  0  0  0  0  0  0  0  0  0  0
   -9.3014   -7.9315    9.5563 H   0  0  0  0  0  0  0  0  0  0  0  0
   -5.8750   -7.8080    8.7230 H   0  0  0  0  0  0  0  0  0  0  0  0
   -4.4110   -9.8764    9.1571 H   0  0  0  0  0  0  0  0  0  0  0  0
   -5.8748  -10.7722    8.5911 H   0  0  0  0  0  0  0  0  0  0  0  0
   -4.6317   -7.4816    7.2847 H   0  0  0  0  0  0  0  0  0  0  0  0
   -3.9839   -7.1515    4.9011 H   0  0  0  0  0  0  0  0  0  0  0  0
   -4.4291  -11.3921    4.1862 H   0  0  0  0  0  0  0  0  0  0  0  0
   -5.0807  -11.7238    6.5682 H   0  0  0  0  0  0  0  0  0  0  0  0
   -9.4683   -4.4952    6.5965 H   0  0  0  0  0  0  0  0  0  0  0  0
  -10.2191   -5.3796    5.2771 H   0  0  0  0  0  0  0  0  0  0  0  0
  -11.4112   -4.5618    7.9856 H   0  0  0  0  0  0  0  0  0  0  0  0
  -12.1648   -4.4009    6.4143 H   0  0  0  0  0  0  0  0  0  0  0  0
  -12.8214   -6.4921    7.9936 H   0  0  0  0  0  0  0  0  0  0  0  0
  -12.6118   -6.8132    6.2775 H   0  0  0  0  0  0  0  0  0  0  0  0
  -10.6844   -7.5114    8.5854 H   0  0  0  0  0  0  0  0  0  0  0  0
  -11.2680   -7.9220    5.0170 H   0  0  0  0  0  0  0  0  0  0  0  0
  -11.1330  -10.0075    3.9685 H   0  0  0  0  0  0  0  0  0  0  0  0
  -11.4720  -10.8124    5.5576 H   0  0  0  0  0  0  0  0  0  0  0  0
  -13.6723  -11.3045    6.2683 H   0  0  0  0  0  0  0  0  0  0  0  0
  -16.0589  -11.6091    5.6447 H   0  0  0  0  0  0  0  0  0  0  0  0
  -16.8730  -12.2360    2.2630 H   0  0  0  0  0  0  0  0  0  0  0  0
  -18.5570  -11.8320    2.3400 H   0  0  0  0  0  0  0  0  0  0  0  0
  -17.9370   -9.0960    4.5560 H   0  0  0  0  0  0  0  0  0  0  0  0
  -19.1970   -9.9240    3.7000 H   0  0  0  0  0  0  0  0  0  0  0  0
  -15.4242   -9.2313    2.0839 H   0  0  0  0  0  0  0  0  0  0  0  0
  -13.0305   -8.9464    2.7029 H   0  0  0  0  0  0  0  0  0  0  0  0
   -6.4865   -1.7707   11.0003 H   0  0  0  0  0  0  0  0  0  0  0  0
  1  2  1  0
  2  3  1  0
  3  4  2  0
  4  5  1  0
  5  6  2  0
  6  7  1  0
  7  8  2  0
  7  9  2  0
  7 10  1  0
 10 11  1  0
 11 12  1  0
 12 13  1  0
 13 14  2  0
 13 15  1  0
 15 16  1  0
 16 17  1  0
 17 18  2  0
 18 19  1  0
 19 20  2  0
 20 21  1  0
 21 22  3  0
 20 23  1  0
 23 24  2  0
 11 25  1  0
 25 26  2  0
 25 27  1  0
 27 28  1  0
 28 29  1  0
 29 30  1  0
 30 31  1  0
 31 32  1  0
 32 33  2  0
 32 34  1  0
 34 35  1  0
 35 36  1  0
 36 37  2  0
 37 38  1  0
 38 39  2  0
 39 40  1  0
 40 41  1  0
 40 42  2  0
 39 43  1  0
 43 44  2  0
  6 45  1  0
 45 46  2  0
 46 47  1  0
 46  3  1  0
 24 17  1  0
 31 27  1  0
 44 36  1  0
  1 48  1  0
  1 49  1  0
  1 50  1  0
  4 51  1  0
  5 52  1  0
 10 53  1  0
 11 54  1  6
 12 55  1  0
 12 56  1  0
 15 57  1  0
 16 58  1  0
 16 59  1  0
 18 60  1  0
 19 61  1  0
 23 62  1  0
 24 63  1  0
 28 64  1  0
 28 65  1  0
 29 66  1  0
 29 67  1  0
 30 68  1  0
 30 69  1  0
 31 70  1  1
 34 71  1  0
 35 72  1  0
 35 73  1  0
 37 74  1  0
 38 75  1  0
 41 76  1  0
 41 77  1  0
 42 78  1  0
 42 79  1  0
 43 80  1  0
 44 81  1  0
 45 82  1  0
M  CHG  1  42   1
M  END
>  <meeko>  (9) 
{"is_sidechain": [false], "free_energy": -8.488, "intermolecular_energy": -16.378, "internal_energy": -2.522}

$$$$
