
     RDKit          3D

 11 11  0  0  0  0  0  0  0  0999 V2000
    3.0680   -2.4160   -1.8490 N   0  0  0  0  0  0  0  0  0  0  0  0
    4.1350   -1.1690   -1.8480 S   0  0  2  0  0  0  0  0  0  0  0  0
    5.3050   -1.5330   -1.0390 O   0  0  0  0  0  0  0  0  0  0  0  0
    3.4190    0.0470   -1.3820 O   0  0  0  0  0  0  0  0  0  0  0  0
    4.7000   -0.9160   -3.4930 C   0  0  0  0  0  0  0  0  0  0  0  0
    5.0130   -1.9980   -4.2970 C   0  0  0  0  0  0  0  0  0  0  0  0
    5.4670   -1.7820   -5.5860 C   0  0  0  0  0  0  0  0  0  0  0  0
    5.6120   -0.5180   -6.0830 C   0  0  0  0  0  0  0  0  0  0  0  0
    5.3160    0.5560   -5.2980 C   0  0  0  0  0  0  0  0  0  0  0  0
    4.8660    0.3430   -4.0090 C   0  0  0  0  0  0  0  0  0  0  0  0
    4.6140    1.4010   -3.2590 F   0  0  0  0  0  0  0  0  0  0  0  0
  2  1  1  6
  3  2  2  0
  4  2  2  0
  5  2  1  0
  6  5  2  0
  7  6  1  0
  8  7  2  0
  9  8  1  0
 10  9  2  0
 10  5  1  0
 11 10  1  0
M  END
$$$$
