
     RDKit          3D

 20 20  0  0  0  0  0  0  0  0999 V2000
    1.3520   -5.7870    7.7200 C   0  0  0  0  0  0  0  0  0  0  0  0
    0.6470   -4.5870    7.4830 O   0  0  0  0  0  0  0  0  0  0  0  0
   -0.1880   -4.0990    8.4380 C   0  0  0  0  0  0  0  0  0  0  0  0
   -0.7800   -2.8430    8.2310 C   0  0  0  0  0  0  0  0  0  0  0  0
   -1.6250   -2.3020    9.1940 C   0  0  0  0  0  0  0  0  0  0  0  0
   -1.8960   -3.0360   10.3500 C   0  0  0  0  0  0  0  0  0  0  0  0
   -2.8860   -2.3160   11.5850 S   0  0  1  0  0  0  0  0  0  0  0  0
   -2.3970   -2.7840   12.8540 O   0  0  0  0  0  0  0  0  0  0  0  0
   -2.9170   -0.8780   11.4350 O   0  0  0  0  0  0  0  0  0  0  0  0
   -4.4620   -2.8740   11.3920 N   0  0  0  0  0  0  0  0  0  0  0  0
   -5.1630   -3.0350   12.6850 C   0  0  0  0  0  0  0  0  0  0  0  0
   -5.9210   -4.2950   12.7570 C   0  0  0  0  0  0  0  0  0  0  0  0
   -6.5100   -4.6710   11.5440 O   0  0  0  0  0  0  0  0  0  0  0  0
   -5.2730   -2.0370   10.4860 C   0  0  0  0  0  0  0  0  0  0  0  0
   -5.3040   -2.6130    9.1260 C   0  0  0  0  0  0  0  0  0  0  0  0
   -5.4140   -3.8070    8.9430 O   0  0  0  0  0  0  0  0  0  0  0  0
   -5.1740   -1.7270    8.0990 N   0  0  0  0  0  0  0  0  0  0  0  0
   -5.1640   -2.2030    6.8360 O   0  0  0  0  0  0  0  0  0  0  0  0
   -1.3280   -4.2720   10.5530 C   0  0  0  0  0  0  0  0  0  0  0  0
   -0.4830   -4.8180    9.5840 C   0  0  0  0  0  0  0  0  0  0  0  0
  2  1  1  0
  3  2  1  0
  4  3  2  0
  5  4  1  0
  6  5  2  0
  7  6  1  0
  8  7  2  0
  9  7  2  0
  7 10  1  6
 11 10  1  0
 12 11  1  0
 13 12  1  0
 14 10  1  0
 15 14  1  0
 16 15  2  0
 17 15  1  0
 18 17  1  0
 19  6  1  0
 20 19  2  0
 20  3  1  0
M  END
$$$$
