
     RDKit          3D

 24 26  0  0  0  0  0  0  0  0999 V2000
    8.0900  -14.5600   -4.0150 C   0  0  0  0  0  0  0  0  0  0  0  0
    8.0360  -13.4520   -4.9870 N   0  0  0  0  0  0  0  0  0  0  0  0
    8.2440  -13.9860   -6.3380 C   0  0  0  0  0  0  0  0  0  0  0  0
    6.7390  -12.7020   -4.8800 C   0  0  0  0  0  0  0  0  0  0  0  0
    6.7740  -11.3860   -5.6120 C   0  0  0  0  0  0  0  0  0  0  0  0
    6.1890  -11.2680   -6.8720 C   0  0  0  0  0  0  0  0  0  0  0  0
    6.2040  -10.0470   -7.5510 C   0  0  0  0  0  0  0  0  0  0  0  0
    6.7810   -8.9270   -6.9580 C   0  0  0  0  0  0  0  0  0  0  0  0
    7.3700   -9.0210   -5.6850 C   0  0  0  0  0  0  0  0  0  0  0  0
    7.9660   -7.8250   -5.0100 C   0  0  0  0  0  0  0  0  0  0  0  0
    8.5810   -7.9390   -3.9810 O   0  0  0  0  0  0  0  0  0  0  0  0
    7.7570   -6.6050   -5.6020 N   0  0  0  0  0  0  0  0  0  0  0  0
    8.1540   -5.3450   -5.1140 C   0  0  0  0  0  0  0  0  0  0  0  0
    9.2370   -5.1670   -4.2620 C   0  0  0  0  0  0  0  0  0  0  0  0
    9.5610   -3.8840   -3.7880 C   0  0  0  0  0  0  0  0  0  0  0  0
    8.8100   -2.7840   -4.1870 C   0  0  0  0  0  0  0  0  0  0  0  0
    7.7160   -2.9620   -5.0570 C   0  0  0  0  0  0  0  0  0  0  0  0
    6.9020   -1.8020   -5.4750 C   0  0  0  0  0  0  0  0  0  0  0  0
    6.9490   -0.5780   -4.9390 N   0  0  0  0  0  0  0  0  0  0  0  0
    6.0560    0.1680   -5.6020 N   0  0  0  0  0  0  0  0  0  0  0  0
    5.4860   -0.5850   -6.5130 N   0  0  0  0  0  0  0  0  0  0  0  0
    5.9870   -1.8080   -6.4520 N   0  0  0  0  0  0  0  0  0  0  0  0
    7.4000   -4.2330   -5.5230 C   0  0  0  0  0  0  0  0  0  0  0  0
    7.3770  -10.2500   -5.0270 C   0  0  0  0  0  0  0  0  0  0  0  0
  2  1  1  0
  3  2  1  0
  4  2  1  0
  5  4  1  0
  6  5  2  0
  7  6  1  0
  8  7  2  0
  9  8  1  0
 10  9  1  0
 11 10  2  0
 12 10  1  0
 13 12  1  0
 14 13  2  0
 15 14  1  0
 16 15  2  0
 17 16  1  0
 18 17  1  0
 19 18  2  0
 20 19  1  0
 21 20  1  0
 22 21  2  0
 22 18  1  0
 23 17  2  0
 23 13  1  0
 24  5  1  0
 24  9  2  0
M  CHG  1   2   1
M  END
$$$$
