1gpk_ligand
     RDKit          3D

 37 39  0  0  0  0  0  0  0  0999 V2000
    3.4420    8.5770   -5.5050 C   0  0  0  0  0  0  0  0  0  0  0  0
    3.0540    7.1800   -5.1070 C   0  0  0  0  0  0  0  0  0  0  0  0
    1.8080    6.7110   -4.8750 C   0  0  0  0  0  0  0  0  0  0  0  0
    0.5390    7.5580   -4.9540 C   0  0  2  0  0  0  0  0  0  0  0  0
   -0.2800    7.4170   -3.6840 C   0  0  0  0  0  0  0  0  0  0  0  0
   -0.1510    6.4030   -2.8070 C   0  0  0  0  0  0  0  0  0  0  0  0
   -0.9630    6.3200   -1.5470 C   0  0  0  0  0  0  0  0  0  0  0  0
    0.8280    5.2760   -3.0610 C   0  0  0  0  0  0  0  0  0  0  0  0
    1.4130    5.2680   -4.5100 C   0  0  2  0  0  0  0  0  0  0  0  0
    2.6240    4.3880   -4.4990 N   0  0  0  0  0  0  0  0  0  0  0  0
    0.3650    4.7410   -5.5190 C   0  0  0  0  0  0  0  0  0  0  0  0
    0.1100    3.3080   -5.6500 C   0  0  0  0  0  0  0  0  0  0  0  0
   -0.7590    2.8320   -6.5540 C   0  0  0  0  0  0  0  0  0  0  0  0
   -1.4970    3.7650   -7.4360 C   0  0  0  0  0  0  0  0  0  0  0  0
   -2.2760    3.3580   -8.2850 O   0  0  0  0  0  0  0  0  0  0  0  0
   -1.2470    5.0960   -7.2190 N   0  0  0  0  0  0  0  0  0  0  0  0
   -0.3550    5.5890   -6.2940 C   0  0  0  0  0  0  0  0  0  0  0  0
   -0.2600    7.0980   -6.1920 C   0  0  0  0  0  0  0  0  0  0  0  0
    3.6101    9.1822   -4.6020 H   0  0  0  0  0  0  0  0  0  0  0  0
    4.3653    8.5451   -6.1021 H   0  0  0  0  0  0  0  0  0  0  0  0
    2.6345    9.0258   -6.1021 H   0  0  0  0  0  0  0  0  0  0  0  0
    3.8766    6.4588   -4.9917 H   0  0  0  0  0  0  0  0  0  0  0  0
    0.7944    8.6235   -5.0514 H   0  0  0  0  0  0  0  0  0  0  0  0
   -1.0277    8.1937   -3.4656 H   0  0  0  0  0  0  0  0  0  0  0  0
   -0.2954    6.3882   -0.6754 H   0  0  0  0  0  0  0  0  0  0  0  0
   -1.6856    7.1490   -1.5212 H   0  0  0  0  0  0  0  0  0  0  0  0
   -1.5029    5.3620   -1.5212 H   0  0  0  0  0  0  0  0  0  0  0  0
    1.6618    5.3733   -2.3502 H   0  0  0  0  0  0  0  0  0  0  0  0
    0.2749    4.3340   -2.9320 H   0  0  0  0  0  0  0  0  0  0  0  0
    3.0620    4.3950   -3.5720 H   0  0  0  0  0  0  0  0  0  0  0  0
    3.3030    4.7370   -5.1860 H   0  0  0  0  0  0  0  0  0  0  0  0
    2.4020    3.4160   -4.7300 H   0  0  0  0  0  0  0  0  0  0  0  0
    0.6423    2.6045   -4.9929 H   0  0  0  0  0  0  0  0  0  0  0  0
   -0.9236    1.7478   -6.6403 H   0  0  0  0  0  0  0  0  0  0  0  0
   -1.7830    5.7250   -7.8100 H   0  0  0  0  0  0  0  0  0  0  0  0
    0.2369    7.4820   -7.0951 H   0  0  0  0  0  0  0  0  0  0  0  0
   -1.2827    7.4913   -6.0947 H   0  0  0  0  0  0  0  0  0  0  0  0
  1  2  1  0
  2  3  2  0
  3  4  1  0
  4  5  1  0
  5  6  2  0
  6  7  1  0
  6  8  1  0
  8  9  1  0
  9 10  1  1
  9 11  1  0
 11 12  1  0
 12 13  2  0
 13 14  1  0
 14 15  2  0
 14 16  1  0
 16 17  1  0
 17 18  1  0
  9  3  1  0
 17 11  2  0
 18  4  1  0
  1 19  1  0
  1 20  1  0
  1 21  1  0
  2 22  1  0
  4 23  1  6
  5 24  1  0
  7 25  1  0
  7 26  1  0
  7 27  1  0
  8 28  1  0
  8 29  1  0
 10 30  1  0
 10 31  1  0
 10 32  1  0
 12 33  1  0
 13 34  1  0
 16 35  1  0
 18 36  1  0
 18 37  1  0
M  CHG  1  10   1
M  END
>  <meeko>  (1) 
{"is_sidechain": [false], "free_energy": -9.128, "intermolecular_energy": -9.395, "internal_energy": 0.0}

$$$$
1gpk_ligand
     RDKit          3D

 37 39  0  0  0  0  0  0  0  0999 V2000
   -0.3910    2.9880   -7.3350 C   0  0  0  0  0  0  0  0  0  0  0  0
   -0.0550    3.4660   -5.9500 C   0  0  0  0  0  0  0  0  0  0  0  0
   -0.0070    4.7440   -5.5130 C   0  0  0  0  0  0  0  0  0  0  0  0
   -0.2690    5.9660   -6.3930 C   0  0  2  0  0  0  0  0  0  0  0  0
    0.8690    6.9640   -6.2750 C   0  0  0  0  0  0  0  0  0  0  0  0
    1.7540    6.9890   -5.2610 C   0  0  0  0  0  0  0  0  0  0  0  0
    2.8830    7.9770   -5.2020 C   0  0  0  0  0  0  0  0  0  0  0  0
    1.6440    6.0130   -4.1090 C   0  0  0  0  0  0  0  0  0  0  0  0
    0.2950    5.2250   -4.0820 C   0  0  2  0  0  0  0  0  0  0  0  0
    0.4810    4.0510   -3.1710 N   0  0  0  0  0  0  0  0  0  0  0  0
   -0.8560    6.1270   -3.5790 C   0  0  0  0  0  0  0  0  0  0  0  0
   -1.0240    6.3970   -2.1530 C   0  0  0  0  0  0  0  0  0  0  0  0
   -2.0450    7.1380   -1.6970 C   0  0  0  0  0  0  0  0  0  0  0  0
   -3.0240    7.7160   -2.6460 C   0  0  0  0  0  0  0  0  0  0  0  0
   -3.9770    8.3730   -2.2570 O   0  0  0  0  0  0  0  0  0  0  0  0
   -2.7720    7.4660   -3.9700 N   0  0  0  0  0  0  0  0  0  0  0  0
   -1.7260    6.7060   -4.4430 C   0  0  0  0  0  0  0  0  0  0  0  0
   -1.6090    6.5880   -5.9500 C   0  0  0  0  0  0  0  0  0  0  0  0
   -1.0225    2.0897   -7.2697 H   0  0  0  0  0  0  0  0  0  0  0  0
   -0.9330    3.7788   -7.8744 H   0  0  0  0  0  0  0  0  0  0  0  0
    0.5366    2.7458   -7.8744 H   0  0  0  0  0  0  0  0  0  0  0  0
    0.1781    2.6877   -5.2084 H   0  0  0  0  0  0  0  0  0  0  0  0
   -0.3277    5.6721   -7.4514 H   0  0  0  0  0  0  0  0  0  0  0  0
    0.9775    7.7161   -7.0704 H   0  0  0  0  0  0  0  0  0  0  0  0
    3.1280    8.1914   -4.1513 H   0  0  0  0  0  0  0  0  0  0  0  0
    3.7655    7.5558   -5.7057 H   0  0  0  0  0  0  0  0  0  0  0  0
    2.5826    8.9076   -5.7057 H   0  0  0  0  0  0  0  0  0  0  0  0
    2.4681    5.2886   -4.1873 H   0  0  0  0  0  0  0  0  0  0  0  0
    1.6912    6.6027   -3.1816 H   0  0  0  0  0  0  0  0  0  0  0  0
   -0.1820    3.3060   -3.4080 H   0  0  0  0  0  0  0  0  0  0  0  0
    0.3100    4.3450   -2.2010 H   0  0  0  0  0  0  0  0  0  0  0  0
    1.4240    3.6570   -3.2280 H   0  0  0  0  0  0  0  0  0  0  0  0
   -0.2975    5.9837   -1.4378 H   0  0  0  0  0  0  0  0  0  0  0  0
   -2.1552    7.3165   -0.6172 H   0  0  0  0  0  0  0  0  0  0  0  0
   -3.4330    7.8940   -4.6120 H   0  0  0  0  0  0  0  0  0  0  0  0
   -2.4301    5.9558   -6.3189 H   0  0  0  0  0  0  0  0  0  0  0  0
   -1.6600    7.6038   -6.3691 H   0  0  0  0  0  0  0  0  0  0  0  0
  1  2  1  0
  2  3  2  0
  3  4  1  0
  4  5  1  0
  5  6  2  0
  6  7  1  0
  6  8  1  0
  8  9  1  0
  9 10  1  1
  9 11  1  0
 11 12  1  0
 12 13  2  0
 13 14  1  0
 14 15  2  0
 14 16  1  0
 16 17  1  0
 17 18  1  0
  9  3  1  0
 17 11  2  0
 18  4  1  0
  1 19  1  0
  1 20  1  0
  1 21  1  0
  2 22  1  0
  4 23  1  6
  5 24  1  0
  7 25  1  0
  7 26  1  0
  7 27  1  0
  8 28  1  0
  8 29  1  0
 10 30  1  0
 10 31  1  0
 10 32  1  0
 12 33  1  0
 13 34  1  0
 16 35  1  0
 18 36  1  0
 18 37  1  0
M  CHG  1  10   1
M  END
>  <meeko>  (2) 
{"is_sidechain": [false], "free_energy": -8.571, "intermolecular_energy": -8.822, "internal_energy": 0.0}

$$$$
1gpk_ligand
     RDKit          3D

 37 39  0  0  0  0  0  0  0  0999 V2000
    3.5150    7.9640   -5.6670 C   0  0  0  0  0  0  0  0  0  0  0  0
    2.0260    7.7990   -5.7840 C   0  0  0  0  0  0  0  0  0  0  0  0
    1.2660    6.8180   -5.2490 C   0  0  0  0  0  0  0  0  0  0  0  0
    1.8150    5.6530   -4.4270 C   0  0  2  0  0  0  0  0  0  0  0  0
    1.3190    4.3280   -4.9780 C   0  0  0  0  0  0  0  0  0  0  0  0
    0.2460    4.1940   -5.7810 C   0  0  0  0  0  0  0  0  0  0  0  0
   -0.1900    2.8660   -6.3270 C   0  0  0  0  0  0  0  0  0  0  0  0
   -0.5900    5.3960   -6.1670 C   0  0  0  0  0  0  0  0  0  0  0  0
   -0.2650    6.6790   -5.3360 C   0  0  2  0  0  0  0  0  0  0  0  0
   -0.8500    7.8470   -6.0690 N   0  0  0  0  0  0  0  0  0  0  0  0
   -0.8630    6.5750   -3.9130 C   0  0  0  0  0  0  0  0  0  0  0  0
   -2.2840    6.8240   -3.6810 C   0  0  0  0  0  0  0  0  0  0  0  0
   -2.8080    6.7850   -2.4460 C   0  0  0  0  0  0  0  0  0  0  0  0
   -1.9470    6.4690   -1.2840 C   0  0  0  0  0  0  0  0  0  0  0  0
   -2.3920    6.4510   -0.1470 O   0  0  0  0  0  0  0  0  0  0  0  0
   -0.6380    6.1930   -1.5850 N   0  0  0  0  0  0  0  0  0  0  0  0
   -0.0950    6.2320   -2.8490 C   0  0  0  0  0  0  0  0  0  0  0  0
    1.3680    5.8550   -2.9640 C   0  0  0  0  0  0  0  0  0  0  0  0
    3.7981    7.9954   -4.6045 H   0  0  0  0  0  0  0  0  0  0  0  0
    4.0174    7.1160   -6.1554 H   0  0  0  0  0  0  0  0  0  0  0  0
    3.8195    8.9014   -6.1554 H   0  0  0  0  0  0  0  0  0  0  0  0
    1.4949    8.5626   -6.3712 H   0  0  0  0  0  0  0  0  0  0  0  0
    2.9135    5.6297   -4.4801 H   0  0  0  0  0  0  0  0  0  0  0  0
    1.8723    3.4178   -4.7034 H   0  0  0  0  0  0  0  0  0  0  0  0
   -0.4142    2.1830   -5.4944 H   0  0  0  0  0  0  0  0  0  0  0  0
   -1.0910    3.0009   -6.9434 H   0  0  0  0  0  0  0  0  0  0  0  0
    0.6156    2.4406   -6.9434 H   0  0  0  0  0  0  0  0  0  0  0  0
   -0.4120    5.6162   -7.2299 H   0  0  0  0  0  0  0  0  0  0  0  0
   -1.6394    5.1373   -5.9625 H   0  0  0  0  0  0  0  0  0  0  0  0
   -1.6270    7.5420   -6.6640 H   0  0  0  0  0  0  0  0  0  0  0  0
   -0.1270    8.2680   -6.6650 H   0  0  0  0  0  0  0  0  0  0  0  0
   -1.2070    8.5660   -5.4350 H   0  0  0  0  0  0  0  0  0  0  0  0
   -2.9381    7.0481   -4.5366 H   0  0  0  0  0  0  0  0  0  0  0  0
   -3.8788    6.9881   -2.2970 H   0  0  0  0  0  0  0  0  0  0  0  0
   -0.0650    5.9470   -0.7830 H   0  0  0  0  0  0  0  0  0  0  0  0
    1.9746    6.6567   -2.5177 H   0  0  0  0  0  0  0  0  0  0  0  0
    1.5084    4.8994   -2.4376 H   0  0  0  0  0  0  0  0  0  0  0  0
  1  2  1  0
  2  3  2  0
  3  4  1  0
  4  5  1  0
  5  6  2  0
  6  7  1  0
  6  8  1  0
  8  9  1  0
  9 10  1  6
  9 11  1  0
 11 12  1  0
 12 13  2  0
 13 14  1  0
 14 15  2  0
 14 16  1  0
 16 17  1  0
 17 18  1  0
  9  3  1  0
 17 11  2  0
 18  4  1  0
  1 19  1  0
  1 20  1  0
  1 21  1  0
  2 22  1  0
  4 23  1  1
  5 24  1  0
  7 25  1  0
  7 26  1  0
  7 27  1  0
  8 28  1  0
  8 29  1  0
 10 30  1  0
 10 31  1  0
 10 32  1  0
 12 33  1  0
 13 34  1  0
 16 35  1  0
 18 36  1  0
 18 37  1  0
M  CHG  1  10   1
M  END
>  <meeko>  (3) 
{"is_sidechain": [false], "free_energy": -8.489, "intermolecular_energy": -8.738, "internal_energy": 0.0}

$$$$
1gpk_ligand
     RDKit          3D

 37 39  0  0  0  0  0  0  0  0999 V2000
   -1.5950    6.5500   -1.1450 C   0  0  0  0  0  0  0  0  0  0  0  0
   -1.7300    6.6710   -2.6370 C   0  0  0  0  0  0  0  0  0  0  0  0
   -0.8300    6.2950   -3.5730 C   0  0  0  0  0  0  0  0  0  0  0  0
    0.5360    5.6860   -3.2620 C   0  0  2  0  0  0  0  0  0  0  0  0
    1.6360    6.4410   -3.9840 C   0  0  0  0  0  0  0  0  0  0  0  0
    1.4360    7.2390   -5.0500 C   0  0  0  0  0  0  0  0  0  0  0  0
    2.5520    7.9920   -5.7140 C   0  0  0  0  0  0  0  0  0  0  0  0
    0.0530    7.4090   -5.6440 C   0  0  0  0  0  0  0  0  0  0  0  0
   -0.9920    6.3820   -5.1020 C   0  0  2  0  0  0  0  0  0  0  0  0
   -2.3520    6.9030   -5.4500 N   0  0  0  0  0  0  0  0  0  0  0  0
   -0.7660    4.9870   -5.7320 C   0  0  0  0  0  0  0  0  0  0  0  0
   -1.2310    4.6970   -7.0870 C   0  0  0  0  0  0  0  0  0  0  0  0
   -1.0860    3.4780   -7.6300 C   0  0  0  0  0  0  0  0  0  0  0  0
   -0.4280    2.3970   -6.8600 C   0  0  0  0  0  0  0  0  0  0  0  0
   -0.3040    1.2720   -7.3200 O   0  0  0  0  0  0  0  0  0  0  0  0
    0.0310    2.7590   -5.6200 N   0  0  0  0  0  0  0  0  0  0  0  0
   -0.1170    4.0060   -5.0580 C   0  0  0  0  0  0  0  0  0  0  0  0
    0.5000    4.2030   -3.6880 C   0  0  0  0  0  0  0  0  0  0  0  0
   -2.3287    7.2076   -0.6559 H   0  0  0  0  0  0  0  0  0  0  0  0
   -1.7782    5.5081   -0.8436 H   0  0  0  0  0  0  0  0  0  0  0  0
   -0.5793    6.8457   -0.8436 H   0  0  0  0  0  0  0  0  0  0  0  0
   -2.6653    7.1149   -3.0087 H   0  0  0  0  0  0  0  0  0  0  0  0
    0.7527    5.7586   -2.1860 H   0  0  0  0  0  0  0  0  0  0  0  0
    2.6652    6.3292   -3.6121 H   0  0  0  0  0  0  0  0  0  0  0  0
    3.2049    8.4325   -4.9461 H   0  0  0  0  0  0  0  0  0  0  0  0
    3.1368    7.3031   -6.3412 H   0  0  0  0  0  0  0  0  0  0  0  0
    2.1321    8.7922   -6.3412 H   0  0  0  0  0  0  0  0  0  0  0  0
   -0.3032    8.4233   -5.4108 H   0  0  0  0  0  0  0  0  0  0  0  0
    0.1437    7.2355   -6.7264 H   0  0  0  0  0  0  0  0  0  0  0  0
   -2.9820    6.1290   -5.6850 H   0  0  0  0  0  0  0  0  0  0  0  0
   -2.2790    7.5240   -6.2640 H   0  0  0  0  0  0  0  0  0  0  0  0
   -2.7780    7.4270   -4.6810 H   0  0  0  0  0  0  0  0  0  0  0  0
   -1.7099    5.4945   -7.6741 H   0  0  0  0  0  0  0  0  0  0  0  0
   -1.4559    3.2817   -8.6472 H   0  0  0  0  0  0  0  0  0  0  0  0
    0.5070    2.0170   -5.1160 H   0  0  0  0  0  0  0  0  0  0  0  0
   -0.0905    3.6388   -2.9511 H   0  0  0  0  0  0  0  0  0  0  0  0
    1.5388    3.8442   -3.7353 H   0  0  0  0  0  0  0  0  0  0  0  0
  1  2  1  0
  2  3  2  0
  3  4  1  0
  4  5  1  0
  5  6  2  0
  6  7  1  0
  6  8  1  0
  8  9  1  0
  9 10  1  1
  9 11  1  0
 11 12  1  0
 12 13  2  0
 13 14  1  0
 14 15  2  0
 14 16  1  0
 16 17  1  0
 17 18  1  0
  9  3  1  0
 17 11  2  0
 18  4  1  0
  1 19  1  0
  1 20  1  0
  1 21  1  0
  2 22  1  0
  4 23  1  1
  5 24  1  0
  7 25  1  0
  7 26  1  0
  7 27  1  0
  8 28  1  0
  8 29  1  0
 10 30  1  0
 10 31  1  0
 10 32  1  0
 12 33  1  0
 13 34  1  0
 16 35  1  0
 18 36  1  0
 18 37  1  0
M  CHG  1  10   1
M  END
>  <meeko>  (4) 
{"is_sidechain": [false], "free_energy": -8.212, "intermolecular_energy": -8.452, "internal_energy": 0.0}

$$$$
1gpk_ligand
     RDKit          3D

 37 39  0  0  0  0  0  0  0  0999 V2000
   -1.5980    8.9500   -8.5950 C   0  0  0  0  0  0  0  0  0  0  0  0
   -0.7270    8.3050   -7.5530 C   0  0  0  0  0  0  0  0  0  0  0  0
   -1.0780    7.3380   -6.6760 C   0  0  0  0  0  0  0  0  0  0  0  0
   -2.4780    6.7340   -6.5740 C   0  0  2  0  0  0  0  0  0  0  0  0
   -2.9800    6.7840   -5.1430 C   0  0  0  0  0  0  0  0  0  0  0  0
   -2.1870    6.9370   -4.0650 C   0  0  0  0  0  0  0  0  0  0  0  0
   -2.7310    7.0120   -2.6680 C   0  0  0  0  0  0  0  0  0  0  0  0
   -0.6830    7.0320   -4.2150 C   0  0  0  0  0  0  0  0  0  0  0  0
   -0.1700    6.6500   -5.6410 C   0  0  2  0  0  0  0  0  0  0  0  0
    1.2330    7.1610   -5.7630 N   0  0  0  0  0  0  0  0  0  0  0  0
   -0.2110    5.1170   -5.8450 C   0  0  0  0  0  0  0  0  0  0  0  0
    0.8290    4.2610   -5.2780 C   0  0  0  0  0  0  0  0  0  0  0  0
    0.8350    2.9360   -5.4860 C   0  0  0  0  0  0  0  0  0  0  0  0
   -0.2370    2.3070   -6.2930 C   0  0  0  0  0  0  0  0  0  0  0  0
   -0.2430    1.1070   -6.5190 O   0  0  0  0  0  0  0  0  0  0  0  0
   -1.2060    3.1640   -6.7450 N   0  0  0  0  0  0  0  0  0  0  0  0
   -1.2160    4.5250   -6.5350 C   0  0  0  0  0  0  0  0  0  0  0  0
   -2.4050    5.2820   -7.0920 C   0  0  0  0  0  0  0  0  0  0  0  0
   -2.3880    9.5351   -8.1015 H   0  0  0  0  0  0  0  0  0  0  0  0
   -0.9871    9.6152   -9.2229 H   0  0  0  0  0  0  0  0  0  0  0  0
   -2.0561    8.1716   -9.2229 H   0  0  0  0  0  0  0  0  0  0  0  0
    0.3127    8.6598   -7.4981 H   0  0  0  0  0  0  0  0  0  0  0  0
   -3.1899    7.3109   -7.1825 H   0  0  0  0  0  0  0  0  0  0  0  0
   -4.0629    6.6890   -4.9748 H   0  0  0  0  0  0  0  0  0  0  0  0
   -1.9077    6.8985   -1.9473 H   0  0  0  0  0  0  0  0  0  0  0  0
   -3.2193    7.9860   -2.5165 H   0  0  0  0  0  0  0  0  0  0  0  0
   -3.4646    6.2065   -2.5165 H   0  0  0  0  0  0  0  0  0  0  0  0
   -0.3771    8.0667   -4.0012 H   0  0  0  0  0  0  0  0  0  0  0  0
   -0.2428    6.3110   -3.5105 H   0  0  0  0  0  0  0  0  0  0  0  0
    1.2810    7.9080   -6.4630 H   0  0  0  0  0  0  0  0  0  0  0  0
    1.8480    6.3930   -6.0600 H   0  0  0  0  0  0  0  0  0  0  0  0
    1.5890    7.5380   -4.8810 H   0  0  0  0  0  0  0  0  0  0  0  0
    1.6243    4.7133   -4.6673 H   0  0  0  0  0  0  0  0  0  0  0  0
    1.6361    2.3159   -5.0573 H   0  0  0  0  0  0  0  0  0  0  0  0
   -1.9520    2.7160   -7.2700 H   0  0  0  0  0  0  0  0  0  0  0  0
   -2.3274    5.3025   -8.1891 H   0  0  0  0  0  0  0  0  0  0  0  0
   -3.3163    4.7630   -6.7601 H   0  0  0  0  0  0  0  0  0  0  0  0
  1  2  1  0
  2  3  2  0
  3  4  1  0
  4  5  1  0
  5  6  2  0
  6  7  1  0
  6  8  1  0
  8  9  1  0
  9 10  1  1
  9 11  1  0
 11 12  1  0
 12 13  2  0
 13 14  1  0
 14 15  2  0
 14 16  1  0
 16 17  1  0
 17 18  1  0
  9  3  1  0
 17 11  2  0
 18  4  1  0
  1 19  1  0
  1 20  1  0
  1 21  1  0
  2 22  1  0
  4 23  1  6
  5 24  1  0
  7 25  1  0
  7 26  1  0
  7 27  1  0
  8 28  1  0
  8 29  1  0
 10 30  1  0
 10 31  1  0
 10 32  1  0
 12 33  1  0
 13 34  1  0
 16 35  1  0
 18 36  1  0
 18 37  1  0
M  CHG  1  10   1
M  END
>  <meeko>  (5) 
{"is_sidechain": [false], "free_energy": -8.172, "intermolecular_energy": -8.411, "internal_energy": 0.0}

$$$$
1gpk_ligand
     RDKit          3D

 37 39  0  0  0  0  0  0  0  0999 V2000
   -1.1860    3.8330   -7.0900 C   0  0  0  0  0  0  0  0  0  0  0  0
   -1.2830    4.5670   -5.7820 C   0  0  0  0  0  0  0  0  0  0  0  0
   -0.9340    5.8490   -5.5340 C   0  0  0  0  0  0  0  0  0  0  0  0
   -0.3360    6.7960   -6.5730 C   0  0  2  0  0  0  0  0  0  0  0  0
    0.9430    7.4260   -6.0510 C   0  0  0  0  0  0  0  0  0  0  0  0
    1.2820    7.4860   -4.7490 C   0  0  0  0  0  0  0  0  0  0  0  0
    2.5730    8.0920   -4.2810 C   0  0  0  0  0  0  0  0  0  0  0  0
    0.3570    6.9450   -3.6790 C   0  0  0  0  0  0  0  0  0  0  0  0
   -1.0770    6.6080   -4.2020 C   0  0  2  0  0  0  0  0  0  0  0  0
   -1.7330    5.7360   -3.1770 N   0  0  0  0  0  0  0  0  0  0  0  0
   -1.8970    7.9010   -4.4220 C   0  0  0  0  0  0  0  0  0  0  0  0
   -2.5080    8.5980   -3.2920 C   0  0  0  0  0  0  0  0  0  0  0  0
   -3.2630    9.6930   -3.4710 C   0  0  0  0  0  0  0  0  0  0  0  0
   -3.4780   10.2310   -4.8340 C   0  0  0  0  0  0  0  0  0  0  0  0
   -4.1800   11.2110   -5.0290 O   0  0  0  0  0  0  0  0  0  0  0  0
   -2.8290    9.5580   -5.8370 N   0  0  0  0  0  0  0  0  0  0  0  0
   -2.0550    8.4340   -5.6590 C   0  0  0  0  0  0  0  0  0  0  0  0
   -1.3960    7.8680   -6.9010 C   0  0  0  0  0  0  0  0  0  0  0  0
   -1.0441    2.7592   -6.8982 H   0  0  0  0  0  0  0  0  0  0  0  0
   -2.1119    3.9836   -7.6645 H   0  0  0  0  0  0  0  0  0  0  0  0
   -0.3311    4.2190   -7.6645 H   0  0  0  0  0  0  0  0  0  0  0  0
   -1.6831    3.9966   -4.9307 H   0  0  0  0  0  0  0  0  0  0  0  0
   -0.0701    6.2443   -7.4867 H   0  0  0  0  0  0  0  0  0  0  0  0
    1.6379    7.8618   -6.7839 H   0  0  0  0  0  0  0  0  0  0  0  0
    2.5957    8.1026   -3.1813 H   0  0  0  0  0  0  0  0  0  0  0  0
    3.4164    7.4957   -4.6594 H   0  0  0  0  0  0  0  0  0  0  0  0
    2.6531    9.1218   -4.6594 H   0  0  0  0  0  0  0  0  0  0  0  0
    0.8014    6.0269   -3.2671 H   0  0  0  0  0  0  0  0  0  0  0  0
    0.2461    7.7336   -2.9202 H   0  0  0  0  0  0  0  0  0  0  0  0
   -1.0550    5.0780   -2.7810 H   0  0  0  0  0  0  0  0  0  0  0  0
   -2.4880    5.2000   -3.6230 H   0  0  0  0  0  0  0  0  0  0  0  0
   -2.1320    6.2740   -2.4040 H   0  0  0  0  0  0  0  0  0  0  0  0
   -2.3456    8.2169   -2.2730 H   0  0  0  0  0  0  0  0  0  0  0  0
   -3.7225   10.1913   -2.6047 H   0  0  0  0  0  0  0  0  0  0  0  0
   -2.9590    9.9560   -6.7630 H   0  0  0  0  0  0  0  0  0  0  0  0
   -2.1714    7.4143   -7.5358 H   0  0  0  0  0  0  0  0  0  0  0  0
   -0.8852    8.6960   -7.4144 H   0  0  0  0  0  0  0  0  0  0  0  0
  1  2  1  0
  2  3  2  0
  3  4  1  0
  4  5  1  0
  5  6  2  0
  6  7  1  0
  6  8  1  0
  8  9  1  0
  9 10  1  1
  9 11  1  0
 11 12  1  0
 12 13  2  0
 13 14  1  0
 14 15  2  0
 14 16  1  0
 16 17  1  0
 17 18  1  0
  9  3  1  0
 17 11  2  0
 18  4  1  0
  1 19  1  0
  1 20  1  0
  1 21  1  0
  2 22  1  0
  4 23  1  6
  5 24  1  0
  7 25  1  0
  7 26  1  0
  7 27  1  0
  8 28  1  0
  8 29  1  0
 10 30  1  0
 10 31  1  0
 10 32  1  0
 12 33  1  0
 13 34  1  0
 16 35  1  0
 18 36  1  0
 18 37  1  0
M  CHG  1  10   1
M  END
>  <meeko>  (6) 
{"is_sidechain": [false], "free_energy": -7.776, "intermolecular_energy": -8.003, "internal_energy": 0.0}

$$$$
1gpk_ligand
     RDKit          3D

 37 39  0  0  0  0  0  0  0  0999 V2000
   -3.0010    7.0080   -2.7510 C   0  0  0  0  0  0  0  0  0  0  0  0
   -1.6890    6.2750   -2.7860 C   0  0  0  0  0  0  0  0  0  0  0  0
   -0.9110    6.0400   -3.8660 C   0  0  0  0  0  0  0  0  0  0  0  0
   -1.2600    6.4710   -5.2900 C   0  0  2  0  0  0  0  0  0  0  0  0
   -1.1640    5.2950   -6.2440 C   0  0  0  0  0  0  0  0  0  0  0  0
   -0.4830    4.1620   -5.9870 C   0  0  0  0  0  0  0  0  0  0  0  0
   -0.4410    3.0110   -6.9490 C   0  0  0  0  0  0  0  0  0  0  0  0
    0.2940    3.9990   -4.6970 C   0  0  0  0  0  0  0  0  0  0  0  0
    0.4530    5.3260   -3.8890 C   0  0  2  0  0  0  0  0  0  0  0  0
    0.8670    4.9570   -2.4980 N   0  0  0  0  0  0  0  0  0  0  0  0
    1.5120    6.2430   -4.5460 C   0  0  0  0  0  0  0  0  0  0  0  0
    2.9390    5.9930   -4.3530 C   0  0  0  0  0  0  0  0  0  0  0  0
    3.8680    6.8060   -4.8760 C   0  0  0  0  0  0  0  0  0  0  0  0
    3.4590    7.9790   -5.6830 C   0  0  0  0  0  0  0  0  0  0  0  0
    4.2830    8.7500   -6.1500 O   0  0  0  0  0  0  0  0  0  0  0  0
    2.1080    8.1180   -5.8670 N   0  0  0  0  0  0  0  0  0  0  0  0
    1.1500    7.2880   -5.3310 C   0  0  0  0  0  0  0  0  0  0  0  0
   -0.2890    7.6010   -5.6920 C   0  0  0  0  0  0  0  0  0  0  0  0
   -3.2999    7.1750   -1.7057 H   0  0  0  0  0  0  0  0  0  0  0  0
   -2.8935    7.9768   -3.2609 H   0  0  0  0  0  0  0  0  0  0  0  0
   -3.7696    6.4086   -3.2609 H   0  0  0  0  0  0  0  0  0  0  0  0
   -1.3209    5.8864   -1.8250 H   0  0  0  0  0  0  0  0  0  0  0  0
   -2.2964    6.8366   -5.3379 H   0  0  0  0  0  0  0  0  0  0  0  0
   -1.6852    5.3731   -7.2095 H   0  0  0  0  0  0  0  0  0  0  0  0
   -0.4065    2.0654   -6.3881 H   0  0  0  0  0  0  0  0  0  0  0  0
   -1.3404    3.0292   -7.5820 H   0  0  0  0  0  0  0  0  0  0  0  0
    0.4547    3.0947   -7.5820 H   0  0  0  0  0  0  0  0  0  0  0  0
   -0.2315    3.2681   -4.0648 H   0  0  0  0  0  0  0  0  0  0  0  0
    1.3059    3.6656   -4.9707 H   0  0  0  0  0  0  0  0  0  0  0  0
    1.8790    4.7990   -2.4560 H   0  0  0  0  0  0  0  0  0  0  0  0
    0.3880    4.0910   -2.2210 H   0  0  0  0  0  0  0  0  0  0  0  0
    0.6380    5.6850   -1.8160 H   0  0  0  0  0  0  0  0  0  0  0  0
    3.2577    5.1190   -3.7660 H   0  0  0  0  0  0  0  0  0  0  0  0
    4.9354    6.6017   -4.7056 H   0  0  0  0  0  0  0  0  0  0  0  0
    1.8420    8.9080   -6.4480 H   0  0  0  0  0  0  0  0  0  0  0  0
   -0.5893    8.5243   -5.1749 H   0  0  0  0  0  0  0  0  0  0  0  0
   -0.3419    7.7131   -6.7850 H   0  0  0  0  0  0  0  0  0  0  0  0
  1  2  1  0
  2  3  2  0
  3  4  1  0
  4  5  1  0
  5  6  2  0
  6  7  1  0
  6  8  1  0
  8  9  1  0
  9 10  1  1
  9 11  1  0
 11 12  1  0
 12 13  2  0
 13 14  1  0
 14 15  2  0
 14 16  1  0
 16 17  1  0
 17 18  1  0
  9  3  1  0
 17 11  2  0
 18  4  1  0
  1 19  1  0
  1 20  1  0
  1 21  1  0
  2 22  1  0
  4 23  1  1
  5 24  1  0
  7 25  1  0
  7 26  1  0
  7 27  1  0
  8 28  1  0
  8 29  1  0
 10 30  1  0
 10 31  1  0
 10 32  1  0
 12 33  1  0
 13 34  1  0
 16 35  1  0
 18 36  1  0
 18 37  1  0
M  CHG  1  10   1
M  END
>  <meeko>  (7) 
{"is_sidechain": [false], "free_energy": -7.638, "intermolecular_energy": -7.861, "internal_energy": 0.0}

$$$$
1gpk_ligand
     RDKit          3D

 37 39  0  0  0  0  0  0  0  0999 V2000
  -12.5590   13.0450   -6.3810 C   0  0  0  0  0  0  0  0  0  0  0  0
  -11.1020   12.6760   -6.3590 C   0  0  0  0  0  0  0  0  0  0  0  0
  -10.0920   13.3620   -5.7780 C   0  0  0  0  0  0  0  0  0  0  0  0
  -10.2630   14.6890   -5.0410 C   0  0  2  0  0  0  0  0  0  0  0  0
   -9.2920   15.7270   -5.5740 C   0  0  0  0  0  0  0  0  0  0  0  0
   -8.1780   15.4350   -6.2730 C   0  0  0  0  0  0  0  0  0  0  0  0
   -7.2610   16.4970   -6.8080 C   0  0  0  0  0  0  0  0  0  0  0  0
   -7.7870   13.9980   -6.5480 C   0  0  0  0  0  0  0  0  0  0  0  0
   -8.6070   12.9560   -5.7210 C   0  0  2  0  0  0  0  0  0  0  0  0
   -8.4110   11.6190   -6.3650 N   0  0  0  0  0  0  0  0  0  0  0  0
   -8.1290   12.9270   -4.2500 C   0  0  0  0  0  0  0  0  0  0  0  0
   -6.9090   12.2140   -3.8760 C   0  0  0  0  0  0  0  0  0  0  0  0
   -6.5070   12.1390   -2.5990 C   0  0  0  0  0  0  0  0  0  0  0  0
   -7.2940   12.8000   -1.5330 C   0  0  0  0  0  0  0  0  0  0  0  0
   -6.9650   12.7260   -0.3590 O   0  0  0  0  0  0  0  0  0  0  0  0
   -8.3950   13.4940   -1.9650 N   0  0  0  0  0  0  0  0  0  0  0  0
   -8.8120   13.5740   -3.2740 C   0  0  0  0  0  0  0  0  0  0  0  0
  -10.0360   14.4280   -3.5380 C   0  0  0  0  0  0  0  0  0  0  0  0
  -12.9291   13.1387   -5.3494 H   0  0  0  0  0  0  0  0  0  0  0  0
  -12.6865   14.0038   -6.9049 H   0  0  0  0  0  0  0  0  0  0  0  0
  -13.1276   12.2625   -6.9049 H   0  0  0  0  0  0  0  0  0  0  0  0
  -10.8266   11.7434   -6.8732 H   0  0  0  0  0  0  0  0  0  0  0  0
  -11.2757   15.0881   -5.1998 H   0  0  0  0  0  0  0  0  0  0  0  0
   -9.5123   16.7865   -5.3766 H   0  0  0  0  0  0  0  0  0  0  0  0
   -6.7956   17.0360   -5.9696 H   0  0  0  0  0  0  0  0  0  0  0  0
   -6.4780   16.0295   -7.4232 H   0  0  0  0  0  0  0  0  0  0  0  0
   -7.8376   17.2035   -7.4232 H   0  0  0  0  0  0  0  0  0  0  0  0
   -7.9437   13.7938   -7.6174 H   0  0  0  0  0  0  0  0  0  0  0  0
   -6.7337   13.8883   -6.2504 H   0  0  0  0  0  0  0  0  0  0  0  0
   -7.4140   11.3860   -6.4090 H   0  0  0  0  0  0  0  0  0  0  0  0
   -8.7830   11.6470   -7.3230 H   0  0  0  0  0  0  0  0  0  0  0  0
   -8.8840   10.8680   -5.8570 H   0  0  0  0  0  0  0  0  0  0  0  0
   -6.3078   11.7286   -4.6589 H   0  0  0  0  0  0  0  0  0  0  0  0
   -5.5914   11.5857   -2.3430 H   0  0  0  0  0  0  0  0  0  0  0  0
   -8.9080   13.9680   -1.2270 H   0  0  0  0  0  0  0  0  0  0  0  0
  -10.9193   13.9130   -3.1323 H   0  0  0  0  0  0  0  0  0  0  0  0
   -9.8751   15.4011   -3.0510 H   0  0  0  0  0  0  0  0  0  0  0  0
  1  2  1  0
  2  3  2  0
  3  4  1  0
  4  5  1  0
  5  6  2  0
  6  7  1  0
  6  8  1  0
  8  9  1  0
  9 10  1  6
  9 11  1  0
 11 12  1  0
 12 13  2  0
 13 14  1  0
 14 15  2  0
 14 16  1  0
 16 17  1  0
 17 18  1  0
  9  3  1  0
 17 11  2  0
 18  4  1  0
  1 19  1  0
  1 20  1  0
  1 21  1  0
  2 22  1  0
  4 23  1  1
  5 24  1  0
  7 25  1  0
  7 26  1  0
  7 27  1  0
  8 28  1  0
  8 29  1  0
 10 30  1  0
 10 31  1  0
 10 32  1  0
 12 33  1  0
 13 34  1  0
 16 35  1  0
 18 36  1  0
 18 37  1  0
M  CHG  1  10   1
M  END
>  <meeko>  (8) 
{"is_sidechain": [false], "free_energy": -7.311, "intermolecular_energy": -7.525, "internal_energy": 0.0}

$$$$
1gpk_ligand
     RDKit          3D

 37 39  0  0  0  0  0  0  0  0999 V2000
  -14.0830   14.0370   -1.4740 C   0  0  0  0  0  0  0  0  0  0  0  0
  -12.8750   14.1350   -2.3620 C   0  0  0  0  0  0  0  0  0  0  0  0
  -11.6470   14.5900   -2.0270 C   0  0  0  0  0  0  0  0  0  0  0  0
  -11.2730   15.1260   -0.6460 C   0  0  2  0  0  0  0  0  0  0  0  0
  -10.6230   16.4920   -0.7590 C   0  0  0  0  0  0  0  0  0  0  0  0
  -10.0740   16.9810   -1.8870 C   0  0  0  0  0  0  0  0  0  0  0  0
   -9.4680   18.3520   -1.9600 C   0  0  0  0  0  0  0  0  0  0  0  0
  -10.0320   16.1500   -3.1530 C   0  0  0  0  0  0  0  0  0  0  0  0
  -10.4010   14.6480   -2.9300 C   0  0  2  0  0  0  0  0  0  0  0  0
  -10.7070   14.0590   -4.2720 N   0  0  0  0  0  0  0  0  0  0  0  0
   -9.2310   13.8920   -2.2570 C   0  0  0  0  0  0  0  0  0  0  0  0
   -8.0750   13.4580   -3.0390 C   0  0  0  0  0  0  0  0  0  0  0  0
   -7.0760   12.7590   -2.4800 C   0  0  0  0  0  0  0  0  0  0  0  0
   -7.1200   12.4250   -1.0380 C   0  0  0  0  0  0  0  0  0  0  0  0
   -6.2360   11.7690   -0.5090 O   0  0  0  0  0  0  0  0  0  0  0  0
   -8.2060   12.9120   -0.3590 N   0  0  0  0  0  0  0  0  0  0  0  0
   -9.2350   13.6280   -0.9270 C   0  0  0  0  0  0  0  0  0  0  0  0
  -10.3230   14.1050    0.0150 C   0  0  0  0  0  0  0  0  0  0  0  0
  -13.7669   14.0626   -0.4207 H   0  0  0  0  0  0  0  0  0  0  0  0
  -14.7559   14.8835   -1.6756 H   0  0  0  0  0  0  0  0  0  0  0  0
  -14.6107   13.0931   -1.6756 H   0  0  0  0  0  0  0  0  0  0  0  0
  -13.0044   13.7988   -3.4013 H   0  0  0  0  0  0  0  0  0  0  0  0
  -12.1732   15.2520   -0.0265 H   0  0  0  0  0  0  0  0  0  0  0  0
  -10.5986   17.1250    0.1403 H   0  0  0  0  0  0  0  0  0  0  0  0
   -9.2995   18.7331   -0.9420 H   0  0  0  0  0  0  0  0  0  0  0  0
   -8.5087   18.3008   -2.4958 H   0  0  0  0  0  0  0  0  0  0  0  0
  -10.1516   19.0270   -2.4958 H   0  0  0  0  0  0  0  0  0  0  0  0
  -10.7433   16.5792   -3.8740 H   0  0  0  0  0  0  0  0  0  0  0  0
   -8.9955   16.1756   -3.5206 H   0  0  0  0  0  0  0  0  0  0  0  0
  -10.6110   13.0390   -4.2440 H   0  0  0  0  0  0  0  0  0  0  0  0
  -10.0460   14.4320   -4.9640 H   0  0  0  0  0  0  0  0  0  0  0  0
  -11.6570   14.2730   -4.5850 H   0  0  0  0  0  0  0  0  0  0  0  0
   -8.0232   13.7099   -4.1085 H   0  0  0  0  0  0  0  0  0  0  0  0
   -6.2230   12.4334   -3.0935 H   0  0  0  0  0  0  0  0  0  0  0  0
   -8.2090   12.7020    0.6350 H   0  0  0  0  0  0  0  0  0  0  0  0
  -10.9122   13.2356    0.3421 H   0  0  0  0  0  0  0  0  0  0  0  0
   -9.8338   14.6053    0.8638 H   0  0  0  0  0  0  0  0  0  0  0  0
  1  2  1  0
  2  3  2  0
  3  4  1  0
  4  5  1  0
  5  6  2  0
  6  7  1  0
  6  8  1  0
  8  9  1  0
  9 10  1  6
  9 11  1  0
 11 12  1  0
 12 13  2  0
 13 14  1  0
 14 15  2  0
 14 16  1  0
 16 17  1  0
 17 18  1  0
  9  3  1  0
 17 11  2  0
 18  4  1  0
  1 19  1  0
  1 20  1  0
  1 21  1  0
  2 22  1  0
  4 23  1  1
  5 24  1  0
  7 25  1  0
  7 26  1  0
  7 27  1  0
  8 28  1  0
  8 29  1  0
 10 30  1  0
 10 31  1  0
 10 32  1  0
 12 33  1  0
 13 34  1  0
 16 35  1  0
 18 36  1  0
 18 37  1  0
M  CHG  1  10   1
M  END
>  <meeko>  (9) 
{"is_sidechain": [false], "free_energy": -7.203, "intermolecular_energy": -7.413, "internal_energy": 0.0}

$$$$
