
     RDKit          3D

 28 30  0  0  0  0  0  0  0  0999 V2000
   -7.6790   26.4630   24.3780 C   0  0  0  0  0  0  0  0  0  0  0  0
   -9.1330   26.8910   24.5970 C   0  0  2  0  0  0  0  0  0  0  0  0
   -9.3980   28.2350   23.9170 C   0  0  0  0  0  0  0  0  0  0  0  0
   -9.3820   27.0480   26.1220 C   0  0  0  0  0  0  0  0  0  0  0  0
  -10.1130   25.8760   24.0020 C   0  0  0  0  0  0  0  0  0  0  0  0
   -9.9430   24.4580   24.4490 C   0  0  0  0  0  0  0  0  0  0  0  0
  -10.1010   24.1440   25.6380 O   0  0  0  0  0  0  0  0  0  0  0  0
   -9.6600   23.5230   23.5240 N   0  0  0  0  0  0  0  0  0  0  0  0
   -9.4440   23.7410   22.0950 C   0  0  0  0  0  0  0  0  0  0  0  0
   -9.7220   22.3760   21.4800 C   0  0  2  0  0  0  0  0  0  0  0  0
  -11.1240   22.2230   21.2860 O   0  0  0  0  0  0  0  0  0  0  0  0
   -9.2860   21.3960   22.5580 C   0  0  0  0  0  0  0  0  0  0  0  0
   -9.6000   22.1030   23.8790 C   0  0  1  0  0  0  0  0  0  0  0  0
   -8.5510   21.7820   24.8920 C   0  0  0  0  0  0  0  0  0  0  0  0
   -7.4980   22.4180   24.9710 O   0  0  0  0  0  0  0  0  0  0  0  0
   -8.8060   20.7100   25.6640 N   0  0  0  0  0  0  0  0  0  0  0  0
   -7.8510   20.1610   26.5730 C   0  0  0  0  0  0  0  0  0  0  0  0
   -6.9890   19.0950   25.9470 C   0  0  0  0  0  0  0  0  0  0  0  0
   -7.2800   18.6220   24.6740 C   0  0  0  0  0  0  0  0  0  0  0  0
   -6.4910   17.6420   24.0620 C   0  0  0  0  0  0  0  0  0  0  0  0
   -5.3820   17.1050   24.7390 C   0  0  0  0  0  0  0  0  0  0  0  0
   -4.5660   16.0930   24.1140 C   0  0  0  0  0  0  0  0  0  0  0  0
   -3.7860   15.1500   24.7160 C   0  0  0  0  0  0  0  0  0  0  0  0
   -3.2180   14.4420   23.7100 N   0  0  0  0  0  0  0  0  0  0  0  0
   -3.6370   14.9430   22.5350 C   0  0  0  0  0  0  0  0  0  0  0  0
   -4.4870   15.9630   22.7700 O   0  0  0  0  0  0  0  0  0  0  0  0
   -5.0860   17.5860   26.0380 C   0  0  0  0  0  0  0  0  0  0  0  0
   -5.8860   18.5670   26.6130 C   0  0  0  0  0  0  0  0  0  0  0  0
  2  1  1  1
  3  2  1  0
  4  2  1  0
  5  2  1  0
  6  5  1  0
  7  6  2  0
  8  6  1  0
  9  8  1  0
 10  9  1  0
 10 11  1  1
 12 10  1  0
 13 12  1  0
 13  8  1  0
 13 14  1  1
 15 14  2  0
 16 14  1  0
 17 16  1  0
 18 17  1  0
 19 18  2  0
 20 19  1  0
 21 20  2  0
 22 21  1  0
 23 22  2  0
 24 23  1  0
 25 24  2  0
 26 25  1  0
 26 22  1  0
 27 21  1  0
 28 18  1  0
 28 27  2  0
M  END
$$$$
