
     RDKit          3D

 23 26  0  0  0  0  0  0  0  0999 V2000
    3.1930  -10.6400   -9.0490 O   0  0  0  0  0  0  0  0  0  0  0  0
    3.4110   -9.8260   -9.9080 C   0  0  0  0  0  0  0  0  0  0  0  0
    4.2640   -8.7640   -9.7110 N   0  0  0  0  0  0  0  0  0  0  0  0
    4.9250   -8.4360   -8.5070 C   0  0  0  0  0  0  0  0  0  0  0  0
    5.2390   -9.4160   -7.5440 C   0  0  0  0  0  0  0  0  0  0  0  0
    5.8560   -9.0610   -6.3440 C   0  0  0  0  0  0  0  0  0  0  0  0
    6.1760   -7.7170   -6.1010 C   0  0  0  0  0  0  0  0  0  0  0  0
    5.8740   -6.7350   -7.0590 C   0  0  0  0  0  0  0  0  0  0  0  0
    6.1960   -5.3200   -6.8040 C   0  0  0  0  0  0  0  0  0  0  0  0
    6.2730   -4.3670   -7.7190 N   0  0  0  0  0  0  0  0  0  0  0  0
    6.5890   -3.2190   -7.0740 N   0  0  0  0  0  0  0  0  0  0  0  0
    6.6810   -3.4980   -5.7960 N   0  0  0  0  0  0  0  0  0  0  0  0
    6.4420   -4.7990   -5.6100 N   0  0  0  0  0  0  0  0  0  0  0  0
    5.2540   -7.1100   -8.2630 C   0  0  0  0  0  0  0  0  0  0  0  0
    2.7310   -9.9250  -11.2490 C   0  0  0  0  0  0  0  0  0  0  0  0
    3.0260   -9.0300  -12.2840 C   0  0  0  0  0  0  0  0  0  0  0  0
    2.3540   -9.1110  -13.4940 C   0  0  0  0  0  0  0  0  0  0  0  0
    1.3800  -10.0920  -13.6670 C   0  0  0  0  0  0  0  0  0  0  0  0
    0.5810  -10.3800  -14.7250 N   0  0  0  0  0  0  0  0  0  0  0  0
   -0.2130  -11.4240  -14.3860 N   0  0  0  0  0  0  0  0  0  0  0  0
    0.0760  -11.7960  -13.1290 C   0  0  0  0  0  0  0  0  0  0  0  0
    1.0860  -10.9810  -12.6340 C   0  0  0  0  0  0  0  0  0  0  0  0
    1.7610  -10.9120  -11.4180 C   0  0  0  0  0  0  0  0  0  0  0  0
  2  1  2  0
  3  2  1  0
  4  3  1  0
  5  4  2  0
  6  5  1  0
  7  6  2  0
  8  7  1  0
  9  8  1  0
 10  9  2  0
 11 10  1  0
 12 11  2  0
 13 12  1  0
 13  9  1  0
 14  4  1  0
 14  8  2  0
 15  2  1  0
 16 15  1  0
 17 16  2  0
 18 17  1  0
 19 18  2  0
 20 19  1  0
 21 20  1  0
 22 21  2  0
 22 18  1  0
 23 22  1  0
 23 15  2  0
M  END
$$$$
