
     RDKit          3D

 33 36  0  0  0  0  0  0  0  0999 V2000
  -24.3570   29.9490   -8.5330 C   0  0  0  0  0  0  0  0  0  0  0  0
  -23.6400   28.6630   -8.2710 C   0  0  0  0  0  0  0  0  0  0  0  0
  -22.4260   28.6780   -8.0410 O   0  0  0  0  0  0  0  0  0  0  0  0
  -24.3430   27.4840   -8.2830 N   0  0  0  0  0  0  0  0  0  0  0  0
  -25.8070   27.3500   -8.4060 C   0  0  0  0  0  0  0  0  0  0  0  0
  -26.0780   26.0660   -7.6250 C   0  0  2  0  0  0  0  0  0  0  0  0
  -26.0670   26.3880   -6.2330 O   0  0  0  0  0  0  0  0  0  0  0  0
  -24.8900   25.2100   -7.9140 C   0  0  0  0  0  0  0  0  0  0  0  0
  -23.7190   26.1780   -8.1090 C   0  0  1  0  0  0  0  0  0  0  0  0
  -22.9200   25.7780   -9.3230 C   0  0  0  0  0  0  0  0  0  0  0  0
  -23.2380   26.2000  -10.4440 O   0  0  0  0  0  0  0  0  0  0  0  0
  -21.9160   24.8800   -9.1870 N   0  0  0  0  0  0  0  0  0  0  0  0
  -21.3410   24.3820   -7.9360 C   0  0  0  0  0  0  0  0  0  0  0  0
  -19.9600   23.8740   -8.3310 C   0  0  2  0  0  0  0  0  0  0  0  0
  -19.0510   24.9750   -8.4280 O   0  0  0  0  0  0  0  0  0  0  0  0
  -20.1860   23.3430   -9.7410 C   0  0  0  0  0  0  0  0  0  0  0  0
  -21.2320   24.2740  -10.3460 C   0  0  1  0  0  0  0  0  0  0  0  0
  -22.1370   23.4520  -11.2180 C   0  0  0  0  0  0  0  0  0  0  0  0
  -23.1370   22.9080  -10.7770 O   0  0  0  0  0  0  0  0  0  0  0  0
  -21.7320   23.2870  -12.5050 N   0  0  0  0  0  0  0  0  0  0  0  0
  -22.3740   22.3870  -13.4400 C   0  0  0  0  0  0  0  0  0  0  0  0
  -21.7480   21.0160  -13.3880 C   0  0  0  0  0  0  0  0  0  0  0  0
  -22.4730   19.8820  -13.7380 C   0  0  0  0  0  0  0  0  0  0  0  0
  -21.8920   18.6070  -13.6970 C   0  0  0  0  0  0  0  0  0  0  0  0
  -20.5490   18.4570  -13.3180 C   0  0  0  0  0  0  0  0  0  0  0  0
  -19.9210   17.1300  -13.3000 C   0  0  0  0  0  0  0  0  0  0  0  0
  -18.9780   16.5920  -11.9460 S   0  0  0  0  0  0  0  0  0  0  0  0
  -18.6820   15.0970  -12.7070 C   0  0  0  0  0  0  0  0  0  0  0  0
  -19.2380   15.0150  -13.8850 N   0  0  0  0  0  0  0  0  0  0  0  0
  -19.9340   16.1190  -14.2570 C   0  0  0  0  0  0  0  0  0  0  0  0
  -20.6350   16.1950  -15.6000 C   0  0  0  0  0  0  0  0  0  0  0  0
  -19.8190   19.5880  -12.9410 C   0  0  0  0  0  0  0  0  0  0  0  0
  -20.4230   20.8670  -12.9990 C   0  0  0  0  0  0  0  0  0  0  0  0
  2  1  1  0
  3  2  2  0
  4  2  1  0
  5  4  1  0
  6  5  1  0
  6  7  1  1
  8  6  1  0
  9  8  1  0
  9  4  1  0
  9 10  1  6
 11 10  2  0
 12 10  1  0
 13 12  1  0
 14 13  1  0
 14 15  1  6
 16 14  1  0
 17 12  1  0
 17 16  1  0
 17 18  1  6
 19 18  2  0
 20 18  1  0
 21 20  1  0
 22 21  1  0
 23 22  2  0
 24 23  1  0
 25 24  2  0
 26 25  1  0
 27 26  1  0
 28 27  1  0
 29 28  2  0
 30 29  1  0
 30 26  2  0
 31 30  1  0
 32 25  1  0
 33 32  2  0
 33 22  1  0
M  END
$$$$
