3zt2_ligand
     RDKit          3D

 34 37  0  0  0  0  0  0  0  0999 V2000
  -18.3190    2.3050   -4.0670 O   0  0  0  0  0  0  0  0  0  0  0  0
  -17.2400    2.7920   -4.3730 C   0  0  0  0  0  0  0  0  0  0  0  0
  -15.9080    2.3980   -3.7630 C   0  0  0  0  0  0  0  0  0  0  0  0
  -14.9490    3.3770   -4.3880 C   0  0  0  0  0  0  0  0  0  0  0  0
  -13.5850    3.4540   -4.1410 C   0  0  0  0  0  0  0  0  0  0  0  0
  -12.8350    4.4020   -4.8380 C   0  0  0  0  0  0  0  0  0  0  0  0
  -13.4510    5.2460   -5.7730 C   0  0  0  0  0  0  0  0  0  0  0  0
  -14.8260    5.1640   -6.0150 C   0  0  0  0  0  0  0  0  0  0  0  0
  -15.5780    4.2360   -5.3130 C   0  0  0  0  0  0  0  0  0  0  0  0
  -17.0110    3.9140   -5.3480 C   0  0  0  0  0  0  0  0  0  0  0  0
  -18.0470    4.4280   -6.0260 C   0  0  0  0  0  0  0  0  0  0  0  0
  -17.9960    5.5590   -6.9580 C   0  0  0  0  0  0  0  0  0  0  0  0
  -18.2520    6.8470   -6.4320 C   0  0  0  0  0  0  0  0  0  0  0  0
  -18.2100    7.9800   -7.2480 C   0  0  0  0  0  0  0  0  0  0  0  0
  -17.9140    7.7920   -8.5790 C   0  0  0  0  0  0  0  0  0  0  0  0
  -17.6650    6.5430   -9.1090 C   0  0  0  0  0  0  0  0  0  0  0  0
  -17.6940    5.3990   -8.3270 C   0  0  0  0  0  0  0  0  0  0  0  0
  -17.4020    4.0640   -8.9220 C   0  0  0  0  0  0  0  0  0  0  0  0
  -16.1950    3.6710   -8.8750 O   0  0  0  0  0  0  0  0  0  0  0  0
  -18.3830    3.4460   -9.4430 O   0  0  0  0  0  0  0  0  0  0  0  0
  -17.4130    6.6110  -10.4470 O   0  0  0  0  0  0  0  0  0  0  0  0
  -17.5060    8.0210  -10.6850 C   0  0  0  0  0  0  0  0  0  0  0  0
  -17.8370    8.7860   -9.5080 O   0  0  0  0  0  0  0  0  0  0  0  0
  -15.9265    2.5060   -2.6685 H   0  0  0  0  0  0  0  0  0  0  0  0
  -15.6390    1.3477   -3.9485 H   0  0  0  0  0  0  0  0  0  0  0  0
  -13.1065    2.7830   -3.4125 H   0  0  0  0  0  0  0  0  0  0  0  0
  -11.7541    4.4877   -4.6529 H   0  0  0  0  0  0  0  0  0  0  0  0
  -12.8454    5.9815   -6.3228 H   0  0  0  0  0  0  0  0  0  0  0  0
  -15.3034    5.8266   -6.7519 H   0  0  0  0  0  0  0  0  0  0  0  0
  -19.0283    3.9567   -5.8683 H   0  0  0  0  0  0  0  0  0  0  0  0
  -18.4879    6.9581   -5.3634 H   0  0  0  0  0  0  0  0  0  0  0  0
  -18.4059    8.9836   -6.8426 H   0  0  0  0  0  0  0  0  0  0  0  0
  -16.5367    8.3735  -11.0673 H   0  0  0  0  0  0  0  0  0  0  0  0
  -18.3217    8.1725  -11.4073 H   0  0  0  0  0  0  0  0  0  0  0  0
  1  2  2  0
  2  3  1  0
  3  4  1  0
  4  5  2  0
  5  6  1  0
  6  7  2  0
  7  8  1  0
  8  9  2  0
  9 10  1  0
 10 11  2  0
 11 12  1  0
 12 13  2  0
 13 14  1  0
 14 15  2  0
 15 16  1  0
 16 17  2  0
 17 18  1  0
 18 19  2  0
 18 20  1  0
 16 21  1  0
 21 22  1  0
 22 23  1  0
 10  2  1  0
 17 12  1  0
  9  4  1  0
 23 15  1  0
  3 24  1  0
  3 25  1  0
  5 26  1  0
  6 27  1  0
  7 28  1  0
  8 29  1  0
 11 30  1  0
 13 31  1  0
 14 32  1  0
 22 33  1  0
 22 34  1  0
M  CHG  1  20  -1
M  END
>  <meeko>  (1) 
{"is_sidechain": [false], "free_energy": -7.722, "intermolecular_energy": -8.625, "internal_energy": -1.022}

$$$$
3zt2_ligand
     RDKit          3D

 34 37  0  0  0  0  0  0  0  0999 V2000
  -12.8860    7.0360   -9.1980 O   0  0  0  0  0  0  0  0  0  0  0  0
  -13.1850    6.3670   -8.2200 C   0  0  0  0  0  0  0  0  0  0  0  0
  -12.2280    5.9870   -7.1060 C   0  0  0  0  0  0  0  0  0  0  0  0
  -13.0590    5.0720   -6.2450 C   0  0  0  0  0  0  0  0  0  0  0  0
  -12.6330    4.4270   -5.0910 C   0  0  0  0  0  0  0  0  0  0  0  0
  -13.5490    3.6420   -4.3920 C   0  0  0  0  0  0  0  0  0  0  0  0
  -14.8700    3.5190   -4.8450 C   0  0  0  0  0  0  0  0  0  0  0  0
  -15.2910    4.1700   -6.0090 C   0  0  0  0  0  0  0  0  0  0  0  0
  -14.3810    4.9380   -6.7170 C   0  0  0  0  0  0  0  0  0  0  0  0
  -14.5190    5.7290   -7.9470 C   0  0  0  0  0  0  0  0  0  0  0  0
  -15.5390    5.9310   -8.7940 C   0  0  0  0  0  0  0  0  0  0  0  0
  -16.8740    5.3290   -8.7010 C   0  0  0  0  0  0  0  0  0  0  0  0
  -17.0950    4.1270   -9.4120 C   0  0  0  0  0  0  0  0  0  0  0  0
  -18.3330    3.4820   -9.3660 C   0  0  0  0  0  0  0  0  0  0  0  0
  -19.3250    4.0630   -8.6080 C   0  0  0  0  0  0  0  0  0  0  0  0
  -19.1250    5.2360   -7.9120 C   0  0  0  0  0  0  0  0  0  0  0  0
  -17.9090    5.9010   -7.9310 C   0  0  0  0  0  0  0  0  0  0  0  0
  -17.7160    7.1570   -7.1540 C   0  0  0  0  0  0  0  0  0  0  0  0
  -17.3100    7.0300   -5.9570 O   0  0  0  0  0  0  0  0  0  0  0  0
  -17.9950    8.2440   -7.7510 O   0  0  0  0  0  0  0  0  0  0  0  0
  -20.2540    5.6210   -7.2510 O   0  0  0  0  0  0  0  0  0  0  0  0
  -21.1570    4.5610   -7.5860 C   0  0  0  0  0  0  0  0  0  0  0  0
  -20.5850    3.5670   -8.4610 O   0  0  0  0  0  0  0  0  0  0  0  0
  -11.3461    5.4633   -7.5035 H   0  0  0  0  0  0  0  0  0  0  0  0
  -11.8311    6.8553   -6.5596 H   0  0  0  0  0  0  0  0  0  0  0  0
  -11.5970    4.5331   -4.7368 H   0  0  0  0  0  0  0  0  0  0  0  0
  -13.2331    3.1158   -3.4791 H   0  0  0  0  0  0  0  0  0  0  0  0
  -15.5838    2.9032   -4.2782 H   0  0  0  0  0  0  0  0  0  0  0  0
  -16.3299    4.0736   -6.3574 H   0  0  0  0  0  0  0  0  0  0  0  0
  -15.3577    6.6124   -9.6383 H   0  0  0  0  0  0  0  0  0  0  0  0
  -16.2800    3.6935  -10.0101 H   0  0  0  0  0  0  0  0  0  0  0  0
  -18.5090    2.5450   -9.9147 H   0  0  0  0  0  0  0  0  0  0  0  0
  -21.4711    4.0653   -6.6556 H   0  0  0  0  0  0  0  0  0  0  0  0
  -22.0013    5.0160   -8.1247 H   0  0  0  0  0  0  0  0  0  0  0  0
  1  2  2  0
  2  3  1  0
  3  4  1  0
  4  5  2  0
  5  6  1  0
  6  7  2  0
  7  8  1  0
  8  9  2  0
  9 10  1  0
 10 11  2  0
 11 12  1  0
 12 13  2  0
 13 14  1  0
 14 15  2  0
 15 16  1  0
 16 17  2  0
 17 18  1  0
 18 19  2  0
 18 20  1  0
 16 21  1  0
 21 22  1  0
 22 23  1  0
 10  2  1  0
 17 12  1  0
  9  4  1  0
 23 15  1  0
  3 24  1  0
  3 25  1  0
  5 26  1  0
  6 27  1  0
  7 28  1  0
  8 29  1  0
 11 30  1  0
 13 31  1  0
 14 32  1  0
 22 33  1  0
 22 34  1  0
M  CHG  1  20  -1
M  END
>  <meeko>  (2) 
{"is_sidechain": [false], "free_energy": -7.708, "intermolecular_energy": -8.61, "internal_energy": -1.022}

$$$$
3zt2_ligand
     RDKit          3D

 34 37  0  0  0  0  0  0  0  0999 V2000
  -17.7450    1.2940   -4.7680 O   0  0  0  0  0  0  0  0  0  0  0  0
  -18.1710    2.3720   -5.1570 C   0  0  0  0  0  0  0  0  0  0  0  0
  -19.5630    2.9050   -4.8800 C   0  0  0  0  0  0  0  0  0  0  0  0
  -19.6030    4.1790   -5.6830 C   0  0  0  0  0  0  0  0  0  0  0  0
  -20.6830    5.0460   -5.7860 C   0  0  0  0  0  0  0  0  0  0  0  0
  -20.5350    6.2050   -6.5470 C   0  0  0  0  0  0  0  0  0  0  0  0
  -19.3170    6.4870   -7.1810 C   0  0  0  0  0  0  0  0  0  0  0  0
  -18.2340    5.6080   -7.0750 C   0  0  0  0  0  0  0  0  0  0  0  0
  -18.3810    4.4460   -6.3340 C   0  0  0  0  0  0  0  0  0  0  0  0
  -17.4460    3.3520   -6.0390 C   0  0  0  0  0  0  0  0  0  0  0  0
  -16.1840    3.1030   -6.4140 C   0  0  0  0  0  0  0  0  0  0  0  0
  -15.3700    3.9240   -7.3170 C   0  0  0  0  0  0  0  0  0  0  0  0
  -15.5330    3.7160   -8.7070 C   0  0  0  0  0  0  0  0  0  0  0  0
  -14.8070    4.4650   -9.6360 C   0  0  0  0  0  0  0  0  0  0  0  0
  -13.9290    5.4070   -9.1470 C   0  0  0  0  0  0  0  0  0  0  0  0
  -13.7580    5.6190   -7.7950 C   0  0  0  0  0  0  0  0  0  0  0  0
  -14.4640    4.8970   -6.8450 C   0  0  0  0  0  0  0  0  0  0  0  0
  -14.2730    5.1610   -5.3910 C   0  0  0  0  0  0  0  0  0  0  0  0
  -15.1270    5.9170   -4.8320 O   0  0  0  0  0  0  0  0  0  0  0  0
  -13.2600    4.6220   -4.8440 O   0  0  0  0  0  0  0  0  0  0  0  0
  -12.8280    6.5870   -7.5570 O   0  0  0  0  0  0  0  0  0  0  0  0
  -12.4630    6.9670   -8.8890 C   0  0  0  0  0  0  0  0  0  0  0  0
  -13.1460    6.2150   -9.9130 O   0  0  0  0  0  0  0  0  0  0  0  0
  -20.3327    2.1975   -5.2221 H   0  0  0  0  0  0  0  0  0  0  0  0
  -19.7630    3.0604   -3.8096 H   0  0  0  0  0  0  0  0  0  0  0  0
  -21.6334    4.8235   -5.2789 H   0  0  0  0  0  0  0  0  0  0  0  0
  -21.3793    6.9024   -6.6505 H   0  0  0  0  0  0  0  0  0  0  0  0
  -19.2116    7.4107   -7.7690 H   0  0  0  0  0  0  0  0  0  0  0  0
  -17.2797    5.8357   -7.5725 H   0  0  0  0  0  0  0  0  0  0  0  0
  -15.7134    2.1964   -6.0058 H   0  0  0  0  0  0  0  0  0  0  0  0
  -16.2419    2.9532   -9.0613 H   0  0  0  0  0  0  0  0  0  0  0  0
  -14.9318    4.3084  -10.7176 H   0  0  0  0  0  0  0  0  0  0  0  0
  -12.7003    8.0326   -9.0237 H   0  0  0  0  0  0  0  0  0  0  0  0
  -11.3884    6.7597   -8.9999 H   0  0  0  0  0  0  0  0  0  0  0  0
  1  2  2  0
  2  3  1  0
  3  4  1  0
  4  5  2  0
  5  6  1  0
  6  7  2  0
  7  8  1  0
  8  9  2  0
  9 10  1  0
 10 11  2  0
 11 12  1  0
 12 13  2  0
 13 14  1  0
 14 15  2  0
 15 16  1  0
 16 17  2  0
 17 18  1  0
 18 19  2  0
 18 20  1  0
 16 21  1  0
 21 22  1  0
 22 23  1  0
 10  2  1  0
 17 12  1  0
  9  4  1  0
 23 15  1  0
  3 24  1  0
  3 25  1  0
  5 26  1  0
  6 27  1  0
  7 28  1  0
  8 29  1  0
 11 30  1  0
 13 31  1  0
 14 32  1  0
 22 33  1  0
 22 34  1  0
M  CHG  1  20  -1
M  END
>  <meeko>  (3) 
{"is_sidechain": [false], "free_energy": -7.627, "intermolecular_energy": -8.545, "internal_energy": -0.996}

$$$$
3zt2_ligand
     RDKit          3D

 34 37  0  0  0  0  0  0  0  0999 V2000
  -12.5870    6.0670   -6.9860 O   0  0  0  0  0  0  0  0  0  0  0  0
  -13.3050    5.4120   -6.2440 C   0  0  0  0  0  0  0  0  0  0  0  0
  -12.8050    4.4610   -5.1740 C   0  0  0  0  0  0  0  0  0  0  0  0
  -14.0750    3.8340   -4.6600 C   0  0  0  0  0  0  0  0  0  0  0  0
  -14.1640    2.8640   -3.6700 C   0  0  0  0  0  0  0  0  0  0  0  0
  -15.4290    2.4190   -3.2880 C   0  0  0  0  0  0  0  0  0  0  0  0
  -16.5800    2.9520   -3.8860 C   0  0  0  0  0  0  0  0  0  0  0  0
  -16.4820    3.9270   -4.8830 C   0  0  0  0  0  0  0  0  0  0  0  0
  -15.2270    4.3610   -5.2790 C   0  0  0  0  0  0  0  0  0  0  0  0
  -14.8080    5.3550   -6.2760 C   0  0  0  0  0  0  0  0  0  0  0  0
  -15.4850    6.1230   -7.1410 C   0  0  0  0  0  0  0  0  0  0  0  0
  -16.9380    6.1330   -7.3370 C   0  0  0  0  0  0  0  0  0  0  0  0
  -17.6850    7.0900   -6.6110 C   0  0  0  0  0  0  0  0  0  0  0  0
  -19.0720    7.1760   -6.7490 C   0  0  0  0  0  0  0  0  0  0  0  0
  -19.6800    6.2940   -7.6140 C   0  0  0  0  0  0  0  0  0  0  0  0
  -18.9660    5.3540   -8.3270 C   0  0  0  0  0  0  0  0  0  0  0  0
  -17.5890    5.2430   -8.2170 C   0  0  0  0  0  0  0  0  0  0  0  0
  -16.8410    4.2300   -9.0140 C   0  0  0  0  0  0  0  0  0  0  0  0
  -16.6950    3.0840   -8.4860 O   0  0  0  0  0  0  0  0  0  0  0  0
  -16.3980    4.6090  -10.1430 O   0  0  0  0  0  0  0  0  0  0  0  0
  -19.7860    4.5880   -9.1020 O   0  0  0  0  0  0  0  0  0  0  0  0
  -21.0670    5.1620   -8.8170 C   0  0  0  0  0  0  0  0  0  0  0  0
  -21.0190    6.2420   -7.8610 O   0  0  0  0  0  0  0  0  0  0  0  0
  -12.1339    3.7017   -5.6018 H   0  0  0  0  0  0  0  0  0  0  0  0
  -12.2187    4.9605   -4.3887 H   0  0  0  0  0  0  0  0  0  0  0  0
  -13.2577    2.4563   -3.1983 H   0  0  0  0  0  0  0  0  0  0  0  0
  -15.5247    1.6448   -2.5125 H   0  0  0  0  0  0  0  0  0  0  0  0
  -17.5716    2.5987   -3.5668 H   0  0  0  0  0  0  0  0  0  0  0  0
  -17.3883    4.3438   -5.3466 H   0  0  0  0  0  0  0  0  0  0  0  0
  -14.8942    6.8114   -7.7632 H   0  0  0  0  0  0  0  0  0  0  0  0
  -17.1653    7.7771   -5.9271 H   0  0  0  0  0  0  0  0  0  0  0  0
  -19.6565    7.9200   -6.1880 H   0  0  0  0  0  0  0  0  0  0  0  0
  -21.4913    5.5477   -9.7557 H   0  0  0  0  0  0  0  0  0  0  0  0
  -21.6840    4.3669   -8.3730 H   0  0  0  0  0  0  0  0  0  0  0  0
  1  2  2  0
  2  3  1  0
  3  4  1  0
  4  5  2  0
  5  6  1  0
  6  7  2  0
  7  8  1  0
  8  9  2  0
  9 10  1  0
 10 11  2  0
 11 12  1  0
 12 13  2  0
 13 14  1  0
 14 15  2  0
 15 16  1  0
 16 17  2  0
 17 18  1  0
 18 19  2  0
 18 20  1  0
 16 21  1  0
 21 22  1  0
 22 23  1  0
 10  2  1  0
 17 12  1  0
  9  4  1  0
 23 15  1  0
  3 24  1  0
  3 25  1  0
  5 26  1  0
  6 27  1  0
  7 28  1  0
  8 29  1  0
 11 30  1  0
 13 31  1  0
 14 32  1  0
 22 33  1  0
 22 34  1  0
M  CHG  1  20  -1
M  END
>  <meeko>  (4) 
{"is_sidechain": [false], "free_energy": -7.555, "intermolecular_energy": -8.446, "internal_energy": -1.015}

$$$$
3zt2_ligand
     RDKit          3D

 34 37  0  0  0  0  0  0  0  0999 V2000
  -16.5340    3.7280   -4.0160 O   0  0  0  0  0  0  0  0  0  0  0  0
  -15.7280    4.1470   -4.8340 C   0  0  0  0  0  0  0  0  0  0  0  0
  -14.2250    3.9630   -4.7410 C   0  0  0  0  0  0  0  0  0  0  0  0
  -13.7150    4.7690   -5.9070 C   0  0  0  0  0  0  0  0  0  0  0  0
  -12.3820    4.9450   -6.2560 C   0  0  0  0  0  0  0  0  0  0  0  0
  -12.0870    5.6950   -7.3940 C   0  0  0  0  0  0  0  0  0  0  0  0
  -13.1170    6.2470   -8.1670 C   0  0  0  0  0  0  0  0  0  0  0  0
  -14.4570    6.0680   -7.8080 C   0  0  0  0  0  0  0  0  0  0  0  0
  -14.7560    5.3370   -6.6690 C   0  0  0  0  0  0  0  0  0  0  0  0
  -16.0380    4.9790   -6.0480 C   0  0  0  0  0  0  0  0  0  0  0  0
  -17.3120    5.2680   -6.3490 C   0  0  0  0  0  0  0  0  0  0  0  0
  -17.7690    6.1160   -7.4550 C   0  0  0  0  0  0  0  0  0  0  0  0
  -17.8960    7.5020   -7.2020 C   0  0  0  0  0  0  0  0  0  0  0  0
  -18.3120    8.3820   -8.2030 C   0  0  0  0  0  0  0  0  0  0  0  0
  -18.5950    7.8470   -9.4410 C   0  0  0  0  0  0  0  0  0  0  0  0
  -18.4790    6.4980   -9.7030 C   0  0  0  0  0  0  0  0  0  0  0  0
  -18.0650    5.5980   -8.7330 C   0  0  0  0  0  0  0  0  0  0  0  0
  -17.9300    4.1480   -9.0500 C   0  0  0  0  0  0  0  0  0  0  0  0
  -19.0020    3.4660   -9.0660 O   0  0  0  0  0  0  0  0  0  0  0  0
  -16.7520    3.7180   -9.2550 O   0  0  0  0  0  0  0  0  0  0  0  0
  -18.8280    6.2080  -10.9880 O   0  0  0  0  0  0  0  0  0  0  0  0
  -19.1460    7.5090  -11.4980 C   0  0  0  0  0  0  0  0  0  0  0  0
  -19.0150    8.5620  -10.5210 O   0  0  0  0  0  0  0  0  0  0  0  0
  -13.8365    4.3543   -3.7892 H   0  0  0  0  0  0  0  0  0  0  0  0
  -13.9135    2.9085   -4.7722 H   0  0  0  0  0  0  0  0  0  0  0  0
  -11.5781    4.5032   -5.6490 H   0  0  0  0  0  0  0  0  0  0  0  0
  -11.0387    5.8543   -7.6868 H   0  0  0  0  0  0  0  0  0  0  0  0
  -12.8688    6.8283   -9.0673 H   0  0  0  0  0  0  0  0  0  0  0  0
  -15.2616    6.5010   -8.4205 H   0  0  0  0  0  0  0  0  0  0  0  0
  -18.0880    4.8275   -5.7057 H   0  0  0  0  0  0  0  0  0  0  0  0
  -17.6632    7.8928   -6.2004 H   0  0  0  0  0  0  0  0  0  0  0  0
  -18.4100    9.4606   -8.0108 H   0  0  0  0  0  0  0  0  0  0  0  0
  -18.4697    7.7279  -12.3375 H   0  0  0  0  0  0  0  0  0  0  0  0
  -20.2019    7.4848  -11.8054 H   0  0  0  0  0  0  0  0  0  0  0  0
  1  2  2  0
  2  3  1  0
  3  4  1  0
  4  5  2  0
  5  6  1  0
  6  7  2  0
  7  8  1  0
  8  9  2  0
  9 10  1  0
 10 11  2  0
 11 12  1  0
 12 13  2  0
 13 14  1  0
 14 15  2  0
 15 16  1  0
 16 17  2  0
 17 18  1  0
 18 19  2  0
 18 20  1  0
 16 21  1  0
 21 22  1  0
 22 23  1  0
 10  2  1  0
 17 12  1  0
  9  4  1  0
 23 15  1  0
  3 24  1  0
  3 25  1  0
  5 26  1  0
  6 27  1  0
  7 28  1  0
  8 29  1  0
 11 30  1  0
 13 31  1  0
 14 32  1  0
 22 33  1  0
 22 34  1  0
M  CHG  1  20  -1
M  END
>  <meeko>  (5) 
{"is_sidechain": [false], "free_energy": -7.233, "intermolecular_energy": -8.118, "internal_energy": -0.983}

$$$$
3zt2_ligand
     RDKit          3D

 34 37  0  0  0  0  0  0  0  0999 V2000
  -12.6250    4.4540   -4.3860 O   0  0  0  0  0  0  0  0  0  0  0  0
  -12.8770    4.7680   -5.5410 C   0  0  0  0  0  0  0  0  0  0  0  0
  -11.8370    5.0810   -6.6000 C   0  0  0  0  0  0  0  0  0  0  0  0
  -12.6720    5.5260   -7.7710 C   0  0  0  0  0  0  0  0  0  0  0  0
  -12.1910    5.9490   -9.0040 C   0  0  0  0  0  0  0  0  0  0  0  0
  -13.1110    6.2910   -9.9950 C   0  0  0  0  0  0  0  0  0  0  0  0
  -14.4870    6.1990   -9.7480 C   0  0  0  0  0  0  0  0  0  0  0  0
  -14.9650    5.7750   -8.5040 C   0  0  0  0  0  0  0  0  0  0  0  0
  -14.0560    5.4490   -7.5100 C   0  0  0  0  0  0  0  0  0  0  0  0
  -14.2440    4.9770   -6.1320 C   0  0  0  0  0  0  0  0  0  0  0  0
  -15.3340    4.7510   -5.3850 C   0  0  0  0  0  0  0  0  0  0  0  0
  -16.7260    4.9690   -5.7940 C   0  0  0  0  0  0  0  0  0  0  0  0
  -17.0750    6.2640   -6.2440 C   0  0  0  0  0  0  0  0  0  0  0  0
  -18.3750    6.5530   -6.6640 C   0  0  0  0  0  0  0  0  0  0  0  0
  -19.2990    5.5330   -6.6200 C   0  0  0  0  0  0  0  0  0  0  0  0
  -18.9740    4.2660   -6.1810 C   0  0  0  0  0  0  0  0  0  0  0  0
  -17.6940    3.9430   -5.7610 C   0  0  0  0  0  0  0  0  0  0  0  0
  -17.3670    2.5610   -5.3090 C   0  0  0  0  0  0  0  0  0  0  0  0
  -17.7830    2.2250   -4.1570 O   0  0  0  0  0  0  0  0  0  0  0  0
  -16.6840    1.8480   -6.1100 O   0  0  0  0  0  0  0  0  0  0  0  0
  -20.0550    3.4360   -6.2140 O   0  0  0  0  0  0  0  0  0  0  0  0
  -21.0670    4.3050   -6.7380 C   0  0  0  0  0  0  0  0  0  0  0  0
  -20.6050    5.6480   -6.9900 O   0  0  0  0  0  0  0  0  0  0  0  0
  -11.1626    5.8837   -6.2672 H   0  0  0  0  0  0  0  0  0  0  0  0
  -11.1833    4.2273   -6.8323 H   0  0  0  0  0  0  0  0  0  0  0  0
  -11.1094    6.0127   -9.1942 H   0  0  0  0  0  0  0  0  0  0  0  0
  -12.7539    6.6352  -10.9768 H   0  0  0  0  0  0  0  0  0  0  0  0
  -15.2003    6.4636  -10.5425 H   0  0  0  0  0  0  0  0  0  0  0  0
  -16.0465    5.7013   -8.3172 H   0  0  0  0  0  0  0  0  0  0  0  0
  -15.1689    4.3652   -4.3682 H   0  0  0  0  0  0  0  0  0  0  0  0
  -16.3109    7.0551   -6.2633 H   0  0  0  0  0  0  0  0  0  0  0  0
  -18.6506    7.5578   -7.0168 H   0  0  0  0  0  0  0  0  0  0  0  0
  -21.4332    3.8805   -7.6844 H   0  0  0  0  0  0  0  0  0  0  0  0
  -21.8569    4.3747   -5.9756 H   0  0  0  0  0  0  0  0  0  0  0  0
  1  2  2  0
  2  3  1  0
  3  4  1  0
  4  5  2  0
  5  6  1  0
  6  7  2  0
  7  8  1  0
  8  9  2  0
  9 10  1  0
 10 11  2  0
 11 12  1  0
 12 13  2  0
 13 14  1  0
 14 15  2  0
 15 16  1  0
 16 17  2  0
 17 18  1  0
 18 19  2  0
 18 20  1  0
 16 21  1  0
 21 22  1  0
 22 23  1  0
 10  2  1  0
 17 12  1  0
  9  4  1  0
 23 15  1  0
  3 24  1  0
  3 25  1  0
  5 26  1  0
  6 27  1  0
  7 28  1  0
  8 29  1  0
 11 30  1  0
 13 31  1  0
 14 32  1  0
 22 33  1  0
 22 34  1  0
M  CHG  1  20  -1
M  END
>  <meeko>  (6) 
{"is_sidechain": [false], "free_energy": -7.194, "intermolecular_energy": -8.73, "internal_energy": -0.328}

$$$$
3zt2_ligand
     RDKit          3D

 34 37  0  0  0  0  0  0  0  0999 V2000
  -20.4650    6.4340   -6.8210 O   0  0  0  0  0  0  0  0  0  0  0  0
  -20.0350    5.3450   -6.4680 C   0  0  0  0  0  0  0  0  0  0  0  0
  -20.8940    4.1710   -6.0420 C   0  0  0  0  0  0  0  0  0  0  0  0
  -19.8780    3.1540   -5.5940 C   0  0  0  0  0  0  0  0  0  0  0  0
  -20.1550    1.8920   -5.0850 C   0  0  0  0  0  0  0  0  0  0  0  0
  -19.0870    1.0600   -4.7520 C   0  0  0  0  0  0  0  0  0  0  0  0
  -17.7660    1.4900   -4.9400 C   0  0  0  0  0  0  0  0  0  0  0  0
  -17.4940    2.7630   -5.4510 C   0  0  0  0  0  0  0  0  0  0  0  0
  -18.5520    3.6010   -5.7680 C   0  0  0  0  0  0  0  0  0  0  0  0
  -18.5880    4.9640   -6.3150 C   0  0  0  0  0  0  0  0  0  0  0  0
  -17.6290    5.8420   -6.6430 C   0  0  0  0  0  0  0  0  0  0  0  0
  -16.1840    5.6440   -6.4900 C   0  0  0  0  0  0  0  0  0  0  0  0
  -15.6970    5.3940   -5.1860 C   0  0  0  0  0  0  0  0  0  0  0  0
  -14.3360    5.1810   -4.9550 C   0  0  0  0  0  0  0  0  0  0  0  0
  -13.4920    5.2280   -6.0430 C   0  0  0  0  0  0  0  0  0  0  0  0
  -13.9520    5.4730   -7.3200 C   0  0  0  0  0  0  0  0  0  0  0  0
  -15.2950    5.6850   -7.5860 C   0  0  0  0  0  0  0  0  0  0  0  0
  -15.7660    5.9300   -8.9780 C   0  0  0  0  0  0  0  0  0  0  0  0
  -16.0930    4.9070   -9.6570 O   0  0  0  0  0  0  0  0  0  0  0  0
  -15.7790    7.1390   -9.3700 O   0  0  0  0  0  0  0  0  0  0  0  0
  -12.9300    5.4870   -8.2230 O   0  0  0  0  0  0  0  0  0  0  0  0
  -11.8040    5.2010   -7.3840 C   0  0  0  0  0  0  0  0  0  0  0  0
  -12.1430    5.0460   -5.9910 O   0  0  0  0  0  0  0  0  0  0  0  0
  -21.5645    4.4506   -5.2160 H   0  0  0  0  0  0  0  0  0  0  0  0
  -21.5529    3.8026   -6.8421 H   0  0  0  0  0  0  0  0  0  0  0  0
  -21.1935    1.5564   -4.9477 H   0  0  0  0  0  0  0  0  0  0  0  0
  -19.2822    0.0594   -4.3389 H   0  0  0  0  0  0  0  0  0  0  0  0
  -16.9338    0.8183   -4.6826 H   0  0  0  0  0  0  0  0  0  0  0  0
  -16.4557    3.0946   -5.5993 H   0  0  0  0  0  0  0  0  0  0  0  0
  -17.9575    6.8023   -7.0673 H   0  0  0  0  0  0  0  0  0  0  0  0
  -16.4006    5.3669   -4.3409 H   0  0  0  0  0  0  0  0  0  0  0  0
  -13.9527    4.9833   -3.9431 H   0  0  0  0  0  0  0  0  0  0  0  0
  -11.3384    4.2678   -7.7339 H   0  0  0  0  0  0  0  0  0  0  0  0
  -11.1234    6.0623   -7.4551 H   0  0  0  0  0  0  0  0  0  0  0  0
  1  2  2  0
  2  3  1  0
  3  4  1  0
  4  5  2  0
  5  6  1  0
  6  7  2  0
  7  8  1  0
  8  9  2  0
  9 10  1  0
 10 11  2  0
 11 12  1  0
 12 13  2  0
 13 14  1  0
 14 15  2  0
 15 16  1  0
 16 17  2  0
 17 18  1  0
 18 19  2  0
 18 20  1  0
 16 21  1  0
 21 22  1  0
 22 23  1  0
 10  2  1  0
 17 12  1  0
  9  4  1  0
 23 15  1  0
  3 24  1  0
  3 25  1  0
  5 26  1  0
  6 27  1  0
  7 28  1  0
  8 29  1  0
 11 30  1  0
 13 31  1  0
 14 32  1  0
 22 33  1  0
 22 34  1  0
M  CHG  1  20  -1
M  END
>  <meeko>  (7) 
{"is_sidechain": [false], "free_energy": -6.976, "intermolecular_energy": -8.287, "internal_energy": -0.527}

$$$$
3zt2_ligand
     RDKit          3D

 34 37  0  0  0  0  0  0  0  0999 V2000
  -17.0840    3.0420   -3.8040 O   0  0  0  0  0  0  0  0  0  0  0  0
  -16.2220    3.4900   -4.5460 C   0  0  0  0  0  0  0  0  0  0  0  0
  -14.7580    3.6420   -4.1810 C   0  0  0  0  0  0  0  0  0  0  0  0
  -14.1830    4.3480   -5.3800 C   0  0  0  0  0  0  0  0  0  0  0  0
  -12.8600    4.7440   -5.5380 C   0  0  0  0  0  0  0  0  0  0  0  0
  -12.4880    5.3560   -6.7340 C   0  0  0  0  0  0  0  0  0  0  0  0
  -13.4300    5.5550   -7.7520 C   0  0  0  0  0  0  0  0  0  0  0  0
  -14.7600    5.1570   -7.5860 C   0  0  0  0  0  0  0  0  0  0  0  0
  -15.1400    4.5630   -6.3930 C   0  0  0  0  0  0  0  0  0  0  0  0
  -16.4330    4.0430   -5.9290 C   0  0  0  0  0  0  0  0  0  0  0  0
  -17.6550    4.0100   -6.4800 C   0  0  0  0  0  0  0  0  0  0  0  0
  -18.0320    4.5640   -7.7850 C   0  0  0  0  0  0  0  0  0  0  0  0
  -17.8430    3.7410   -8.9190 C   0  0  0  0  0  0  0  0  0  0  0  0
  -18.1890    4.1860  -10.1970 C   0  0  0  0  0  0  0  0  0  0  0  0
  -18.7150    5.4530  -10.3070 C   0  0  0  0  0  0  0  0  0  0  0  0
  -18.9030    6.2690   -9.2110 C   0  0  0  0  0  0  0  0  0  0  0  0
  -18.5750    5.8580   -7.9290 C   0  0  0  0  0  0  0  0  0  0  0  0
  -18.8060    6.7540   -6.7600 C   0  0  0  0  0  0  0  0  0  0  0  0
  -19.9960    6.8230   -6.3220 O   0  0  0  0  0  0  0  0  0  0  0  0
  -17.7950    7.3850   -6.3190 O   0  0  0  0  0  0  0  0  0  0  0  0
  -19.4200    7.4780   -9.5730 O   0  0  0  0  0  0  0  0  0  0  0  0
  -19.5560    7.3180  -10.9900 C   0  0  0  0  0  0  0  0  0  0  0  0
  -19.0990    6.0390  -11.4750 O   0  0  0  0  0  0  0  0  0  0  0  0
  -14.6381    4.2473   -3.2704 H   0  0  0  0  0  0  0  0  0  0  0  0
  -14.2633    2.6840   -3.9629 H   0  0  0  0  0  0  0  0  0  0  0  0
  -12.1236    4.5783   -4.7378 H   0  0  0  0  0  0  0  0  0  0  0  0
  -11.4484    5.6848   -6.8795 H   0  0  0  0  0  0  0  0  0  0  0  0
  -13.1191    6.0305   -8.6940 H   0  0  0  0  0  0  0  0  0  0  0  0
  -15.4939    5.3131   -8.3904 H   0  0  0  0  0  0  0  0  0  0  0  0
  -18.4503    3.5211   -5.8982 H   0  0  0  0  0  0  0  0  0  0  0  0
  -17.4169    2.7347   -8.7929 H   0  0  0  0  0  0  0  0  0  0  0  0
  -18.0465    3.5481  -11.0818 H   0  0  0  0  0  0  0  0  0  0  0  0
  -20.6186    7.4293  -11.2518 H   0  0  0  0  0  0  0  0  0  0  0  0
  -18.9251    8.0853  -11.4624 H   0  0  0  0  0  0  0  0  0  0  0  0
  1  2  2  0
  2  3  1  0
  3  4  1  0
  4  5  2  0
  5  6  1  0
  6  7  2  0
  7  8  1  0
  8  9  2  0
  9 10  1  0
 10 11  2  0
 11 12  1  0
 12 13  2  0
 13 14  1  0
 14 15  2  0
 15 16  1  0
 16 17  2  0
 17 18  1  0
 18 19  2  0
 18 20  1  0
 16 21  1  0
 21 22  1  0
 22 23  1  0
 10  2  1  0
 17 12  1  0
  9  4  1  0
 23 15  1  0
  3 24  1  0
  3 25  1  0
  5 26  1  0
  6 27  1  0
  7 28  1  0
  8 29  1  0
 11 30  1  0
 13 31  1  0
 14 32  1  0
 22 33  1  0
 22 34  1  0
M  CHG  1  20  -1
M  END
>  <meeko>  (8) 
{"is_sidechain": [false], "free_energy": -6.96, "intermolecular_energy": -7.839, "internal_energy": -0.957}

$$$$
3zt2_ligand
     RDKit          3D

 34 37  0  0  0  0  0  0  0  0999 V2000
  -18.1620    2.9640   -4.4730 O   0  0  0  0  0  0  0  0  0  0  0  0
  -17.0350    3.3210   -4.7830 C   0  0  0  0  0  0  0  0  0  0  0  0
  -15.7730    2.9600   -4.0230 C   0  0  0  0  0  0  0  0  0  0  0  0
  -14.7100    3.7520   -4.7390 C   0  0  0  0  0  0  0  0  0  0  0  0
  -13.3600    3.7870   -4.4150 C   0  0  0  0  0  0  0  0  0  0  0  0
  -12.5050    4.5480   -5.2120 C   0  0  0  0  0  0  0  0  0  0  0  0
  -13.0020    5.2490   -6.3180 C   0  0  0  0  0  0  0  0  0  0  0  0
  -14.3630    5.2110   -6.6380 C   0  0  0  0  0  0  0  0  0  0  0  0
  -15.2200    4.4700   -5.8400 C   0  0  0  0  0  0  0  0  0  0  0  0
  -16.6690    4.2360   -5.9190 C   0  0  0  0  0  0  0  0  0  0  0  0
  -17.6230    4.6850   -6.7460 C   0  0  0  0  0  0  0  0  0  0  0  0
  -17.4360    5.6280   -7.8540 C   0  0  0  0  0  0  0  0  0  0  0  0
  -16.5920    5.2250   -8.9150 C   0  0  0  0  0  0  0  0  0  0  0  0
  -16.3710    6.0570  -10.0140 C   0  0  0  0  0  0  0  0  0  0  0  0
  -17.0020    7.2810  -10.0220 C   0  0  0  0  0  0  0  0  0  0  0  0
  -17.8250    7.6900   -8.9940 C   0  0  0  0  0  0  0  0  0  0  0  0
  -18.0700    6.8880   -7.8900 C   0  0  0  0  0  0  0  0  0  0  0  0
  -18.9790    7.3480   -6.8020 C   0  0  0  0  0  0  0  0  0  0  0  0
  -18.5210    8.2290   -6.0110 O   0  0  0  0  0  0  0  0  0  0  0  0
  -20.1260    6.8020   -6.7510 O   0  0  0  0  0  0  0  0  0  0  0  0
  -18.3190    8.9410   -9.2190 O   0  0  0  0  0  0  0  0  0  0  0  0
  -17.7430    9.2510  -10.4930 C   0  0  0  0  0  0  0  0  0  0  0  0
  -16.8900    8.2100  -11.0120 O   0  0  0  0  0  0  0  0  0  0  0  0
  -15.8470    3.2609   -2.9675 H   0  0  0  0  0  0  0  0  0  0  0  0
  -15.5710    1.8788   -4.0055 H   0  0  0  0  0  0  0  0  0  0  0  0
  -12.9741    3.2276   -3.5500 H   0  0  0  0  0  0  0  0  0  0  0  0
  -11.4330    4.5980   -4.9703 H   0  0  0  0  0  0  0  0  0  0  0  0
  -12.3134    5.8368   -6.9427 H   0  0  0  0  0  0  0  0  0  0  0  0
  -14.7472    5.7609   -7.5098 H   0  0  0  0  0  0  0  0  0  0  0  0
  -18.6437    4.3108   -6.5780 H   0  0  0  0  0  0  0  0  0  0  0  0
  -16.1022    4.2409   -8.8736 H   0  0  0  0  0  0  0  0  0  0  0  0
  -15.7174    5.7465  -10.8425 H   0  0  0  0  0  0  0  0  0  0  0  0
  -18.5589    9.4217  -11.2108 H   0  0  0  0  0  0  0  0  0  0  0  0
  -17.1139   10.1425  -10.3532 H   0  0  0  0  0  0  0  0  0  0  0  0
  1  2  2  0
  2  3  1  0
  3  4  1  0
  4  5  2  0
  5  6  1  0
  6  7  2  0
  7  8  1  0
  8  9  2  0
  9 10  1  0
 10 11  2  0
 11 12  1  0
 12 13  2  0
 13 14  1  0
 14 15  2  0
 15 16  1  0
 16 17  2  0
 17 18  1  0
 18 19  2  0
 18 20  1  0
 16 21  1  0
 21 22  1  0
 22 23  1  0
 10  2  1  0
 17 12  1  0
  9  4  1  0
 23 15  1  0
  3 24  1  0
  3 25  1  0
  5 26  1  0
  6 27  1  0
  7 28  1  0
  8 29  1  0
 11 30  1  0
 13 31  1  0
 14 32  1  0
 22 33  1  0
 22 34  1  0
M  CHG  1  20  -1
M  END
>  <meeko>  (9) 
{"is_sidechain": [false], "free_energy": -6.605, "intermolecular_energy": -7.989, "internal_energy": -0.411}

$$$$
