4j28_ligand
     RDKit          3D

 33 35  0  0  0  0  0  0  0  0999 V2000
    1.2900    4.1550    6.8460 C   0  0  0  0  0  0  0  0  0  0  0  0
    1.6440    4.0960    8.3230 C   0  0  2  0  0  0  0  0  0  0  0  0
    0.4300    4.4950    9.1330 N   0  0  0  0  0  0  0  0  0  0  0  0
    0.8990    5.4320   10.2290 C   0  0  1  0  0  0  0  0  0  0  0  0
    1.3070    4.6500   11.4300 C   0  0  0  0  0  0  0  0  0  0  0  0
    0.4660    4.0970   12.2820 N   0  0  0  0  0  0  0  0  0  0  0  0
    1.2520    3.4860   13.2310 C   0  0  0  0  0  0  0  0  0  0  0  0
    0.8840    2.7470   14.3630 C   0  0  0  0  0  0  0  0  0  0  0  0
    1.8970    2.2240   15.1770 C   0  0  0  0  0  0  0  0  0  0  0  0
    3.2420    2.4330   14.8700 C   0  0  0  0  0  0  0  0  0  0  0  0
    3.6280    3.1700   13.7450 C   0  0  0  0  0  0  0  0  0  0  0  0
    2.6010    3.6800   12.9490 C   0  0  0  0  0  0  0  0  0  0  0  0
    2.6120    4.4320   11.8010 N   0  0  0  0  0  0  0  0  0  0  0  0
    2.0600    6.1520    9.5500 C   0  0  2  0  0  0  0  0  0  0  0  0
    1.5290    7.1120    8.6210 O   0  0  0  0  0  0  0  0  0  0  0  0
    2.7810    5.0420    8.7770 C   0  0  2  0  0  0  0  0  0  0  0  0
    3.5190    5.6440    7.7170 O   0  0  0  0  0  0  0  0  0  0  0  0
    0.2105    4.3349    6.7346 H   0  0  0  0  0  0  0  0  0  0  0  0
    1.8493    4.9723    6.3673 H   0  0  0  0  0  0  0  0  0  0  0  0
    1.5540    3.2005    6.3673 H   0  0  0  0  0  0  0  0  0  0  0  0
    1.9838    3.0623    8.4846 H   0  0  0  0  0  0  0  0  0  0  0  0
   -0.2560    4.9930    8.5530 H   0  0  0  0  0  0  0  0  0  0  0  0
   -0.0090    3.6700    9.5640 H   0  0  0  0  0  0  0  0  0  0  0  0
    0.1406    6.1332   10.6073 H   0  0  0  0  0  0  0  0  0  0  0  0
   -0.1758    2.5813   14.6069 H   0  0  0  0  0  0  0  0  0  0  0  0
    1.6286    1.6407   16.0702 H   0  0  0  0  0  0  0  0  0  0  0  0
    4.0159    2.0091   15.5268 H   0  0  0  0  0  0  0  0  0  0  0  0
    4.6870    3.3389   13.5003 H   0  0  0  0  0  0  0  0  0  0  0  0
    3.4490    4.7570   11.3330 H   0  0  0  0  0  0  0  0  0  0  0  0
    2.7194    6.6798   10.2548 H   0  0  0  0  0  0  0  0  0  0  0  0
    0.5600    6.9470    8.5960 H   0  0  0  0  0  0  0  0  0  0  0  0
    3.5214    4.4655    9.3511 H   0  0  0  0  0  0  0  0  0  0  0  0
    3.6450    6.5920    7.9190 H   0  0  0  0  0  0  0  0  0  0  0  0
  1  2  1  0
  2  3  1  0
  3  4  1  0
  4  5  1  0
  5  6  2  0
  6  7  1  0
  7  8  2  0
  8  9  1  0
  9 10  2  0
 10 11  1  0
 11 12  2  0
 12 13  1  0
  4 14  1  0
 14 15  1  0
 14 16  1  0
 16 17  1  0
 16  2  1  0
 13  5  1  0
 12  7  1  0
  1 18  1  0
  1 19  1  0
  1 20  1  0
  2 21  1  1
  3 22  1  0
  3 23  1  0
  4 24  1  1
  8 25  1  0
  9 26  1  0
 10 27  1  0
 11 28  1  0
 13 29  1  0
 14 30  1  1
 15 31  1  0
 16 32  1  1
 17 33  1  0
M  CHG  1   3   1
M  END
>  <meeko>  (1) 
{"is_sidechain": [false], "free_energy": -7.458, "intermolecular_energy": -8.33, "internal_energy": 0.036}

$$$$
4j28_ligand
     RDKit          3D

 33 35  0  0  0  0  0  0  0  0999 V2000
    1.9790    4.4150    7.4170 C   0  0  0  0  0  0  0  0  0  0  0  0
    1.6590    4.0970    8.8680 C   0  0  2  0  0  0  0  0  0  0  0  0
    0.2090    4.4330    9.1350 N   0  0  0  0  0  0  0  0  0  0  0  0
    0.1430    5.1490   10.4690 C   0  0  1  0  0  0  0  0  0  0  0  0
    0.0030    4.1590   11.5750 C   0  0  0  0  0  0  0  0  0  0  0  0
    0.8620    4.0210   12.5660 N   0  0  0  0  0  0  0  0  0  0  0  0
    0.3610    3.0060   13.3480 C   0  0  0  0  0  0  0  0  0  0  0  0
    0.8660    2.4500   14.5300 C   0  0  0  0  0  0  0  0  0  0  0  0
    0.1510    1.4100   15.1380 C   0  0  0  0  0  0  0  0  0  0  0  0
   -1.0390    0.9370   14.5800 C   0  0  0  0  0  0  0  0  0  0  0  0
   -1.5560    1.4800   13.3980 C   0  0  0  0  0  0  0  0  0  0  0  0
   -0.8260    2.5160   12.8130 C   0  0  0  0  0  0  0  0  0  0  0  0
   -1.0310    3.2590   11.6780 N   0  0  0  0  0  0  0  0  0  0  0  0
    1.4730    5.8970   10.4900 C   0  0  2  0  0  0  0  0  0  0  0  0
    1.3810    7.0260    9.6050 O   0  0  0  0  0  0  0  0  0  0  0  0
    2.4740    4.8850    9.9230 C   0  0  2  0  0  0  0  0  0  0  0  0
    3.5890    5.6040    9.4030 O   0  0  0  0  0  0  0  0  0  0  0  0
    2.7587    5.1898    7.3748 H   0  0  0  0  0  0  0  0  0  0  0  0
    2.3381    3.5056    6.9129 H   0  0  0  0  0  0  0  0  0  0  0  0
    1.0719    4.7798    6.9129 H   0  0  0  0  0  0  0  0  0  0  0  0
    1.9105    3.0318    8.9780 H   0  0  0  0  0  0  0  0  0  0  0  0
   -0.1660    5.0590    8.4130 H   0  0  0  0  0  0  0  0  0  0  0  0
   -0.3610    3.5770    9.1860 H   0  0  0  0  0  0  0  0  0  0  0  0
   -0.7153    5.8245   10.5993 H   0  0  0  0  0  0  0  0  0  0  0  0
    1.8028    2.8215   14.9710 H   0  0  0  0  0  0  0  0  0  0  0  0
    0.5316    0.9600   16.0668 H   0  0  0  0  0  0  0  0  0  0  0  0
   -1.5811    0.1208   15.0799 H   0  0  0  0  0  0  0  0  0  0  0  0
   -2.4907    1.1089   12.9524 H   0  0  0  0  0  0  0  0  0  0  0  0
   -1.8120    3.1430   11.0450 H   0  0  0  0  0  0  0  0  0  0  0  0
    1.7550    6.2619   11.4887 H   0  0  0  0  0  0  0  0  0  0  0  0
    0.8960    7.7180   10.1080 H   0  0  0  0  0  0  0  0  0  0  0  0
    2.9012    4.1790   10.6504 H   0  0  0  0  0  0  0  0  0  0  0  0
    4.2830    4.9660    9.1460 H   0  0  0  0  0  0  0  0  0  0  0  0
  1  2  1  0
  2  3  1  0
  3  4  1  0
  4  5  1  0
  5  6  2  0
  6  7  1  0
  7  8  2  0
  8  9  1  0
  9 10  2  0
 10 11  1  0
 11 12  2  0
 12 13  1  0
  4 14  1  0
 14 15  1  0
 14 16  1  0
 16 17  1  0
 16  2  1  0
 13  5  1  0
 12  7  1  0
  1 18  1  0
  1 19  1  0
  1 20  1  0
  2 21  1  6
  3 22  1  0
  3 23  1  0
  4 24  1  6
  8 25  1  0
  9 26  1  0
 10 27  1  0
 11 28  1  0
 13 29  1  0
 14 30  1  1
 15 31  1  0
 16 32  1  1
 17 33  1  0
M  CHG  1   3   1
M  END
>  <meeko>  (2) 
{"is_sidechain": [false], "free_energy": -6.568, "intermolecular_energy": -7.2, "internal_energy": -0.1}

$$$$
4j28_ligand
     RDKit          3D

 33 35  0  0  0  0  0  0  0  0999 V2000
    1.5650    4.8960    7.6050 C   0  0  0  0  0  0  0  0  0  0  0  0
    2.1100    4.6890    9.0080 C   0  0  2  0  0  0  0  0  0  0  0  0
    1.2730    3.6420    9.7080 N   0  0  0  0  0  0  0  0  0  0  0  0
    1.0060    4.1360   11.1170 C   0  0  1  0  0  0  0  0  0  0  0  0
    2.1070    3.7060   12.0260 C   0  0  0  0  0  0  0  0  0  0  0  0
    2.1300    3.9280   13.3260 N   0  0  0  0  0  0  0  0  0  0  0  0
    3.3090    3.3780   13.7710 C   0  0  0  0  0  0  0  0  0  0  0  0
    3.8420    3.3210   15.0660 C   0  0  0  0  0  0  0  0  0  0  0  0
    5.0800    2.6940   15.2520 C   0  0  0  0  0  0  0  0  0  0  0  0
    5.7710    2.1380   14.1730 C   0  0  0  0  0  0  0  0  0  0  0  0
    5.2540    2.1870   12.8730 C   0  0  0  0  0  0  0  0  0  0  0  0
    4.0180    2.8160   12.7150 C   0  0  0  0  0  0  0  0  0  0  0  0
    3.2370    3.0440   11.6100 N   0  0  0  0  0  0  0  0  0  0  0  0
    0.9440    5.6470   10.9130 C   0  0  2  0  0  0  0  0  0  0  0  0
   -0.3130    5.9780   10.2990 O   0  0  0  0  0  0  0  0  0  0  0  0
    2.0830    5.9330    9.9280 C   0  0  2  0  0  0  0  0  0  0  0  0
    1.8000    7.1620    9.2650 O   0  0  0  0  0  0  0  0  0  0  0  0
    0.5382    5.2860    7.6644 H   0  0  0  0  0  0  0  0  0  0  0  0
    2.2000    5.6156    7.0674 H   0  0  0  0  0  0  0  0  0  0  0  0
    1.5622    3.9363    7.0674 H   0  0  0  0  0  0  0  0  0  0  0  0
    3.1627    4.4084    8.8563 H   0  0  0  0  0  0  0  0  0  0  0  0
    0.3700    3.5110    9.2360 H   0  0  0  0  0  0  0  0  0  0  0  0
    1.7750    2.7450    9.7580 H   0  0  0  0  0  0  0  0  0  0  0  0
    0.0938    3.7433   11.5899 H   0  0  0  0  0  0  0  0  0  0  0  0
    3.2999    3.7590   15.9171 H   0  0  0  0  0  0  0  0  0  0  0  0
    5.5141    2.6386   16.2612 H   0  0  0  0  0  0  0  0  0  0  0  0
    6.7418    1.6514   14.3484 H   0  0  0  0  0  0  0  0  0  0  0  0
    5.7944    1.7519   12.0194 H   0  0  0  0  0  0  0  0  0  0  0  0
    3.4760    2.7660   10.6670 H   0  0  0  0  0  0  0  0  0  0  0  0
    1.0345    6.2196   11.8478 H   0  0  0  0  0  0  0  0  0  0  0  0
   -0.5450    6.8720   10.6370 H   0  0  0  0  0  0  0  0  0  0  0  0
    3.0777    6.0707   10.3770 H   0  0  0  0  0  0  0  0  0  0  0  0
    1.3990    6.9660    8.3950 H   0  0  0  0  0  0  0  0  0  0  0  0
  1  2  1  0
  2  3  1  0
  3  4  1  0
  4  5  1  0
  5  6  2  0
  6  7  1  0
  7  8  2  0
  8  9  1  0
  9 10  2  0
 10 11  1  0
 11 12  2  0
 12 13  1  0
  4 14  1  0
 14 15  1  0
 14 16  1  0
 16 17  1  0
 16  2  1  0
 13  5  1  0
 12  7  1  0
  1 18  1  0
  1 19  1  0
  1 20  1  0
  2 21  1  6
  3 22  1  0
  3 23  1  0
  4 24  1  1
  8 25  1  0
  9 26  1  0
 10 27  1  0
 11 28  1  0
 13 29  1  0
 14 30  1  1
 15 31  1  0
 16 32  1  1
 17 33  1  0
M  CHG  1   3   1
M  END
>  <meeko>  (3) 
{"is_sidechain": [false], "free_energy": -6.508, "intermolecular_energy": -7.121, "internal_energy": -0.111}

$$$$
4j28_ligand
     RDKit          3D

 33 35  0  0  0  0  0  0  0  0999 V2000
   -0.1620    2.3590   15.3200 C   0  0  0  0  0  0  0  0  0  0  0  0
   -0.0000    2.7250   13.8540 C   0  0  2  0  0  0  0  0  0  0  0  0
   -0.1660    4.2200   13.7020 N   0  0  0  0  0  0  0  0  0  0  0  0
   -1.0390    4.4630   12.4860 C   0  0  1  0  0  0  0  0  0  0  0  0
   -0.1960    4.5420   11.2590 C   0  0  0  0  0  0  0  0  0  0  0  0
    1.0050    5.0830   11.2130 N   0  0  0  0  0  0  0  0  0  0  0  0
    1.4180    4.9510    9.9080 C   0  0  0  0  0  0  0  0  0  0  0  0
    2.6170    5.3460    9.3000 C   0  0  0  0  0  0  0  0  0  0  0  0
    2.7890    5.0900    7.9330 C   0  0  0  0  0  0  0  0  0  0  0  0
    1.7900    4.4560    7.1920 C   0  0  0  0  0  0  0  0  0  0  0  0
    0.5860    4.0570    7.7830 C   0  0  0  0  0  0  0  0  0  0  0  0
    0.4390    4.3220    9.1450 C   0  0  0  0  0  0  0  0  0  0  0  0
   -0.5850    4.0770   10.0260 N   0  0  0  0  0  0  0  0  0  0  0  0
   -1.9590    3.2450   12.5130 C   0  0  2  0  0  0  0  0  0  0  0  0
   -2.9350    3.4270   13.5520 O   0  0  0  0  0  0  0  0  0  0  0  0
   -1.0270    2.0870   12.8870 C   0  0  2  0  0  0  0  0  0  0  0  0
   -1.8160    1.0450   13.4540 O   0  0  0  0  0  0  0  0  0  0  0  0
    0.2039    3.1856   15.9469 H   0  0  0  0  0  0  0  0  0  0  0  0
   -1.2248    2.1768   15.5371 H   0  0  0  0  0  0  0  0  0  0  0  0
    0.4177    1.4497   15.5371 H   0  0  0  0  0  0  0  0  0  0  0  0
    0.9959    2.3447   13.5828 H   0  0  0  0  0  0  0  0  0  0  0  0
   -0.6330    4.6280   14.5210 H   0  0  0  0  0  0  0  0  0  0  0  0
    0.7450    4.6770   13.5560 H   0  0  0  0  0  0  0  0  0  0  0  0
   -1.6015    5.4083   12.4897 H   0  0  0  0  0  0  0  0  0  0  0  0
    3.4052    5.8456    9.8824 H   0  0  0  0  0  0  0  0  0  0  0  0
    3.7233    5.3925    7.4374 H   0  0  0  0  0  0  0  0  0  0  0  0
    1.9528    4.2661    6.1208 H   0  0  0  0  0  0  0  0  0  0  0  0
   -0.2050    3.5593    7.2028 H   0  0  0  0  0  0  0  0  0  0  0  0
   -1.4620    3.6350    9.7820 H   0  0  0  0  0  0  0  0  0  0  0  0
   -2.4900    3.0762   11.5646 H   0  0  0  0  0  0  0  0  0  0  0  0
   -2.4540    3.2740   14.3960 H   0  0  0  0  0  0  0  0  0  0  0  0
   -0.4906    1.6176   12.0492 H   0  0  0  0  0  0  0  0  0  0  0  0
   -1.6070    0.2070   12.9960 H   0  0  0  0  0  0  0  0  0  0  0  0
  1  2  1  0
  2  3  1  0
  3  4  1  0
  4  5  1  0
  5  6  2  0
  6  7  1  0
  7  8  2  0
  8  9  1  0
  9 10  2  0
 10 11  1  0
 11 12  2  0
 12 13  1  0
  4 14  1  0
 14 15  1  0
 14 16  1  0
 16 17  1  0
 16  2  1  0
 13  5  1  0
 12  7  1  0
  1 18  1  0
  1 19  1  0
  1 20  1  0
  2 21  1  6
  3 22  1  0
  3 23  1  0
  4 24  1  1
  8 25  1  0
  9 26  1  0
 10 27  1  0
 11 28  1  0
 13 29  1  0
 14 30  1  6
 15 31  1  0
 16 32  1  6
 17 33  1  0
M  CHG  1   3   1
M  END
>  <meeko>  (4) 
{"is_sidechain": [false], "free_energy": -6.276, "intermolecular_energy": -6.682, "internal_energy": -0.291}

$$$$
4j28_ligand
     RDKit          3D

 33 35  0  0  0  0  0  0  0  0999 V2000
   -3.0930    4.1880   13.8970 C   0  0  0  0  0  0  0  0  0  0  0  0
   -1.6390    3.8010   13.6870 C   0  0  2  0  0  0  0  0  0  0  0  0
   -0.8270    5.0550   13.4540 N   0  0  0  0  0  0  0  0  0  0  0  0
    0.1230    4.7790   12.3050 C   0  0  1  0  0  0  0  0  0  0  0  0
    1.3900    4.1870   12.8210 C   0  0  0  0  0  0  0  0  0  0  0  0
    1.7830    4.2460   14.0780 N   0  0  0  0  0  0  0  0  0  0  0  0
    2.9910    3.5880   14.1160 C   0  0  0  0  0  0  0  0  0  0  0  0
    3.8490    3.3460   15.1970 C   0  0  0  0  0  0  0  0  0  0  0  0
    5.0360    2.6410   14.9630 C   0  0  0  0  0  0  0  0  0  0  0  0
    5.3600    2.1900   13.6820 C   0  0  0  0  0  0  0  0  0  0  0  0
    4.5160    2.4250   12.5910 C   0  0  0  0  0  0  0  0  0  0  0  0
    3.3390    3.1280   12.8500 C   0  0  0  0  0  0  0  0  0  0  0  0
    2.3080    3.5280   12.0380 N   0  0  0  0  0  0  0  0  0  0  0  0
   -0.6930    3.8150   11.4490 C   0  0  2  0  0  0  0  0  0  0  0  0
   -1.7050    4.5600   10.7520 O   0  0  0  0  0  0  0  0  0  0  0  0
   -1.3570    2.8860   12.4710 C   0  0  2  0  0  0  0  0  0  0  0  0
   -2.5160    2.3180   11.8680 O   0  0  0  0  0  0  0  0  0  0  0  0
   -3.3054    4.2445   14.9748 H   0  0  0  0  0  0  0  0  0  0  0  0
   -3.2822    5.1678   13.4341 H   0  0  0  0  0  0  0  0  0  0  0  0
   -3.7442    3.4319   13.4341 H   0  0  0  0  0  0  0  0  0  0  0  0
   -1.3694    3.2424   14.5954 H   0  0  0  0  0  0  0  0  0  0  0  0
   -1.4300    5.8450   13.1920 H   0  0  0  0  0  0  0  0  0  0  0  0
   -0.2790    5.2970   14.2910 H   0  0  0  0  0  0  0  0  0  0  0  0
    0.4483    5.6636   11.7379 H   0  0  0  0  0  0  0  0  0  0  0  0
    3.5958    3.7018   16.2066 H   0  0  0  0  0  0  0  0  0  0  0  0
    5.7219    2.4399   15.7991 H   0  0  0  0  0  0  0  0  0  0  0  0
    6.2989    1.6381   13.5271 H   0  0  0  0  0  0  0  0  0  0  0  0
    4.7679    2.0731   11.5797 H   0  0  0  0  0  0  0  0  0  0  0  0
    2.2580    3.3570   11.0420 H   0  0  0  0  0  0  0  0  0  0  0  0
   -0.0906    3.2712   10.7065 H   0  0  0  0  0  0  0  0  0  0  0  0
   -1.4460    4.5350    9.8030 H   0  0  0  0  0  0  0  0  0  0  0  0
   -0.7523    2.0274   12.7983 H   0  0  0  0  0  0  0  0  0  0  0  0
   -2.3920    1.3510   11.7970 H   0  0  0  0  0  0  0  0  0  0  0  0
  1  2  1  0
  2  3  1  0
  3  4  1  0
  4  5  1  0
  5  6  2  0
  6  7  1  0
  7  8  2  0
  8  9  1  0
  9 10  2  0
 10 11  1  0
 11 12  2  0
 12 13  1  0
  4 14  1  0
 14 15  1  0
 14 16  1  0
 16 17  1  0
 16  2  1  0
 13  5  1  0
 12  7  1  0
  1 18  1  0
  1 19  1  0
  1 20  1  0
  2 21  1  1
  3 22  1  0
  3 23  1  0
  4 24  1  6
  8 25  1  0
  9 26  1  0
 10 27  1  0
 11 28  1  0
 13 29  1  0
 14 30  1  6
 15 31  1  0
 16 32  1  1
 17 33  1  0
M  CHG  1   3   1
M  END
>  <meeko>  (5) 
{"is_sidechain": [false], "free_energy": -6.082, "intermolecular_energy": -6.489, "internal_energy": -0.267}

$$$$
4j28_ligand
     RDKit          3D

 33 35  0  0  0  0  0  0  0  0999 V2000
   -7.7160   -0.2550   11.9770 C   0  0  0  0  0  0  0  0  0  0  0  0
   -6.4360    0.5450   12.1440 C   0  0  2  0  0  0  0  0  0  0  0  0
   -6.6190    1.9020   11.5010 N   0  0  0  0  0  0  0  0  0  0  0  0
   -5.3600    2.2110   10.7160 C   0  0  1  0  0  0  0  0  0  0  0  0
   -4.3620    2.8850   11.5950 C   0  0  0  0  0  0  0  0  0  0  0  0
   -4.6280    3.3650   12.7940 N   0  0  0  0  0  0  0  0  0  0  0  0
   -3.4430    3.8990   13.2470 C   0  0  0  0  0  0  0  0  0  0  0  0
   -3.1500    4.5340   14.4610 C   0  0  0  0  0  0  0  0  0  0  0  0
   -1.8440    4.9930   14.6760 C   0  0  0  0  0  0  0  0  0  0  0  0
   -0.8560    4.8230   13.7040 C   0  0  0  0  0  0  0  0  0  0  0  0
   -1.1330    4.1930   12.4860 C   0  0  0  0  0  0  0  0  0  0  0  0
   -2.4400    3.7430   12.2960 C   0  0  0  0  0  0  0  0  0  0  0  0
   -3.0500    3.1020   11.2470 N   0  0  0  0  0  0  0  0  0  0  0  0
   -4.9260    0.8210   10.2600 C   0  0  2  0  0  0  0  0  0  0  0  0
   -5.7830    0.4000    9.1860 O   0  0  0  0  0  0  0  0  0  0  0  0
   -5.1740   -0.0640   11.4860 C   0  0  2  0  0  0  0  0  0  0  0  0
   -5.3200   -1.4100   11.0420 O   0  0  0  0  0  0  0  0  0  0  0  0
   -8.1218   -0.5086   12.9675 H   0  0  0  0  0  0  0  0  0  0  0  0
   -8.4527    0.3437   11.4213 H   0  0  0  0  0  0  0  0  0  0  0  0
   -7.5007   -1.1796   11.4213 H   0  0  0  0  0  0  0  0  0  0  0  0
   -6.2678    0.5712   13.2307 H   0  0  0  0  0  0  0  0  0  0  0  0
   -7.4140    1.9000   10.8500 H   0  0  0  0  0  0  0  0  0  0  0  0
   -6.7550    2.6300   12.2160 H   0  0  0  0  0  0  0  0  0  0  0  0
   -5.4886    2.9035    9.8710 H   0  0  0  0  0  0  0  0  0  0  0  0
   -3.9273    4.6690   15.2275 H   0  0  0  0  0  0  0  0  0  0  0  0
   -1.5936    5.4938   15.6228 H   0  0  0  0  0  0  0  0  0  0  0  0
    0.1615    5.1922   13.9001 H   0  0  0  0  0  0  0  0  0  0  0  0
   -0.3587    4.0590   11.7162 H   0  0  0  0  0  0  0  0  0  0  0  0
   -2.5920    2.8480   10.3810 H   0  0  0  0  0  0  0  0  0  0  0  0
   -3.8844    0.7806    9.9087 H   0  0  0  0  0  0  0  0  0  0  0  0
   -6.6820    0.7180    9.4250 H   0  0  0  0  0  0  0  0  0  0  0  0
   -4.3601   -0.0923   12.2254 H   0  0  0  0  0  0  0  0  0  0  0  0
   -4.4550   -1.7310   10.7210 H   0  0  0  0  0  0  0  0  0  0  0  0
  1  2  1  0
  2  3  1  0
  3  4  1  0
  4  5  1  0
  5  6  2  0
  6  7  1  0
  7  8  2  0
  8  9  1  0
  9 10  2  0
 10 11  1  0
 11 12  2  0
 12 13  1  0
  4 14  1  0
 14 15  1  0
 14 16  1  0
 16 17  1  0
 16  2  1  0
 13  5  1  0
 12  7  1  0
  1 18  1  0
  1 19  1  0
  1 20  1  0
  2 21  1  1
  3 22  1  0
  3 23  1  0
  4 24  1  6
  8 25  1  0
  9 26  1  0
 10 27  1  0
 11 28  1  0
 13 29  1  0
 14 30  1  6
 15 31  1  0
 16 32  1  1
 17 33  1  0
M  CHG  1   3   1
M  END
>  <meeko>  (6) 
{"is_sidechain": [false], "free_energy": -6.034, "intermolecular_energy": -6.469, "internal_energy": -0.234}

$$$$
4j28_ligand
     RDKit          3D

 33 35  0  0  0  0  0  0  0  0999 V2000
    6.0590    2.2460   14.4240 C   0  0  0  0  0  0  0  0  0  0  0  0
    4.5990    2.5460   14.1300 C   0  0  2  0  0  0  0  0  0  0  0  0
    4.3830    4.0410   14.2020 N   0  0  0  0  0  0  0  0  0  0  0  0
    3.0940    4.2820   14.9640 C   0  0  1  0  0  0  0  0  0  0  0  0
    1.9360    4.2700   14.0260 C   0  0  0  0  0  0  0  0  0  0  0  0
    0.6890    4.0360   14.3840 N   0  0  0  0  0  0  0  0  0  0  0  0
   -0.0470    4.1140   13.2240 C   0  0  0  0  0  0  0  0  0  0  0  0
   -1.4240    3.9550   13.0210 C   0  0  0  0  0  0  0  0  0  0  0  0
   -1.9280    4.0880   11.7210 C   0  0  0  0  0  0  0  0  0  0  0  0
   -1.0790    4.3720   10.6500 C   0  0  0  0  0  0  0  0  0  0  0  0
    0.3000    4.5320   10.8340 C   0  0  0  0  0  0  0  0  0  0  0  0
    0.7760    4.3960   12.1390 C   0  0  0  0  0  0  0  0  0  0  0  0
    2.0380    4.4830   12.6720 N   0  0  0  0  0  0  0  0  0  0  0  0
    3.0900    3.1150   15.9480 C   0  0  2  0  0  0  0  0  0  0  0  0
    4.0410    3.3870   16.9900 O   0  0  0  0  0  0  0  0  0  0  0  0
    3.5760    1.9260   15.1120 C   0  0  2  0  0  0  0  0  0  0  0  0
    4.1130    0.9480   15.9980 O   0  0  0  0  0  0  0  0  0  0  0  0
    6.2148    2.2140   15.5124 H   0  0  0  0  0  0  0  0  0  0  0  0
    6.3289    1.2736   13.9862 H   0  0  0  0  0  0  0  0  0  0  0  0
    6.6904    3.0332   13.9862 H   0  0  0  0  0  0  0  0  0  0  0  0
    4.4210    2.1039   13.1386 H   0  0  0  0  0  0  0  0  0  0  0  0
    5.1480    4.5030   14.7070 H   0  0  0  0  0  0  0  0  0  0  0  0
    4.2940    4.4440   13.2580 H   0  0  0  0  0  0  0  0  0  0  0  0
    3.0207    5.2545   15.4727 H   0  0  0  0  0  0  0  0  0  0  0  0
   -2.0944    3.7307   13.8638 H   0  0  0  0  0  0  0  0  0  0  0  0
   -3.0065    3.9671   11.5417 H   0  0  0  0  0  0  0  0  0  0  0  0
   -1.5023    4.4723    9.6397 H   0  0  0  0  0  0  0  0  0  0  0  0
    0.9736    4.7535    9.9931 H   0  0  0  0  0  0  0  0  0  0  0  0
    2.8780    4.6690   12.1390 H   0  0  0  0  0  0  0  0  0  0  0  0
    2.1089    2.9371   16.4126 H   0  0  0  0  0  0  0  0  0  0  0  0
    4.8440    3.7270   16.5330 H   0  0  0  0  0  0  0  0  0  0  0  0
    2.7998    1.3984   14.5382 H   0  0  0  0  0  0  0  0  0  0  0  0
    3.5780    0.1340   15.9300 H   0  0  0  0  0  0  0  0  0  0  0  0
  1  2  1  0
  2  3  1  0
  3  4  1  0
  4  5  1  0
  5  6  2  0
  6  7  1  0
  7  8  2  0
  8  9  1  0
  9 10  2  0
 10 11  1  0
 11 12  2  0
 12 13  1  0
  4 14  1  0
 14 15  1  0
 14 16  1  0
 16 17  1  0
 16  2  1  0
 13  5  1  0
 12  7  1  0
  1 18  1  0
  1 19  1  0
  1 20  1  0
  2 21  1  6
  3 22  1  0
  3 23  1  0
  4 24  1  1
  8 25  1  0
  9 26  1  0
 10 27  1  0
 11 28  1  0
 13 29  1  0
 14 30  1  1
 15 31  1  0
 16 32  1  6
 17 33  1  0
M  CHG  1   3   1
M  END
>  <meeko>  (7) 
{"is_sidechain": [false], "free_energy": -5.857, "intermolecular_energy": -6.214, "internal_energy": -0.292}

$$$$
4j28_ligand
     RDKit          3D

 33 35  0  0  0  0  0  0  0  0999 V2000
   -2.0000   -2.9350   14.2300 C   0  0  0  0  0  0  0  0  0  0  0  0
   -2.7120   -1.8030   13.5090 C   0  0  2  0  0  0  0  0  0  0  0  0
   -4.1260   -2.2370   13.1910 N   0  0  0  0  0  0  0  0  0  0  0  0
   -4.4290   -1.8050   11.7700 C   0  0  1  0  0  0  0  0  0  0  0  0
   -4.9720   -0.4170   11.7620 C   0  0  0  0  0  0  0  0  0  0  0  0
   -5.5640    0.1580   12.7900 N   0  0  0  0  0  0  0  0  0  0  0  0
   -5.9100    1.4170   12.3570 C   0  0  0  0  0  0  0  0  0  0  0  0
   -6.5580    2.4560   13.0390 C   0  0  0  0  0  0  0  0  0  0  0  0
   -6.7950    3.6570   12.3580 C   0  0  0  0  0  0  0  0  0  0  0  0
   -6.3960    3.8180   11.0300 C   0  0  0  0  0  0  0  0  0  0  0  0
   -5.7490    2.7900   10.3340 C   0  0  0  0  0  0  0  0  0  0  0  0
   -5.5240    1.6040   11.0340 C   0  0  0  0  0  0  0  0  0  0  0  0
   -4.9350    0.4190   10.6720 N   0  0  0  0  0  0  0  0  0  0  0  0
   -3.0600   -1.9260   11.1070 C   0  0  2  0  0  0  0  0  0  0  0  0
   -2.7770   -3.3170   10.8820 O   0  0  0  0  0  0  0  0  0  0  0  0
   -2.0910   -1.3730   12.1580 C   0  0  2  0  0  0  0  0  0  0  0  0
   -0.7970   -1.9080   11.8960 O   0  0  0  0  0  0  0  0  0  0  0  0
   -2.0902   -2.7916   15.3169 H   0  0  0  0  0  0  0  0  0  0  0  0
   -2.4574   -3.8947   13.9476 H   0  0  0  0  0  0  0  0  0  0  0  0
   -0.9369   -2.9383   13.9476 H   0  0  0  0  0  0  0  0  0  0  0  0
   -2.6386   -0.9488   14.1982 H   0  0  0  0  0  0  0  0  0  0  0  0
   -4.2220   -3.2580   13.2470 H   0  0  0  0  0  0  0  0  0  0  0  0
   -4.7980   -1.7880   13.8280 H   0  0  0  0  0  0  0  0  0  0  0  0
   -5.1954   -2.3980   11.2495 H   0  0  0  0  0  0  0  0  0  0  0  0
   -6.8733    2.3311   14.0854 H   0  0  0  0  0  0  0  0  0  0  0  0
   -7.3021    4.4840   12.8765 H   0  0  0  0  0  0  0  0  0  0  0  0
   -6.5941    4.7723   10.5199 H   0  0  0  0  0  0  0  0  0  0  0  0
   -5.4336    2.9112    9.2872 H   0  0  0  0  0  0  0  0  0  0  0  0
   -4.5520    0.2210    9.7560 H   0  0  0  0  0  0  0  0  0  0  0  0
   -2.9920   -1.3986   10.1441 H   0  0  0  0  0  0  0  0  0  0  0  0
   -1.9980   -3.3340   10.2820 H   0  0  0  0  0  0  0  0  0  0  0  0
   -1.9564   -0.2813   12.1545 H   0  0  0  0  0  0  0  0  0  0  0  0
   -0.6570   -1.9340   10.9300 H   0  0  0  0  0  0  0  0  0  0  0  0
  1  2  1  0
  2  3  1  0
  3  4  1  0
  4  5  1  0
  5  6  2  0
  6  7  1  0
  7  8  2  0
  8  9  1  0
  9 10  2  0
 10 11  1  0
 11 12  2  0
 12 13  1  0
  4 14  1  0
 14 15  1  0
 14 16  1  0
 16 17  1  0
 16  2  1  0
 13  5  1  0
 12  7  1  0
  1 18  1  0
  1 19  1  0
  1 20  1  0
  2 21  1  1
  3 22  1  0
  3 23  1  0
  4 24  1  6
  8 25  1  0
  9 26  1  0
 10 27  1  0
 11 28  1  0
 13 29  1  0
 14 30  1  6
 15 31  1  0
 16 32  1  1
 17 33  1  0
M  CHG  1   3   1
M  END
>  <meeko>  (8) 
{"is_sidechain": [false], "free_energy": -5.556, "intermolecular_energy": -5.88, "internal_energy": -0.289}

$$$$
4j28_ligand
     RDKit          3D

 33 35  0  0  0  0  0  0  0  0999 V2000
   -5.7070   -0.3480   12.4800 C   0  0  0  0  0  0  0  0  0  0  0  0
   -4.6150    0.6390   12.1020 C   0  0  2  0  0  0  0  0  0  0  0  0
   -4.7570    1.8770   12.9600 N   0  0  0  0  0  0  0  0  0  0  0  0
   -4.5740    3.0820   12.0580 C   0  0  1  0  0  0  0  0  0  0  0  0
   -3.1300    3.4410   11.9720 C   0  0  0  0  0  0  0  0  0  0  0  0
   -2.2670    3.3030   12.9590 N   0  0  0  0  0  0  0  0  0  0  0  0
   -1.0650    3.7530   12.4620 C   0  0  0  0  0  0  0  0  0  0  0  0
    0.1900    3.8290   13.0780 C   0  0  0  0  0  0  0  0  0  0  0  0
    1.2680    4.3330   12.3390 C   0  0  0  0  0  0  0  0  0  0  0  0
    1.0960    4.7530   11.0180 C   0  0  0  0  0  0  0  0  0  0  0  0
   -0.1520    4.6870   10.3880 C   0  0  0  0  0  0  0  0  0  0  0  0
   -1.2090    4.1790   11.1450 C   0  0  0  0  0  0  0  0  0  0  0  0
   -2.5350    3.9790   10.8560 N   0  0  0  0  0  0  0  0  0  0  0  0
   -5.1540    2.5770   10.7400 C   0  0  2  0  0  0  0  0  0  0  0  0
   -6.5880    2.5660   10.8410 O   0  0  0  0  0  0  0  0  0  0  0  0
   -4.6390    1.1380   10.6370 C   0  0  2  0  0  0  0  0  0  0  0  0
   -5.5100    0.4140    9.7730 O   0  0  0  0  0  0  0  0  0  0  0  0
   -5.7791   -0.4132   13.5757 H   0  0  0  0  0  0  0  0  0  0  0  0
   -6.6684   -0.0063   12.0690 H   0  0  0  0  0  0  0  0  0  0  0  0
   -5.4639   -1.3389   12.0690 H   0  0  0  0  0  0  0  0  0  0  0  0
   -3.6776    0.0828   12.2499 H   0  0  0  0  0  0  0  0  0  0  0  0
   -5.6910    1.9290   13.3850 H   0  0  0  0  0  0  0  0  0  0  0  0
   -4.0370    1.8970   13.6950 H   0  0  0  0  0  0  0  0  0  0  0  0
   -5.0630    4.0064   12.3992 H   0  0  0  0  0  0  0  0  0  0  0  0
    0.3264    3.5003   14.1189 H   0  0  0  0  0  0  0  0  0  0  0  0
    2.2623    4.3988   12.8048 H   0  0  0  0  0  0  0  0  0  0  0  0
    1.9601    5.1441   10.4608 H   0  0  0  0  0  0  0  0  0  0  0  0
   -0.2928    5.0187    9.3487 H   0  0  0  0  0  0  0  0  0  0  0  0
   -2.9720    4.2000    9.9700 H   0  0  0  0  0  0  0  0  0  0  0  0
   -4.8728    3.1931    9.8732 H   0  0  0  0  0  0  0  0  0  0  0  0
   -6.9090    2.1770    9.9960 H   0  0  0  0  0  0  0  0  0  0  0  0
   -3.6367    1.0210   10.1991 H   0  0  0  0  0  0  0  0  0  0  0  0
   -4.9720   -0.0560    9.1050 H   0  0  0  0  0  0  0  0  0  0  0  0
  1  2  1  0
  2  3  1  0
  3  4  1  0
  4  5  1  0
  5  6  2  0
  6  7  1  0
  7  8  2  0
  8  9  1  0
  9 10  2  0
 10 11  1  0
 11 12  2  0
 12 13  1  0
  4 14  1  0
 14 15  1  0
 14 16  1  0
 16 17  1  0
 16  2  1  0
 13  5  1  0
 12  7  1  0
  1 18  1  0
  1 19  1  0
  1 20  1  0
  2 21  1  1
  3 22  1  0
  3 23  1  0
  4 24  1  1
  8 25  1  0
  9 26  1  0
 10 27  1  0
 11 28  1  0
 13 29  1  0
 14 30  1  6
 15 31  1  0
 16 32  1  6
 17 33  1  0
M  CHG  1   3   1
M  END
>  <meeko>  (9) 
{"is_sidechain": [false], "free_energy": -5.469, "intermolecular_energy": -5.777, "internal_energy": -0.295}

$$$$
