
     RDKit          3D

 21 23  0  0  0  0  0  0  0  0999 V2000
    1.2030    2.2220    1.3020 O   0  0  0  0  0  0  0  0  0  0  0  0
    1.6780    3.3800    1.3480 C   0  0  0  0  0  0  0  0  0  0  0  0
    1.1940    4.2730    2.2580 N   0  0  0  0  0  0  0  0  0  0  0  0
    1.6880    5.5410    2.3450 C   0  0  0  0  0  0  0  0  0  0  0  0
    1.1330    6.4890    3.3480 C   0  0  0  0  0  0  0  0  0  0  0  0
    1.8310    7.6610    3.6640 C   0  0  0  0  0  0  0  0  0  0  0  0
    1.3110    8.5680    4.6020 C   0  0  0  0  0  0  0  0  0  0  0  0
    0.0990    8.3190    5.2370 C   0  0  0  0  0  0  0  0  0  0  0  0
   -0.4400    9.2820    6.2270 C   0  0  2  0  0  0  0  0  0  0  0  0
    0.3030   10.4280    6.2990 F   0  0  0  0  0  0  0  0  0  0  0  0
   -0.4900    8.7460    7.4700 F   0  0  0  0  0  0  0  0  0  0  0  0
   -1.6970    9.6710    5.9130 F   0  0  0  0  0  0  0  0  0  0  0  0
   -0.6100    7.1530    4.9290 C   0  0  0  0  0  0  0  0  0  0  0  0
   -0.0870    6.2400    3.9790 C   0  0  0  0  0  0  0  0  0  0  0  0
    2.6820    5.9550    1.5290 N   0  0  0  0  0  0  0  0  0  0  0  0
    3.2220    5.1190    0.5920 C   0  0  0  0  0  0  0  0  0  0  0  0
    2.7260    3.8040    0.4670 C   0  0  0  0  0  0  0  0  0  0  0  0
    3.2610    2.8410   -0.5610 C   0  0  0  0  0  0  0  0  0  0  0  0
    4.0300    3.6370   -1.9220 S   0  0  0  0  0  0  0  0  0  0  0  0
    5.1260    4.7460   -1.0400 C   0  0  0  0  0  0  0  0  0  0  0  0
    4.3070    5.7160   -0.2440 C   0  0  0  0  0  0  0  0  0  0  0  0
  2  1  2  0
  3  2  1  0
  4  3  1  0
  5  4  1  0
  6  5  2  0
  7  6  1  0
  8  7  2  0
  9  8  1  0
  9 10  1  1
 11  9  1  0
 12  9  1  0
 13  8  1  0
 14 13  2  0
 14  5  1  0
 15  4  2  0
 16 15  1  0
 17 16  2  0
 17  2  1  0
 18 17  1  0
 19 18  1  0
 20 19  1  0
 21 20  1  0
 21 16  1  0
M  END
$$$$
