
     RDKit          3D

 29 32  0  0  0  0  0  0  0  0999 V2000
    6.2200    6.5290    9.8560 N   0  0  0  0  0  0  0  0  0  0  0  0
    6.4180    5.3990    9.5340 C   0  0  0  0  0  0  0  0  0  0  0  0
    6.6350    4.0430    9.1640 C   0  0  0  0  0  0  0  0  0  0  0  0
    5.8190    3.4620    8.2060 C   0  0  0  0  0  0  0  0  0  0  0  0
    6.0390    2.1360    7.8490 C   0  0  0  0  0  0  0  0  0  0  0  0
    7.0540    1.4130    8.4290 C   0  0  0  0  0  0  0  0  0  0  0  0
    7.2780   -0.0080    8.0520 C   0  0  0  0  0  0  0  0  0  0  0  0
    7.8660   -0.2360    6.6920 C   0  0  0  0  0  0  0  0  0  0  0  0
    7.7160   -1.4660    6.0880 C   0  0  0  0  0  0  0  0  0  0  0  0
    8.2680   -1.7010    4.8370 C   0  0  0  0  0  0  0  0  0  0  0  0
    8.1790   -2.7830    4.2370 O   0  0  0  0  0  0  0  0  0  0  0  0
    8.9370   -0.6800    4.2590 N   0  0  0  0  0  0  0  0  0  0  0  0
    9.5700   -0.6360    3.0380 N   0  0  0  0  0  0  0  0  0  0  0  0
   10.0700    0.5660    2.9110 C   0  0  0  0  0  0  0  0  0  0  0  0
    9.7880    1.3160    4.0230 C   0  0  0  0  0  0  0  0  0  0  0  0
   10.1660    2.6940    4.2510 C   0  0  0  0  0  0  0  0  0  0  0  0
   10.7320    3.3420    3.3860 O   0  0  0  0  0  0  0  0  0  0  0  0
    9.8510    3.2210    5.4600 N   0  0  0  0  0  0  0  0  0  0  0  0
   10.0580    4.4970    5.9140 C   0  0  0  0  0  0  0  0  0  0  0  0
   10.6390    5.4730    5.1380 C   0  0  0  0  0  0  0  0  0  0  0  0
   10.8200    6.7480    5.6320 C   0  0  0  0  0  0  0  0  0  0  0  0
   10.4130    7.0280    6.9130 C   0  0  0  0  0  0  0  0  0  0  0  0
   10.5880    8.2830    7.4040 F   0  0  0  0  0  0  0  0  0  0  0  0
    9.8320    6.0650    7.6970 C   0  0  0  0  0  0  0  0  0  0  0  0
    9.6540    4.8010    7.2060 C   0  0  0  0  0  0  0  0  0  0  0  0
    9.0670    0.4970    4.8720 C   0  0  0  0  0  0  0  0  0  0  0  0
    8.5480    0.7520    6.0770 N   0  0  0  0  0  0  0  0  0  0  0  0
    7.8670    2.0030    9.3750 C   0  0  0  0  0  0  0  0  0  0  0  0
    7.6530    3.3260    9.7510 C   0  0  0  0  0  0  0  0  0  0  0  0
  2  1  3  0
  3  2  1  0
  4  3  2  0
  5  4  1  0
  6  5  2  0
  7  6  1  0
  8  7  1  0
  9  8  2  0
 10  9  1  0
 11 10  2  0
 12 10  1  0
 13 12  1  0
 14 13  2  0
 15 14  1  0
 16 15  1  0
 17 16  2  0
 18 16  1  0
 19 18  1  0
 20 19  2  0
 21 20  1  0
 22 21  2  0
 23 22  1  0
 24 22  1  0
 25 19  1  0
 25 24  2  0
 26 15  2  0
 26 12  1  0
 27 26  1  0
 27  8  1  0
 28  6  1  0
 29 28  2  0
 29  3  1  0
M  END
$$$$
