
     RDKit          3D

 47 49  0  0  0  0  0  0  0  0999 V2000
   -4.6960   -5.9320  -11.0380 C   0  0  0  0  0  0  0  0  0  0  0  0
   -5.7900   -5.1590  -11.7360 C   0  0  2  0  0  0  0  0  0  0  0  0
   -5.1550   -4.2100  -12.7850 C   0  0  0  0  0  0  0  0  0  0  0  0
   -6.6320   -4.3390  -10.7840 C   0  0  0  0  0  0  0  0  0  0  0  0
   -6.0750   -4.1570   -9.4460 N   0  0  0  0  0  0  0  0  0  0  0  0
   -6.6570   -3.3750   -8.4740 C   0  0  0  0  0  0  0  0  0  0  0  0
   -7.6430   -2.7080   -8.6960 O   0  0  0  0  0  0  0  0  0  0  0  0
   -6.0520   -3.4430   -7.0540 C   0  0  1  0  0  0  0  0  0  0  0  0
   -5.9030   -2.0930   -6.4320 N   0  0  0  0  0  0  0  0  0  0  0  0
   -4.9550   -1.1620   -7.0480 C   0  0  0  0  0  0  0  0  0  0  0  0
   -5.6280    0.1390   -7.4440 C   0  0  2  0  0  0  0  0  0  0  0  0
   -4.5590    1.1250   -7.9630 C   0  0  0  0  0  0  0  0  0  0  0  0
   -5.0380    2.5360   -8.1070 C   0  0  0  0  0  0  0  0  0  0  0  0
   -4.3040    3.6040   -7.5170 C   0  0  0  0  0  0  0  0  0  0  0  0
   -4.7480    4.9350   -7.6520 C   0  0  0  0  0  0  0  0  0  0  0  0
   -5.9230    5.1890   -8.3700 C   0  0  0  0  0  0  0  0  0  0  0  0
   -6.6440    4.1640   -8.9590 C   0  0  0  0  0  0  0  0  0  0  0  0
   -6.1900    2.8400   -8.8210 C   0  0  0  0  0  0  0  0  0  0  0  0
   -6.2810    0.7630   -6.2970 N   0  0  0  0  0  0  0  0  0  0  0  0
   -7.6520    0.8900   -6.2070 C   0  0  0  0  0  0  0  0  0  0  0  0
   -8.4280    0.3890   -7.0120 O   0  0  0  0  0  0  0  0  0  0  0  0
   -8.1420    1.7000   -5.0750 C   0  0  0  0  0  0  0  0  0  0  0  0
   -7.5070    2.8870   -4.7730 C   0  0  0  0  0  0  0  0  0  0  0  0
   -7.9490    3.6810   -3.7150 C   0  0  0  0  0  0  0  0  0  0  0  0
   -7.2440    4.9350   -3.3800 C   0  0  0  0  0  0  0  0  0  0  0  0
   -7.8140    5.8310   -2.7780 O   0  0  0  0  0  0  0  0  0  0  0  0
   -5.9540    5.0210   -3.7580 N   0  0  0  0  0  0  0  0  0  0  0  0
   -5.1140    6.1800   -3.4140 C   0  0  2  0  0  0  0  0  0  0  0  0
   -4.2280    6.5510   -4.6010 C   0  0  0  0  0  0  0  0  0  0  0  0
   -4.2970    5.8550   -2.1760 C   0  0  0  0  0  0  0  0  0  0  0  0
   -4.4550    6.6060   -1.0070 C   0  0  0  0  0  0  0  0  0  0  0  0
   -3.6990    6.3210    0.1330 C   0  0  0  0  0  0  0  0  0  0  0  0
   -2.7740    5.2800    0.0770 C   0  0  0  0  0  0  0  0  0  0  0  0
   -2.6140    4.5070   -1.0680 C   0  0  0  0  0  0  0  0  0  0  0  0
   -3.3750    4.8040   -2.1950 C   0  0  0  0  0  0  0  0  0  0  0  0
   -9.0480    3.2820   -2.9640 C   0  0  0  0  0  0  0  0  0  0  0  0
   -9.6880    2.0710   -3.2360 C   0  0  0  0  0  0  0  0  0  0  0  0
  -10.7900    1.6410   -2.4620 N   0  0  0  0  0  0  0  0  0  0  0  0
  -11.9750    1.1290   -3.1410 C   0  0  0  0  0  0  0  0  0  0  0  0
  -10.8930    1.8770   -0.8300 S   0  0  1  0  0  0  0  0  0  0  0  0
  -11.7060    3.3870   -0.5900 C   0  0  0  0  0  0  0  0  0  0  0  0
  -11.6910    0.8210   -0.2500 O   0  0  0  0  0  0  0  0  0  0  0  0
   -9.5610    1.9520   -0.2660 O   0  0  0  0  0  0  0  0  0  0  0  0
   -9.2390    1.2810   -4.3160 C   0  0  0  0  0  0  0  0  0  0  0  0
   -7.0520   -4.2420   -6.1990 C   0  0  1  0  0  0  0  0  0  0  0  0
   -7.0880   -5.7030   -6.6160 C   0  0  0  0  0  0  0  0  0  0  0  0
   -6.7070   -4.1580   -4.8270 O   0  0  0  0  0  0  0  0  0  0  0  0
  2  1  1  1
  3  2  1  0
  4  2  1  0
  5  4  1  0
  6  5  1  0
  7  6  2  0
  8  6  1  0
  8  9  1  1
 10  9  1  0
 11 10  1  1
 12 11  1  0
 13 12  1  0
 14 13  2  0
 15 14  1  0
 16 15  2  0
 17 16  1  0
 18 17  2  0
 18 13  1  0
 19 11  1  0
 20 19  1  0
 21 20  2  0
 22 20  1  0
 23 22  2  0
 24 23  1  0
 25 24  1  0
 26 25  2  0
 27 25  1  0
 28 27  1  0
 28 29  1  6
 30 28  1  0
 31 30  2  0
 32 31  1  0
 33 32  2  0
 34 33  1  0
 35 34  2  0
 35 30  1  0
 36 24  2  0
 37 36  1  0
 38 37  1  0
 39 38  1  0
 40 38  1  0
 40 41  1  6
 42 40  2  0
 43 40  2  0
 44 37  2  0
 44 22  1  0
 45  8  1  0
 45 46  1  6
 47 45  1  0
M  CHG  1   9   1
M  END
$$$$
