4e6q_ligand
     RDKit          3D

 47 51  0  0  0  0  0  0  0  0999 V2000
   -6.3100    5.1320    9.1030 C   0  0  0  0  0  0  0  0  0  0  0  0
   -5.3110    4.2340    9.4720 C   0  0  0  0  0  0  0  0  0  0  0  0
   -3.9870    4.4680    9.0980 C   0  0  0  0  0  0  0  0  0  0  0  0
   -3.6470    5.6030    8.3440 C   0  0  0  0  0  0  0  0  0  0  0  0
   -2.2230    5.8460    7.9250 C   0  0  0  0  0  0  0  0  0  0  0  0
   -1.3860    4.6050    7.6460 N   0  0  2  0  0  0  0  0  0  0  0  0
    0.0820    4.8040    7.8570 C   0  0  0  0  0  0  0  0  0  0  0  0
    0.7860    3.4530    7.9440 C   0  0  0  0  0  0  0  0  0  0  0  0
    0.0670    2.2850    7.2270 C   0  0  1  0  0  0  0  0  0  0  0  0
   -0.7290    1.4780    8.1550 N   0  0  0  0  0  0  0  0  0  0  0  0
   -2.0990    1.3350    8.1440 C   0  0  0  0  0  0  0  0  0  0  0  0
   -2.5580    0.8330    9.2690 N   0  0  0  0  0  0  0  0  0  0  0  0
   -1.4430    0.4360    9.9620 C   0  0  0  0  0  0  0  0  0  0  0  0
   -1.2760   -0.2330   11.1880 C   0  0  0  0  0  0  0  0  0  0  0  0
   -0.0430   -0.5500   11.6920 N   0  0  0  0  0  0  0  0  0  0  0  0
    0.9980   -0.2100   10.9140 C   0  0  0  0  0  0  0  0  0  0  0  0
    2.3230   -0.4460   11.1440 N   0  0  0  0  0  0  0  0  0  0  0  0
    3.0660    0.0410   10.0850 C   0  0  0  0  0  0  0  0  0  0  0  0
    2.2070    0.6010    9.1540 C   0  0  0  0  0  0  0  0  0  0  0  0
    0.9150    0.4470    9.7080 C   0  0  0  0  0  0  0  0  0  0  0  0
   -0.3160    0.7940    9.2430 C   0  0  0  0  0  0  0  0  0  0  0  0
   -0.6990    2.8280    6.0080 C   0  0  0  0  0  0  0  0  0  0  0  0
   -1.6630    3.9820    6.3050 C   0  0  0  0  0  0  0  0  0  0  0  0
   -4.6630    6.5080    7.9930 C   0  0  0  0  0  0  0  0  0  0  0  0
   -5.9860    6.2690    8.3680 C   0  0  0  0  0  0  0  0  0  0  0  0
   -7.3543    4.9428    9.3922 H   0  0  0  0  0  0  0  0  0  0  0  0
   -5.5661    3.3393   10.0589 H   0  0  0  0  0  0  0  0  0  0  0  0
   -3.2026    3.7570    9.3965 H   0  0  0  0  0  0  0  0  0  0  0  0
   -2.2414    6.4523    7.0073 H   0  0  0  0  0  0  0  0  0  0  0  0
   -1.7427    6.3398    8.7826 H   0  0  0  0  0  0  0  0  0  0  0  0
   -1.7110    3.9540    8.3770 H   0  0  0  0  0  0  0  0  0  0  0  0
    0.4965    5.3769    7.0144 H   0  0  0  0  0  0  0  0  0  0  0  0
    0.2399    5.3539    8.7965 H   0  0  0  0  0  0  0  0  0  0  0  0
    1.7858    3.5615    7.4982 H   0  0  0  0  0  0  0  0  0  0  0  0
    0.8057    3.1885    9.0115 H   0  0  0  0  0  0  0  0  0  0  0  0
    0.8068    1.5708    6.8363 H   0  0  0  0  0  0  0  0  0  0  0  0
   -2.7366    1.6097    7.2908 H   0  0  0  0  0  0  0  0  0  0  0  0
   -2.1705   -0.5123   11.7641 H   0  0  0  0  0  0  0  0  0  0  0  0
    2.6800   -0.9280   11.9590 H   0  0  0  0  0  0  0  0  0  0  0  0
    4.1613   -0.0082    9.9961 H   0  0  0  0  0  0  0  0  0  0  0  0
    2.4722    1.0648    8.1925 H   0  0  0  0  0  0  0  0  0  0  0  0
    0.0385    3.1812    5.2722 H   0  0  0  0  0  0  0  0  0  0  0  0
   -1.3204    1.9971    5.6426 H   0  0  0  0  0  0  0  0  0  0  0  0
   -1.5516    4.7497    5.5251 H   0  0  0  0  0  0  0  0  0  0  0  0
   -2.6868    3.5799    6.3178 H   0  0  0  0  0  0  0  0  0  0  0  0
   -4.4137    7.4121    7.4181 H   0  0  0  0  0  0  0  0  0  0  0  0
   -6.7745    6.9807    8.0821 H   0  0  0  0  0  0  0  0  0  0  0  0
  1  2  2  0
  2  3  1  0
  3  4  2  0
  4  5  1  0
  5  6  1  0
  6  7  1  0
  7  8  1  0
  8  9  1  0
  9 10  1  0
 10 11  1  0
 11 12  2  0
 12 13  1  0
 13 14  2  0
 14 15  1  0
 15 16  2  0
 16 17  1  0
 17 18  1  0
 18 19  2  0
 19 20  1  0
 20 21  2  0
  9 22  1  0
 22 23  1  0
  4 24  1  0
 24 25  2  0
 25  1  1  0
 23  6  1  0
 21 10  1  0
 21 13  1  0
 20 16  1  0
  1 26  1  0
  2 27  1  0
  3 28  1  0
  5 29  1  0
  5 30  1  0
  6 31  1  6
  7 32  1  0
  7 33  1  0
  8 34  1  0
  8 35  1  0
  9 36  1  1
 11 37  1  0
 14 38  1  0
 17 39  1  0
 18 40  1  0
 19 41  1  0
 22 42  1  0
 22 43  1  0
 23 44  1  0
 23 45  1  0
 24 46  1  0
 25 47  1  0
M  CHG  1   6   1
M  END
>  <meeko>  (1) 
{"is_sidechain": [false], "free_energy": -8.474, "intermolecular_energy": -9.96, "internal_energy": -0.416}

$$$$
4e6q_ligand
     RDKit          3D

 47 51  0  0  0  0  0  0  0  0999 V2000
    4.3930    2.8610    9.2910 C   0  0  0  0  0  0  0  0  0  0  0  0
    4.3530    1.4760    9.4310 C   0  0  0  0  0  0  0  0  0  0  0  0
    3.1520    0.7890    9.2510 C   0  0  0  0  0  0  0  0  0  0  0  0
    1.9730    1.4810    8.9340 C   0  0  0  0  0  0  0  0  0  0  0  0
    0.6740    0.7430    8.7580 C   0  0  0  0  0  0  0  0  0  0  0  0
   -0.5810    1.4780    9.2100 N   0  0  2  0  0  0  0  0  0  0  0  0
   -0.6090    1.7850   10.6730 C   0  0  0  0  0  0  0  0  0  0  0  0
   -1.6730    2.8390   10.9660 C   0  0  0  0  0  0  0  0  0  0  0  0
   -2.8350    2.9070    9.9460 C   0  0  1  0  0  0  0  0  0  0  0  0
   -2.6330    3.9660    8.9540 N   0  0  0  0  0  0  0  0  0  0  0  0
   -1.4640    4.2380    8.2760 C   0  0  0  0  0  0  0  0  0  0  0  0
   -1.4790    5.4240    7.7110 N   0  0  0  0  0  0  0  0  0  0  0  0
   -2.7710    5.8640    7.8400 C   0  0  0  0  0  0  0  0  0  0  0  0
   -3.4320    7.0170    7.3790 C   0  0  0  0  0  0  0  0  0  0  0  0
   -4.7620    7.2480    7.6150 N   0  0  0  0  0  0  0  0  0  0  0  0
   -5.4000    6.2770    8.2880 C   0  0  0  0  0  0  0  0  0  0  0  0
   -6.7250    6.2230    8.6160 N   0  0  0  0  0  0  0  0  0  0  0  0
   -6.9840    5.0410    9.2850 C   0  0  0  0  0  0  0  0  0  0  0  0
   -5.8070    4.3190    9.3910 C   0  0  0  0  0  0  0  0  0  0  0  0
   -4.8240    5.1270    8.7730 C   0  0  0  0  0  0  0  0  0  0  0  0
   -3.4920    4.9330    8.5670 C   0  0  0  0  0  0  0  0  0  0  0  0
   -3.0880    1.5060    9.3650 C   0  0  0  0  0  0  0  0  0  0  0  0
   -1.8570    0.8150    8.7670 C   0  0  0  0  0  0  0  0  0  0  0  0
    2.0320    2.8770    8.7800 C   0  0  0  0  0  0  0  0  0  0  0  0
    3.2350    3.5600    8.9620 C   0  0  0  0  0  0  0  0  0  0  0  0
    5.3389    3.4022    9.4403 H   0  0  0  0  0  0  0  0  0  0  0  0
    5.2696    0.9229    9.6839 H   0  0  0  0  0  0  0  0  0  0  0  0
    3.1291   -0.3055    9.3586 H   0  0  0  0  0  0  0  0  0  0  0  0
    0.5612    0.5117    7.6885 H   0  0  0  0  0  0  0  0  0  0  0  0
    0.7473   -0.1426    9.4063 H   0  0  0  0  0  0  0  0  0  0  0  0
   -0.4960    2.3780    8.7130 H   0  0  0  0  0  0  0  0  0  0  0  0
   -0.8416    0.8673   11.2332 H   0  0  0  0  0  0  0  0  0  0  0  0
    0.3746    2.1706   10.9794 H   0  0  0  0  0  0  0  0  0  0  0  0
   -2.1018    2.6231   11.9557 H   0  0  0  0  0  0  0  0  0  0  0  0
   -1.1616    3.8113   10.9098 H   0  0  0  0  0  0  0  0  0  0  0  0
   -3.7641    3.2049   10.4540 H   0  0  0  0  0  0  0  0  0  0  0  0
   -0.6150    3.5412    8.2150 H   0  0  0  0  0  0  0  0  0  0  0  0
   -2.8592    7.7619    6.8071 H   0  0  0  0  0  0  0  0  0  0  0  0
   -7.3990    6.9380    8.3730 H   0  0  0  0  0  0  0  0  0  0  0  0
   -7.9649    4.7256    9.6702 H   0  0  0  0  0  0  0  0  0  0  0  0
   -5.6669    3.3316    9.8550 H   0  0  0  0  0  0  0  0  0  0  0  0
   -3.4777    0.8682   10.1721 H   0  0  0  0  0  0  0  0  0  0  0  0
   -3.7948    1.6436    8.5334 H   0  0  0  0  0  0  0  0  0  0  0  0
   -1.8446   -0.2360    9.0913 H   0  0  0  0  0  0  0  0  0  0  0  0
   -1.9200    0.8868    7.6712 H   0  0  0  0  0  0  0  0  0  0  0  0
    1.1224    3.4354    8.5139 H   0  0  0  0  0  0  0  0  0  0  0  0
    3.2684    4.6533    8.8452 H   0  0  0  0  0  0  0  0  0  0  0  0
  1  2  2  0
  2  3  1  0
  3  4  2  0
  4  5  1  0
  5  6  1  0
  6  7  1  0
  7  8  1  0
  8  9  1  0
  9 10  1  0
 10 11  1  0
 11 12  2  0
 12 13  1  0
 13 14  2  0
 14 15  1  0
 15 16  2  0
 16 17  1  0
 17 18  1  0
 18 19  2  0
 19 20  1  0
 20 21  2  0
  9 22  1  0
 22 23  1  0
  4 24  1  0
 24 25  2  0
 25  1  1  0
 23  6  1  0
 21 10  1  0
 21 13  1  0
 20 16  1  0
  1 26  1  0
  2 27  1  0
  3 28  1  0
  5 29  1  0
  5 30  1  0
  6 31  1  1
  7 32  1  0
  7 33  1  0
  8 34  1  0
  8 35  1  0
  9 36  1  6
 11 37  1  0
 14 38  1  0
 17 39  1  0
 18 40  1  0
 19 41  1  0
 22 42  1  0
 22 43  1  0
 23 44  1  0
 23 45  1  0
 24 46  1  0
 25 47  1  0
M  CHG  1   6   1
M  END
>  <meeko>  (2) 
{"is_sidechain": [false], "free_energy": -8.4, "intermolecular_energy": -9.976, "internal_energy": -0.313}

$$$$
4e6q_ligand
     RDKit          3D

 47 51  0  0  0  0  0  0  0  0999 V2000
   -5.8320    6.3960    8.5540 C   0  0  0  0  0  0  0  0  0  0  0  0
   -6.8500    5.5800    9.0430 C   0  0  0  0  0  0  0  0  0  0  0  0
   -6.5400    4.3640    9.6520 C   0  0  0  0  0  0  0  0  0  0  0  0
   -5.2060    3.9450    9.7740 C   0  0  0  0  0  0  0  0  0  0  0  0
   -4.8720    2.6250   10.4140 C   0  0  0  0  0  0  0  0  0  0  0  0
   -3.6340    1.9170    9.8810 N   0  0  2  0  0  0  0  0  0  0  0  0
   -3.8980    1.0400    8.6980 C   0  0  0  0  0  0  0  0  0  0  0  0
   -2.5860    0.6940    8.0000 C   0  0  0  0  0  0  0  0  0  0  0  0
   -1.3260    0.7440    8.8980 C   0  0  1  0  0  0  0  0  0  0  0  0
   -0.6020    2.0090    8.7570 N   0  0  0  0  0  0  0  0  0  0  0  0
   -1.1320    3.2120    8.3440 C   0  0  0  0  0  0  0  0  0  0  0  0
   -0.2030    4.0760    7.9990 N   0  0  0  0  0  0  0  0  0  0  0  0
    0.9790    3.5030    8.3930 C   0  0  0  0  0  0  0  0  0  0  0  0
    2.3100    3.9590    8.3680 C   0  0  0  0  0  0  0  0  0  0  0  0
    3.3550    3.2090    8.8410 N   0  0  0  0  0  0  0  0  0  0  0  0
    3.0140    2.0200    9.3640 C   0  0  0  0  0  0  0  0  0  0  0  0
    3.8390    1.0990    9.9450 N   0  0  0  0  0  0  0  0  0  0  0  0
    3.0880    0.0220   10.3800 C   0  0  0  0  0  0  0  0  0  0  0  0
    1.7570    0.2510   10.0750 C   0  0  0  0  0  0  0  0  0  0  0  0
    1.7410    1.5050    9.4220 C   0  0  0  0  0  0  0  0  0  0  0  0
    0.7190    2.2450    8.9080 C   0  0  0  0  0  0  0  0  0  0  0  0
   -1.7100    0.3670   10.3390 C   0  0  0  0  0  0  0  0  0  0  0  0
   -2.8610    1.1810   10.9420 C   0  0  0  0  0  0  0  0  0  0  0  0
   -4.1890    4.7850    9.2900 C   0  0  0  0  0  0  0  0  0  0  0  0
   -4.5030    6.0010    8.6810 C   0  0  0  0  0  0  0  0  0  0  0  0
   -6.0781    7.3516    8.0680 H   0  0  0  0  0  0  0  0  0  0  0  0
   -7.8997    5.8952    8.9487 H   0  0  0  0  0  0  0  0  0  0  0  0
   -7.3487    3.7274   10.0403 H   0  0  0  0  0  0  0  0  0  0  0  0
   -4.7217    2.8012   11.4893 H   0  0  0  0  0  0  0  0  0  0  0  0
   -5.7167    1.9605   10.1794 H   0  0  0  0  0  0  0  0  0  0  0  0
   -3.0570    2.7060    9.5510 H   0  0  0  0  0  0  0  0  0  0  0  0
   -4.3872    0.1136    9.0335 H   0  0  0  0  0  0  0  0  0  0  0  0
   -4.5519    1.5735    7.9925 H   0  0  0  0  0  0  0  0  0  0  0  0
   -2.6747   -0.3250    7.5953 H   0  0  0  0  0  0  0  0  0  0  0  0
   -2.4400    1.4636    7.2277 H   0  0  0  0  0  0  0  0  0  0  0  0
   -0.5961   -0.0081    8.5640 H   0  0  0  0  0  0  0  0  0  0  0  0
   -2.2105    3.4254    8.3071 H   0  0  0  0  0  0  0  0  0  0  0  0
    2.5198    4.9558    7.9528 H   0  0  0  0  0  0  0  0  0  0  0  0
    4.8370    1.2200   10.0530 H   0  0  0  0  0  0  0  0  0  0  0  0
    3.4837   -0.8710   10.8859 H   0  0  0  0  0  0  0  0  0  0  0  0
    0.8984   -0.4011   10.2933 H   0  0  0  0  0  0  0  0  0  0  0  0
   -2.0024   -0.6934   10.3469 H   0  0  0  0  0  0  0  0  0  0  0  0
   -0.8262    0.5837   10.9571 H   0  0  0  0  0  0  0  0  0  0  0  0
   -3.5422    0.4984   11.4711 H   0  0  0  0  0  0  0  0  0  0  0  0
   -2.4332    1.9224   11.6328 H   0  0  0  0  0  0  0  0  0  0  0  0
   -3.1365    4.4818    9.3919 H   0  0  0  0  0  0  0  0  0  0  0  0
   -3.6991    6.6484    8.3007 H   0  0  0  0  0  0  0  0  0  0  0  0
  1  2  2  0
  2  3  1  0
  3  4  2  0
  4  5  1  0
  5  6  1  0
  6  7  1  0
  7  8  1  0
  8  9  1  0
  9 10  1  0
 10 11  1  0
 11 12  2  0
 12 13  1  0
 13 14  2  0
 14 15  1  0
 15 16  2  0
 16 17  1  0
 17 18  1  0
 18 19  2  0
 19 20  1  0
 20 21  2  0
  9 22  1  0
 22 23  1  0
  4 24  1  0
 24 25  2  0
 25  1  1  0
 23  6  1  0
 21 10  1  0
 21 13  1  0
 20 16  1  0
  1 26  1  0
  2 27  1  0
  3 28  1  0
  5 29  1  0
  5 30  1  0
  6 31  1  1
  7 32  1  0
  7 33  1  0
  8 34  1  0
  8 35  1  0
  9 36  1  1
 11 37  1  0
 14 38  1  0
 17 39  1  0
 18 40  1  0
 19 41  1  0
 22 42  1  0
 22 43  1  0
 23 44  1  0
 23 45  1  0
 24 46  1  0
 25 47  1  0
M  CHG  1   6   1
M  END
>  <meeko>  (3) 
{"is_sidechain": [false], "free_energy": -8.364, "intermolecular_energy": -9.693, "internal_energy": -0.554}

$$$$
4e6q_ligand
     RDKit          3D

 47 51  0  0  0  0  0  0  0  0999 V2000
   -6.2960    5.7060    7.9260 C   0  0  0  0  0  0  0  0  0  0  0  0
   -5.1380    6.4660    8.0730 C   0  0  0  0  0  0  0  0  0  0  0  0
   -4.0190    5.9210    8.7040 C   0  0  0  0  0  0  0  0  0  0  0  0
   -4.0480    4.6090    9.2030 C   0  0  0  0  0  0  0  0  0  0  0  0
   -2.8490    4.0270    9.9000 C   0  0  0  0  0  0  0  0  0  0  0  0
   -1.9690    3.1060    9.0650 N   0  0  2  0  0  0  0  0  0  0  0  0
   -2.0890    3.3270    7.5910 C   0  0  0  0  0  0  0  0  0  0  0  0
   -0.9190    2.6660    6.8670 C   0  0  0  0  0  0  0  0  0  0  0  0
   -0.2680    1.4760    7.6110 C   0  0  1  0  0  0  0  0  0  0  0  0
    0.9350    1.8780    8.3430 N   0  0  0  0  0  0  0  0  0  0  0  0
    1.3050    3.1670    8.6610 C   0  0  0  0  0  0  0  0  0  0  0  0
    2.5670    3.2510    9.0180 N   0  0  0  0  0  0  0  0  0  0  0  0
    2.9890    1.9520    9.1420 C   0  0  0  0  0  0  0  0  0  0  0  0
    4.2060    1.3860    9.5630 C   0  0  0  0  0  0  0  0  0  0  0  0
    4.4050    0.0320    9.6270 N   0  0  0  0  0  0  0  0  0  0  0  0
    3.3420   -0.7190    9.2940 C   0  0  0  0  0  0  0  0  0  0  0  0
    3.2450   -2.0810    9.3140 N   0  0  0  0  0  0  0  0  0  0  0  0
    1.9730   -2.4560    8.9250 C   0  0  0  0  0  0  0  0  0  0  0  0
    1.2350   -1.3170    8.6480 C   0  0  0  0  0  0  0  0  0  0  0  0
    2.1250   -0.2400    8.8710 C   0  0  0  0  0  0  0  0  0  0  0  0
    1.9580    1.1070    8.7710 C   0  0  0  0  0  0  0  0  0  0  0  0
   -1.3350    0.7540    8.4530 C   0  0  0  0  0  0  0  0  0  0  0  0
   -2.1260    1.6500    9.4120 C   0  0  0  0  0  0  0  0  0  0  0  0
   -5.2180    3.8490    9.0330 C   0  0  0  0  0  0  0  0  0  0  0  0
   -6.3350    4.3980    8.4020 C   0  0  0  0  0  0  0  0  0  0  0  0
   -7.1795    6.1390    7.4340 H   0  0  0  0  0  0  0  0  0  0  0  0
   -5.1055    7.4971    7.6912 H   0  0  0  0  0  0  0  0  0  0  0  0
   -3.1059    6.5248    8.8114 H   0  0  0  0  0  0  0  0  0  0  0  0
   -2.2247    4.8628   10.2488 H   0  0  0  0  0  0  0  0  0  0  0  0
   -3.2532    3.3976   10.7065 H   0  0  0  0  0  0  0  0  0  0  0  0
   -1.0200    3.4030    9.3410 H   0  0  0  0  0  0  0  0  0  0  0  0
   -3.0328    2.8900    7.2328 H   0  0  0  0  0  0  0  0  0  0  0  0
   -2.0766    4.4076    7.3857 H   0  0  0  0  0  0  0  0  0  0  0  0
   -1.2832    2.3010    5.8953 H   0  0  0  0  0  0  0  0  0  0  0  0
   -0.1383    3.4365    6.7841 H   0  0  0  0  0  0  0  0  0  0  0  0
    0.1071    0.7393    6.8853 H   0  0  0  0  0  0  0  0  0  0  0  0
    0.6215    4.0279    8.6206 H   0  0  0  0  0  0  0  0  0  0  0  0
    5.0292    2.0560    9.8518 H   0  0  0  0  0  0  0  0  0  0  0  0
    3.9950   -2.6990    9.5990 H   0  0  0  0  0  0  0  0  0  0  0  0
    1.6064   -3.4903    8.8479 H   0  0  0  0  0  0  0  0  0  0  0  0
    0.1850   -1.2618    8.3248 H   0  0  0  0  0  0  0  0  0  0  0  0
   -2.0490    0.2798    7.7635 H   0  0  0  0  0  0  0  0  0  0  0  0
   -0.7910    0.0363    9.0847 H   0  0  0  0  0  0  0  0  0  0  0  0
   -3.1913    1.3820    9.3544 H   0  0  0  0  0  0  0  0  0  0  0  0
   -1.7366    1.4944   10.4289 H   0  0  0  0  0  0  0  0  0  0  0  0
   -5.2535    2.8128    9.4004 H   0  0  0  0  0  0  0  0  0  0  0  0
   -7.2479    3.7965    8.2804 H   0  0  0  0  0  0  0  0  0  0  0  0
  1  2  2  0
  2  3  1  0
  3  4  2  0
  4  5  1  0
  5  6  1  0
  6  7  1  0
  7  8  1  0
  8  9  1  0
  9 10  1  0
 10 11  1  0
 11 12  2  0
 12 13  1  0
 13 14  2  0
 14 15  1  0
 15 16  2  0
 16 17  1  0
 17 18  1  0
 18 19  2  0
 19 20  1  0
 20 21  2  0
  9 22  1  0
 22 23  1  0
  4 24  1  0
 24 25  2  0
 25  1  1  0
 23  6  1  0
 21 10  1  0
 21 13  1  0
 20 16  1  0
  1 26  1  0
  2 27  1  0
  3 28  1  0
  5 29  1  0
  5 30  1  0
  6 31  1  6
  7 32  1  0
  7 33  1  0
  8 34  1  0
  8 35  1  0
  9 36  1  1
 11 37  1  0
 14 38  1  0
 17 39  1  0
 18 40  1  0
 19 41  1  0
 22 42  1  0
 22 43  1  0
 23 44  1  0
 23 45  1  0
 24 46  1  0
 25 47  1  0
M  CHG  1   6   1
M  END
>  <meeko>  (4) 
{"is_sidechain": [false], "free_energy": -8.169, "intermolecular_energy": -9.765, "internal_energy": -0.252}

$$$$
4e6q_ligand
     RDKit          3D

 47 51  0  0  0  0  0  0  0  0999 V2000
    1.2560   -3.1770    9.5010 C   0  0  0  0  0  0  0  0  0  0  0  0
   -0.1070   -2.9300    9.3470 C   0  0  0  0  0  0  0  0  0  0  0  0
   -0.5400   -1.7360    8.7690 C   0  0  0  0  0  0  0  0  0  0  0  0
    0.3870   -0.7710    8.3420 C   0  0  0  0  0  0  0  0  0  0  0  0
   -0.0800    0.5240    7.7360 C   0  0  0  0  0  0  0  0  0  0  0  0
   -0.9740    1.3910    8.6130 N   0  0  2  0  0  0  0  0  0  0  0  0
   -0.4090    1.6630    9.9720 C   0  0  0  0  0  0  0  0  0  0  0  0
   -1.1490    2.8270   10.6220 C   0  0  0  0  0  0  0  0  0  0  0  0
   -2.5950    3.0570   10.1180 C   0  0  1  0  0  0  0  0  0  0  0  0
   -2.6600    4.1090    9.1000 N   0  0  0  0  0  0  0  0  0  0  0  0
   -1.6160    4.5560    8.3200 C   0  0  0  0  0  0  0  0  0  0  0  0
   -1.8800    5.7080    7.7440 N   0  0  0  0  0  0  0  0  0  0  0  0
   -3.2130    5.9260    7.9810 C   0  0  0  0  0  0  0  0  0  0  0  0
   -4.0970    6.9390    7.5660 C   0  0  0  0  0  0  0  0  0  0  0  0
   -5.4220    6.9490    7.9150 N   0  0  0  0  0  0  0  0  0  0  0  0
   -5.8270    5.9010    8.6520 C   0  0  0  0  0  0  0  0  0  0  0  0
   -7.0910    5.6330    9.0950 N   0  0  0  0  0  0  0  0  0  0  0  0
   -7.0870    4.4420    9.7970 C   0  0  0  0  0  0  0  0  0  0  0  0
   -5.8000    3.9320    9.8080 C   0  0  0  0  0  0  0  0  0  0  0  0
   -5.0250    4.8770    9.0970 C   0  0  0  0  0  0  0  0  0  0  0  0
   -3.7010    4.9060    8.7790 C   0  0  0  0  0  0  0  0  0  0  0  0
   -3.2130    1.7100    9.7070 C   0  0  0  0  0  0  0  0  0  0  0  0
   -2.3910    0.8940    8.7020 C   0  0  0  0  0  0  0  0  0  0  0  0
    1.7570   -1.0420    8.4890 C   0  0  0  0  0  0  0  0  0  0  0  0
    2.1870   -2.2370    9.0690 C   0  0  0  0  0  0  0  0  0  0  0  0
    1.5960   -4.1151    9.9641 H   0  0  0  0  0  0  0  0  0  0  0  0
   -0.8421   -3.6769    9.6814 H   0  0  0  0  0  0  0  0  0  0  0  0
   -1.6170   -1.5488    8.6467 H   0  0  0  0  0  0  0  0  0  0  0  0
    0.8113    1.1145    7.4772 H   0  0  0  0  0  0  0  0  0  0  0  0
   -0.6997    0.2395    6.8729 H   0  0  0  0  0  0  0  0  0  0  0  0
   -0.9780    2.2870    8.1020 H   0  0  0  0  0  0  0  0  0  0  0  0
   -0.5197    0.7657   10.5986 H   0  0  0  0  0  0  0  0  0  0  0  0
    0.6557    1.9217    9.8748 H   0  0  0  0  0  0  0  0  0  0  0  0
   -1.1925    2.6395   11.7050 H   0  0  0  0  0  0  0  0  0  0  0  0
   -0.5859    3.7330   10.3534 H   0  0  0  0  0  0  0  0  0  0  0  0
   -3.2199    3.4497   10.9336 H   0  0  0  0  0  0  0  0  0  0  0  0
   -0.6690    4.0109    8.1935 H   0  0  0  0  0  0  0  0  0  0  0  0
   -3.7095    7.7542    6.9373 H   0  0  0  0  0  0  0  0  0  0  0  0
   -7.8940    6.2170    8.9040 H   0  0  0  0  0  0  0  0  0  0  0  0
   -7.9638    3.9755   10.2699 H   0  0  0  0  0  0  0  0  0  0  0  0
   -5.4552    2.9950   10.2697 H   0  0  0  0  0  0  0  0  0  0  0  0
   -3.3402    1.1027   10.6153 H   0  0  0  0  0  0  0  0  0  0  0  0
   -4.1606    1.9501    9.2027 H   0  0  0  0  0  0  0  0  0  0  0  0
   -2.3807   -0.1588    9.0205 H   0  0  0  0  0  0  0  0  0  0  0  0
   -2.8558    0.9999    7.7107 H   0  0  0  0  0  0  0  0  0  0  0  0
    2.4982   -0.3060    8.1440 H   0  0  0  0  0  0  0  0  0  0  0  0
    3.2627   -2.4357    9.1846 H   0  0  0  0  0  0  0  0  0  0  0  0
  1  2  2  0
  2  3  1  0
  3  4  2  0
  4  5  1  0
  5  6  1  0
  6  7  1  0
  7  8  1  0
  8  9  1  0
  9 10  1  0
 10 11  1  0
 11 12  2  0
 12 13  1  0
 13 14  2  0
 14 15  1  0
 15 16  2  0
 16 17  1  0
 17 18  1  0
 18 19  2  0
 19 20  1  0
 20 21  2  0
  9 22  1  0
 22 23  1  0
  4 24  1  0
 24 25  2  0
 25  1  1  0
 23  6  1  0
 21 10  1  0
 21 13  1  0
 20 16  1  0
  1 26  1  0
  2 27  1  0
  3 28  1  0
  5 29  1  0
  5 30  1  0
  6 31  1  1
  7 32  1  0
  7 33  1  0
  8 34  1  0
  8 35  1  0
  9 36  1  6
 11 37  1  0
 14 38  1  0
 17 39  1  0
 18 40  1  0
 19 41  1  0
 22 42  1  0
 22 43  1  0
 23 44  1  0
 23 45  1  0
 24 46  1  0
 25 47  1  0
M  CHG  1   6   1
M  END
>  <meeko>  (5) 
{"is_sidechain": [false], "free_energy": -8.126, "intermolecular_energy": -9.778, "internal_energy": -0.189}

$$$$
4e6q_ligand
     RDKit          3D

 47 51  0  0  0  0  0  0  0  0999 V2000
   -3.3750    6.4530    7.8920 C   0  0  0  0  0  0  0  0  0  0  0  0
   -4.3350    5.8840    8.7270 C   0  0  0  0  0  0  0  0  0  0  0  0
   -4.0390    4.7240    9.4440 C   0  0  0  0  0  0  0  0  0  0  0  0
   -2.7800    4.1140    9.3300 C   0  0  0  0  0  0  0  0  0  0  0  0
   -2.4670    2.8530   10.0880 C   0  0  0  0  0  0  0  0  0  0  0  0
   -1.2980    2.0290    9.5650 N   0  0  2  0  0  0  0  0  0  0  0  0
   -1.5020    1.5000    8.1810 C   0  0  0  0  0  0  0  0  0  0  0  0
   -0.1690    1.0420    7.5950 C   0  0  0  0  0  0  0  0  0  0  0  0
    0.9040    0.6330    8.6330 C   0  0  1  0  0  0  0  0  0  0  0  0
    1.8520    1.7180    8.8980 N   0  0  0  0  0  0  0  0  0  0  0  0
    1.5760    3.0680    8.8750 C   0  0  0  0  0  0  0  0  0  0  0  0
    2.6660    3.8000    8.8220 N   0  0  0  0  0  0  0  0  0  0  0  0
    3.6970    2.9190    9.0280 C   0  0  0  0  0  0  0  0  0  0  0  0
    5.0870    3.0970    9.1560 C   0  0  0  0  0  0  0  0  0  0  0  0
    5.9450    2.0540    9.3810 N   0  0  0  0  0  0  0  0  0  0  0  0
    5.3620    0.8500    9.5070 C   0  0  0  0  0  0  0  0  0  0  0  0
    5.9660   -0.3440    9.7800 N   0  0  0  0  0  0  0  0  0  0  0  0
    5.0070   -1.3370    9.8530 C   0  0  0  0  0  0  0  0  0  0  0  0
    3.7620   -0.7750    9.6240 C   0  0  0  0  0  0  0  0  0  0  0  0
    4.0160    0.5960    9.3920 C   0  0  0  0  0  0  0  0  0  0  0  0
    3.1810    1.6380    9.1240 C   0  0  0  0  0  0  0  0  0  0  0  0
    0.2150    0.0480    9.8780 C   0  0  0  0  0  0  0  0  0  0  0  0
   -0.8630    0.9400   10.5070 C   0  0  0  0  0  0  0  0  0  0  0  0
   -1.8170    4.7080    8.4970 C   0  0  0  0  0  0  0  0  0  0  0  0
   -2.1170    5.8680    7.7800 C   0  0  0  0  0  0  0  0  0  0  0  0
   -3.6113    7.3636    7.3220 H   0  0  0  0  0  0  0  0  0  0  0  0
   -5.3271    6.3498    8.8209 H   0  0  0  0  0  0  0  0  0  0  0  0
   -4.7998    4.2833   10.1050 H   0  0  0  0  0  0  0  0  0  0  0  0
   -2.2421    3.1330   11.1277 H   0  0  0  0  0  0  0  0  0  0  0  0
   -3.3540    2.2124    9.9744 H   0  0  0  0  0  0  0  0  0  0  0  0
   -0.5440    2.7310    9.5130 H   0  0  0  0  0  0  0  0  0  0  0  0
   -2.1967    0.6478    8.2155 H   0  0  0  0  0  0  0  0  0  0  0  0
   -1.9198    2.2967    7.5480 H   0  0  0  0  0  0  0  0  0  0  0  0
   -0.3628    0.1747    6.9467 H   0  0  0  0  0  0  0  0  0  0  0  0
    0.2418    1.9100    7.0586 H   0  0  0  0  0  0  0  0  0  0  0  0
    1.5372   -0.1678    8.2233 H   0  0  0  0  0  0  0  0  0  0  0  0
    0.5586    3.4855    8.8984 H   0  0  0  0  0  0  0  0  0  0  0  0
    5.5001    4.1130    9.0721 H   0  0  0  0  0  0  0  0  0  0  0  0
    6.9610   -0.4550    9.9280 H   0  0  0  0  0  0  0  0  0  0  0  0
    5.2010   -2.3999   10.0593 H   0  0  0  0  0  0  0  0  0  0  0  0
    2.7873   -1.2848    9.6229 H   0  0  0  0  0  0  0  0  0  0  0  0
   -0.2557   -0.9038    9.5909 H   0  0  0  0  0  0  0  0  0  0  0  0
    1.0017   -0.0631   10.6387 H   0  0  0  0  0  0  0  0  0  0  0  0
   -1.7348    0.3200   10.7632 H   0  0  0  0  0  0  0  0  0  0  0  0
   -0.4389    1.4112   11.4060 H   0  0  0  0  0  0  0  0  0  0  0  0
   -0.8183    4.2554    8.4089 H   0  0  0  0  0  0  0  0  0  0  0  0
   -1.3576    6.3204    7.1253 H   0  0  0  0  0  0  0  0  0  0  0  0
  1  2  2  0
  2  3  1  0
  3  4  2  0
  4  5  1  0
  5  6  1  0
  6  7  1  0
  7  8  1  0
  8  9  1  0
  9 10  1  0
 10 11  1  0
 11 12  2  0
 12 13  1  0
 13 14  2  0
 14 15  1  0
 15 16  2  0
 16 17  1  0
 17 18  1  0
 18 19  2  0
 19 20  1  0
 20 21  2  0
  9 22  1  0
 22 23  1  0
  4 24  1  0
 24 25  2  0
 25  1  1  0
 23  6  1  0
 21 10  1  0
 21 13  1  0
 20 16  1  0
  1 26  1  0
  2 27  1  0
  3 28  1  0
  5 29  1  0
  5 30  1  0
  6 31  1  1
  7 32  1  0
  7 33  1  0
  8 34  1  0
  8 35  1  0
  9 36  1  1
 11 37  1  0
 14 38  1  0
 17 39  1  0
 18 40  1  0
 19 41  1  0
 22 42  1  0
 22 43  1  0
 23 44  1  0
 23 45  1  0
 24 46  1  0
 25 47  1  0
M  CHG  1   6   1
M  END
>  <meeko>  (6) 
{"is_sidechain": [false], "free_energy": -8.123, "intermolecular_energy": -9.668, "internal_energy": -0.295}

$$$$
4e6q_ligand
     RDKit          3D

 47 51  0  0  0  0  0  0  0  0999 V2000
    4.0030    3.6780   10.5960 C   0  0  0  0  0  0  0  0  0  0  0  0
    3.1710    3.6460   11.7130 C   0  0  0  0  0  0  0  0  0  0  0  0
    2.0300    2.8420   11.7120 C   0  0  0  0  0  0  0  0  0  0  0  0
    1.7050    2.0640   10.5900 C   0  0  0  0  0  0  0  0  0  0  0  0
    0.4650    1.2110   10.5810 C   0  0  0  0  0  0  0  0  0  0  0  0
   -0.6960    1.7260    9.7410 N   0  0  2  0  0  0  0  0  0  0  0  0
   -0.8460    1.0310    8.4250 C   0  0  0  0  0  0  0  0  0  0  0  0
   -2.2250    1.3160    7.8380 C   0  0  0  0  0  0  0  0  0  0  0  0
   -2.8860    2.6340    8.3100 C   0  0  1  0  0  0  0  0  0  0  0  0
   -3.8390    2.4090    9.3990 N   0  0  0  0  0  0  0  0  0  0  0  0
   -3.8070    1.3800   10.3140 C   0  0  0  0  0  0  0  0  0  0  0  0
   -4.9480    1.2420   10.9530 N   0  0  0  0  0  0  0  0  0  0  0  0
   -5.6860    2.3440   10.6030 C   0  0  0  0  0  0  0  0  0  0  0  0
   -6.9510    2.8070   11.0090 C   0  0  0  0  0  0  0  0  0  0  0  0
   -7.4980    3.9680   10.5310 N   0  0  0  0  0  0  0  0  0  0  0  0
   -6.7250    4.6550    9.6740 C   0  0  0  0  0  0  0  0  0  0  0  0
   -6.9970    5.8570    9.0860 N   0  0  0  0  0  0  0  0  0  0  0  0
   -5.9290    6.2310    8.2930 C   0  0  0  0  0  0  0  0  0  0  0  0
   -4.9500    5.2540    8.3680 C   0  0  0  0  0  0  0  0  0  0  0  0
   -5.4840    4.2670    9.2290 C   0  0  0  0  0  0  0  0  0  0  0  0
   -4.9730    3.0880    9.6790 C   0  0  0  0  0  0  0  0  0  0  0  0
   -1.7940    3.6770    8.6020 C   0  0  0  0  0  0  0  0  0  0  0  0
   -0.6970    3.2210    9.5700 C   0  0  0  0  0  0  0  0  0  0  0  0
    2.5620    2.0950    9.4770 C   0  0  0  0  0  0  0  0  0  0  0  0
    3.7020    2.9010    9.4820 C   0  0  0  0  0  0  0  0  0  0  0  0
    4.8979    4.3176   10.5949 H   0  0  0  0  0  0  0  0  0  0  0  0
    3.4135    4.2548   12.5965 H   0  0  0  0  0  0  0  0  0  0  0  0
    1.3795    2.8179   12.5988 H   0  0  0  0  0  0  0  0  0  0  0  0
    0.7428    0.2181   10.1976 H   0  0  0  0  0  0  0  0  0  0  0  0
    0.1006    1.2083   11.6189 H   0  0  0  0  0  0  0  0  0  0  0  0
   -1.5120    1.4670   10.3160 H   0  0  0  0  0  0  0  0  0  0  0  0
   -0.0730    1.3936    7.7315 H   0  0  0  0  0  0  0  0  0  0  0  0
   -0.7345   -0.0531    8.5747 H   0  0  0  0  0  0  0  0  0  0  0  0
   -2.1261    1.3586    6.7433 H   0  0  0  0  0  0  0  0  0  0  0  0
   -2.8790    0.5048    8.1905 H   0  0  0  0  0  0  0  0  0  0  0  0
   -3.5084    3.0524    7.5053 H   0  0  0  0  0  0  0  0  0  0  0  0
   -2.9262    0.7451   10.4904 H   0  0  0  0  0  0  0  0  0  0  0  0
   -7.5225    2.2139   11.7381 H   0  0  0  0  0  0  0  0  0  0  0  0
   -7.8450    6.3860    9.2440 H   0  0  0  0  0  0  0  0  0  0  0  0
   -5.8664    7.1545    7.6987 H   0  0  0  0  0  0  0  0  0  0  0  0
   -3.9707    5.2472    7.8671 H   0  0  0  0  0  0  0  0  0  0  0  0
   -1.3161    3.9452    7.6482 H   0  0  0  0  0  0  0  0  0  0  0  0
   -2.3017    4.5208    9.0922 H   0  0  0  0  0  0  0  0  0  0  0  0
    0.2805    3.5359    9.1758 H   0  0  0  0  0  0  0  0  0  0  0  0
   -0.8911    3.6795   10.5509 H   0  0  0  0  0  0  0  0  0  0  0  0
    2.3329    1.4793    8.5947 H   0  0  0  0  0  0  0  0  0  0  0  0
    4.3635    2.9217    8.6034 H   0  0  0  0  0  0  0  0  0  0  0  0
  1  2  2  0
  2  3  1  0
  3  4  2  0
  4  5  1  0
  5  6  1  0
  6  7  1  0
  7  8  1  0
  8  9  1  0
  9 10  1  0
 10 11  1  0
 11 12  2  0
 12 13  1  0
 13 14  2  0
 14 15  1  0
 15 16  2  0
 16 17  1  0
 17 18  1  0
 18 19  2  0
 19 20  1  0
 20 21  2  0
  9 22  1  0
 22 23  1  0
  4 24  1  0
 24 25  2  0
 25  1  1  0
 23  6  1  0
 21 10  1  0
 21 13  1  0
 20 16  1  0
  1 26  1  0
  2 27  1  0
  3 28  1  0
  5 29  1  0
  5 30  1  0
  6 31  1  6
  7 32  1  0
  7 33  1  0
  8 34  1  0
  8 35  1  0
  9 36  1  1
 11 37  1  0
 14 38  1  0
 17 39  1  0
 18 40  1  0
 19 41  1  0
 22 42  1  0
 22 43  1  0
 23 44  1  0
 23 45  1  0
 24 46  1  0
 25 47  1  0
M  CHG  1   6   1
M  END
>  <meeko>  (7) 
{"is_sidechain": [false], "free_energy": -8.069, "intermolecular_energy": -9.563, "internal_energy": -0.337}

$$$$
4e6q_ligand
     RDKit          3D

 47 51  0  0  0  0  0  0  0  0999 V2000
    0.2850    5.8820    6.9020 C   0  0  0  0  0  0  0  0  0  0  0  0
   -1.0010    5.5140    7.2920 C   0  0  0  0  0  0  0  0  0  0  0  0
   -1.2050    4.3340    8.0070 C   0  0  0  0  0  0  0  0  0  0  0  0
   -0.1230    3.5020    8.3370 C   0  0  0  0  0  0  0  0  0  0  0  0
   -0.3440    2.2200    9.0920 C   0  0  0  0  0  0  0  0  0  0  0  0
    0.8890    1.3540    9.3170 N   0  0  2  0  0  0  0  0  0  0  0  0
    0.9550    0.1520    8.4300 C   0  0  0  0  0  0  0  0  0  0  0  0
    2.3680   -0.4250    8.4360 C   0  0  0  0  0  0  0  0  0  0  0  0
    3.2020   -0.1160    9.7030 C   0  0  1  0  0  0  0  0  0  0  0  0
    4.1010    1.0230    9.5030 N   0  0  0  0  0  0  0  0  0  0  0  0
    4.0000    2.2580   10.1050 C   0  0  0  0  0  0  0  0  0  0  0  0
    4.7280    3.1700    9.5010 N   0  0  0  0  0  0  0  0  0  0  0  0
    5.4960    2.4750    8.6020 C   0  0  0  0  0  0  0  0  0  0  0  0
    6.5160    2.8710    7.7190 C   0  0  0  0  0  0  0  0  0  0  0  0
    7.1730    1.9840    6.9070 N   0  0  0  0  0  0  0  0  0  0  0  0
    6.7990    0.7010    7.0410 C   0  0  0  0  0  0  0  0  0  0  0  0
    7.3140   -0.3890    6.3980 N   0  0  0  0  0  0  0  0  0  0  0  0
    6.6690   -1.5290    6.8400 C   0  0  0  0  0  0  0  0  0  0  0  0
    5.7200   -1.1700    7.7830 C   0  0  0  0  0  0  0  0  0  0  0  0
    5.8110    0.2380    7.8770 C   0  0  0  0  0  0  0  0  0  0  0  0
    5.1370    1.1380    8.6450 C   0  0  0  0  0  0  0  0  0  0  0  0
    2.2660   -0.0060   10.9180 C   0  0  0  0  0  0  0  0  0  0  0  0
    1.1030    0.9800   10.7590 C   0  0  0  0  0  0  0  0  0  0  0  0
    1.1700    3.8940    7.9510 C   0  0  0  0  0  0  0  0  0  0  0  0
    1.3690    5.0750    7.2350 C   0  0  0  0  0  0  0  0  0  0  0  0
    0.4434    6.8092    6.3316 H   0  0  0  0  0  0  0  0  0  0  0  0
   -1.8571    6.1554    7.0355 H   0  0  0  0  0  0  0  0  0  0  0  0
   -2.2227    4.0525    8.3152 H   0  0  0  0  0  0  0  0  0  0  0  0
   -0.7583    2.4777   10.0779 H   0  0  0  0  0  0  0  0  0  0  0  0
   -1.0168    1.6187    8.4629 H   0  0  0  0  0  0  0  0  0  0  0  0
    1.6530    1.9850    9.0310 H   0  0  0  0  0  0  0  0  0  0  0  0
    0.2494   -0.6089    8.7948 H   0  0  0  0  0  0  0  0  0  0  0  0
    0.6896    0.4459    7.4037 H   0  0  0  0  0  0  0  0  0  0  0  0
    2.2895   -1.5179    8.3387 H   0  0  0  0  0  0  0  0  0  0  0  0
    2.8965    0.0545    7.5989 H   0  0  0  0  0  0  0  0  0  0  0  0
    3.8873   -0.9500    9.9147 H   0  0  0  0  0  0  0  0  0  0  0  0
    3.3799    2.4581   10.9913 H   0  0  0  0  0  0  0  0  0  0  0  0
    6.7974    3.9336    7.6785 H   0  0  0  0  0  0  0  0  0  0  0  0
    8.0690   -0.3460    5.7260 H   0  0  0  0  0  0  0  0  0  0  0  0
    6.8757   -2.5540    6.4985 H   0  0  0  0  0  0  0  0  0  0  0  0
    5.0427   -1.8356    8.3382 H   0  0  0  0  0  0  0  0  0  0  0  0
    1.8430   -1.0025   11.1130 H   0  0  0  0  0  0  0  0  0  0  0  0
    2.8820    0.3793   11.7439 H   0  0  0  0  0  0  0  0  0  0  0  0
    0.1849    0.5152   11.1476 H   0  0  0  0  0  0  0  0  0  0  0  0
    1.3471    1.8943   11.3197 H   0  0  0  0  0  0  0  0  0  0  0  0
    2.0325    3.2646    8.2155 H   0  0  0  0  0  0  0  0  0  0  0  0
    2.3851    5.3689    6.9330 H   0  0  0  0  0  0  0  0  0  0  0  0
  1  2  2  0
  2  3  1  0
  3  4  2  0
  4  5  1  0
  5  6  1  0
  6  7  1  0
  7  8  1  0
  8  9  1  0
  9 10  1  0
 10 11  1  0
 11 12  2  0
 12 13  1  0
 13 14  2  0
 14 15  1  0
 15 16  2  0
 16 17  1  0
 17 18  1  0
 18 19  2  0
 19 20  1  0
 20 21  2  0
  9 22  1  0
 22 23  1  0
  4 24  1  0
 24 25  2  0
 25  1  1  0
 23  6  1  0
 21 10  1  0
 21 13  1  0
 20 16  1  0
  1 26  1  0
  2 27  1  0
  3 28  1  0
  5 29  1  0
  5 30  1  0
  6 31  1  1
  7 32  1  0
  7 33  1  0
  8 34  1  0
  8 35  1  0
  9 36  1  6
 11 37  1  0
 14 38  1  0
 17 39  1  0
 18 40  1  0
 19 41  1  0
 22 42  1  0
 22 43  1  0
 23 44  1  0
 23 45  1  0
 24 46  1  0
 25 47  1  0
M  CHG  1   6   1
M  END
>  <meeko>  (8) 
{"is_sidechain": [false], "free_energy": -8.031, "intermolecular_energy": -9.343, "internal_energy": -0.513}

$$$$
4e6q_ligand
     RDKit          3D

 47 51  0  0  0  0  0  0  0  0999 V2000
    7.5810    0.7200    5.7170 C   0  0  0  0  0  0  0  0  0  0  0  0
    7.1780    0.0260    6.8550 C   0  0  0  0  0  0  0  0  0  0  0  0
    6.7650    0.7240    7.9910 C   0  0  0  0  0  0  0  0  0  0  0  0
    6.7550    2.1270    8.0030 C   0  0  0  0  0  0  0  0  0  0  0  0
    6.3270    2.8810    9.2330 C   0  0  0  0  0  0  0  0  0  0  0  0
    4.8770    2.6980    9.6600 N   0  0  2  0  0  0  0  0  0  0  0  0
    4.5490    3.3260   10.9770 C   0  0  0  0  0  0  0  0  0  0  0  0
    3.0370    3.4430   11.1390 C   0  0  0  0  0  0  0  0  0  0  0  0
    2.2040    2.4220   10.3260 C   0  0  1  0  0  0  0  0  0  0  0  0
    1.7100    2.9930    9.0710 N   0  0  0  0  0  0  0  0  0  0  0  0
    2.2810    4.0280    8.3630 C   0  0  0  0  0  0  0  0  0  0  0  0
    1.4600    4.5400    7.4740 N   0  0  0  0  0  0  0  0  0  0  0  0
    0.3880    3.6850    7.4470 C   0  0  0  0  0  0  0  0  0  0  0  0
   -0.7750    3.6450    6.6560 C   0  0  0  0  0  0  0  0  0  0  0  0
   -1.7250    2.6680    6.7910 N   0  0  0  0  0  0  0  0  0  0  0  0
   -1.4500    1.7260    7.7090 C   0  0  0  0  0  0  0  0  0  0  0  0
   -2.1900    0.6200    8.0150 N   0  0  0  0  0  0  0  0  0  0  0  0
   -1.5430   -0.1070    8.9970 C   0  0  0  0  0  0  0  0  0  0  0  0
   -0.3650    0.5400    9.3310 C   0  0  0  0  0  0  0  0  0  0  0  0
   -0.3400    1.6980    8.5190 C   0  0  0  0  0  0  0  0  0  0  0  0
    0.5730    2.7010    8.4030 C   0  0  0  0  0  0  0  0  0  0  0  0
    2.9990    1.1130   10.1820 C   0  0  0  0  0  0  0  0  0  0  0  0
    4.4120    1.2680    9.6070 C   0  0  0  0  0  0  0  0  0  0  0  0
    7.1480    2.8140    6.8410 C   0  0  0  0  0  0  0  0  0  0  0  0
    7.5620    2.1120    5.7080 C   0  0  0  0  0  0  0  0  0  0  0  0
    7.9142    0.1685    4.8255 H   0  0  0  0  0  0  0  0  0  0  0  0
    7.1851   -1.0740    6.8587 H   0  0  0  0  0  0  0  0  0  0  0  0
    6.4444    0.1691    8.8850 H   0  0  0  0  0  0  0  0  0  0  0  0
    6.9665    2.5551   10.0665 H   0  0  0  0  0  0  0  0  0  0  0  0
    6.4274    3.9460    8.9767 H   0  0  0  0  0  0  0  0  0  0  0  0
    4.3690    3.2290    8.9360 H   0  0  0  0  0  0  0  0  0  0  0  0
    4.9549    2.7036   11.7881 H   0  0  0  0  0  0  0  0  0  0  0  0
    4.9946    4.3309   11.0180 H   0  0  0  0  0  0  0  0  0  0  0  0
    2.7976    3.3059   12.2038 H   0  0  0  0  0  0  0  0  0  0  0  0
    2.7652    4.4356   10.7507 H   0  0  0  0  0  0  0  0  0  0  0  0
    1.2835    2.1676   10.8718 H   0  0  0  0  0  0  0  0  0  0  0  0
    3.3088    4.3855    8.5239 H   0  0  0  0  0  0  0  0  0  0  0  0
   -0.9270    4.4291    5.8997 H   0  0  0  0  0  0  0  0  0  0  0  0
   -3.0620    0.3770    7.5610 H   0  0  0  0  0  0  0  0  0  0  0  0
   -1.9049   -1.0462    9.4407 H   0  0  0  0  0  0  0  0  0  0  0  0
    0.3877    0.2224   10.0676 H   0  0  0  0  0  0  0  0  0  0  0  0
    3.0853    0.6557   11.1787 H   0  0  0  0  0  0  0  0  0  0  0  0
    2.4423    0.4950    9.4622 H   0  0  0  0  0  0  0  0  0  0  0  0
    5.1055    0.6451   10.1910 H   0  0  0  0  0  0  0  0  0  0  0  0
    4.3919    0.9512    8.5538 H   0  0  0  0  0  0  0  0  0  0  0  0
    7.1290    3.9137    6.8247 H   0  0  0  0  0  0  0  0  0  0  0  0
    7.8738    2.6595    4.8064 H   0  0  0  0  0  0  0  0  0  0  0  0
  1  2  2  0
  2  3  1  0
  3  4  2  0
  4  5  1  0
  5  6  1  0
  6  7  1  0
  7  8  1  0
  8  9  1  0
  9 10  1  0
 10 11  1  0
 11 12  2  0
 12 13  1  0
 13 14  2  0
 14 15  1  0
 15 16  2  0
 16 17  1  0
 17 18  1  0
 18 19  2  0
 19 20  1  0
 20 21  2  0
  9 22  1  0
 22 23  1  0
  4 24  1  0
 24 25  2  0
 25  1  1  0
 23  6  1  0
 21 10  1  0
 21 13  1  0
 20 16  1  0
  1 26  1  0
  2 27  1  0
  3 28  1  0
  5 29  1  0
  5 30  1  0
  6 31  1  1
  7 32  1  0
  7 33  1  0
  8 34  1  0
  8 35  1  0
  9 36  1  6
 11 37  1  0
 14 38  1  0
 17 39  1  0
 18 40  1  0
 19 41  1  0
 22 42  1  0
 22 43  1  0
 23 44  1  0
 23 45  1  0
 24 46  1  0
 25 47  1  0
M  CHG  1   6   1
M  END
>  <meeko>  (9) 
{"is_sidechain": [false], "free_energy": -7.886, "intermolecular_energy": -9.796, "internal_energy": 0.112}

$$$$
