3syr_ligand
     RDKit          3D

 33 34  0  0  0  0  0  0  0  0999 V2000
   -0.0870  -29.5800  -15.4730 O   0  0  0  0  0  0  0  0  0  0  0  0
    0.8520  -28.9410  -15.9310 C   0  0  0  0  0  0  0  0  0  0  0  0
    2.0650  -28.8630  -15.2990 N   0  0  0  0  0  0  0  0  0  0  0  0
    3.1710  -28.1730  -15.7360 C   0  0  0  0  0  0  0  0  0  0  0  0
    4.1970  -28.1720  -15.0590 O   0  0  0  0  0  0  0  0  0  0  0  0
    3.0190  -27.4930  -16.9420 N   0  0  0  0  0  0  0  0  0  0  0  0
    4.1950  -26.8120  -17.4920 C   0  0  2  0  0  0  0  0  0  0  0  0
    3.9000  -25.4130  -17.6010 O   0  0  0  0  0  0  0  0  0  0  0  0
    5.0470  -24.6370  -17.9870 C   0  0  2  0  0  0  0  0  0  0  0  0
    4.6630  -23.1480  -17.9680 C   0  0  0  0  0  0  0  0  0  0  0  0
    3.5870  -22.8990  -17.0620 O   0  0  0  0  0  0  0  0  0  0  0  0
    5.5190  -25.0610  -19.3840 C   0  0  1  0  0  0  0  0  0  0  0  0
    6.7110  -24.3660  -19.7510 O   0  0  0  0  0  0  0  0  0  0  0  0
    5.7840  -26.5700  -19.4150 C   0  0  2  0  0  0  0  0  0  0  0  0
    6.0910  -26.9810  -20.7610 O   0  0  0  0  0  0  0  0  0  0  0  0
    4.5930  -27.3710  -18.8800 C   0  0  1  0  0  0  0  0  0  0  0  0
    4.9390  -28.7580  -18.8360 O   0  0  0  0  0  0  0  0  0  0  0  0
    1.8300  -27.5300  -17.6500 C   0  0  0  0  0  0  0  0  0  0  0  0
    0.7690  -28.2010  -17.2040 C   0  0  0  0  0  0  0  0  0  0  0  0
   -0.3930  -28.2460  -17.8800 F   0  0  0  0  0  0  0  0  0  0  0  0
    2.1600  -29.3570  -14.4260 H   0  0  0  0  0  0  0  0  0  0  0  0
    5.0455  -26.9820  -16.8154 H   0  0  0  0  0  0  0  0  0  0  0  0
    5.8746  -24.8072  -17.2827 H   0  0  0  0  0  0  0  0  0  0  0  0
    5.5370  -22.5569  -17.6569 H   0  0  0  0  0  0  0  0  0  0  0  0
    4.3379  -22.8613  -18.9790 H   0  0  0  0  0  0  0  0  0  0  0  0
    2.7740  -22.7950  -17.5840 H   0  0  0  0  0  0  0  0  0  0  0  0
    4.7248  -24.8096  -20.1023 H   0  0  0  0  0  0  0  0  0  0  0  0
    6.9690  -24.6940  -20.6360 H   0  0  0  0  0  0  0  0  0  0  0  0
    6.6418  -26.7753  -18.7578 H   0  0  0  0  0  0  0  0  0  0  0  0
    6.3540  -27.9190  -20.7480 H   0  0  0  0  0  0  0  0  0  0  0  0
    3.7199  -27.2727  -19.5418 H   0  0  0  0  0  0  0  0  0  0  0  0
    5.8080  -28.8270  -18.3950 H   0  0  0  0  0  0  0  0  0  0  0  0
    1.7594  -26.9910  -18.6063 H   0  0  0  0  0  0  0  0  0  0  0  0
  1  2  2  0
  2  3  1  0
  3  4  1  0
  4  5  2  0
  4  6  1  0
  6  7  1  0
  7  8  1  0
  8  9  1  0
  9 10  1  0
 10 11  1  0
  9 12  1  0
 12 13  1  0
 12 14  1  0
 14 15  1  0
 14 16  1  0
 16 17  1  0
  6 18  1  0
 18 19  2  0
 19 20  1  0
 19  2  1  0
 16  7  1  0
  3 21  1  0
  7 22  1  1
  9 23  1  1
 10 24  1  0
 10 25  1  0
 11 26  1  0
 12 27  1  6
 13 28  1  0
 14 29  1  1
 15 30  1  0
 16 31  1  6
 17 32  1  0
 18 33  1  0
M  END
>  <meeko>  (1) 
{"is_sidechain": [false], "free_energy": -7.55, "intermolecular_energy": -9.316, "internal_energy": -0.467}

$$$$
3syr_ligand
     RDKit          3D

 33 34  0  0  0  0  0  0  0  0999 V2000
    5.8880  -24.4690  -22.0840 O   0  0  0  0  0  0  0  0  0  0  0  0
    5.3690  -25.1850  -21.2360 C   0  0  0  0  0  0  0  0  0  0  0  0
    5.7610  -26.4820  -21.0310 N   0  0  0  0  0  0  0  0  0  0  0  0
    5.2400  -27.3570  -20.1070 C   0  0  0  0  0  0  0  0  0  0  0  0
    5.6740  -28.5050  -20.0410 O   0  0  0  0  0  0  0  0  0  0  0  0
    4.2130  -26.8530  -19.3130 N   0  0  0  0  0  0  0  0  0  0  0  0
    3.6820  -27.7180  -18.2560 C   0  0  2  0  0  0  0  0  0  0  0  0
    2.2750  -27.4710  -18.1300 O   0  0  0  0  0  0  0  0  0  0  0  0
    1.6340  -28.3840  -17.2240 C   0  0  2  0  0  0  0  0  0  0  0  0
    0.1200  -28.1140  -17.2410 C   0  0  0  0  0  0  0  0  0  0  0  0
   -0.2120  -27.0730  -18.1610 O   0  0  0  0  0  0  0  0  0  0  0  0
    2.2050  -28.2050  -15.8110 C   0  0  1  0  0  0  0  0  0  0  0  0
    1.6470  -29.1620  -14.9110 O   0  0  0  0  0  0  0  0  0  0  0  0
    3.7290  -28.3600  -15.8340 C   0  0  2  0  0  0  0  0  0  0  0  0
    4.2680  -28.0540  -14.5340 O   0  0  0  0  0  0  0  0  0  0  0  0
    4.3790  -27.4690  -16.8970 C   0  0  1  0  0  0  0  0  0  0  0  0
    5.7830  -27.7360  -16.9410 O   0  0  0  0  0  0  0  0  0  0  0  0
    3.7660  -25.5490  -19.4480 C   0  0  0  0  0  0  0  0  0  0  0  0
    4.2830  -24.7200  -20.3540 C   0  0  0  0  0  0  0  0  0  0  0  0
    3.8590  -23.4520  -20.4980 F   0  0  0  0  0  0  0  0  0  0  0  0
    6.5020  -26.8350  -21.6150 H   0  0  0  0  0  0  0  0  0  0  0  0
    3.8729  -28.7651  -18.5336 H   0  0  0  0  0  0  0  0  0  0  0  0
    1.8201  -29.4221  -17.5366 H   0  0  0  0  0  0  0  0  0  0  0  0
   -0.4047  -29.0344  -17.5370 H   0  0  0  0  0  0  0  0  0  0  0  0
   -0.1872  -27.7974  -16.2333 H   0  0  0  0  0  0  0  0  0  0  0  0
   -0.5410  -26.3150  -17.6490 H   0  0  0  0  0  0  0  0  0  0  0  0
    1.9416  -27.1950  -15.4639 H   0  0  0  0  0  0  0  0  0  0  0  0
    0.9980  -28.6850  -14.3560 H   0  0  0  0  0  0  0  0  0  0  0  0
    3.9577  -29.4039  -16.0948 H   0  0  0  0  0  0  0  0  0  0  0  0
    4.6300  -27.1490  -14.5520 H   0  0  0  0  0  0  0  0  0  0  0  0
    4.2562  -26.4040  -16.6506 H   0  0  0  0  0  0  0  0  0  0  0  0
    6.0970  -27.7950  -16.0180 H   0  0  0  0  0  0  0  0  0  0  0  0
    2.9624  -25.1880  -18.7894 H   0  0  0  0  0  0  0  0  0  0  0  0
  1  2  2  0
  2  3  1  0
  3  4  1  0
  4  5  2  0
  4  6  1  0
  6  7  1  0
  7  8  1  0
  8  9  1  0
  9 10  1  0
 10 11  1  0
  9 12  1  0
 12 13  1  0
 12 14  1  0
 14 15  1  0
 14 16  1  0
 16 17  1  0
  6 18  1  0
 18 19  2  0
 19 20  1  0
 19  2  1  0
 16  7  1  0
  3 21  1  0
  7 22  1  6
  9 23  1  6
 10 24  1  0
 10 25  1  0
 11 26  1  0
 12 27  1  1
 13 28  1  0
 14 29  1  6
 15 30  1  0
 16 31  1  1
 17 32  1  0
 18 33  1  0
M  END
>  <meeko>  (2) 
{"is_sidechain": [false], "free_energy": -7.317, "intermolecular_energy": -9.003, "internal_energy": -0.492}

$$$$
3syr_ligand
     RDKit          3D

 33 34  0  0  0  0  0  0  0  0999 V2000
    6.4480  -19.7790  -21.3090 O   0  0  0  0  0  0  0  0  0  0  0  0
    6.2260  -20.9520  -21.0340 C   0  0  0  0  0  0  0  0  0  0  0  0
    5.1650  -21.3370  -20.2590 N   0  0  0  0  0  0  0  0  0  0  0  0
    4.8380  -22.6230  -19.9000 C   0  0  0  0  0  0  0  0  0  0  0  0
    3.8630  -22.8280  -19.1800 O   0  0  0  0  0  0  0  0  0  0  0  0
    5.6860  -23.6170  -20.3830 N   0  0  0  0  0  0  0  0  0  0  0  0
    5.3330  -25.0100  -20.0990 C   0  0  2  0  0  0  0  0  0  0  0  0
    6.3400  -25.5690  -19.2430 O   0  0  0  0  0  0  0  0  0  0  0  0
    6.0020  -26.8870  -18.7820 C   0  0  2  0  0  0  0  0  0  0  0  0
    7.0790  -27.3530  -17.7890 C   0  0  0  0  0  0  0  0  0  0  0  0
    7.8430  -28.4370  -18.3200 O   0  0  0  0  0  0  0  0  0  0  0  0
    5.9050  -27.8480  -19.9740 C   0  0  1  0  0  0  0  0  0  0  0  0
    5.4840  -29.1450  -19.5500 O   0  0  0  0  0  0  0  0  0  0  0  0
    4.9140  -27.3080  -21.0100 C   0  0  2  0  0  0  0  0  0  0  0  0
    4.9340  -28.1420  -22.1830 O   0  0  0  0  0  0  0  0  0  0  0  0
    5.2200  -25.8560  -21.3910 C   0  0  1  0  0  0  0  0  0  0  0  0
    4.2040  -25.3760  -22.2750 O   0  0  0  0  0  0  0  0  0  0  0  0
    6.7750  -23.3130  -21.1840 C   0  0  0  0  0  0  0  0  0  0  0  0
    7.0740  -22.0580  -21.5150 C   0  0  0  0  0  0  0  0  0  0  0  0
    8.1290  -21.7480  -22.2900 F   0  0  0  0  0  0  0  0  0  0  0  0
    4.5610  -20.6080  -19.9130 H   0  0  0  0  0  0  0  0  0  0  0  0
    4.3478  -25.0271  -19.6100 H   0  0  0  0  0  0  0  0  0  0  0  0
    5.0253  -26.8735  -18.2762 H   0  0  0  0  0  0  0  0  0  0  0  0
    7.7539  -26.5119  -17.5721 H   0  0  0  0  0  0  0  0  0  0  0  0
    6.5787  -27.6983  -16.8722 H   0  0  0  0  0  0  0  0  0  0  0  0
    8.4460  -28.7480  -17.6240 H   0  0  0  0  0  0  0  0  0  0  0  0
    6.9044  -27.9283  -20.4264 H   0  0  0  0  0  0  0  0  0  0  0  0
    4.5640  -29.2610  -19.8630 H   0  0  0  0  0  0  0  0  0  0  0  0
    3.9111  -27.3265  -20.5585 H   0  0  0  0  0  0  0  0  0  0  0  0
    5.8520  -28.4210  -22.3520 H   0  0  0  0  0  0  0  0  0  0  0  0
    6.1795  -25.7807  -21.9236 H   0  0  0  0  0  0  0  0  0  0  0  0
    3.9020  -24.5130  -21.9310 H   0  0  0  0  0  0  0  0  0  0  0  0
    7.4098  -24.1304  -21.5567 H   0  0  0  0  0  0  0  0  0  0  0  0
  1  2  2  0
  2  3  1  0
  3  4  1  0
  4  5  2  0
  4  6  1  0
  6  7  1  0
  7  8  1  0
  8  9  1  0
  9 10  1  0
 10 11  1  0
  9 12  1  0
 12 13  1  0
 12 14  1  0
 14 15  1  0
 14 16  1  0
 16 17  1  0
  6 18  1  0
 18 19  2  0
 19 20  1  0
 19  2  1  0
 16  7  1  0
  3 21  1  0
  7 22  1  1
  9 23  1  1
 10 24  1  0
 10 25  1  0
 11 26  1  0
 12 27  1  6
 13 28  1  0
 14 29  1  1
 15 30  1  0
 16 31  1  6
 17 32  1  0
 18 33  1  0
M  END
>  <meeko>  (3) 
{"is_sidechain": [false], "free_energy": -7.298, "intermolecular_energy": -8.846, "internal_energy": -0.626}

$$$$
3syr_ligand
     RDKit          3D

 33 34  0  0  0  0  0  0  0  0999 V2000
    4.2080  -28.1340  -15.0850 O   0  0  0  0  0  0  0  0  0  0  0  0
    4.4830  -27.7380  -16.2110 C   0  0  0  0  0  0  0  0  0  0  0  0
    5.7740  -27.5640  -16.6350 N   0  0  0  0  0  0  0  0  0  0  0  0
    6.1760  -27.1270  -17.8740 C   0  0  0  0  0  0  0  0  0  0  0  0
    7.3740  -26.9980  -18.1180 O   0  0  0  0  0  0  0  0  0  0  0  0
    5.1520  -26.8370  -18.7720 N   0  0  0  0  0  0  0  0  0  0  0  0
    5.5300  -26.4480  -20.1340 C   0  0  2  0  0  0  0  0  0  0  0  0
    5.0060  -25.1380  -20.3940 O   0  0  0  0  0  0  0  0  0  0  0  0
    5.4550  -24.6050  -21.6510 C   0  0  2  0  0  0  0  0  0  0  0  0
    4.9360  -23.1640  -21.7890 C   0  0  0  0  0  0  0  0  0  0  0  0
    5.6990  -22.4260  -22.7440 O   0  0  0  0  0  0  0  0  0  0  0  0
    4.9450  -25.4820  -22.8030 C   0  0  1  0  0  0  0  0  0  0  0  0
    5.4530  -25.0220  -24.0550 O   0  0  0  0  0  0  0  0  0  0  0  0
    5.3720  -26.9370  -22.5870 C   0  0  2  0  0  0  0  0  0  0  0  0
    4.7750  -27.7730  -23.5960 O   0  0  0  0  0  0  0  0  0  0  0  0
    4.9940  -27.4430  -21.1920 C   0  0  1  0  0  0  0  0  0  0  0  0
    5.5100  -28.7650  -21.0140 O   0  0  0  0  0  0  0  0  0  0  0  0
    3.8200  -26.9970  -18.4280 C   0  0  0  0  0  0  0  0  0  0  0  0
    3.4540  -27.4180  -17.2180 C   0  0  0  0  0  0  0  0  0  0  0  0
    2.1650  -27.5780  -16.8690 F   0  0  0  0  0  0  0  0  0  0  0  0
    6.5050  -27.7740  -15.9740 H   0  0  0  0  0  0  0  0  0  0  0  0
    6.6276  -26.4537  -20.2069 H   0  0  0  0  0  0  0  0  0  0  0  0
    6.5543  -24.5993  -21.6895 H   0  0  0  0  0  0  0  0  0  0  0  0
    3.8854  -23.1913  -22.1140 H   0  0  0  0  0  0  0  0  0  0  0  0
    5.0289  -22.6669  -20.8121 H   0  0  0  0  0  0  0  0  0  0  0  0
    6.4840  -22.9500  -22.9710 H   0  0  0  0  0  0  0  0  0  0  0  0
    3.8470  -25.4180  -22.8192 H   0  0  0  0  0  0  0  0  0  0  0  0
    6.2200  -25.5890  -24.2760 H   0  0  0  0  0  0  0  0  0  0  0  0
    6.4681  -26.9824  -22.6677 H   0  0  0  0  0  0  0  0  0  0  0  0
    4.9780  -28.7040  -23.3900 H   0  0  0  0  0  0  0  0  0  0  0  0
    3.9018  -27.4989  -21.0739 H   0  0  0  0  0  0  0  0  0  0  0  0
    4.9880  -29.1880  -20.3050 H   0  0  0  0  0  0  0  0  0  0  0  0
    3.0436  -26.7705  -19.1736 H   0  0  0  0  0  0  0  0  0  0  0  0
  1  2  2  0
  2  3  1  0
  3  4  1  0
  4  5  2  0
  4  6  1  0
  6  7  1  0
  7  8  1  0
  8  9  1  0
  9 10  1  0
 10 11  1  0
  9 12  1  0
 12 13  1  0
 12 14  1  0
 14 15  1  0
 14 16  1  0
 16 17  1  0
  6 18  1  0
 18 19  2  0
 19 20  1  0
 19  2  1  0
 16  7  1  0
  3 21  1  0
  7 22  1  1
  9 23  1  1
 10 24  1  0
 10 25  1  0
 11 26  1  0
 12 27  1  6
 13 28  1  0
 14 29  1  1
 15 30  1  0
 16 31  1  6
 17 32  1  0
 18 33  1  0
M  END
>  <meeko>  (4) 
{"is_sidechain": [false], "free_energy": -7.242, "intermolecular_energy": -8.74, "internal_energy": -0.663}

$$$$
3syr_ligand
     RDKit          3D

 33 34  0  0  0  0  0  0  0  0999 V2000
    6.0950  -28.1070  -13.8910 O   0  0  0  0  0  0  0  0  0  0  0  0
    5.7370  -27.7570  -15.0090 C   0  0  0  0  0  0  0  0  0  0  0  0
    4.5520  -28.1660  -15.5620 N   0  0  0  0  0  0  0  0  0  0  0  0
    4.0680  -27.8270  -16.8030 C   0  0  0  0  0  0  0  0  0  0  0  0
    2.9920  -28.2810  -17.1850 O   0  0  0  0  0  0  0  0  0  0  0  0
    4.8820  -26.9830  -17.5560 N   0  0  0  0  0  0  0  0  0  0  0  0
    4.3720  -26.5230  -18.8510 C   0  0  2  0  0  0  0  0  0  0  0  0
    5.1100  -27.1830  -19.8890 O   0  0  0  0  0  0  0  0  0  0  0  0
    4.5800  -26.9150  -21.1980 C   0  0  2  0  0  0  0  0  0  0  0  0
    5.3610  -27.7490  -22.2260 C   0  0  0  0  0  0  0  0  0  0  0  0
    4.6430  -27.8640  -23.4560 O   0  0  0  0  0  0  0  0  0  0  0  0
    4.6920  -25.4170  -21.5100 C   0  0  1  0  0  0  0  0  0  0  0  0
    4.0910  -25.1130  -22.7690 O   0  0  0  0  0  0  0  0  0  0  0  0
    4.0100  -24.5960  -20.4110 C   0  0  2  0  0  0  0  0  0  0  0  0
    4.2400  -23.1930  -20.6400 O   0  0  0  0  0  0  0  0  0  0  0  0
    4.5000  -24.9890  -19.0150 C   0  0  1  0  0  0  0  0  0  0  0  0
    3.7540  -24.2670  -18.0320 O   0  0  0  0  0  0  0  0  0  0  0  0
    6.0890  -26.5130  -17.0650 C   0  0  0  0  0  0  0  0  0  0  0  0
    6.5390  -26.8610  -15.8610 C   0  0  0  0  0  0  0  0  0  0  0  0
    7.7100  -26.4140  -15.3720 F   0  0  0  0  0  0  0  0  0  0  0  0
    3.9750  -28.7800  -15.0080 H   0  0  0  0  0  0  0  0  0  0  0  0
    3.3016  -26.7688  -18.9120 H   0  0  0  0  0  0  0  0  0  0  0  0
    3.5163  -27.1920  -21.2411 H   0  0  0  0  0  0  0  0  0  0  0  0
    6.3287  -27.2633  -22.4203 H   0  0  0  0  0  0  0  0  0  0  0  0
    5.5073  -28.7585  -21.8142 H   0  0  0  0  0  0  0  0  0  0  0  0
    4.3070  -26.9820  -23.6900 H   0  0  0  0  0  0  0  0  0  0  0  0
    5.7602  -25.1582  -21.5543 H   0  0  0  0  0  0  0  0  0  0  0  0
    4.7870  -24.7080  -23.3250 H   0  0  0  0  0  0  0  0  0  0  0  0
    2.9314  -24.8078  -20.4524 H   0  0  0  0  0  0  0  0  0  0  0  0
    5.1800  -23.0630  -20.8600 H   0  0  0  0  0  0  0  0  0  0  0  0
    5.5595  -24.7263  -18.8793 H   0  0  0  0  0  0  0  0  0  0  0  0
    4.1640  -23.3840  -17.9460 H   0  0  0  0  0  0  0  0  0  0  0  0
    6.6918  -25.8342  -17.6862 H   0  0  0  0  0  0  0  0  0  0  0  0
  1  2  2  0
  2  3  1  0
  3  4  1  0
  4  5  2  0
  4  6  1  0
  6  7  1  0
  7  8  1  0
  8  9  1  0
  9 10  1  0
 10 11  1  0
  9 12  1  0
 12 13  1  0
 12 14  1  0
 14 15  1  0
 14 16  1  0
 16 17  1  0
  6 18  1  0
 18 19  2  0
 19 20  1  0
 19  2  1  0
 16  7  1  0
  3 21  1  0
  7 22  1  6
  9 23  1  1
 10 24  1  0
 10 25  1  0
 11 26  1  0
 12 27  1  6
 13 28  1  0
 14 29  1  1
 15 30  1  0
 16 31  1  6
 17 32  1  0
 18 33  1  0
M  END
>  <meeko>  (5) 
{"is_sidechain": [false], "free_energy": -7.094, "intermolecular_energy": -8.615, "internal_energy": -0.604}

$$$$
3syr_ligand
     RDKit          3D

 33 34  0  0  0  0  0  0  0  0999 V2000
    3.1900  -21.6670  -16.8460 O   0  0  0  0  0  0  0  0  0  0  0  0
    3.6600  -22.4560  -17.6570 C   0  0  0  0  0  0  0  0  0  0  0  0
    4.9610  -22.3870  -18.0810 N   0  0  0  0  0  0  0  0  0  0  0  0
    5.5720  -23.2250  -18.9830 C   0  0  0  0  0  0  0  0  0  0  0  0
    6.7470  -23.0390  -19.2900 O   0  0  0  0  0  0  0  0  0  0  0  0
    4.7680  -24.2350  -19.5070 N   0  0  0  0  0  0  0  0  0  0  0  0
    5.3960  -25.2050  -20.4080 C   0  0  2  0  0  0  0  0  0  0  0  0
    4.8430  -25.0310  -21.7200 O   0  0  0  0  0  0  0  0  0  0  0  0
    5.5070  -25.8340  -22.7100 C   0  0  2  0  0  0  0  0  0  0  0  0
    4.9220  -25.4960  -24.0910 C   0  0  0  0  0  0  0  0  0  0  0  0
    5.8110  -25.8820  -25.1410 O   0  0  0  0  0  0  0  0  0  0  0  0
    5.3200  -27.3220  -22.3860 C   0  0  1  0  0  0  0  0  0  0  0  0
    6.0460  -28.1380  -23.3060 O   0  0  0  0  0  0  0  0  0  0  0  0
    5.8000  -27.6170  -20.9610 C   0  0  2  0  0  0  0  0  0  0  0  0
    5.4940  -28.9810  -20.6180 O   0  0  0  0  0  0  0  0  0  0  0  0
    5.1740  -26.6630  -19.9390 C   0  0  1  0  0  0  0  0  0  0  0  0
    5.7380  -26.9180  -18.6490 O   0  0  0  0  0  0  0  0  0  0  0  0
    3.4460  -24.3820  -19.1220 C   0  0  0  0  0  0  0  0  0  0  0  0
    2.8740  -23.5540  -18.2490 C   0  0  0  0  0  0  0  0  0  0  0  0
    1.5910  -23.6830  -17.8670 F   0  0  0  0  0  0  0  0  0  0  0  0
    5.5300  -21.6490  -17.6970 H   0  0  0  0  0  0  0  0  0  0  0  0
    6.4812  -25.0250  -20.4117 H   0  0  0  0  0  0  0  0  0  0  0  0
    6.5860  -25.6200  -22.7119 H   0  0  0  0  0  0  0  0  0  0  0  0
    3.9677  -26.0286  -24.2158 H   0  0  0  0  0  0  0  0  0  0  0  0
    4.7711  -24.4078  -24.1468 H   0  0  0  0  0  0  0  0  0  0  0  0
    5.5620  -25.3890  -25.9410 H   0  0  0  0  0  0  0  0  0  0  0  0
    4.2485  -27.5558  -22.4707 H   0  0  0  0  0  0  0  0  0  0  0  0
    5.9590  -27.7200  -24.1860 H   0  0  0  0  0  0  0  0  0  0  0  0
    6.8888  -27.4628  -20.9325 H   0  0  0  0  0  0  0  0  0  0  0  0
    4.6520  -28.9980  -20.1280 H   0  0  0  0  0  0  0  0  0  0  0  0
    4.0888  -26.8248  -19.8603 H   0  0  0  0  0  0  0  0  0  0  0  0
    5.1150  -27.4980  -18.1690 H   0  0  0  0  0  0  0  0  0  0  0  0
    2.8524  -25.2042  -19.5483 H   0  0  0  0  0  0  0  0  0  0  0  0
  1  2  2  0
  2  3  1  0
  3  4  1  0
  4  5  2  0
  4  6  1  0
  6  7  1  0
  7  8  1  0
  8  9  1  0
  9 10  1  0
 10 11  1  0
  9 12  1  0
 12 13  1  0
 12 14  1  0
 14 15  1  0
 14 16  1  0
 16 17  1  0
  6 18  1  0
 18 19  2  0
 19 20  1  0
 19  2  1  0
 16  7  1  0
  3 21  1  0
  7 22  1  6
  9 23  1  6
 10 24  1  0
 10 25  1  0
 11 26  1  0
 12 27  1  1
 13 28  1  0
 14 29  1  6
 15 30  1  0
 16 31  1  1
 17 32  1  0
 18 33  1  0
M  END
>  <meeko>  (6) 
{"is_sidechain": [false], "free_energy": -7.081, "intermolecular_energy": -8.569, "internal_energy": -0.635}

$$$$
3syr_ligand
     RDKit          3D

 33 34  0  0  0  0  0  0  0  0999 V2000
   -1.2900  -28.6620  -15.5910 O   0  0  0  0  0  0  0  0  0  0  0  0
   -0.3540  -28.2020  -16.2330 C   0  0  0  0  0  0  0  0  0  0  0  0
   -0.5380  -27.3680  -17.3050 N   0  0  0  0  0  0  0  0  0  0  0  0
    0.4480  -26.8060  -18.0810 C   0  0  0  0  0  0  0  0  0  0  0  0
    0.1420  -26.0860  -19.0290 O   0  0  0  0  0  0  0  0  0  0  0  0
    1.7550  -27.1320  -17.7250 N   0  0  0  0  0  0  0  0  0  0  0  0
    2.8420  -26.4910  -18.4680 C   0  0  2  0  0  0  0  0  0  0  0  0
    3.9430  -27.4080  -18.5450 O   0  0  0  0  0  0  0  0  0  0  0  0
    5.0020  -26.9280  -19.3890 C   0  0  2  0  0  0  0  0  0  0  0  0
    6.0780  -28.0210  -19.4980 C   0  0  0  0  0  0  0  0  0  0  0  0
    5.5160  -29.2660  -19.9170 O   0  0  0  0  0  0  0  0  0  0  0  0
    5.5910  -25.6370  -18.8050 C   0  0  1  0  0  0  0  0  0  0  0  0
    6.5860  -25.0940  -19.6740 O   0  0  0  0  0  0  0  0  0  0  0  0
    4.4840  -24.6000  -18.5930 C   0  0  2  0  0  0  0  0  0  0  0  0
    5.0210  -23.4470  -17.9190 O   0  0  0  0  0  0  0  0  0  0  0  0
    3.3070  -25.1750  -17.7990 C   0  0  1  0  0  0  0  0  0  0  0  0
    2.2660  -24.1970  -17.7250 O   0  0  0  0  0  0  0  0  0  0  0  0
    2.0270  -27.9580  -16.6470 C   0  0  0  0  0  0  0  0  0  0  0  0
    1.0540  -28.4950  -15.9120 C   0  0  0  0  0  0  0  0  0  0  0  0
    1.3040  -29.3000  -14.8630 F   0  0  0  0  0  0  0  0  0  0  0  0
   -1.4880  -27.1440  -17.5540 H   0  0  0  0  0  0  0  0  0  0  0  0
    2.4732  -26.2343  -19.4720 H   0  0  0  0  0  0  0  0  0  0  0  0
    4.6142  -26.7002  -20.3929 H   0  0  0  0  0  0  0  0  0  0  0  0
    6.8355  -27.7057  -20.2306 H   0  0  0  0  0  0  0  0  0  0  0  0
    6.5300  -28.1620  -18.5051 H   0  0  0  0  0  0  0  0  0  0  0  0
    6.2480  -29.8700  -20.1270 H   0  0  0  0  0  0  0  0  0  0  0  0
    6.0566  -25.8822  -17.8390 H   0  0  0  0  0  0  0  0  0  0  0  0
    7.4540  -25.2800  -19.2620 H   0  0  0  0  0  0  0  0  0  0  0  0
    4.1022  -24.3068  -19.5820 H   0  0  0  0  0  0  0  0  0  0  0  0
    5.9170  -23.6620  -17.6010 H   0  0  0  0  0  0  0  0  0  0  0  0
    3.6052  -25.4147  -16.7677 H   0  0  0  0  0  0  0  0  0  0  0  0
    1.8840  -24.1120  -18.6200 H   0  0  0  0  0  0  0  0  0  0  0  0
    3.0742  -28.1765  -16.3908 H   0  0  0  0  0  0  0  0  0  0  0  0
  1  2  2  0
  2  3  1  0
  3  4  1  0
  4  5  2  0
  4  6  1  0
  6  7  1  0
  7  8  1  0
  8  9  1  0
  9 10  1  0
 10 11  1  0
  9 12  1  0
 12 13  1  0
 12 14  1  0
 14 15  1  0
 14 16  1  0
 16 17  1  0
  6 18  1  0
 18 19  2  0
 19 20  1  0
 19  2  1  0
 16  7  1  0
  3 21  1  0
  7 22  1  6
  9 23  1  6
 10 24  1  0
 10 25  1  0
 11 26  1  0
 12 27  1  1
 13 28  1  0
 14 29  1  6
 15 30  1  0
 16 31  1  1
 17 32  1  0
 18 33  1  0
M  END
>  <meeko>  (7) 
{"is_sidechain": [false], "free_energy": -6.915, "intermolecular_energy": -8.522, "internal_energy": -0.477}

$$$$
3syr_ligand
     RDKit          3D

 33 34  0  0  0  0  0  0  0  0999 V2000
    1.4900  -28.1090  -17.3530 O   0  0  0  0  0  0  0  0  0  0  0  0
    2.2850  -27.1940  -17.5260 C   0  0  0  0  0  0  0  0  0  0  0  0
    3.5600  -27.2230  -17.0270 N   0  0  0  0  0  0  0  0  0  0  0  0
    4.5180  -26.2470  -17.1710 C   0  0  0  0  0  0  0  0  0  0  0  0
    5.6230  -26.3940  -16.6530 O   0  0  0  0  0  0  0  0  0  0  0  0
    4.1290  -25.1250  -17.9000 N   0  0  0  0  0  0  0  0  0  0  0  0
    5.1400  -24.0950  -18.1530 C   0  0  2  0  0  0  0  0  0  0  0  0
    4.4850  -22.8200  -18.2090 O   0  0  0  0  0  0  0  0  0  0  0  0
    5.4140  -21.7270  -18.3010 C   0  0  2  0  0  0  0  0  0  0  0  0
    4.6280  -20.4070  -18.2420 C   0  0  0  0  0  0  0  0  0  0  0  0
    5.4410  -19.3390  -17.7540 O   0  0  0  0  0  0  0  0  0  0  0  0
    6.2140  -21.8300  -19.6060 C   0  0  1  0  0  0  0  0  0  0  0  0
    7.2050  -20.8040  -19.6760 O   0  0  0  0  0  0  0  0  0  0  0  0
    6.8950  -23.1980  -19.7010 C   0  0  2  0  0  0  0  0  0  0  0  0
    7.5280  -23.3370  -20.9880 O   0  0  0  0  0  0  0  0  0  0  0  0
    5.9070  -24.3460  -19.4740 C   0  0  1  0  0  0  0  0  0  0  0  0
    6.6170  -25.5870  -19.4710 O   0  0  0  0  0  0  0  0  0  0  0  0
    2.8620  -25.0220  -18.4490 C   0  0  0  0  0  0  0  0  0  0  0  0
    1.9490  -25.9790  -18.2920 C   0  0  0  0  0  0  0  0  0  0  0  0
    0.7140  -25.8920  -18.8190 F   0  0  0  0  0  0  0  0  0  0  0  0
    3.8270  -28.0390  -16.4990 H   0  0  0  0  0  0  0  0  0  0  0  0
    5.8777  -24.1219  -17.3375 H   0  0  0  0  0  0  0  0  0  0  0  0
    6.1261  -21.7618  -17.4633 H   0  0  0  0  0  0  0  0  0  0  0  0
    4.2747  -20.1551  -19.2528 H   0  0  0  0  0  0  0  0  0  0  0  0
    3.7797  -20.5391  -17.5543 H   0  0  0  0  0  0  0  0  0  0  0  0
    4.8940  -18.5360  -17.7240 H   0  0  0  0  0  0  0  0  0  0  0  0
    5.5136  -21.7075  -20.4453 H   0  0  0  0  0  0  0  0  0  0  0  0
    7.8040  -21.0390  -20.4140 H   0  0  0  0  0  0  0  0  0  0  0  0
    7.6528  -23.2533  -18.9056 H   0  0  0  0  0  0  0  0  0  0  0  0
    6.8390  -23.5020  -21.6570 H   0  0  0  0  0  0  0  0  0  0  0  0
    5.1658  -24.3962  -20.2852 H   0  0  0  0  0  0  0  0  0  0  0  0
    6.8400  -25.7970  -20.3990 H   0  0  0  0  0  0  0  0  0  0  0  0
    2.6024  -24.1252  -19.0307 H   0  0  0  0  0  0  0  0  0  0  0  0
  1  2  2  0
  2  3  1  0
  3  4  1  0
  4  5  2  0
  4  6  1  0
  6  7  1  0
  7  8  1  0
  8  9  1  0
  9 10  1  0
 10 11  1  0
  9 12  1  0
 12 13  1  0
 12 14  1  0
 14 15  1  0
 14 16  1  0
 16 17  1  0
  6 18  1  0
 18 19  2  0
 19 20  1  0
 19  2  1  0
 16  7  1  0
  3 21  1  0
  7 22  1  1
  9 23  1  1
 10 24  1  0
 10 25  1  0
 11 26  1  0
 12 27  1  6
 13 28  1  0
 14 29  1  1
 15 30  1  0
 16 31  1  6
 17 32  1  0
 18 33  1  0
M  END
>  <meeko>  (8) 
{"is_sidechain": [false], "free_energy": -6.87, "intermolecular_energy": -8.277, "internal_energy": -0.666}

$$$$
3syr_ligand
     RDKit          3D

 33 34  0  0  0  0  0  0  0  0999 V2000
    4.8600  -23.8990  -25.1000 O   0  0  0  0  0  0  0  0  0  0  0  0
    4.8380  -24.3070  -23.9450 C   0  0  0  0  0  0  0  0  0  0  0  0
    4.6200  -23.4790  -22.8760 N   0  0  0  0  0  0  0  0  0  0  0  0
    4.5770  -23.8460  -21.5520 C   0  0  0  0  0  0  0  0  0  0  0  0
    4.3890  -22.9930  -20.6880 O   0  0  0  0  0  0  0  0  0  0  0  0
    4.7800  -25.2000  -21.2960 N   0  0  0  0  0  0  0  0  0  0  0  0
    4.6600  -25.6560  -19.9090 C   0  0  2  0  0  0  0  0  0  0  0  0
    5.8820  -26.3080  -19.5370 O   0  0  0  0  0  0  0  0  0  0  0  0
    5.9200  -26.6550  -18.1430 C   0  0  2  0  0  0  0  0  0  0  0  0
    7.3030  -27.2430  -17.8190 C   0  0  0  0  0  0  0  0  0  0  0  0
    7.6480  -27.0370  -16.4480 O   0  0  0  0  0  0  0  0  0  0  0  0
    4.8090  -27.6640  -17.8250 C   0  0  1  0  0  0  0  0  0  0  0  0
    4.7710  -27.9550  -16.4270 O   0  0  0  0  0  0  0  0  0  0  0  0
    3.4500  -27.1090  -18.2630 C   0  0  2  0  0  0  0  0  0  0  0  0
    2.4350  -28.1150  -18.0880 O   0  0  0  0  0  0  0  0  0  0  0  0
    3.4710  -26.6280  -19.7170 C   0  0  1  0  0  0  0  0  0  0  0  0
    2.2120  -26.0270  -20.0330 O   0  0  0  0  0  0  0  0  0  0  0  0
    4.9950  -26.1070  -22.3210 C   0  0  0  0  0  0  0  0  0  0  0  0
    5.0370  -25.7260  -23.5970 C   0  0  0  0  0  0  0  0  0  0  0  0
    5.2460  -26.5950  -24.6020 F   0  0  0  0  0  0  0  0  0  0  0  0
    4.4780  -22.5010  -23.0760 H   0  0  0  0  0  0  0  0  0  0  0  0
    4.4719  -24.7808  -19.2698 H   0  0  0  0  0  0  0  0  0  0  0  0
    5.7532  -25.7606  -17.5248 H   0  0  0  0  0  0  0  0  0  0  0  0
    7.2904  -28.3232  -18.0266 H   0  0  0  0  0  0  0  0  0  0  0  0
    8.0511  -26.7343  -18.4448 H   0  0  0  0  0  0  0  0  0  0  0  0
    8.6140  -26.9450  -16.3930 H   0  0  0  0  0  0  0  0  0  0  0  0
    5.0243  -28.5912  -18.3764 H   0  0  0  0  0  0  0  0  0  0  0  0
    5.6980  -28.0720  -16.1370 H   0  0  0  0  0  0  0  0  0  0  0  0
    3.2216  -26.2380  -17.6312 H   0  0  0  0  0  0  0  0  0  0  0  0
    2.7750  -28.7980  -17.4820 H   0  0  0  0  0  0  0  0  0  0  0  0
    3.6151  -27.4699  -20.4101 H   0  0  0  0  0  0  0  0  0  0  0  0
    1.7430  -26.6350  -20.6370 H   0  0  0  0  0  0  0  0  0  0  0  0
    5.1347  -27.1699  -22.0748 H   0  0  0  0  0  0  0  0  0  0  0  0
  1  2  2  0
  2  3  1  0
  3  4  1  0
  4  5  2  0
  4  6  1  0
  6  7  1  0
  7  8  1  0
  8  9  1  0
  9 10  1  0
 10 11  1  0
  9 12  1  0
 12 13  1  0
 12 14  1  0
 14 15  1  0
 14 16  1  0
 16 17  1  0
  6 18  1  0
 18 19  2  0
 19 20  1  0
 19  2  1  0
 16  7  1  0
  3 21  1  0
  7 22  1  1
  9 23  1  1
 10 24  1  0
 10 25  1  0
 11 26  1  0
 12 27  1  6
 13 28  1  0
 14 29  1  1
 15 30  1  0
 16 31  1  6
 17 32  1  0
 18 33  1  0
M  END
>  <meeko>  (9) 
{"is_sidechain": [false], "free_energy": -6.764, "intermolecular_energy": -8.151, "internal_energy": -0.662}

$$$$
