
     RDKit          3D

 42 46  0  0  0  0  0  0  0  0999 V2000
    1.6650   -6.1330   -6.3360 C   0  0  0  0  0  0  0  0  0  0  0  0
    0.5090   -5.7530   -5.4110 C   0  0  0  0  0  0  0  0  0  0  0  0
   -0.1200   -4.4180   -5.7990 C   0  0  2  0  0  0  0  0  0  0  0  0
   -0.8850   -4.4180   -7.1120 C   0  0  0  0  0  0  0  0  0  0  0  0
   -1.8500   -5.5790   -7.3210 C   0  0  0  0  0  0  0  0  0  0  0  0
    0.9680   -3.3200   -5.8350 C   0  0  0  0  0  0  0  0  0  0  0  0
    0.3740   -2.0010   -5.9780 N   0  0  0  0  0  0  0  0  0  0  0  0
   -0.0400   -1.3800   -4.7150 C   0  0  0  0  0  0  0  0  0  0  0  0
   -1.5550   -1.4610   -4.5590 C   0  0  1  0  0  0  0  0  0  0  0  0
   -1.9130   -1.1390   -3.2210 O   0  0  0  0  0  0  0  0  0  0  0  0
   -2.2730   -0.5060   -5.5010 C   0  0  2  0  0  0  0  0  0  0  0  0
   -2.0360    0.9630   -5.1920 C   0  0  0  0  0  0  0  0  0  0  0  0
   -2.8130    1.8740   -6.1250 C   0  0  0  0  0  0  0  0  0  0  0  0
   -3.8780    2.6360   -5.6190 C   0  0  0  0  0  0  0  0  0  0  0  0
   -4.6300    3.4760   -6.4820 C   0  0  0  0  0  0  0  0  0  0  0  0
   -4.3020    3.5230   -7.8560 C   0  0  0  0  0  0  0  0  0  0  0  0
   -3.2240    2.7730   -8.3480 C   0  0  0  0  0  0  0  0  0  0  0  0
   -2.4760    1.9440   -7.4870 C   0  0  0  0  0  0  0  0  0  0  0  0
   -3.7100   -0.7610   -5.4420 N   0  0  0  0  0  0  0  0  0  0  0  0
   -4.4530   -1.2640   -6.4740 C   0  0  0  0  0  0  0  0  0  0  0  0
   -4.0290   -1.5650   -7.5570 O   0  0  0  0  0  0  0  0  0  0  0  0
   -5.7900   -1.3740   -6.1310 O   0  0  0  0  0  0  0  0  0  0  0  0
   -6.7850   -1.7220   -7.0950 C   0  0  1  0  0  0  0  0  0  0  0  0
   -7.7610   -2.6420   -6.4420 C   0  0  0  0  0  0  0  0  0  0  0  0
   -8.6490   -1.7270   -5.7400 O   0  0  0  0  0  0  0  0  0  0  0  0
   -8.7510   -0.5120   -6.4580 C   0  0  1  0  0  0  0  0  0  0  0  0
   -8.5100    0.5730   -5.5710 O   0  0  0  0  0  0  0  0  0  0  0  0
   -7.2900    1.2570   -5.9550 C   0  0  0  0  0  0  0  0  0  0  0  0
   -6.9340    0.8300   -7.3210 C   0  0  0  0  0  0  0  0  0  0  0  0
   -7.5980   -0.5130   -7.4910 C   0  0  1  0  0  0  0  0  0  0  0  0
    1.1040   -0.9500   -7.0910 S   0  0  2  0  0  0  0  0  0  0  0  0
    0.5750    0.3520   -6.8880 O   0  0  0  0  0  0  0  0  0  0  0  0
    0.9110   -1.5430   -8.3790 O   0  0  0  0  0  0  0  0  0  0  0  0
    2.7910   -0.9460   -6.6690 C   0  0  0  0  0  0  0  0  0  0  0  0
    3.2600    0.0120   -5.7510 C   0  0  0  0  0  0  0  0  0  0  0  0
    4.6200    0.0340   -5.3970 C   0  0  0  0  0  0  0  0  0  0  0  0
    5.5000   -0.9090   -5.9470 C   0  0  0  0  0  0  0  0  0  0  0  0
    6.8280   -1.0670   -5.7000 N   0  0  0  0  0  0  0  0  0  0  0  0
    7.3820   -2.0770   -6.3690 C   0  0  0  0  0  0  0  0  0  0  0  0
    6.3090   -2.9090   -7.3630 S   0  0  0  0  0  0  0  0  0  0  0  0
    5.0320   -1.8510   -6.8660 C   0  0  0  0  0  0  0  0  0  0  0  0
    3.6590   -1.8710   -7.2540 C   0  0  0  0  0  0  0  0  0  0  0  0
  2  1  1  0
  3  2  1  6
  4  3  1  0
  5  4  1  0
  6  3  1  0
  7  6  1  0
  8  7  1  0
  9  8  1  0
  9 10  1  1
 11  9  1  0
 11 12  1  1
 13 12  1  0
 14 13  2  0
 15 14  1  0
 16 15  2  0
 17 16  1  0
 18 17  2  0
 18 13  1  0
 19 11  1  0
 20 19  1  0
 21 20  2  0
 22 20  1  0
 23 22  1  1
 24 23  1  0
 25 24  1  0
 26 25  1  1
 27 26  1  0
 28 27  1  0
 29 28  1  0
 30 29  1  1
 30 26  1  0
 30 23  1  0
 31  7  1  1
 32 31  2  0
 33 31  2  0
 34 31  1  0
 35 34  2  0
 36 35  1  0
 37 36  2  0
 38 37  1  0
 39 38  2  0
 40 39  1  0
 41 40  1  0
 41 37  1  0
 42 41  2  0
 42 34  1  0
M  END
$$$$
