
     RDKit          3D

 20 23  0  0  0  0  0  0  0  0999 V2000
   -2.7860    1.4870    3.0400 O   0  0  0  0  0  0  0  0  0  0  0  0
   -2.6060    0.3640    2.2170 C   0  0  1  0  0  0  0  0  0  0  0  0
   -1.1640    0.0900    1.9350 C   0  0  0  0  0  0  0  0  0  0  0  0
   -0.1350    0.8340    2.5130 C   0  0  0  0  0  0  0  0  0  0  0  0
    1.1920    0.5700    2.2230 C   0  0  0  0  0  0  0  0  0  0  0  0
    1.4940   -0.4490    1.3260 C   0  0  0  0  0  0  0  0  0  0  0  0
    3.1600   -0.8260    0.9330 Cl  0  0  0  0  0  0  0  0  0  0  0  0
    0.4940   -1.1950    0.7270 C   0  0  0  0  0  0  0  0  0  0  0  0
   -0.8320   -0.9140    1.0350 C   0  0  0  0  0  0  0  0  0  0  0  0
   -3.3180   -0.8250    2.8270 C   0  0  0  0  0  0  0  0  0  0  0  0
   -3.1300   -1.4610    4.0450 C   0  0  0  0  0  0  0  0  0  0  0  0
   -3.9470   -2.5760    4.3520 C   0  0  0  0  0  0  0  0  0  0  0  0
   -4.9020   -3.0070    3.4580 C   0  0  0  0  0  0  0  0  0  0  0  0
   -5.0830   -2.3500    2.2250 C   0  0  0  0  0  0  0  0  0  0  0  0
   -4.2760   -1.2630    1.9310 C   0  0  0  0  0  0  0  0  0  0  0  0
   -4.2390   -0.3960    0.7840 C   0  0  0  0  0  0  0  0  0  0  0  0
   -4.8670   -0.1950   -0.3700 N   0  0  0  0  0  0  0  0  0  0  0  0
   -4.2240    0.9130   -0.9470 C   0  0  0  0  0  0  0  0  0  0  0  0
   -3.2340    1.3630   -0.0820 C   0  0  0  0  0  0  0  0  0  0  0  0
   -3.3110    0.5350    0.9590 N   0  0  0  0  0  0  0  0  0  0  0  0
  2  1  1  1
  3  2  1  0
  4  3  2  0
  5  4  1  0
  6  5  2  0
  7  6  1  0
  8  6  1  0
  9  8  2  0
  9  3  1  0
 10  2  1  0
 11 10  2  0
 12 11  1  0
 13 12  2  0
 14 13  1  0
 15 14  2  0
 15 10  1  0
 16 15  1  0
 17 16  2  0
 18 17  1  0
 19 18  2  0
 20 19  1  0
 20 16  1  0
 20  2  1  0
M  END
$$$$
