
     RDKit          3D

 34 37  0  0  0  0  0  0  0  0999 V2000
   -1.0820   -3.0130  -13.6860 C   0  0  0  0  0  0  0  0  0  0  0  0
   -0.6130   -2.2820  -12.4740 C   0  0  0  0  0  0  0  0  0  0  0  0
   -1.2900   -1.1560  -12.0790 C   0  0  0  0  0  0  0  0  0  0  0  0
   -0.8650   -0.4270  -10.9880 C   0  0  0  0  0  0  0  0  0  0  0  0
   -1.5570    0.7090  -10.6120 N   0  0  0  0  0  0  0  0  0  0  0  0
    0.2670   -0.8320  -10.2720 C   0  0  0  0  0  0  0  0  0  0  0  0
    0.7530   -0.1190   -9.1710 C   0  0  0  0  0  0  0  0  0  0  0  0
    1.8640   -0.5380   -8.5290 C   0  0  0  0  0  0  0  0  0  0  0  0
    2.5230   -1.6710   -8.9290 C   0  0  0  0  0  0  0  0  0  0  0  0
    2.0750   -2.4070   -9.9920 C   0  0  0  0  0  0  0  0  0  0  0  0
    0.9400   -1.9950  -10.6940 C   0  0  0  0  0  0  0  0  0  0  0  0
    0.4850   -2.7060  -11.7880 N   0  0  0  0  0  0  0  0  0  0  0  0
    1.0930   -3.9600  -12.1900 C   0  0  0  0  0  0  0  0  0  0  0  0
    0.3060   -5.0970  -11.5540 C   0  0  0  0  0  0  0  0  0  0  0  0
    0.3950   -6.3700  -12.3230 C   0  0  0  0  0  0  0  0  0  0  0  0
   -0.9140   -7.1410  -12.2380 C   0  0  0  0  0  0  0  0  0  0  0  0
   -1.5210   -7.4260  -13.5980 C   0  0  0  0  0  0  0  0  0  0  0  0
   -2.9030   -6.8530  -13.8290 C   0  0  0  0  0  0  0  0  0  0  0  0
   -2.9660   -5.8290  -14.9510 C   0  0  0  0  0  0  0  0  0  0  0  0
   -3.0800   -6.3970  -16.3740 C   0  0  0  0  0  0  0  0  0  0  0  0
   -2.9650   -5.3140  -17.4480 C   0  0  0  0  0  0  0  0  0  0  0  0
   -2.1780   -5.8170  -18.6460 C   0  0  0  0  0  0  0  0  0  0  0  0
   -2.0930   -4.8470  -19.7670 N   0  0  0  0  0  0  0  0  0  0  0  0
   -2.9600   -4.9320  -20.8210 C   0  0  0  0  0  0  0  0  0  0  0  0
   -4.0270   -6.0060  -20.8610 C   0  0  0  0  0  0  0  0  0  0  0  0
   -2.8590   -4.0640  -21.8850 C   0  0  0  0  0  0  0  0  0  0  0  0
   -1.8930   -3.0710  -21.8930 C   0  0  0  0  0  0  0  0  0  0  0  0
   -1.8190   -2.2160  -22.9740 N   0  0  0  0  0  0  0  0  0  0  0  0
   -1.0070   -2.9410  -20.8000 C   0  0  0  0  0  0  0  0  0  0  0  0
   -0.0070   -1.9400  -20.7440 C   0  0  0  0  0  0  0  0  0  0  0  0
    0.8240   -1.8430  -19.6720 C   0  0  0  0  0  0  0  0  0  0  0  0
    0.7110   -2.7310  -18.6240 C   0  0  0  0  0  0  0  0  0  0  0  0
   -0.2450   -3.7160  -18.6520 C   0  0  0  0  0  0  0  0  0  0  0  0
   -1.1250   -3.8420  -19.7390 C   0  0  0  0  0  0  0  0  0  0  0  0
  2  1  1  0
  3  2  2  0
  4  3  1  0
  5  4  1  0
  6  4  2  0
  7  6  1  0
  8  7  2  0
  9  8  1  0
 10  9  2  0
 11 10  1  0
 11  6  1  0
 12  2  1  0
 12 11  2  0
 13 12  1  0
 14 13  1  0
 15 14  1  0
 16 15  1  0
 17 16  1  0
 18 17  1  0
 19 18  1  0
 20 19  1  0
 21 20  1  0
 22 21  1  0
 23 22  1  0
 24 23  2  0
 25 24  1  0
 26 24  1  0
 27 26  2  0
 28 27  1  0
 29 27  1  0
 30 29  2  0
 31 30  1  0
 32 31  2  0
 33 32  1  0
 34 33  2  0
 34 29  1  0
 34 23  1  0
M  CHG  2  12   1  23   1
M  END
$$$$
