
     RDKit          3D

 23 24  0  0  0  0  0  0  0  0999 V2000
  -28.6790  -13.7670   -6.7900 O   0  0  0  0  0  0  0  0  0  0  0  0
  -28.7060  -13.7780   -5.5970 C   0  0  0  0  0  0  0  0  0  0  0  0
  -28.2070  -12.5300   -4.8270 C   0  0  0  0  0  0  0  0  0  0  0  0
  -28.6100  -11.2460   -5.5840 C   0  0  0  0  0  0  0  0  0  0  0  0
  -28.2850  -10.0370   -4.7970 C   0  0  0  0  0  0  0  0  0  0  0  0
  -29.2540   -9.4010   -4.0250 C   0  0  0  0  0  0  0  0  0  0  0  0
  -28.9900   -8.1370   -3.2140 C   0  0  1  0  0  0  0  0  0  0  0  0
  -29.2840   -6.9900   -4.0010 O   0  0  0  0  0  0  0  0  0  0  0  0
  -29.9310   -8.1050   -1.9930 C   0  0  0  0  0  0  0  0  0  0  0  0
  -29.5130   -8.4340   -0.9190 O   0  0  0  0  0  0  0  0  0  0  0  0
  -31.0750   -7.7050   -2.2080 O   0  0  0  0  0  0  0  0  0  0  0  0
  -27.4920   -8.0510   -2.8030 C   0  0  0  0  0  0  0  0  0  0  0  0
  -26.5870   -8.2500   -4.0110 C   0  0  1  0  0  0  0  0  0  0  0  0
  -25.2310   -8.2750   -3.5680 O   0  0  0  0  0  0  0  0  0  0  0  0
  -26.9120   -9.5020   -4.7930 C   0  0  0  0  0  0  0  0  0  0  0  0
  -26.0270  -10.0160   -5.5060 O   0  0  0  0  0  0  0  0  0  0  0  0
  -29.1690  -14.8460   -4.8660 N   0  0  0  0  0  0  0  0  0  0  0  0
  -29.7520  -16.0300   -5.4030 C   0  0  0  0  0  0  0  0  0  0  0  0
  -30.8690  -15.9350   -6.2240 C   0  0  0  0  0  0  0  0  0  0  0  0
  -31.4410  -17.0840   -6.7380 C   0  0  0  0  0  0  0  0  0  0  0  0
  -30.9140  -18.3370   -6.4420 C   0  0  0  0  0  0  0  0  0  0  0  0
  -29.8030  -18.4060   -5.5900 C   0  0  0  0  0  0  0  0  0  0  0  0
  -29.2340  -17.2540   -5.0810 C   0  0  0  0  0  0  0  0  0  0  0  0
  2  1  2  0
  3  2  1  0
  4  3  1  0
  5  4  1  0
  6  5  2  0
  7  6  1  0
  7  8  1  6
  9  7  1  0
 10  9  2  0
 11  9  1  0
 12  7  1  0
 13 12  1  0
 13 14  1  1
 15  5  1  0
 15 13  1  0
 16 15  2  0
 17  2  1  0
 18 17  1  0
 19 18  2  0
 20 19  1  0
 21 20  2  0
 22 21  1  0
 23 22  2  0
 23 18  1  0
M  CHG  1  11  -1
M  END
$$$$
