3n86_ligand
     RDKit          3D

 39 40  0  0  0  0  0  0  0  0999 V2000
   14.9540   19.8470  -10.4630 O   0  0  0  0  0  0  0  0  0  0  0  0
   16.1530   20.0460  -10.3090 C   0  0  0  0  0  0  0  0  0  0  0  0
   16.9340   21.0310  -11.1620 C   0  0  0  0  0  0  0  0  0  0  0  0
   16.8580   20.7030  -12.6510 C   0  0  0  0  0  0  0  0  0  0  0  0
   15.9640   21.6740  -13.3670 C   0  0  0  0  0  0  0  0  0  0  0  0
   16.1780   23.0010  -13.3950 C   0  0  0  0  0  0  0  0  0  0  0  0
   15.3640   23.9900  -14.1860 C   0  0  1  0  0  0  0  0  0  0  0  0
   14.5320   24.6820  -13.2270 O   0  0  0  0  0  0  0  0  0  0  0  0
   16.3200   25.0310  -14.8880 C   0  0  0  0  0  0  0  0  0  0  0  0
   15.7440   26.1400  -15.1300 O   0  0  0  0  0  0  0  0  0  0  0  0
   17.5080   24.6650  -15.1010 O   0  0  0  0  0  0  0  0  0  0  0  0
   14.4760   23.3400  -15.2420 C   0  0  0  0  0  0  0  0  0  0  0  0
   13.7580   22.1400  -14.6530 C   0  0  1  0  0  0  0  0  0  0  0  0
   12.9640   21.5090  -15.6650 O   0  0  0  0  0  0  0  0  0  0  0  0
   14.7660   21.1400  -14.0790 C   0  0  0  0  0  0  0  0  0  0  0  0
   14.5750   19.9230  -14.1720 O   0  0  0  0  0  0  0  0  0  0  0  0
   16.9790   19.4360   -9.3760 N   0  0  0  0  0  0  0  0  0  0  0  0
   16.6300   18.4640   -8.4170 C   0  0  0  0  0  0  0  0  0  0  0  0
   16.6830   18.8490   -7.0700 C   0  0  0  0  0  0  0  0  0  0  0  0
   16.3520   17.9450   -6.0560 C   0  0  0  0  0  0  0  0  0  0  0  0
   15.9670   16.6480   -6.3790 C   0  0  0  0  0  0  0  0  0  0  0  0
   15.9120   16.2560   -7.7140 C   0  0  0  0  0  0  0  0  0  0  0  0
   16.2420   17.1610   -8.7300 C   0  0  0  0  0  0  0  0  0  0  0  0
   16.5242   22.0391  -11.0014 H   0  0  0  0  0  0  0  0  0  0  0  0
   17.9900   20.9710  -10.8599 H   0  0  0  0  0  0  0  0  0  0  0  0
   17.8679   20.7562  -13.0838 H   0  0  0  0  0  0  0  0  0  0  0  0
   16.4436   19.6908  -12.7679 H   0  0  0  0  0  0  0  0  0  0  0  0
   17.0114   23.3940  -12.7942 H   0  0  0  0  0  0  0  0  0  0  0  0
   13.9490   25.2190  -13.8230 H   0  0  0  0  0  0  0  0  0  0  0  0
   13.7336   24.0717  -15.5935 H   0  0  0  0  0  0  0  0  0  0  0  0
   15.1017   23.0077  -16.0835 H   0  0  0  0  0  0  0  0  0  0  0  0
   13.1041   22.4828  -13.8376 H   0  0  0  0  0  0  0  0  0  0  0  0
   12.1170   21.9950  -15.6620 H   0  0  0  0  0  0  0  0  0  0  0  0
   17.9470   19.7330   -9.3780 H   0  0  0  0  0  0  0  0  0  0  0  0
   16.9881   19.8729   -6.8081 H   0  0  0  0  0  0  0  0  0  0  0  0
   16.3961   18.2595   -5.0028 H   0  0  0  0  0  0  0  0  0  0  0  0
   15.7070   15.9348   -5.5829 H   0  0  0  0  0  0  0  0  0  0  0  0
   15.6079   15.2307   -7.9715 H   0  0  0  0  0  0  0  0  0  0  0  0
   16.1950   16.8426   -9.7819 H   0  0  0  0  0  0  0  0  0  0  0  0
  1  2  2  0
  2  3  1  0
  3  4  1  0
  4  5  1  0
  5  6  2  0
  6  7  1  0
  7  8  1  1
  7  9  1  0
  9 10  2  0
  9 11  1  0
  7 12  1  0
 12 13  1  0
 13 14  1  0
 13 15  1  0
 15 16  2  0
  2 17  1  0
 17 18  1  0
 18 19  2  0
 19 20  1  0
 20 21  2  0
 21 22  1  0
 22 23  2  0
 15  5  1  0
 23 18  1  0
  3 24  1  0
  3 25  1  0
  4 26  1  0
  4 27  1  0
  6 28  1  0
  8 29  1  0
 12 30  1  0
 12 31  1  0
 13 32  1  1
 14 33  1  0
 17 34  1  0
 19 35  1  0
 20 36  1  0
 21 37  1  0
 22 38  1  0
 23 39  1  0
M  CHG  1  11  -1
M  END
>  <meeko>  (1) 
{"is_sidechain": [false], "free_energy": -5.919, "intermolecular_energy": -7.996, "internal_energy": -0.59}

$$$$
3n86_ligand
     RDKit          3D

 39 40  0  0  0  0  0  0  0  0999 V2000
   18.6440   19.3500   -9.9250 O   0  0  0  0  0  0  0  0  0  0  0  0
   17.4910   19.7360  -10.0790 C   0  0  0  0  0  0  0  0  0  0  0  0
   17.0950   20.7180  -11.1670 C   0  0  0  0  0  0  0  0  0  0  0  0
   15.5910   20.9760  -11.2020 C   0  0  0  0  0  0  0  0  0  0  0  0
   15.1290   21.2500  -12.6050 C   0  0  0  0  0  0  0  0  0  0  0  0
   15.0510   22.4820  -13.1350 C   0  0  0  0  0  0  0  0  0  0  0  0
   14.6910   22.7860  -14.5660 C   0  0  1  0  0  0  0  0  0  0  0  0
   13.3360   23.2880  -14.5410 O   0  0  0  0  0  0  0  0  0  0  0  0
   15.6480   23.9050  -15.1320 C   0  0  0  0  0  0  0  0  0  0  0  0
   15.0120   24.8960  -15.6140 O   0  0  0  0  0  0  0  0  0  0  0  0
   16.8890   23.7060  -15.0270 O   0  0  0  0  0  0  0  0  0  0  0  0
   14.7570   21.5670  -15.4800 C   0  0  0  0  0  0  0  0  0  0  0  0
   14.0830   20.3790  -14.8160 C   0  0  1  0  0  0  0  0  0  0  0  0
   14.1920   19.2290  -15.6620 O   0  0  0  0  0  0  0  0  0  0  0  0
   14.7260   20.0920  -13.4550 C   0  0  0  0  0  0  0  0  0  0  0  0
   14.8720   18.9320  -13.0570 O   0  0  0  0  0  0  0  0  0  0  0  0
   16.3890   19.3670   -9.3200 N   0  0  0  0  0  0  0  0  0  0  0  0
   16.3520   18.4870   -8.2200 C   0  0  0  0  0  0  0  0  0  0  0  0
   16.7200   19.0080   -6.9720 C   0  0  0  0  0  0  0  0  0  0  0  0
   16.7090   18.2020   -5.8300 C   0  0  0  0  0  0  0  0  0  0  0  0
   16.3330   16.8660   -5.9250 C   0  0  0  0  0  0  0  0  0  0  0  0
   15.9660   16.3390   -7.1600 C   0  0  0  0  0  0  0  0  0  0  0  0
   15.9750   17.1460   -8.3040 C   0  0  0  0  0  0  0  0  0  0  0  0
   17.6125   21.6718  -10.9868 H   0  0  0  0  0  0  0  0  0  0  0  0
   17.3815   20.2790  -12.1341 H   0  0  0  0  0  0  0  0  0  0  0  0
   15.0643   20.0911  -10.8152 H   0  0  0  0  0  0  0  0  0  0  0  0
   15.3697   21.8558  -10.5799 H   0  0  0  0  0  0  0  0  0  0  0  0
   15.2665   23.3340  -12.4735 H   0  0  0  0  0  0  0  0  0  0  0  0
   12.9000   22.7110  -15.2190 H   0  0  0  0  0  0  0  0  0  0  0  0
   14.2443   21.7938  -16.4264 H   0  0  0  0  0  0  0  0  0  0  0  0
   15.8111   21.3200  -15.6748 H   0  0  0  0  0  0  0  0  0  0  0  0
   13.0202   20.6145  -14.6578 H   0  0  0  0  0  0  0  0  0  0  0  0
   14.3660   19.5860  -16.5540 H   0  0  0  0  0  0  0  0  0  0  0  0
   15.5030   19.7710   -9.5970 H   0  0  0  0  0  0  0  0  0  0  0  0
   17.0208   20.0629   -6.8903 H   0  0  0  0  0  0  0  0  0  0  0  0
   16.9977   18.6242   -4.8561 H   0  0  0  0  0  0  0  0  0  0  0  0
   16.3257   16.2290   -5.0283 H   0  0  0  0  0  0  0  0  0  0  0  0
   15.6674   15.2831   -7.2375 H   0  0  0  0  0  0  0  0  0  0  0  0
   15.6830   16.7203   -9.2753 H   0  0  0  0  0  0  0  0  0  0  0  0
  1  2  2  0
  2  3  1  0
  3  4  1  0
  4  5  1  0
  5  6  2  0
  6  7  1  0
  7  8  1  1
  7  9  1  0
  9 10  2  0
  9 11  1  0
  7 12  1  0
 12 13  1  0
 13 14  1  0
 13 15  1  0
 15 16  2  0
  2 17  1  0
 17 18  1  0
 18 19  2  0
 19 20  1  0
 20 21  2  0
 21 22  1  0
 22 23  2  0
 15  5  1  0
 23 18  1  0
  3 24  1  0
  3 25  1  0
  4 26  1  0
  4 27  1  0
  6 28  1  0
  8 29  1  0
 12 30  1  0
 12 31  1  0
 13 32  1  1
 14 33  1  0
 17 34  1  0
 19 35  1  0
 20 36  1  0
 21 37  1  0
 22 38  1  0
 23 39  1  0
M  CHG  1  11  -1
M  END
>  <meeko>  (2) 
{"is_sidechain": [false], "free_energy": -5.774, "intermolecular_energy": -7.755, "internal_energy": -0.634}

$$$$
3n86_ligand
     RDKit          3D

 39 40  0  0  0  0  0  0  0  0999 V2000
   15.2290   20.1480   -9.7220 O   0  0  0  0  0  0  0  0  0  0  0  0
   16.4040   19.8820   -9.9440 C   0  0  0  0  0  0  0  0  0  0  0  0
   17.2370   20.6430  -10.9610 C   0  0  0  0  0  0  0  0  0  0  0  0
   16.3990   21.5980  -11.8060 C   0  0  0  0  0  0  0  0  0  0  0  0
   15.8910   20.9120  -13.0420 C   0  0  0  0  0  0  0  0  0  0  0  0
   16.3040   19.6960  -13.4410 C   0  0  0  0  0  0  0  0  0  0  0  0
   15.7440   18.9360  -14.6130 C   0  0  1  0  0  0  0  0  0  0  0  0
   16.7330   19.0310  -15.6630 O   0  0  0  0  0  0  0  0  0  0  0  0
   15.5460   17.4200  -14.2240 C   0  0  0  0  0  0  0  0  0  0  0  0
   15.3200   16.6790  -15.2330 O   0  0  0  0  0  0  0  0  0  0  0  0
   15.6520   17.1230  -13.0020 O   0  0  0  0  0  0  0  0  0  0  0  0
   14.4190   19.4950  -15.1220 C   0  0  0  0  0  0  0  0  0  0  0  0
   14.4960   21.0070  -15.2290 C   0  0  1  0  0  0  0  0  0  0  0  0
   13.2330   21.5240  -15.6620 O   0  0  0  0  0  0  0  0  0  0  0  0
   14.8790   21.6200  -13.8790 C   0  0  0  0  0  0  0  0  0  0  0  0
   14.3890   22.6920  -13.5090 O   0  0  0  0  0  0  0  0  0  0  0  0
   17.1520   18.8810   -9.3410 N   0  0  0  0  0  0  0  0  0  0  0  0
   16.7340   17.9620   -8.3580 C   0  0  0  0  0  0  0  0  0  0  0  0
   16.7160   18.4110   -7.0300 C   0  0  0  0  0  0  0  0  0  0  0  0
   16.3130   17.5620   -5.9950 C   0  0  0  0  0  0  0  0  0  0  0  0
   15.9270   16.2550   -6.2780 C   0  0  0  0  0  0  0  0  0  0  0  0
   15.9420   15.8000   -7.5940 C   0  0  0  0  0  0  0  0  0  0  0  0
   16.3440   16.6500   -8.6310 C   0  0  0  0  0  0  0  0  0  0  0  0
   18.0023   21.2244  -10.4259 H   0  0  0  0  0  0  0  0  0  0  0  0
   17.6903   19.9060  -11.6402 H   0  0  0  0  0  0  0  0  0  0  0  0
   15.5431   21.9493  -11.2111 H   0  0  0  0  0  0  0  0  0  0  0  0
   17.0298   22.4469  -12.1083 H   0  0  0  0  0  0  0  0  0  0  0  0
   17.1129   19.2205  -12.8669 H   0  0  0  0  0  0  0  0  0  0  0  0
   16.5950   18.1740  -16.1420 H   0  0  0  0  0  0  0  0  0  0  0  0
   14.2024   19.0709  -16.1136 H   0  0  0  0  0  0  0  0  0  0  0  0
   13.6199   19.2248  -14.4160 H   0  0  0  0  0  0  0  0  0  0  0  0
   15.2692   21.2729  -15.9648 H   0  0  0  0  0  0  0  0  0  0  0  0
   12.9890   22.1910  -14.9910 H   0  0  0  0  0  0  0  0  0  0  0  0
   18.1190   18.8110   -9.6340 H   0  0  0  0  0  0  0  0  0  0  0  0
   17.0222   19.4422   -6.8000 H   0  0  0  0  0  0  0  0  0  0  0  0
   16.3010   17.9268   -4.9573 H   0  0  0  0  0  0  0  0  0  0  0  0
   15.6114   15.5842   -5.4654 H   0  0  0  0  0  0  0  0  0  0  0  0
   15.6365   14.7677   -7.8197 H   0  0  0  0  0  0  0  0  0  0  0  0
   16.3526   16.2816   -9.6675 H   0  0  0  0  0  0  0  0  0  0  0  0
  1  2  2  0
  2  3  1  0
  3  4  1  0
  4  5  1  0
  5  6  2  0
  6  7  1  0
  7  8  1  6
  7  9  1  0
  9 10  2  0
  9 11  1  0
  7 12  1  0
 12 13  1  0
 13 14  1  0
 13 15  1  0
 15 16  2  0
  2 17  1  0
 17 18  1  0
 18 19  2  0
 19 20  1  0
 20 21  2  0
 21 22  1  0
 22 23  2  0
 15  5  1  0
 23 18  1  0
  3 24  1  0
  3 25  1  0
  4 26  1  0
  4 27  1  0
  6 28  1  0
  8 29  1  0
 12 30  1  0
 12 31  1  0
 13 32  1  6
 14 33  1  0
 17 34  1  0
 19 35  1  0
 20 36  1  0
 21 37  1  0
 22 38  1  0
 23 39  1  0
M  CHG  1  11  -1
M  END
>  <meeko>  (3) 
{"is_sidechain": [false], "free_energy": -5.447, "intermolecular_energy": -7.351, "internal_energy": -0.597}

$$$$
3n86_ligand
     RDKit          3D

 39 40  0  0  0  0  0  0  0  0999 V2000
   19.1980   18.5790   -9.8970 O   0  0  0  0  0  0  0  0  0  0  0  0
   18.2690   19.3770   -9.9490 C   0  0  0  0  0  0  0  0  0  0  0  0
   18.3080   20.6220  -10.8170 C   0  0  0  0  0  0  0  0  0  0  0  0
   18.3650   20.2940  -12.3060 C   0  0  0  0  0  0  0  0  0  0  0  0
   17.0080   19.9090  -12.8210 C   0  0  0  0  0  0  0  0  0  0  0  0
   15.9540   20.7430  -12.8370 C   0  0  0  0  0  0  0  0  0  0  0  0
   14.6110   20.4270  -13.4390 C   0  0  1  0  0  0  0  0  0  0  0  0
   13.7220   20.1790  -12.3260 O   0  0  0  0  0  0  0  0  0  0  0  0
   14.0830   21.6690  -14.2560 C   0  0  0  0  0  0  0  0  0  0  0  0
   14.4750   22.7780  -13.7710 O   0  0  0  0  0  0  0  0  0  0  0  0
   13.3770   21.4270  -15.2730 O   0  0  0  0  0  0  0  0  0  0  0  0
   14.6260   19.2030  -14.3490 C   0  0  0  0  0  0  0  0  0  0  0  0
   15.3930   18.0710  -13.6890 C   0  0  1  0  0  0  0  0  0  0  0  0
   15.4420   16.9440  -14.5720 O   0  0  0  0  0  0  0  0  0  0  0  0
   16.8140   18.5220  -13.3360 C   0  0  0  0  0  0  0  0  0  0  0  0
   17.7680   17.7450  -13.4380 O   0  0  0  0  0  0  0  0  0  0  0  0
   17.0720   19.2950   -9.2530 N   0  0  0  0  0  0  0  0  0  0  0  0
   16.6650   18.2980   -8.3450 C   0  0  0  0  0  0  0  0  0  0  0  0
   16.6680   18.6340   -6.9840 C   0  0  0  0  0  0  0  0  0  0  0  0
   16.2780   17.7020   -6.0170 C   0  0  0  0  0  0  0  0  0  0  0  0
   15.8840   16.4240   -6.4020 C   0  0  0  0  0  0  0  0  0  0  0  0
   15.8780   16.0800   -7.7520 C   0  0  0  0  0  0  0  0  0  0  0  0
   16.2670   17.0140   -8.7200 C   0  0  0  0  0  0  0  0  0  0  0  0
   17.4039   21.2172  -10.6211 H   0  0  0  0  0  0  0  0  0  0  0  0
   19.2216   21.1790  -10.5620 H   0  0  0  0  0  0  0  0  0  0  0  0
   18.7220   21.1771  -12.8561 H   0  0  0  0  0  0  0  0  0  0  0  0
   19.0509   19.4468  -12.4538 H   0  0  0  0  0  0  0  0  0  0  0  0
   16.0828   21.7327  -12.3745 H   0  0  0  0  0  0  0  0  0  0  0  0
   14.0810   20.8010  -11.6440 H   0  0  0  0  0  0  0  0  0  0  0  0
   13.5923   18.8791  -14.5400 H   0  0  0  0  0  0  0  0  0  0  0  0
   15.1175   19.4657  -15.2974 H   0  0  0  0  0  0  0  0  0  0  0  0
   14.8767   17.7846  -12.7609 H   0  0  0  0  0  0  0  0  0  0  0  0
   16.0660   16.3210  -14.1530 H   0  0  0  0  0  0  0  0  0  0  0  0
   16.4050   20.0360   -9.4280 H   0  0  0  0  0  0  0  0  0  0  0  0
   16.9806   19.6418   -6.6732 H   0  0  0  0  0  0  0  0  0  0  0  0
   16.2827   17.9790   -4.9525 H   0  0  0  0  0  0  0  0  0  0  0  0
   15.5785   15.6884   -5.6434 H   0  0  0  0  0  0  0  0  0  0  0  0
   15.5664   15.0706   -8.0587 H   0  0  0  0  0  0  0  0  0  0  0  0
   16.2588   16.7337   -9.7836 H   0  0  0  0  0  0  0  0  0  0  0  0
  1  2  2  0
  2  3  1  0
  3  4  1  0
  4  5  1  0
  5  6  2  0
  6  7  1  0
  7  8  1  1
  7  9  1  0
  9 10  2  0
  9 11  1  0
  7 12  1  0
 12 13  1  0
 13 14  1  0
 13 15  1  0
 15 16  2  0
  2 17  1  0
 17 18  1  0
 18 19  2  0
 19 20  1  0
 20 21  2  0
 21 22  1  0
 22 23  2  0
 15  5  1  0
 23 18  1  0
  3 24  1  0
  3 25  1  0
  4 26  1  0
  4 27  1  0
  6 28  1  0
  8 29  1  0
 12 30  1  0
 12 31  1  0
 13 32  1  1
 14 33  1  0
 17 34  1  0
 19 35  1  0
 20 36  1  0
 21 37  1  0
 22 38  1  0
 23 39  1  0
M  CHG  1  11  -1
M  END
>  <meeko>  (4) 
{"is_sidechain": [false], "free_energy": -5.314, "intermolecular_energy": -6.934, "internal_energy": -0.834}

$$$$
3n86_ligand
     RDKit          3D

 39 40  0  0  0  0  0  0  0  0999 V2000
   17.9480   17.4800  -11.9390 O   0  0  0  0  0  0  0  0  0  0  0  0
   16.7310   17.4740  -12.0860 C   0  0  0  0  0  0  0  0  0  0  0  0
   16.0720   17.3560  -13.4490 C   0  0  0  0  0  0  0  0  0  0  0  0
   16.6760   18.3110  -14.4750 C   0  0  0  0  0  0  0  0  0  0  0  0
   16.0660   19.6780  -14.3560 C   0  0  0  0  0  0  0  0  0  0  0  0
   16.6640   20.7080  -13.7310 C   0  0  0  0  0  0  0  0  0  0  0  0
   16.1310   22.1150  -13.6820 C   0  0  1  0  0  0  0  0  0  0  0  0
   15.6090   22.3000  -12.3460 O   0  0  0  0  0  0  0  0  0  0  0  0
   17.3050   23.1410  -13.9260 C   0  0  0  0  0  0  0  0  0  0  0  0
   16.8850   24.2950  -14.2600 O   0  0  0  0  0  0  0  0  0  0  0  0
   18.4810   22.7200  -13.7470 O   0  0  0  0  0  0  0  0  0  0  0  0
   15.0210   22.3800  -14.6940 C   0  0  0  0  0  0  0  0  0  0  0  0
   14.0180   21.2400  -14.6790 C   0  0  1  0  0  0  0  0  0  0  0  0
   13.0070   21.4760  -15.6650 O   0  0  0  0  0  0  0  0  0  0  0  0
   14.7190   19.9070  -14.9550 C   0  0  0  0  0  0  0  0  0  0  0  0
   14.1670   19.0290  -15.6260 O   0  0  0  0  0  0  0  0  0  0  0  0
   15.7790   17.5730  -11.0820 N   0  0  0  0  0  0  0  0  0  0  0  0
   15.9940   17.7060   -9.6960 C   0  0  0  0  0  0  0  0  0  0  0  0
   16.2120   19.0000   -9.2040 C   0  0  0  0  0  0  0  0  0  0  0  0
   16.4330   19.2190   -7.8410 C   0  0  0  0  0  0  0  0  0  0  0  0
   16.4390   18.1450   -6.9570 C   0  0  0  0  0  0  0  0  0  0  0  0
   16.2230   16.8550   -7.4350 C   0  0  0  0  0  0  0  0  0  0  0  0
   16.0010   16.6360   -8.8000 C   0  0  0  0  0  0  0  0  0  0  0  0
   16.1945   16.3249  -13.8119 H   0  0  0  0  0  0  0  0  0  0  0  0
   15.0107   17.6199  -13.3310 H   0  0  0  0  0  0  0  0  0  0  0  0
   17.7603   18.3840  -14.3050 H   0  0  0  0  0  0  0  0  0  0  0  0
   16.4716   17.9205  -15.4828 H   0  0  0  0  0  0  0  0  0  0  0  0
   17.6152   20.5069  -13.2164 H   0  0  0  0  0  0  0  0  0  0  0  0
   14.6700   22.0020  -12.4590 H   0  0  0  0  0  0  0  0  0  0  0  0
   14.5090   23.3185  -14.4350 H   0  0  0  0  0  0  0  0  0  0  0  0
   15.4614   22.4589  -15.6989 H   0  0  0  0  0  0  0  0  0  0  0  0
   13.5513   21.1891  -13.6842 H   0  0  0  0  0  0  0  0  0  0  0  0
   12.3770   22.0900  -15.2400 H   0  0  0  0  0  0  0  0  0  0  0  0
   14.8120   17.5350  -11.3810 H   0  0  0  0  0  0  0  0  0  0  0  0
   16.2092   19.8532   -9.8983 H   0  0  0  0  0  0  0  0  0  0  0  0
   16.6020   20.2399   -7.4679 H   0  0  0  0  0  0  0  0  0  0  0  0
   16.6137   18.3141   -5.8842 H   0  0  0  0  0  0  0  0  0  0  0  0
   16.2268   16.0046   -6.7373 H   0  0  0  0  0  0  0  0  0  0  0  0
   15.8310   15.6137   -9.1687 H   0  0  0  0  0  0  0  0  0  0  0  0
  1  2  2  0
  2  3  1  0
  3  4  1  0
  4  5  1  0
  5  6  2  0
  6  7  1  0
  7  8  1  1
  7  9  1  0
  9 10  2  0
  9 11  1  0
  7 12  1  0
 12 13  1  0
 13 14  1  0
 13 15  1  0
 15 16  2  0
  2 17  1  0
 17 18  1  0
 18 19  2  0
 19 20  1  0
 20 21  2  0
 21 22  1  0
 22 23  2  0
 15  5  1  0
 23 18  1  0
  3 24  1  0
  3 25  1  0
  4 26  1  0
  4 27  1  0
  6 28  1  0
  8 29  1  0
 12 30  1  0
 12 31  1  0
 13 32  1  1
 14 33  1  0
 17 34  1  0
 19 35  1  0
 20 36  1  0
 21 37  1  0
 22 38  1  0
 23 39  1  0
M  CHG  1  11  -1
M  END
>  <meeko>  (5) 
{"is_sidechain": [false], "free_energy": -5.294, "intermolecular_energy": -7.029, "internal_energy": -0.711}

$$$$
3n86_ligand
     RDKit          3D

 39 40  0  0  0  0  0  0  0  0999 V2000
   14.2420   20.4350  -15.1680 O   0  0  0  0  0  0  0  0  0  0  0  0
   14.3810   20.6230  -13.9650 C   0  0  0  0  0  0  0  0  0  0  0  0
   14.0850   19.5520  -12.9300 C   0  0  0  0  0  0  0  0  0  0  0  0
   15.2390   18.5700  -12.7580 C   0  0  0  0  0  0  0  0  0  0  0  0
   16.0410   18.8970  -11.5310 C   0  0  0  0  0  0  0  0  0  0  0  0
   15.7560   18.4180  -10.3070 C   0  0  0  0  0  0  0  0  0  0  0  0
   16.5940   18.6410   -9.0760 C   0  0  1  0  0  0  0  0  0  0  0  0
   15.8840   19.6150   -8.2780 O   0  0  0  0  0  0  0  0  0  0  0  0
   16.7180   17.2950   -8.2620 C   0  0  0  0  0  0  0  0  0  0  0  0
   17.6670   16.5560   -8.6780 O   0  0  0  0  0  0  0  0  0  0  0  0
   15.9060   17.1220   -7.3130 O   0  0  0  0  0  0  0  0  0  0  0  0
   17.9920   19.1680   -9.3810 C   0  0  0  0  0  0  0  0  0  0  0  0
   17.9170   20.2900  -10.4010 C   0  0  1  0  0  0  0  0  0  0  0  0
   19.2380   20.7450  -10.7150 O   0  0  0  0  0  0  0  0  0  0  0  0
   17.2120   19.8110  -11.6730 C   0  0  0  0  0  0  0  0  0  0  0  0
   17.5800   20.2000  -12.7860 O   0  0  0  0  0  0  0  0  0  0  0  0
   14.8090   21.7940  -13.3570 N   0  0  0  0  0  0  0  0  0  0  0  0
   15.1690   23.0080  -13.9750 C   0  0  0  0  0  0  0  0  0  0  0  0
   14.1300   23.7970  -14.4870 C   0  0  0  0  0  0  0  0  0  0  0  0
   14.4010   25.0170  -15.1150 C   0  0  0  0  0  0  0  0  0  0  0  0
   15.7150   25.4580  -15.2390 C   0  0  0  0  0  0  0  0  0  0  0  0
   16.7550   24.6810  -14.7340 C   0  0  0  0  0  0  0  0  0  0  0  0
   16.4830   23.4610  -14.1040 C   0  0  0  0  0  0  0  0  0  0  0  0
   13.8902   20.0399  -11.9636 H   0  0  0  0  0  0  0  0  0  0  0  0
   13.2112   18.9824  -13.2795 H   0  0  0  0  0  0  0  0  0  0  0  0
   14.8344   17.5515  -12.6632 H   0  0  0  0  0  0  0  0  0  0  0  0
   15.8960   18.6415  -13.6373 H   0  0  0  0  0  0  0  0  0  0  0  0
   14.8410   17.8175  -10.1968 H   0  0  0  0  0  0  0  0  0  0  0  0
   14.9710   19.5550   -8.6600 H   0  0  0  0  0  0  0  0  0  0  0  0
   18.4472   19.5485   -8.4547 H   0  0  0  0  0  0  0  0  0  0  0  0
   18.6030   18.3501   -9.7905 H   0  0  0  0  0  0  0  0  0  0  0  0
   17.3378   21.1214   -9.9728 H   0  0  0  0  0  0  0  0  0  0  0  0
   19.6520   20.9380   -9.8510 H   0  0  0  0  0  0  0  0  0  0  0  0
   14.8820   21.7700  -12.3480 H   0  0  0  0  0  0  0  0  0  0  0  0
   13.0894   23.4528  -14.3939 H   0  0  0  0  0  0  0  0  0  0  0  0
   13.5759   25.6275  -15.5106 H   0  0  0  0  0  0  0  0  0  0  0  0
   15.9315   26.4163  -15.7338 H   0  0  0  0  0  0  0  0  0  0  0  0
   17.7945   25.0276  -14.8307 H   0  0  0  0  0  0  0  0  0  0  0  0
   17.3109   22.8547  -13.7076 H   0  0  0  0  0  0  0  0  0  0  0  0
  1  2  2  0
  2  3  1  0
  3  4  1  0
  4  5  1  0
  5  6  2  0
  6  7  1  0
  7  8  1  1
  7  9  1  0
  9 10  2  0
  9 11  1  0
  7 12  1  0
 12 13  1  0
 13 14  1  0
 13 15  1  0
 15 16  2  0
  2 17  1  0
 17 18  1  0
 18 19  2  0
 19 20  1  0
 20 21  2  0
 21 22  1  0
 22 23  2  0
 15  5  1  0
 23 18  1  0
  3 24  1  0
  3 25  1  0
  4 26  1  0
  4 27  1  0
  6 28  1  0
  8 29  1  0
 12 30  1  0
 12 31  1  0
 13 32  1  1
 14 33  1  0
 17 34  1  0
 19 35  1  0
 20 36  1  0
 21 37  1  0
 22 38  1  0
 23 39  1  0
M  CHG  1  11  -1
M  END
>  <meeko>  (6) 
{"is_sidechain": [false], "free_energy": -5.273, "intermolecular_energy": -6.786, "internal_energy": -0.927}

$$$$
3n86_ligand
     RDKit          3D

 39 40  0  0  0  0  0  0  0  0999 V2000
   19.6030   19.6770   -5.4100 O   0  0  0  0  0  0  0  0  0  0  0  0
   18.6350   18.9560   -5.6210 C   0  0  0  0  0  0  0  0  0  0  0  0
   18.2090   18.5490   -7.0210 C   0  0  0  0  0  0  0  0  0  0  0  0
   16.6950   18.4100   -7.1530 C   0  0  0  0  0  0  0  0  0  0  0  0
   16.2760   18.4830   -8.5940 C   0  0  0  0  0  0  0  0  0  0  0  0
   16.0050   19.6350   -9.2320 C   0  0  0  0  0  0  0  0  0  0  0  0
   15.6830   19.7560  -10.6980 C   0  0  1  0  0  0  0  0  0  0  0  0
   14.2590   19.9940  -10.7770 O   0  0  0  0  0  0  0  0  0  0  0  0
   16.4500   20.9880  -11.3150 C   0  0  0  0  0  0  0  0  0  0  0  0
   15.6780   21.7820  -11.9420 O   0  0  0  0  0  0  0  0  0  0  0  0
   17.6920   21.0540  -11.1050 O   0  0  0  0  0  0  0  0  0  0  0  0
   16.0260   18.5050  -11.4990 C   0  0  0  0  0  0  0  0  0  0  0  0
   15.5440   17.2660  -10.7660 C   0  0  1  0  0  0  0  0  0  0  0  0
   15.9130   16.0950  -11.5040 O   0  0  0  0  0  0  0  0  0  0  0  0
   16.1440   17.2090   -9.3590 C   0  0  0  0  0  0  0  0  0  0  0  0
   16.4760   16.1310   -8.8550 O   0  0  0  0  0  0  0  0  0  0  0  0
   17.7890   18.4100   -4.6670 N   0  0  0  0  0  0  0  0  0  0  0  0
   17.8490   18.5640   -3.2680 C   0  0  0  0  0  0  0  0  0  0  0  0
   16.9450   19.4620   -2.6840 C   0  0  0  0  0  0  0  0  0  0  0  0
   16.9390   19.6720   -1.3020 C   0  0  0  0  0  0  0  0  0  0  0  0
   17.8380   18.9870   -0.4910 C   0  0  0  0  0  0  0  0  0  0  0  0
   18.7400   18.0920   -1.0610 C   0  0  0  0  0  0  0  0  0  0  0  0
   18.7460   17.8810   -2.4440 C   0  0  0  0  0  0  0  0  0  0  0  0
   18.5566   19.3132   -7.7318 H   0  0  0  0  0  0  0  0  0  0  0  0
   18.6551   17.5664   -7.2341 H   0  0  0  0  0  0  0  0  0  0  0  0
   16.3841   17.4409   -6.7357 H   0  0  0  0  0  0  0  0  0  0  0  0
   16.2161   19.2345   -6.6044 H   0  0  0  0  0  0  0  0  0  0  0  0
   16.0196   20.5603   -8.6373 H   0  0  0  0  0  0  0  0  0  0  0  0
   14.0270   20.1230   -9.8220 H   0  0  0  0  0  0  0  0  0  0  0  0
   15.5376   18.5582  -12.4832 H   0  0  0  0  0  0  0  0  0  0  0  0
   17.1172   18.4466  -11.6246 H   0  0  0  0  0  0  0  0  0  0  0  0
   14.4485   17.3097  -10.6767 H   0  0  0  0  0  0  0  0  0  0  0  0
   16.8820   16.1560  -11.6080 H   0  0  0  0  0  0  0  0  0  0  0  0
   17.0440   17.8210   -5.0190 H   0  0  0  0  0  0  0  0  0  0  0  0
   16.2325   20.0075   -3.3202 H   0  0  0  0  0  0  0  0  0  0  0  0
   16.2237   20.3786   -0.8560 H   0  0  0  0  0  0  0  0  0  0  0  0
   17.8364   19.1517    0.5966 H   0  0  0  0  0  0  0  0  0  0  0  0
   19.4508   17.5486   -0.4210 H   0  0  0  0  0  0  0  0  0  0  0  0
   19.4622   17.1723   -2.8853 H   0  0  0  0  0  0  0  0  0  0  0  0
  1  2  2  0
  2  3  1  0
  3  4  1  0
  4  5  1  0
  5  6  2  0
  6  7  1  0
  7  8  1  1
  7  9  1  0
  9 10  2  0
  9 11  1  0
  7 12  1  0
 12 13  1  0
 13 14  1  0
 13 15  1  0
 15 16  2  0
  2 17  1  0
 17 18  1  0
 18 19  2  0
 19 20  1  0
 20 21  2  0
 21 22  1  0
 22 23  2  0
 15  5  1  0
 23 18  1  0
  3 24  1  0
  3 25  1  0
  4 26  1  0
  4 27  1  0
  6 28  1  0
  8 29  1  0
 12 30  1  0
 12 31  1  0
 13 32  1  1
 14 33  1  0
 17 34  1  0
 19 35  1  0
 20 36  1  0
 21 37  1  0
 22 38  1  0
 23 39  1  0
M  CHG  1  11  -1
M  END
>  <meeko>  (7) 
{"is_sidechain": [false], "free_energy": -5.267, "intermolecular_energy": -7.111, "internal_energy": -0.593}

$$$$
