
     RDKit          3D

 21 24  0  0  0  0  0  0  0  0999 V2000
    0.1360   -2.4040    1.1810 O   0  0  0  0  0  0  0  0  0  0  0  0
    0.0090   -1.0660    1.6080 C   0  0  2  0  0  0  0  0  0  0  0  0
   -0.3290   -0.2200    0.3910 C   0  0  0  0  0  0  0  0  0  0  0  0
   -1.6150   -0.1750   -0.1480 C   0  0  0  0  0  0  0  0  0  0  0  0
   -1.8980    0.5790   -1.3010 C   0  0  0  0  0  0  0  0  0  0  0  0
   -0.8980    1.3090   -1.9450 C   0  0  0  0  0  0  0  0  0  0  0  0
   -1.1610    2.0840   -3.1740 C   0  0  0  0  0  0  0  0  0  0  0  0
   -0.1370    2.3380   -4.0860 C   0  0  0  0  0  0  0  0  0  0  0  0
   -0.3610    3.0800   -5.2460 C   0  0  0  0  0  0  0  0  0  0  0  0
   -1.6430    3.5780   -5.5270 C   0  0  0  0  0  0  0  0  0  0  0  0
   -2.6820    3.3260   -4.6320 C   0  0  0  0  0  0  0  0  0  0  0  0
   -2.4330    2.5800   -3.4650 C   0  0  0  0  0  0  0  0  0  0  0  0
    0.3820    1.2690   -1.3920 C   0  0  0  0  0  0  0  0  0  0  0  0
    0.6500    0.5150   -0.2410 C   0  0  0  0  0  0  0  0  0  0  0  0
    1.3390   -0.6520    2.3010 C   0  0  0  0  0  0  0  0  0  0  0  0
    1.2800   -0.6320    3.7930 N   0  0  0  0  0  0  0  0  0  0  0  0
    0.3660    0.4890    4.1130 C   0  0  0  0  0  0  0  0  0  0  0  0
   -0.9830    0.3460    3.4360 C   0  0  0  0  0  0  0  0  0  0  0  0
   -1.0490   -0.9910    2.7220 C   0  0  2  0  0  0  0  0  0  0  0  0
   -0.7190   -2.0970    3.7570 C   0  0  0  0  0  0  0  0  0  0  0  0
    0.7150   -1.9060    4.2530 C   0  0  0  0  0  0  0  0  0  0  0  0
  2  1  1  6
  3  2  1  0
  4  3  2  0
  5  4  1  0
  6  5  2  0
  7  6  1  0
  8  7  2  0
  9  8  1  0
 10  9  2  0
 11 10  1  0
 12 11  2  0
 12  7  1  0
 13  6  1  0
 14 13  2  0
 14  3  1  0
 15  2  1  0
 16 15  1  0
 17 16  1  0
 18 17  1  0
 19 18  1  1
 19  2  1  0
 20 19  1  0
 21 20  1  0
 21 16  1  0
M  CHG  1  16   1
M  END
$$$$
