
     RDKit          3D

 36 39  0  0  0  0  0  0  0  0999 V2000
  -13.5650  -10.1210   -0.3950 O   0  0  0  0  0  0  0  0  0  0  0  0
  -14.6800   -9.6840   -0.7050 C   0  0  0  0  0  0  0  0  0  0  0  0
  -14.8780   -8.3670   -1.0440 N   0  0  0  0  0  0  0  0  0  0  0  0
  -14.0190   -7.2810   -0.8890 C   0  0  0  0  0  0  0  0  0  0  0  0
  -12.8030   -7.3780   -0.1720 C   0  0  0  0  0  0  0  0  0  0  0  0
  -12.0230   -6.2460    0.0420 C   0  0  0  0  0  0  0  0  0  0  0  0
  -12.4990   -5.0220   -0.4750 C   0  0  0  0  0  0  0  0  0  0  0  0
  -11.5910   -3.4970   -0.1830 Cl  0  0  0  0  0  0  0  0  0  0  0  0
  -13.7060   -4.9750   -1.1880 C   0  0  0  0  0  0  0  0  0  0  0  0
  -14.4400   -6.0840   -1.3760 N   0  0  0  0  0  0  0  0  0  0  0  0
  -15.9110  -10.5850   -0.6840 C   0  0  1  0  0  0  0  0  0  0  0  0
  -16.3260  -11.1170   -2.0180 C   0  0  0  0  0  0  0  0  0  0  0  0
  -17.1520  -12.2310   -1.6770 N   0  0  0  0  0  0  0  0  0  0  0  0
  -17.6360  -13.0990   -2.7290 C   0  0  0  0  0  0  0  0  0  0  0  0
  -16.6600  -13.7340   -3.6760 C   0  0  2  0  0  0  0  0  0  0  0  0
  -15.8090  -14.5460   -3.0410 F   0  0  0  0  0  0  0  0  0  0  0  0
  -15.9390  -12.8020   -4.3180 F   0  0  0  0  0  0  0  0  0  0  0  0
  -16.5340  -12.8880   -0.5110 C   0  0  0  0  0  0  0  0  0  0  0  0
  -15.6650  -11.8260    0.1710 C   0  0  2  0  0  0  0  0  0  0  0  0
  -15.9150  -11.7130    1.6900 C   0  0  0  0  0  0  0  0  0  0  0  0
  -15.6950  -12.6420    2.4500 O   0  0  0  0  0  0  0  0  0  0  0  0
  -16.3880  -10.5780    2.2740 N   0  0  0  0  0  0  0  0  0  0  0  0
  -16.5530  -10.3140    3.6720 C   0  0  0  0  0  0  0  0  0  0  0  0
  -15.5220  -10.5390    4.6260 C   0  0  0  0  0  0  0  0  0  0  0  0
  -15.7300  -10.2450    5.9950 C   0  0  0  0  0  0  0  0  0  0  0  0
  -16.9520   -9.7260    6.4420 C   0  0  0  0  0  0  0  0  0  0  0  0
  -17.1530   -9.4230    7.8310 N   0  0  0  0  0  0  0  0  0  0  0  0
  -16.9730   -8.1050    8.2480 C   0  0  0  0  0  0  0  0  0  0  0  0
  -17.1370   -7.7350    9.5780 C   0  0  0  0  0  0  0  0  0  0  0  0
  -17.4910   -8.7060   10.5240 C   0  0  0  0  0  0  0  0  0  0  0  0
  -17.6850  -10.0460   10.1270 C   0  0  0  0  0  0  0  0  0  0  0  0
  -17.5100  -10.4110    8.7560 C   0  0  0  0  0  0  0  0  0  0  0  0
  -17.6740  -11.6020    8.3620 O   0  0  0  0  0  0  0  0  0  0  0  0
  -17.9790   -9.4960    5.5090 C   0  0  0  0  0  0  0  0  0  0  0  0
  -17.7810   -9.7930    4.1420 C   0  0  0  0  0  0  0  0  0  0  0  0
  -18.7860   -9.5970    3.2560 F   0  0  0  0  0  0  0  0  0  0  0  0
  2  1  2  0
  3  2  1  0
  4  3  1  0
  5  4  2  0
  6  5  1  0
  7  6  2  0
  8  7  1  0
  9  7  1  0
 10  4  1  0
 10  9  2  0
 11  2  1  6
 12 11  1  0
 13 12  1  0
 14 13  1  0
 15 14  1  0
 15 16  1  1
 17 15  1  0
 18 13  1  0
 19 18  1  0
 19 11  1  0
 19 20  1  1
 21 20  2  0
 22 20  1  0
 23 22  1  0
 24 23  2  0
 25 24  1  0
 26 25  2  0
 27 26  1  0
 28 27  1  0
 29 28  2  0
 30 29  1  0
 31 30  2  0
 32 31  1  0
 32 27  1  0
 33 32  2  0
 34 26  1  0
 35 23  1  0
 35 34  2  0
 36 35  1  0
M  END
$$$$
