
     RDKit          3D

 28 29  0  0  0  0  0  0  0  0999 V2000
    8.5130    0.8370   -6.2480 C   0  0  0  0  0  0  0  0  0  0  0  0
    7.3590    1.1780   -5.4680 O   0  0  0  0  0  0  0  0  0  0  0  0
    6.3860    0.2980   -5.3980 C   0  0  0  0  0  0  0  0  0  0  0  0
    6.4320   -0.7810   -5.9680 O   0  0  0  0  0  0  0  0  0  0  0  0
    5.1590    0.6790   -4.6610 C   0  0  0  0  0  0  0  0  0  0  0  0
    3.9210    0.4700   -5.2610 C   0  0  0  0  0  0  0  0  0  0  0  0
    3.8930   -0.0690   -6.4990 O   0  0  0  0  0  0  0  0  0  0  0  0
    2.7440    0.8080   -4.6040 C   0  0  0  0  0  0  0  0  0  0  0  0
    2.7800    1.3520   -3.3300 C   0  0  0  0  0  0  0  0  0  0  0  0
    1.6020    1.6890   -2.7080 O   0  0  0  0  0  0  0  0  0  0  0  0
    3.9960    1.5760   -2.7050 C   0  0  0  0  0  0  0  0  0  0  0  0
    4.0010    2.2290   -1.1020 Cl  0  0  0  0  0  0  0  0  0  0  0  0
    5.1820    1.2570   -3.3580 C   0  0  0  0  0  0  0  0  0  0  0  0
    6.4730    1.5640   -2.6670 C   0  0  0  0  0  0  0  0  0  0  0  0
    6.7580    3.0060   -2.6340 C   0  0  0  0  0  0  0  0  0  0  0  0
    8.0300    3.3060   -1.9380 C   0  0  0  0  0  0  0  0  0  0  0  0
    8.0350    3.7120   -0.7800 O   0  0  0  0  0  0  0  0  0  0  0  0
    9.1070    3.0240   -2.6320 N   0  0  0  0  0  0  0  0  0  0  0  0
   10.1450    3.8670   -2.8660 C   0  0  0  0  0  0  0  0  0  0  0  0
   10.8990    4.3390   -1.8870 C   0  0  0  0  0  0  0  0  0  0  0  0
   12.0090    5.2160   -2.0960 C   0  0  2  0  0  0  0  0  0  0  0  0
   12.0250    6.2860   -1.1880 O   0  0  0  0  0  0  0  0  0  0  0  0
   12.2460    5.6030   -3.4730 C   0  0  0  0  0  0  0  0  0  0  0  0
   13.2780    6.4280   -3.6650 O   0  0  0  0  0  0  0  0  0  0  0  0
   13.5740    6.9180   -4.9670 C   0  0  0  0  0  0  0  0  0  0  0  0
   11.4840    5.1260   -4.4800 C   0  0  0  0  0  0  0  0  0  0  0  0
   10.3870    4.2710   -4.2370 C   0  0  1  0  0  0  0  0  0  0  0  0
    9.9170    3.5010   -5.2430 O   0  0  0  0  0  0  0  0  0  0  0  0
  2  1  1  0
  3  2  1  0
  4  3  2  0
  5  3  1  0
  6  5  2  0
  7  6  1  0
  8  6  1  0
  9  8  2  0
 10  9  1  0
 11  9  1  0
 12 11  1  0
 13 11  2  0
 13  5  1  0
 14 13  1  0
 15 14  1  0
 16 15  1  0
 17 16  2  0
 18 16  1  0
 19 18  1  0
 20 19  2  0
 21 20  1  0
 21 22  1  1
 23 21  1  0
 24 23  1  0
 25 24  1  0
 26 23  2  0
 27 19  1  0
 27 26  1  0
 27 28  1  6
M  END
$$$$
