
     RDKit          3D

 39 43  0  0  0  0  0  0  0  0999 V2000
   -1.2100   -1.8650   -7.3480 O   0  0  0  0  0  0  0  0  0  0  0  0
   -2.3820   -1.5190   -7.5750 C   0  0  0  0  0  0  0  0  0  0  0  0
   -2.7470   -0.0730   -7.4640 C   0  0  0  0  0  0  0  0  0  0  0  0
   -3.9510    0.4500   -7.9600 C   0  0  0  0  0  0  0  0  0  0  0  0
   -4.2480    1.9070   -7.8740 C   0  0  0  0  0  0  0  0  0  0  0  0
   -4.1540    2.5780   -6.6390 C   0  0  0  0  0  0  0  0  0  0  0  0
   -4.3800    3.9560   -6.5600 C   0  0  0  0  0  0  0  0  0  0  0  0
   -4.2750    4.7840   -5.0310 Cl  0  0  0  0  0  0  0  0  0  0  0  0
   -4.7070    4.6820   -7.6970 C   0  0  0  0  0  0  0  0  0  0  0  0
   -4.8230    4.0250   -8.9220 C   0  0  0  0  0  0  0  0  0  0  0  0
   -4.6170    2.6420   -9.0280 C   0  0  0  0  0  0  0  0  0  0  0  0
   -4.7980    2.0120  -10.2500 N   0  0  0  0  0  0  0  0  0  0  0  0
   -5.9200    2.0250  -11.0140 C   0  0  0  0  0  0  0  0  0  0  0  0
   -5.6640    1.2820  -12.0950 N   0  0  0  0  0  0  0  0  0  0  0  0
   -4.4050    0.8200  -11.9770 N   0  0  0  0  0  0  0  0  0  0  0  0
   -3.8790    1.2650  -10.8470 N   0  0  0  0  0  0  0  0  0  0  0  0
   -3.3120   -2.4540   -7.9130 N   0  0  0  0  0  0  0  0  0  0  0  0
   -2.9580   -3.8730   -7.9440 C   0  0  1  0  0  0  0  0  0  0  0  0
   -4.2020   -4.7700   -7.8790 C   0  0  0  0  0  0  0  0  0  0  0  0
   -3.7260   -6.2010   -7.6990 C   0  0  0  0  0  0  0  0  0  0  0  0
   -3.9600   -7.1360   -8.7080 C   0  0  0  0  0  0  0  0  0  0  0  0
   -3.5140   -8.4420   -8.5480 C   0  0  0  0  0  0  0  0  0  0  0  0
   -2.8180   -8.8190   -7.3750 C   0  0  0  0  0  0  0  0  0  0  0  0
   -2.5850   -7.8610   -6.3820 C   0  0  0  0  0  0  0  0  0  0  0  0
   -3.0360   -6.5590   -6.5390 C   0  0  0  0  0  0  0  0  0  0  0  0
   -2.1690   -4.2390   -9.1630 C   0  0  0  0  0  0  0  0  0  0  0  0
   -2.5430   -3.9680  -10.2730 O   0  0  0  0  0  0  0  0  0  0  0  0
   -1.0210   -4.9330   -8.8740 N   0  0  0  0  0  0  0  0  0  0  0  0
   -0.0530   -5.4280   -9.7380 C   0  0  0  0  0  0  0  0  0  0  0  0
    1.0020   -6.1530   -9.1900 C   0  0  0  0  0  0  0  0  0  0  0  0
    2.0050   -6.6640   -9.9920 C   0  0  0  0  0  0  0  0  0  0  0  0
    1.9820   -6.4810  -11.3840 C   0  0  0  0  0  0  0  0  0  0  0  0
    3.0460   -7.0220  -12.2080 C   0  0  0  0  0  0  0  0  0  0  0  0
    3.2910   -6.6580  -13.4900 N   0  0  0  0  0  0  0  0  0  0  0  0
    4.3630   -7.3690  -13.8760 N   0  0  0  0  0  0  0  0  0  0  0  0
    4.7550   -8.1470  -12.8500 N   0  0  0  0  0  0  0  0  0  0  0  0
    3.9500   -7.9380  -11.8050 N   0  0  0  0  0  0  0  0  0  0  0  0
    0.9200   -5.7530  -11.9440 C   0  0  0  0  0  0  0  0  0  0  0  0
   -0.0940   -5.2360  -11.1300 C   0  0  0  0  0  0  0  0  0  0  0  0
  2  1  2  0
  3  2  1  0
  4  3  2  3
  5  4  1  0
  6  5  2  0
  7  6  1  0
  8  7  1  0
  9  7  2  0
 10  9  1  0
 11 10  2  0
 11  5  1  0
 12 11  1  0
 13 12  1  0
 14 13  2  0
 15 14  1  0
 16 15  2  0
 16 12  1  0
 17  2  1  0
 18 17  1  0
 18 19  1  6
 20 19  1  0
 21 20  2  0
 22 21  1  0
 23 22  2  0
 24 23  1  0
 25 24  2  0
 25 20  1  0
 26 18  1  0
 27 26  2  0
 28 26  1  0
 29 28  1  0
 30 29  2  0
 31 30  1  0
 32 31  2  0
 33 32  1  0
 34 33  2  0
 35 34  1  0
 36 35  1  0
 37 36  2  0
 37 33  1  0
 38 32  1  0
 39 38  2  0
 39 29  1  0
M  END
$$$$
