
     RDKit          3D

 18 20  0  0  0  0  0  0  0  0999 V2000
    1.8740   -1.5690   -2.5400 O   0  0  0  0  0  0  0  0  0  0  0  0
    2.1530   -2.6230   -3.1660 C   0  0  0  0  0  0  0  0  0  0  0  0
    1.7040   -2.8120   -4.4860 C   0  0  0  0  0  0  0  0  0  0  0  0
    2.0250   -3.9610   -5.1820 C   0  0  0  0  0  0  0  0  0  0  0  0
    1.5760   -4.2250   -6.5620 C   0  0  0  0  0  0  0  0  0  0  0  0
    0.6320   -3.4180   -7.1920 C   0  0  0  0  0  0  0  0  0  0  0  0
    0.2050   -3.6980   -8.4820 C   0  0  0  0  0  0  0  0  0  0  0  0
    0.7400   -4.7900   -9.1330 C   0  0  0  0  0  0  0  0  0  0  0  0
    0.1770   -5.1820  -10.9190 Br  0  0  0  0  0  0  0  0  0  0  0  0
    1.6700   -5.5990   -8.5140 C   0  0  0  0  0  0  0  0  0  0  0  0
    2.0810   -5.3120   -7.2450 C   0  0  0  0  0  0  0  0  0  0  0  0
    2.7830   -4.9420   -4.6050 O   0  0  0  0  0  0  0  0  0  0  0  0
    3.2380   -4.8130   -3.3310 C   0  0  0  0  0  0  0  0  0  0  0  0
    4.0010   -5.8470   -2.7840 C   0  0  0  0  0  0  0  0  0  0  0  0
    4.4640   -5.7410   -1.4770 C   0  0  0  0  0  0  0  0  0  0  0  0
    4.1650   -4.6130   -0.7110 C   0  0  0  0  0  0  0  0  0  0  0  0
    3.4130   -3.5920   -1.2460 C   0  0  0  0  0  0  0  0  0  0  0  0
    2.9360   -3.6690   -2.5730 C   0  0  0  0  0  0  0  0  0  0  0  0
  2  1  2  0
  3  2  1  0
  4  3  2  0
  5  4  1  0
  6  5  2  0
  7  6  1  0
  8  7  2  0
  9  8  1  0
 10  8  1  0
 11 10  2  0
 11  5  1  0
 12  4  1  0
 13 12  1  0
 14 13  2  0
 15 14  1  0
 16 15  2  0
 17 16  1  0
 18 17  2  0
 18 13  1  0
 18  2  1  0
M  END
$$$$
