
     RDKit          3D

 13 14  0  0  0  0  0  0  0  0999 V2000
    0.8160    2.9530   -4.7220 C   0  0  0  0  0  0  0  0  0  0  0  0
    0.7470    1.8050   -5.7410 C   0  0  0  0  0  0  0  0  0  0  0  0
   -0.4460    1.1220   -5.9510 C   0  0  0  0  0  0  0  0  0  0  0  0
   -0.5210    0.0870   -6.8800 C   0  0  0  0  0  0  0  0  0  0  0  0
    0.6000   -0.2930   -7.6240 C   0  0  0  0  0  0  0  0  0  0  0  0
    1.8270    0.3750   -7.4340 C   0  0  0  0  0  0  0  0  0  0  0  0
    3.0290    0.0180   -8.1730 C   0  0  0  0  0  0  0  0  0  0  0  0
    3.0390   -0.8890   -9.0270 O   0  0  0  0  0  0  0  0  0  0  0  0
    4.1810    0.7250   -7.9180 N   0  0  0  0  0  0  0  0  0  0  0  0
    4.2120    1.7310   -7.0010 C   0  0  0  0  0  0  0  0  0  0  0  0
    5.3860    2.3920   -6.7820 N   0  0  0  0  0  0  0  0  0  0  0  0
    3.1220    2.0890   -6.2850 N   0  0  0  0  0  0  0  0  0  0  0  0
    1.9180    1.4380   -6.4800 C   0  0  0  0  0  0  0  0  0  0  0  0
  2  1  1  0
  3  2  2  0
  4  3  1  0
  5  4  2  0
  6  5  1  0
  7  6  1  0
  8  7  2  0
  9  7  1  0
 10  9  1  0
 11 10  1  0
 12 10  2  0
 13 12  1  0
 13  6  2  0
 13  2  1  0
M  END
$$$$
