
     RDKit          3D

 22 24  0  0  0  0  0  0  0  0999 V2000
   -8.0630   -6.2520    2.9110 C   0  0  0  0  0  0  0  0  0  0  0  0
   -9.1920   -5.3250    3.3120 C   0  0  0  0  0  0  0  0  0  0  0  0
   -9.4590   -5.2580    4.7020 C   0  0  0  0  0  0  0  0  0  0  0  0
  -10.4780   -4.5070    5.2210 N   0  0  0  0  0  0  0  0  0  0  0  0
  -11.2810   -3.8060    4.4140 C   0  0  0  0  0  0  0  0  0  0  0  0
  -11.1080   -3.7990    2.9880 C   0  0  0  0  0  0  0  0  0  0  0  0
  -12.0220   -3.0510    2.1820 C   0  0  0  0  0  0  0  0  0  0  0  0
  -11.8850   -3.0170    0.8080 C   0  0  0  0  0  0  0  0  0  0  0  0
  -10.8180   -3.6970    0.1840 C   0  0  0  0  0  0  0  0  0  0  0  0
   -9.8780   -4.4210    0.8900 C   0  0  0  0  0  0  0  0  0  0  0  0
   -8.5220   -5.0660   -0.0500 S   0  0  1  0  0  0  0  0  0  0  0  0
   -7.2860   -4.6570    0.5690 O   0  0  0  0  0  0  0  0  0  0  0  0
   -8.6430   -6.4740   -0.2060 O   0  0  0  0  0  0  0  0  0  0  0  0
   -8.5690   -4.3200   -1.5640 N   0  0  0  0  0  0  0  0  0  0  0  0
   -8.0010   -2.9620   -1.6180 C   0  0  0  0  0  0  0  0  0  0  0  0
   -6.4900   -2.9620   -2.0130 C   0  0  0  0  0  0  0  0  0  0  0  0
   -6.3460   -3.0630   -3.5210 C   0  0  0  0  0  0  0  0  0  0  0  0
   -6.7010   -4.4120   -4.0320 N   0  0  0  0  0  0  0  0  0  0  0  0
   -8.1940   -4.6450   -4.0920 C   0  0  0  0  0  0  0  0  0  0  0  0
   -8.8680   -5.1350   -2.7810 C   0  0  2  0  0  0  0  0  0  0  0  0
  -10.3870   -5.1160   -3.0360 C   0  0  0  0  0  0  0  0  0  0  0  0
  -10.0120   -4.5460    2.3680 C   0  0  0  0  0  0  0  0  0  0  0  0
  2  1  1  0
  3  2  2  0
  4  3  1  0
  5  4  2  0
  6  5  1  0
  7  6  1  0
  8  7  2  0
  9  8  1  0
 10  9  2  0
 11 10  1  0
 12 11  2  0
 13 11  2  0
 11 14  1  6
 15 14  1  0
 16 15  1  0
 17 16  1  0
 18 17  1  0
 19 18  1  0
 20 19  1  0
 20 14  1  0
 20 21  1  6
 22  6  2  0
 22 10  1  0
 22  2  1  0
M  CHG  1  18   1
M  END
$$$$
