3pyy_ligand
     RDKit          3D

 38 41  0  0  0  0  0  0  0  0999 V2000
    0.5040   -0.2510   10.0320 O   0  0  0  0  0  0  0  0  0  0  0  0
    0.1300    0.7400    9.4340 C   0  0  0  0  0  0  0  0  0  0  0  0
   -0.0980    0.8360    8.1040 N   0  0  0  0  0  0  0  0  0  0  0  0
   -0.5360    2.0840    7.7770 C   0  0  0  0  0  0  0  0  0  0  0  0
   -0.8320    2.4430    6.6470 O   0  0  0  0  0  0  0  0  0  0  0  0
   -0.5840    2.9310    9.0520 C   0  0  1  0  0  0  0  0  0  0  0  0
   -1.9510    3.4050    9.3920 C   0  0  0  0  0  0  0  0  0  0  0  0
   -2.9910    2.6970    9.9690 C   0  0  0  0  0  0  0  0  0  0  0  0
   -4.0500    3.5620   10.1270 N   0  0  0  0  0  0  0  0  0  0  0  0
   -5.3340    3.2870   10.6750 C   0  0  0  0  0  0  0  0  0  0  0  0
   -5.5450    2.1920   11.5260 C   0  0  0  0  0  0  0  0  0  0  0  0
   -6.8200    1.9500   12.0500 C   0  0  0  0  0  0  0  0  0  0  0  0
   -7.8840    2.7910   11.7310 C   0  0  0  0  0  0  0  0  0  0  0  0
   -7.6810    3.8800   10.8860 C   0  0  0  0  0  0  0  0  0  0  0  0
   -6.4120    4.1290   10.3590 C   0  0  0  0  0  0  0  0  0  0  0  0
   -3.7290    4.8030    9.6930 N   0  0  0  0  0  0  0  0  0  0  0  0
   -2.4840    4.7130    9.2130 C   0  0  0  0  0  0  0  0  0  0  0  0
   -1.8340    5.8860    8.6360 C   0  0  0  0  0  0  0  0  0  0  0  0
   -1.4760    5.9140    7.2800 C   0  0  0  0  0  0  0  0  0  0  0  0
   -0.8450    7.0390    6.7440 C   0  0  0  0  0  0  0  0  0  0  0  0
   -0.5830    8.1340    7.5600 C   0  0  0  0  0  0  0  0  0  0  0  0
    0.0220    9.2120    7.0440 F   0  0  0  0  0  0  0  0  0  0  0  0
   -0.9440    8.1290    8.9020 C   0  0  0  0  0  0  0  0  0  0  0  0
   -1.5750    7.0060    9.4410 C   0  0  0  0  0  0  0  0  0  0  0  0
   -0.1380    1.9550   10.0140 N   0  0  0  0  0  0  0  0  0  0  0  0
    0.0150    0.0750    7.4560 H   0  0  0  0  0  0  0  0  0  0  0  0
    0.0048    3.8579    8.9872 H   0  0  0  0  0  0  0  0  0  0  0  0
   -2.9742    1.6338   10.2507 H   0  0  0  0  0  0  0  0  0  0  0  0
   -4.7091    1.5241   11.7813 H   0  0  0  0  0  0  0  0  0  0  0  0
   -6.9830    1.0910   12.7175 H   0  0  0  0  0  0  0  0  0  0  0  0
   -8.8837    2.5953   12.1460 H   0  0  0  0  0  0  0  0  0  0  0  0
   -8.5209    4.5441   10.6338 H   0  0  0  0  0  0  0  0  0  0  0  0
   -6.2561    4.9900    9.6923 H   0  0  0  0  0  0  0  0  0  0  0  0
   -1.6927    5.0480    6.6373 H   0  0  0  0  0  0  0  0  0  0  0  0
   -0.5570    7.0586    5.6825 H   0  0  0  0  0  0  0  0  0  0  0  0
   -0.7341    9.0036    9.5352 H   0  0  0  0  0  0  0  0  0  0  0  0
   -1.8702    6.9992   10.5006 H   0  0  0  0  0  0  0  0  0  0  0  0
   -0.0370    2.1080   11.0070 H   0  0  0  0  0  0  0  0  0  0  0  0
  1  2  2  0
  2  3  1  0
  3  4  1  0
  4  5  2  0
  4  6  1  0
  6  7  1  0
  7  8  2  0
  8  9  1  0
  9 10  1  0
 10 11  2  0
 11 12  1  0
 12 13  2  0
 13 14  1  0
 14 15  2  0
  9 16  1  0
 16 17  2  0
 17 18  1  0
 18 19  2  0
 19 20  1  0
 20 21  2  0
 21 22  1  0
 21 23  1  0
 23 24  2  0
  6 25  1  0
 25  2  1  0
 17  7  1  0
 24 18  1  0
 15 10  1  0
  3 26  1  0
  6 27  1  6
  8 28  1  0
 11 29  1  0
 12 30  1  0
 13 31  1  0
 14 32  1  0
 15 33  1  0
 19 34  1  0
 20 35  1  0
 23 36  1  0
 24 37  1  0
 25 38  1  0
M  END
>  <meeko>  (1) 
{"is_sidechain": [false], "free_energy": -10.607, "intermolecular_energy": -12.468, "internal_energy": -0.959}

$$$$
3pyy_ligand
     RDKit          3D

 38 41  0  0  0  0  0  0  0  0999 V2000
    1.4190    0.6780   10.0250 O   0  0  0  0  0  0  0  0  0  0  0  0
    0.7800    1.3740    9.2580 C   0  0  0  0  0  0  0  0  0  0  0  0
    0.2730    0.9910    8.0630 N   0  0  0  0  0  0  0  0  0  0  0  0
   -0.4110    2.0140    7.4790 C   0  0  0  0  0  0  0  0  0  0  0  0
   -0.9850    1.9420    6.4020 O   0  0  0  0  0  0  0  0  0  0  0  0
   -0.3280    3.2400    8.3940 C   0  0  1  0  0  0  0  0  0  0  0  0
   -1.6530    3.6930    8.8920 C   0  0  0  0  0  0  0  0  0  0  0  0
   -2.6740    2.9350    9.4380 C   0  0  0  0  0  0  0  0  0  0  0  0
   -3.6910    3.7940    9.7890 N   0  0  0  0  0  0  0  0  0  0  0  0
   -4.9440    3.4760   10.3840 C   0  0  0  0  0  0  0  0  0  0  0  0
   -6.0840    4.2570   10.1440 C   0  0  0  0  0  0  0  0  0  0  0  0
   -7.3020    3.9170   10.7420 C   0  0  0  0  0  0  0  0  0  0  0  0
   -7.3910    2.8040   11.5780 C   0  0  0  0  0  0  0  0  0  0  0  0
   -6.2610    2.0260   11.8200 C   0  0  0  0  0  0  0  0  0  0  0  0
   -5.0420    2.3580   11.2270 C   0  0  0  0  0  0  0  0  0  0  0  0
   -3.3590    5.0770    9.5100 N   0  0  0  0  0  0  0  0  0  0  0  0
   -2.1520    5.0250    8.9350 C   0  0  0  0  0  0  0  0  0  0  0  0
   -1.5040    6.2520    8.4820 C   0  0  0  0  0  0  0  0  0  0  0  0
   -1.5130    7.4060    9.2790 C   0  0  0  0  0  0  0  0  0  0  0  0
   -0.8980    8.5760    8.8280 C   0  0  0  0  0  0  0  0  0  0  0  0
   -0.2690    8.5870    7.5880 C   0  0  0  0  0  0  0  0  0  0  0  0
    0.3200    9.7110    7.1570 F   0  0  0  0  0  0  0  0  0  0  0  0
   -0.2370    7.4500    6.7910 C   0  0  0  0  0  0  0  0  0  0  0  0
   -0.8510    6.2780    7.2400 C   0  0  0  0  0  0  0  0  0  0  0  0
    0.4520    2.6880    9.4740 N   0  0  0  0  0  0  0  0  0  0  0  0
    0.3670    0.0660    7.6800 H   0  0  0  0  0  0  0  0  0  0  0  0
    0.0833    4.1323    7.8994 H   0  0  0  0  0  0  0  0  0  0  0  0
   -2.6731    1.8427    9.5681 H   0  0  0  0  0  0  0  0  0  0  0  0
   -6.0203    5.1362    9.4860 H   0  0  0  0  0  0  0  0  0  0  0  0
   -8.1947    4.5309   10.5519 H   0  0  0  0  0  0  0  0  0  0  0  0
   -8.3515    2.5411   12.0453 H   0  0  0  0  0  0  0  0  0  0  0  0
   -6.3296    1.1484   12.4797 H   0  0  0  0  0  0  0  0  0  0  0  0
   -4.1530    1.7400   11.4214 H   0  0  0  0  0  0  0  0  0  0  0  0
   -2.0059    7.3895   10.2622 H   0  0  0  0  0  0  0  0  0  0  0  0
   -0.9111    9.4832    9.4499 H   0  0  0  0  0  0  0  0  0  0  0  0
    0.2678    7.4720    5.8139 H   0  0  0  0  0  0  0  0  0  0  0  0
   -0.8225    5.3717    6.6173 H   0  0  0  0  0  0  0  0  0  0  0  0
    0.7300    3.1790   10.3120 H   0  0  0  0  0  0  0  0  0  0  0  0
  1  2  2  0
  2  3  1  0
  3  4  1  0
  4  5  2  0
  4  6  1  0
  6  7  1  0
  7  8  2  0
  8  9  1  0
  9 10  1  0
 10 11  2  0
 11 12  1  0
 12 13  2  0
 13 14  1  0
 14 15  2  0
  9 16  1  0
 16 17  2  0
 17 18  1  0
 18 19  2  0
 19 20  1  0
 20 21  2  0
 21 22  1  0
 21 23  1  0
 23 24  2  0
  6 25  1  0
 25  2  1  0
 17  7  1  0
 24 18  1  0
 15 10  1  0
  3 26  1  0
  6 27  1  6
  8 28  1  0
 11 29  1  0
 12 30  1  0
 13 31  1  0
 14 32  1  0
 15 33  1  0
 19 34  1  0
 20 35  1  0
 23 36  1  0
 24 37  1  0
 25 38  1  0
M  END
>  <meeko>  (2) 
{"is_sidechain": [false], "free_energy": -10.297, "intermolecular_energy": -12.357, "internal_energy": -0.705}

$$$$
3pyy_ligand
     RDKit          3D

 38 41  0  0  0  0  0  0  0  0999 V2000
    0.5880   -0.1430    8.9510 O   0  0  0  0  0  0  0  0  0  0  0  0
   -0.2820    0.4450    9.5660 C   0  0  0  0  0  0  0  0  0  0  0  0
   -0.3210    0.6430   10.9050 N   0  0  0  0  0  0  0  0  0  0  0  0
   -1.4220    1.3650   11.2540 C   0  0  0  0  0  0  0  0  0  0  0  0
   -1.7000    1.7020   12.3960 O   0  0  0  0  0  0  0  0  0  0  0  0
   -2.2290    1.6650    9.9860 C   0  0  1  0  0  0  0  0  0  0  0  0
   -2.3480    3.1170    9.6960 C   0  0  0  0  0  0  0  0  0  0  0  0
   -1.4000    3.9710    9.1590 C   0  0  0  0  0  0  0  0  0  0  0  0
   -1.9770    5.2150    9.0380 N   0  0  0  0  0  0  0  0  0  0  0  0
   -1.3900    6.4110    8.5380 C   0  0  0  0  0  0  0  0  0  0  0  0
   -1.4260    7.6040    9.2750 C   0  0  0  0  0  0  0  0  0  0  0  0
   -0.8380    8.7630    8.7570 C   0  0  0  0  0  0  0  0  0  0  0  0
   -0.2160    8.7400    7.5100 C   0  0  0  0  0  0  0  0  0  0  0  0
   -0.1780    7.5580    6.7730 C   0  0  0  0  0  0  0  0  0  0  0  0
   -0.7620    6.3980    7.2830 C   0  0  0  0  0  0  0  0  0  0  0  0
   -3.2650    5.1940    9.4570 N   0  0  0  0  0  0  0  0  0  0  0  0
   -3.4880    3.9480    9.8910 C   0  0  0  0  0  0  0  0  0  0  0  0
   -4.7910    3.5870   10.4410 C   0  0  0  0  0  0  0  0  0  0  0  0
   -4.9310    2.4750   11.2850 C   0  0  0  0  0  0  0  0  0  0  0  0
   -6.1860    2.1350   11.7950 C   0  0  0  0  0  0  0  0  0  0  0  0
   -7.2930    2.9090   11.4680 C   0  0  0  0  0  0  0  0  0  0  0  0
   -8.4960    2.5800   11.9580 F   0  0  0  0  0  0  0  0  0  0  0  0
   -7.1710    4.0220   10.6450 C   0  0  0  0  0  0  0  0  0  0  0  0
   -5.9170    4.3650   10.1350 C   0  0  0  0  0  0  0  0  0  0  0  0
   -1.3910    1.0250    9.0040 N   0  0  0  0  0  0  0  0  0  0  0  0
    0.3870    0.3230   11.5440 H   0  0  0  0  0  0  0  0  0  0  0  0
   -3.2730    1.3222   10.0362 H   0  0  0  0  0  0  0  0  0  0  0  0
   -0.3704    3.7035    8.8792 H   0  0  0  0  0  0  0  0  0  0  0  0
   -1.9162    7.6282   10.2595 H   0  0  0  0  0  0  0  0  0  0  0  0
   -0.8668    9.6973    9.3369 H   0  0  0  0  0  0  0  0  0  0  0  0
    0.2446    9.6544    7.1078 H   0  0  0  0  0  0  0  0  0  0  0  0
    0.3126    7.5394    5.7887 H   0  0  0  0  0  0  0  0  0  0  0  0
   -0.7300    5.4673    6.6976 H   0  0  0  0  0  0  0  0  0  0  0  0
   -4.0504    1.8696   11.5456 H   0  0  0  0  0  0  0  0  0  0  0  0
   -6.2976    1.2596   12.4517 H   0  0  0  0  0  0  0  0  0  0  0  0
   -8.0550    4.6280   10.3972 H   0  0  0  0  0  0  0  0  0  0  0  0
   -5.8119    5.2499    9.4900 H   0  0  0  0  0  0  0  0  0  0  0  0
   -1.5620    0.9990    8.0090 H   0  0  0  0  0  0  0  0  0  0  0  0
  1  2  2  0
  2  3  1  0
  3  4  1  0
  4  5  2  0
  4  6  1  0
  6  7  1  0
  7  8  2  0
  8  9  1  0
  9 10  1  0
 10 11  2  0
 11 12  1  0
 12 13  2  0
 13 14  1  0
 14 15  2  0
  9 16  1  0
 16 17  2  0
 17 18  1  0
 18 19  2  0
 19 20  1  0
 20 21  2  0
 21 22  1  0
 21 23  1  0
 23 24  2  0
  6 25  1  0
 25  2  1  0
 17  7  1  0
 24 18  1  0
 15 10  1  0
  3 26  1  0
  6 27  1  1
  8 28  1  0
 11 29  1  0
 12 30  1  0
 13 31  1  0
 14 32  1  0
 15 33  1  0
 19 34  1  0
 20 35  1  0
 23 36  1  0
 24 37  1  0
 25 38  1  0
M  END
>  <meeko>  (3) 
{"is_sidechain": [false], "free_energy": -9.915, "intermolecular_energy": -12.073, "internal_energy": -0.54}

$$$$
3pyy_ligand
     RDKit          3D

 38 41  0  0  0  0  0  0  0  0999 V2000
   -1.3610    7.2820    5.0610 O   0  0  0  0  0  0  0  0  0  0  0  0
   -1.2340    7.1410    6.2630 C   0  0  0  0  0  0  0  0  0  0  0  0
   -1.4080    8.0970    7.2050 N   0  0  0  0  0  0  0  0  0  0  0  0
   -1.2120    7.5880    8.4530 C   0  0  0  0  0  0  0  0  0  0  0  0
   -1.3190    8.2260    9.4890 O   0  0  0  0  0  0  0  0  0  0  0  0
   -0.8380    6.1080    8.3200 C   0  0  1  0  0  0  0  0  0  0  0  0
   -1.8170    5.1950    8.9650 C   0  0  0  0  0  0  0  0  0  0  0  0
   -3.1620    5.4070    9.2120 C   0  0  0  0  0  0  0  0  0  0  0  0
   -3.6670    4.2650    9.7920 N   0  0  0  0  0  0  0  0  0  0  0  0
   -5.0000    4.0140   10.2230 C   0  0  0  0  0  0  0  0  0  0  0  0
   -5.3250    2.8610   10.9530 C   0  0  0  0  0  0  0  0  0  0  0  0
   -6.6450    2.6440   11.3630 C   0  0  0  0  0  0  0  0  0  0  0  0
   -7.6410    3.5670   11.0510 C   0  0  0  0  0  0  0  0  0  0  0  0
   -7.3240    4.7130   10.3250 C   0  0  0  0  0  0  0  0  0  0  0  0
   -6.0100    4.9380    9.9120 C   0  0  0  0  0  0  0  0  0  0  0  0
   -2.7060    3.3190    9.9130 N   0  0  0  0  0  0  0  0  0  0  0  0
   -1.5810    3.8790    9.4550 C   0  0  0  0  0  0  0  0  0  0  0  0
   -0.3300    3.1260    9.4670 C   0  0  0  0  0  0  0  0  0  0  0  0
   -0.3060    1.7700    9.1100 C   0  0  0  0  0  0  0  0  0  0  0  0
    0.8960    1.0590    9.1360 C   0  0  0  0  0  0  0  0  0  0  0  0
    2.0690    1.7060    9.5090 C   0  0  0  0  0  0  0  0  0  0  0  0
    3.2200    1.0220    9.5340 F   0  0  0  0  0  0  0  0  0  0  0  0
    2.0660    3.0520    9.8520 C   0  0  0  0  0  0  0  0  0  0  0  0
    0.8660    3.7650    9.8260 C   0  0  0  0  0  0  0  0  0  0  0  0
   -0.8910    5.9680    6.8870 N   0  0  0  0  0  0  0  0  0  0  0  0
   -1.6740    9.0460    7.0030 H   0  0  0  0  0  0  0  0  0  0  0  0
    0.1168    5.8496    8.8013 H   0  0  0  0  0  0  0  0  0  0  0  0
   -3.7265    6.3236    8.9856 H   0  0  0  0  0  0  0  0  0  0  0  0
   -4.5432    2.1286   11.2027 H   0  0  0  0  0  0  0  0  0  0  0  0
   -6.8980    1.7392   11.9351 H   0  0  0  0  0  0  0  0  0  0  0  0
   -8.6766    3.3910   11.3776 H   0  0  0  0  0  0  0  0  0  0  0  0
   -8.1102    5.4413   10.0770 H   0  0  0  0  0  0  0  0  0  0  0  0
   -5.7644    5.8446    9.3395 H   0  0  0  0  0  0  0  0  0  0  0  0
   -1.2358    1.2652    8.8089 H   0  0  0  0  0  0  0  0  0  0  0  0
    0.9146   -0.0064    8.8630 H   0  0  0  0  0  0  0  0  0  0  0  0
    3.0018    3.5522   10.1419 H   0  0  0  0  0  0  0  0  0  0  0  0
    0.8584    4.8332   10.0884 H   0  0  0  0  0  0  0  0  0  0  0  0
   -0.7160    5.1180    6.3700 H   0  0  0  0  0  0  0  0  0  0  0  0
  1  2  2  0
  2  3  1  0
  3  4  1  0
  4  5  2  0
  4  6  1  0
  6  7  1  0
  7  8  2  0
  8  9  1  0
  9 10  1  0
 10 11  2  0
 11 12  1  0
 12 13  2  0
 13 14  1  0
 14 15  2  0
  9 16  1  0
 16 17  2  0
 17 18  1  0
 18 19  2  0
 19 20  1  0
 20 21  2  0
 21 22  1  0
 21 23  1  0
 23 24  2  0
  6 25  1  0
 25  2  1  0
 17  7  1  0
 24 18  1  0
 15 10  1  0
  3 26  1  0
  6 27  1  1
  8 28  1  0
 11 29  1  0
 12 30  1  0
 13 31  1  0
 14 32  1  0
 15 33  1  0
 19 34  1  0
 20 35  1  0
 23 36  1  0
 24 37  1  0
 25 38  1  0
M  END
>  <meeko>  (4) 
{"is_sidechain": [false], "free_energy": -9.522, "intermolecular_energy": -11.496, "internal_energy": -0.655}

$$$$
3pyy_ligand
     RDKit          3D

 38 41  0  0  0  0  0  0  0  0999 V2000
    5.0480    3.1280   10.6380 O   0  0  0  0  0  0  0  0  0  0  0  0
    3.8980    2.7920   10.8500 C   0  0  0  0  0  0  0  0  0  0  0  0
    3.2730    2.7890   12.0500 N   0  0  0  0  0  0  0  0  0  0  0  0
    1.9800    2.3810   11.9200 C   0  0  0  0  0  0  0  0  0  0  0  0
    1.1800    2.2990   12.8410 O   0  0  0  0  0  0  0  0  0  0  0  0
    1.7210    2.0480   10.4470 C   0  0  1  0  0  0  0  0  0  0  0  0
    0.6780    2.9060    9.8250 C   0  0  0  0  0  0  0  0  0  0  0  0
    0.8440    4.0230    9.0250 C   0  0  0  0  0  0  0  0  0  0  0  0
   -0.4070    4.4620    8.6540 N   0  0  0  0  0  0  0  0  0  0  0  0
   -0.7390    5.5780    7.8350 C   0  0  0  0  0  0  0  0  0  0  0  0
    0.2340    6.5070    7.4400 C   0  0  0  0  0  0  0  0  0  0  0  0
   -0.1250    7.5930    6.6340 C   0  0  0  0  0  0  0  0  0  0  0  0
   -1.4450    7.7580    6.2210 C   0  0  0  0  0  0  0  0  0  0  0  0
   -2.4160    6.8380    6.6110 C   0  0  0  0  0  0  0  0  0  0  0  0
   -2.0670    5.7520    7.4150 C   0  0  0  0  0  0  0  0  0  0  0  0
   -1.3710    3.6630    9.1670 N   0  0  0  0  0  0  0  0  0  0  0  0
   -0.7340    2.7470    9.9050 C   0  0  0  0  0  0  0  0  0  0  0  0
   -1.4940    1.7310   10.6270 C   0  0  0  0  0  0  0  0  0  0  0  0
   -2.2200    2.0630   11.7800 C   0  0  0  0  0  0  0  0  0  0  0  0
   -2.9330    1.0780   12.4680 C   0  0  0  0  0  0  0  0  0  0  0  0
   -2.9260   -0.2300   11.9970 C   0  0  0  0  0  0  0  0  0  0  0  0
   -3.6110   -1.1730   12.6590 F   0  0  0  0  0  0  0  0  0  0  0  0
   -2.2240   -0.5740   10.8490 C   0  0  0  0  0  0  0  0  0  0  0  0
   -1.5100    0.4080   10.1590 C   0  0  0  0  0  0  0  0  0  0  0  0
    3.0160    2.3540    9.8940 N   0  0  0  0  0  0  0  0  0  0  0  0
    3.7030    3.0790   12.9110 H   0  0  0  0  0  0  0  0  0  0  0  0
    1.3490    1.0255   10.2852 H   0  0  0  0  0  0  0  0  0  0  0  0
    1.8031    4.4783    8.7373 H   0  0  0  0  0  0  0  0  0  0  0  0
    1.2780    6.3823    7.7632 H   0  0  0  0  0  0  0  0  0  0  0  0
    0.6397    8.3207    6.3247 H   0  0  0  0  0  0  0  0  0  0  0  0
   -1.7206    8.6139    5.5875 H   0  0  0  0  0  0  0  0  0  0  0  0
   -3.4585    6.9678    6.2849 H   0  0  0  0  0  0  0  0  0  0  0  0
   -2.8368    5.0284    7.7213 H   0  0  0  0  0  0  0  0  0  0  0  0
   -2.2281    3.1012   12.1435 H   0  0  0  0  0  0  0  0  0  0  0  0
   -3.4965    1.3358   13.3768 H   0  0  0  0  0  0  0  0  0  0  0  0
   -2.2304   -1.6123   10.4860 H   0  0  0  0  0  0  0  0  0  0  0  0
   -0.9579    0.1435    9.2451 H   0  0  0  0  0  0  0  0  0  0  0  0
    3.2750    2.2800    8.9200 H   0  0  0  0  0  0  0  0  0  0  0  0
  1  2  2  0
  2  3  1  0
  3  4  1  0
  4  5  2  0
  4  6  1  0
  6  7  1  0
  7  8  2  0
  8  9  1  0
  9 10  1  0
 10 11  2  0
 11 12  1  0
 12 13  2  0
 13 14  1  0
 14 15  2  0
  9 16  1  0
 16 17  2  0
 17 18  1  0
 18 19  2  0
 19 20  1  0
 20 21  2  0
 21 22  1  0
 21 23  1  0
 23 24  2  0
  6 25  1  0
 25  2  1  0
 17  7  1  0
 24 18  1  0
 15 10  1  0
  3 26  1  0
  6 27  1  1
  8 28  1  0
 11 29  1  0
 12 30  1  0
 13 31  1  0
 14 32  1  0
 15 33  1  0
 19 34  1  0
 20 35  1  0
 23 36  1  0
 24 37  1  0
 25 38  1  0
M  END
>  <meeko>  (5) 
{"is_sidechain": [false], "free_energy": -9.17, "intermolecular_energy": -10.758, "internal_energy": -0.98}

$$$$
3pyy_ligand
     RDKit          3D

 38 41  0  0  0  0  0  0  0  0999 V2000
    1.6620    2.3430   11.6820 O   0  0  0  0  0  0  0  0  0  0  0  0
    0.7600    1.9930   10.9440 C   0  0  0  0  0  0  0  0  0  0  0  0
    0.3370    0.7230   10.7440 N   0  0  0  0  0  0  0  0  0  0  0  0
   -0.7120    0.6940    9.8750 C   0  0  0  0  0  0  0  0  0  0  0  0
   -1.3000   -0.3190    9.5260 O   0  0  0  0  0  0  0  0  0  0  0  0
   -1.0090    2.1290    9.4240 C   0  0  1  0  0  0  0  0  0  0  0  0
   -2.3660    2.5960    9.8070 C   0  0  0  0  0  0  0  0  0  0  0  0
   -3.3720    1.8940   10.4490 C   0  0  0  0  0  0  0  0  0  0  0  0
   -4.4340    2.7510   10.6250 N   0  0  0  0  0  0  0  0  0  0  0  0
   -5.6910    2.4790   11.2360 C   0  0  0  0  0  0  0  0  0  0  0  0
   -6.8140    3.2790   10.9800 C   0  0  0  0  0  0  0  0  0  0  0  0
   -8.0360    2.9840   11.5950 C   0  0  0  0  0  0  0  0  0  0  0  0
   -8.1440    1.8980   12.4620 C   0  0  0  0  0  0  0  0  0  0  0  0
   -7.0320    1.1010   12.7200 C   0  0  0  0  0  0  0  0  0  0  0  0
   -5.8090    1.3880   12.1110 C   0  0  0  0  0  0  0  0  0  0  0  0
   -4.1490    3.9820   10.1400 N   0  0  0  0  0  0  0  0  0  0  0  0
   -2.9230    3.8920    9.6100 C   0  0  0  0  0  0  0  0  0  0  0  0
   -2.3140    5.0540    8.9700 C   0  0  0  0  0  0  0  0  0  0  0  0
   -2.1200    6.2460    9.6820 C   0  0  0  0  0  0  0  0  0  0  0  0
   -1.5460    7.3530    9.0530 C   0  0  0  0  0  0  0  0  0  0  0  0
   -1.1600    7.2630    7.7210 C   0  0  0  0  0  0  0  0  0  0  0  0
   -0.6100    8.3270    7.1200 F   0  0  0  0  0  0  0  0  0  0  0  0
   -1.3310    6.0850    7.0040 C   0  0  0  0  0  0  0  0  0  0  0  0
   -1.9040    4.9770    7.6300 C   0  0  0  0  0  0  0  0  0  0  0  0
   -0.0040    2.8360   10.1780 N   0  0  0  0  0  0  0  0  0  0  0  0
    0.7300   -0.0820   11.2010 H   0  0  0  0  0  0  0  0  0  0  0  0
   -0.9859    2.2621    8.3323 H   0  0  0  0  0  0  0  0  0  0  0  0
   -3.3298    0.8404   10.7621 H   0  0  0  0  0  0  0  0  0  0  0  0
   -6.7345    4.1373   10.2966 H   0  0  0  0  0  0  0  0  0  0  0  0
   -8.9159    3.6125   11.3931 H   0  0  0  0  0  0  0  0  0  0  0  0
   -9.1073    1.6708   12.9421 H   0  0  0  0  0  0  0  0  0  0  0  0
   -7.1172    0.2441   13.4045 H   0  0  0  0  0  0  0  0  0  0  0  0
   -4.9331    0.7556   12.3181 H   0  0  0  0  0  0  0  0  0  0  0  0
   -2.4205    6.3095   10.7383 H   0  0  0  0  0  0  0  0  0  0  0  0
   -1.4002    8.2910    9.6089 H   0  0  0  0  0  0  0  0  0  0  0  0
   -1.0172    6.0262    5.9513 H   0  0  0  0  0  0  0  0  0  0  0  0
   -2.0349    4.0390    7.0705 H   0  0  0  0  0  0  0  0  0  0  0  0
    0.1390    3.8360   10.1760 H   0  0  0  0  0  0  0  0  0  0  0  0
  1  2  2  0
  2  3  1  0
  3  4  1  0
  4  5  2  0
  4  6  1  0
  6  7  1  0
  7  8  2  0
  8  9  1  0
  9 10  1  0
 10 11  2  0
 11 12  1  0
 12 13  2  0
 13 14  1  0
 14 15  2  0
  9 16  1  0
 16 17  2  0
 17 18  1  0
 18 19  2  0
 19 20  1  0
 20 21  2  0
 21 22  1  0
 21 23  1  0
 23 24  2  0
  6 25  1  0
 25  2  1  0
 17  7  1  0
 24 18  1  0
 15 10  1  0
  3 26  1  0
  6 27  1  6
  8 28  1  0
 11 29  1  0
 12 30  1  0
 13 31  1  0
 14 32  1  0
 15 33  1  0
 19 34  1  0
 20 35  1  0
 23 36  1  0
 24 37  1  0
 25 38  1  0
M  END
>  <meeko>  (6) 
{"is_sidechain": [false], "free_energy": -9.114, "intermolecular_energy": -11.027, "internal_energy": -0.645}

$$$$
3pyy_ligand
     RDKit          3D

 38 41  0  0  0  0  0  0  0  0999 V2000
   -0.6210    9.0920    9.0160 O   0  0  0  0  0  0  0  0  0  0  0  0
   -1.3730    8.1670    8.7760 C   0  0  0  0  0  0  0  0  0  0  0  0
   -1.8460    7.8130    7.5580 N   0  0  0  0  0  0  0  0  0  0  0  0
   -2.6420    6.7120    7.6500 C   0  0  0  0  0  0  0  0  0  0  0  0
   -3.1900    6.1680    6.7030 O   0  0  0  0  0  0  0  0  0  0  0  0
   -2.7260    6.2940    9.1220 C   0  0  1  0  0  0  0  0  0  0  0  0
   -2.1750    4.9380    9.3800 C   0  0  0  0  0  0  0  0  0  0  0  0
   -0.8830    4.4800    9.1860 C   0  0  0  0  0  0  0  0  0  0  0  0
   -0.8360    3.1690    9.6020 N   0  0  0  0  0  0  0  0  0  0  0  0
    0.2780    2.2830    9.5920 C   0  0  0  0  0  0  0  0  0  0  0  0
    1.5570    2.7180    9.9660 C   0  0  0  0  0  0  0  0  0  0  0  0
    2.6320    1.8220    9.9480 C   0  0  0  0  0  0  0  0  0  0  0  0
    2.4390    0.4980    9.5580 C   0  0  0  0  0  0  0  0  0  0  0  0
    1.1700    0.0610    9.1850 C   0  0  0  0  0  0  0  0  0  0  0  0
    0.0920    0.9480    9.2010 C   0  0  0  0  0  0  0  0  0  0  0  0
   -2.0400    2.7680   10.0750 N   0  0  0  0  0  0  0  0  0  0  0  0
   -2.8630    3.8110    9.9110 C   0  0  0  0  0  0  0  0  0  0  0  0
   -4.2660    3.7050   10.3010 C   0  0  0  0  0  0  0  0  0  0  0  0
   -5.1900    4.6910    9.9300 C   0  0  0  0  0  0  0  0  0  0  0  0
   -6.5270    4.5830   10.3200 C   0  0  0  0  0  0  0  0  0  0  0  0
   -6.9370    3.4860   11.0690 C   0  0  0  0  0  0  0  0  0  0  0  0
   -8.2200    3.3840   11.4420 F   0  0  0  0  0  0  0  0  0  0  0  0
   -6.0380    2.4910   11.4330 C   0  0  0  0  0  0  0  0  0  0  0  0
   -4.7010    2.5970   11.0450 C   0  0  0  0  0  0  0  0  0  0  0  0
   -1.8790    7.3000    9.7120 N   0  0  0  0  0  0  0  0  0  0  0  0
   -1.6130    8.2870    6.7030 H   0  0  0  0  0  0  0  0  0  0  0  0
   -3.7552    6.2347    9.5056 H   0  0  0  0  0  0  0  0  0  0  0  0
   -0.0444    5.0600    8.7733 H   0  0  0  0  0  0  0  0  0  0  0  0
    1.7156    3.7623   10.2732 H   0  0  0  0  0  0  0  0  0  0  0  0
    3.6347    2.1647   10.2433 H   0  0  0  0  0  0  0  0  0  0  0  0
    3.2880   -0.2013    9.5447 H   0  0  0  0  0  0  0  0  0  0  0  0
    1.0171   -0.9840    8.8775 H   0  0  0  0  0  0  0  0  0  0  0  0
   -0.9084    0.5987    8.9056 H   0  0  0  0  0  0  0  0  0  0  0  0
   -4.8616    5.5525    9.3300 H   0  0  0  0  0  0  0  0  0  0  0  0
   -7.2509    5.3611   10.0362 H   0  0  0  0  0  0  0  0  0  0  0  0
   -6.3771    1.6263   12.0224 H   0  0  0  0  0  0  0  0  0  0  0  0
   -3.9857    1.8091   11.3234 H   0  0  0  0  0  0  0  0  0  0  0  0
   -1.6510    7.3790   10.6930 H   0  0  0  0  0  0  0  0  0  0  0  0
  1  2  2  0
  2  3  1  0
  3  4  1  0
  4  5  2  0
  4  6  1  0
  6  7  1  0
  7  8  2  0
  8  9  1  0
  9 10  1  0
 10 11  2  0
 11 12  1  0
 12 13  2  0
 13 14  1  0
 14 15  2  0
  9 16  1  0
 16 17  2  0
 17 18  1  0
 18 19  2  0
 19 20  1  0
 20 21  2  0
 21 22  1  0
 21 23  1  0
 23 24  2  0
  6 25  1  0
 25  2  1  0
 17  7  1  0
 24 18  1  0
 15 10  1  0
  3 26  1  0
  6 27  1  1
  8 28  1  0
 11 29  1  0
 12 30  1  0
 13 31  1  0
 14 32  1  0
 15 33  1  0
 19 34  1  0
 20 35  1  0
 23 36  1  0
 24 37  1  0
 25 38  1  0
M  END
>  <meeko>  (7) 
{"is_sidechain": [false], "free_energy": -9.068, "intermolecular_energy": -11.133, "internal_energy": -0.484}

$$$$
3pyy_ligand
     RDKit          3D

 38 41  0  0  0  0  0  0  0  0999 V2000
   -0.6020    7.0070    6.5730 O   0  0  0  0  0  0  0  0  0  0  0  0
   -0.3700    6.0360    7.2680 C   0  0  0  0  0  0  0  0  0  0  0  0
    0.5400    5.9640    8.2660 N   0  0  0  0  0  0  0  0  0  0  0  0
    0.5160    4.7360    8.8550 C   0  0  0  0  0  0  0  0  0  0  0  0
    1.2240    4.4000    9.7930 O   0  0  0  0  0  0  0  0  0  0  0  0
   -0.5300    3.8750    8.1390 C   0  0  1  0  0  0  0  0  0  0  0  0
   -1.6410    3.4430    9.0260 C   0  0  0  0  0  0  0  0  0  0  0  0
   -2.9340    3.9320    9.0890 C   0  0  0  0  0  0  0  0  0  0  0  0
   -3.6150    3.1970   10.0340 N   0  0  0  0  0  0  0  0  0  0  0  0
   -4.9700    3.3360   10.4460 C   0  0  0  0  0  0  0  0  0  0  0  0
   -5.7310    4.4560   10.0840 C   0  0  0  0  0  0  0  0  0  0  0  0
   -7.0610    4.5630   10.5050 C   0  0  0  0  0  0  0  0  0  0  0  0
   -7.6360    3.5600   11.2840 C   0  0  0  0  0  0  0  0  0  0  0  0
   -6.8840    2.4450   11.6470 C   0  0  0  0  0  0  0  0  0  0  0  0
   -5.5570    2.3310   11.2320 C   0  0  0  0  0  0  0  0  0  0  0  0
   -2.8190    2.2410   10.5680 N   0  0  0  0  0  0  0  0  0  0  0  0
   -1.6190    2.4030    9.9980 C   0  0  0  0  0  0  0  0  0  0  0  0
   -0.5060    1.5370   10.3760 C   0  0  0  0  0  0  0  0  0  0  0  0
    0.0690    1.6230   11.6520 C   0  0  0  0  0  0  0  0  0  0  0  0
    1.1410    0.7950   11.9950 C   0  0  0  0  0  0  0  0  0  0  0  0
    1.6280   -0.1190   11.0680 C   0  0  0  0  0  0  0  0  0  0  0  0
    2.6560   -0.9110   11.3990 F   0  0  0  0  0  0  0  0  0  0  0  0
    1.0610   -0.2270    9.8040 C   0  0  0  0  0  0  0  0  0  0  0  0
   -0.0110    0.5980    9.4580 C   0  0  0  0  0  0  0  0  0  0  0  0
   -1.0060    4.8240    7.1650 N   0  0  0  0  0  0  0  0  0  0  0  0
    1.1300    6.7290    8.5490 H   0  0  0  0  0  0  0  0  0  0  0  0
   -0.1281    2.9301    7.7445 H   0  0  0  0  0  0  0  0  0  0  0  0
   -3.3444    4.7594    8.4915 H   0  0  0  0  0  0  0  0  0  0  0  0
   -5.2828    5.2505    9.4692 H   0  0  0  0  0  0  0  0  0  0  0  0
   -7.6560    5.4431   10.2198 H   0  0  0  0  0  0  0  0  0  0  0  0
   -8.6823    3.6489   11.6116 H   0  0  0  0  0  0  0  0  0  0  0  0
   -7.3372    1.6533   12.2617 H   0  0  0  0  0  0  0  0  0  0  0  0
   -4.9671    1.4490   11.5220 H   0  0  0  0  0  0  0  0  0  0  0  0
   -0.3245    2.3435   12.3842 H   0  0  0  0  0  0  0  0  0  0  0  0
    1.5971    0.8661   12.9934 H   0  0  0  0  0  0  0  0  0  0  0  0
    1.4539   -0.9572    9.0812 H   0  0  0  0  0  0  0  0  0  0  0  0
   -0.4694    0.5116    8.4618 H   0  0  0  0  0  0  0  0  0  0  0  0
   -1.7300    4.6560    6.4810 H   0  0  0  0  0  0  0  0  0  0  0  0
  1  2  2  0
  2  3  1  0
  3  4  1  0
  4  5  2  0
  4  6  1  0
  6  7  1  0
  7  8  2  0
  8  9  1  0
  9 10  1  0
 10 11  2  0
 11 12  1  0
 12 13  2  0
 13 14  1  0
 14 15  2  0
  9 16  1  0
 16 17  2  0
 17 18  1  0
 18 19  2  0
 19 20  1  0
 20 21  2  0
 21 22  1  0
 21 23  1  0
 23 24  2  0
  6 25  1  0
 25  2  1  0
 17  7  1  0
 24 18  1  0
 15 10  1  0
  3 26  1  0
  6 27  1  6
  8 28  1  0
 11 29  1  0
 12 30  1  0
 13 31  1  0
 14 32  1  0
 15 33  1  0
 19 34  1  0
 20 35  1  0
 23 36  1  0
 24 37  1  0
 25 38  1  0
M  END
>  <meeko>  (8) 
{"is_sidechain": [false], "free_energy": -9.017, "intermolecular_energy": -10.649, "internal_energy": -0.909}

$$$$
3pyy_ligand
     RDKit          3D

 38 41  0  0  0  0  0  0  0  0999 V2000
   -8.0070    4.9410   10.4990 O   0  0  0  0  0  0  0  0  0  0  0  0
   -7.0300    4.2230   10.6090 C   0  0  0  0  0  0  0  0  0  0  0  0
   -6.9590    2.9110   10.2850 N   0  0  0  0  0  0  0  0  0  0  0  0
   -5.7060    2.4250   10.5080 C   0  0  0  0  0  0  0  0  0  0  0  0
   -5.3570    1.2750   10.2890 O   0  0  0  0  0  0  0  0  0  0  0  0
   -4.8400    3.5560   11.0730 C   0  0  1  0  0  0  0  0  0  0  0  0
   -3.6890    3.9060   10.2010 C   0  0  0  0  0  0  0  0  0  0  0  0
   -3.4990    5.0450    9.4380 C   0  0  0  0  0  0  0  0  0  0  0  0
   -2.2680    4.9420    8.8300 N   0  0  0  0  0  0  0  0  0  0  0  0
   -1.6420    5.8690    7.9510 C   0  0  0  0  0  0  0  0  0  0  0  0
   -2.3780    6.5610    6.9770 C   0  0  0  0  0  0  0  0  0  0  0  0
   -1.7330    7.4670    6.1280 C   0  0  0  0  0  0  0  0  0  0  0  0
   -0.3620    7.6870    6.2430 C   0  0  0  0  0  0  0  0  0  0  0  0
    0.3740    7.0020    7.2070 C   0  0  0  0  0  0  0  0  0  0  0  0
   -0.2610    6.0960    8.0580 C   0  0  0  0  0  0  0  0  0  0  0  0
   -1.6480    3.7920    9.1860 N   0  0  0  0  0  0  0  0  0  0  0  0
   -2.5080    3.1420    9.9790 C   0  0  0  0  0  0  0  0  0  0  0  0
   -2.1560    1.8350   10.5250 C   0  0  0  0  0  0  0  0  0  0  0  0
   -1.9070    1.6740   11.8960 C   0  0  0  0  0  0  0  0  0  0  0  0
   -1.5610    0.4190   12.4030 C   0  0  0  0  0  0  0  0  0  0  0  0
   -1.4740   -0.6700   11.5430 C   0  0  0  0  0  0  0  0  0  0  0  0
   -1.1410   -1.8720   12.0320 F   0  0  0  0  0  0  0  0  0  0  0  0
   -1.7320   -0.5310   10.1850 C   0  0  0  0  0  0  0  0  0  0  0  0
   -2.0790    0.7220    9.6750 C   0  0  0  0  0  0  0  0  0  0  0  0
   -5.8060    4.6260   11.0810 N   0  0  0  0  0  0  0  0  0  0  0  0
   -7.7250    2.3820    9.9050 H   0  0  0  0  0  0  0  0  0  0  0  0
   -4.3721    3.3124   12.0382 H   0  0  0  0  0  0  0  0  0  0  0  0
   -4.2049    5.8824    9.3357 H   0  0  0  0  0  0  0  0  0  0  0  0
   -3.4606    6.3914    6.8811 H   0  0  0  0  0  0  0  0  0  0  0  0
   -2.3117    8.0087    5.3653 H   0  0  0  0  0  0  0  0  0  0  0  0
    0.1389    8.4012    5.5729 H   0  0  0  0  0  0  0  0  0  0  0  0
    1.4565    7.1752    7.2977 H   0  0  0  0  0  0  0  0  0  0  0  0
    0.3244    5.5566    8.8172 H   0  0  0  0  0  0  0  0  0  0  0  0
   -1.9843    2.5374   12.5731 H   0  0  0  0  0  0  0  0  0  0  0  0
   -1.3585    0.2931   13.4768 H   0  0  0  0  0  0  0  0  0  0  0  0
   -1.6635   -1.4016    9.5162 H   0  0  0  0  0  0  0  0  0  0  0  0
   -2.2928    0.8365    8.6021 H   0  0  0  0  0  0  0  0  0  0  0  0
   -5.6330    5.5760   11.3790 H   0  0  0  0  0  0  0  0  0  0  0  0
  1  2  2  0
  2  3  1  0
  3  4  1  0
  4  5  2  0
  4  6  1  0
  6  7  1  0
  7  8  2  0
  8  9  1  0
  9 10  1  0
 10 11  2  0
 11 12  1  0
 12 13  2  0
 13 14  1  0
 14 15  2  0
  9 16  1  0
 16 17  2  0
 17 18  1  0
 18 19  2  0
 19 20  1  0
 20 21  2  0
 21 22  1  0
 21 23  1  0
 23 24  2  0
  6 25  1  0
 25  2  1  0
 17  7  1  0
 24 18  1  0
 15 10  1  0
  3 26  1  0
  6 27  1  1
  8 28  1  0
 11 29  1  0
 12 30  1  0
 13 31  1  0
 14 32  1  0
 15 33  1  0
 19 34  1  0
 20 35  1  0
 23 36  1  0
 24 37  1  0
 25 38  1  0
M  END
>  <meeko>  (9) 
{"is_sidechain": [false], "free_energy": -8.937, "intermolecular_energy": -10.686, "internal_energy": -0.778}

$$$$
