
     RDKit          3D

 28 29  0  0  0  0  0  0  0  0999 V2000
    8.3620   -2.3160    4.2420 C   0  0  0  0  0  0  0  0  0  0  0  0
    7.2980   -1.2950    4.6240 C   0  0  0  0  0  0  0  0  0  0  0  0
    6.0070   -1.4380    3.8280 C   0  0  0  0  0  0  0  0  0  0  0  0
    4.9280   -0.4910    4.3650 C   0  0  0  0  0  0  0  0  0  0  0  0
    3.6250   -0.5260    3.5930 C   0  0  0  0  0  0  0  0  0  0  0  0
    2.6740   -1.5230    3.8300 C   0  0  0  0  0  0  0  0  0  0  0  0
    1.4490   -1.5320    3.1400 C   0  0  0  0  0  0  0  0  0  0  0  0
    1.1430   -0.5390    2.2170 C   0  0  0  0  0  0  0  0  0  0  0  0
   -0.1680   -0.5280    1.5050 C   0  0  0  0  0  0  0  0  0  0  0  0
   -0.4130    0.3000    0.4070 C   0  0  0  0  0  0  0  0  0  0  0  0
   -1.6820    0.2740   -0.2550 C   0  0  0  0  0  0  0  0  0  0  0  0
   -2.7160   -0.5650    0.2050 C   0  0  0  0  0  0  0  0  0  0  0  0
   -4.1020   -0.5920   -0.4480 C   0  0  0  0  0  0  0  0  0  0  0  0
   -4.9710    0.5730    0.0070 C   0  0  0  0  0  0  0  0  0  0  0  0
   -6.4330    0.1760    0.2250 C   0  0  0  0  0  0  0  0  0  0  0  0
   -7.4170    1.3600    0.2360 C   0  0  1  0  0  0  0  0  0  0  0  0
   -9.1360    0.7970    0.4230 P   0  0  0  0  0  0  0  0  0  0  0  0
  -10.0590    1.8050   -0.1930 O   0  0  0  0  0  0  0  0  0  0  0  0
   -9.2890   -0.5060   -0.2600 O   0  0  0  0  0  0  0  0  0  0  0  0
   -9.4430    0.6300    1.8960 O   0  0  0  0  0  0  0  0  0  0  0  0
   -7.0000    2.5290    1.4810 S   0  0  1  0  0  0  0  0  0  0  0  0
   -8.1520    3.3400    1.8230 O   0  0  0  0  0  0  0  0  0  0  0  0
   -6.5460    1.8120    2.6710 O   0  0  0  0  0  0  0  0  0  0  0  0
   -5.9350    3.4170    0.9640 O   0  0  0  0  0  0  0  0  0  0  0  0
   -2.4510   -1.3900    1.3040 C   0  0  0  0  0  0  0  0  0  0  0  0
   -1.1940   -1.3560    1.9510 C   0  0  0  0  0  0  0  0  0  0  0  0
    2.0860    0.4660    1.9840 C   0  0  0  0  0  0  0  0  0  0  0  0
    3.3060    0.4820    2.6620 C   0  0  0  0  0  0  0  0  0  0  0  0
  2  1  1  0
  3  2  1  0
  4  3  1  0
  5  4  1  0
  6  5  2  0
  7  6  1  0
  8  7  2  0
  9  8  1  0
 10  9  2  0
 11 10  1  0
 12 11  2  0
 13 12  1  0
 14 13  1  0
 15 14  1  0
 16 15  1  1
 17 16  1  0
 18 17  2  0
 19 17  1  0
 20 17  1  0
 21 16  1  0
 22 21  2  0
 23 21  2  0
 21 24  1  6
 25 12  1  0
 26 25  2  0
 26  9  1  0
 27  8  1  0
 28 27  2  0
 28  5  1  0
M  CHG  2  20  -1  24  -1
M  END
$$$$
