3nx7_ligand
     RDKit          3D

 36 36  0  0  0  0  0  0  0  0999 V2000
   -7.5920   -0.2470    4.8380 C   0  0  0  0  0  0  0  0  0  0  0  0
   -6.9960   -0.3880    6.1220 O   0  0  0  0  0  0  0  0  0  0  0  0
   -6.3590   -1.5680    6.3870 C   0  0  0  0  0  0  0  0  0  0  0  0
   -5.9190   -2.4940    5.4390 C   0  0  0  0  0  0  0  0  0  0  0  0
   -5.2760   -3.6680    5.8470 C   0  0  0  0  0  0  0  0  0  0  0  0
   -5.0580   -3.9060    7.2080 C   0  0  0  0  0  0  0  0  0  0  0  0
   -4.2730   -5.4120    7.7290 S   0  0  0  0  0  0  0  0  0  0  0  0
   -5.3020   -6.3200    8.1890 O   0  0  0  0  0  0  0  0  0  0  0  0
   -3.3480   -5.8160    6.6880 O   0  0  0  0  0  0  0  0  0  0  0  0
   -3.3230   -4.9450    9.0460 N   0  0  0  0  0  0  0  0  0  0  0  0
   -2.2810   -3.8890    8.9070 C   0  0  0  0  0  0  0  0  0  0  0  0
   -0.9090   -4.3170    9.4370 C   0  0  0  0  0  0  0  0  0  0  0  0
    0.0880   -4.2270    8.4250 O   0  0  0  0  0  0  0  0  0  0  0  0
   -2.9550   -6.0240   10.0020 C   0  0  0  0  0  0  0  0  0  0  0  0
   -3.6770   -5.7880   11.3170 C   0  0  0  0  0  0  0  0  0  0  0  0
   -3.1510   -5.2330   12.2830 O   0  0  0  0  0  0  0  0  0  0  0  0
   -4.9780   -6.2430   11.3480 N   0  0  0  0  0  0  0  0  0  0  0  0
   -5.6960   -5.8970   12.5220 O   0  0  0  0  0  0  0  0  0  0  0  0
   -5.5200   -2.9990    8.1630 C   0  0  0  0  0  0  0  0  0  0  0  0
   -6.1590   -1.8300    7.7460 C   0  0  0  0  0  0  0  0  0  0  0  0
   -8.6565    0.0048    4.9535 H   0  0  0  0  0  0  0  0  0  0  0  0
   -7.0834    0.5556    4.2838 H   0  0  0  0  0  0  0  0  0  0  0  0
   -7.4969   -1.1924    4.2838 H   0  0  0  0  0  0  0  0  0  0  0  0
   -6.0783   -2.3000    4.3680 H   0  0  0  0  0  0  0  0  0  0  0  0
   -4.9426   -4.4023    5.0989 H   0  0  0  0  0  0  0  0  0  0  0  0
   -2.1801   -3.6364    7.8412 H   0  0  0  0  0  0  0  0  0  0  0  0
   -2.6080   -3.0279    9.5083 H   0  0  0  0  0  0  0  0  0  0  0  0
   -0.6286   -3.6623   10.2753 H   0  0  0  0  0  0  0  0  0  0  0  0
   -0.9756   -5.3644    9.7663 H   0  0  0  0  0  0  0  0  0  0  0  0
   -0.3190   -4.5900    7.6070 H   0  0  0  0  0  0  0  0  0  0  0  0
   -3.2511   -6.9995    9.5887 H   0  0  0  0  0  0  0  0  0  0  0  0
   -1.8678   -6.0172   10.1689 H   0  0  0  0  0  0  0  0  0  0  0  0
   -5.5250   -6.2490   10.4800 H   0  0  0  0  0  0  0  0  0  0  0  0
   -6.2890   -5.1790   12.2080 H   0  0  0  0  0  0  0  0  0  0  0  0
   -5.3818   -3.2036    9.2349 H   0  0  0  0  0  0  0  0  0  0  0  0
   -6.5097   -1.1057    8.4960 H   0  0  0  0  0  0  0  0  0  0  0  0
  1  2  1  0
  2  3  1  0
  3  4  2  0
  4  5  1  0
  5  6  2  0
  6  7  1  0
  7  8  2  0
  7  9  2  0
  7 10  1  0
 10 11  1  0
 11 12  1  0
 12 13  1  0
 10 14  1  0
 14 15  1  0
 15 16  2  0
 15 17  1  0
 17 18  1  0
  6 19  1  0
 19 20  2  0
 20  3  1  0
  1 21  1  0
  1 22  1  0
  1 23  1  0
  4 24  1  0
  5 25  1  0
 11 26  1  0
 11 27  1  0
 12 28  1  0
 12 29  1  0
 13 30  1  0
 14 31  1  0
 14 32  1  0
 17 33  1  0
 18 34  1  0
 19 35  1  0
 20 36  1  0
M  END
>  <meeko>  (1) 
{"is_sidechain": [false], "free_energy": -6.78, "intermolecular_energy": -9.951, "internal_energy": -0.709}

$$$$
3nx7_ligand
     RDKit          3D

 36 36  0  0  0  0  0  0  0  0999 V2000
   -7.1400   -0.1260    5.2030 C   0  0  0  0  0  0  0  0  0  0  0  0
   -6.7660   -1.4790    4.9740 O   0  0  0  0  0  0  0  0  0  0  0  0
   -6.0380   -2.0980    5.9510 C   0  0  0  0  0  0  0  0  0  0  0  0
   -6.2010   -1.9290    7.3270 C   0  0  0  0  0  0  0  0  0  0  0  0
   -5.3870   -2.6300    8.2240 C   0  0  0  0  0  0  0  0  0  0  0  0
   -4.4160   -3.5130    7.7400 C   0  0  0  0  0  0  0  0  0  0  0  0
   -3.3570   -4.3760    8.8760 S   0  0  0  0  0  0  0  0  0  0  0  0
   -2.1450   -4.7390    8.1740 O   0  0  0  0  0  0  0  0  0  0  0  0
   -3.2930   -3.6030   10.1010 O   0  0  0  0  0  0  0  0  0  0  0  0
   -4.2170   -5.7810    9.2520 N   0  0  0  0  0  0  0  0  0  0  0  0
   -3.5810   -6.8920   10.0160 C   0  0  0  0  0  0  0  0  0  0  0  0
   -3.9870   -6.9220   11.4920 C   0  0  0  0  0  0  0  0  0  0  0  0
   -4.6250   -5.7100   11.8790 O   0  0  0  0  0  0  0  0  0  0  0  0
   -5.1930   -6.2430    8.2290 C   0  0  0  0  0  0  0  0  0  0  0  0
   -6.5160   -6.5460    8.9090 C   0  0  0  0  0  0  0  0  0  0  0  0
   -7.1710   -7.5650    8.6830 O   0  0  0  0  0  0  0  0  0  0  0  0
   -6.9330   -5.5880    9.8080 N   0  0  0  0  0  0  0  0  0  0  0  0
   -8.0940   -5.9370   10.5460 O   0  0  0  0  0  0  0  0  0  0  0  0
   -4.2280   -3.6650    6.3650 C   0  0  0  0  0  0  0  0  0  0  0  0
   -5.0470   -2.9640    5.4790 C   0  0  0  0  0  0  0  0  0  0  0  0
   -7.1919    0.0619    6.2856 H   0  0  0  0  0  0  0  0  0  0  0  0
   -6.3930    0.5426    4.7503 H   0  0  0  0  0  0  0  0  0  0  0  0
   -8.1243    0.0640    4.7503 H   0  0  0  0  0  0  0  0  0  0  0  0
   -6.9718   -1.2426    7.7075 H   0  0  0  0  0  0  0  0  0  0  0  0
   -5.5105   -2.4869    9.3076 H   0  0  0  0  0  0  0  0  0  0  0  0
   -3.8741   -7.8462    9.5538 H   0  0  0  0  0  0  0  0  0  0  0  0
   -2.4934   -6.7311    9.9804 H   0  0  0  0  0  0  0  0  0  0  0  0
   -4.6807   -7.7599   11.6556 H   0  0  0  0  0  0  0  0  0  0  0  0
   -3.0779   -7.0443   12.0991 H   0  0  0  0  0  0  0  0  0  0  0  0
   -4.0330   -5.2880   12.5410 H   0  0  0  0  0  0  0  0  0  0  0  0
   -5.3378   -5.4551    7.4752 H   0  0  0  0  0  0  0  0  0  0  0  0
   -4.8128   -7.1496    7.7355 H   0  0  0  0  0  0  0  0  0  0  0  0
   -6.2290   -5.0450   10.3200 H   0  0  0  0  0  0  0  0  0  0  0  0
   -7.9820   -5.4250   11.3770 H   0  0  0  0  0  0  0  0  0  0  0  0
   -3.4408   -4.3318    5.9832 H   0  0  0  0  0  0  0  0  0  0  0  0
   -4.9112   -3.0944    4.3952 H   0  0  0  0  0  0  0  0  0  0  0  0
  1  2  1  0
  2  3  1  0
  3  4  2  0
  4  5  1  0
  5  6  2  0
  6  7  1  0
  7  8  2  0
  7  9  2  0
  7 10  1  0
 10 11  1  0
 11 12  1  0
 12 13  1  0
 10 14  1  0
 14 15  1  0
 15 16  2  0
 15 17  1  0
 17 18  1  0
  6 19  1  0
 19 20  2  0
 20  3  1  0
  1 21  1  0
  1 22  1  0
  1 23  1  0
  4 24  1  0
  5 25  1  0
 11 26  1  0
 11 27  1  0
 12 28  1  0
 12 29  1  0
 13 30  1  0
 14 31  1  0
 14 32  1  0
 17 33  1  0
 18 34  1  0
 19 35  1  0
 20 36  1  0
M  END
>  <meeko>  (2) 
{"is_sidechain": [false], "free_energy": -6.724, "intermolecular_energy": -9.558, "internal_energy": -1.019}

$$$$
3nx7_ligand
     RDKit          3D

 36 36  0  0  0  0  0  0  0  0999 V2000
   -7.2510   -0.3630    5.5700 C   0  0  0  0  0  0  0  0  0  0  0  0
   -6.3780   -1.3830    5.1010 O   0  0  0  0  0  0  0  0  0  0  0  0
   -5.9300   -2.2900    6.0190 C   0  0  0  0  0  0  0  0  0  0  0  0
   -5.9200   -2.1190    7.4050 C   0  0  0  0  0  0  0  0  0  0  0  0
   -5.4340   -3.1340    8.2370 C   0  0  0  0  0  0  0  0  0  0  0  0
   -4.9720   -4.3300    7.6790 C   0  0  0  0  0  0  0  0  0  0  0  0
   -4.3220   -5.6060    8.7310 S   0  0  0  0  0  0  0  0  0  0  0  0
   -5.3540   -5.9820    9.6720 O   0  0  0  0  0  0  0  0  0  0  0  0
   -3.6980   -6.6060    7.8860 O   0  0  0  0  0  0  0  0  0  0  0  0
   -3.0650   -4.8470    9.5670 N   0  0  0  0  0  0  0  0  0  0  0  0
   -3.2840   -4.2610   10.9190 C   0  0  0  0  0  0  0  0  0  0  0  0
   -3.1640   -5.2850   12.0510 C   0  0  0  0  0  0  0  0  0  0  0  0
   -4.4450   -5.7390   12.4750 O   0  0  0  0  0  0  0  0  0  0  0  0
   -2.0940   -4.0860    8.7350 C   0  0  0  0  0  0  0  0  0  0  0  0
   -0.7580   -4.0380    9.4550 C   0  0  0  0  0  0  0  0  0  0  0  0
   -0.0850   -5.0420    9.6930 O   0  0  0  0  0  0  0  0  0  0  0  0
   -0.3490   -2.7740    9.8240 N   0  0  0  0  0  0  0  0  0  0  0  0
    0.9600   -2.7130   10.3670 O   0  0  0  0  0  0  0  0  0  0  0  0
   -4.9530   -4.4990    6.2930 C   0  0  0  0  0  0  0  0  0  0  0  0
   -5.4420   -3.4810    5.4720 C   0  0  0  0  0  0  0  0  0  0  0  0
   -7.2537   -0.3599    6.6700 H   0  0  0  0  0  0  0  0  0  0  0  0
   -6.9049    0.6139    5.2014 H   0  0  0  0  0  0  0  0  0  0  0  0
   -8.2696   -0.5541    5.2014 H   0  0  0  0  0  0  0  0  0  0  0  0
   -6.2955   -1.1831    7.8444 H   0  0  0  0  0  0  0  0  0  0  0  0
   -5.4155   -2.9912    9.3275 H   0  0  0  0  0  0  0  0  0  0  0  0
   -2.5360   -3.4712   11.0823 H   0  0  0  0  0  0  0  0  0  0  0  0
   -4.3120   -3.8703   10.9415 H   0  0  0  0  0  0  0  0  0  0  0  0
   -2.5784   -6.1455   11.6953 H   0  0  0  0  0  0  0  0  0  0  0  0
   -2.6663   -4.8022   12.9049 H   0  0  0  0  0  0  0  0  0  0  0  0
   -5.0580   -5.5730   11.7240 H   0  0  0  0  0  0  0  0  0  0  0  0
   -1.9712   -4.5848    7.7623 H   0  0  0  0  0  0  0  0  0  0  0  0
   -2.4654   -3.0635    8.5717 H   0  0  0  0  0  0  0  0  0  0  0  0
   -0.6270   -1.9720    9.2480 H   0  0  0  0  0  0  0  0  0  0  0  0
    1.4540   -2.2110    9.6820 H   0  0  0  0  0  0  0  0  0  0  0  0
   -4.5565   -5.4255    5.8521 H   0  0  0  0  0  0  0  0  0  0  0  0
   -5.4434   -3.6176    4.3805 H   0  0  0  0  0  0  0  0  0  0  0  0
  1  2  1  0
  2  3  1  0
  3  4  2  0
  4  5  1  0
  5  6  2  0
  6  7  1  0
  7  8  2  0
  7  9  2  0
  7 10  1  0
 10 11  1  0
 11 12  1  0
 12 13  1  0
 10 14  1  0
 14 15  1  0
 15 16  2  0
 15 17  1  0
 17 18  1  0
  6 19  1  0
 19 20  2  0
 20  3  1  0
  1 21  1  0
  1 22  1  0
  1 23  1  0
  4 24  1  0
  5 25  1  0
 11 26  1  0
 11 27  1  0
 12 28  1  0
 12 29  1  0
 13 30  1  0
 14 31  1  0
 14 32  1  0
 17 33  1  0
 18 34  1  0
 19 35  1  0
 20 36  1  0
M  END
>  <meeko>  (3) 
{"is_sidechain": [false], "free_energy": -6.639, "intermolecular_energy": -9.801, "internal_energy": -0.652}

$$$$
3nx7_ligand
     RDKit          3D

 36 36  0  0  0  0  0  0  0  0999 V2000
   -7.7650   -0.3810    4.7350 C   0  0  0  0  0  0  0  0  0  0  0  0
   -7.3290   -0.5320    6.0800 O   0  0  0  0  0  0  0  0  0  0  0  0
   -6.4690   -1.5600    6.3450 C   0  0  0  0  0  0  0  0  0  0  0  0
   -5.8890   -2.4090    5.3990 C   0  0  0  0  0  0  0  0  0  0  0  0
   -5.0180   -3.4260    5.8070 C   0  0  0  0  0  0  0  0  0  0  0  0
   -4.7170   -3.5830    7.1630 C   0  0  0  0  0  0  0  0  0  0  0  0
   -3.6400   -4.8970    7.6860 S   0  0  0  0  0  0  0  0  0  0  0  0
   -3.2510   -5.6520    6.5140 O   0  0  0  0  0  0  0  0  0  0  0  0
   -2.6340   -4.3270    8.5610 O   0  0  0  0  0  0  0  0  0  0  0  0
   -4.6200   -5.8660    8.6640 N   0  0  0  0  0  0  0  0  0  0  0  0
   -4.0480   -7.0040    9.4380 C   0  0  0  0  0  0  0  0  0  0  0  0
   -3.5570   -6.6030   10.8320 C   0  0  0  0  0  0  0  0  0  0  0  0
   -4.0850   -5.3410   11.2230 O   0  0  0  0  0  0  0  0  0  0  0  0
   -5.9980   -6.1160    8.1640 C   0  0  0  0  0  0  0  0  0  0  0  0
   -6.8580   -6.6140    9.3120 C   0  0  0  0  0  0  0  0  0  0  0  0
   -7.3200   -7.7550    9.3610 O   0  0  0  0  0  0  0  0  0  0  0  0
   -7.0850   -5.6840   10.3040 N   0  0  0  0  0  0  0  0  0  0  0  0
   -7.7670   -6.1900   11.4410 O   0  0  0  0  0  0  0  0  0  0  0  0
   -5.3150   -2.7580    8.1170 C   0  0  0  0  0  0  0  0  0  0  0  0
   -6.1800   -1.7440    7.7000 C   0  0  0  0  0  0  0  0  0  0  0  0
   -8.8044   -0.0210    4.7247 H   0  0  0  0  0  0  0  0  0  0  0  0
   -7.1200    0.3461    4.2199 H   0  0  0  0  0  0  0  0  0  0  0  0
   -7.7079   -1.3513    4.2199 H   0  0  0  0  0  0  0  0  0  0  0  0
   -6.1174   -2.2779    4.3310 H   0  0  0  0  0  0  0  0  0  0  0  0
   -4.5711   -4.1005    5.0618 H   0  0  0  0  0  0  0  0  0  0  0  0
   -4.8243   -7.7753    9.5498 H   0  0  0  0  0  0  0  0  0  0  0  0
   -3.1752   -7.3721    8.8788 H   0  0  0  0  0  0  0  0  0  0  0  0
   -3.8767   -7.3655   11.5575 H   0  0  0  0  0  0  0  0  0  0  0  0
   -2.4600   -6.5270   10.8051 H   0  0  0  0  0  0  0  0  0  0  0  0
   -4.1200   -5.3510   12.2060 H   0  0  0  0  0  0  0  0  0  0  0  0
   -6.4205   -5.1821    7.7649 H   0  0  0  0  0  0  0  0  0  0  0  0
   -5.9719   -6.8712    7.3646 H   0  0  0  0  0  0  0  0  0  0  0  0
   -6.3680   -4.9760   10.4970 H   0  0  0  0  0  0  0  0  0  0  0  0
   -7.9750   -5.3740   11.9470 H   0  0  0  0  0  0  0  0  0  0  0  0
   -5.1069   -2.9051    9.1871 H   0  0  0  0  0  0  0  0  0  0  0  0
   -6.6400   -1.0814    8.4479 H   0  0  0  0  0  0  0  0  0  0  0  0
  1  2  1  0
  2  3  1  0
  3  4  2  0
  4  5  1  0
  5  6  2  0
  6  7  1  0
  7  8  2  0
  7  9  2  0
  7 10  1  0
 10 11  1  0
 11 12  1  0
 12 13  1  0
 10 14  1  0
 14 15  1  0
 15 16  2  0
 15 17  1  0
 17 18  1  0
  6 19  1  0
 19 20  2  0
 20  3  1  0
  1 21  1  0
  1 22  1  0
  1 23  1  0
  4 24  1  0
  5 25  1  0
 11 26  1  0
 11 27  1  0
 12 28  1  0
 12 29  1  0
 13 30  1  0
 14 31  1  0
 14 32  1  0
 17 33  1  0
 18 34  1  0
 19 35  1  0
 20 36  1  0
M  END
>  <meeko>  (4) 
{"is_sidechain": [false], "free_energy": -6.519, "intermolecular_energy": -9.449, "internal_energy": -0.828}

$$$$
3nx7_ligand
     RDKit          3D

 36 36  0  0  0  0  0  0  0  0999 V2000
   -8.2990    0.2140    6.5430 C   0  0  0  0  0  0  0  0  0  0  0  0
   -7.4340   -0.4950    5.6650 O   0  0  0  0  0  0  0  0  0  0  0  0
   -6.6000   -1.4210    6.2260 C   0  0  0  0  0  0  0  0  0  0  0  0
   -6.3430   -1.5750    7.5900 C   0  0  0  0  0  0  0  0  0  0  0  0
   -5.4650   -2.5710    8.0330 C   0  0  0  0  0  0  0  0  0  0  0  0
   -4.8550   -3.4240    7.1070 C   0  0  0  0  0  0  0  0  0  0  0  0
   -3.7120   -4.6650    7.6650 S   0  0  0  0  0  0  0  0  0  0  0  0
   -3.3620   -5.4950    6.5330 O   0  0  0  0  0  0  0  0  0  0  0  0
   -2.6800   -4.0040    8.4400 O   0  0  0  0  0  0  0  0  0  0  0  0
   -4.6090   -5.5840    8.7650 N   0  0  0  0  0  0  0  0  0  0  0  0
   -6.0750   -5.7840    8.5840 C   0  0  0  0  0  0  0  0  0  0  0  0
   -6.5520   -7.1770    9.0060 C   0  0  0  0  0  0  0  0  0  0  0  0
   -5.6160   -8.1810    8.6280 O   0  0  0  0  0  0  0  0  0  0  0  0
   -4.1890   -5.4890   10.1890 C   0  0  0  0  0  0  0  0  0  0  0  0
   -3.1210   -6.5340   10.4600 C   0  0  0  0  0  0  0  0  0  0  0  0
   -3.3520   -7.7440   10.4750 O   0  0  0  0  0  0  0  0  0  0  0  0
   -1.8620   -6.0220   10.6880 N   0  0  0  0  0  0  0  0  0  0  0  0
   -0.8390   -6.9990   10.7990 O   0  0  0  0  0  0  0  0  0  0  0  0
   -5.0840   -3.2580    5.7400 C   0  0  0  0  0  0  0  0  0  0  0  0
   -5.9640   -2.2640    5.3080 C   0  0  0  0  0  0  0  0  0  0  0  0
   -8.0268   -0.0091    7.5852 H   0  0  0  0  0  0  0  0  0  0  0  0
   -8.2003    1.2944    6.3615 H   0  0  0  0  0  0  0  0  0  0  0  0
   -9.3390   -0.0948    6.3615 H   0  0  0  0  0  0  0  0  0  0  0  0
   -6.8321   -0.9115    8.3185 H   0  0  0  0  0  0  0  0  0  0  0  0
   -5.2551   -2.6828    9.1070 H   0  0  0  0  0  0  0  0  0  0  0  0
   -6.6071   -5.0346    9.1884 H   0  0  0  0  0  0  0  0  0  0  0  0
   -6.2887   -5.6773    7.5102 H   0  0  0  0  0  0  0  0  0  0  0  0
   -6.6772   -7.1971   10.0987 H   0  0  0  0  0  0  0  0  0  0  0  0
   -7.5068   -7.3847    8.5009 H   0  0  0  0  0  0  0  0  0  0  0  0
   -4.7740   -7.7110    8.4350 H   0  0  0  0  0  0  0  0  0  0  0  0
   -3.7827   -4.4863   10.3876 H   0  0  0  0  0  0  0  0  0  0  0  0
   -5.0549   -5.6638   10.8444 H   0  0  0  0  0  0  0  0  0  0  0  0
   -1.5890   -5.1460   10.2280 H   0  0  0  0  0  0  0  0  0  0  0  0
   -0.6510   -7.2220    9.8620 H   0  0  0  0  0  0  0  0  0  0  0  0
   -4.5756   -3.9046    5.0097 H   0  0  0  0  0  0  0  0  0  0  0  0
   -6.1598   -2.1420    4.2325 H   0  0  0  0  0  0  0  0  0  0  0  0
  1  2  1  0
  2  3  1  0
  3  4  2  0
  4  5  1  0
  5  6  2  0
  6  7  1  0
  7  8  2  0
  7  9  2  0
  7 10  1  0
 10 11  1  0
 11 12  1  0
 12 13  1  0
 10 14  1  0
 14 15  1  0
 15 16  2  0
 15 17  1  0
 17 18  1  0
  6 19  1  0
 19 20  2  0
 20  3  1  0
  1 21  1  0
  1 22  1  0
  1 23  1  0
  4 24  1  0
  5 25  1  0
 11 26  1  0
 11 27  1  0
 12 28  1  0
 12 29  1  0
 13 30  1  0
 14 31  1  0
 14 32  1  0
 17 33  1  0
 18 34  1  0
 19 35  1  0
 20 36  1  0
M  END
>  <meeko>  (5) 
{"is_sidechain": [false], "free_energy": -6.455, "intermolecular_energy": -9.368, "internal_energy": -0.815}

$$$$
3nx7_ligand
     RDKit          3D

 36 36  0  0  0  0  0  0  0  0999 V2000
  -10.6300   -7.2350    8.8700 C   0  0  0  0  0  0  0  0  0  0  0  0
   -9.8960   -7.0060   10.0660 O   0  0  0  0  0  0  0  0  0  0  0  0
   -8.5410   -6.8770    9.9500 C   0  0  0  0  0  0  0  0  0  0  0  0
   -7.7930   -7.0830    8.7890 C   0  0  0  0  0  0  0  0  0  0  0  0
   -6.4040   -6.9130    8.8070 C   0  0  0  0  0  0  0  0  0  0  0  0
   -5.7650   -6.5200    9.9870 C   0  0  0  0  0  0  0  0  0  0  0  0
   -3.9980   -6.3380   10.0200 S   0  0  0  0  0  0  0  0  0  0  0  0
   -3.5600   -6.4490   11.3950 O   0  0  0  0  0  0  0  0  0  0  0  0
   -3.4410   -7.2050    8.9990 O   0  0  0  0  0  0  0  0  0  0  0  0
   -3.7380   -4.7560    9.4850 N   0  0  0  0  0  0  0  0  0  0  0  0
   -3.7290   -4.4270    8.0320 C   0  0  0  0  0  0  0  0  0  0  0  0
   -4.7560   -3.3590    7.6460 C   0  0  0  0  0  0  0  0  0  0  0  0
   -5.8640   -3.3600    8.5400 O   0  0  0  0  0  0  0  0  0  0  0  0
   -2.7830   -3.9450   10.2880 C   0  0  0  0  0  0  0  0  0  0  0  0
   -1.3820   -4.1410    9.7360 C   0  0  0  0  0  0  0  0  0  0  0  0
   -0.8050   -5.2300    9.7360 O   0  0  0  0  0  0  0  0  0  0  0  0
   -0.7990   -3.0000    9.2290 N   0  0  0  0  0  0  0  0  0  0  0  0
    0.4490   -3.2100    8.5870 O   0  0  0  0  0  0  0  0  0  0  0  0
   -6.5020   -6.3400   11.1590 C   0  0  0  0  0  0  0  0  0  0  0  0
   -7.8870   -6.5090   11.1310 C   0  0  0  0  0  0  0  0  0  0  0  0
  -11.6521   -7.5539    9.1224 H   0  0  0  0  0  0  0  0  0  0  0  0
  -10.6704   -6.3068    8.2812 H   0  0  0  0  0  0  0  0  0  0  0  0
  -10.1354   -8.0215    8.2812 H   0  0  0  0  0  0  0  0  0  0  0  0
   -8.2971   -7.3798    7.8574 H   0  0  0  0  0  0  0  0  0  0  0  0
   -5.8158   -7.0883    7.8942 H   0  0  0  0  0  0  0  0  0  0  0  0
   -2.7271   -4.0611    7.7632 H   0  0  0  0  0  0  0  0  0  0  0  0
   -3.9947   -5.3457    7.4885 H   0  0  0  0  0  0  0  0  0  0  0  0
   -4.2734   -2.3709    7.6745 H   0  0  0  0  0  0  0  0  0  0  0  0
   -5.1258   -3.5824    6.6344 H   0  0  0  0  0  0  0  0  0  0  0  0
   -6.4480   -4.0970    8.2510 H   0  0  0  0  0  0  0  0  0  0  0  0
   -3.0586   -2.8819   10.2256 H   0  0  0  0  0  0  0  0  0  0  0  0
   -2.8162   -4.2654   11.3398 H   0  0  0  0  0  0  0  0  0  0  0  0
   -1.3970   -2.2780    8.8100 H   0  0  0  0  0  0  0  0  0  0  0  0
    0.1940   -3.7120    7.7810 H   0  0  0  0  0  0  0  0  0  0  0  0
   -5.9953   -6.0673   12.0965 H   0  0  0  0  0  0  0  0  0  0  0  0
   -8.4720   -6.3509   12.0490 H   0  0  0  0  0  0  0  0  0  0  0  0
  1  2  1  0
  2  3  1  0
  3  4  2  0
  4  5  1  0
  5  6  2  0
  6  7  1  0
  7  8  2  0
  7  9  2  0
  7 10  1  0
 10 11  1  0
 11 12  1  0
 12 13  1  0
 10 14  1  0
 14 15  1  0
 15 16  2  0
 15 17  1  0
 17 18  1  0
  6 19  1  0
 19 20  2  0
 20  3  1  0
  1 21  1  0
  1 22  1  0
  1 23  1  0
  4 24  1  0
  5 25  1  0
 11 26  1  0
 11 27  1  0
 12 28  1  0
 12 29  1  0
 13 30  1  0
 14 31  1  0
 14 32  1  0
 17 33  1  0
 18 34  1  0
 19 35  1  0
 20 36  1  0
M  END
>  <meeko>  (6) 
{"is_sidechain": [false], "free_energy": -5.761, "intermolecular_energy": -8.484, "internal_energy": -0.681}

$$$$
3nx7_ligand
     RDKit          3D

 36 36  0  0  0  0  0  0  0  0999 V2000
    2.7230   -3.1010    9.9120 C   0  0  0  0  0  0  0  0  0  0  0  0
    2.3710   -4.4780    9.9640 O   0  0  0  0  0  0  0  0  0  0  0  0
    1.0470   -4.7770   10.1280 C   0  0  0  0  0  0  0  0  0  0  0  0
    0.0060   -3.8540   10.2440 C   0  0  0  0  0  0  0  0  0  0  0  0
   -1.3120   -4.2960   10.4060 C   0  0  0  0  0  0  0  0  0  0  0  0
   -1.5880   -5.6670   10.4370 C   0  0  0  0  0  0  0  0  0  0  0  0
   -3.2560   -6.2300   10.6780 S   0  0  0  0  0  0  0  0  0  0  0  0
   -3.2260   -7.6660   10.8460 O   0  0  0  0  0  0  0  0  0  0  0  0
   -3.8700   -5.3850   11.6840 O   0  0  0  0  0  0  0  0  0  0  0  0
   -4.0290   -5.8620    9.2210 N   0  0  0  0  0  0  0  0  0  0  0  0
   -4.9770   -6.8220    8.5880 C   0  0  0  0  0  0  0  0  0  0  0  0
   -6.4450   -6.5160    8.8970 C   0  0  0  0  0  0  0  0  0  0  0  0
   -6.5720   -5.3550    9.7110 O   0  0  0  0  0  0  0  0  0  0  0  0
   -3.2330   -5.0750    8.2410 C   0  0  0  0  0  0  0  0  0  0  0  0
   -4.0070   -3.8240    7.8650 C   0  0  0  0  0  0  0  0  0  0  0  0
   -4.1790   -3.4630    6.7000 O   0  0  0  0  0  0  0  0  0  0  0  0
   -4.5090   -3.1160    8.9360 N   0  0  0  0  0  0  0  0  0  0  0  0
   -5.3510   -2.0300    8.5830 O   0  0  0  0  0  0  0  0  0  0  0  0
   -0.5500   -6.5950   10.3500 C   0  0  0  0  0  0  0  0  0  0  0  0
    0.7610   -6.1440   10.1860 C   0  0  0  0  0  0  0  0  0  0  0  0
    2.8231   -2.7093   10.9350 H   0  0  0  0  0  0  0  0  0  0  0  0
    3.6792   -2.9868    9.3804 H   0  0  0  0  0  0  0  0  0  0  0  0
    1.9389   -2.5419    9.3804 H   0  0  0  0  0  0  0  0  0  0  0  0
    0.2223   -2.7761   10.2080 H   0  0  0  0  0  0  0  0  0  0  0  0
   -2.1292   -3.5668   10.5087 H   0  0  0  0  0  0  0  0  0  0  0  0
   -4.8347   -6.7857    7.4978 H   0  0  0  0  0  0  0  0  0  0  0  0
   -4.7575   -7.8173    9.0017 H   0  0  0  0  0  0  0  0  0  0  0  0
   -6.9832   -6.3514    7.9519 H   0  0  0  0  0  0  0  0  0  0  0  0
   -6.8699   -7.3709    9.4435 H   0  0  0  0  0  0  0  0  0  0  0  0
   -7.3540   -4.8660    9.3700 H   0  0  0  0  0  0  0  0  0  0  0  0
   -2.2702   -4.7914    8.6911 H   0  0  0  0  0  0  0  0  0  0  0  0
   -3.0472   -5.6808    7.3419 H   0  0  0  0  0  0  0  0  0  0  0  0
   -4.7750   -3.6230    9.7880 H   0  0  0  0  0  0  0  0  0  0  0  0
   -6.0000   -2.4490    7.9770 H   0  0  0  0  0  0  0  0  0  0  0  0
   -0.7626   -7.6726   10.4101 H   0  0  0  0  0  0  0  0  0  0  0  0
    1.5796   -6.8739   10.1013 H   0  0  0  0  0  0  0  0  0  0  0  0
  1  2  1  0
  2  3  1  0
  3  4  2  0
  4  5  1  0
  5  6  2  0
  6  7  1  0
  7  8  2  0
  7  9  2  0
  7 10  1  0
 10 11  1  0
 11 12  1  0
 12 13  1  0
 10 14  1  0
 14 15  1  0
 15 16  2  0
 15 17  1  0
 17 18  1  0
  6 19  1  0
 19 20  2  0
 20  3  1  0
  1 21  1  0
  1 22  1  0
  1 23  1  0
  4 24  1  0
  5 25  1  0
 11 26  1  0
 11 27  1  0
 12 28  1  0
 12 29  1  0
 13 30  1  0
 14 31  1  0
 14 32  1  0
 17 33  1  0
 18 34  1  0
 19 35  1  0
 20 36  1  0
M  END
>  <meeko>  (7) 
{"is_sidechain": [false], "free_energy": -5.733, "intermolecular_energy": -8.492, "internal_energy": -0.63}

$$$$
3nx7_ligand
     RDKit          3D

 36 36  0  0  0  0  0  0  0  0999 V2000
    2.8340   -8.5890   10.7990 C   0  0  0  0  0  0  0  0  0  0  0  0
    2.7130   -7.1730   10.8370 O   0  0  0  0  0  0  0  0  0  0  0  0
    1.4480   -6.6550   10.8280 C   0  0  0  0  0  0  0  0  0  0  0  0
    1.0940   -5.3630   10.4320 C   0  0  0  0  0  0  0  0  0  0  0  0
   -0.2460   -4.9590   10.4680 C   0  0  0  0  0  0  0  0  0  0  0  0
   -1.2330   -5.8560   10.8870 C   0  0  0  0  0  0  0  0  0  0  0  0
   -2.9300   -5.3330   10.9670 S   0  0  0  0  0  0  0  0  0  0  0  0
   -3.6340   -6.2280   11.8590 O   0  0  0  0  0  0  0  0  0  0  0  0
   -2.9440   -3.9020   11.2000 O   0  0  0  0  0  0  0  0  0  0  0  0
   -3.5040   -5.5580    9.3940 N   0  0  0  0  0  0  0  0  0  0  0  0
   -3.6430   -6.9240    8.8140 C   0  0  0  0  0  0  0  0  0  0  0  0
   -5.0660   -7.4800    8.9080 C   0  0  0  0  0  0  0  0  0  0  0  0
   -5.2400   -8.2600   10.0870 O   0  0  0  0  0  0  0  0  0  0  0  0
   -3.1060   -4.5250    8.4000 C   0  0  0  0  0  0  0  0  0  0  0  0
   -4.3410   -3.7540    7.9680 C   0  0  0  0  0  0  0  0  0  0  0  0
   -4.9580   -3.9990    6.9300 O   0  0  0  0  0  0  0  0  0  0  0  0
   -4.7250   -2.7520    8.8320 N   0  0  0  0  0  0  0  0  0  0  0  0
   -5.9550   -2.1270    8.5030 O   0  0  0  0  0  0  0  0  0  0  0  0
   -0.8830   -7.1390   11.3110 C   0  0  0  0  0  0  0  0  0  0  0  0
    0.4550   -7.5340   11.2690 C   0  0  0  0  0  0  0  0  0  0  0  0
    2.8676   -8.9818   11.8259 H   0  0  0  0  0  0  0  0  0  0  0  0
    1.9691   -9.0169   10.2708 H   0  0  0  0  0  0  0  0  0  0  0  0
    3.7589   -8.8639   10.2708 H   0  0  0  0  0  0  0  0  0  0  0  0
    1.8697   -4.6615   10.0912 H   0  0  0  0  0  0  0  0  0  0  0  0
   -0.5217   -3.9375   10.1671 H   0  0  0  0  0  0  0  0  0  0  0  0
   -3.3531   -6.8842    7.7536 H   0  0  0  0  0  0  0  0  0  0  0  0
   -2.9928   -7.5930    9.3968 H   0  0  0  0  0  0  0  0  0  0  0  0
   -5.7779   -6.6416    8.9247 H   0  0  0  0  0  0  0  0  0  0  0  0
   -5.2450   -8.1252    8.0353 H   0  0  0  0  0  0  0  0  0  0  0  0
   -5.7790   -9.0390    9.8230 H   0  0  0  0  0  0  0  0  0  0  0  0
   -2.3807   -3.8347    8.8555 H   0  0  0  0  0  0  0  0  0  0  0  0
   -2.6444   -5.0080    7.5261 H   0  0  0  0  0  0  0  0  0  0  0  0
   -4.5380   -2.8600    9.8360 H   0  0  0  0  0  0  0  0  0  0  0  0
   -6.0030   -1.3900    9.1500 H   0  0  0  0  0  0  0  0  0  0  0  0
   -1.6551   -7.8328   11.6751 H   0  0  0  0  0  0  0  0  0  0  0  0
    0.7314   -8.5501   11.5870 H   0  0  0  0  0  0  0  0  0  0  0  0
  1  2  1  0
  2  3  1  0
  3  4  2  0
  4  5  1  0
  5  6  2  0
  6  7  1  0
  7  8  2  0
  7  9  2  0
  7 10  1  0
 10 11  1  0
 11 12  1  0
 12 13  1  0
 10 14  1  0
 14 15  1  0
 15 16  2  0
 15 17  1  0
 17 18  1  0
  6 19  1  0
 19 20  2  0
 20  3  1  0
  1 21  1  0
  1 22  1  0
  1 23  1  0
  4 24  1  0
  5 25  1  0
 11 26  1  0
 11 27  1  0
 12 28  1  0
 12 29  1  0
 13 30  1  0
 14 31  1  0
 14 32  1  0
 17 33  1  0
 18 34  1  0
 19 35  1  0
 20 36  1  0
M  END
>  <meeko>  (8) 
{"is_sidechain": [false], "free_energy": -5.713, "intermolecular_energy": -8.098, "internal_energy": -0.996}

$$$$
3nx7_ligand
     RDKit          3D

 36 36  0  0  0  0  0  0  0  0999 V2000
   -1.2420   -8.9160   14.1210 C   0  0  0  0  0  0  0  0  0  0  0  0
   -2.4800   -8.6010   13.4950 O   0  0  0  0  0  0  0  0  0  0  0  0
   -2.4580   -7.6490   12.5150 C   0  0  0  0  0  0  0  0  0  0  0  0
   -1.4760   -7.5060   11.5320 C   0  0  0  0  0  0  0  0  0  0  0  0
   -1.5760   -6.4840   10.5800 C   0  0  0  0  0  0  0  0  0  0  0  0
   -2.6710   -5.6140   10.6060 C   0  0  0  0  0  0  0  0  0  0  0  0
   -2.7810   -4.2940    9.4210 S   0  0  0  0  0  0  0  0  0  0  0  0
   -3.1970   -3.0970   10.1180 O   0  0  0  0  0  0  0  0  0  0  0  0
   -1.5640   -4.3010    8.6320 O   0  0  0  0  0  0  0  0  0  0  0  0
   -4.0180   -4.7820    8.3770 N   0  0  0  0  0  0  0  0  0  0  0  0
   -4.5080   -6.1890    8.3690 C   0  0  0  0  0  0  0  0  0  0  0  0
   -5.9670   -6.3260    8.8130 C   0  0  0  0  0  0  0  0  0  0  0  0
   -6.4460   -5.1170    9.3930 O   0  0  0  0  0  0  0  0  0  0  0  0
   -4.0340   -4.1350    7.0370 C   0  0  0  0  0  0  0  0  0  0  0  0
   -5.0680   -3.0230    7.0380 C   0  0  0  0  0  0  0  0  0  0  0  0
   -5.6940   -2.6860    6.0310 O   0  0  0  0  0  0  0  0  0  0  0  0
   -5.2570   -2.4140    8.2600 N   0  0  0  0  0  0  0  0  0  0  0  0
   -6.3200   -1.4750    8.2930 O   0  0  0  0  0  0  0  0  0  0  0  0
   -3.6410   -5.7320   11.6020 C   0  0  0  0  0  0  0  0  0  0  0  0
   -3.5340   -6.7570   12.5450 C   0  0  0  0  0  0  0  0  0  0  0  0
   -1.3652   -8.8847   15.2136 H   0  0  0  0  0  0  0  0  0  0  0  0
   -0.9232   -9.9239   13.8167 H   0  0  0  0  0  0  0  0  0  0  0  0
   -0.4803   -8.1830   13.8167 H   0  0  0  0  0  0  0  0  0  0  0  0
   -0.6216   -8.1983   11.5056 H   0  0  0  0  0  0  0  0  0  0  0  0
   -0.7956   -6.3657    9.8138 H   0  0  0  0  0  0  0  0  0  0  0  0
   -4.4157   -6.5848    7.3468 H   0  0  0  0  0  0  0  0  0  0  0  0
   -3.8948   -6.7511    9.0887 H   0  0  0  0  0  0  0  0  0  0  0  0
   -6.5862   -6.5739    7.9383 H   0  0  0  0  0  0  0  0  0  0  0  0
   -6.0268   -7.1221    9.5697 H   0  0  0  0  0  0  0  0  0  0  0  0
   -7.3750   -5.0160    9.0850 H   0  0  0  0  0  0  0  0  0  0  0  0
   -3.0411   -3.7153    6.8181 H   0  0  0  0  0  0  0  0  0  0  0  0
   -4.2887   -4.8790    6.2678 H   0  0  0  0  0  0  0  0  0  0  0  0
   -5.1240   -2.9640    9.1160 H   0  0  0  0  0  0  0  0  0  0  0  0
   -6.8890   -1.8200    9.0160 H   0  0  0  0  0  0  0  0  0  0  0  0
   -4.4822   -5.0244   11.6442 H   0  0  0  0  0  0  0  0  0  0  0  0
   -4.3062   -6.8636   13.3211 H   0  0  0  0  0  0  0  0  0  0  0  0
  1  2  1  0
  2  3  1  0
  3  4  2  0
  4  5  1  0
  5  6  2  0
  6  7  1  0
  7  8  2  0
  7  9  2  0
  7 10  1  0
 10 11  1  0
 11 12  1  0
 12 13  1  0
 10 14  1  0
 14 15  1  0
 15 16  2  0
 15 17  1  0
 17 18  1  0
  6 19  1  0
 19 20  2  0
 20  3  1  0
  1 21  1  0
  1 22  1  0
  1 23  1  0
  4 24  1  0
  5 25  1  0
 11 26  1  0
 11 27  1  0
 12 28  1  0
 12 29  1  0
 13 30  1  0
 14 31  1  0
 14 32  1  0
 17 33  1  0
 18 34  1  0
 19 35  1  0
 20 36  1  0
M  END
>  <meeko>  (9) 
{"is_sidechain": [false], "free_energy": -5.638, "intermolecular_energy": -8.154, "internal_energy": -0.83}

$$$$
