
     RDKit          3D

 17 18  0  0  0  0  0  0  0  0999 V2000
   13.7160   24.6550    3.6450 C   0  0  0  0  0  0  0  0  0  0  0  0
   13.4090   23.7600    2.4760 C   0  0  0  0  0  0  0  0  0  0  0  0
   12.3630   22.8680    2.7820 O   0  0  0  0  0  0  0  0  0  0  0  0
   11.6770   22.3390    1.7240 C   0  0  0  0  0  0  0  0  0  0  0  0
   11.8370   22.7830    0.4450 C   0  0  0  0  0  0  0  0  0  0  0  0
   11.0890   22.2220   -0.5880 C   0  0  0  0  0  0  0  0  0  0  0  0
   11.2390   22.6650   -1.8840 N   0  0  0  0  0  0  0  0  0  0  0  0
   12.2010   23.7160   -2.1950 C   0  0  0  0  0  0  0  0  0  0  0  0
   12.5970   23.8410   -3.6370 C   0  0  0  0  0  0  0  0  0  0  0  0
   13.1880   22.5810   -4.2120 C   0  0  0  0  0  0  0  0  0  0  0  0
   12.2920   21.4310   -4.1700 N   0  0  0  0  0  0  0  0  0  0  0  0
   10.8750   21.7620   -4.2400 C   0  0  0  0  0  0  0  0  0  0  0  0
   10.2930   22.1740   -2.8940 C   0  0  0  0  0  0  0  0  0  0  0  0
   10.2110   21.1840   -0.2720 C   0  0  0  0  0  0  0  0  0  0  0  0
   10.0580   20.7580    0.9520 N   0  0  0  0  0  0  0  0  0  0  0  0
   10.7480   21.2990    1.9440 C   0  0  0  0  0  0  0  0  0  0  0  0
   10.4820   20.6690    3.7170 Br  0  0  0  0  0  0  0  0  0  0  0  0
  2  1  1  0
  3  2  1  0
  4  3  1  0
  5  4  2  0
  6  5  1  0
  7  6  1  0
  8  7  1  0
  9  8  1  0
 10  9  1  0
 11 10  1  0
 12 11  1  0
 13 12  1  0
 13  7  1  0
 14  6  2  0
 15 14  1  0
 16 15  2  0
 16  4  1  0
 17 16  1  0
M  CHG  1  11   1
M  END
$$$$
