
     RDKit          3D

 10 10  0  0  0  0  0  0  0  0999 V2000
    2.8610    2.8740   -7.1710 O   0  0  0  0  0  0  0  0  0  0  0  0
    1.5660    2.3010   -7.0120 C   0  0  0  0  0  0  0  0  0  0  0  0
    1.2870    1.9970   -5.5370 C   0  0  1  0  0  0  0  0  0  0  0  0
    2.2730    1.0560   -5.0320 N   0  0  0  0  0  0  0  0  0  0  0  0
    2.2320    0.7650   -3.6950 N   0  0  0  0  0  0  0  0  0  0  0  0
    1.9870    1.8420   -2.7390 C   0  0  0  0  0  0  0  0  0  0  0  0
    0.9560    2.8290   -3.2440 C   0  0  1  0  0  0  0  0  0  0  0  0
    0.8890    3.9610   -2.3760 O   0  0  0  0  0  0  0  0  0  0  0  0
    1.2780    3.2410   -4.6680 C   0  0  2  0  0  0  0  0  0  0  0  0
    0.3720    4.2130   -5.1620 O   0  0  0  0  0  0  0  0  0  0  0  0
  2  1  1  0
  3  2  1  6
  4  3  1  0
  5  4  1  0
  6  5  1  0
  7  6  1  0
  7  8  1  1
  9  3  1  0
  9  7  1  0
  9 10  1  6
M  CHG  2   4   1   5   1
M  END
$$$$
