
     RDKit          3D

 16 17  0  0  0  0  0  0  0  0999 V2000
   29.7840   10.2770  -21.6210 C   0  0  0  0  0  0  0  0  0  0  0  0
   28.5250    9.4710  -21.3940 C   0  0  0  0  0  0  0  0  0  0  0  0
   28.5880    8.3850  -20.8670 O   0  0  0  0  0  0  0  0  0  0  0  0
   27.3520   10.0350  -21.7970 N   0  0  0  0  0  0  0  0  0  0  0  0
   26.0500    9.3820  -21.6510 C   0  0  1  0  0  0  0  0  0  0  0  0
   26.2070    7.9410  -22.1570 C   0  0  0  0  0  0  0  0  0  0  0  0
   25.2730    7.0050  -21.5830 N   0  0  0  0  0  0  0  0  0  0  0  0
   25.6680    5.6090  -21.8220 C   0  0  0  0  0  0  0  0  0  0  0  0
   25.4490    4.8480  -20.5050 C   0  0  0  0  0  0  0  0  0  0  0  0
   24.5600    5.7880  -19.7020 C   0  0  2  0  0  0  0  0  0  0  0  0
   23.2130    5.6830  -20.1870 O   0  0  0  0  0  0  0  0  0  0  0  0
   25.2150    7.0940  -20.1340 C   0  0  2  0  0  0  0  0  0  0  0  0
   24.6030    8.4230  -19.8010 C   0  0  1  0  0  0  0  0  0  0  0  0
   24.2880    8.4960  -18.4070 O   0  0  0  0  0  0  0  0  0  0  0  0
   25.6190    9.4830  -20.1650 C   0  0  2  0  0  0  0  0  0  0  0  0
   25.0810   10.7710  -19.9340 O   0  0  0  0  0  0  0  0  0  0  0  0
  2  1  1  0
  3  2  2  0
  4  2  1  0
  5  4  1  1
  6  5  1  0
  7  6  1  0
  8  7  1  0
  9  8  1  0
 10  9  1  0
 10 11  1  6
 12 10  1  0
 12  7  1  6
 13 12  1  0
 13 14  1  1
 15 13  1  0
 15  5  1  0
 15 16  1  6
M  CHG  1   7   1
M  END
$$$$
