
     RDKit          3D

 37 41  0  0  0  0  0  0  0  0999 V2000
   -4.3030   25.9370   11.9670 C   0  0  0  0  0  0  0  0  0  0  0  0
   -3.2930   25.2810   11.0930 C   0  0  0  0  0  0  0  0  0  0  0  0
   -3.3230   25.5020    9.7390 C   0  0  0  0  0  0  0  0  0  0  0  0
   -4.3510   26.4020    9.1360 C   0  0  2  0  0  0  0  0  0  0  0  0
   -5.3580   25.6870    8.2800 C   0  0  0  0  0  0  0  0  0  0  0  0
   -5.6770   26.6800    7.1770 C   0  0  2  0  0  0  0  0  0  0  0  0
   -5.9470   26.0120    5.8570 C   0  0  0  0  0  0  0  0  0  0  0  0
   -4.4310   27.5370    7.1470 C   0  0  0  0  0  0  0  0  0  0  0  0
   -4.0900   28.2670    6.2770 O   0  0  0  0  0  0  0  0  0  0  0  0
   -3.6890   27.3350    8.2970 O   0  0  0  0  0  0  0  0  0  0  0  0
   -2.3120   24.9020    8.8360 C   0  0  0  0  0  0  0  0  0  0  0  0
   -1.4730   23.8240    9.4400 C   0  0  0  0  0  0  0  0  0  0  0  0
   -1.0010   24.1170   10.8570 C   0  0  2  0  0  0  0  0  0  0  0  0
   -0.1530   25.3840   10.8100 C   0  0  0  0  0  0  0  0  0  0  0  0
    1.1730   25.2200   10.2490 C   0  0  0  0  0  0  0  0  0  0  0  0
    1.9420   24.2230   11.0440 C   0  0  0  0  0  0  0  0  0  0  0  0
    1.1600   23.0590   11.3310 N   0  0  0  0  0  0  0  0  0  0  0  0
   -0.1360   22.9820   11.3680 C   0  0  0  0  0  0  0  0  0  0  0  0
   -0.7820   21.7160   11.7950 C   0  0  0  0  0  0  0  0  0  0  0  0
    0.1900   20.6900   12.4020 C   0  0  0  0  0  0  0  0  0  0  0  0
    0.7860   21.2130   13.6540 C   0  0  0  0  0  0  0  0  0  0  0  0
    1.6870   20.5880   14.4400 C   0  0  0  0  0  0  0  0  0  0  0  0
    2.1770   19.2080   14.1700 C   0  0  0  0  0  0  0  0  0  0  0  0
    2.2160   21.2950   15.6620 C   0  0  2  0  0  0  0  0  0  0  0  0
    1.1780   21.9770   16.3240 O   0  0  0  0  0  0  0  0  0  0  0  0
    1.5600   23.3380   16.5170 C   0  0  2  0  0  0  0  0  0  0  0  0
    0.5640   24.2460   15.8010 C   0  0  0  0  0  0  0  0  0  0  0  0
   -0.8340   23.8950   16.0980 C   0  0  0  0  0  0  0  0  0  0  0  0
   -1.8380   24.8970   15.4960 C   0  0  2  0  0  0  0  0  0  0  0  0
   -2.8820   25.1140   16.4060 O   0  0  0  0  0  0  0  0  0  0  0  0
   -2.3430   24.3450   14.2040 C   0  0  0  0  0  0  0  0  0  0  0  0
   -3.3900   23.2830   14.2710 C   0  0  0  0  0  0  0  0  0  0  0  0
   -1.8370   24.8360   13.0810 C   0  0  0  0  0  0  0  0  0  0  0  0
   -2.2510   24.3560   11.7350 C   0  0  1  0  0  0  0  0  0  0  0  0
    2.9190   23.5540   15.9540 C   0  0  0  0  0  0  0  0  0  0  0  0
    3.2850   22.3000   15.2420 C   0  0  1  0  0  0  0  0  0  0  0  0
    4.6470   21.8280   15.6150 C   0  0  0  0  0  0  0  0  0  0  0  0
  2  1  1  0
  3  2  2  0
  4  3  1  6
  5  4  1  0
  6  5  1  0
  6  7  1  6
  8  6  1  0
  9  8  2  0
 10  4  1  0
 10  8  1  0
 11  3  1  0
 12 11  1  0
 13 12  1  6
 14 13  1  0
 15 14  1  0
 16 15  1  0
 17 16  1  0
 18 13  1  0
 18 17  2  0
 19 18  1  0
 20 19  1  0
 21 20  1  0
 22 21  2  3
 23 22  1  0
 24 22  1  6
 25 24  1  0
 26 25  1  0
 26 27  1  6
 28 27  1  0
 29 28  1  0
 29 30  1  1
 31 29  1  0
 32 31  1  0
 33 31  2  3
 34 13  1  0
 34 33  1  1
 34  2  1  0
 35 26  1  0
 36 24  1  0
 36 35  1  0
 36 37  1  1
M  CHG  1  17   1
M  END
$$$$
