4gid_ligand
     RDKit          3D

 95 97  0  0  0  0  0  0  0  0999 V2000
   -1.1020   -1.3850  -12.5020 C   0  0  0  0  0  0  0  0  0  0  0  0
    0.3480   -1.0210  -12.1750 C   0  0  0  0  0  0  0  0  0  0  0  0
    1.2800   -1.5600  -13.2600 C   0  0  0  0  0  0  0  0  0  0  0  0
    0.5310    0.4980  -12.0350 C   0  0  0  0  0  0  0  0  0  0  0  0
    0.3560    0.9590  -10.6680 N   0  0  0  0  0  0  0  0  0  0  0  0
    1.3510    1.6480  -10.0030 C   0  0  0  0  0  0  0  0  0  0  0  0
    2.3670    2.0630  -10.5560 O   0  0  0  0  0  0  0  0  0  0  0  0
    1.0400    2.0210   -8.5400 C   0  0  1  0  0  0  0  0  0  0  0  0
    2.3250    2.1880   -7.7490 N   0  0  0  0  0  0  0  0  0  0  0  0
    2.9430    0.9200   -7.2450 C   0  0  0  0  0  0  0  0  0  0  0  0
    4.4000    0.7490   -7.7610 C   0  0  2  0  0  0  0  0  0  0  0  0
    4.8880   -0.7080   -7.5530 C   0  0  0  0  0  0  0  0  0  0  0  0
    6.3910   -0.8780   -7.5740 C   0  0  0  0  0  0  0  0  0  0  0  0
    7.1340   -0.5240   -8.7090 C   0  0  0  0  0  0  0  0  0  0  0  0
    8.5160   -0.7200   -8.7420 C   0  0  0  0  0  0  0  0  0  0  0  0
    9.1710   -1.2610   -7.6380 C   0  0  0  0  0  0  0  0  0  0  0  0
    8.4480   -1.5960   -6.4960 C   0  0  0  0  0  0  0  0  0  0  0  0
    7.0660   -1.3980   -6.4600 C   0  0  0  0  0  0  0  0  0  0  0  0
    5.3460    1.7090   -7.1610 N   0  0  0  0  0  0  0  0  0  0  0  0
    5.7190    2.9000   -7.7390 C   0  0  0  0  0  0  0  0  0  0  0  0
    5.2280    3.2810   -8.7970 O   0  0  0  0  0  0  0  0  0  0  0  0
    6.7230    3.7260   -7.0180 C   0  0  0  0  0  0  0  0  0  0  0  0
    7.8730    3.1620   -6.4560 C   0  0  0  0  0  0  0  0  0  0  0  0
    8.7720    3.9620   -5.7370 C   0  0  0  0  0  0  0  0  0  0  0  0
    9.9770    3.3020   -5.1660 C   0  0  0  0  0  0  0  0  0  0  0  0
    9.8510    2.2160   -4.6120 O   0  0  0  0  0  0  0  0  0  0  0  0
   11.1680    3.9750   -5.2840 N   0  0  0  0  0  0  0  0  0  0  0  0
   12.4070    3.4500   -4.7290 C   0  0  2  0  0  0  0  0  0  0  0  0
   13.0860    4.4780   -3.8190 C   0  0  0  0  0  0  0  0  0  0  0  0
   13.3010    2.9810   -5.8630 C   0  0  0  0  0  0  0  0  0  0  0  0
   14.6490    2.6460   -5.6580 C   0  0  0  0  0  0  0  0  0  0  0  0
   15.4530    2.2420   -6.7250 C   0  0  0  0  0  0  0  0  0  0  0  0
   14.9250    2.1750   -8.0120 C   0  0  0  0  0  0  0  0  0  0  0  0
   13.5930    2.5140   -8.2340 C   0  0  0  0  0  0  0  0  0  0  0  0
   12.7870    2.9190   -7.1690 C   0  0  0  0  0  0  0  0  0  0  0  0
    8.5250    5.3300   -5.5890 C   0  0  0  0  0  0  0  0  0  0  0  0
    7.3760    5.8920   -6.1540 C   0  0  0  0  0  0  0  0  0  0  0  0
    7.0210    7.2720   -5.9210 N   0  0  0  0  0  0  0  0  0  0  0  0
    7.6920    8.2600   -6.8040 C   0  0  0  0  0  0  0  0  0  0  0  0
    7.0260    7.6650   -4.2450 S   0  0  0  0  0  0  0  0  0  0  0  0
    8.6900    8.2550   -4.0070 C   0  0  0  0  0  0  0  0  0  0  0  0
    6.8470    6.4350   -3.5020 O   0  0  0  0  0  0  0  0  0  0  0  0
    6.1340    8.7910   -4.0460 O   0  0  0  0  0  0  0  0  0  0  0  0
    6.4680    5.0900   -6.8490 C   0  0  0  0  0  0  0  0  0  0  0  0
    0.2350    3.3390   -8.4690 C   0  0  1  0  0  0  0  0  0  0  0  0
    1.0950    4.5360   -8.0840 C   0  0  0  0  0  0  0  0  0  0  0  0
   -0.3420    3.5810   -9.7690 O   0  0  0  0  0  0  0  0  0  0  0  0
   -1.6643   -1.5262  -11.5672 H   0  0  0  0  0  0  0  0  0  0  0  0
   -1.5606   -0.5741  -13.0869 H   0  0  0  0  0  0  0  0  0  0  0  0
   -1.1233   -2.3164  -13.0869 H   0  0  0  0  0  0  0  0  0  0  0  0
    0.6016   -1.4829  -11.2094 H   0  0  0  0  0  0  0  0  0  0  0  0
    2.1408   -2.0578  -12.7898 H   0  0  0  0  0  0  0  0  0  0  0  0
    0.7353   -2.2825  -13.8855 H   0  0  0  0  0  0  0  0  0  0  0  0
    1.6346   -0.7275  -13.8855 H   0  0  0  0  0  0  0  0  0  0  0  0
    1.5451    0.7628  -12.3689 H   0  0  0  0  0  0  0  0  0  0  0  0
   -0.2394    0.9843  -12.6515 H   0  0  0  0  0  0  0  0  0  0  0  0
   -0.3900    0.5260  -10.1260 H   0  0  0  0  0  0  0  0  0  0  0  0
    0.4426    1.2050   -8.1072 H   0  0  0  0  0  0  0  0  0  0  0  0
    2.1380    2.8130   -6.9380 H   0  0  0  0  0  0  0  0  0  0  0  0
    2.9700    2.7360   -8.3340 H   0  0  0  0  0  0  0  0  0  0  0  0
    2.9539    0.9407   -6.1452 H   0  0  0  0  0  0  0  0  0  0  0  0
    2.3451    0.0745   -7.6160 H   0  0  0  0  0  0  0  0  0  0  0  0
    4.3765    0.9700   -8.8383 H   0  0  0  0  0  0  0  0  0  0  0  0
    4.5167   -1.0583   -6.5786 H   0  0  0  0  0  0  0  0  0  0  0  0
    4.4965   -1.2916   -8.3993 H   0  0  0  0  0  0  0  0  0  0  0  0
    6.6239   -0.0882   -9.5807 H   0  0  0  0  0  0  0  0  0  0  0  0
    9.0883   -0.4469   -9.6408 H   0  0  0  0  0  0  0  0  0  0  0  0
   10.2585   -1.4234   -7.6683 H   0  0  0  0  0  0  0  0  0  0  0  0
    8.9658   -2.0169   -5.6215 H   0  0  0  0  0  0  0  0  0  0  0  0
    6.5022   -1.6520   -5.5503 H   0  0  0  0  0  0  0  0  0  0  0  0
    5.9100    1.3690   -6.3910 H   0  0  0  0  0  0  0  0  0  0  0  0
    8.0726    2.0872   -6.5786 H   0  0  0  0  0  0  0  0  0  0  0  0
   11.1850    4.9370   -5.5940 H   0  0  0  0  0  0  0  0  0  0  0  0
   12.1899    2.5826   -4.0883 H   0  0  0  0  0  0  0  0  0  0  0  0
   12.9090    4.2100   -2.7670 H   0  0  0  0  0  0  0  0  0  0  0  0
   14.1678    4.4862   -4.0183 H   0  0  0  0  0  0  0  0  0  0  0  0
   12.6689    5.4762   -4.0183 H   0  0  0  0  0  0  0  0  0  0  0  0
   15.0760    2.7025   -4.6458 H   0  0  0  0  0  0  0  0  0  0  0  0
   16.5058    1.9760   -6.5491 H   0  0  0  0  0  0  0  0  0  0  0  0
   15.5593    1.8548   -8.8517 H   0  0  0  0  0  0  0  0  0  0  0  0
   13.1753    2.4626   -9.2503 H   0  0  0  0  0  0  0  0  0  0  0  0
   11.7378    3.1927   -7.3542 H   0  0  0  0  0  0  0  0  0  0  0  0
    9.2315    5.9616   -5.0305 H   0  0  0  0  0  0  0  0  0  0  0  0
    8.2040    9.0139   -6.1881 H   0  0  0  0  0  0  0  0  0  0  0  0
    8.4274    7.7443   -7.4389 H   0  0  0  0  0  0  0  0  0  0  0  0
    6.9415    8.7535   -7.4389 H   0  0  0  0  0  0  0  0  0  0  0  0
    8.9019    8.3301   -2.9302 H   0  0  0  0  0  0  0  0  0  0  0  0
    9.3979    7.5531   -4.4719 H   0  0  0  0  0  0  0  0  0  0  0  0
    8.7976    9.2461   -4.4719 H   0  0  0  0  0  0  0  0  0  0  0  0
    5.5505    5.5325   -7.2642 H   0  0  0  0  0  0  0  0  0  0  0  0
   -0.5336    3.2257   -7.6903 H   0  0  0  0  0  0  0  0  0  0  0  0
    1.1491    4.6112   -6.9879 H   0  0  0  0  0  0  0  0  0  0  0  0
    2.1079    4.4065   -8.4930 H   0  0  0  0  0  0  0  0  0  0  0  0
    0.6491    5.4546   -8.4930 H   0  0  0  0  0  0  0  0  0  0  0  0
   -0.2630    2.7470  -10.2800 H   0  0  0  0  0  0  0  0  0  0  0  0
  1  2  1  0
  2  3  1  0
  2  4  1  0
  4  5  1  0
  5  6  1  0
  6  7  2  0
  6  8  1  0
  8  9  1  0
  9 10  1  0
 10 11  1  0
 11 12  1  0
 12 13  1  0
 13 14  2  0
 14 15  1  0
 15 16  2  0
 16 17  1  0
 17 18  2  0
 11 19  1  0
 19 20  1  0
 20 21  2  0
 20 22  1  0
 22 23  2  0
 23 24  1  0
 24 25  1  0
 25 26  2  0
 25 27  1  0
 27 28  1  0
 28 29  1  0
 28 30  1  0
 30 31  2  0
 31 32  1  0
 32 33  2  0
 33 34  1  0
 34 35  2  0
 24 36  2  0
 36 37  1  0
 37 38  1  0
 38 39  1  0
 38 40  1  0
 40 41  1  0
 40 42  2  0
 40 43  2  0
 37 44  2  0
  8 45  1  0
 45 46  1  0
 45 47  1  0
 18 13  1  0
 44 22  1  0
 35 30  1  0
  1 48  1  0
  1 49  1  0
  1 50  1  0
  2 51  1  0
  3 52  1  0
  3 53  1  0
  3 54  1  0
  4 55  1  0
  4 56  1  0
  5 57  1  0
  8 58  1  1
  9 59  1  0
  9 60  1  0
 10 61  1  0
 10 62  1  0
 11 63  1  6
 12 64  1  0
 12 65  1  0
 14 66  1  0
 15 67  1  0
 16 68  1  0
 17 69  1  0
 18 70  1  0
 19 71  1  0
 23 72  1  0
 27 73  1  0
 28 74  1  1
 29 75  1  0
 29 76  1  0
 29 77  1  0
 31 78  1  0
 32 79  1  0
 33 80  1  0
 34 81  1  0
 35 82  1  0
 36 83  1  0
 39 84  1  0
 39 85  1  0
 39 86  1  0
 41 87  1  0
 41 88  1  0
 41 89  1  0
 44 90  1  0
 45 91  1  1
 46 92  1  0
 46 93  1  0
 46 94  1  0
 47 95  1  0
M  CHG  1   9   1
M  END
>  <meeko>  (1) 
{"is_sidechain": [false], "free_energy": -9.333, "intermolecular_energy": -18.336, "internal_energy": -2.491}

$$$$
4gid_ligand
     RDKit          3D

 95 97  0  0  0  0  0  0  0  0999 V2000
   -1.1700   -1.4440  -12.6150 C   0  0  0  0  0  0  0  0  0  0  0  0
    0.2550   -1.0170  -12.2570 C   0  0  0  0  0  0  0  0  0  0  0  0
    1.2350   -1.5270  -13.3140 C   0  0  0  0  0  0  0  0  0  0  0  0
    0.3720    0.5090  -12.1280 C   0  0  0  0  0  0  0  0  0  0  0  0
    0.1440    0.9740  -10.7690 N   0  0  0  0  0  0  0  0  0  0  0  0
    1.0950    1.7080  -10.0870 C   0  0  0  0  0  0  0  0  0  0  0  0
    2.1070    2.1580  -10.6190 O   0  0  0  0  0  0  0  0  0  0  0  0
    0.7330    2.0800   -8.6350 C   0  0  1  0  0  0  0  0  0  0  0  0
    1.9880    2.2290   -7.7950 N   0  0  0  0  0  0  0  0  0  0  0  0
    2.5680    0.9510   -7.2700 C   0  0  0  0  0  0  0  0  0  0  0  0
    4.0600    0.7880   -7.6780 C   0  0  2  0  0  0  0  0  0  0  0  0
    4.5030   -0.6930   -7.5610 C   0  0  0  0  0  0  0  0  0  0  0  0
    5.9950   -0.9140   -7.6610 C   0  0  0  0  0  0  0  0  0  0  0  0
    6.7740   -0.1440   -8.5380 C   0  0  0  0  0  0  0  0  0  0  0  0
    8.1450   -0.3770   -8.6590 C   0  0  0  0  0  0  0  0  0  0  0  0
    8.7540   -1.3730   -7.9000 C   0  0  0  0  0  0  0  0  0  0  0  0
    7.9970   -2.1290   -7.0100 C   0  0  0  0  0  0  0  0  0  0  0  0
    6.6260   -1.8960   -6.8840 C   0  0  0  0  0  0  0  0  0  0  0  0
    4.9700    1.6690   -6.9220 N   0  0  0  0  0  0  0  0  0  0  0  0
    5.2760    2.9620   -7.2750 C   0  0  0  0  0  0  0  0  0  0  0  0
    4.7490    3.5050   -8.2410 O   0  0  0  0  0  0  0  0  0  0  0  0
    6.2530    3.6910   -6.4240 C   0  0  0  0  0  0  0  0  0  0  0  0
    6.1730    5.0740   -6.2310 C   0  0  0  0  0  0  0  0  0  0  0  0
    7.1410    5.7380   -5.4650 C   0  0  0  0  0  0  0  0  0  0  0  0
    6.9970    7.2080   -5.2960 C   0  0  0  0  0  0  0  0  0  0  0  0
    5.9880    7.6470   -4.7580 O   0  0  0  0  0  0  0  0  0  0  0  0
    8.0150    7.9910   -5.7830 N   0  0  0  0  0  0  0  0  0  0  0  0
    7.9690    9.4440   -5.7140 C   0  0  2  0  0  0  0  0  0  0  0  0
    8.1540   10.0710   -7.0980 C   0  0  0  0  0  0  0  0  0  0  0  0
    8.9950    9.9270   -4.7040 C   0  0  0  0  0  0  0  0  0  0  0  0
    9.2400   11.2930   -4.4870 C   0  0  0  0  0  0  0  0  0  0  0  0
   10.2080   11.7060   -3.5700 C   0  0  0  0  0  0  0  0  0  0  0  0
   10.9500   10.7630   -2.8630 C   0  0  0  0  0  0  0  0  0  0  0  0
   10.7260    9.4050   -3.0740 C   0  0  0  0  0  0  0  0  0  0  0  0
    9.7600    8.9890   -3.9910 C   0  0  0  0  0  0  0  0  0  0  0  0
    8.1850    5.0130   -4.8810 C   0  0  0  0  0  0  0  0  0  0  0  0
    8.2620    3.6300   -5.0730 C   0  0  0  0  0  0  0  0  0  0  0  0
    9.3890    2.8660   -4.5930 N   0  0  0  0  0  0  0  0  0  0  0  0
   10.3010    2.3470   -5.6450 C   0  0  0  0  0  0  0  0  0  0  0  0
    8.9260    1.7190   -3.3960 S   0  0  0  0  0  0  0  0  0  0  0  0
    8.7640    0.2260   -4.3530 C   0  0  0  0  0  0  0  0  0  0  0  0
    7.6240    2.1060   -2.8940 O   0  0  0  0  0  0  0  0  0  0  0  0
   10.0470    1.5370   -2.4930 O   0  0  0  0  0  0  0  0  0  0  0  0
    7.3110    2.9740   -5.8570 C   0  0  0  0  0  0  0  0  0  0  0  0
   -0.0570    3.4080   -8.5900 C   0  0  1  0  0  0  0  0  0  0  0  0
    0.8080    4.5970   -8.1890 C   0  0  0  0  0  0  0  0  0  0  0  0
   -0.5980    3.6510   -9.9060 O   0  0  0  0  0  0  0  0  0  0  0  0
   -1.7439   -1.6160  -11.6925 H   0  0  0  0  0  0  0  0  0  0  0  0
   -1.6531   -0.6512  -13.2049 H   0  0  0  0  0  0  0  0  0  0  0  0
   -1.1375   -2.3719  -13.2049 H   0  0  0  0  0  0  0  0  0  0  0  0
    0.5035   -1.4590  -11.2808 H   0  0  0  0  0  0  0  0  0  0  0  0
    2.1060   -1.9803  -12.8181 H   0  0  0  0  0  0  0  0  0  0  0  0
    0.7374   -2.2805  -13.9422 H   0  0  0  0  0  0  0  0  0  0  0  0
    1.5666   -0.6871  -13.9422 H   0  0  0  0  0  0  0  0  0  0  0  0
    1.3824    0.8125  -12.4395 H   0  0  0  0  0  0  0  0  0  0  0  0
   -0.4017    0.9580  -12.7682 H   0  0  0  0  0  0  0  0  0  0  0  0
   -0.5970    0.5170  -10.2420 H   0  0  0  0  0  0  0  0  0  0  0  0
    0.1098    1.2697   -8.2287 H   0  0  0  0  0  0  0  0  0  0  0  0
    1.7800    2.8550   -6.9910 H   0  0  0  0  0  0  0  0  0  0  0  0
    2.6640    2.7680   -8.3540 H   0  0  0  0  0  0  0  0  0  0  0  0
    2.4962    0.9510   -6.1723 H   0  0  0  0  0  0  0  0  0  0  0  0
    2.0003    0.1133   -7.7013 H   0  0  0  0  0  0  0  0  0  0  0  0
    4.1300    1.1014   -8.7301 H   0  0  0  0  0  0  0  0  0  0  0  0
    4.1640   -1.0765   -6.5873 H   0  0  0  0  0  0  0  0  0  0  0  0
    4.0520   -1.2213   -8.4140 H   0  0  0  0  0  0  0  0  0  0  0  0
    6.3006    0.6495   -9.1349 H   0  0  0  0  0  0  0  0  0  0  0  0
    8.7453    0.2272   -9.3551 H   0  0  0  0  0  0  0  0  0  0  0  0
    9.8326   -1.5621   -8.0038 H   0  0  0  0  0  0  0  0  0  0  0  0
    8.4792   -2.9110   -6.4051 H   0  0  0  0  0  0  0  0  0  0  0  0
    6.0358   -2.4880   -6.1690 H   0  0  0  0  0  0  0  0  0  0  0  0
    5.5630    1.2230   -6.2310 H   0  0  0  0  0  0  0  0  0  0  0  0
    5.3468    5.6430   -6.6823 H   0  0  0  0  0  0  0  0  0  0  0  0
    8.7370    7.5900   -6.3670 H   0  0  0  0  0  0  0  0  0  0  0  0
    6.9758    9.7686   -5.3703 H   0  0  0  0  0  0  0  0  0  0  0  0
    8.4637   11.1206   -6.9866 H   0  0  0  0  0  0  0  0  0  0  0  0
    8.9271    9.5173   -7.6510 H   0  0  0  0  0  0  0  0  0  0  0  0
    7.2042   10.0257   -7.6510 H   0  0  0  0  0  0  0  0  0  0  0  0
    8.6631   12.0450   -5.0454 H   0  0  0  0  0  0  0  0  0  0  0  0
   10.3852   12.7791   -3.4053 H   0  0  0  0  0  0  0  0  0  0  0  0
   11.7113   11.0903   -2.1396 H   0  0  0  0  0  0  0  0  0  0  0  0
   11.3116    8.6589   -2.5169 H   0  0  0  0  0  0  0  0  0  0  0  0
    9.5956    7.9142   -4.1575 H   0  0  0  0  0  0  0  0  0  0  0  0
    8.9427    5.5289   -4.2729 H   0  0  0  0  0  0  0  0  0  0  0  0
   11.1642    1.8558   -5.1722 H   0  0  0  0  0  0  0  0  0  0  0  0
    9.7628    1.6199   -6.2708 H   0  0  0  0  0  0  0  0  0  0  0  0
   10.6512    3.1811   -6.2708 H   0  0  0  0  0  0  0  0  0  0  0  0
    8.6705   -0.6355   -3.6754 H   0  0  0  0  0  0  0  0  0  0  0  0
    7.8678    0.2925   -4.9874 H   0  0  0  0  0  0  0  0  0  0  0  0
    9.6536    0.0987   -4.9874 H   0  0  0  0  0  0  0  0  0  0  0  0
    7.3943    1.8907   -6.0290 H   0  0  0  0  0  0  0  0  0  0  0  0
   -0.8461    3.3077   -7.8302 H   0  0  0  0  0  0  0  0  0  0  0  0
    0.8556    4.6624   -7.0920 H   0  0  0  0  0  0  0  0  0  0  0  0
    1.8227    4.4650   -8.5928 H   0  0  0  0  0  0  0  0  0  0  0  0
    0.3701    5.5218   -8.5928 H   0  0  0  0  0  0  0  0  0  0  0  0
   -0.0960    4.4010  -10.2900 H   0  0  0  0  0  0  0  0  0  0  0  0
  1  2  1  0
  2  3  1  0
  2  4  1  0
  4  5  1  0
  5  6  1  0
  6  7  2  0
  6  8  1  0
  8  9  1  0
  9 10  1  0
 10 11  1  0
 11 12  1  0
 12 13  1  0
 13 14  2  0
 14 15  1  0
 15 16  2  0
 16 17  1  0
 17 18  2  0
 11 19  1  0
 19 20  1  0
 20 21  2  0
 20 22  1  0
 22 23  2  0
 23 24  1  0
 24 25  1  0
 25 26  2  0
 25 27  1  0
 27 28  1  0
 28 29  1  0
 28 30  1  0
 30 31  2  0
 31 32  1  0
 32 33  2  0
 33 34  1  0
 34 35  2  0
 24 36  2  0
 36 37  1  0
 37 38  1  0
 38 39  1  0
 38 40  1  0
 40 41  1  0
 40 42  2  0
 40 43  2  0
 37 44  2  0
  8 45  1  0
 45 46  1  0
 45 47  1  0
 18 13  1  0
 44 22  1  0
 35 30  1  0
  1 48  1  0
  1 49  1  0
  1 50  1  0
  2 51  1  0
  3 52  1  0
  3 53  1  0
  3 54  1  0
  4 55  1  0
  4 56  1  0
  5 57  1  0
  8 58  1  1
  9 59  1  0
  9 60  1  0
 10 61  1  0
 10 62  1  0
 11 63  1  6
 12 64  1  0
 12 65  1  0
 14 66  1  0
 15 67  1  0
 16 68  1  0
 17 69  1  0
 18 70  1  0
 19 71  1  0
 23 72  1  0
 27 73  1  0
 28 74  1  1
 29 75  1  0
 29 76  1  0
 29 77  1  0
 31 78  1  0
 32 79  1  0
 33 80  1  0
 34 81  1  0
 35 82  1  0
 36 83  1  0
 39 84  1  0
 39 85  1  0
 39 86  1  0
 41 87  1  0
 41 88  1  0
 41 89  1  0
 44 90  1  0
 45 91  1  1
 46 92  1  0
 46 93  1  0
 46 94  1  0
 47 95  1  0
M  CHG  1   9   1
M  END
>  <meeko>  (2) 
{"is_sidechain": [false], "free_energy": -9.093, "intermolecular_energy": -17.759, "internal_energy": -2.596}

$$$$
4gid_ligand
     RDKit          3D

 95 97  0  0  0  0  0  0  0  0999 V2000
    9.6140   -0.4460   -6.3070 C   0  0  0  0  0  0  0  0  0  0  0  0
    8.5410   -0.2330   -5.2360 C   0  0  0  0  0  0  0  0  0  0  0  0
    8.7390   -1.2280   -4.0930 C   0  0  0  0  0  0  0  0  0  0  0  0
    8.5650    1.2030   -4.6910 C   0  0  0  0  0  0  0  0  0  0  0  0
    8.1380    2.1830   -5.6770 N   0  0  0  0  0  0  0  0  0  0  0  0
    7.3210    3.2430   -5.3360 C   0  0  0  0  0  0  0  0  0  0  0  0
    7.0380    3.5290   -4.1750 O   0  0  0  0  0  0  0  0  0  0  0  0
    6.9060    4.1650   -6.5010 C   0  0  1  0  0  0  0  0  0  0  0  0
    5.3940    4.2590   -6.5920 N   0  0  0  0  0  0  0  0  0  0  0  0
    4.8320    4.2810   -7.9810 C   0  0  0  0  0  0  0  0  0  0  0  0
    4.5510    2.8460   -8.5080 C   0  0  2  0  0  0  0  0  0  0  0  0
    5.8760    2.1200   -8.8570 C   0  0  0  0  0  0  0  0  0  0  0  0
    5.9750    0.7040   -8.3360 C   0  0  0  0  0  0  0  0  0  0  0  0
    6.9310   -0.1820   -8.8520 C   0  0  0  0  0  0  0  0  0  0  0  0
    6.9930   -1.5010   -8.3980 C   0  0  0  0  0  0  0  0  0  0  0  0
    6.1100   -1.9450   -7.4180 C   0  0  0  0  0  0  0  0  0  0  0  0
    5.1700   -1.0690   -6.8810 C   0  0  0  0  0  0  0  0  0  0  0  0
    5.1070    0.2510   -7.3310 C   0  0  0  0  0  0  0  0  0  0  0  0
    3.6200    2.8180   -9.6520 N   0  0  0  0  0  0  0  0  0  0  0  0
    2.4840    2.0450   -9.7140 C   0  0  0  0  0  0  0  0  0  0  0  0
    2.1270    1.3510   -8.7670 O   0  0  0  0  0  0  0  0  0  0  0  0
    1.6840    2.1030  -10.9660 C   0  0  0  0  0  0  0  0  0  0  0  0
    0.8610    3.1930  -11.2640 C   0  0  0  0  0  0  0  0  0  0  0  0
    0.0800    3.1910  -12.4280 C   0  0  0  0  0  0  0  0  0  0  0  0
   -0.7730    4.3820  -12.6880 C   0  0  0  0  0  0  0  0  0  0  0  0
   -0.8100    5.2770  -11.8530 O   0  0  0  0  0  0  0  0  0  0  0  0
   -1.4900    4.3870  -13.8590 N   0  0  0  0  0  0  0  0  0  0  0  0
   -2.3910    5.4770  -14.2040 C   0  0  2  0  0  0  0  0  0  0  0  0
   -3.7340    4.9470  -14.7110 C   0  0  0  0  0  0  0  0  0  0  0  0
   -1.7030    6.3950  -15.1990 C   0  0  0  0  0  0  0  0  0  0  0  0
   -0.3530    6.2320  -15.5530 C   0  0  0  0  0  0  0  0  0  0  0  0
    0.2590    7.1070  -16.4510 C   0  0  0  0  0  0  0  0  0  0  0  0
   -0.4640    8.1620  -17.0030 C   0  0  0  0  0  0  0  0  0  0  0  0
   -1.8000    8.3440  -16.6540 C   0  0  0  0  0  0  0  0  0  0  0  0
   -2.4140    7.4710  -15.7560 C   0  0  0  0  0  0  0  0  0  0  0  0
    0.1330    2.1000  -13.3010 C   0  0  0  0  0  0  0  0  0  0  0  0
    0.9580    1.0120  -13.0030 C   0  0  0  0  0  0  0  0  0  0  0  0
    0.9490   -0.1840  -13.8110 N   0  0  0  0  0  0  0  0  0  0  0  0
    0.5740    0.0120  -15.2350 C   0  0  0  0  0  0  0  0  0  0  0  0
    0.1560   -1.4910  -13.0190 S   0  0  0  0  0  0  0  0  0  0  0  0
   -0.3880   -2.4840  -14.3950 C   0  0  0  0  0  0  0  0  0  0  0  0
   -1.0010   -0.9550  -12.3330 O   0  0  0  0  0  0  0  0  0  0  0  0
    1.1590   -2.2550  -12.3020 O   0  0  0  0  0  0  0  0  0  0  0  0
    1.7170    1.0040  -11.8300 C   0  0  0  0  0  0  0  0  0  0  0  0
    7.4840    5.5850   -6.3080 C   0  0  1  0  0  0  0  0  0  0  0  0
    6.5380    6.5110   -5.5540 C   0  0  0  0  0  0  0  0  0  0  0  0
    8.7140    5.4700   -5.5610 O   0  0  0  0  0  0  0  0  0  0  0  0
   10.5826   -0.6383   -5.8224 H   0  0  0  0  0  0  0  0  0  0  0  0
    9.3403   -1.3073   -6.9340 H   0  0  0  0  0  0  0  0  0  0  0  0
    9.6901    0.4546   -6.9340 H   0  0  0  0  0  0  0  0  0  0  0  0
    7.5596   -0.4008   -5.7036 H   0  0  0  0  0  0  0  0  0  0  0  0
    8.6351   -0.7060   -3.1303 H   0  0  0  0  0  0  0  0  0  0  0  0
    7.9813   -2.0224   -4.1630 H   0  0  0  0  0  0  0  0  0  0  0  0
    9.7431   -1.6718   -4.1630 H   0  0  0  0  0  0  0  0  0  0  0  0
    7.8927    1.2613   -3.8223 H   0  0  0  0  0  0  0  0  0  0  0  0
    9.6040    1.4377   -4.4166 H   0  0  0  0  0  0  0  0  0  0  0  0
    8.2200    1.9190   -6.6570 H   0  0  0  0  0  0  0  0  0  0  0  0
    7.3058    3.7312   -7.4294 H   0  0  0  0  0  0  0  0  0  0  0  0
    5.0830    5.1170   -6.0930 H   0  0  0  0  0  0  0  0  0  0  0  0
    5.0090    3.4930   -6.0230 H   0  0  0  0  0  0  0  0  0  0  0  0
    3.8907    4.8501   -7.9761 H   0  0  0  0  0  0  0  0  0  0  0  0
    5.5726    4.7519   -8.6441 H   0  0  0  0  0  0  0  0  0  0  0  0
    4.0511    2.3067   -7.6899 H   0  0  0  0  0  0  0  0  0  0  0  0
    5.9723    2.0899   -9.9524 H   0  0  0  0  0  0  0  0  0  0  0  0
    6.6807    2.6886   -8.3681 H   0  0  0  0  0  0  0  0  0  0  0  0
    7.6377    0.1645   -9.6204 H   0  0  0  0  0  0  0  0  0  0  0  0
    7.7413   -2.1906   -8.8157 H   0  0  0  0  0  0  0  0  0  0  0  0
    6.1546   -2.9869   -7.0680 H   0  0  0  0  0  0  0  0  0  0  0  0
    4.4765   -1.4175   -6.1015 H   0  0  0  0  0  0  0  0  0  0  0  0
    4.3708    0.9417   -6.8941 H   0  0  0  0  0  0  0  0  0  0  0  0
    3.9530    3.2240  -10.5180 H   0  0  0  0  0  0  0  0  0  0  0  0
    0.8261    4.0557  -10.5824 H   0  0  0  0  0  0  0  0  0  0  0  0
   -1.5560    3.5520  -14.4250 H   0  0  0  0  0  0  0  0  0  0  0  0
   -2.6242    6.0658  -13.3046 H   0  0  0  0  0  0  0  0  0  0  0  0
   -4.3754    4.6939  -13.8540 H   0  0  0  0  0  0  0  0  0  0  0  0
   -4.2257    5.7185  -15.3217 H   0  0  0  0  0  0  0  0  0  0  0  0
   -3.5663    4.0476  -15.3217 H   0  0  0  0  0  0  0  0  0  0  0  0
    0.2277    5.4055  -15.1174 H   0  0  0  0  0  0  0  0  0  0  0  0
    1.3149    6.9634  -16.7238 H   0  0  0  0  0  0  0  0  0  0  0  0
    0.0190    8.8497  -17.7128 H   0  0  0  0  0  0  0  0  0  0  0  0
   -2.3720    9.1777  -17.0873 H   0  0  0  0  0  0  0  0  0  0  0  0
   -3.4675    7.6269  -15.4807 H   0  0  0  0  0  0  0  0  0  0  0  0
   -0.4726    2.0981  -14.2193 H   0  0  0  0  0  0  0  0  0  0  0  0
   -0.3996    0.5209  -15.2911 H   0  0  0  0  0  0  0  0  0  0  0  0
    1.3380    0.6261  -15.7342 H   0  0  0  0  0  0  0  0  0  0  0  0
    0.5059   -0.9658  -15.7342 H   0  0  0  0  0  0  0  0  0  0  0  0
   -0.8847   -3.3907  -14.0192 H   0  0  0  0  0  0  0  0  0  0  0  0
   -1.0952   -1.9056  -15.0076 H   0  0  0  0  0  0  0  0  0  0  0  0
    0.4801   -2.7687  -15.0076 H   0  0  0  0  0  0  0  0  0  0  0  0
    2.3414    0.1319  -11.5858 H   0  0  0  0  0  0  0  0  0  0  0  0
    7.6445    6.0236   -7.3039 H   0  0  0  0  0  0  0  0  0  0  0  0
    6.6771    6.3748   -4.4714 H   0  0  0  0  0  0  0  0  0  0  0  0
    6.7552    7.5552   -5.8231 H   0  0  0  0  0  0  0  0  0  0  0  0
    5.4986    6.2716   -5.8231 H   0  0  0  0  0  0  0  0  0  0  0  0
    8.5560    5.8750   -4.6810 H   0  0  0  0  0  0  0  0  0  0  0  0
  1  2  1  0
  2  3  1  0
  2  4  1  0
  4  5  1  0
  5  6  1  0
  6  7  2  0
  6  8  1  0
  8  9  1  0
  9 10  1  0
 10 11  1  0
 11 12  1  0
 12 13  1  0
 13 14  2  0
 14 15  1  0
 15 16  2  0
 16 17  1  0
 17 18  2  0
 11 19  1  0
 19 20  1  0
 20 21  2  0
 20 22  1  0
 22 23  2  0
 23 24  1  0
 24 25  1  0
 25 26  2  0
 25 27  1  0
 27 28  1  0
 28 29  1  0
 28 30  1  0
 30 31  2  0
 31 32  1  0
 32 33  2  0
 33 34  1  0
 34 35  2  0
 24 36  2  0
 36 37  1  0
 37 38  1  0
 38 39  1  0
 38 40  1  0
 40 41  1  0
 40 42  2  0
 40 43  2  0
 37 44  2  0
  8 45  1  0
 45 46  1  0
 45 47  1  0
 18 13  1  0
 44 22  1  0
 35 30  1  0
  1 48  1  0
  1 49  1  0
  1 50  1  0
  2 51  1  0
  3 52  1  0
  3 53  1  0
  3 54  1  0
  4 55  1  0
  4 56  1  0
  5 57  1  0
  8 58  1  6
  9 59  1  0
  9 60  1  0
 10 61  1  0
 10 62  1  0
 11 63  1  1
 12 64  1  0
 12 65  1  0
 14 66  1  0
 15 67  1  0
 16 68  1  0
 17 69  1  0
 18 70  1  0
 19 71  1  0
 23 72  1  0
 27 73  1  0
 28 74  1  1
 29 75  1  0
 29 76  1  0
 29 77  1  0
 31 78  1  0
 32 79  1  0
 33 80  1  0
 34 81  1  0
 35 82  1  0
 36 83  1  0
 39 84  1  0
 39 85  1  0
 39 86  1  0
 41 87  1  0
 41 88  1  0
 41 89  1  0
 44 90  1  0
 45 91  1  6
 46 92  1  0
 46 93  1  0
 46 94  1  0
 47 95  1  0
M  CHG  1   9   1
M  END
>  <meeko>  (3) 
{"is_sidechain": [false], "free_energy": -9.004, "intermolecular_energy": -17.081, "internal_energy": -3.099}

$$$$
4gid_ligand
     RDKit          3D

 95 97  0  0  0  0  0  0  0  0999 V2000
    9.5860    0.3950   -6.2250 C   0  0  0  0  0  0  0  0  0  0  0  0
    8.3110    0.2640   -5.3890 C   0  0  0  0  0  0  0  0  0  0  0  0
    8.4150   -0.9490   -4.4640 C   0  0  0  0  0  0  0  0  0  0  0  0
    8.0440    1.5310   -4.5630 C   0  0  0  0  0  0  0  0  0  0  0  0
    7.2950    2.5340   -5.3040 N   0  0  0  0  0  0  0  0  0  0  0  0
    7.9040    3.6650   -5.8090 C   0  0  0  0  0  0  0  0  0  0  0  0
    9.1220    3.8260   -5.8200 O   0  0  0  0  0  0  0  0  0  0  0  0
    6.9690    4.6630   -6.5210 C   0  0  1  0  0  0  0  0  0  0  0  0
    5.5320    4.1760   -6.4680 N   0  0  0  0  0  0  0  0  0  0  0  0
    4.7950    4.1960   -7.7720 C   0  0  0  0  0  0  0  0  0  0  0  0
    4.5880    2.7620   -8.3360 C   0  0  2  0  0  0  0  0  0  0  0  0
    5.9460    2.1270   -8.7330 C   0  0  0  0  0  0  0  0  0  0  0  0
    6.0880    0.6660   -8.3710 C   0  0  0  0  0  0  0  0  0  0  0  0
    5.1600    0.0470   -7.5220 C   0  0  0  0  0  0  0  0  0  0  0  0
    5.3150   -1.2910   -7.1560 C   0  0  0  0  0  0  0  0  0  0  0  0
    6.3920   -2.0280   -7.6420 C   0  0  0  0  0  0  0  0  0  0  0  0
    7.3090   -1.4320   -8.5040 C   0  0  0  0  0  0  0  0  0  0  0  0
    7.1540   -0.0950   -8.8740 C   0  0  0  0  0  0  0  0  0  0  0  0
    3.6360    2.7100   -9.4610 N   0  0  0  0  0  0  0  0  0  0  0  0
    2.4700    1.9800   -9.4640 C   0  0  0  0  0  0  0  0  0  0  0  0
    2.1050    1.3520   -8.4750 O   0  0  0  0  0  0  0  0  0  0  0  0
    1.6510    2.0040  -10.7030 C   0  0  0  0  0  0  0  0  0  0  0  0
    1.2830    3.2040  -11.3200 C   0  0  0  0  0  0  0  0  0  0  0  0
    0.4650    3.1900  -12.4590 C   0  0  0  0  0  0  0  0  0  0  0  0
    0.1120    4.5000  -13.0680 C   0  0  0  0  0  0  0  0  0  0  0  0
   -0.4850    5.3270  -12.3900 O   0  0  0  0  0  0  0  0  0  0  0  0
    0.4690    4.6900  -14.3810 N   0  0  0  0  0  0  0  0  0  0  0  0
    0.1410    5.9130  -15.0980 C   0  0  2  0  0  0  0  0  0  0  0  0
   -0.7290    5.6210  -16.3240 C   0  0  0  0  0  0  0  0  0  0  0  0
    1.4250    6.6460  -15.4450 C   0  0  0  0  0  0  0  0  0  0  0  0
    2.6600    6.2920  -14.8790 C   0  0  0  0  0  0  0  0  0  0  0  0
    3.8200    7.0010  -15.1980 C   0  0  0  0  0  0  0  0  0  0  0  0
    3.7610    8.0770  -16.0800 C   0  0  0  0  0  0  0  0  0  0  0  0
    2.5420    8.4470  -16.6420 C   0  0  0  0  0  0  0  0  0  0  0  0
    1.3820    7.7410  -16.3240 C   0  0  0  0  0  0  0  0  0  0  0  0
    0.0240    1.9730  -12.9870 C   0  0  0  0  0  0  0  0  0  0  0  0
    0.3940    0.7740  -12.3700 C   0  0  0  0  0  0  0  0  0  0  0  0
   -0.1390   -0.4940  -12.8070 N   0  0  0  0  0  0  0  0  0  0  0  0
    0.5190   -1.6940  -12.2300 C   0  0  0  0  0  0  0  0  0  0  0  0
   -0.3790   -0.5390  -14.5120 S   0  0  0  0  0  0  0  0  0  0  0  0
    0.1010   -2.2070  -14.9110 C   0  0  0  0  0  0  0  0  0  0  0  0
    0.5610    0.3840  -15.1140 O   0  0  0  0  0  0  0  0  0  0  0  0
   -1.8020   -0.4230  -14.7670 O   0  0  0  0  0  0  0  0  0  0  0  0
    1.1890    0.7900  -11.2210 C   0  0  0  0  0  0  0  0  0  0  0  0
    7.0480    6.0580   -5.8580 C   0  0  1  0  0  0  0  0  0  0  0  0
    6.9210    5.9990   -4.3410 C   0  0  0  0  0  0  0  0  0  0  0  0
    8.3240    6.6400   -6.1940 O   0  0  0  0  0  0  0  0  0  0  0  0
   10.4551    0.4843   -5.5567 H   0  0  0  0  0  0  0  0  0  0  0  0
    9.7015   -0.4960   -6.8596 H   0  0  0  0  0  0  0  0  0  0  0  0
    9.5179    1.2909   -6.8596 H   0  0  0  0  0  0  0  0  0  0  0  0
    7.4670    0.1280   -6.0812 H   0  0  0  0  0  0  0  0  0  0  0  0
    8.3863   -0.6148   -3.4164 H   0  0  0  0  0  0  0  0  0  0  0  0
    7.5719   -1.6292   -4.6551 H   0  0  0  0  0  0  0  0  0  0  0  0
    9.3616   -1.4757   -4.6551 H   0  0  0  0  0  0  0  0  0  0  0  0
    7.4696    1.2530   -3.6670 H   0  0  0  0  0  0  0  0  0  0  0  0
    9.0182    1.9691   -4.3004 H   0  0  0  0  0  0  0  0  0  0  0  0
    6.2820    2.5240   -5.2000 H   0  0  0  0  0  0  0  0  0  0  0  0
    7.2962    4.7378   -7.5686 H   0  0  0  0  0  0  0  0  0  0  0  0
    5.0090    4.7560   -5.7810 H   0  0  0  0  0  0  0  0  0  0  0  0
    5.5460    3.2410   -6.0370 H   0  0  0  0  0  0  0  0  0  0  0  0
    3.8116    4.6645   -7.6188 H   0  0  0  0  0  0  0  0  0  0  0  0
    5.3943    4.7669   -8.4965 H   0  0  0  0  0  0  0  0  0  0  0  0
    4.1386    2.1711   -7.5243 H   0  0  0  0  0  0  0  0  0  0  0  0
    6.0644    2.2235   -9.8223 H   0  0  0  0  0  0  0  0  0  0  0  0
    6.7194    2.6652   -8.1653 H   0  0  0  0  0  0  0  0  0  0  0  0
    4.3023    0.6207   -7.1410 H   0  0  0  0  0  0  0  0  0  0  0  0
    4.5852   -1.7641   -6.4825 H   0  0  0  0  0  0  0  0  0  0  0  0
    6.5182   -3.0797   -7.3453 H   0  0  0  0  0  0  0  0  0  0  0  0
    8.1563   -2.0153   -8.8937 H   0  0  0  0  0  0  0  0  0  0  0  0
    7.8740    0.3661   -9.5661 H   0  0  0  0  0  0  0  0  0  0  0  0
    3.9690    3.0570  -10.3530 H   0  0  0  0  0  0  0  0  0  0  0  0
    1.6363    4.1619  -10.9105 H   0  0  0  0  0  0  0  0  0  0  0  0
    0.8030    3.9160  -14.9400 H   0  0  0  0  0  0  0  0  0  0  0  0
   -0.4620    6.5708  -14.4548 H   0  0  0  0  0  0  0  0  0  0  0  0
   -1.7244    5.2869  -15.9961 H   0  0  0  0  0  0  0  0  0  0  0  0
   -0.8295    6.5346  -16.9283 H   0  0  0  0  0  0  0  0  0  0  0  0
   -0.2580    4.8317  -16.9283 H   0  0  0  0  0  0  0  0  0  0  0  0
    2.7145    5.4471  -14.1767 H   0  0  0  0  0  0  0  0  0  0  0  0
    4.7821    6.7090  -14.7518 H   0  0  0  0  0  0  0  0  0  0  0  0
    4.6757    8.6336  -16.3322 H   0  0  0  0  0  0  0  0  0  0  0  0
    2.4938    9.2975  -17.3379 H   0  0  0  0  0  0  0  0  0  0  0  0
    0.4221    8.0452  -16.7667 H   0  0  0  0  0  0  0  0  0  0  0  0
   -0.6118    1.9587  -13.8846 H   0  0  0  0  0  0  0  0  0  0  0  0
    0.4877   -1.6370  -11.1319 H   0  0  0  0  0  0  0  0  0  0  0  0
   -0.0092   -2.5987  -12.5654 H   0  0  0  0  0  0  0  0  0  0  0  0
    1.5658   -1.7351  -12.5654 H   0  0  0  0  0  0  0  0  0  0  0  0
    0.2641   -2.7737  -13.9824 H   0  0  0  0  0  0  0  0  0  0  0  0
   -0.6954   -2.6871  -15.4985 H   0  0  0  0  0  0  0  0  0  0  0  0
    1.0308   -2.1904  -15.4985 H   0  0  0  0  0  0  0  0  0  0  0  0
    1.4521   -0.1547  -10.7227 H   0  0  0  0  0  0  0  0  0  0  0  0
    6.2070    6.6601   -6.2325 H   0  0  0  0  0  0  0  0  0  0  0  0
    7.8270    6.4199   -3.8806 H   0  0  0  0  0  0  0  0  0  0  0  0
    6.0437    6.5818   -4.0235 H   0  0  0  0  0  0  0  0  0  0  0  0
    6.8006    4.9527   -4.0235 H   0  0  0  0  0  0  0  0  0  0  0  0
    8.4930    7.3590   -5.5480 H   0  0  0  0  0  0  0  0  0  0  0  0
  1  2  1  0
  2  3  1  0
  2  4  1  0
  4  5  1  0
  5  6  1  0
  6  7  2  0
  6  8  1  0
  8  9  1  0
  9 10  1  0
 10 11  1  0
 11 12  1  0
 12 13  1  0
 13 14  2  0
 14 15  1  0
 15 16  2  0
 16 17  1  0
 17 18  2  0
 11 19  1  0
 19 20  1  0
 20 21  2  0
 20 22  1  0
 22 23  2  0
 23 24  1  0
 24 25  1  0
 25 26  2  0
 25 27  1  0
 27 28  1  0
 28 29  1  0
 28 30  1  0
 30 31  2  0
 31 32  1  0
 32 33  2  0
 33 34  1  0
 34 35  2  0
 24 36  2  0
 36 37  1  0
 37 38  1  0
 38 39  1  0
 38 40  1  0
 40 41  1  0
 40 42  2  0
 40 43  2  0
 37 44  2  0
  8 45  1  0
 45 46  1  0
 45 47  1  0
 18 13  1  0
 44 22  1  0
 35 30  1  0
  1 48  1  0
  1 49  1  0
  1 50  1  0
  2 51  1  0
  3 52  1  0
  3 53  1  0
  3 54  1  0
  4 55  1  0
  4 56  1  0
  5 57  1  0
  8 58  1  6
  9 59  1  0
  9 60  1  0
 10 61  1  0
 10 62  1  0
 11 63  1  1
 12 64  1  0
 12 65  1  0
 14 66  1  0
 15 67  1  0
 16 68  1  0
 17 69  1  0
 18 70  1  0
 19 71  1  0
 23 72  1  0
 27 73  1  0
 28 74  1  1
 29 75  1  0
 29 76  1  0
 29 77  1  0
 31 78  1  0
 32 79  1  0
 33 80  1  0
 34 81  1  0
 35 82  1  0
 36 83  1  0
 39 84  1  0
 39 85  1  0
 39 86  1  0
 41 87  1  0
 41 88  1  0
 41 89  1  0
 44 90  1  0
 45 91  1  6
 46 92  1  0
 46 93  1  0
 46 94  1  0
 47 95  1  0
M  CHG  1   9   1
M  END
>  <meeko>  (4) 
{"is_sidechain": [false], "free_energy": -8.738, "intermolecular_energy": -16.715, "internal_energy": -2.942}

$$$$
4gid_ligand
     RDKit          3D

 95 97  0  0  0  0  0  0  0  0999 V2000
    0.1960    5.5950  -10.6800 C   0  0  0  0  0  0  0  0  0  0  0  0
   -0.7840    5.2090   -9.5700 C   0  0  0  0  0  0  0  0  0  0  0  0
   -1.6680    4.0510  -10.0320 C   0  0  0  0  0  0  0  0  0  0  0  0
   -0.0490    4.8230   -8.2770 C   0  0  0  0  0  0  0  0  0  0  0  0
    0.6830    3.5730   -8.4010 N   0  0  0  0  0  0  0  0  0  0  0  0
    2.0630    3.5450   -8.4540 C   0  0  0  0  0  0  0  0  0  0  0  0
    2.7650    4.5290   -8.2350 O   0  0  0  0  0  0  0  0  0  0  0  0
    2.6930    2.1510   -8.6440 C   0  0  1  0  0  0  0  0  0  0  0  0
    2.0220    1.1350   -7.7370 N   0  0  0  0  0  0  0  0  0  0  0  0
    2.9140    0.4900   -6.7200 C   0  0  0  0  0  0  0  0  0  0  0  0
    4.3990    0.4850   -7.1810 C   0  0  2  0  0  0  0  0  0  0  0  0
    4.9870   -0.9480   -7.1240 C   0  0  0  0  0  0  0  0  0  0  0  0
    6.4870   -1.0210   -7.2990 C   0  0  0  0  0  0  0  0  0  0  0  0
    7.0720   -0.7940   -8.5530 C   0  0  0  0  0  0  0  0  0  0  0  0
    8.4540   -0.9020   -8.7220 C   0  0  0  0  0  0  0  0  0  0  0  0
    9.2660   -1.2270   -7.6380 C   0  0  0  0  0  0  0  0  0  0  0  0
    8.7010   -1.4330   -6.3830 C   0  0  0  0  0  0  0  0  0  0  0  0
    7.3200   -1.3230   -6.2110 C   0  0  0  0  0  0  0  0  0  0  0  0
    5.2460    1.4300   -6.4280 N   0  0  0  0  0  0  0  0  0  0  0  0
    5.9880    2.4370   -6.9980 C   0  0  0  0  0  0  0  0  0  0  0  0
    5.9460    2.6610   -8.2040 O   0  0  0  0  0  0  0  0  0  0  0  0
    6.8240    3.2680   -6.0930 C   0  0  0  0  0  0  0  0  0  0  0  0
    6.6330    4.6480   -5.9740 C   0  0  0  0  0  0  0  0  0  0  0  0
    7.4750    5.4090   -5.1500 C   0  0  0  0  0  0  0  0  0  0  0  0
    7.2180    6.8710   -5.0660 C   0  0  0  0  0  0  0  0  0  0  0  0
    6.1790    7.2610   -4.5450 O   0  0  0  0  0  0  0  0  0  0  0  0
    8.1690    7.7010   -5.6060 N   0  0  0  0  0  0  0  0  0  0  0  0
    8.0100    9.1470   -5.6200 C   0  0  2  0  0  0  0  0  0  0  0  0
    8.0850    9.6990   -7.0460 C   0  0  0  0  0  0  0  0  0  0  0  0
    9.0360    9.7710   -4.6900 C   0  0  0  0  0  0  0  0  0  0  0  0
    9.8430    8.9920   -3.8440 C   0  0  0  0  0  0  0  0  0  0  0  0
   10.7590    9.5960   -2.9800 C   0  0  0  0  0  0  0  0  0  0  0  0
   10.8770   10.9830   -2.9430 C   0  0  0  0  0  0  0  0  0  0  0  0
   10.0760   11.7690   -3.7680 C   0  0  0  0  0  0  0  0  0  0  0  0
    9.1590   11.1690   -4.6320 C   0  0  0  0  0  0  0  0  0  0  0  0
    8.5020    4.7850   -4.4360 C   0  0  0  0  0  0  0  0  0  0  0  0
    8.6910    3.4040   -4.5550 C   0  0  0  0  0  0  0  0  0  0  0  0
    9.8130    2.7410   -3.9340 N   0  0  0  0  0  0  0  0  0  0  0  0
    9.4700    1.8160   -2.8230 C   0  0  0  0  0  0  0  0  0  0  0  0
   11.1060    3.8300   -3.6080 S   0  0  0  0  0  0  0  0  0  0  0  0
   10.3750    4.9250   -2.4080 C   0  0  0  0  0  0  0  0  0  0  0  0
   11.3770    4.5700   -4.8230 O   0  0  0  0  0  0  0  0  0  0  0  0
   12.1570    3.0900   -2.9380 O   0  0  0  0  0  0  0  0  0  0  0  0
    7.8670    2.6510   -5.3940 C   0  0  0  0  0  0  0  0  0  0  0  0
    2.5500    1.6800  -10.1100 C   0  0  1  0  0  0  0  0  0  0  0  0
    1.2810    0.8730  -10.3510 C   0  0  0  0  0  0  0  0  0  0  0  0
    2.5230    2.8500  -10.9550 O   0  0  0  0  0  0  0  0  0  0  0  0
    1.1308    5.9632  -10.2321 H   0  0  0  0  0  0  0  0  0  0  0  0
    0.4100    4.7140  -11.3029 H   0  0  0  0  0  0  0  0  0  0  0  0
   -0.2483    6.3853  -11.3029 H   0  0  0  0  0  0  0  0  0  0  0  0
   -1.4109    6.0867   -9.3540 H   0  0  0  0  0  0  0  0  0  0  0  0
   -2.0703    3.5240   -9.1543 H   0  0  0  0  0  0  0  0  0  0  0  0
   -2.4989    4.4428  -10.6371 H   0  0  0  0  0  0  0  0  0  0  0  0
   -1.0711    3.3528  -10.6371 H   0  0  0  0  0  0  0  0  0  0  0  0
    0.6615    5.6235   -8.0234 H   0  0  0  0  0  0  0  0  0  0  0  0
   -0.8066    4.6885   -7.4910 H   0  0  0  0  0  0  0  0  0  0  0  0
    0.1600    2.7620   -8.7260 H   0  0  0  0  0  0  0  0  0  0  0  0
    3.7596    2.2295   -8.3869 H   0  0  0  0  0  0  0  0  0  0  0  0
    1.5960    0.3910   -8.3260 H   0  0  0  0  0  0  0  0  0  0  0  0
    1.2100    1.6020   -7.3090 H   0  0  0  0  0  0  0  0  0  0  0  0
    2.8360    1.0453   -5.7736 H   0  0  0  0  0  0  0  0  0  0  0  0
    2.5905   -0.5535   -6.5915 H   0  0  0  0  0  0  0  0  0  0  0  0
    4.4011    0.8325   -8.2247 H   0  0  0  0  0  0  0  0  0  0  0  0
    4.7342   -1.3838   -6.1462 H   0  0  0  0  0  0  0  0  0  0  0  0
    4.5477   -1.4987   -7.9688 H   0  0  0  0  0  0  0  0  0  0  0  0
    6.4368   -0.5286   -9.4110 H   0  0  0  0  0  0  0  0  0  0  0  0
    8.9017   -0.7303   -9.7120 H   0  0  0  0  0  0  0  0  0  0  0  0
   10.3535   -1.3208   -7.7739 H   0  0  0  0  0  0  0  0  0  0  0  0
    9.3433   -1.6828   -5.5256 H   0  0  0  0  0  0  0  0  0  0  0  0
    6.8810   -1.4744   -5.2138 H   0  0  0  0  0  0  0  0  0  0  0  0
    5.4560    1.1840   -5.4680 H   0  0  0  0  0  0  0  0  0  0  0  0
    5.8195    5.1385   -6.5286 H   0  0  0  0  0  0  0  0  0  0  0  0
    8.9170    7.3240   -6.1730 H   0  0  0  0  0  0  0  0  0  0  0  0
    7.0096    9.4140   -5.2486 H   0  0  0  0  0  0  0  0  0  0  0  0
    8.2330   10.7884   -7.0102 H   0  0  0  0  0  0  0  0  0  0  0  0
    8.9279    9.2317   -7.5762 H   0  0  0  0  0  0  0  0  0  0  0  0
    7.1480    9.4735   -7.5762 H   0  0  0  0  0  0  0  0  0  0  0  0
    9.7525    7.8959   -3.8623 H   0  0  0  0  0  0  0  0  0  0  0  0
   11.3890    8.9743   -2.3269 H   0  0  0  0  0  0  0  0  0  0  0  0
   11.6011   11.4568   -2.2638 H   0  0  0  0  0  0  0  0  0  0  0  0
   10.1664   12.8649   -3.7384 H   0  0  0  0  0  0  0  0  0  0  0  0
    8.5255   11.7979   -5.2748 H   0  0  0  0  0  0  0  0  0  0  0  0
    9.1593    5.3778   -3.7828 H   0  0  0  0  0  0  0  0  0  0  0  0
    9.6550    2.3148   -1.8602 H   0  0  0  0  0  0  0  0  0  0  0  0
    8.4084    1.5364   -2.8931 H   0  0  0  0  0  0  0  0  0  0  0  0
   10.0927    0.9119   -2.8931 H   0  0  0  0  0  0  0  0  0  0  0  0
   10.6124    4.5693   -1.3945 H   0  0  0  0  0  0  0  0  0  0  0  0
   10.7776    5.9396   -2.5442 H   0  0  0  0  0  0  0  0  0  0  0  0
    9.2836    4.9422   -2.5442 H   0  0  0  0  0  0  0  0  0  0  0  0
    8.0384    1.5702   -5.5056 H   0  0  0  0  0  0  0  0  0  0  0  0
    3.4021    1.0233  -10.3393 H   0  0  0  0  0  0  0  0  0  0  0  0
    0.8370    0.5907   -9.3850 H   0  0  0  0  0  0  0  0  0  0  0  0
    0.5628    1.4806  -10.9210 H   0  0  0  0  0  0  0  0  0  0  0  0
    1.5267   -0.0351  -10.9210 H   0  0  0  0  0  0  0  0  0  0  0  0
    1.7590    3.3940  -10.6690 H   0  0  0  0  0  0  0  0  0  0  0  0
  1  2  1  0
  2  3  1  0
  2  4  1  0
  4  5  1  0
  5  6  1  0
  6  7  2  0
  6  8  1  0
  8  9  1  0
  9 10  1  0
 10 11  1  0
 11 12  1  0
 12 13  1  0
 13 14  2  0
 14 15  1  0
 15 16  2  0
 16 17  1  0
 17 18  2  0
 11 19  1  0
 19 20  1  0
 20 21  2  0
 20 22  1  0
 22 23  2  0
 23 24  1  0
 24 25  1  0
 25 26  2  0
 25 27  1  0
 27 28  1  0
 28 29  1  0
 28 30  1  0
 30 31  2  0
 31 32  1  0
 32 33  2  0
 33 34  1  0
 34 35  2  0
 24 36  2  0
 36 37  1  0
 37 38  1  0
 38 39  1  0
 38 40  1  0
 40 41  1  0
 40 42  2  0
 40 43  2  0
 37 44  2  0
  8 45  1  0
 45 46  1  0
 45 47  1  0
 18 13  1  0
 44 22  1  0
 35 30  1  0
  1 48  1  0
  1 49  1  0
  1 50  1  0
  2 51  1  0
  3 52  1  0
  3 53  1  0
  3 54  1  0
  4 55  1  0
  4 56  1  0
  5 57  1  0
  8 58  1  1
  9 59  1  0
  9 60  1  0
 10 61  1  0
 10 62  1  0
 11 63  1  6
 12 64  1  0
 12 65  1  0
 14 66  1  0
 15 67  1  0
 16 68  1  0
 17 69  1  0
 18 70  1  0
 19 71  1  0
 23 72  1  0
 27 73  1  0
 28 74  1  1
 29 75  1  0
 29 76  1  0
 29 77  1  0
 31 78  1  0
 32 79  1  0
 33 80  1  0
 34 81  1  0
 35 82  1  0
 36 83  1  0
 39 84  1  0
 39 85  1  0
 39 86  1  0
 41 87  1  0
 41 88  1  0
 41 89  1  0
 44 90  1  0
 45 91  1  6
 46 92  1  0
 46 93  1  0
 46 94  1  0
 47 95  1  0
M  CHG  1   9   1
M  END
>  <meeko>  (5) 
{"is_sidechain": [false], "free_energy": -8.554, "intermolecular_energy": -17.375, "internal_energy": -1.92}

$$$$
4gid_ligand
     RDKit          3D

 95 97  0  0  0  0  0  0  0  0999 V2000
   -3.1440    5.1590  -14.8620 C   0  0  0  0  0  0  0  0  0  0  0  0
   -1.6510    4.8680  -14.6960 C   0  0  0  0  0  0  0  0  0  0  0  0
   -1.2760    4.8930  -13.2140 C   0  0  0  0  0  0  0  0  0  0  0  0
   -1.2670    3.5140  -15.3110 C   0  0  0  0  0  0  0  0  0  0  0  0
   -0.8200    2.5540  -14.3160 N   0  0  0  0  0  0  0  0  0  0  0  0
   -0.1090    1.4240  -14.6690 C   0  0  0  0  0  0  0  0  0  0  0  0
    0.3350    1.2340  -15.7990 O   0  0  0  0  0  0  0  0  0  0  0  0
    0.2450    0.4710  -13.5100 C   0  0  1  0  0  0  0  0  0  0  0  0
   -0.0570    1.1240  -12.1730 N   0  0  0  0  0  0  0  0  0  0  0  0
    1.1090    1.7750  -11.4940 C   0  0  0  0  0  0  0  0  0  0  0  0
    1.2590    1.2900  -10.0240 C   0  0  2  0  0  0  0  0  0  0  0  0
    0.1200    1.8600   -9.1390 C   0  0  0  0  0  0  0  0  0  0  0  0
    0.0770    3.3700   -9.0640 C   0  0  0  0  0  0  0  0  0  0  0  0
   -0.9890    4.0820   -9.6320 C   0  0  0  0  0  0  0  0  0  0  0  0
   -1.0070    5.4780   -9.5980 C   0  0  0  0  0  0  0  0  0  0  0  0
    0.0330    6.1750   -8.9880 C   0  0  0  0  0  0  0  0  0  0  0  0
    1.0850    5.4790   -8.4000 C   0  0  0  0  0  0  0  0  0  0  0  0
    1.1040    4.0840   -8.4300 C   0  0  0  0  0  0  0  0  0  0  0  0
    2.5800    1.5980   -9.4420 N   0  0  0  0  0  0  0  0  0  0  0  0
    3.1630    0.8910   -8.4160 C   0  0  0  0  0  0  0  0  0  0  0  0
    2.6320   -0.1090   -7.9440 O   0  0  0  0  0  0  0  0  0  0  0  0
    4.4790    1.3700   -7.9180 C   0  0  0  0  0  0  0  0  0  0  0  0
    4.6400    2.6470   -7.3710 C   0  0  0  0  0  0  0  0  0  0  0  0
    5.9060    3.0840   -6.9600 C   0  0  0  0  0  0  0  0  0  0  0  0
    6.0090    4.4520   -6.3840 C   0  0  0  0  0  0  0  0  0  0  0  0
    5.0900    5.2420   -6.5660 O   0  0  0  0  0  0  0  0  0  0  0  0
    7.1570    4.7490   -5.6920 N   0  0  0  0  0  0  0  0  0  0  0  0
    7.3910    6.0670   -5.1190 C   0  0  2  0  0  0  0  0  0  0  0  0
    7.7880    7.0780   -6.1980 C   0  0  0  0  0  0  0  0  0  0  0  0
    8.4190    5.9510   -4.0080 C   0  0  0  0  0  0  0  0  0  0  0  0
    9.2130    4.8040   -3.8450 C   0  0  0  0  0  0  0  0  0  0  0  0
   10.1320    4.7170   -2.7980 C   0  0  0  0  0  0  0  0  0  0  0  0
   10.2670    5.7680   -1.8960 C   0  0  0  0  0  0  0  0  0  0  0  0
    9.4790    6.9080   -2.0370 C   0  0  0  0  0  0  0  0  0  0  0  0
    8.5590    6.9980   -3.0820 C   0  0  0  0  0  0  0  0  0  0  0  0
    7.0120    2.2380   -7.0860 C   0  0  0  0  0  0  0  0  0  0  0  0
    6.8500    0.9610   -7.6310 C   0  0  0  0  0  0  0  0  0  0  0  0
    7.9820    0.1040   -7.8930 N   0  0  0  0  0  0  0  0  0  0  0  0
    7.8630   -0.7580   -9.0970 C   0  0  0  0  0  0  0  0  0  0  0  0
    8.5270   -0.6960   -6.4700 S   0  0  0  0  0  0  0  0  0  0  0  0
    8.4310   -2.4090   -6.9480 C   0  0  0  0  0  0  0  0  0  0  0  0
    7.5620   -0.4400   -5.4220 O   0  0  0  0  0  0  0  0  0  0  0  0
    9.9290   -0.3740   -6.2850 O   0  0  0  0  0  0  0  0  0  0  0  0
    5.5910    0.5340   -8.0640 C   0  0  0  0  0  0  0  0  0  0  0  0
   -0.5590   -0.8450  -13.6160 C   0  0  1  0  0  0  0  0  0  0  0  0
   -0.9270   -1.4240  -12.2550 C   0  0  0  0  0  0  0  0  0  0  0  0
   -1.7720   -0.5700  -14.3460 O   0  0  0  0  0  0  0  0  0  0  0  0
   -3.6122    5.2503  -13.8708 H   0  0  0  0  0  0  0  0  0  0  0  0
   -3.2747    6.0995  -15.4173 H   0  0  0  0  0  0  0  0  0  0  0  0
   -3.6184    4.3364  -15.4173 H   0  0  0  0  0  0  0  0  0  0  0  0
   -1.0934    5.6514  -15.2303 H   0  0  0  0  0  0  0  0  0  0  0  0
   -2.1891    4.8321  -12.6037 H   0  0  0  0  0  0  0  0  0  0  0  0
   -0.6248    4.0363  -12.9860 H   0  0  0  0  0  0  0  0  0  0  0  0
   -0.7443    5.8286  -12.9860 H   0  0  0  0  0  0  0  0  0  0  0  0
   -2.1449    3.1010  -15.8293 H   0  0  0  0  0  0  0  0  0  0  0  0
   -0.4309    3.6885  -16.0042 H   0  0  0  0  0  0  0  0  0  0  0  0
   -1.2750    2.5850  -13.4050 H   0  0  0  0  0  0  0  0  0  0  0  0
    1.3200    0.2479  -13.5783 H   0  0  0  0  0  0  0  0  0  0  0  0
   -0.4570    0.4070  -11.5340 H   0  0  0  0  0  0  0  0  0  0  0  0
   -0.8390    1.7760  -12.3260 H   0  0  0  0  0  0  0  0  0  0  0  0
    2.0274    1.5283  -12.0468 H   0  0  0  0  0  0  0  0  0  0  0  0
    0.9377    2.8615  -11.4821 H   0  0  0  0  0  0  0  0  0  0  0  0
    1.1798    0.1931  -10.0483 H   0  0  0  0  0  0  0  0  0  0  0  0
   -0.8396    1.5092   -9.5467 H   0  0  0  0  0  0  0  0  0  0  0  0
    0.3108    1.5023   -8.1164 H   0  0  0  0  0  0  0  0  0  0  0  0
   -1.8174    3.5369  -10.1080 H   0  0  0  0  0  0  0  0  0  0  0  0
   -1.8437    6.0278  -10.0536 H   0  0  0  0  0  0  0  0  0  0  0  0
    0.0230    7.2748   -8.9710 H   0  0  0  0  0  0  0  0  0  0  0  0
    1.9025    6.0292   -7.9110 H   0  0  0  0  0  0  0  0  0  0  0  0
    1.9318    3.5397   -7.9521 H   0  0  0  0  0  0  0  0  0  0  0  0
    2.9740    2.5040   -9.6650 H   0  0  0  0  0  0  0  0  0  0  0  0
    3.7694    3.3107   -7.2631 H   0  0  0  0  0  0  0  0  0  0  0  0
    7.9500    4.1230   -5.7200 H   0  0  0  0  0  0  0  0  0  0  0  0
    6.4595    6.4527   -4.6790 H   0  0  0  0  0  0  0  0  0  0  0  0
    8.1502    8.0005   -5.7207 H   0  0  0  0  0  0  0  0  0  0  0  0
    8.5855    6.6517   -6.8243 H   0  0  0  0  0  0  0  0  0  0  0  0
    6.9135    7.3082   -6.8243 H   0  0  0  0  0  0  0  0  0  0  0  0
    9.1096    3.9657   -4.5496 H   0  0  0  0  0  0  0  0  0  0  0  0
   10.7514    3.8149   -2.6856 H   0  0  0  0  0  0  0  0  0  0  0  0
   10.9942    5.6987   -1.0736 H   0  0  0  0  0  0  0  0  0  0  0  0
    9.5823    7.7386   -1.3233 H   0  0  0  0  0  0  0  0  0  0  0  0
    7.9361    7.8991   -3.1819 H   0  0  0  0  0  0  0  0  0  0  0  0
    8.0059    2.5760   -6.7575 H   0  0  0  0  0  0  0  0  0  0  0  0
    7.7187   -1.8034   -8.7867 H   0  0  0  0  0  0  0  0  0  0  0  0
    7.0014   -0.4316   -9.6979 H   0  0  0  0  0  0  0  0  0  0  0  0
    8.7808   -0.6773   -9.6979 H   0  0  0  0  0  0  0  0  0  0  0  0
    8.3957   -3.0396   -6.0474 H   0  0  0  0  0  0  0  0  0  0  0  0
    7.5223   -2.5725   -7.5459 H   0  0  0  0  0  0  0  0  0  0  0  0
    9.3158   -2.6730   -7.5459 H   0  0  0  0  0  0  0  0  0  0  0  0
    5.4748   -0.4603   -8.5199 H   0  0  0  0  0  0  0  0  0  0  0  0
    0.0717   -1.5876  -14.1267 H   0  0  0  0  0  0  0  0  0  0  0  0
   -0.5188   -0.7817  -11.4608 H   0  0  0  0  0  0  0  0  0  0  0  0
   -2.0219   -1.4723  -12.1610 H   0  0  0  0  0  0  0  0  0  0  0  0
   -0.5059   -2.4359  -12.1610 H   0  0  0  0  0  0  0  0  0  0  0  0
   -1.7500   -1.1170  -15.1600 H   0  0  0  0  0  0  0  0  0  0  0  0
  1  2  1  0
  2  3  1  0
  2  4  1  0
  4  5  1  0
  5  6  1  0
  6  7  2  0
  6  8  1  0
  8  9  1  0
  9 10  1  0
 10 11  1  0
 11 12  1  0
 12 13  1  0
 13 14  2  0
 14 15  1  0
 15 16  2  0
 16 17  1  0
 17 18  2  0
 11 19  1  0
 19 20  1  0
 20 21  2  0
 20 22  1  0
 22 23  2  0
 23 24  1  0
 24 25  1  0
 25 26  2  0
 25 27  1  0
 27 28  1  0
 28 29  1  0
 28 30  1  0
 30 31  2  0
 31 32  1  0
 32 33  2  0
 33 34  1  0
 34 35  2  0
 24 36  2  0
 36 37  1  0
 37 38  1  0
 38 39  1  0
 38 40  1  0
 40 41  1  0
 40 42  2  0
 40 43  2  0
 37 44  2  0
  8 45  1  0
 45 46  1  0
 45 47  1  0
 18 13  1  0
 44 22  1  0
 35 30  1  0
  1 48  1  0
  1 49  1  0
  1 50  1  0
  2 51  1  0
  3 52  1  0
  3 53  1  0
  3 54  1  0
  4 55  1  0
  4 56  1  0
  5 57  1  0
  8 58  1  1
  9 59  1  0
  9 60  1  0
 10 61  1  0
 10 62  1  0
 11 63  1  6
 12 64  1  0
 12 65  1  0
 14 66  1  0
 15 67  1  0
 16 68  1  0
 17 69  1  0
 18 70  1  0
 19 71  1  0
 23 72  1  0
 27 73  1  0
 28 74  1  1
 29 75  1  0
 29 76  1  0
 29 77  1  0
 31 78  1  0
 32 79  1  0
 33 80  1  0
 34 81  1  0
 35 82  1  0
 36 83  1  0
 39 84  1  0
 39 85  1  0
 39 86  1  0
 41 87  1  0
 41 88  1  0
 41 89  1  0
 44 90  1  0
 45 91  1  6
 46 92  1  0
 46 93  1  0
 46 94  1  0
 47 95  1  0
M  CHG  1   9   1
M  END
>  <meeko>  (6) 
{"is_sidechain": [false], "free_energy": -8.455, "intermolecular_energy": -16.592, "internal_energy": -2.508}

$$$$
4gid_ligand
     RDKit          3D

 95 97  0  0  0  0  0  0  0  0999 V2000
   12.9690    1.8310   -7.3330 C   0  0  0  0  0  0  0  0  0  0  0  0
   11.8540    2.7410   -6.8110 C   0  0  0  0  0  0  0  0  0  0  0  0
   10.5880    1.9220   -6.5580 C   0  0  0  0  0  0  0  0  0  0  0  0
   12.2740    3.4670   -5.5250 C   0  0  0  0  0  0  0  0  0  0  0  0
   11.5070    4.6810   -5.2920 N   0  0  0  0  0  0  0  0  0  0  0  0
   10.7390    4.8450   -4.1560 C   0  0  0  0  0  0  0  0  0  0  0  0
   10.7770    4.0730   -3.2000 O   0  0  0  0  0  0  0  0  0  0  0  0
    9.9380    6.1600   -4.0780 C   0  0  1  0  0  0  0  0  0  0  0  0
    8.9300    6.1030   -2.9440 N   0  0  0  0  0  0  0  0  0  0  0  0
    7.4930    6.0430   -3.3610 C   0  0  0  0  0  0  0  0  0  0  0  0
    7.3480    5.9090   -4.9030 C   0  0  2  0  0  0  0  0  0  0  0  0
    6.4730    7.0550   -5.4740 C   0  0  0  0  0  0  0  0  0  0  0  0
    7.2420    8.2940   -5.8750 C   0  0  0  0  0  0  0  0  0  0  0  0
    7.5570    9.2770   -4.9270 C   0  0  0  0  0  0  0  0  0  0  0  0
    8.2310   10.4400   -5.3070 C   0  0  0  0  0  0  0  0  0  0  0  0
    8.6060   10.6270   -6.6350 C   0  0  0  0  0  0  0  0  0  0  0  0
    8.3190    9.6480   -7.5830 C   0  0  0  0  0  0  0  0  0  0  0  0
    7.6480    8.4840   -7.2050 C   0  0  0  0  0  0  0  0  0  0  0  0
    6.8310    4.5940   -5.3270 N   0  0  0  0  0  0  0  0  0  0  0  0
    6.7270    4.1820   -6.6350 C   0  0  0  0  0  0  0  0  0  0  0  0
    7.1240    4.8820   -7.5610 O   0  0  0  0  0  0  0  0  0  0  0  0
    6.1370    2.8410   -6.8850 C   0  0  0  0  0  0  0  0  0  0  0  0
    4.8750    2.6880   -7.4660 C   0  0  0  0  0  0  0  0  0  0  0  0
    4.3270    1.4090   -7.6390 C   0  0  0  0  0  0  0  0  0  0  0  0
    2.9810    1.3150   -8.2660 C   0  0  0  0  0  0  0  0  0  0  0  0
    2.1260    0.6200   -7.7310 O   0  0  0  0  0  0  0  0  0  0  0  0
    2.7920    2.0110   -9.4350 N   0  0  0  0  0  0  0  0  0  0  0  0
    1.5320    1.9640  -10.1630 C   0  0  2  0  0  0  0  0  0  0  0  0
    1.7660    1.7860  -11.6650 C   0  0  0  0  0  0  0  0  0  0  0  0
    0.7190    3.2030   -9.8330 C   0  0  0  0  0  0  0  0  0  0  0  0
    1.2220    4.2260   -9.0130 C   0  0  0  0  0  0  0  0  0  0  0  0
    0.4420    5.3430   -8.7060 C   0  0  0  0  0  0  0  0  0  0  0  0
   -0.8530    5.4490   -9.2070 C   0  0  0  0  0  0  0  0  0  0  0  0
   -1.3710    4.4380  -10.0130 C   0  0  0  0  0  0  0  0  0  0  0  0
   -0.5930    3.3210  -10.3200 C   0  0  0  0  0  0  0  0  0  0  0  0
    5.0490    0.2810   -7.2390 C   0  0  0  0  0  0  0  0  0  0  0  0
    6.3120    0.4350   -6.6590 C   0  0  0  0  0  0  0  0  0  0  0  0
    7.0360   -0.6920   -6.1210 N   0  0  0  0  0  0  0  0  0  0  0  0
    8.0510   -0.3610   -5.0870 C   0  0  0  0  0  0  0  0  0  0  0  0
    7.5710   -1.7650   -7.3560 S   0  0  0  0  0  0  0  0  0  0  0  0
    8.6340   -0.7150   -8.3250 C   0  0  0  0  0  0  0  0  0  0  0  0
    6.4170   -2.1350   -8.1490 O   0  0  0  0  0  0  0  0  0  0  0  0
    8.4060   -2.7780   -6.7390 O   0  0  0  0  0  0  0  0  0  0  0  0
    6.8470    1.7110   -6.4650 C   0  0  0  0  0  0  0  0  0  0  0  0
   10.8810    7.3630   -3.8470 C   0  0  1  0  0  0  0  0  0  0  0  0
   10.4110    8.2750   -2.7210 C   0  0  0  0  0  0  0  0  0  0  0  0
   12.1880    6.8500   -3.5130 O   0  0  0  0  0  0  0  0  0  0  0  0
   13.5100    1.3895   -6.4831 H   0  0  0  0  0  0  0  0  0  0  0  0
   12.5312    1.0290   -7.9455 H   0  0  0  0  0  0  0  0  0  0  0  0
   13.6670    2.4207   -7.9455 H   0  0  0  0  0  0  0  0  0  0  0  0
   11.6525    3.5028   -7.5785 H   0  0  0  0  0  0  0  0  0  0  0  0
   10.4285    1.8188   -5.4745 H   0  0  0  0  0  0  0  0  0  0  0  0
    9.7245    2.4331   -7.0087 H   0  0  0  0  0  0  0  0  0  0  0  0
   10.7002    0.9249   -7.0087 H   0  0  0  0  0  0  0  0  0  0  0  0
   12.1260    2.7877   -4.6726 H   0  0  0  0  0  0  0  0  0  0  0  0
   13.3297    3.7558   -5.6351 H   0  0  0  0  0  0  0  0  0  0  0  0
   11.3270    5.2760   -6.0990 H   0  0  0  0  0  0  0  0  0  0  0  0
    9.4110    6.2871   -5.0351 H   0  0  0  0  0  0  0  0  0  0  0  0
    9.0670    6.9350   -2.3350 H   0  0  0  0  0  0  0  0  0  0  0  0
    9.1990    5.3130   -2.3410 H   0  0  0  0  0  0  0  0  0  0  0  0
    7.0184    5.1743   -2.8813 H   0  0  0  0  0  0  0  0  0  0  0  0
    7.0060    6.9791   -3.0504 H   0  0  0  0  0  0  0  0  0  0  0  0
    8.3632    5.9908   -5.3186 H   0  0  0  0  0  0  0  0  0  0  0  0
    5.9470    6.6751   -6.3623 H   0  0  0  0  0  0  0  0  0  0  0  0
    5.7912    7.3590   -4.6661 H   0  0  0  0  0  0  0  0  0  0  0  0
    7.2711    9.1315   -3.8748 H   0  0  0  0  0  0  0  0  0  0  0  0
    8.4658   11.2090   -4.5563 H   0  0  0  0  0  0  0  0  0  0  0  0
    9.1285   11.5473   -6.9350 H   0  0  0  0  0  0  0  0  0  0  0  0
    8.6214    9.7923   -8.6307 H   0  0  0  0  0  0  0  0  0  0  0  0
    7.4355    7.7088   -7.9560 H   0  0  0  0  0  0  0  0  0  0  0  0
    6.3300    4.0570   -4.6290 H   0  0  0  0  0  0  0  0  0  0  0  0
    4.3094    3.5745   -7.7888 H   0  0  0  0  0  0  0  0  0  0  0  0
    3.5760    2.4250   -9.9200 H   0  0  0  0  0  0  0  0  0  0  0  0
    0.9521    1.0847   -9.8459 H   0  0  0  0  0  0  0  0  0  0  0  0
    2.6321    1.1272  -11.8256 H   0  0  0  0  0  0  0  0  0  0  0  0
    0.8733    1.3366  -12.1245 H   0  0  0  0  0  0  0  0  0  0  0  0
    1.9608    2.7663  -12.1245 H   0  0  0  0  0  0  0  0  0  0  0  0
    2.2416    4.1467   -8.6080 H   0  0  0  0  0  0  0  0  0  0  0  0
    0.8510    6.1400   -8.0677 H   0  0  0  0  0  0  0  0  0  0  0  0
   -1.4661    6.3301   -8.9665 H   0  0  0  0  0  0  0  0  0  0  0  0
   -2.3944    4.5202  -10.4079 H   0  0  0  0  0  0  0  0  0  0  0  0
   -1.0123    2.5234  -10.9509 H   0  0  0  0  0  0  0  0  0  0  0  0
    4.6252   -0.7242   -7.3800 H   0  0  0  0  0  0  0  0  0  0  0  0
    7.6154   -0.5030   -4.0869 H   0  0  0  0  0  0  0  0  0  0  0  0
    8.9228   -1.0214   -5.2044 H   0  0  0  0  0  0  0  0  0  0  0  0
    8.3659    0.6864   -5.2044 H   0  0  0  0  0  0  0  0  0  0  0  0
    9.2543   -0.1023   -7.6544 H   0  0  0  0  0  0  0  0  0  0  0  0
    9.2833   -1.3361   -8.9596 H   0  0  0  0  0  0  0  0  0  0  0  0
    8.0210   -0.0581   -8.9596 H   0  0  0  0  0  0  0  0  0  0  0  0
    7.8280    1.8274   -5.9813 H   0  0  0  0  0  0  0  0  0  0  0  0
   10.8955    7.9634   -4.7686 H   0  0  0  0  0  0  0  0  0  0  0  0
   10.6490    7.8131   -1.7515 H   0  0  0  0  0  0  0  0  0  0  0  0
   10.9206    9.2467   -2.7992 H   0  0  0  0  0  0  0  0  0  0  0  0
    9.3239    8.4238   -2.7992 H   0  0  0  0  0  0  0  0  0  0  0  0
   12.0600    6.1560   -2.8310 H   0  0  0  0  0  0  0  0  0  0  0  0
  1  2  1  0
  2  3  1  0
  2  4  1  0
  4  5  1  0
  5  6  1  0
  6  7  2  0
  6  8  1  0
  8  9  1  0
  9 10  1  0
 10 11  1  0
 11 12  1  0
 12 13  1  0
 13 14  2  0
 14 15  1  0
 15 16  2  0
 16 17  1  0
 17 18  2  0
 11 19  1  0
 19 20  1  0
 20 21  2  0
 20 22  1  0
 22 23  2  0
 23 24  1  0
 24 25  1  0
 25 26  2  0
 25 27  1  0
 27 28  1  0
 28 29  1  0
 28 30  1  0
 30 31  2  0
 31 32  1  0
 32 33  2  0
 33 34  1  0
 34 35  2  0
 24 36  2  0
 36 37  1  0
 37 38  1  0
 38 39  1  0
 38 40  1  0
 40 41  1  0
 40 42  2  0
 40 43  2  0
 37 44  2  0
  8 45  1  0
 45 46  1  0
 45 47  1  0
 18 13  1  0
 44 22  1  0
 35 30  1  0
  1 48  1  0
  1 49  1  0
  1 50  1  0
  2 51  1  0
  3 52  1  0
  3 53  1  0
  3 54  1  0
  4 55  1  0
  4 56  1  0
  5 57  1  0
  8 58  1  6
  9 59  1  0
  9 60  1  0
 10 61  1  0
 10 62  1  0
 11 63  1  6
 12 64  1  0
 12 65  1  0
 14 66  1  0
 15 67  1  0
 16 68  1  0
 17 69  1  0
 18 70  1  0
 19 71  1  0
 23 72  1  0
 27 73  1  0
 28 74  1  1
 29 75  1  0
 29 76  1  0
 29 77  1  0
 31 78  1  0
 32 79  1  0
 33 80  1  0
 34 81  1  0
 35 82  1  0
 36 83  1  0
 39 84  1  0
 39 85  1  0
 39 86  1  0
 41 87  1  0
 41 88  1  0
 41 89  1  0
 44 90  1  0
 45 91  1  6
 46 92  1  0
 46 93  1  0
 46 94  1  0
 47 95  1  0
M  CHG  1   9   1
M  END
>  <meeko>  (7) 
{"is_sidechain": [false], "free_energy": -8.324, "intermolecular_energy": -16.031, "internal_energy": -2.813}

$$$$
4gid_ligand
     RDKit          3D

 95 97  0  0  0  0  0  0  0  0999 V2000
    9.7720   -0.6060   -6.4640 C   0  0  0  0  0  0  0  0  0  0  0  0
    8.8460    0.4930   -5.9390 C   0  0  0  0  0  0  0  0  0  0  0  0
    8.3580    0.1390   -4.5340 C   0  0  0  0  0  0  0  0  0  0  0  0
    9.5440    1.8610   -5.9220 C   0  0  0  0  0  0  0  0  0  0  0  0
    8.8000    2.8790   -6.6460 N   0  0  0  0  0  0  0  0  0  0  0  0
    7.8420    3.6550   -6.0230 C   0  0  0  0  0  0  0  0  0  0  0  0
    7.6700    3.6630   -4.8060 O   0  0  0  0  0  0  0  0  0  0  0  0
    7.0970    4.6510   -6.9330 C   0  0  1  0  0  0  0  0  0  0  0  0
    5.5970    4.4320   -6.8470 N   0  0  0  0  0  0  0  0  0  0  0  0
    4.8830    4.3230   -8.1590 C   0  0  0  0  0  0  0  0  0  0  0  0
    4.5710    2.8440   -8.5210 C   0  0  2  0  0  0  0  0  0  0  0  0
    5.8820    2.0440   -8.7400 C   0  0  0  0  0  0  0  0  0  0  0  0
    5.8660    0.6430   -8.1710 C   0  0  0  0  0  0  0  0  0  0  0  0
    6.7470   -0.3350   -8.6560 C   0  0  0  0  0  0  0  0  0  0  0  0
    6.7030   -1.6390   -8.1580 C   0  0  0  0  0  0  0  0  0  0  0  0
    5.7880   -1.9770   -7.1650 C   0  0  0  0  0  0  0  0  0  0  0  0
    4.9230   -1.0100   -6.6590 C   0  0  0  0  0  0  0  0  0  0  0  0
    4.9670    0.2950   -7.1520 C   0  0  0  0  0  0  0  0  0  0  0  0
    3.6720    2.7050   -9.6830 N   0  0  0  0  0  0  0  0  0  0  0  0
    2.4800    2.0210   -9.6690 C   0  0  0  0  0  0  0  0  0  0  0  0
    2.0430    1.5150   -8.6400 O   0  0  0  0  0  0  0  0  0  0  0  0
    1.7220    1.9410  -10.9450 C   0  0  0  0  0  0  0  0  0  0  0  0
    1.4290    3.0800  -11.7010 C   0  0  0  0  0  0  0  0  0  0  0  0
    0.6670    2.9740  -12.8720 C   0  0  0  0  0  0  0  0  0  0  0  0
    0.3930    4.2240  -13.6310 C   0  0  0  0  0  0  0  0  0  0  0  0
    0.2740    5.2760  -13.0160 O   0  0  0  0  0  0  0  0  0  0  0  0
    0.2700    4.1070  -14.9940 N   0  0  0  0  0  0  0  0  0  0  0  0
   -0.0380    5.2510  -15.8390 C   0  0  2  0  0  0  0  0  0  0  0  0
    0.9350    6.4060  -15.5870 C   0  0  0  0  0  0  0  0  0  0  0  0
   -1.4900    5.6460  -15.6330 C   0  0  0  0  0  0  0  0  0  0  0  0
   -2.5320    4.7070  -15.6970 C   0  0  0  0  0  0  0  0  0  0  0  0
   -3.8600    5.1030  -15.5280 C   0  0  0  0  0  0  0  0  0  0  0  0
   -4.1670    6.4430  -15.3030 C   0  0  0  0  0  0  0  0  0  0  0  0
   -3.1450    7.3880  -15.2480 C   0  0  0  0  0  0  0  0  0  0  0  0
   -1.8170    6.9950  -15.4170 C   0  0  0  0  0  0  0  0  0  0  0  0
    0.2060    1.7240  -13.2940 C   0  0  0  0  0  0  0  0  0  0  0  0
    0.5010    0.5850  -12.5380 C   0  0  0  0  0  0  0  0  0  0  0  0
   -0.0580   -0.7040  -12.8690 N   0  0  0  0  0  0  0  0  0  0  0  0
    0.6360   -1.8730  -12.2700 C   0  0  0  0  0  0  0  0  0  0  0  0
   -0.4070   -0.8430  -14.5500 S   0  0  0  0  0  0  0  0  0  0  0  0
   -0.0320   -2.5550  -14.8670 C   0  0  0  0  0  0  0  0  0  0  0  0
    0.5350   -0.0090  -15.2660 O   0  0  0  0  0  0  0  0  0  0  0  0
   -1.8370   -0.6720  -14.7260 O   0  0  0  0  0  0  0  0  0  0  0  0
    1.2400    0.6940  -11.3580 C   0  0  0  0  0  0  0  0  0  0  0  0
    7.4120    6.1080   -6.5260 C   0  0  1  0  0  0  0  0  0  0  0  0
    6.3860    6.6870   -5.5610 C   0  0  0  0  0  0  0  0  0  0  0  0
    8.7080    6.1240   -5.8900 O   0  0  0  0  0  0  0  0  0  0  0  0
   10.2232   -1.1415   -5.6157 H   0  0  0  0  0  0  0  0  0  0  0  0
    9.1924   -1.3120   -7.0769 H   0  0  0  0  0  0  0  0  0  0  0  0
   10.5661   -0.1546   -7.0769 H   0  0  0  0  0  0  0  0  0  0  0  0
    7.9856    0.5617   -6.6209 H   0  0  0  0  0  0  0  0  0  0  0  0
    9.0124    0.6137   -3.7881 H   0  0  0  0  0  0  0  0  0  0  0  0
    7.3279    0.5013   -4.4015 H   0  0  0  0  0  0  0  0  0  0  0  0
    8.3826   -0.9527   -4.4015 H   0  0  0  0  0  0  0  0  0  0  0  0
    9.6582    2.1849   -4.8770 H   0  0  0  0  0  0  0  0  0  0  0  0
   10.5178    1.7436   -6.4200 H   0  0  0  0  0  0  0  0  0  0  0  0
    8.7980    2.8150   -7.6620 H   0  0  0  0  0  0  0  0  0  0  0  0
    7.4376    4.4783   -7.9646 H   0  0  0  0  0  0  0  0  0  0  0  0
    5.1770    5.2130   -6.3020 H   0  0  0  0  0  0  0  0  0  0  0  0
    5.4460    3.6090   -6.2470 H   0  0  0  0  0  0  0  0  0  0  0  0
    3.9378    4.8824   -8.0983 H   0  0  0  0  0  0  0  0  0  0  0  0
    5.5362    4.7376   -8.9410 H   0  0  0  0  0  0  0  0  0  0  0  0
    4.0311    2.4215   -7.6608 H   0  0  0  0  0  0  0  0  0  0  0  0
    6.0639    1.9728   -9.8225 H   0  0  0  0  0  0  0  0  0  0  0  0
    6.6735    2.5892   -8.2049 H   0  0  0  0  0  0  0  0  0  0  0  0
    7.4783   -0.0727   -9.4347 H   0  0  0  0  0  0  0  0  0  0  0  0
    7.3927   -2.4004   -8.5512 H   0  0  0  0  0  0  0  0  0  0  0  0
    5.7482   -3.0068   -6.7804 H   0  0  0  0  0  0  0  0  0  0  0  0
    4.2041   -1.2750   -5.8697 H   0  0  0  0  0  0  0  0  0  0  0  0
    4.2907    1.0573   -6.7378 H   0  0  0  0  0  0  0  0  0  0  0  0
    4.0610    2.9430  -10.5880 H   0  0  0  0  0  0  0  0  0  0  0  0
    1.7983    4.0636  -11.3751 H   0  0  0  0  0  0  0  0  0  0  0  0
    0.2060    3.1970  -15.4280 H   0  0  0  0  0  0  0  0  0  0  0  0
    0.0927    4.9770  -16.8963 H   0  0  0  0  0  0  0  0  0  0  0  0
    1.0580    6.5521  -14.5037 H   0  0  0  0  0  0  0  0  0  0  0  0
    1.9099    6.1692  -16.0381 H   0  0  0  0  0  0  0  0  0  0  0  0
    0.5361    7.3265  -16.0381 H   0  0  0  0  0  0  0  0  0  0  0  0
   -2.2994    3.6480  -15.8823 H   0  0  0  0  0  0  0  0  0  0  0  0
   -4.6656    4.3553  -15.5726 H   0  0  0  0  0  0  0  0  0  0  0  0
   -5.2136    6.7541  -15.1691 H   0  0  0  0  0  0  0  0  0  0  0  0
   -3.3856    8.4467  -15.0709 H   0  0  0  0  0  0  0  0  0  0  0  0
   -1.0174    7.7496  -15.3807 H   0  0  0  0  0  0  0  0  0  0  0  0
   -0.3863    1.6364  -14.2168 H   0  0  0  0  0  0  0  0  0  0  0  0
    0.5938   -1.8020  -11.1731 H   0  0  0  0  0  0  0  0  0  0  0  0
    0.1417   -2.7998  -12.5967 H   0  0  0  0  0  0  0  0  0  0  0  0
    1.6863   -1.8828  -12.5967 H   0  0  0  0  0  0  0  0  0  0  0  0
    0.0847   -3.0878  -13.9117 H   0  0  0  0  0  0  0  0  0  0  0  0
   -0.8519   -3.0095  -15.4425 H   0  0  0  0  0  0  0  0  0  0  0  0
    0.9028   -2.6251  -15.4425 H   0  0  0  0  0  0  0  0  0  0  0  0
    1.4434   -0.2016  -10.7525 H   0  0  0  0  0  0  0  0  0  0  0  0
    7.3895    6.7266   -7.4353 H   0  0  0  0  0  0  0  0  0  0  0  0
    6.7113    6.5034   -4.5264 H   0  0  0  0  0  0  0  0  0  0  0  0
    6.2942    7.7701   -5.7298 H   0  0  0  0  0  0  0  0  0  0  0  0
    5.4114    6.2057   -5.7298 H   0  0  0  0  0  0  0  0  0  0  0  0
    8.5540    6.1740   -4.9230 H   0  0  0  0  0  0  0  0  0  0  0  0
  1  2  1  0
  2  3  1  0
  2  4  1  0
  4  5  1  0
  5  6  1  0
  6  7  2  0
  6  8  1  0
  8  9  1  0
  9 10  1  0
 10 11  1  0
 11 12  1  0
 12 13  1  0
 13 14  2  0
 14 15  1  0
 15 16  2  0
 16 17  1  0
 17 18  2  0
 11 19  1  0
 19 20  1  0
 20 21  2  0
 20 22  1  0
 22 23  2  0
 23 24  1  0
 24 25  1  0
 25 26  2  0
 25 27  1  0
 27 28  1  0
 28 29  1  0
 28 30  1  0
 30 31  2  0
 31 32  1  0
 32 33  2  0
 33 34  1  0
 34 35  2  0
 24 36  2  0
 36 37  1  0
 37 38  1  0
 38 39  1  0
 38 40  1  0
 40 41  1  0
 40 42  2  0
 40 43  2  0
 37 44  2  0
  8 45  1  0
 45 46  1  0
 45 47  1  0
 18 13  1  0
 44 22  1  0
 35 30  1  0
  1 48  1  0
  1 49  1  0
  1 50  1  0
  2 51  1  0
  3 52  1  0
  3 53  1  0
  3 54  1  0
  4 55  1  0
  4 56  1  0
  5 57  1  0
  8 58  1  6
  9 59  1  0
  9 60  1  0
 10 61  1  0
 10 62  1  0
 11 63  1  1
 12 64  1  0
 12 65  1  0
 14 66  1  0
 15 67  1  0
 16 68  1  0
 17 69  1  0
 18 70  1  0
 19 71  1  0
 23 72  1  0
 27 73  1  0
 28 74  1  6
 29 75  1  0
 29 76  1  0
 29 77  1  0
 31 78  1  0
 32 79  1  0
 33 80  1  0
 34 81  1  0
 35 82  1  0
 36 83  1  0
 39 84  1  0
 39 85  1  0
 39 86  1  0
 41 87  1  0
 41 88  1  0
 41 89  1  0
 44 90  1  0
 45 91  1  6
 46 92  1  0
 46 93  1  0
 46 94  1  0
 47 95  1  0
M  CHG  1   9   1
M  END
>  <meeko>  (8) 
{"is_sidechain": [false], "free_energy": -8.3, "intermolecular_energy": -16.51, "internal_energy": -2.286}

$$$$
4gid_ligand
     RDKit          3D

 95 97  0  0  0  0  0  0  0  0999 V2000
    9.5680    5.1040   -2.9270 C   0  0  0  0  0  0  0  0  0  0  0  0
    9.1420    6.5630   -2.7510 C   0  0  0  0  0  0  0  0  0  0  0  0
    9.9800    7.4660   -3.6570 C   0  0  0  0  0  0  0  0  0  0  0  0
    7.6490    6.7560   -3.0560 C   0  0  0  0  0  0  0  0  0  0  0  0
    7.0630    5.6080   -3.7290 N   0  0  0  0  0  0  0  0  0  0  0  0
    6.9300    5.5660   -5.1030 C   0  0  0  0  0  0  0  0  0  0  0  0
    7.4380    6.3950   -5.8540 O   0  0  0  0  0  0  0  0  0  0  0  0
    6.2380    4.3080   -5.6660 C   0  0  1  0  0  0  0  0  0  0  0  0
    6.0710    4.4220   -7.1710 N   0  0  0  0  0  0  0  0  0  0  0  0
    4.6770    4.2200   -7.6820 C   0  0  0  0  0  0  0  0  0  0  0  0
    4.4880    2.8010   -8.2880 C   0  0  2  0  0  0  0  0  0  0  0  0
    5.8490    2.2130   -8.7430 C   0  0  0  0  0  0  0  0  0  0  0  0
    6.0780    0.7730   -8.3430 C   0  0  0  0  0  0  0  0  0  0  0  0
    7.2560    0.1070   -8.7120 C   0  0  0  0  0  0  0  0  0  0  0  0
    7.4470   -1.2350   -8.3770 C   0  0  0  0  0  0  0  0  0  0  0  0
    6.4700   -1.9220   -7.6610 C   0  0  0  0  0  0  0  0  0  0  0  0
    5.3060   -1.2670   -7.2690 C   0  0  0  0  0  0  0  0  0  0  0  0
    5.1140    0.0760   -7.6000 C   0  0  0  0  0  0  0  0  0  0  0  0
    3.5060    2.7630   -9.3890 N   0  0  0  0  0  0  0  0  0  0  0  0
    2.3680    1.9930   -9.3920 C   0  0  0  0  0  0  0  0  0  0  0  0
    2.0540    1.3090   -8.4230 O   0  0  0  0  0  0  0  0  0  0  0  0
    1.5120    2.0400  -10.6070 C   0  0  0  0  0  0  0  0  0  0  0  0
    0.9800    3.2410  -11.0860 C   0  0  0  0  0  0  0  0  0  0  0  0
    0.1340    3.2430  -12.2040 C   0  0  0  0  0  0  0  0  0  0  0  0
   -0.3970    4.5530  -12.6640 C   0  0  0  0  0  0  0  0  0  0  0  0
   -0.2880    5.5270  -11.9290 O   0  0  0  0  0  0  0  0  0  0  0  0
   -1.0030    4.5790  -13.8960 N   0  0  0  0  0  0  0  0  0  0  0  0
   -1.5970    5.7930  -14.4360 C   0  0  2  0  0  0  0  0  0  0  0  0
   -3.0540    5.5610  -14.8480 C   0  0  0  0  0  0  0  0  0  0  0  0
   -0.7340    6.3060  -15.5750 C   0  0  0  0  0  0  0  0  0  0  0  0
    0.4840    5.6970  -15.9180 C   0  0  0  0  0  0  0  0  0  0  0  0
    1.2690    6.2070  -16.9540 C   0  0  0  0  0  0  0  0  0  0  0  0
    0.8530    7.3360  -17.6560 C   0  0  0  0  0  0  0  0  0  0  0  0
   -0.3480    7.9580  -17.3210 C   0  0  0  0  0  0  0  0  0  0  0  0
   -1.1330    7.4500  -16.2850 C   0  0  0  0  0  0  0  0  0  0  0  0
   -0.1700    2.0410  -12.8500 C   0  0  0  0  0  0  0  0  0  0  0  0
    0.3650    0.8410  -12.3710 C   0  0  0  0  0  0  0  0  0  0  0  0
   -0.0210   -0.4330  -12.9310 N   0  0  0  0  0  0  0  0  0  0  0  0
    0.7390   -1.6060  -12.4290 C   0  0  0  0  0  0  0  0  0  0  0  0
   -0.2040   -0.3560  -14.6410 S   0  0  0  0  0  0  0  0  0  0  0  0
    0.3440   -1.9730  -15.1460 C   0  0  0  0  0  0  0  0  0  0  0  0
    0.7230    0.6380  -15.1400 O   0  0  0  0  0  0  0  0  0  0  0  0
   -1.6210   -0.2650  -14.9360 O   0  0  0  0  0  0  0  0  0  0  0  0
    1.1880    0.8370  -11.2420 C   0  0  0  0  0  0  0  0  0  0  0  0
    7.0640    3.0400   -5.3500 C   0  0  1  0  0  0  0  0  0  0  0  0
    8.5080    3.1410   -5.8260 C   0  0  0  0  0  0  0  0  0  0  0  0
    7.0590    2.8480   -3.9200 O   0  0  0  0  0  0  0  0  0  0  0  0
    9.7035    4.6399   -1.9390 H   0  0  0  0  0  0  0  0  0  0  0  0
    8.7912    4.5599   -3.4843 H   0  0  0  0  0  0  0  0  0  0  0  0
   10.5155    5.0634   -3.4843 H   0  0  0  0  0  0  0  0  0  0  0  0
    9.3110    6.8385   -1.6995 H   0  0  0  0  0  0  0  0  0  0  0  0
   10.5989    8.1329   -3.0388 H   0  0  0  0  0  0  0  0  0  0  0  0
   10.6303    6.8464   -4.2920 H   0  0  0  0  0  0  0  0  0  0  0  0
    9.3136    8.0683   -4.2920 H   0  0  0  0  0  0  0  0  0  0  0  0
    7.1142    6.9200   -2.1088 H   0  0  0  0  0  0  0  0  0  0  0  0
    7.5555    7.6206   -3.7295 H   0  0  0  0  0  0  0  0  0  0  0  0
    6.5060    4.9730   -3.1600 H   0  0  0  0  0  0  0  0  0  0  0  0
    5.2501    4.2281   -5.1889 H   0  0  0  0  0  0  0  0  0  0  0  0
    6.6970    3.7290   -7.6290 H   0  0  0  0  0  0  0  0  0  0  0  0
    6.4660    5.3300   -7.4510 H   0  0  0  0  0  0  0  0  0  0  0  0
    3.9697    4.3495   -6.8496 H   0  0  0  0  0  0  0  0  0  0  0  0
    4.4914    4.9595   -8.4749 H   0  0  0  0  0  0  0  0  0  0  0  0
    4.0753    2.1729   -7.4848 H   0  0  0  0  0  0  0  0  0  0  0  0
    5.9007    2.2767   -9.8399 H   0  0  0  0  0  0  0  0  0  0  0  0
    6.6280    2.8041   -8.2392 H   0  0  0  0  0  0  0  0  0  0  0  0
    8.0357    0.6463   -9.2698 H   0  0  0  0  0  0  0  0  0  0  0  0
    8.3707   -1.7503   -8.6791 H   0  0  0  0  0  0  0  0  0  0  0  0
    6.6180   -2.9816   -7.4054 H   0  0  0  0  0  0  0  0  0  0  0  0
    4.5368   -1.8077   -6.6981 H   0  0  0  0  0  0  0  0  0  0  0  0
    4.1984    0.5919   -7.2751 H   0  0  0  0  0  0  0  0  0  0  0  0
    3.8010    3.1610  -10.2730 H   0  0  0  0  0  0  0  0  0  0  0  0
    1.2262    4.1881  -10.5837 H   0  0  0  0  0  0  0  0  0  0  0  0
   -1.2180    3.7180  -14.3810 H   0  0  0  0  0  0  0  0  0  0  0  0
   -1.6274    6.5703  -13.6582 H   0  0  0  0  0  0  0  0  0  0  0  0
   -3.6782    5.4616  -13.9477 H   0  0  0  0  0  0  0  0  0  0  0  0
   -3.4063    6.4144  -15.4461 H   0  0  0  0  0  0  0  0  0  0  0  0
   -3.1238    4.6404  -15.4461 H   0  0  0  0  0  0  0  0  0  0  0  0
    0.8232    4.8089  -15.3647 H   0  0  0  0  0  0  0  0  0  0  0  0
    2.2179    5.7163  -17.2164 H   0  0  0  0  0  0  0  0  0  0  0  0
    1.4714    7.7357  -18.4732 H   0  0  0  0  0  0  0  0  0  0  0  0
   -0.6776    8.8502  -17.8736 H   0  0  0  0  0  0  0  0  0  0  0  0
   -2.0757    7.9518  -16.0214 H   0  0  0  0  0  0  0  0  0  0  0  0
   -0.8276    2.0392  -13.7318 H   0  0  0  0  0  0  0  0  0  0  0  0
    0.7360   -1.6014  -11.3290 H   0  0  0  0  0  0  0  0  0  0  0  0
    0.2682   -2.5311  -12.7931 H   0  0  0  0  0  0  0  0  0  0  0  0
    1.7757   -1.5543  -12.7931 H   0  0  0  0  0  0  0  0  0  0  0  0
    0.5513   -2.5846  -14.2555 H   0  0  0  0  0  0  0  0  0  0  0  0
   -0.4410   -2.4550  -15.7473 H   0  0  0  0  0  0  0  0  0  0  0  0
    1.2603   -1.8784  -15.7473 H   0  0  0  0  0  0  0  0  0  0  0  0
    1.5815   -0.1134  -10.8522 H   0  0  0  0  0  0  0  0  0  0  0  0
    6.6040    2.1944   -5.8823 H   0  0  0  0  0  0  0  0  0  0  0  0
    9.1786    3.1879   -4.9553 H   0  0  0  0  0  0  0  0  0  0  0  0
    8.7565    2.2580   -6.4331 H   0  0  0  0  0  0  0  0  0  0  0  0
    8.6312    4.0500   -6.4331 H   0  0  0  0  0  0  0  0  0  0  0  0
    6.2670    2.3100   -3.7040 H   0  0  0  0  0  0  0  0  0  0  0  0
  1  2  1  0
  2  3  1  0
  2  4  1  0
  4  5  1  0
  5  6  1  0
  6  7  2  0
  6  8  1  0
  8  9  1  0
  9 10  1  0
 10 11  1  0
 11 12  1  0
 12 13  1  0
 13 14  2  0
 14 15  1  0
 15 16  2  0
 16 17  1  0
 17 18  2  0
 11 19  1  0
 19 20  1  0
 20 21  2  0
 20 22  1  0
 22 23  2  0
 23 24  1  0
 24 25  1  0
 25 26  2  0
 25 27  1  0
 27 28  1  0
 28 29  1  0
 28 30  1  0
 30 31  2  0
 31 32  1  0
 32 33  2  0
 33 34  1  0
 34 35  2  0
 24 36  2  0
 36 37  1  0
 37 38  1  0
 38 39  1  0
 38 40  1  0
 40 41  1  0
 40 42  2  0
 40 43  2  0
 37 44  2  0
  8 45  1  0
 45 46  1  0
 45 47  1  0
 18 13  1  0
 44 22  1  0
 35 30  1  0
  1 48  1  0
  1 49  1  0
  1 50  1  0
  2 51  1  0
  3 52  1  0
  3 53  1  0
  3 54  1  0
  4 55  1  0
  4 56  1  0
  5 57  1  0
  8 58  1  1
  9 59  1  0
  9 60  1  0
 10 61  1  0
 10 62  1  0
 11 63  1  1
 12 64  1  0
 12 65  1  0
 14 66  1  0
 15 67  1  0
 16 68  1  0
 17 69  1  0
 18 70  1  0
 19 71  1  0
 23 72  1  0
 27 73  1  0
 28 74  1  1
 29 75  1  0
 29 76  1  0
 29 77  1  0
 31 78  1  0
 32 79  1  0
 33 80  1  0
 34 81  1  0
 35 82  1  0
 36 83  1  0
 39 84  1  0
 39 85  1  0
 39 86  1  0
 41 87  1  0
 41 88  1  0
 41 89  1  0
 44 90  1  0
 45 91  1  6
 46 92  1  0
 46 93  1  0
 46 94  1  0
 47 95  1  0
M  CHG  1   9   1
M  END
>  <meeko>  (9) 
{"is_sidechain": [false], "free_energy": -8.29, "intermolecular_energy": -16.578, "internal_energy": -2.199}

$$$$
