
     RDKit          3D

 44 49  0  0  0  0  0  0  0  0999 V2000
   -1.0950   -5.1920   -0.6060 C   0  0  0  0  0  0  0  0  0  0  0  0
   -1.5960   -3.9040   -0.0580 C   0  0  0  0  0  0  0  0  0  0  0  0
   -2.9510   -3.7280    0.2080 C   0  0  0  0  0  0  0  0  0  0  0  0
   -3.3960   -2.5330    0.7480 C   0  0  0  0  0  0  0  0  0  0  0  0
   -2.4900   -1.5320    0.9930 C   0  0  0  0  0  0  0  0  0  0  0  0
   -1.1590   -1.7670    0.7170 C   0  0  0  0  0  0  0  0  0  0  0  0
   -0.1450   -0.7180    1.0290 C   0  0  0  0  0  0  0  0  0  0  0  0
    0.7140   -0.9610    1.8370 O   0  0  0  0  0  0  0  0  0  0  0  0
   -0.2070    0.5010    0.3710 N   0  0  0  0  0  0  0  0  0  0  0  0
   -1.1710    0.8550   -0.6300 C   0  0  0  0  0  0  0  0  0  0  0  0
   -1.1680    0.2110   -1.8690 C   0  0  0  0  0  0  0  0  0  0  0  0
   -2.1190    0.5750   -2.8080 C   0  0  0  0  0  0  0  0  0  0  0  0
   -3.0330    1.5570   -2.5450 C   0  0  0  0  0  0  0  0  0  0  0  0
   -3.0230    2.2250   -1.3280 C   0  0  0  0  0  0  0  0  0  0  0  0
   -3.9200    3.2070   -1.0810 O   0  0  0  0  0  0  0  0  0  0  0  0
   -2.0850    1.9130   -0.3280 C   0  0  0  0  0  0  0  0  0  0  0  0
   -2.0920    2.6230    0.8910 N   0  0  0  0  0  0  0  0  0  0  0  0
   -1.0690    2.9980    1.7440 C   0  0  0  0  0  0  0  0  0  0  0  0
    0.2670    2.5710    1.6940 C   0  0  0  0  0  0  0  0  0  0  0  0
    0.7810    1.5410    0.7280 C   0  0  2  0  0  0  0  0  0  0  0  0
    1.3660    2.1390   -0.5260 C   0  0  0  0  0  0  0  0  0  0  0  0
    0.9840    3.4130   -0.9560 C   0  0  0  0  0  0  0  0  0  0  0  0
    1.5120    3.9350   -2.0890 C   0  0  0  0  0  0  0  0  0  0  0  0
    2.4050    3.2060   -2.8240 C   0  0  0  0  0  0  0  0  0  0  0  0
    2.9060    3.7400   -3.9550 O   0  0  0  0  0  0  0  0  0  0  0  0
    4.1730    4.2800   -3.7740 C   0  0  0  0  0  0  0  0  0  0  0  0
    4.0340    5.6310   -3.1960 C   0  0  0  0  0  0  0  0  0  0  0  0
    3.2760    6.5940   -3.8230 C   0  0  0  0  0  0  0  0  0  0  0  0
    3.1560    7.8470   -3.2310 C   0  0  0  0  0  0  0  0  0  0  0  0
    3.8000    8.1140   -2.0320 C   0  0  0  0  0  0  0  0  0  0  0  0
    4.5620    7.1400   -1.4270 C   0  0  0  0  0  0  0  0  0  0  0  0
    4.6940    5.9010   -2.0130 C   0  0  0  0  0  0  0  0  0  0  0  0
    2.7870    1.9260   -2.4420 C   0  0  0  0  0  0  0  0  0  0  0  0
    2.2440    1.3910   -1.2960 C   0  0  0  0  0  0  0  0  0  0  0  0
    2.5670    0.1460   -0.9160 F   0  0  0  0  0  0  0  0  0  0  0  0
    1.5180    3.2990    2.6440 S   0  0  2  0  0  0  0  0  0  0  0  0
    2.3420    4.1410    1.7560 O   0  0  0  0  0  0  0  0  0  0  0  0
    2.2680    2.2380    3.2730 O   0  0  0  0  0  0  0  0  0  0  0  0
    0.7170    4.3030    3.8390 C   0  0  0  0  0  0  0  0  0  0  0  0
   -0.5070    5.0140    3.2930 C   0  0  2  0  0  0  0  0  0  0  0  0
   -0.1460    6.0000    2.1900 C   0  0  0  0  0  0  0  0  0  0  0  0
   -1.1180    5.8180    4.4510 C   0  0  0  0  0  0  0  0  0  0  0  0
   -1.5370    3.9670    2.8030 C   0  0  0  0  0  0  0  0  0  0  0  0
   -0.7030   -2.9320    0.1880 N   0  0  0  0  0  0  0  0  0  0  0  0
  2  1  1  0
  3  2  2  0
  4  3  1  0
  5  4  2  0
  6  5  1  0
  7  6  1  0
  8  7  2  0
  9  7  1  0
 10  9  1  0
 11 10  2  0
 12 11  1  0
 13 12  2  0
 14 13  1  0
 15 14  1  0
 16 14  2  0
 16 10  1  0
 17 16  1  0
 18 17  1  0
 19 18  2  0
 20 19  1  0
 20  9  1  0
 20 21  1  6
 22 21  2  0
 23 22  1  0
 24 23  2  0
 25 24  1  0
 26 25  1  0
 27 26  1  0
 28 27  2  0
 29 28  1  0
 30 29  2  0
 31 30  1  0
 32 31  2  0
 32 27  1  0
 33 24  1  0
 34 33  2  0
 34 21  1  0
 35 34  1  0
 36 19  1  0
 37 36  2  0
 38 36  2  0
 36 39  1  1
 40 39  1  0
 40 41  1  6
 42 40  1  0
 43 40  1  0
 43 18  1  0
 44  6  2  0
 44  2  1  0
M  END
$$$$
