
     RDKit          3D

 24 26  0  0  0  0  0  0  0  0999 V2000
   -3.8980   -7.2790   -4.4410 C   0  0  0  0  0  0  0  0  0  0  0  0
   -5.2100   -6.5910   -4.0920 C   0  0  0  0  0  0  0  0  0  0  0  0
   -6.2320   -6.4570   -5.0720 C   0  0  0  0  0  0  0  0  0  0  0  0
   -6.0160   -6.9990   -6.3440 N   0  0  0  0  0  0  0  0  0  0  0  0
   -6.5970   -6.7420   -7.4950 C   0  0  0  0  0  0  0  0  0  0  0  0
   -7.6480   -5.9230   -7.6980 O   0  0  0  0  0  0  0  0  0  0  0  0
   -7.9490   -5.8220   -9.1030 C   0  0  1  0  0  0  0  0  0  0  0  0
   -7.8310   -4.3300   -9.4490 C   0  0  2  0  0  0  0  0  0  0  0  0
   -8.5500   -3.5530   -8.6280 F   0  0  0  0  0  0  0  0  0  0  0  0
   -8.2630   -4.0810  -10.6950 F   0  0  0  0  0  0  0  0  0  0  0  0
   -6.5410   -3.9400   -9.3680 F   0  0  0  0  0  0  0  0  0  0  0  0
   -6.8730   -6.6800   -9.7830 C   0  0  2  0  0  0  0  0  0  0  0  0
   -7.2530   -7.8920  -10.6180 C   0  0  2  0  0  0  0  0  0  0  0  0
   -8.5230   -8.4380  -10.2430 O   0  0  0  0  0  0  0  0  0  0  0  0
   -6.1350   -8.9160  -10.3290 C   0  0  0  0  0  0  0  0  0  0  0  0
   -5.5370   -8.5300   -8.9620 C   0  0  0  0  0  0  0  0  0  0  0  0
   -6.2070   -7.2810   -8.6570 N   0  0  0  0  0  0  0  0  0  0  0  0
   -7.4390   -5.8140   -4.7420 C   0  0  0  0  0  0  0  0  0  0  0  0
   -7.6290   -5.3030   -3.4670 C   0  0  0  0  0  0  0  0  0  0  0  0
   -6.6400   -5.4260   -2.5000 C   0  0  0  0  0  0  0  0  0  0  0  0
   -6.8720   -4.8790   -1.1850 C   0  0  0  0  0  0  0  0  0  0  0  0
   -7.0600   -4.4520   -0.1290 N   0  0  0  0  0  0  0  0  0  0  0  0
   -5.4260   -6.0710   -2.8170 C   0  0  0  0  0  0  0  0  0  0  0  0
   -4.1330   -6.2230   -1.5500 Cl  0  0  0  0  0  0  0  0  0  0  0  0
  2  1  1  0
  3  2  2  0
  4  3  1  0
  5  4  2  3
  6  5  1  0
  7  6  1  1
  8  7  1  0
  8  9  1  1
 10  8  1  0
 11  8  1  0
 12  7  1  0
 13 12  1  0
 13 14  1  1
 15 13  1  0
 16 15  1  0
 17 16  1  0
 12 17  1  1
 17  5  1  0
 18  3  1  0
 19 18  2  0
 20 19  1  0
 21 20  1  0
 22 21  3  0
 23 20  2  0
 23  2  1  0
 24 23  1  0
M  END
$$$$
