3ueu_ligand
     RDKit          3D

 37 36  0  0  0  0  0  0  0  0999 V2000
   -4.6000    1.6160   -6.5470 C   0  0  0  0  0  0  0  0  0  0  0  0
   -5.5320    1.3190   -5.3820 C   0  0  0  0  0  0  0  0  0  0  0  0
   -6.9930    1.5550   -5.7630 C   0  0  0  0  0  0  0  0  0  0  0  0
   -7.8330    2.1500   -4.6280 C   0  0  0  0  0  0  0  0  0  0  0  0
   -8.2560    3.5990   -4.8840 C   0  0  0  0  0  0  0  0  0  0  0  0
   -7.8310    4.1250   -6.2600 C   0  0  0  0  0  0  0  0  0  0  0  0
   -6.9680    5.3900   -6.2600 C   0  0  0  0  0  0  0  0  0  0  0  0
   -5.4840    5.1170   -5.9980 C   0  0  0  0  0  0  0  0  0  0  0  0
   -4.8860    6.1720   -5.0630 C   0  0  0  0  0  0  0  0  0  0  0  0
   -4.3630    5.5920   -3.7460 C   0  0  0  0  0  0  0  0  0  0  0  0
   -5.1230    4.3520   -3.2830 C   0  0  0  0  0  0  0  0  0  0  0  0
   -5.7010    4.4370   -1.8670 C   0  0  0  0  0  0  0  0  0  0  0  0
   -4.8250    4.5060   -0.9560 O   0  0  0  0  0  0  0  0  0  0  0  0
   -6.9580    4.4230   -1.7640 O   0  0  0  0  0  0  0  0  0  0  0  0
   -3.6186    1.9287   -6.1609 H   0  0  0  0  0  0  0  0  0  0  0  0
   -4.4810    0.7113   -7.1613 H   0  0  0  0  0  0  0  0  0  0  0  0
   -5.0264    2.4228   -7.1613 H   0  0  0  0  0  0  0  0  0  0  0  0
   -5.4057    0.2684   -5.0814 H   0  0  0  0  0  0  0  0  0  0  0  0
   -5.2766    1.9955   -4.5530 H   0  0  0  0  0  0  0  0  0  0  0  0
   -7.0224    2.2471   -6.6174 H   0  0  0  0  0  0  0  0  0  0  0  0
   -7.4264    0.5735   -6.0055 H   0  0  0  0  0  0  0  0  0  0  0  0
   -8.7389    1.5380   -4.5061 H   0  0  0  0  0  0  0  0  0  0  0  0
   -7.2071    2.1480   -3.7235 H   0  0  0  0  0  0  0  0  0  0  0  0
   -9.3519    3.6601   -4.8109 H   0  0  0  0  0  0  0  0  0  0  0  0
   -7.7528    4.2216   -4.1295 H   0  0  0  0  0  0  0  0  0  0  0  0
   -7.2614    3.3295   -6.7628 H   0  0  0  0  0  0  0  0  0  0  0  0
   -8.7643    4.4038   -6.7712 H   0  0  0  0  0  0  0  0  0  0  0  0
   -7.0644    5.8773   -7.2415 H   0  0  0  0  0  0  0  0  0  0  0  0
   -7.3293    6.0282   -5.4401 H   0  0  0  0  0  0  0  0  0  0  0  0
   -5.3775    4.1249   -5.5350 H   0  0  0  0  0  0  0  0  0  0  0  0
   -4.9470    5.1557   -6.9572 H   0  0  0  0  0  0  0  0  0  0  0  0
   -4.0512    6.6652   -5.5825 H   0  0  0  0  0  0  0  0  0  0  0  0
   -5.6926    6.8758   -4.8099 H   0  0  0  0  0  0  0  0  0  0  0  0
   -3.3051    5.3222   -3.8801 H   0  0  0  0  0  0  0  0  0  0  0  0
   -4.5020    6.3637   -2.9746 H   0  0  0  0  0  0  0  0  0  0  0  0
   -5.9555    4.1816   -3.9815 H   0  0  0  0  0  0  0  0  0  0  0  0
   -4.3907    3.5313   -3.2669 H   0  0  0  0  0  0  0  0  0  0  0  0
  1  2  1  0
  2  3  1  0
  3  4  1  0
  4  5  1  0
  5  6  1  0
  6  7  1  0
  7  8  1  0
  8  9  1  0
  9 10  1  0
 10 11  1  0
 11 12  1  0
 12 13  2  0
 12 14  1  0
  1 15  1  0
  1 16  1  0
  1 17  1  0
  2 18  1  0
  2 19  1  0
  3 20  1  0
  3 21  1  0
  4 22  1  0
  4 23  1  0
  5 24  1  0
  5 25  1  0
  6 26  1  0
  6 27  1  0
  7 28  1  0
  7 29  1  0
  8 30  1  0
  8 31  1  0
  9 32  1  0
  9 33  1  0
 10 34  1  0
 10 35  1  0
 11 36  1  0
 11 37  1  0
M  CHG  1  14  -1
M  END
>  <meeko>  (1) 
{"is_sidechain": [false], "free_energy": -5.387, "intermolecular_energy": -8.537, "internal_energy": -1.386}

$$$$
3ueu_ligand
     RDKit          3D

 37 36  0  0  0  0  0  0  0  0999 V2000
    5.1580    0.4720   -5.8280 C   0  0  0  0  0  0  0  0  0  0  0  0
    3.7040    0.4140   -5.3850 C   0  0  0  0  0  0  0  0  0  0  0  0
    2.7740    0.1230   -6.5630 C   0  0  0  0  0  0  0  0  0  0  0  0
    2.1250    1.3790   -7.1550 C   0  0  0  0  0  0  0  0  0  0  0  0
    2.5360    1.6470   -8.6050 C   0  0  0  0  0  0  0  0  0  0  0  0
    3.1050    3.0530   -8.8260 C   0  0  0  0  0  0  0  0  0  0  0  0
    4.5890    3.2380   -8.4940 C   0  0  0  0  0  0  0  0  0  0  0  0
    4.8340    3.8340   -7.1050 C   0  0  0  0  0  0  0  0  0  0  0  0
    3.9050    5.0220   -6.8440 C   0  0  0  0  0  0  0  0  0  0  0  0
    3.1300    4.9110   -5.5280 C   0  0  0  0  0  0  0  0  0  0  0  0
    1.6310    4.6960   -5.7220 C   0  0  0  0  0  0  0  0  0  0  0  0
    0.9600    3.8160   -4.6620 C   0  0  0  0  0  0  0  0  0  0  0  0
   -0.1040    3.2540   -5.0570 O   0  0  0  0  0  0  0  0  0  0  0  0
    1.5250    3.7540   -3.5360 O   0  0  0  0  0  0  0  0  0  0  0  0
    5.8103    0.4980   -4.9427 H   0  0  0  0  0  0  0  0  0  0  0  0
    5.3934   -0.4175   -6.4309 H   0  0  0  0  0  0  0  0  0  0  0  0
    5.3218    1.3774   -6.4309 H   0  0  0  0  0  0  0  0  0  0  0  0
    3.5900   -0.3815   -4.6338 H   0  0  0  0  0  0  0  0  0  0  0  0
    3.4314    1.3920   -4.9617 H   0  0  0  0  0  0  0  0  0  0  0  0
    3.3574   -0.3726   -7.3529 H   0  0  0  0  0  0  0  0  0  0  0  0
    1.9607   -0.5129   -6.1834 H   0  0  0  0  0  0  0  0  0  0  0  0
    1.0323    1.2576   -7.1186 H   0  0  0  0  0  0  0  0  0  0  0  0
    2.4671    2.2357   -6.5558 H   0  0  0  0  0  0  0  0  0  0  0  0
    3.3021    0.9116   -8.8920 H   0  0  0  0  0  0  0  0  0  0  0  0
    1.6284    1.5633   -9.2208 H   0  0  0  0  0  0  0  0  0  0  0  0
    2.9628    3.3106   -9.8859 H   0  0  0  0  0  0  0  0  0  0  0  0
    2.5616    3.7055   -8.1267 H   0  0  0  0  0  0  0  0  0  0  0  0
    5.0820    2.2559   -8.5435 H   0  0  0  0  0  0  0  0  0  0  0  0
    4.9989    3.9477   -9.2277 H   0  0  0  0  0  0  0  0  0  0  0  0
    4.6506    3.0606   -6.3446 H   0  0  0  0  0  0  0  0  0  0  0  0
    5.8748    4.1864   -7.0544 H   0  0  0  0  0  0  0  0  0  0  0  0
    4.5117    5.9391   -6.8150 H   0  0  0  0  0  0  0  0  0  0  0  0
    3.1638    5.0390   -7.6566 H   0  0  0  0  0  0  0  0  0  0  0  0
    3.5328    4.0615   -4.9570 H   0  0  0  0  0  0  0  0  0  0  0  0
    3.2545    5.8662   -4.9969 H   0  0  0  0  0  0  0  0  0  0  0  0
    1.1406    5.6805   -5.7083 H   0  0  0  0  0  0  0  0  0  0  0  0
    1.5181    4.1648   -6.6786 H   0  0  0  0  0  0  0  0  0  0  0  0
  1  2  1  0
  2  3  1  0
  3  4  1  0
  4  5  1  0
  5  6  1  0
  6  7  1  0
  7  8  1  0
  8  9  1  0
  9 10  1  0
 10 11  1  0
 11 12  1  0
 12 13  2  0
 12 14  1  0
  1 15  1  0
  1 16  1  0
  1 17  1  0
  2 18  1  0
  2 19  1  0
  3 20  1  0
  3 21  1  0
  4 22  1  0
  4 23  1  0
  5 24  1  0
  5 25  1  0
  6 26  1  0
  6 27  1  0
  7 28  1  0
  7 29  1  0
  8 30  1  0
  8 31  1  0
  9 32  1  0
  9 33  1  0
 10 34  1  0
 10 35  1  0
 11 36  1  0
 11 37  1  0
M  CHG  1  14  -1
M  END
>  <meeko>  (2) 
{"is_sidechain": [false], "free_energy": -5.241, "intermolecular_energy": -8.336, "internal_energy": -1.355}

$$$$
3ueu_ligand
     RDKit          3D

 37 36  0  0  0  0  0  0  0  0999 V2000
   -3.9210    6.4440   -3.6130 C   0  0  0  0  0  0  0  0  0  0  0  0
   -4.3750    5.3260   -4.5400 C   0  0  0  0  0  0  0  0  0  0  0  0
   -5.8340    4.9480   -4.2850 C   0  0  0  0  0  0  0  0  0  0  0  0
   -6.0500    4.1980   -2.9670 C   0  0  0  0  0  0  0  0  0  0  0  0
   -7.5000    4.2410   -2.4760 C   0  0  0  0  0  0  0  0  0  0  0  0
   -8.3810    3.1430   -3.0820 C   0  0  0  0  0  0  0  0  0  0  0  0
   -9.0410    3.4740   -4.4240 C   0  0  0  0  0  0  0  0  0  0  0  0
   -8.4830    2.6620   -5.5960 C   0  0  0  0  0  0  0  0  0  0  0  0
   -7.6350    1.4880   -5.0980 C   0  0  0  0  0  0  0  0  0  0  0  0
   -6.3420    1.2910   -5.8950 C   0  0  0  0  0  0  0  0  0  0  0  0
   -5.0900    1.2670   -5.0230 C   0  0  0  0  0  0  0  0  0  0  0  0
   -3.8110    1.7540   -5.7120 C   0  0  0  0  0  0  0  0  0  0  0  0
   -4.0170    2.5200   -6.6990 O   0  0  0  0  0  0  0  0  0  0  0  0
   -2.7170    1.3430   -5.2360 O   0  0  0  0  0  0  0  0  0  0  0  0
   -4.0493    6.1280   -2.5672 H   0  0  0  0  0  0  0  0  0  0  0  0
   -2.8606    6.6682   -3.8008 H   0  0  0  0  0  0  0  0  0  0  0  0
   -4.5249    7.3440   -3.8008 H   0  0  0  0  0  0  0  0  0  0  0  0
   -4.2689    5.6603   -5.5826 H   0  0  0  0  0  0  0  0  0  0  0  0
   -3.7496    4.4417   -4.3480 H   0  0  0  0  0  0  0  0  0  0  0  0
   -6.4337    5.8699   -4.2632 H   0  0  0  0  0  0  0  0  0  0  0  0
   -6.1390    4.2706   -5.0962 H   0  0  0  0  0  0  0  0  0  0  0  0
   -5.7617    3.1465   -3.1124 H   0  0  0  0  0  0  0  0  0  0  0  0
   -5.4329    4.6954   -2.2042 H   0  0  0  0  0  0  0  0  0  0  0  0
   -7.5012    4.1249   -1.3821 H   0  0  0  0  0  0  0  0  0  0  0  0
   -7.9213    5.2067   -2.7923 H   0  0  0  0  0  0  0  0  0  0  0  0
   -7.7544    2.2506   -3.2265 H   0  0  0  0  0  0  0  0  0  0  0  0
   -9.2091    3.0024   -2.3717 H   0  0  0  0  0  0  0  0  0  0  0  0
  -10.1189    3.2706   -4.3414 H   0  0  0  0  0  0  0  0  0  0  0  0
   -8.8312    4.5329   -4.6352 H   0  0  0  0  0  0  0  0  0  0  0  0
   -9.3199    2.2726   -6.1942 H   0  0  0  0  0  0  0  0  0  0  0  0
   -7.8460    3.3199   -6.2054 H   0  0  0  0  0  0  0  0  0  0  0  0
   -7.3717    1.6697   -4.0455 H   0  0  0  0  0  0  0  0  0  0  0  0
   -8.2367    0.5759   -5.2243 H   0  0  0  0  0  0  0  0  0  0  0  0
   -6.4082    0.3357   -6.4363 H   0  0  0  0  0  0  0  0  0  0  0  0
   -6.2467    2.1493   -6.5763 H   0  0  0  0  0  0  0  0  0  0  0  0
   -5.2714    1.9083   -4.1479 H   0  0  0  0  0  0  0  0  0  0  0  0
   -4.9166    0.2122   -4.7634 H   0  0  0  0  0  0  0  0  0  0  0  0
  1  2  1  0
  2  3  1  0
  3  4  1  0
  4  5  1  0
  5  6  1  0
  6  7  1  0
  7  8  1  0
  8  9  1  0
  9 10  1  0
 10 11  1  0
 11 12  1  0
 12 13  2  0
 12 14  1  0
  1 15  1  0
  1 16  1  0
  1 17  1  0
  2 18  1  0
  2 19  1  0
  3 20  1  0
  3 21  1  0
  4 22  1  0
  4 23  1  0
  5 24  1  0
  5 25  1  0
  6 26  1  0
  6 27  1  0
  7 28  1  0
  7 29  1  0
  8 30  1  0
  8 31  1  0
  9 32  1  0
  9 33  1  0
 10 34  1  0
 10 35  1  0
 11 36  1  0
 11 37  1  0
M  CHG  1  14  -1
M  END
>  <meeko>  (3) 
{"is_sidechain": [false], "free_energy": -5.176, "intermolecular_energy": -8.34, "internal_energy": -1.247}

$$$$
3ueu_ligand
     RDKit          3D

 37 36  0  0  0  0  0  0  0  0999 V2000
    2.7000    1.4220   -8.1220 C   0  0  0  0  0  0  0  0  0  0  0  0
    2.6520    0.7400   -6.7630 C   0  0  0  0  0  0  0  0  0  0  0  0
    3.8500    1.1350   -5.8990 C   0  0  0  0  0  0  0  0  0  0  0  0
    5.0790    0.2450   -6.1150 C   0  0  0  0  0  0  0  0  0  0  0  0
    6.3510    1.0370   -6.4320 C   0  0  0  0  0  0  0  0  0  0  0  0
    6.1350    2.5540   -6.4550 C   0  0  0  0  0  0  0  0  0  0  0  0
    6.2450    3.2290   -7.8260 C   0  0  0  0  0  0  0  0  0  0  0  0
    5.1160    4.2220   -8.1100 C   0  0  0  0  0  0  0  0  0  0  0  0
    4.6330    4.8910   -6.8200 C   0  0  0  0  0  0  0  0  0  0  0  0
    3.1230    4.7640   -6.5960 C   0  0  0  0  0  0  0  0  0  0  0  0
    2.7170    4.8560   -5.1280 C   0  0  0  0  0  0  0  0  0  0  0  0
    1.6140    3.8820   -4.6990 C   0  0  0  0  0  0  0  0  0  0  0  0
    1.6720    3.5400   -3.4820 O   0  0  0  0  0  0  0  0  0  0  0  0
    0.7900    3.5310   -5.5880 O   0  0  0  0  0  0  0  0  0  0  0  0
    2.7766    2.5105   -7.9835 H   0  0  0  0  0  0  0  0  0  0  0  0
    3.5750    1.0612   -8.6826 H   0  0  0  0  0  0  0  0  0  0  0  0
    1.7831    1.1874   -8.6826 H   0  0  0  0  0  0  0  0  0  0  0  0
    1.7260    1.0342   -6.2472 H   0  0  0  0  0  0  0  0  0  0  0  0
    2.6818   -0.3483   -6.9201 H   0  0  0  0  0  0  0  0  0  0  0  0
    4.1251    2.1727   -6.1386 H   0  0  0  0  0  0  0  0  0  0  0  0
    3.5449    1.0163   -4.8488 H   0  0  0  0  0  0  0  0  0  0  0  0
    5.2512   -0.3409   -5.2001 H   0  0  0  0  0  0  0  0  0  0  0  0
    4.8689   -0.3962   -6.9837 H   0  0  0  0  0  0  0  0  0  0  0  0
    7.1062    0.8041   -5.6669 H   0  0  0  0  0  0  0  0  0  0  0  0
    6.6747    0.7403   -7.4405 H   0  0  0  0  0  0  0  0  0  0  0  0
    5.1283    2.7563   -6.0604 H   0  0  0  0  0  0  0  0  0  0  0  0
    6.9501    2.9781   -5.8502 H   0  0  0  0  0  0  0  0  0  0  0  0
    7.2027    3.7681   -7.8728 H   0  0  0  0  0  0  0  0  0  0  0  0
    6.1756    2.4349   -8.5840 H   0  0  0  0  0  0  0  0  0  0  0  0
    5.4832    4.9957   -8.8003 H   0  0  0  0  0  0  0  0  0  0  0  0
    4.2730    3.6743   -8.5564 H   0  0  0  0  0  0  0  0  0  0  0  0
    5.1519    4.4240   -5.9699 H   0  0  0  0  0  0  0  0  0  0  0  0
    4.8587    5.9641   -6.9071 H   0  0  0  0  0  0  0  0  0  0  0  0
    2.6197    5.5715   -7.1480 H   0  0  0  0  0  0  0  0  0  0  0  0
    2.8251    3.7671   -6.9529 H   0  0  0  0  0  0  0  0  0  0  0  0
    3.6075    4.6549   -4.5144 H   0  0  0  0  0  0  0  0  0  0  0  0
    2.3074    5.8668   -4.9850 H   0  0  0  0  0  0  0  0  0  0  0  0
  1  2  1  0
  2  3  1  0
  3  4  1  0
  4  5  1  0
  5  6  1  0
  6  7  1  0
  7  8  1  0
  8  9  1  0
  9 10  1  0
 10 11  1  0
 11 12  1  0
 12 13  2  0
 12 14  1  0
  1 15  1  0
  1 16  1  0
  1 17  1  0
  2 18  1  0
  2 19  1  0
  3 20  1  0
  3 21  1  0
  4 22  1  0
  4 23  1  0
  5 24  1  0
  5 25  1  0
  6 26  1  0
  6 27  1  0
  7 28  1  0
  7 29  1  0
  8 30  1  0
  8 31  1  0
  9 32  1  0
  9 33  1  0
 10 34  1  0
 10 35  1  0
 11 36  1  0
 11 37  1  0
M  CHG  1  14  -1
M  END
>  <meeko>  (4) 
{"is_sidechain": [false], "free_energy": -5.169, "intermolecular_energy": -8.015, "internal_energy": -1.562}

$$$$
3ueu_ligand
     RDKit          3D

 37 36  0  0  0  0  0  0  0  0999 V2000
   -4.8240    4.7330   -6.2330 C   0  0  0  0  0  0  0  0  0  0  0  0
   -4.2740    3.3570   -6.5780 C   0  0  0  0  0  0  0  0  0  0  0  0
   -3.8820    2.5830   -5.3200 C   0  0  0  0  0  0  0  0  0  0  0  0
   -4.8320    1.4250   -4.9940 C   0  0  0  0  0  0  0  0  0  0  0  0
   -5.9900    1.2940   -5.9870 C   0  0  0  0  0  0  0  0  0  0  0  0
   -7.3300    0.9650   -5.3190 C   0  0  0  0  0  0  0  0  0  0  0  0
   -8.4500    1.9910   -5.5160 C   0  0  0  0  0  0  0  0  0  0  0  0
   -8.1150    3.3760   -4.9560 C   0  0  0  0  0  0  0  0  0  0  0  0
   -8.6730    3.5470   -3.5400 C   0  0  0  0  0  0  0  0  0  0  0  0
   -7.6080    3.9290   -2.5080 C   0  0  0  0  0  0  0  0  0  0  0  0
   -6.2760    4.3380   -3.1320 C   0  0  0  0  0  0  0  0  0  0  0  0
   -5.1810    4.7170   -2.1300 C   0  0  0  0  0  0  0  0  0  0  0  0
   -5.1870    4.0230   -1.0720 O   0  0  0  0  0  0  0  0  0  0  0  0
   -4.4130    5.6630   -2.4590 O   0  0  0  0  0  0  0  0  0  0  0  0
   -4.8693    4.8462   -5.1398 H   0  0  0  0  0  0  0  0  0  0  0  0
   -4.1662    5.5071   -6.6549 H   0  0  0  0  0  0  0  0  0  0  0  0
   -5.8342    4.8404   -6.6549 H   0  0  0  0  0  0  0  0  0  0  0  0
   -5.0436    2.7899   -7.1221 H   0  0  0  0  0  0  0  0  0  0  0  0
   -3.3752    3.4885   -7.1983 H   0  0  0  0  0  0  0  0  0  0  0  0
   -2.8710    2.1741   -5.4636 H   0  0  0  0  0  0  0  0  0  0  0  0
   -3.9307    3.2886   -4.4775 H   0  0  0  0  0  0  0  0  0  0  0  0
   -4.2562    0.4878   -5.0034 H   0  0  0  0  0  0  0  0  0  0  0  0
   -5.2710    1.6317   -4.0068 H   0  0  0  0  0  0  0  0  0  0  0  0
   -6.0946    2.2458   -6.5284 H   0  0  0  0  0  0  0  0  0  0  0  0
   -5.7483    0.4578   -6.6596 H   0  0  0  0  0  0  0  0  0  0  0  0
   -7.6799    0.0035   -5.7229 H   0  0  0  0  0  0  0  0  0  0  0  0
   -7.1266    0.9529   -4.2380 H   0  0  0  0  0  0  0  0  0  0  0  0
   -8.6464    2.0894   -6.5938 H   0  0  0  0  0  0  0  0  0  0  0  0
   -9.3272    1.6224   -4.9641 H   0  0  0  0  0  0  0  0  0  0  0  0
   -7.0221    3.4980   -4.9288 H   0  0  0  0  0  0  0  0  0  0  0  0
   -8.5724    4.1362   -5.6063 H   0  0  0  0  0  0  0  0  0  0  0  0
   -9.4382    4.3369   -3.5599 H   0  0  0  0  0  0  0  0  0  0  0  0
   -9.0867    2.5746   -3.2346 H   0  0  0  0  0  0  0  0  0  0  0  0
   -7.9870    4.7723   -1.9120 H   0  0  0  0  0  0  0  0  0  0  0  0
   -7.4176    3.0368   -1.8934 H   0  0  0  0  0  0  0  0  0  0  0  0
   -5.9090    3.4951   -3.7360 H   0  0  0  0  0  0  0  0  0  0  0  0
   -6.4785    5.2433   -3.7231 H   0  0  0  0  0  0  0  0  0  0  0  0
  1  2  1  0
  2  3  1  0
  3  4  1  0
  4  5  1  0
  5  6  1  0
  6  7  1  0
  7  8  1  0
  8  9  1  0
  9 10  1  0
 10 11  1  0
 11 12  1  0
 12 13  2  0
 12 14  1  0
  1 15  1  0
  1 16  1  0
  1 17  1  0
  2 18  1  0
  2 19  1  0
  3 20  1  0
  3 21  1  0
  4 22  1  0
  4 23  1  0
  5 24  1  0
  5 25  1  0
  6 26  1  0
  6 27  1  0
  7 28  1  0
  7 29  1  0
  8 30  1  0
  8 31  1  0
  9 32  1  0
  9 33  1  0
 10 34  1  0
 10 35  1  0
 11 36  1  0
 11 37  1  0
M  CHG  1  14  -1
M  END
>  <meeko>  (5) 
{"is_sidechain": [false], "free_energy": -5.137, "intermolecular_energy": -8.279, "internal_energy": -1.247}

$$$$
3ueu_ligand
     RDKit          3D

 37 36  0  0  0  0  0  0  0  0999 V2000
   -4.9360    5.0580   -3.7810 C   0  0  0  0  0  0  0  0  0  0  0  0
   -5.0510    5.7640   -5.1240 C   0  0  0  0  0  0  0  0  0  0  0  0
   -5.7700    4.8900   -6.1520 C   0  0  0  0  0  0  0  0  0  0  0  0
   -7.2080    5.3360   -6.4350 C   0  0  0  0  0  0  0  0  0  0  0  0
   -8.2470    4.2500   -6.1400 C   0  0  0  0  0  0  0  0  0  0  0  0
   -8.4180    3.9600   -4.6450 C   0  0  0  0  0  0  0  0  0  0  0  0
   -7.9670    2.5740   -4.1730 C   0  0  0  0  0  0  0  0  0  0  0  0
   -8.1750    1.4750   -5.2190 C   0  0  0  0  0  0  0  0  0  0  0  0
   -6.8360    0.9700   -5.7630 C   0  0  0  0  0  0  0  0  0  0  0  0
   -5.6230    1.5500   -5.0290 C   0  0  0  0  0  0  0  0  0  0  0  0
   -4.3030    1.3180   -5.7590 C   0  0  0  0  0  0  0  0  0  0  0  0
   -3.0640    1.8710   -5.0480 C   0  0  0  0  0  0  0  0  0  0  0  0
   -2.6640    1.1600   -4.0800 O   0  0  0  0  0  0  0  0  0  0  0  0
   -2.5910    2.9540   -5.4910 O   0  0  0  0  0  0  0  0  0  0  0  0
   -5.0555    5.7913   -2.9698 H   0  0  0  0  0  0  0  0  0  0  0  0
   -5.7212    4.2918   -3.7011 H   0  0  0  0  0  0  0  0  0  0  0  0
   -3.9482    4.5805   -3.7011 H   0  0  0  0  0  0  0  0  0  0  0  0
   -5.6161    6.6983   -4.9903 H   0  0  0  0  0  0  0  0  0  0  0  0
   -4.0364    5.9721   -5.4946 H   0  0  0  0  0  0  0  0  0  0  0  0
   -5.2034    4.9233   -7.0943 H   0  0  0  0  0  0  0  0  0  0  0  0
   -5.8231    3.8745   -5.7324 H   0  0  0  0  0  0  0  0  0  0  0  0
   -7.4315    6.2126   -5.8091 H   0  0  0  0  0  0  0  0  0  0  0  0
   -7.2728    5.5666   -7.5086 H   0  0  0  0  0  0  0  0  0  0  0  0
   -9.2164    4.5760   -6.5449 H   0  0  0  0  0  0  0  0  0  0  0  0
   -7.8896    3.3226   -6.6114 H   0  0  0  0  0  0  0  0  0  0  0  0
   -7.8375    4.7103   -4.0882 H   0  0  0  0  0  0  0  0  0  0  0  0
   -9.5013    3.9986   -4.4578 H   0  0  0  0  0  0  0  0  0  0  0  0
   -6.8961    2.6216   -3.9262 H   0  0  0  0  0  0  0  0  0  0  0  0
   -8.5847    2.3122   -3.3013 H   0  0  0  0  0  0  0  0  0  0  0  0
   -8.7139    0.6355   -4.7555 H   0  0  0  0  0  0  0  0  0  0  0  0
   -8.7555    1.8936   -6.0543 H   0  0  0  0  0  0  0  0  0  0  0  0
   -6.8111   -0.1254   -5.6660 H   0  0  0  0  0  0  0  0  0  0  0  0
   -6.7677    1.2965   -6.8112 H   0  0  0  0  0  0  0  0  0  0  0  0
   -5.7713    2.6338   -4.9132 H   0  0  0  0  0  0  0  0  0  0  0  0
   -5.5528    1.0333   -4.0604 H   0  0  0  0  0  0  0  0  0  0  0  0
   -4.1686    0.2335   -5.8847 H   0  0  0  0  0  0  0  0  0  0  0  0
   -4.3790    1.8621   -6.7120 H   0  0  0  0  0  0  0  0  0  0  0  0
  1  2  1  0
  2  3  1  0
  3  4  1  0
  4  5  1  0
  5  6  1  0
  6  7  1  0
  7  8  1  0
  8  9  1  0
  9 10  1  0
 10 11  1  0
 11 12  1  0
 12 13  2  0
 12 14  1  0
  1 15  1  0
  1 16  1  0
  1 17  1  0
  2 18  1  0
  2 19  1  0
  3 20  1  0
  3 21  1  0
  4 22  1  0
  4 23  1  0
  5 24  1  0
  5 25  1  0
  6 26  1  0
  6 27  1  0
  7 28  1  0
  7 29  1  0
  8 30  1  0
  8 31  1  0
  9 32  1  0
  9 33  1  0
 10 34  1  0
 10 35  1  0
 11 36  1  0
 11 37  1  0
M  CHG  1  14  -1
M  END
>  <meeko>  (6) 
{"is_sidechain": [false], "free_energy": -5.135, "intermolecular_energy": -8.082, "internal_energy": -1.441}

$$$$
3ueu_ligand
     RDKit          3D

 37 36  0  0  0  0  0  0  0  0999 V2000
   -3.7160    1.4750   -4.3990 C   0  0  0  0  0  0  0  0  0  0  0  0
   -3.9460    2.1400   -5.7470 C   0  0  0  0  0  0  0  0  0  0  0  0
   -5.2590    1.6780   -6.3800 C   0  0  0  0  0  0  0  0  0  0  0  0
   -6.2400    1.0650   -5.3750 C   0  0  0  0  0  0  0  0  0  0  0  0
   -7.6970    1.4510   -5.6380 C   0  0  0  0  0  0  0  0  0  0  0  0
   -8.4910    1.7440   -4.3600 C   0  0  0  0  0  0  0  0  0  0  0  0
   -8.7090    3.2230   -4.0270 C   0  0  0  0  0  0  0  0  0  0  0  0
   -8.3980    3.5730   -2.5700 C   0  0  0  0  0  0  0  0  0  0  0  0
   -6.9560    4.0660   -2.4170 C   0  0  0  0  0  0  0  0  0  0  0  0
   -6.3160    4.4970   -3.7390 C   0  0  0  0  0  0  0  0  0  0  0  0
   -4.9010    5.0460   -3.5790 C   0  0  0  0  0  0  0  0  0  0  0  0
   -4.5230    6.1600   -4.5610 C   0  0  0  0  0  0  0  0  0  0  0  0
   -3.8080    7.0730   -4.0540 O   0  0  0  0  0  0  0  0  0  0  0  0
   -4.9610    6.0510   -5.7390 O   0  0  0  0  0  0  0  0  0  0  0  0
   -3.9611    2.1835   -3.5940 H   0  0  0  0  0  0  0  0  0  0  0  0
   -4.3591    0.5866   -4.3139 H   0  0  0  0  0  0  0  0  0  0  0  0
   -2.6615    1.1738   -4.3139 H   0  0  0  0  0  0  0  0  0  0  0  0
   -3.9804    3.2305   -5.6069 H   0  0  0  0  0  0  0  0  0  0  0  0
   -3.1205    1.8585   -6.4173 H   0  0  0  0  0  0  0  0  0  0  0  0
   -5.7419    2.5459   -6.8528 H   0  0  0  0  0  0  0  0  0  0  0  0
   -5.0083    0.8922   -7.1077 H   0  0  0  0  0  0  0  0  0  0  0  0
   -6.1543   -0.0304   -5.4273 H   0  0  0  0  0  0  0  0  0  0  0  0
   -5.9742    1.4550   -4.3814 H   0  0  0  0  0  0  0  0  0  0  0  0
   -7.7103    2.3509   -6.2704 H   0  0  0  0  0  0  0  0  0  0  0  0
   -8.1768    0.5907   -6.1275 H   0  0  0  0  0  0  0  0  0  0  0  0
   -9.4799    1.2733   -4.4632 H   0  0  0  0  0  0  0  0  0  0  0  0
   -7.8837    1.3417   -3.5358 H   0  0  0  0  0  0  0  0  0  0  0  0
   -8.0574    3.8259   -4.6766 H   0  0  0  0  0  0  0  0  0  0  0  0
   -9.7753    3.4378   -4.1908 H   0  0  0  0  0  0  0  0  0  0  0  0
   -9.0855    4.3641   -2.2359 H   0  0  0  0  0  0  0  0  0  0  0  0
   -8.5243    2.6674   -1.9585 H   0  0  0  0  0  0  0  0  0  0  0  0
   -6.9528    4.9263   -1.7315 H   0  0  0  0  0  0  0  0  0  0  0  0
   -6.3646    3.2230   -2.0302 H   0  0  0  0  0  0  0  0  0  0  0  0
   -6.2776    3.6247   -4.4081 H   0  0  0  0  0  0  0  0  0  0  0  0
   -6.9343    5.3095   -4.1484 H   0  0  0  0  0  0  0  0  0  0  0  0
   -4.8027    5.4434   -2.5580 H   0  0  0  0  0  0  0  0  0  0  0  0
   -4.2207    4.2075   -3.7890 H   0  0  0  0  0  0  0  0  0  0  0  0
  1  2  1  0
  2  3  1  0
  3  4  1  0
  4  5  1  0
  5  6  1  0
  6  7  1  0
  7  8  1  0
  8  9  1  0
  9 10  1  0
 10 11  1  0
 11 12  1  0
 12 13  2  0
 12 14  1  0
  1 15  1  0
  1 16  1  0
  1 17  1  0
  2 18  1  0
  2 19  1  0
  3 20  1  0
  3 21  1  0
  4 22  1  0
  4 23  1  0
  5 24  1  0
  5 25  1  0
  6 26  1  0
  6 27  1  0
  7 28  1  0
  7 29  1  0
  8 30  1  0
  8 31  1  0
  9 32  1  0
  9 33  1  0
 10 34  1  0
 10 35  1  0
 11 36  1  0
 11 37  1  0
M  CHG  1  14  -1
M  END
>  <meeko>  (7) 
{"is_sidechain": [false], "free_energy": -5.07, "intermolecular_energy": -8.275, "internal_energy": -1.144}

$$$$
3ueu_ligand
     RDKit          3D

 37 36  0  0  0  0  0  0  0  0999 V2000
    1.0140    3.2730   -6.2190 C   0  0  0  0  0  0  0  0  0  0  0  0
    1.7370    4.1710   -7.2110 C   0  0  0  0  0  0  0  0  0  0  0  0
    2.1620    5.4890   -6.5630 C   0  0  0  0  0  0  0  0  0  0  0  0
    3.5850    5.4620   -5.9970 C   0  0  0  0  0  0  0  0  0  0  0  0
    4.6150    4.8910   -6.9750 C   0  0  0  0  0  0  0  0  0  0  0  0
    6.0650    5.1740   -6.5680 C   0  0  0  0  0  0  0  0  0  0  0  0
    7.0910    4.0990   -6.9400 C   0  0  0  0  0  0  0  0  0  0  0  0
    6.4580    2.7960   -7.4350 C   0  0  0  0  0  0  0  0  0  0  0  0
    6.8610    1.6150   -6.5480 C   0  0  0  0  0  0  0  0  0  0  0  0
    5.6770    0.9620   -5.8290 C   0  0  0  0  0  0  0  0  0  0  0  0
    4.3400    1.1940   -6.5260 C   0  0  0  0  0  0  0  0  0  0  0  0
    3.2530    0.1630   -6.2030 C   0  0  0  0  0  0  0  0  0  0  0  0
    3.5090   -0.5570   -5.1930 O   0  0  0  0  0  0  0  0  0  0  0  0
    2.2480    0.1400   -6.9650 O   0  0  0  0  0  0  0  0  0  0  0  0
    1.2639    3.5834   -5.1937 H   0  0  0  0  0  0  0  0  0  0  0  0
   -0.0720    3.3563   -6.3729 H   0  0  0  0  0  0  0  0  0  0  0  0
    1.3272    2.2298   -6.3729 H   0  0  0  0  0  0  0  0  0  0  0  0
    2.6319    3.6488   -7.5803 H   0  0  0  0  0  0  0  0  0  0  0  0
    1.0485    4.3980   -8.0383 H   0  0  0  0  0  0  0  0  0  0  0  0
    2.1041    6.2840   -7.3210 H   0  0  0  0  0  0  0  0  0  0  0  0
    1.4814    5.6675   -5.7175 H   0  0  0  0  0  0  0  0  0  0  0  0
    3.8788    6.4909   -5.7418 H   0  0  0  0  0  0  0  0  0  0  0  0
    3.5726    4.8037   -5.1158 H   0  0  0  0  0  0  0  0  0  0  0  0
    4.4753    3.8014   -7.0313 H   0  0  0  0  0  0  0  0  0  0  0  0
    4.4487    5.3830   -7.9447 H   0  0  0  0  0  0  0  0  0  0  0  0
    6.3724    6.1134   -7.0507 H   0  0  0  0  0  0  0  0  0  0  0  0
    6.0615    5.2116   -5.4686 H   0  0  0  0  0  0  0  0  0  0  0  0
    7.7382    4.4960   -7.7359 H   0  0  0  0  0  0  0  0  0  0  0  0
    7.6536    3.8585   -6.0259 H   0  0  0  0  0  0  0  0  0  0  0  0
    5.3630    2.8999   -7.4190 H   0  0  0  0  0  0  0  0  0  0  0  0
    6.8134    2.6017   -8.4577 H   0  0  0  0  0  0  0  0  0  0  0  0
    7.3479    0.8560   -7.1780 H   0  0  0  0  0  0  0  0  0  0  0  0
    7.5355    2.0069   -5.7725 H   0  0  0  0  0  0  0  0  0  0  0  0
    5.8576   -0.1217   -5.7737 H   0  0  0  0  0  0  0  0  0  0  0  0
    5.6077    1.4242   -4.8332 H   0  0  0  0  0  0  0  0  0  0  0  0
    3.9683    2.1859   -6.2294 H   0  0  0  0  0  0  0  0  0  0  0  0
    4.5365    1.1055   -7.6047 H   0  0  0  0  0  0  0  0  0  0  0  0
  1  2  1  0
  2  3  1  0
  3  4  1  0
  4  5  1  0
  5  6  1  0
  6  7  1  0
  7  8  1  0
  8  9  1  0
  9 10  1  0
 10 11  1  0
 11 12  1  0
 12 13  2  0
 12 14  1  0
  1 15  1  0
  1 16  1  0
  1 17  1  0
  2 18  1  0
  2 19  1  0
  3 20  1  0
  3 21  1  0
  4 22  1  0
  4 23  1  0
  5 24  1  0
  5 25  1  0
  6 26  1  0
  6 27  1  0
  7 28  1  0
  7 29  1  0
  8 30  1  0
  8 31  1  0
  9 32  1  0
  9 33  1  0
 10 34  1  0
 10 35  1  0
 11 36  1  0
 11 37  1  0
M  CHG  1  14  -1
M  END
>  <meeko>  (8) 
{"is_sidechain": [false], "free_energy": -5.032, "intermolecular_energy": -8.389, "internal_energy": -0.97}

$$$$
3ueu_ligand
     RDKit          3D

 37 36  0  0  0  0  0  0  0  0999 V2000
   -3.5570    2.2170   -5.9180 C   0  0  0  0  0  0  0  0  0  0  0  0
   -4.9200    1.7170   -6.3740 C   0  0  0  0  0  0  0  0  0  0  0  0
   -5.8990    1.6260   -5.2040 C   0  0  0  0  0  0  0  0  0  0  0  0
   -7.2390    0.9810   -5.5760 C   0  0  0  0  0  0  0  0  0  0  0  0
   -8.4500    1.7450   -5.0340 C   0  0  0  0  0  0  0  0  0  0  0  0
   -9.1340    2.6260   -6.0860 C   0  0  0  0  0  0  0  0  0  0  0  0
   -9.0910    4.1350   -5.8300 C   0  0  0  0  0  0  0  0  0  0  0  0
   -8.6180    4.9460   -7.0390 C   0  0  0  0  0  0  0  0  0  0  0  0
   -7.2410    5.5650   -6.7820 C   0  0  0  0  0  0  0  0  0  0  0  0
   -6.6240    5.1450   -5.4450 C   0  0  0  0  0  0  0  0  0  0  0  0
   -5.1410    5.4840   -5.3270 C   0  0  0  0  0  0  0  0  0  0  0  0
   -4.5790    5.4450   -3.9020 C   0  0  0  0  0  0  0  0  0  0  0  0
   -3.8200    6.4180   -3.6200 O   0  0  0  0  0  0  0  0  0  0  0  0
   -4.9200    4.4660   -3.1830 O   0  0  0  0  0  0  0  0  0  0  0  0
   -3.5203    2.2304   -4.8187 H   0  0  0  0  0  0  0  0  0  0  0  0
   -2.7734    1.5478   -6.3028 H   0  0  0  0  0  0  0  0  0  0  0  0
   -3.3920    3.2342   -6.3028 H   0  0  0  0  0  0  0  0  0  0  0  0
   -5.3234    2.4118   -7.1253 H   0  0  0  0  0  0  0  0  0  0  0  0
   -4.7953    0.7109   -6.8009 H   0  0  0  0  0  0  0  0  0  0  0  0
   -5.4340    1.0275   -4.4068 H   0  0  0  0  0  0  0  0  0  0  0  0
   -6.1141    2.6555   -4.8816 H   0  0  0  0  0  0  0  0  0  0  0  0
   -7.3143    0.9400   -6.6727 H   0  0  0  0  0  0  0  0  0  0  0  0
   -7.2557   -0.0207   -5.1217 H   0  0  0  0  0  0  0  0  0  0  0  0
   -9.1834    1.0157   -4.6595 H   0  0  0  0  0  0  0  0  0  0  0  0
   -8.0844    2.4120   -4.2394 H   0  0  0  0  0  0  0  0  0  0  0  0
   -8.6463    2.4349   -7.0533 H   0  0  0  0  0  0  0  0  0  0  0  0
  -10.1986    2.3508   -6.0558 H   0  0  0  0  0  0  0  0  0  0  0  0
  -10.1028    4.4713   -5.5594 H   0  0  0  0  0  0  0  0  0  0  0  0
   -8.3647    4.3056   -5.0217 H   0  0  0  0  0  0  0  0  0  0  0  0
   -8.5563    4.2831   -7.9146 H   0  0  0  0  0  0  0  0  0  0  0  0
   -9.3382    5.7577   -7.2191 H   0  0  0  0  0  0  0  0  0  0  0  0
   -6.5632    5.2553   -7.5911 H   0  0  0  0  0  0  0  0  0  0  0  0
   -7.3773    6.6560   -6.7476 H   0  0  0  0  0  0  0  0  0  0  0  0
   -7.1641    5.6580   -4.6356 H   0  0  0  0  0  0  0  0  0  0  0  0
   -6.7126    4.0507   -5.3768 H   0  0  0  0  0  0  0  0  0  0  0  0
   -4.5766    4.7627   -5.9362 H   0  0  0  0  0  0  0  0  0  0  0  0
   -5.0351    6.5235   -5.6708 H   0  0  0  0  0  0  0  0  0  0  0  0
  1  2  1  0
  2  3  1  0
  3  4  1  0
  4  5  1  0
  5  6  1  0
  6  7  1  0
  7  8  1  0
  8  9  1  0
  9 10  1  0
 10 11  1  0
 11 12  1  0
 12 13  2  0
 12 14  1  0
  1 15  1  0
  1 16  1  0
  1 17  1  0
  2 18  1  0
  2 19  1  0
  3 20  1  0
  3 21  1  0
  4 22  1  0
  4 23  1  0
  5 24  1  0
  5 25  1  0
  6 26  1  0
  6 27  1  0
  7 28  1  0
  7 29  1  0
  8 30  1  0
  8 31  1  0
  9 32  1  0
  9 33  1  0
 10 34  1  0
 10 35  1  0
 11 36  1  0
 11 37  1  0
M  CHG  1  14  -1
M  END
>  <meeko>  (9) 
{"is_sidechain": [false], "free_energy": -4.907, "intermolecular_energy": -7.976, "internal_energy": -1.185}

$$$$
