4dld_ligand
     RDKit          3D

 33 33  0  0  0  0  0  0  0  0999 V2000
   -0.9530  -23.4700  -13.1590 N   0  0  0  0  0  0  0  0  0  0  0  0
   -2.3140  -24.0780  -12.9590 C   0  0  1  0  0  0  0  0  0  0  0  0
   -3.3240  -23.0330  -12.4520 C   0  0  0  0  0  0  0  0  0  0  0  0
   -4.2140  -23.4470  -11.2840 C   0  0  0  0  0  0  0  0  0  0  0  0
   -3.7090  -23.2710   -9.9740 C   0  0  0  0  0  0  0  0  0  0  0  0
   -4.4430  -23.6450   -8.8450 C   0  0  0  0  0  0  0  0  0  0  0  0
   -3.7520  -23.3680   -7.2890 Cl  0  0  0  0  0  0  0  0  0  0  0  0
   -5.7030  -24.1960   -9.0330 C   0  0  0  0  0  0  0  0  0  0  0  0
   -6.4980  -24.6120   -7.9040 N   0  0  0  0  0  0  0  0  0  0  0  0
   -6.6900  -25.8270   -7.7590 O   0  0  0  0  0  0  0  0  0  0  0  0
   -6.9670  -23.7170   -7.1860 O   0  0  0  0  0  0  0  0  0  0  0  0
   -6.2520  -24.3490  -10.3100 C   0  0  0  0  0  0  0  0  0  0  0  0
   -5.5250  -23.9590  -11.4510 C   0  0  0  0  0  0  0  0  0  0  0  0
   -6.2330  -24.1020  -12.7910 C   0  0  0  0  0  0  0  0  0  0  0  0
   -7.1000  -22.9060  -13.1690 C   0  0  0  0  0  0  0  0  0  0  0  0
   -6.3420  -22.0610  -14.1710 C   0  0  0  0  0  0  0  0  0  0  0  0
   -5.7810  -22.6740  -15.1140 O   0  0  0  0  0  0  0  0  0  0  0  0
   -6.4180  -20.8060  -13.9940 O   0  0  0  0  0  0  0  0  0  0  0  0
   -2.7510  -24.8960  -14.2090 C   0  0  0  0  0  0  0  0  0  0  0  0
   -2.3810  -24.4820  -15.3340 O   0  0  0  0  0  0  0  0  0  0  0  0
   -3.4190  -25.9290  -13.8850 O   0  0  0  0  0  0  0  0  0  0  0  0
   -0.5630  -22.9600  -12.3270 H   0  0  0  0  0  0  0  0  0  0  0  0
   -0.3270  -24.2240  -13.4630 H   0  0  0  0  0  0  0  0  0  0  0  0
   -0.9620  -22.7880  -13.9150 H   0  0  0  0  0  0  0  0  0  0  0  0
   -2.2713  -24.8218  -12.1497 H   0  0  0  0  0  0  0  0  0  0  0  0
   -2.7553  -22.1451  -12.1387 H   0  0  0  0  0  0  0  0  0  0  0  0
   -4.0124  -22.8660  -13.2935 H   0  0  0  0  0  0  0  0  0  0  0  0
   -2.7112  -22.8276   -9.8405 H   0  0  0  0  0  0  0  0  0  0  0  0
   -7.2589  -24.7770  -10.4239 H   0  0  0  0  0  0  0  0  0  0  0  0
   -5.4701  -24.2359  -13.5720 H   0  0  0  0  0  0  0  0  0  0  0  0
   -6.9073  -24.9666  -12.7023 H   0  0  0  0  0  0  0  0  0  0  0  0
   -8.0416  -23.2569  -13.6165 H   0  0  0  0  0  0  0  0  0  0  0  0
   -7.3326  -22.3110  -12.2735 H   0  0  0  0  0  0  0  0  0  0  0  0
  1  2  1  0
  2  3  1  0
  3  4  1  0
  4  5  2  0
  5  6  1  0
  6  7  1  0
  6  8  2  0
  8  9  1  0
  9 10  2  0
  9 11  1  0
  8 12  1  0
 12 13  2  0
 13 14  1  0
 14 15  1  0
 15 16  1  0
 16 17  2  0
 16 18  1  0
  2 19  1  0
 19 20  2  0
 19 21  1  0
 13  4  1  0
  1 22  1  0
  1 23  1  0
  1 24  1  0
  2 25  1  1
  3 26  1  0
  3 27  1  0
  5 28  1  0
 12 29  1  0
 14 30  1  0
 14 31  1  0
 15 32  1  0
 15 33  1  0
M  CHG  5   1   1   9   1  11  -1  18  -1  21  -1
M  END
>  <meeko>  (1) 
{"is_sidechain": [false], "free_energy": -4.851, "intermolecular_energy": -6.978, "internal_energy": -0.842}

$$$$
4dld_ligand
     RDKit          3D

 33 33  0  0  0  0  0  0  0  0999 V2000
   -4.6320  -23.6860  -16.1530 N   0  0  0  0  0  0  0  0  0  0  0  0
   -4.0990  -24.4510  -14.9730 C   0  0  1  0  0  0  0  0  0  0  0  0
   -5.2410  -24.9870  -14.0920 C   0  0  0  0  0  0  0  0  0  0  0  0
   -5.1820  -24.6430  -12.6070 C   0  0  0  0  0  0  0  0  0  0  0  0
   -4.9030  -25.6900  -11.6960 C   0  0  0  0  0  0  0  0  0  0  0  0
   -4.8530  -25.4730  -10.3160 C   0  0  0  0  0  0  0  0  0  0  0  0
   -4.4810  -26.8070   -9.2890 Cl  0  0  0  0  0  0  0  0  0  0  0  0
   -5.0820  -24.1880   -9.8440 C   0  0  0  0  0  0  0  0  0  0  0  0
   -5.0570  -23.9100   -8.4290 N   0  0  0  0  0  0  0  0  0  0  0  0
   -6.1390  -23.9290   -7.8260 O   0  0  0  0  0  0  0  0  0  0  0  0
   -3.9570  -23.6310   -7.9300 O   0  0  0  0  0  0  0  0  0  0  0  0
   -5.3230  -23.1200  -10.7140 C   0  0  0  0  0  0  0  0  0  0  0  0
   -5.3560  -23.3280  -12.1070 C   0  0  0  0  0  0  0  0  0  0  0  0
   -5.5580  -22.0940  -12.9750 C   0  0  0  0  0  0  0  0  0  0  0  0
   -7.0190  -21.7010  -13.1690 C   0  0  0  0  0  0  0  0  0  0  0  0
   -7.6070  -22.5670  -14.2630 C   0  0  0  0  0  0  0  0  0  0  0  0
   -7.2430  -22.3130  -15.4390 O   0  0  0  0  0  0  0  0  0  0  0  0
   -8.3520  -23.5160  -13.8660 O   0  0  0  0  0  0  0  0  0  0  0  0
   -3.0350  -25.4960  -15.4180 C   0  0  0  0  0  0  0  0  0  0  0  0
   -3.3540  -26.7090  -15.3700 O   0  0  0  0  0  0  0  0  0  0  0  0
   -1.9630  -24.9370  -15.8150 O   0  0  0  0  0  0  0  0  0  0  0  0
   -5.4110  -23.0150  -15.9360 H   0  0  0  0  0  0  0  0  0  0  0  0
   -3.8360  -23.2070  -16.5880 H   0  0  0  0  0  0  0  0  0  0  0  0
   -5.0050  -24.3150  -16.8610 H   0  0  0  0  0  0  0  0  0  0  0  0
   -3.5481  -23.7691  -14.3086 H   0  0  0  0  0  0  0  0  0  0  0  0
   -6.1848  -24.5856  -14.4896 H   0  0  0  0  0  0  0  0  0  0  0  0
   -5.1510  -26.0823  -14.1381 H   0  0  0  0  0  0  0  0  0  0  0  0
   -4.7204  -26.7026  -12.0849 H   0  0  0  0  0  0  0  0  0  0  0  0
   -5.4879  -22.1110  -10.3081 H   0  0  0  0  0  0  0  0  0  0  0  0
   -5.0331  -21.2502  -12.5033 H   0  0  0  0  0  0  0  0  0  0  0  0
   -5.1605  -22.3385  -13.9711 H   0  0  0  0  0  0  0  0  0  0  0  0
   -7.5735  -21.8589  -12.2322 H   0  0  0  0  0  0  0  0  0  0  0  0
   -7.0904  -20.6395  -13.4486 H   0  0  0  0  0  0  0  0  0  0  0  0
  1  2  1  0
  2  3  1  0
  3  4  1  0
  4  5  2  0
  5  6  1  0
  6  7  1  0
  6  8  2  0
  8  9  1  0
  9 10  2  0
  9 11  1  0
  8 12  1  0
 12 13  2  0
 13 14  1  0
 14 15  1  0
 15 16  1  0
 16 17  2  0
 16 18  1  0
  2 19  1  0
 19 20  2  0
 19 21  1  0
 13  4  1  0
  1 22  1  0
  1 23  1  0
  1 24  1  0
  2 25  1  1
  3 26  1  0
  3 27  1  0
  5 28  1  0
 12 29  1  0
 14 30  1  0
 14 31  1  0
 15 32  1  0
 15 33  1  0
M  CHG  5   1   1   9   1  11  -1  18  -1  21  -1
M  END
>  <meeko>  (2) 
{"is_sidechain": [false], "free_energy": -4.659, "intermolecular_energy": -6.648, "internal_energy": -0.896}

$$$$
4dld_ligand
     RDKit          3D

 33 33  0  0  0  0  0  0  0  0999 V2000
   -1.9970  -22.3540  -11.3780 N   0  0  0  0  0  0  0  0  0  0  0  0
   -3.0870  -21.9540  -10.4220 C   0  0  1  0  0  0  0  0  0  0  0  0
   -4.1120  -23.0860  -10.2360 C   0  0  0  0  0  0  0  0  0  0  0  0
   -5.1080  -23.3040  -11.3710 C   0  0  0  0  0  0  0  0  0  0  0  0
   -5.6900  -22.1610  -11.9690 C   0  0  0  0  0  0  0  0  0  0  0  0
   -6.6290  -22.2650  -12.9980 C   0  0  0  0  0  0  0  0  0  0  0  0
   -7.2640  -20.8130  -13.6790 Cl  0  0  0  0  0  0  0  0  0  0  0  0
   -6.9860  -23.5320  -13.4380 C   0  0  0  0  0  0  0  0  0  0  0  0
   -7.9610  -23.6980  -14.4880 N   0  0  0  0  0  0  0  0  0  0  0  0
   -9.0390  -24.2270  -14.1850 O   0  0  0  0  0  0  0  0  0  0  0  0
   -7.6280  -23.3370  -15.6260 O   0  0  0  0  0  0  0  0  0  0  0  0
   -6.4040  -24.6840  -12.9000 C   0  0  0  0  0  0  0  0  0  0  0  0
   -5.4430  -24.5860  -11.8750 C   0  0  0  0  0  0  0  0  0  0  0  0
   -4.8180  -25.8900  -11.4010 C   0  0  0  0  0  0  0  0  0  0  0  0
   -4.0390  -26.6370  -12.4790 C   0  0  0  0  0  0  0  0  0  0  0  0
   -3.0690  -25.6710  -13.1260 C   0  0  0  0  0  0  0  0  0  0  0  0
   -2.1960  -25.1630  -12.3770 O   0  0  0  0  0  0  0  0  0  0  0  0
   -3.1930  -25.5340  -14.3820 O   0  0  0  0  0  0  0  0  0  0  0  0
   -2.4910  -21.3540   -9.1140 C   0  0  0  0  0  0  0  0  0  0  0  0
   -1.6540  -20.4260   -9.2280 O   0  0  0  0  0  0  0  0  0  0  0  0
   -2.9910  -21.8960   -8.0780 O   0  0  0  0  0  0  0  0  0  0  0  0
   -1.5810  -21.5670  -11.9370 H   0  0  0  0  0  0  0  0  0  0  0  0
   -1.2810  -22.8450  -10.8340 H   0  0  0  0  0  0  0  0  0  0  0  0
   -2.3390  -23.0220  -12.0660 H   0  0  0  0  0  0  0  0  0  0  0  0
   -3.6752  -21.1317  -10.8555 H   0  0  0  0  0  0  0  0  0  0  0  0
   -3.5522  -24.0230  -10.0996 H   0  0  0  0  0  0  0  0  0  0  0  0
   -4.7215  -22.7839   -9.3716 H   0  0  0  0  0  0  0  0  0  0  0  0
   -5.3947  -21.1628  -11.6136 H   0  0  0  0  0  0  0  0  0  0  0  0
   -6.6987  -25.6734  -13.2798 H   0  0  0  0  0  0  0  0  0  0  0  0
   -4.1302  -25.6623  -10.5733 H   0  0  0  0  0  0  0  0  0  0  0  0
   -5.6469  -26.5463  -11.0973 H   0  0  0  0  0  0  0  0  0  0  0  0
   -3.4846  -27.4717  -12.0252 H   0  0  0  0  0  0  0  0  0  0  0  0
   -4.7306  -27.0394  -13.2338 H   0  0  0  0  0  0  0  0  0  0  0  0
  1  2  1  0
  2  3  1  0
  3  4  1  0
  4  5  2  0
  5  6  1  0
  6  7  1  0
  6  8  2  0
  8  9  1  0
  9 10  2  0
  9 11  1  0
  8 12  1  0
 12 13  2  0
 13 14  1  0
 14 15  1  0
 15 16  1  0
 16 17  2  0
 16 18  1  0
  2 19  1  0
 19 20  2  0
 19 21  1  0
 13  4  1  0
  1 22  1  0
  1 23  1  0
  1 24  1  0
  2 25  1  6
  3 26  1  0
  3 27  1  0
  5 28  1  0
 12 29  1  0
 14 30  1  0
 14 31  1  0
 15 32  1  0
 15 33  1  0
M  CHG  5   1   1   9   1  11  -1  18  -1  21  -1
M  END
>  <meeko>  (3) 
{"is_sidechain": [false], "free_energy": -4.569, "intermolecular_energy": -6.537, "internal_energy": -0.876}

$$$$
4dld_ligand
     RDKit          3D

 33 33  0  0  0  0  0  0  0  0999 V2000
   -5.1910  -23.4130   -7.5800 N   0  0  0  0  0  0  0  0  0  0  0  0
   -6.2110  -24.1140   -8.4330 C   0  0  1  0  0  0  0  0  0  0  0  0
   -5.5420  -24.9000   -9.5740 C   0  0  0  0  0  0  0  0  0  0  0  0
   -6.1760  -24.7780  -10.9560 C   0  0  0  0  0  0  0  0  0  0  0  0
   -6.9980  -25.8400  -11.4030 C   0  0  0  0  0  0  0  0  0  0  0  0
   -7.6000  -25.8260  -12.6640 C   0  0  0  0  0  0  0  0  0  0  0  0
   -8.6050  -27.1560  -13.1080 Cl  0  0  0  0  0  0  0  0  0  0  0  0
   -7.3790  -24.7300  -13.4860 C   0  0  0  0  0  0  0  0  0  0  0  0
   -7.9650  -24.6700  -14.8030 N   0  0  0  0  0  0  0  0  0  0  0  0
   -9.1560  -24.3410  -14.8820 O   0  0  0  0  0  0  0  0  0  0  0  0
   -7.2410  -24.9940  -15.7550 O   0  0  0  0  0  0  0  0  0  0  0  0
   -6.6050  -23.6440  -13.0660 C   0  0  0  0  0  0  0  0  0  0  0  0
   -6.0100  -23.6430  -11.7890 C   0  0  0  0  0  0  0  0  0  0  0  0
   -5.2430  -22.3890  -11.3960 C   0  0  0  0  0  0  0  0  0  0  0  0
   -3.8630  -22.2770  -12.0370 C   0  0  0  0  0  0  0  0  0  0  0  0
   -2.8170  -22.5060  -10.9670 C   0  0  0  0  0  0  0  0  0  0  0  0
   -3.1650  -22.2780   -9.7810 O   0  0  0  0  0  0  0  0  0  0  0  0
   -1.7130  -22.9820  -11.3770 O   0  0  0  0  0  0  0  0  0  0  0  0
   -7.2200  -24.9130   -7.5560 C   0  0  0  0  0  0  0  0  0  0  0  0
   -7.3150  -26.1480   -7.7580 O   0  0  0  0  0  0  0  0  0  0  0  0
   -7.7980  -24.1660   -6.7050 O   0  0  0  0  0  0  0  0  0  0  0  0
   -5.4630  -22.4510   -7.2550 H   0  0  0  0  0  0  0  0  0  0  0  0
   -4.9820  -24.0300   -6.7880 H   0  0  0  0  0  0  0  0  0  0  0  0
   -4.3130  -23.2900   -8.0820 H   0  0  0  0  0  0  0  0  0  0  0  0
   -6.8325  -23.3697   -8.9523 H   0  0  0  0  0  0  0  0  0  0  0  0
   -4.5016  -24.5515   -9.6530 H   0  0  0  0  0  0  0  0  0  0  0  0
   -5.6532  -25.9591   -9.2983 H   0  0  0  0  0  0  0  0  0  0  0  0
   -7.1677  -26.7005  -10.7391 H   0  0  0  0  0  0  0  0  0  0  0  0
   -6.4597  -22.7847  -13.7371 H   0  0  0  0  0  0  0  0  0  0  0  0
   -5.8359  -21.5127  -11.6969 H   0  0  0  0  0  0  0  0  0  0  0  0
   -5.0847  -22.4414  -10.3087 H   0  0  0  0  0  0  0  0  0  0  0  0
   -3.7580  -23.0353  -12.8270 H   0  0  0  0  0  0  0  0  0  0  0  0
   -3.7342  -21.2798  -12.4831 H   0  0  0  0  0  0  0  0  0  0  0  0
  1  2  1  0
  2  3  1  0
  3  4  1  0
  4  5  2  0
  5  6  1  0
  6  7  1  0
  6  8  2  0
  8  9  1  0
  9 10  2  0
  9 11  1  0
  8 12  1  0
 12 13  2  0
 13 14  1  0
 14 15  1  0
 15 16  1  0
 16 17  2  0
 16 18  1  0
  2 19  1  0
 19 20  2  0
 19 21  1  0
 13  4  1  0
  1 22  1  0
  1 23  1  0
  1 24  1  0
  2 25  1  6
  3 26  1  0
  3 27  1  0
  5 28  1  0
 12 29  1  0
 14 30  1  0
 14 31  1  0
 15 32  1  0
 15 33  1  0
M  CHG  5   1   1   9   1  11  -1  18  -1  21  -1
M  END
>  <meeko>  (4) 
{"is_sidechain": [false], "free_energy": -4.564, "intermolecular_energy": -6.369, "internal_energy": -1.037}

$$$$
4dld_ligand
     RDKit          3D

 33 33  0  0  0  0  0  0  0  0999 V2000
   -1.9930  -22.3120  -11.3440 N   0  0  0  0  0  0  0  0  0  0  0  0
   -3.0300  -21.8930  -10.3380 C   0  0  1  0  0  0  0  0  0  0  0  0
   -4.0310  -23.0280  -10.0600 C   0  0  0  0  0  0  0  0  0  0  0  0
   -5.0160  -23.3650  -11.1750 C   0  0  0  0  0  0  0  0  0  0  0  0
   -5.6430  -22.2900  -11.8490 C   0  0  0  0  0  0  0  0  0  0  0  0
   -6.5770  -22.5030  -12.8670 C   0  0  0  0  0  0  0  0  0  0  0  0
   -7.2690  -21.1290  -13.6460 Cl  0  0  0  0  0  0  0  0  0  0  0  0
   -6.8810  -23.8110  -13.2180 C   0  0  0  0  0  0  0  0  0  0  0  0
   -7.8470  -24.0890  -14.2520 N   0  0  0  0  0  0  0  0  0  0  0  0
   -8.9790  -24.4400  -13.8940 O   0  0  0  0  0  0  0  0  0  0  0  0
   -7.4580  -23.9970  -15.4250 O   0  0  0  0  0  0  0  0  0  0  0  0
   -6.2530  -24.8990  -12.6030 C   0  0  0  0  0  0  0  0  0  0  0  0
   -5.2980  -24.6910  -11.5880 C   0  0  0  0  0  0  0  0  0  0  0  0
   -4.6200  -25.9330  -11.0260 C   0  0  0  0  0  0  0  0  0  0  0  0
   -5.4920  -26.7380  -10.0670 C   0  0  0  0  0  0  0  0  0  0  0  0
   -5.2550  -26.2270   -8.6610 C   0  0  0  0  0  0  0  0  0  0  0  0
   -6.0840  -25.3930   -8.2180 O   0  0  0  0  0  0  0  0  0  0  0  0
   -4.2810  -26.7600   -8.0450 O   0  0  0  0  0  0  0  0  0  0  0  0
   -2.3660  -21.2490   -9.0850 C   0  0  0  0  0  0  0  0  0  0  0  0
   -2.7240  -21.6670   -7.9570 O   0  0  0  0  0  0  0  0  0  0  0  0
   -1.4950  -20.3810   -9.4080 O   0  0  0  0  0  0  0  0  0  0  0  0
   -1.0630  -21.8330  -11.2530 H   0  0  0  0  0  0  0  0  0  0  0  0
   -1.8980  -23.3310  -11.2740 H   0  0  0  0  0  0  0  0  0  0  0  0
   -2.3050  -22.1210  -12.2940 H   0  0  0  0  0  0  0  0  0  0  0  0
   -3.6506  -21.0889  -10.7602 H   0  0  0  0  0  0  0  0  0  0  0  0
   -3.4512  -23.9371   -9.8422 H   0  0  0  0  0  0  0  0  0  0  0  0
   -4.6519  -22.6665   -9.2271 H   0  0  0  0  0  0  0  0  0  0  0  0
   -5.3884  -21.2585  -11.5640 H   0  0  0  0  0  0  0  0  0  0  0  0
   -6.5062  -25.9234  -12.9136 H   0  0  0  0  0  0  0  0  0  0  0  0
   -4.3394  -26.5840  -11.8671 H   0  0  0  0  0  0  0  0  0  0  0  0
   -3.7501  -25.5862  -10.4490 H   0  0  0  0  0  0  0  0  0  0  0  0
   -6.5516  -26.6124  -10.3341 H   0  0  0  0  0  0  0  0  0  0  0  0
   -5.2354  -27.8058  -10.1291 H   0  0  0  0  0  0  0  0  0  0  0  0
  1  2  1  0
  2  3  1  0
  3  4  1  0
  4  5  2  0
  5  6  1  0
  6  7  1  0
  6  8  2  0
  8  9  1  0
  9 10  2  0
  9 11  1  0
  8 12  1  0
 12 13  2  0
 13 14  1  0
 14 15  1  0
 15 16  1  0
 16 17  2  0
 16 18  1  0
  2 19  1  0
 19 20  2  0
 19 21  1  0
 13  4  1  0
  1 22  1  0
  1 23  1  0
  1 24  1  0
  2 25  1  6
  3 26  1  0
  3 27  1  0
  5 28  1  0
 12 29  1  0
 14 30  1  0
 14 31  1  0
 15 32  1  0
 15 33  1  0
M  CHG  5   1   1   9   1  11  -1  18  -1  21  -1
M  END
>  <meeko>  (5) 
{"is_sidechain": [false], "free_energy": -4.466, "intermolecular_energy": -6.46, "internal_energy": -0.806}

$$$$
4dld_ligand
     RDKit          3D

 33 33  0  0  0  0  0  0  0  0999 V2000
   -3.0430  -21.4780   -9.4480 N   0  0  0  0  0  0  0  0  0  0  0  0
   -3.9470  -22.5710   -9.9500 C   0  0  1  0  0  0  0  0  0  0  0  0
   -3.5160  -23.0570  -11.3450 C   0  0  0  0  0  0  0  0  0  0  0  0
   -4.6040  -23.1410  -12.4100 C   0  0  0  0  0  0  0  0  0  0  0  0
   -5.3590  -21.9740  -12.6780 C   0  0  0  0  0  0  0  0  0  0  0  0
   -6.3910  -21.9650  -13.6200 C   0  0  0  0  0  0  0  0  0  0  0  0
   -7.2380  -20.4870  -13.8930 Cl  0  0  0  0  0  0  0  0  0  0  0  0
   -6.6680  -23.1390  -14.3050 C   0  0  0  0  0  0  0  0  0  0  0  0
   -7.7320  -23.1890  -15.2780 N   0  0  0  0  0  0  0  0  0  0  0  0
   -7.5440  -22.6120  -16.3570 O   0  0  0  0  0  0  0  0  0  0  0  0
   -8.7740  -23.7700  -14.9420 O   0  0  0  0  0  0  0  0  0  0  0  0
   -5.9190  -24.3020  -14.0980 C   0  0  0  0  0  0  0  0  0  0  0  0
   -4.8650  -24.3140  -13.1630 C   0  0  0  0  0  0  0  0  0  0  0  0
   -4.0660  -25.6050  -13.0550 C   0  0  0  0  0  0  0  0  0  0  0  0
   -3.3890  -26.0290  -14.3550 C   0  0  0  0  0  0  0  0  0  0  0  0
   -2.6610  -24.8330  -14.9300 C   0  0  0  0  0  0  0  0  0  0  0  0
   -1.7650  -24.3220  -14.2120 O   0  0  0  0  0  0  0  0  0  0  0  0
   -2.9810  -24.5190  -16.1180 O   0  0  0  0  0  0  0  0  0  0  0  0
   -4.1380  -23.6770   -8.8730 C   0  0  0  0  0  0  0  0  0  0  0  0
   -3.8350  -23.3950   -7.6880 O   0  0  0  0  0  0  0  0  0  0  0  0
   -4.6290  -24.7400   -9.3710 O   0  0  0  0  0  0  0  0  0  0  0  0
   -3.1690  -21.2230   -8.4370 H   0  0  0  0  0  0  0  0  0  0  0  0
   -2.0790  -21.7680   -9.6440 H   0  0  0  0  0  0  0  0  0  0  0  0
   -3.1890  -20.6130   -9.9660 H   0  0  0  0  0  0  0  0  0  0  0  0
   -4.9588  -22.1700  -10.1095 H   0  0  0  0  0  0  0  0  0  0  0  0
   -2.7422  -22.3673  -11.7133 H   0  0  0  0  0  0  0  0  0  0  0  0
   -3.1773  -24.0930  -11.1970 H   0  0  0  0  0  0  0  0  0  0  0  0
   -5.1270  -21.0490  -12.1298 H   0  0  0  0  0  0  0  0  0  0  0  0
   -6.1542  -25.2126  -14.6685 H   0  0  0  0  0  0  0  0  0  0  0  0
   -3.2882  -25.4669  -12.2895 H   0  0  0  0  0  0  0  0  0  0  0  0
   -4.7809  -26.3998  -12.7957 H   0  0  0  0  0  0  0  0  0  0  0  0
   -2.6716  -26.8381  -14.1530 H   0  0  0  0  0  0  0  0  0  0  0  0
   -4.1414  -26.3919  -15.0707 H   0  0  0  0  0  0  0  0  0  0  0  0
  1  2  1  0
  2  3  1  0
  3  4  1  0
  4  5  2  0
  5  6  1  0
  6  7  1  0
  6  8  2  0
  8  9  1  0
  9 10  2  0
  9 11  1  0
  8 12  1  0
 12 13  2  0
 13 14  1  0
 14 15  1  0
 15 16  1  0
 16 17  2  0
 16 18  1  0
  2 19  1  0
 19 20  2  0
 19 21  1  0
 13  4  1  0
  1 22  1  0
  1 23  1  0
  1 24  1  0
  2 25  1  6
  3 26  1  0
  3 27  1  0
  5 28  1  0
 12 29  1  0
 14 30  1  0
 14 31  1  0
 15 32  1  0
 15 33  1  0
M  CHG  5   1   1   9   1  11  -1  18  -1  21  -1
M  END
>  <meeko>  (6) 
{"is_sidechain": [false], "free_energy": -4.387, "intermolecular_energy": -6.541, "internal_energy": -0.611}

$$$$
4dld_ligand
     RDKit          3D

 33 33  0  0  0  0  0  0  0  0999 V2000
   -5.7560  -22.6920  -16.2470 N   0  0  0  0  0  0  0  0  0  0  0  0
   -6.2750  -23.0920  -14.8940 C   0  0  1  0  0  0  0  0  0  0  0  0
   -5.3190  -24.0770  -14.1970 C   0  0  0  0  0  0  0  0  0  0  0  0
   -5.5570  -24.3310  -12.7110 C   0  0  0  0  0  0  0  0  0  0  0  0
   -6.5060  -25.3170  -12.3540 C   0  0  0  0  0  0  0  0  0  0  0  0
   -6.8070  -25.6010  -11.0180 C   0  0  0  0  0  0  0  0  0  0  0  0
   -7.9610  -26.8380  -10.6830 Cl  0  0  0  0  0  0  0  0  0  0  0  0
   -6.1430  -24.8890  -10.0290 C   0  0  0  0  0  0  0  0  0  0  0  0
   -6.4250  -25.1310   -8.6350 N   0  0  0  0  0  0  0  0  0  0  0  0
   -7.4790  -24.6680   -8.1790 O   0  0  0  0  0  0  0  0  0  0  0  0
   -5.5680  -25.7490   -7.9880 O   0  0  0  0  0  0  0  0  0  0  0  0
   -5.1700  -23.9340  -10.3420 C   0  0  0  0  0  0  0  0  0  0  0  0
   -4.8490  -23.6560  -11.6850 C   0  0  0  0  0  0  0  0  0  0  0  0
   -3.7310  -22.6510  -11.9240 C   0  0  0  0  0  0  0  0  0  0  0  0
   -2.4030  -23.0310  -11.2760 C   0  0  0  0  0  0  0  0  0  0  0  0
   -1.5960  -23.8350  -12.2720 C   0  0  0  0  0  0  0  0  0  0  0  0
   -2.1530  -24.8510  -12.7590 O   0  0  0  0  0  0  0  0  0  0  0  0
   -0.4600  -23.3510  -12.5710 O   0  0  0  0  0  0  0  0  0  0  0  0
   -6.6910  -21.8440  -14.0620 C   0  0  0  0  0  0  0  0  0  0  0  0
   -5.9340  -20.8440  -14.0940 O   0  0  0  0  0  0  0  0  0  0  0  0
   -7.8060  -22.0200  -13.4750 O   0  0  0  0  0  0  0  0  0  0  0  0
   -5.3730  -21.7150  -16.3080 H   0  0  0  0  0  0  0  0  0  0  0  0
   -5.0530  -23.3860  -16.5200 H   0  0  0  0  0  0  0  0  0  0  0  0
   -6.4900  -22.7390  -16.9510 H   0  0  0  0  0  0  0  0  0  0  0  0
   -7.2078  -23.6632  -15.0105 H   0  0  0  0  0  0  0  0  0  0  0  0
   -5.3992  -25.0431  -14.7169 H   0  0  0  0  0  0  0  0  0  0  0  0
   -4.3272  -23.6046  -14.2533 H   0  0  0  0  0  0  0  0  0  0  0  0
   -7.0215  -25.8759  -13.1489 H   0  0  0  0  0  0  0  0  0  0  0  0
   -4.6521  -23.3966   -9.5340 H   0  0  0  0  0  0  0  0  0  0  0  0
   -3.5729  -22.5616  -13.0089 H   0  0  0  0  0  0  0  0  0  0  0  0
   -4.0504  -21.7052  -11.4619 H   0  0  0  0  0  0  0  0  0  0  0  0
   -1.8509  -22.1206  -10.9997 H   0  0  0  0  0  0  0  0  0  0  0  0
   -2.5828  -23.6260  -10.3685 H   0  0  0  0  0  0  0  0  0  0  0  0
  1  2  1  0
  2  3  1  0
  3  4  1  0
  4  5  2  0
  5  6  1  0
  6  7  1  0
  6  8  2  0
  8  9  1  0
  9 10  2  0
  9 11  1  0
  8 12  1  0
 12 13  2  0
 13 14  1  0
 14 15  1  0
 15 16  1  0
 16 17  2  0
 16 18  1  0
  2 19  1  0
 19 20  2  0
 19 21  1  0
 13  4  1  0
  1 22  1  0
  1 23  1  0
  1 24  1  0
  2 25  1  6
  3 26  1  0
  3 27  1  0
  5 28  1  0
 12 29  1  0
 14 30  1  0
 14 31  1  0
 15 32  1  0
 15 33  1  0
M  CHG  5   1   1   9   1  11  -1  18  -1  21  -1
M  END
>  <meeko>  (7) 
{"is_sidechain": [false], "free_energy": -4.383, "intermolecular_energy": -6.481, "internal_energy": -0.665}

$$$$
4dld_ligand
     RDKit          3D

 33 33  0  0  0  0  0  0  0  0999 V2000
   -5.4600  -24.4350  -17.0860 N   0  0  0  0  0  0  0  0  0  0  0  0
   -4.3660  -24.6510  -16.0770 C   0  0  1  0  0  0  0  0  0  0  0  0
   -4.9360  -25.0920  -14.7180 C   0  0  0  0  0  0  0  0  0  0  0  0
   -4.4890  -24.2980  -13.4950 C   0  0  0  0  0  0  0  0  0  0  0  0
   -3.1010  -24.2200  -13.2280 C   0  0  0  0  0  0  0  0  0  0  0  0
   -2.6010  -23.5350  -12.1170 C   0  0  0  0  0  0  0  0  0  0  0  0
   -0.8920  -23.4760  -11.8910 Cl  0  0  0  0  0  0  0  0  0  0  0  0
   -3.5050  -22.9160  -11.2650 C   0  0  0  0  0  0  0  0  0  0  0  0
   -3.0450  -22.2070  -10.0960 N   0  0  0  0  0  0  0  0  0  0  0  0
   -2.2770  -21.2530  -10.2750 O   0  0  0  0  0  0  0  0  0  0  0  0
   -3.4200  -22.6360   -8.9950 O   0  0  0  0  0  0  0  0  0  0  0  0
   -4.8800  -22.9370  -11.5160 C   0  0  0  0  0  0  0  0  0  0  0  0
   -5.3900  -23.6100  -12.6440 C   0  0  0  0  0  0  0  0  0  0  0  0
   -6.8930  -23.5210  -12.8680 C   0  0  0  0  0  0  0  0  0  0  0  0
   -7.3090  -22.4600  -13.8830 C   0  0  0  0  0  0  0  0  0  0  0  0
   -7.9430  -23.1540  -15.0700 C   0  0  0  0  0  0  0  0  0  0  0  0
   -8.6360  -24.1730  -14.8220 O   0  0  0  0  0  0  0  0  0  0  0  0
   -7.7700  -22.5840  -16.1910 O   0  0  0  0  0  0  0  0  0  0  0  0
   -3.2340  -25.5440  -16.6630 C   0  0  0  0  0  0  0  0  0  0  0  0
   -3.5690  -26.6160  -17.2240 O   0  0  0  0  0  0  0  0  0  0  0  0
   -2.0880  -25.0130  -16.5090 O   0  0  0  0  0  0  0  0  0  0  0  0
   -5.1350  -24.1730  -18.0500 H   0  0  0  0  0  0  0  0  0  0  0  0
   -6.0300  -25.2880  -17.1020 H   0  0  0  0  0  0  0  0  0  0  0  0
   -6.0840  -23.6840  -16.7970 H   0  0  0  0  0  0  0  0  0  0  0  0
   -3.8709  -23.6935  -15.8579 H   0  0  0  0  0  0  0  0  0  0  0  0
   -6.0321  -25.0217  -14.7781 H   0  0  0  0  0  0  0  0  0  0  0  0
   -4.5476  -26.1088  -14.5590 H   0  0  0  0  0  0  0  0  0  0  0  0
   -2.3962  -24.7123  -13.9142 H   0  0  0  0  0  0  0  0  0  0  0  0
   -5.5687  -22.4246  -10.8281 H   0  0  0  0  0  0  0  0  0  0  0  0
   -7.2477  -24.4990  -13.2253 H   0  0  0  0  0  0  0  0  0  0  0  0
   -7.3410  -23.2328  -11.9056 H   0  0  0  0  0  0  0  0  0  0  0  0
   -8.0344  -21.7719  -13.4244 H   0  0  0  0  0  0  0  0  0  0  0  0
   -6.4301  -21.8839  -14.2081 H   0  0  0  0  0  0  0  0  0  0  0  0
  1  2  1  0
  2  3  1  0
  3  4  1  0
  4  5  2  0
  5  6  1  0
  6  7  1  0
  6  8  2  0
  8  9  1  0
  9 10  2  0
  9 11  1  0
  8 12  1  0
 12 13  2  0
 13 14  1  0
 14 15  1  0
 15 16  1  0
 16 17  2  0
 16 18  1  0
  2 19  1  0
 19 20  2  0
 19 21  1  0
 13  4  1  0
  1 22  1  0
  1 23  1  0
  1 24  1  0
  2 25  1  1
  3 26  1  0
  3 27  1  0
  5 28  1  0
 12 29  1  0
 14 30  1  0
 14 31  1  0
 15 32  1  0
 15 33  1  0
M  CHG  5   1   1   9   1  11  -1  18  -1  21  -1
M  END
>  <meeko>  (8) 
{"is_sidechain": [false], "free_energy": -4.336, "intermolecular_energy": -6.248, "internal_energy": -0.83}

$$$$
4dld_ligand
     RDKit          3D

 33 33  0  0  0  0  0  0  0  0999 V2000
   -3.8490  -23.0110   -8.9560 N   0  0  0  0  0  0  0  0  0  0  0  0
   -4.0210  -23.1860  -10.4400 C   0  0  1  0  0  0  0  0  0  0  0  0
   -5.3700  -22.6200  -10.9170 C   0  0  0  0  0  0  0  0  0  0  0  0
   -6.1120  -23.4190  -11.9830 C   0  0  0  0  0  0  0  0  0  0  0  0
   -6.4270  -22.7670  -13.1990 C   0  0  0  0  0  0  0  0  0  0  0  0
   -7.1260  -23.4130  -14.2220 C   0  0  0  0  0  0  0  0  0  0  0  0
   -7.4420  -22.5400  -15.6760 Cl  0  0  0  0  0  0  0  0  0  0  0  0
   -7.5100  -24.7320  -14.0260 C   0  0  0  0  0  0  0  0  0  0  0  0
   -8.2450  -25.4420  -15.0440 N   0  0  0  0  0  0  0  0  0  0  0  0
   -7.5890  -26.0300  -15.9140 O   0  0  0  0  0  0  0  0  0  0  0  0
   -9.4820  -25.3740  -14.9940 O   0  0  0  0  0  0  0  0  0  0  0  0
   -7.1820  -25.4230  -12.8560 C   0  0  0  0  0  0  0  0  0  0  0  0
   -6.4630  -24.7840  -11.8270 C   0  0  0  0  0  0  0  0  0  0  0  0
   -6.0960  -25.6380  -10.6210 C   0  0  0  0  0  0  0  0  0  0  0  0
   -7.2060  -25.7560   -9.5810 C   0  0  0  0  0  0  0  0  0  0  0  0
   -6.7210  -25.1340   -8.2890 C   0  0  0  0  0  0  0  0  0  0  0  0
   -7.5940  -24.6010   -7.5590 O   0  0  0  0  0  0  0  0  0  0  0  0
   -5.4860  -25.2880   -8.0400 O   0  0  0  0  0  0  0  0  0  0  0  0
   -2.7640  -22.6910  -11.2120 C   0  0  0  0  0  0  0  0  0  0  0  0
   -2.4320  -23.3180  -12.2470 O   0  0  0  0  0  0  0  0  0  0  0  0
   -2.2580  -21.6550  -10.6730 O   0  0  0  0  0  0  0  0  0  0  0  0
   -2.8790  -23.1930   -8.5940 H   0  0  0  0  0  0  0  0  0  0  0  0
   -4.1630  -22.0630   -8.7240 H   0  0  0  0  0  0  0  0  0  0  0  0
   -4.4540  -23.6450   -8.4380 H   0  0  0  0  0  0  0  0  0  0  0  0
   -4.0818  -24.2576  -10.6810 H   0  0  0  0  0  0  0  0  0  0  0  0
   -6.0285  -22.5445  -10.0391 H   0  0  0  0  0  0  0  0  0  0  0  0
   -5.1267  -21.6593  -11.3944 H   0  0  0  0  0  0  0  0  0  0  0  0
   -6.1128  -21.7227  -13.3428 H   0  0  0  0  0  0  0  0  0  0  0  0
   -7.4875  -26.4731  -12.7380 H   0  0  0  0  0  0  0  0  0  0  0  0
   -5.8466  -26.6487  -10.9763 H   0  0  0  0  0  0  0  0  0  0  0  0
   -5.2488  -25.1408  -10.1260 H   0  0  0  0  0  0  0  0  0  0  0  0
   -8.1032  -25.2264   -9.9340 H   0  0  0  0  0  0  0  0  0  0  0  0
   -7.4595  -26.8140   -9.4184 H   0  0  0  0  0  0  0  0  0  0  0  0
  1  2  1  0
  2  3  1  0
  3  4  1  0
  4  5  2  0
  5  6  1  0
  6  7  1  0
  6  8  2  0
  8  9  1  0
  9 10  2  0
  9 11  1  0
  8 12  1  0
 12 13  2  0
 13 14  1  0
 14 15  1  0
 15 16  1  0
 16 17  2  0
 16 18  1  0
  2 19  1  0
 19 20  2  0
 19 21  1  0
 13  4  1  0
  1 22  1  0
  1 23  1  0
  1 24  1  0
  2 25  1  1
  3 26  1  0
  3 27  1  0
  5 28  1  0
 12 29  1  0
 14 30  1  0
 14 31  1  0
 15 32  1  0
 15 33  1  0
M  CHG  5   1   1   9   1  11  -1  18  -1  21  -1
M  END
>  <meeko>  (9) 
{"is_sidechain": [false], "free_energy": -4.284, "intermolecular_energy": -6.167, "internal_energy": -0.837}

$$$$
