2c3i_ligand
     RDKit          3D

 41 44  0  0  0  0  0  0  0  0999 V2000
   -8.3160   -5.8270   -8.8430 C   0  0  0  0  0  0  0  0  0  0  0  0
   -7.7320   -6.4580   -7.6070 C   0  0  0  0  0  0  0  0  0  0  0  0
   -8.4540   -6.9960   -6.7690 O   0  0  0  0  0  0  0  0  0  0  0  0
   -6.2530   -6.4270   -7.4080 C   0  0  0  0  0  0  0  0  0  0  0  0
   -5.6280   -7.1020   -6.3540 C   0  0  0  0  0  0  0  0  0  0  0  0
   -4.2420   -7.0380   -6.2120 C   0  0  0  0  0  0  0  0  0  0  0  0
   -3.4750   -6.3040   -7.1180 C   0  0  0  0  0  0  0  0  0  0  0  0
   -4.0780   -5.6240   -8.1840 C   0  0  0  0  0  0  0  0  0  0  0  0
   -3.2900   -4.8330   -9.1310 C   0  0  0  0  0  0  0  0  0  0  0  0
   -2.2510   -5.2160   -9.9650 C   0  0  0  0  0  0  0  0  0  0  0  0
   -1.7670   -4.1700  -10.7050 N   0  0  0  0  0  0  0  0  0  0  0  0
   -2.4850   -3.1350  -10.3280 C   0  0  0  0  0  0  0  0  0  0  0  0
   -2.4400   -1.7890  -10.7400 C   0  0  0  0  0  0  0  0  0  0  0  0
   -3.2730   -0.9040  -10.1810 C   0  0  0  0  0  0  0  0  0  0  0  0
   -4.2220   -1.3790   -9.1280 C   0  0  0  0  0  0  0  0  0  0  0  0
   -5.0920   -0.5270   -8.4940 N   0  0  0  0  0  0  0  0  0  0  0  0
   -6.5030   -0.4010   -8.7870 C   0  0  0  0  0  0  0  0  0  0  0  0
   -7.3070   -1.0000   -7.6740 C   0  0  0  0  0  0  0  0  0  0  0  0
   -7.7810   -2.4300   -7.7500 C   0  0  0  0  0  0  0  0  0  0  0  0
   -8.7720   -1.3050   -7.8640 C   0  0  0  0  0  0  0  0  0  0  0  0
   -4.3010   -2.6280   -8.7450 N   0  0  0  0  0  0  0  0  0  0  0  0
   -3.4240   -3.4740   -9.3670 N   0  0  0  0  0  0  0  0  0  0  0  0
   -5.4730   -5.6890   -8.3140 C   0  0  0  0  0  0  0  0  0  0  0  0
   -9.0365   -5.0485   -8.5518 H   0  0  0  0  0  0  0  0  0  0  0  0
   -7.5099   -5.3757   -9.4401 H   0  0  0  0  0  0  0  0  0  0  0  0
   -8.8282   -6.5958   -9.4401 H   0  0  0  0  0  0  0  0  0  0  0  0
   -6.2288   -7.6824   -5.6383 H   0  0  0  0  0  0  0  0  0  0  0  0
   -3.7513   -7.5682   -5.3825 H   0  0  0  0  0  0  0  0  0  0  0  0
   -2.3830   -6.2589   -6.9934 H   0  0  0  0  0  0  0  0  0  0  0  0
   -1.8601   -6.2424  -10.0255 H   0  0  0  0  0  0  0  0  0  0  0  0
   -1.7269   -1.4686  -11.5138 H   0  0  0  0  0  0  0  0  0  0  0  0
   -3.2600    0.1517  -10.4898 H   0  0  0  0  0  0  0  0  0  0  0  0
   -4.6460    0.3710   -8.3290 H   0  0  0  0  0  0  0  0  0  0  0  0
   -6.7607    0.6632   -8.8921 H   0  0  0  0  0  0  0  0  0  0  0  0
   -6.7284   -0.9308   -9.7243 H   0  0  0  0  0  0  0  0  0  0  0  0
   -6.7200   -0.4118   -6.9533 H   0  0  0  0  0  0  0  0  0  0  0  0
   -7.5410   -3.0426   -8.6316 H   0  0  0  0  0  0  0  0  0  0  0  0
   -7.6824   -3.3167   -7.1065 H   0  0  0  0  0  0  0  0  0  0  0  0
   -9.2566   -1.0950   -8.8289 H   0  0  0  0  0  0  0  0  0  0  0  0
   -9.6979   -1.0287   -7.3384 H   0  0  0  0  0  0  0  0  0  0  0  0
   -5.9647   -5.1531   -9.1393 H   0  0  0  0  0  0  0  0  0  0  0  0
  1  2  1  0
  2  3  2  0
  2  4  1  0
  4  5  2  0
  5  6  1  0
  6  7  2  0
  7  8  1  0
  8  9  1  0
  9 10  2  0
 10 11  1  0
 11 12  2  0
 12 13  1  0
 13 14  2  0
 14 15  1  0
 15 16  1  0
 16 17  1  0
 17 18  1  0
 18 19  1  0
 19 20  1  0
 15 21  2  0
 21 22  1  0
  8 23  2  0
 23  4  1  0
 22  9  1  0
 22 12  1  0
 20 18  1  0
  1 24  1  0
  1 25  1  0
  1 26  1  0
  5 27  1  0
  6 28  1  0
  7 29  1  0
 10 30  1  0
 13 31  1  0
 14 32  1  0
 16 33  1  0
 17 34  1  0
 17 35  1  0
 18 36  1  0
 19 37  1  0
 19 38  1  0
 20 39  1  0
 20 40  1  0
 23 41  1  0
M  END
>  <meeko>  (1) 
{"is_sidechain": [false], "free_energy": -8.154, "intermolecular_energy": -10.538, "internal_energy": -0.785}

$$$$
2c3i_ligand
     RDKit          3D

 41 44  0  0  0  0  0  0  0  0999 V2000
   -2.6840   -5.3940   -8.9020 C   0  0  0  0  0  0  0  0  0  0  0  0
   -4.1240   -4.9810   -8.7440 C   0  0  0  0  0  0  0  0  0  0  0  0
   -4.5640   -3.9870   -9.3180 O   0  0  0  0  0  0  0  0  0  0  0  0
   -5.0210   -5.8010   -7.8760 C   0  0  0  0  0  0  0  0  0  0  0  0
   -4.5210   -6.7140   -6.9420 C   0  0  0  0  0  0  0  0  0  0  0  0
   -5.4030   -7.4580   -6.1580 C   0  0  0  0  0  0  0  0  0  0  0  0
   -6.7820   -7.2950   -6.3010 C   0  0  0  0  0  0  0  0  0  0  0  0
   -7.3040   -6.3830   -7.2260 C   0  0  0  0  0  0  0  0  0  0  0  0
   -8.7480   -6.2130   -7.4020 C   0  0  0  0  0  0  0  0  0  0  0  0
   -9.8010   -6.9560   -6.8930 C   0  0  0  0  0  0  0  0  0  0  0  0
  -11.0180   -6.4740   -7.2970 N   0  0  0  0  0  0  0  0  0  0  0  0
  -10.7320   -5.4460   -8.0640 C   0  0  0  0  0  0  0  0  0  0  0  0
  -11.5750   -4.5610   -8.7640 C   0  0  0  0  0  0  0  0  0  0  0  0
  -11.0340   -3.5910   -9.5100 C   0  0  0  0  0  0  0  0  0  0  0  0
   -9.5440   -3.4880   -9.5790 C   0  0  0  0  0  0  0  0  0  0  0  0
   -8.9140   -2.5330  -10.3390 N   0  0  0  0  0  0  0  0  0  0  0  0
   -7.5100   -2.1930  -10.2610 C   0  0  0  0  0  0  0  0  0  0  0  0
   -7.3120   -1.0820   -9.2760 C   0  0  0  0  0  0  0  0  0  0  0  0
   -5.9370   -0.7590   -8.7460 C   0  0  0  0  0  0  0  0  0  0  0  0
   -6.9630   -1.3820   -7.8390 C   0  0  0  0  0  0  0  0  0  0  0  0
   -8.7390   -4.2810   -8.9190 N   0  0  0  0  0  0  0  0  0  0  0  0
   -9.3660   -5.2410   -8.1730 N   0  0  0  0  0  0  0  0  0  0  0  0
   -6.4090   -5.6440   -8.0140 C   0  0  0  0  0  0  0  0  0  0  0  0
   -2.2289   -5.5245   -7.9091 H   0  0  0  0  0  0  0  0  0  0  0  0
   -2.6334   -6.3429   -9.4561 H   0  0  0  0  0  0  0  0  0  0  0  0
   -2.1382   -4.6162   -9.4561 H   0  0  0  0  0  0  0  0  0  0  0  0
   -3.4350   -6.8451   -6.8259 H   0  0  0  0  0  0  0  0  0  0  0  0
   -5.0100   -8.1765   -5.4236 H   0  0  0  0  0  0  0  0  0  0  0  0
   -7.4668   -7.8904   -5.6793 H   0  0  0  0  0  0  0  0  0  0  0  0
   -9.6743   -7.8319   -6.2398 H   0  0  0  0  0  0  0  0  0  0  0  0
  -12.6680   -4.6663   -8.6980 H   0  0  0  0  0  0  0  0  0  0  0  0
  -11.6719   -2.8842  -10.0609 H   0  0  0  0  0  0  0  0  0  0  0  0
   -9.5090   -1.7150  -10.4360 H   0  0  0  0  0  0  0  0  0  0  0  0
   -6.9380   -3.0749   -9.9369 H   0  0  0  0  0  0  0  0  0  0  0  0
   -7.1591   -1.8677  -11.2515 H   0  0  0  0  0  0  0  0  0  0  0  0
   -8.1047   -0.5122   -9.7828 H   0  0  0  0  0  0  0  0  0  0  0  0
   -5.0680   -1.3460   -9.0780 H   0  0  0  0  0  0  0  0  0  0  0  0
   -5.3118    0.1452   -8.7069 H   0  0  0  0  0  0  0  0  0  0  0  0
   -6.8439   -2.4243   -7.5083 H   0  0  0  0  0  0  0  0  0  0  0  0
   -7.3980   -1.1216   -6.8628 H   0  0  0  0  0  0  0  0  0  0  0  0
   -6.8016   -4.9295   -8.7525 H   0  0  0  0  0  0  0  0  0  0  0  0
  1  2  1  0
  2  3  2  0
  2  4  1  0
  4  5  2  0
  5  6  1  0
  6  7  2  0
  7  8  1  0
  8  9  1  0
  9 10  2  0
 10 11  1  0
 11 12  2  0
 12 13  1  0
 13 14  2  0
 14 15  1  0
 15 16  1  0
 16 17  1  0
 17 18  1  0
 18 19  1  0
 19 20  1  0
 15 21  2  0
 21 22  1  0
  8 23  2  0
 23  4  1  0
 22  9  1  0
 22 12  1  0
 20 18  1  0
  1 24  1  0
  1 25  1  0
  1 26  1  0
  5 27  1  0
  6 28  1  0
  7 29  1  0
 10 30  1  0
 13 31  1  0
 14 32  1  0
 16 33  1  0
 17 34  1  0
 17 35  1  0
 18 36  1  0
 19 37  1  0
 19 38  1  0
 20 39  1  0
 20 40  1  0
 23 41  1  0
M  END
>  <meeko>  (2) 
{"is_sidechain": [false], "free_energy": -7.815, "intermolecular_energy": -10.469, "internal_energy": -0.415}

$$$$
2c3i_ligand
     RDKit          3D

 41 44  0  0  0  0  0  0  0  0999 V2000
  -14.3760   -6.8630   -8.1500 C   0  0  0  0  0  0  0  0  0  0  0  0
  -13.9570   -5.4410   -8.4170 C   0  0  0  0  0  0  0  0  0  0  0  0
  -14.7930   -4.5590   -8.6060 O   0  0  0  0  0  0  0  0  0  0  0  0
  -12.5010   -5.1090   -8.4470 C   0  0  0  0  0  0  0  0  0  0  0  0
  -12.0020   -4.0110   -9.1550 C   0  0  0  0  0  0  0  0  0  0  0  0
  -10.6320   -3.7470   -9.1520 C   0  0  0  0  0  0  0  0  0  0  0  0
   -9.7580   -4.5740   -8.4450 C   0  0  0  0  0  0  0  0  0  0  0  0
  -10.2350   -5.6760   -7.7250 C   0  0  0  0  0  0  0  0  0  0  0  0
   -9.3290   -6.5650   -6.9950 C   0  0  0  0  0  0  0  0  0  0  0  0
   -9.6040   -7.5140   -6.0230 C   0  0  0  0  0  0  0  0  0  0  0  0
   -8.4700   -8.1420   -5.5770 N   0  0  0  0  0  0  0  0  0  0  0  0
   -7.4920   -7.5820   -6.2530 C   0  0  0  0  0  0  0  0  0  0  0  0
   -6.1030   -7.8150   -6.2180 C   0  0  0  0  0  0  0  0  0  0  0  0
   -5.2960   -7.0860   -6.9970 C   0  0  0  0  0  0  0  0  0  0  0  0
   -5.9020   -6.0390   -7.8760 C   0  0  0  0  0  0  0  0  0  0  0  0
   -5.1380   -5.2380   -8.6880 N   0  0  0  0  0  0  0  0  0  0  0  0
   -5.3370   -3.8200   -8.8900 C   0  0  0  0  0  0  0  0  0  0  0  0
   -5.7310   -3.5610  -10.3120 C   0  0  0  0  0  0  0  0  0  0  0  0
   -6.6710   -2.4340  -10.6580 C   0  0  0  0  0  0  0  0  0  0  0  0
   -7.1300   -3.8610  -10.7880 C   0  0  0  0  0  0  0  0  0  0  0  0
   -7.1900   -5.8200   -7.9450 N   0  0  0  0  0  0  0  0  0  0  0  0
   -7.9500   -6.6090   -7.1260 N   0  0  0  0  0  0  0  0  0  0  0  0
  -11.6140   -5.9370   -7.7390 C   0  0  0  0  0  0  0  0  0  0  0  0
  -14.4260   -7.0328   -7.0643 H   0  0  0  0  0  0  0  0  0  0  0  0
  -15.3655   -7.0435   -8.5953 H   0  0  0  0  0  0  0  0  0  0  0  0
  -13.6425   -7.5512   -8.5953 H   0  0  0  0  0  0  0  0  0  0  0  0
  -12.6882   -3.3569   -9.7130 H   0  0  0  0  0  0  0  0  0  0  0  0
  -10.2392   -2.8836   -9.7091 H   0  0  0  0  0  0  0  0  0  0  0  0
   -8.6796   -4.3571   -8.4535 H   0  0  0  0  0  0  0  0  0  0  0  0
  -10.6153   -7.7374   -5.6523 H   0  0  0  0  0  0  0  0  0  0  0  0
   -5.6862   -8.5888   -5.5566 H   0  0  0  0  0  0  0  0  0  0  0  0
   -4.2088   -7.2533   -6.9911 H   0  0  0  0  0  0  0  0  0  0  0  0
   -4.9110   -5.7280   -9.5490 H   0  0  0  0  0  0  0  0  0  0  0  0
   -6.1331   -3.4637   -8.2197 H   0  0  0  0  0  0  0  0  0  0  0  0
   -4.4007   -3.2865   -8.6693 H   0  0  0  0  0  0  0  0  0  0  0  0
   -4.7198   -3.8558  -10.6291 H   0  0  0  0  0  0  0  0  0  0  0  0
   -7.0802   -1.7952   -9.8615 H   0  0  0  0  0  0  0  0  0  0  0  0
   -6.6292   -1.5663  -11.3328 H   0  0  0  0  0  0  0  0  0  0  0  0
   -7.8747   -4.2651  -10.0864 H   0  0  0  0  0  0  0  0  0  0  0  0
   -7.5625   -4.4679  -11.5971 H   0  0  0  0  0  0  0  0  0  0  0  0
  -12.0065   -6.8036   -7.1868 H   0  0  0  0  0  0  0  0  0  0  0  0
  1  2  1  0
  2  3  2  0
  2  4  1  0
  4  5  2  0
  5  6  1  0
  6  7  2  0
  7  8  1  0
  8  9  1  0
  9 10  2  0
 10 11  1  0
 11 12  2  0
 12 13  1  0
 13 14  2  0
 14 15  1  0
 15 16  1  0
 16 17  1  0
 17 18  1  0
 18 19  1  0
 19 20  1  0
 15 21  2  0
 21 22  1  0
  8 23  2  0
 23  4  1  0
 22  9  1  0
 22 12  1  0
 20 18  1  0
  1 24  1  0
  1 25  1  0
  1 26  1  0
  5 27  1  0
  6 28  1  0
  7 29  1  0
 10 30  1  0
 13 31  1  0
 14 32  1  0
 16 33  1  0
 17 34  1  0
 17 35  1  0
 18 36  1  0
 19 37  1  0
 19 38  1  0
 20 39  1  0
 20 40  1  0
 23 41  1  0
M  END
>  <meeko>  (3) 
{"is_sidechain": [false], "free_energy": -7.814, "intermolecular_energy": -10.515, "internal_energy": -0.368}

$$$$
2c3i_ligand
     RDKit          3D

 41 44  0  0  0  0  0  0  0  0999 V2000
   -3.4550   -3.6400   -9.3900 C   0  0  0  0  0  0  0  0  0  0  0  0
   -3.0430   -5.0080   -8.9100 C   0  0  0  0  0  0  0  0  0  0  0  0
   -1.9860   -5.5160   -9.2800 O   0  0  0  0  0  0  0  0  0  0  0  0
   -3.9380   -5.7450   -7.9690 C   0  0  0  0  0  0  0  0  0  0  0  0
   -3.4380   -6.6070   -6.9880 C   0  0  0  0  0  0  0  0  0  0  0  0
   -4.3180   -7.2740   -6.1360 C   0  0  0  0  0  0  0  0  0  0  0  0
   -5.6960   -7.0840   -6.2570 C   0  0  0  0  0  0  0  0  0  0  0  0
   -6.2190   -6.2210   -7.2280 C   0  0  0  0  0  0  0  0  0  0  0  0
   -7.6620   -6.0250   -7.3820 C   0  0  0  0  0  0  0  0  0  0  0  0
   -8.6900   -6.9540   -7.4040 C   0  0  0  0  0  0  0  0  0  0  0  0
   -9.9160   -6.3660   -7.5730 N   0  0  0  0  0  0  0  0  0  0  0  0
   -9.6580   -5.0810   -7.6700 C   0  0  0  0  0  0  0  0  0  0  0  0
  -10.5230   -3.9840   -7.8570 C   0  0  0  0  0  0  0  0  0  0  0  0
  -10.0090   -2.7530   -7.9510 C   0  0  0  0  0  0  0  0  0  0  0  0
   -8.5260   -2.5870   -7.8610 C   0  0  0  0  0  0  0  0  0  0  0  0
   -7.9220   -1.3580   -7.9680 N   0  0  0  0  0  0  0  0  0  0  0  0
   -6.5090   -1.1350   -8.1780 C   0  0  0  0  0  0  0  0  0  0  0  0
   -6.3120   -0.0680   -9.2110 C   0  0  0  0  0  0  0  0  0  0  0  0
   -5.0370    0.7370   -9.2530 C   0  0  0  0  0  0  0  0  0  0  0  0
   -6.3220    1.3890   -8.8220 C   0  0  0  0  0  0  0  0  0  0  0  0
   -7.7040   -3.5850   -7.6630 N   0  0  0  0  0  0  0  0  0  0  0  0
   -8.3040   -4.8110   -7.5690 N   0  0  0  0  0  0  0  0  0  0  0  0
   -5.3260   -5.5600   -8.0850 C   0  0  0  0  0  0  0  0  0  0  0  0
   -3.6505   -2.9909   -8.5237 H   0  0  0  0  0  0  0  0  0  0  0  0
   -2.6476   -3.2063   -9.9983 H   0  0  0  0  0  0  0  0  0  0  0  0
   -4.3676   -3.7243   -9.9983 H   0  0  0  0  0  0  0  0  0  0  0  0
   -2.3531   -6.7587   -6.8885 H   0  0  0  0  0  0  0  0  0  0  0  0
   -3.9246   -7.9529   -5.3651 H   0  0  0  0  0  0  0  0  0  0  0  0
   -6.3794   -7.6189   -5.5811 H   0  0  0  0  0  0  0  0  0  0  0  0
   -8.5392   -8.0384   -7.2980 H   0  0  0  0  0  0  0  0  0  0  0  0
  -11.6099   -4.1389   -7.9249 H   0  0  0  0  0  0  0  0  0  0  0  0
  -10.6640   -1.8805   -8.0917 H   0  0  0  0  0  0  0  0  0  0  0  0
   -8.3250   -0.7110   -7.2960 H   0  0  0  0  0  0  0  0  0  0  0  0
   -6.0448   -0.8181   -7.2325 H   0  0  0  0  0  0  0  0  0  0  0  0
   -6.0416   -2.0681   -8.5257 H   0  0  0  0  0  0  0  0  0  0  0  0
   -6.8667   -0.6859   -9.9325 H   0  0  0  0  0  0  0  0  0  0  0  0
   -4.2426    0.5474   -8.5162 H   0  0  0  0  0  0  0  0  0  0  0  0
   -4.2764    0.9491  -10.0189 H   0  0  0  0  0  0  0  0  0  0  0  0
   -6.4669    1.6761   -7.7701 H   0  0  0  0  0  0  0  0  0  0  0  0
   -6.8896    2.2751   -9.1425 H   0  0  0  0  0  0  0  0  0  0  0  0
   -5.7190   -4.8859   -8.8604 H   0  0  0  0  0  0  0  0  0  0  0  0
  1  2  1  0
  2  3  2  0
  2  4  1  0
  4  5  2  0
  5  6  1  0
  6  7  2  0
  7  8  1  0
  8  9  1  0
  9 10  2  0
 10 11  1  0
 11 12  2  0
 12 13  1  0
 13 14  2  0
 14 15  1  0
 15 16  1  0
 16 17  1  0
 17 18  1  0
 18 19  1  0
 19 20  1  0
 15 21  2  0
 21 22  1  0
  8 23  2  0
 23  4  1  0
 22  9  1  0
 22 12  1  0
 20 18  1  0
  1 24  1  0
  1 25  1  0
  1 26  1  0
  5 27  1  0
  6 28  1  0
  7 29  1  0
 10 30  1  0
 13 31  1  0
 14 32  1  0
 16 33  1  0
 17 34  1  0
 17 35  1  0
 18 36  1  0
 19 37  1  0
 19 38  1  0
 20 39  1  0
 20 40  1  0
 23 41  1  0
M  END
>  <meeko>  (4) 
{"is_sidechain": [false], "free_energy": -7.8, "intermolecular_energy": -10.366, "internal_energy": -0.498}

$$$$
2c3i_ligand
     RDKit          3D

 41 44  0  0  0  0  0  0  0  0999 V2000
   -2.7470   -3.8620   -9.9790 C   0  0  0  0  0  0  0  0  0  0  0  0
   -4.1570   -4.0500   -9.4840 C   0  0  0  0  0  0  0  0  0  0  0  0
   -5.0790   -3.3660   -9.9240 O   0  0  0  0  0  0  0  0  0  0  0  0
   -4.4270   -5.0900   -8.4470 C   0  0  0  0  0  0  0  0  0  0  0  0
   -3.3980   -5.7290   -7.7470 C   0  0  0  0  0  0  0  0  0  0  0  0
   -3.7040   -6.6950   -6.7890 C   0  0  0  0  0  0  0  0  0  0  0  0
   -5.0340   -7.0270   -6.5250 C   0  0  0  0  0  0  0  0  0  0  0  0
   -6.0810   -6.3970   -7.2090 C   0  0  0  0  0  0  0  0  0  0  0  0
   -7.4800   -6.7470   -6.9570 C   0  0  0  0  0  0  0  0  0  0  0  0
   -8.0190   -7.7800   -6.2080 C   0  0  0  0  0  0  0  0  0  0  0  0
   -9.3890   -7.7710   -6.2230 N   0  0  0  0  0  0  0  0  0  0  0  0
   -9.7080   -6.7500   -6.9860 C   0  0  0  0  0  0  0  0  0  0  0  0
  -10.9670   -6.2500   -7.3700 C   0  0  0  0  0  0  0  0  0  0  0  0
  -11.0310   -5.1940   -8.1890 C   0  0  0  0  0  0  0  0  0  0  0  0
   -9.7550   -4.5850   -8.6750 C   0  0  0  0  0  0  0  0  0  0  0  0
   -9.7400   -3.5130   -9.5330 N   0  0  0  0  0  0  0  0  0  0  0  0
   -8.5910   -2.6780   -9.8080 C   0  0  0  0  0  0  0  0  0  0  0  0
   -8.4830   -1.6070   -8.7650 C   0  0  0  0  0  0  0  0  0  0  0  0
   -7.3540   -0.6070   -8.8030 C   0  0  0  0  0  0  0  0  0  0  0  0
   -7.3910   -1.6560   -7.7250 C   0  0  0  0  0  0  0  0  0  0  0  0
   -8.5730   -5.0150   -8.3130 N   0  0  0  0  0  0  0  0  0  0  0  0
   -8.5890   -6.0910   -7.4690 N   0  0  0  0  0  0  0  0  0  0  0  0
   -5.7620   -5.4300   -8.1750 C   0  0  0  0  0  0  0  0  0  0  0  0
   -2.0659   -3.7712   -9.1200 H   0  0  0  0  0  0  0  0  0  0  0  0
   -2.4540   -4.7290  -10.5892 H   0  0  0  0  0  0  0  0  0  0  0  0
   -2.6914   -2.9485  -10.5892 H   0  0  0  0  0  0  0  0  0  0  0  0
   -2.3488   -5.4697   -7.9520 H   0  0  0  0  0  0  0  0  0  0  0  0
   -2.8944   -7.1973   -6.2393 H   0  0  0  0  0  0  0  0  0  0  0  0
   -5.2625   -7.7935   -5.7698 H   0  0  0  0  0  0  0  0  0  0  0  0
   -7.4165   -8.5222   -5.6638 H   0  0  0  0  0  0  0  0  0  0  0  0
  -11.8888   -6.7229   -7.0003 H   0  0  0  0  0  0  0  0  0  0  0  0
  -12.0029   -4.7821   -8.4986 H   0  0  0  0  0  0  0  0  0  0  0  0
  -10.5990   -2.9790   -9.4400 H   0  0  0  0  0  0  0  0  0  0  0  0
   -7.6798   -3.2941   -9.7950 H   0  0  0  0  0  0  0  0  0  0  0  0
   -8.7080   -2.2120  -10.7975 H   0  0  0  0  0  0  0  0  0  0  0  0
   -9.5807   -1.5410   -8.7401 H   0  0  0  0  0  0  0  0  0  0  0  0
   -6.5966   -0.6630   -9.5988 H   0  0  0  0  0  0  0  0  0  0  0  0
   -7.2883    0.4909   -8.8172 H   0  0  0  0  0  0  0  0  0  0  0  0
   -6.6607   -2.4785   -7.7330 H   0  0  0  0  0  0  0  0  0  0  0  0
   -7.3636   -1.6419   -6.6254 H   0  0  0  0  0  0  0  0  0  0  0  0
   -6.5710   -4.9303   -8.7280 H   0  0  0  0  0  0  0  0  0  0  0  0
  1  2  1  0
  2  3  2  0
  2  4  1  0
  4  5  2  0
  5  6  1  0
  6  7  2  0
  7  8  1  0
  8  9  1  0
  9 10  2  0
 10 11  1  0
 11 12  2  0
 12 13  1  0
 13 14  2  0
 14 15  1  0
 15 16  1  0
 16 17  1  0
 17 18  1  0
 18 19  1  0
 19 20  1  0
 15 21  2  0
 21 22  1  0
  8 23  2  0
 23  4  1  0
 22  9  1  0
 22 12  1  0
 20 18  1  0
  1 24  1  0
  1 25  1  0
  1 26  1  0
  5 27  1  0
  6 28  1  0
  7 29  1  0
 10 30  1  0
 13 31  1  0
 14 32  1  0
 16 33  1  0
 17 34  1  0
 17 35  1  0
 18 36  1  0
 19 37  1  0
 19 38  1  0
 20 39  1  0
 20 40  1  0
 23 41  1  0
M  END
>  <meeko>  (5) 
{"is_sidechain": [false], "free_energy": -7.793, "intermolecular_energy": -10.442, "internal_energy": -0.414}

$$$$
2c3i_ligand
     RDKit          3D

 41 44  0  0  0  0  0  0  0  0999 V2000
   -0.2460   -2.6340  -11.9170 C   0  0  0  0  0  0  0  0  0  0  0  0
   -1.2350   -3.7680  -11.8490 C   0  0  0  0  0  0  0  0  0  0  0  0
   -1.0610   -4.8000  -12.4960 O   0  0  0  0  0  0  0  0  0  0  0  0
   -2.4390   -3.6270  -10.9780 C   0  0  0  0  0  0  0  0  0  0  0  0
   -3.3600   -2.5860  -11.1430 C   0  0  0  0  0  0  0  0  0  0  0  0
   -4.4670   -2.4980  -10.2990 C   0  0  0  0  0  0  0  0  0  0  0  0
   -4.6610   -3.4440   -9.2910 C   0  0  0  0  0  0  0  0  0  0  0  0
   -3.7550   -4.4970   -9.1100 C   0  0  0  0  0  0  0  0  0  0  0  0
   -3.9330   -5.4860   -8.0460 C   0  0  0  0  0  0  0  0  0  0  0  0
   -2.9920   -6.1080   -7.2410 C   0  0  0  0  0  0  0  0  0  0  0  0
   -3.5640   -6.9840   -6.3570 N   0  0  0  0  0  0  0  0  0  0  0  0
   -4.8520   -6.9240   -6.6140 C   0  0  0  0  0  0  0  0  0  0  0  0
   -5.9370   -7.6040   -6.0280 C   0  0  0  0  0  0  0  0  0  0  0  0
   -7.1740   -7.3870   -6.4880 C   0  0  0  0  0  0  0  0  0  0  0  0
   -7.3580   -6.4280   -7.6210 C   0  0  0  0  0  0  0  0  0  0  0  0
   -8.5930   -6.1680   -8.1620 N   0  0  0  0  0  0  0  0  0  0  0  0
   -9.8610   -6.4210   -7.5130 C   0  0  0  0  0  0  0  0  0  0  0  0
  -10.7050   -5.1840   -7.5510 C   0  0  0  0  0  0  0  0  0  0  0  0
  -11.9790   -5.1450   -8.3580 C   0  0  0  0  0  0  0  0  0  0  0  0
  -10.7840   -4.3470   -8.8040 C   0  0  0  0  0  0  0  0  0  0  0  0
   -6.3710   -5.7660   -8.1670 N   0  0  0  0  0  0  0  0  0  0  0  0
   -5.1380   -6.0350   -7.6370 N   0  0  0  0  0  0  0  0  0  0  0  0
   -2.6410   -4.5730   -9.9600 C   0  0  0  0  0  0  0  0  0  0  0  0
    0.0255   -2.3227  -10.8975 H   0  0  0  0  0  0  0  0  0  0  0  0
    0.6563   -2.9659  -12.4516 H   0  0  0  0  0  0  0  0  0  0  0  0
   -0.6975   -1.7853  -12.4516 H   0  0  0  0  0  0  0  0  0  0  0  0
   -3.2111   -1.8389  -11.9365 H   0  0  0  0  0  0  0  0  0  0  0  0
   -5.1904   -1.6795  -10.4283 H   0  0  0  0  0  0  0  0  0  0  0  0
   -5.5366   -3.3615   -8.6303 H   0  0  0  0  0  0  0  0  0  0  0  0
   -1.9101   -5.9198   -7.3046 H   0  0  0  0  0  0  0  0  0  0  0  0
   -5.7687   -8.3074   -5.1992 H   0  0  0  0  0  0  0  0  0  0  0  0
   -8.0375   -7.9027   -6.0426 H   0  0  0  0  0  0  0  0  0  0  0  0
   -8.6020   -6.4150   -9.1480 H   0  0  0  0  0  0  0  0  0  0  0  0
  -10.3831   -7.2357   -8.0361 H   0  0  0  0  0  0  0  0  0  0  0  0
   -9.6829   -6.7077   -6.4661 H   0  0  0  0  0  0  0  0  0  0  0  0
  -10.4435   -4.9917   -6.5000 H   0  0  0  0  0  0  0  0  0  0  0  0
  -12.2942   -6.0296   -8.9308 H   0  0  0  0  0  0  0  0  0  0  0  0
  -13.0313   -4.9118   -8.1384 H   0  0  0  0  0  0  0  0  0  0  0  0
  -10.2259   -4.6485   -9.7027 H   0  0  0  0  0  0  0  0  0  0  0  0
  -10.6015   -3.2894   -9.0451 H   0  0  0  0  0  0  0  0  0  0  0  0
   -1.9137   -5.3874   -9.8266 H   0  0  0  0  0  0  0  0  0  0  0  0
  1  2  1  0
  2  3  2  0
  2  4  1  0
  4  5  2  0
  5  6  1  0
  6  7  2  0
  7  8  1  0
  8  9  1  0
  9 10  2  0
 10 11  1  0
 11 12  2  0
 12 13  1  0
 13 14  2  0
 14 15  1  0
 15 16  1  0
 16 17  1  0
 17 18  1  0
 18 19  1  0
 19 20  1  0
 15 21  2  0
 21 22  1  0
  8 23  2  0
 23  4  1  0
 22  9  1  0
 22 12  1  0
 20 18  1  0
  1 24  1  0
  1 25  1  0
  1 26  1  0
  5 27  1  0
  6 28  1  0
  7 29  1  0
 10 30  1  0
 13 31  1  0
 14 32  1  0
 16 33  1  0
 17 34  1  0
 17 35  1  0
 18 36  1  0
 19 37  1  0
 19 38  1  0
 20 39  1  0
 20 40  1  0
 23 41  1  0
M  END
>  <meeko>  (6) 
{"is_sidechain": [false], "free_energy": -7.737, "intermolecular_energy": -10.498, "internal_energy": -0.286}

$$$$
2c3i_ligand
     RDKit          3D

 41 44  0  0  0  0  0  0  0  0999 V2000
   -9.8750   -7.0400   -6.9400 C   0  0  0  0  0  0  0  0  0  0  0  0
   -8.7620   -6.4010   -7.7280 C   0  0  0  0  0  0  0  0  0  0  0  0
   -9.0030   -5.6920   -8.7040 O   0  0  0  0  0  0  0  0  0  0  0  0
   -7.3490   -6.6360   -7.3060 C   0  0  0  0  0  0  0  0  0  0  0  0
   -7.0250   -7.4140   -6.1890 C   0  0  0  0  0  0  0  0  0  0  0  0
   -5.6890   -7.6000   -5.8360 C   0  0  0  0  0  0  0  0  0  0  0  0
   -4.6720   -7.0150   -6.5940 C   0  0  0  0  0  0  0  0  0  0  0  0
   -4.9730   -6.2370   -7.7190 C   0  0  0  0  0  0  0  0  0  0  0  0
   -3.9200   -5.6000   -8.5120 C   0  0  0  0  0  0  0  0  0  0  0  0
   -2.6840   -6.0870   -8.9080 C   0  0  0  0  0  0  0  0  0  0  0  0
   -1.9790   -5.1730   -9.6460 N   0  0  0  0  0  0  0  0  0  0  0  0
   -2.7590   -4.1170   -9.7010 C   0  0  0  0  0  0  0  0  0  0  0  0
   -2.5660   -2.8660  -10.3210 C   0  0  0  0  0  0  0  0  0  0  0  0
   -3.5130   -1.9280  -10.2120 C   0  0  0  0  0  0  0  0  0  0  0  0
   -4.7460   -2.2420   -9.4260 C   0  0  0  0  0  0  0  0  0  0  0  0
   -5.7530   -1.3240   -9.2530 N   0  0  0  0  0  0  0  0  0  0  0  0
   -5.9550   -0.1410  -10.0600 C   0  0  0  0  0  0  0  0  0  0  0  0
   -5.5180    1.0730   -9.2980 C   0  0  0  0  0  0  0  0  0  0  0  0
   -6.3790    2.3110   -9.2630 C   0  0  0  0  0  0  0  0  0  0  0  0
   -5.0820    2.3200  -10.0250 C   0  0  0  0  0  0  0  0  0  0  0  0
   -4.9600   -3.4030   -8.8630 N   0  0  0  0  0  0  0  0  0  0  0  0
   -3.9510   -4.3120   -9.0240 N   0  0  0  0  0  0  0  0  0  0  0  0
   -6.3200   -6.0500   -8.0620 C   0  0  0  0  0  0  0  0  0  0  0  0
   -9.6754   -6.9254   -5.8644 H   0  0  0  0  0  0  0  0  0  0  0  0
  -10.8285   -6.5518   -7.1900 H   0  0  0  0  0  0  0  0  0  0  0  0
   -9.9341   -8.1096   -7.1900 H   0  0  0  0  0  0  0  0  0  0  0  0
   -7.8228   -7.8780   -5.5905 H   0  0  0  0  0  0  0  0  0  0  0  0
   -5.4348   -8.2101   -4.9567 H   0  0  0  0  0  0  0  0  0  0  0  0
   -3.6219   -7.1672   -6.3038 H   0  0  0  0  0  0  0  0  0  0  0  0
   -2.3121   -7.0917   -8.6584 H   0  0  0  0  0  0  0  0  0  0  0  0
   -1.6459   -2.6633  -10.8887 H   0  0  0  0  0  0  0  0  0  0  0  0
   -3.3876   -0.9456  -10.6907 H   0  0  0  0  0  0  0  0  0  0  0  0
   -5.9030   -1.1520   -8.2630 H   0  0  0  0  0  0  0  0  0  0  0  0
   -5.3646   -0.2242  -10.9844 H   0  0  0  0  0  0  0  0  0  0  0  0
   -7.0224   -0.0490  -10.3094 H   0  0  0  0  0  0  0  0  0  0  0  0
   -5.0683    0.4159   -8.5391 H   0  0  0  0  0  0  0  0  0  0  0  0
   -7.3356    2.3309   -9.8056 H   0  0  0  0  0  0  0  0  0  0  0  0
   -6.8173    2.9309   -8.4670 H   0  0  0  0  0  0  0  0  0  0  0  0
   -5.0906    2.3467  -11.1246 H   0  0  0  0  0  0  0  0  0  0  0  0
   -4.1799    2.9494  -10.0164 H   0  0  0  0  0  0  0  0  0  0  0  0
   -6.5750   -5.4344   -8.9373 H   0  0  0  0  0  0  0  0  0  0  0  0
  1  2  1  0
  2  3  2  0
  2  4  1  0
  4  5  2  0
  5  6  1  0
  6  7  2  0
  7  8  1  0
  8  9  1  0
  9 10  2  0
 10 11  1  0
 11 12  2  0
 12 13  1  0
 13 14  2  0
 14 15  1  0
 15 16  1  0
 16 17  1  0
 17 18  1  0
 18 19  1  0
 19 20  1  0
 15 21  2  0
 21 22  1  0
  8 23  2  0
 23  4  1  0
 22  9  1  0
 22 12  1  0
 20 18  1  0
  1 24  1  0
  1 25  1  0
  1 26  1  0
  5 27  1  0
  6 28  1  0
  7 29  1  0
 10 30  1  0
 13 31  1  0
 14 32  1  0
 16 33  1  0
 17 34  1  0
 17 35  1  0
 18 36  1  0
 19 37  1  0
 19 38  1  0
 20 39  1  0
 20 40  1  0
 23 41  1  0
M  END
>  <meeko>  (7) 
{"is_sidechain": [false], "free_energy": -7.723, "intermolecular_energy": -10.403, "internal_energy": -0.362}

$$$$
2c3i_ligand
     RDKit          3D

 41 44  0  0  0  0  0  0  0  0999 V2000
   -5.8460   -7.0810   -5.8210 C   0  0  0  0  0  0  0  0  0  0  0  0
   -6.3960   -7.1680   -7.2210 C   0  0  0  0  0  0  0  0  0  0  0  0
   -6.0660   -8.0820   -7.9740 O   0  0  0  0  0  0  0  0  0  0  0  0
   -7.3570   -6.1240   -7.6870 C   0  0  0  0  0  0  0  0  0  0  0  0
   -8.6880   -6.4230   -7.9970 C   0  0  0  0  0  0  0  0  0  0  0  0
   -9.5440   -5.4120   -8.4310 C   0  0  0  0  0  0  0  0  0  0  0  0
   -9.0790   -4.1010   -8.5570 C   0  0  0  0  0  0  0  0  0  0  0  0
   -7.7520   -3.7780   -8.2480 C   0  0  0  0  0  0  0  0  0  0  0  0
   -7.2420   -2.4130   -8.3930 C   0  0  0  0  0  0  0  0  0  0  0  0
   -7.9140   -1.2020   -8.3450 C   0  0  0  0  0  0  0  0  0  0  0  0
   -7.0730   -0.1360   -8.5330 N   0  0  0  0  0  0  0  0  0  0  0  0
   -5.8880   -0.6740   -8.7120 C   0  0  0  0  0  0  0  0  0  0  0  0
   -4.6360   -0.0740   -8.9530 C   0  0  0  0  0  0  0  0  0  0  0  0
   -3.5600   -0.8500   -9.1290 C   0  0  0  0  0  0  0  0  0  0  0  0
   -3.7300   -2.3340   -9.0690 C   0  0  0  0  0  0  0  0  0  0  0  0
   -2.6780   -3.1960   -9.2590 N   0  0  0  0  0  0  0  0  0  0  0  0
   -2.7470   -4.4570   -9.9640 C   0  0  0  0  0  0  0  0  0  0  0  0
   -2.2760   -5.5630   -9.0700 C   0  0  0  0  0  0  0  0  0  0  0  0
   -3.1210   -6.7950   -8.8590 C   0  0  0  0  0  0  0  0  0  0  0  0
   -2.9390   -5.8090   -7.7370 C   0  0  0  0  0  0  0  0  0  0  0  0
   -4.8760   -2.9150   -8.8220 N   0  0  0  0  0  0  0  0  0  0  0  0
   -5.9270   -2.0570   -8.6450 N   0  0  0  0  0  0  0  0  0  0  0  0
   -6.8970   -4.8040   -7.8180 C   0  0  0  0  0  0  0  0  0  0  0  0
   -6.6640   -7.2104   -5.0970 H   0  0  0  0  0  0  0  0  0  0  0  0
   -5.0959   -7.8717   -5.6719 H   0  0  0  0  0  0  0  0  0  0  0  0
   -5.3766   -6.0974   -5.6719 H   0  0  0  0  0  0  0  0  0  0  0  0
   -9.0584   -7.4540   -7.8985 H   0  0  0  0  0  0  0  0  0  0  0  0
  -10.5903   -5.6477   -8.6753 H   0  0  0  0  0  0  0  0  0  0  0  0
   -9.7636   -3.3126   -8.9032 H   0  0  0  0  0  0  0  0  0  0  0  0
   -8.9967   -1.1072   -8.1757 H   0  0  0  0  0  0  0  0  0  0  0  0
   -4.5440    1.0213   -8.9960 H   0  0  0  0  0  0  0  0  0  0  0  0
   -2.5711   -0.4052   -9.3140 H   0  0  0  0  0  0  0  0  0  0  0  0
   -2.1130   -3.2490   -8.4170 H   0  0  0  0  0  0  0  0  0  0  0  0
   -3.7867   -4.6498  -10.2671 H   0  0  0  0  0  0  0  0  0  0  0  0
   -2.1042   -4.4111  -10.8555 H   0  0  0  0  0  0  0  0  0  0  0  0
   -1.2454   -5.3737   -9.4046 H   0  0  0  0  0  0  0  0  0  0  0  0
   -4.0966   -6.8847   -9.3591 H   0  0  0  0  0  0  0  0  0  0  0  0
   -2.9608   -7.8769   -8.9766 H   0  0  0  0  0  0  0  0  0  0  0  0
   -3.7816   -5.1782   -7.4173 H   0  0  0  0  0  0  0  0  0  0  0  0
   -2.5907   -5.8722   -6.6955 H   0  0  0  0  0  0  0  0  0  0  0  0
   -5.8489   -4.5703   -7.5796 H   0  0  0  0  0  0  0  0  0  0  0  0
  1  2  1  0
  2  3  2  0
  2  4  1  0
  4  5  2  0
  5  6  1  0
  6  7  2  0
  7  8  1  0
  8  9  1  0
  9 10  2  0
 10 11  1  0
 11 12  2  0
 12 13  1  0
 13 14  2  0
 14 15  1  0
 15 16  1  0
 16 17  1  0
 17 18  1  0
 18 19  1  0
 19 20  1  0
 15 21  2  0
 21 22  1  0
  8 23  2  0
 23  4  1  0
 22  9  1  0
 22 12  1  0
 20 18  1  0
  1 24  1  0
  1 25  1  0
  1 26  1  0
  5 27  1  0
  6 28  1  0
  7 29  1  0
 10 30  1  0
 13 31  1  0
 14 32  1  0
 16 33  1  0
 17 34  1  0
 17 35  1  0
 18 36  1  0
 19 37  1  0
 19 38  1  0
 20 39  1  0
 20 40  1  0
 23 41  1  0
M  END
>  <meeko>  (8) 
{"is_sidechain": [false], "free_energy": -7.657, "intermolecular_energy": -9.992, "internal_energy": -0.688}

$$$$
2c3i_ligand
     RDKit          3D

 41 44  0  0  0  0  0  0  0  0999 V2000
   -5.2900   -2.9140  -11.4350 C   0  0  0  0  0  0  0  0  0  0  0  0
   -4.8800   -2.7960   -9.9900 C   0  0  0  0  0  0  0  0  0  0  0  0
   -4.9150   -1.7120   -9.4090 O   0  0  0  0  0  0  0  0  0  0  0  0
   -4.4320   -4.0200   -9.2630 C   0  0  0  0  0  0  0  0  0  0  0  0
   -3.0970   -4.4390   -9.2620 C   0  0  0  0  0  0  0  0  0  0  0  0
   -2.7300   -5.5920   -8.5690 C   0  0  0  0  0  0  0  0  0  0  0  0
   -3.6900   -6.3300   -7.8740 C   0  0  0  0  0  0  0  0  0  0  0  0
   -5.0320   -5.9280   -7.8570 C   0  0  0  0  0  0  0  0  0  0  0  0
   -6.0540   -6.7010   -7.1490 C   0  0  0  0  0  0  0  0  0  0  0  0
   -5.9200   -7.7800   -6.2900 C   0  0  0  0  0  0  0  0  0  0  0  0
   -7.1290   -8.2320   -5.8330 N   0  0  0  0  0  0  0  0  0  0  0  0
   -8.0160   -7.4530   -6.4110 C   0  0  0  0  0  0  0  0  0  0  0  0
   -9.4220   -7.4430   -6.3250 C   0  0  0  0  0  0  0  0  0  0  0  0
  -10.1170   -6.5530   -7.0410 C   0  0  0  0  0  0  0  0  0  0  0  0
   -9.3700   -5.6000   -7.9180 C   0  0  0  0  0  0  0  0  0  0  0  0
  -10.0130   -4.6710   -8.6990 N   0  0  0  0  0  0  0  0  0  0  0  0
  -11.2010   -3.9390   -8.3210 C   0  0  0  0  0  0  0  0  0  0  0  0
  -10.8840   -3.0080   -7.1910 C   0  0  0  0  0  0  0  0  0  0  0  0
  -11.8000   -1.8550   -6.8630 C   0  0  0  0  0  0  0  0  0  0  0  0
  -10.4460   -1.5900   -7.4630 C   0  0  0  0  0  0  0  0  0  0  0  0
   -8.0640   -5.5720   -7.9980 N   0  0  0  0  0  0  0  0  0  0  0  0
   -7.4240   -6.5070   -7.2300 N   0  0  0  0  0  0  0  0  0  0  0  0
   -5.3910   -4.7690   -8.5620 C   0  0  0  0  0  0  0  0  0  0  0  0
   -6.3456   -3.2178  -11.4930 H   0  0  0  0  0  0  0  0  0  0  0  0
   -5.1603   -1.9421  -11.9335 H   0  0  0  0  0  0  0  0  0  0  0  0
   -4.6635   -3.6683  -11.9335 H   0  0  0  0  0  0  0  0  0  0  0  0
   -2.3377   -3.8594   -9.8074 H   0  0  0  0  0  0  0  0  0  0  0  0
   -1.6804   -5.9213   -8.5699 H   0  0  0  0  0  0  0  0  0  0  0  0
   -3.3888   -7.2390   -7.3327 H   0  0  0  0  0  0  0  0  0  0  0  0
   -4.9534   -8.2226   -6.0077 H   0  0  0  0  0  0  0  0  0  0  0  0
   -9.9434   -8.1608   -5.6747 H   0  0  0  0  0  0  0  0  0  0  0  0
  -11.2152   -6.5226   -6.9860 H   0  0  0  0  0  0  0  0  0  0  0  0
  -10.0370   -4.9830   -9.6660 H   0  0  0  0  0  0  0  0  0  0  0  0
  -11.5619   -3.3582   -9.1826 H   0  0  0  0  0  0  0  0  0  0  0  0
  -11.9786   -4.6481   -8.0008 H   0  0  0  0  0  0  0  0  0  0  0  0
  -10.4694   -3.8574   -6.6283 H   0  0  0  0  0  0  0  0  0  0  0  0
  -12.7083   -1.6874   -7.4603 H   0  0  0  0  0  0  0  0  0  0  0  0
  -12.3302   -1.5159   -5.9609 H   0  0  0  0  0  0  0  0  0  0  0  0
  -10.3648   -1.2288   -8.4988 H   0  0  0  0  0  0  0  0  0  0  0  0
   -9.5772   -0.9771   -7.1808 H   0  0  0  0  0  0  0  0  0  0  0  0
   -6.4412   -4.4417   -8.5656 H   0  0  0  0  0  0  0  0  0  0  0  0
  1  2  1  0
  2  3  2  0
  2  4  1  0
  4  5  2  0
  5  6  1  0
  6  7  2  0
  7  8  1  0
  8  9  1  0
  9 10  2  0
 10 11  1  0
 11 12  2  0
 12 13  1  0
 13 14  2  0
 14 15  1  0
 15 16  1  0
 16 17  1  0
 17 18  1  0
 18 19  1  0
 19 20  1  0
 15 21  2  0
 21 22  1  0
  8 23  2  0
 23  4  1  0
 22  9  1  0
 22 12  1  0
 20 18  1  0
  1 24  1  0
  1 25  1  0
  1 26  1  0
  5 27  1  0
  6 28  1  0
  7 29  1  0
 10 30  1  0
 13 31  1  0
 14 32  1  0
 16 33  1  0
 17 34  1  0
 17 35  1  0
 18 36  1  0
 19 37  1  0
 19 38  1  0
 20 39  1  0
 20 40  1  0
 23 41  1  0
M  END
>  <meeko>  (9) 
{"is_sidechain": [false], "free_energy": -7.543, "intermolecular_energy": -10.339, "internal_energy": -0.193}

$$$$
