4de1_ligand
     RDKit          3D

 34 37  0  0  0  0  0  0  0  0999 V2000
  -11.5960   -0.4800    7.2030 O   0  0  0  0  0  0  0  0  0  0  0  0
  -11.0130   -1.1980    6.4020 C   0  0  0  0  0  0  0  0  0  0  0  0
  -11.4620   -1.5980    5.1550 N   0  0  0  0  0  0  0  0  0  0  0  0
  -12.7270   -1.3400    4.5810 C   0  0  0  0  0  0  0  0  0  0  0  0
  -13.1770   -0.0650    4.2430 C   0  0  0  0  0  0  0  0  0  0  0  0
  -14.4500    0.1140    3.6990 C   0  0  0  0  0  0  0  0  0  0  0  0
  -15.2820   -0.9830    3.4860 C   0  0  0  0  0  0  0  0  0  0  0  0
  -14.8540   -2.2780    3.8080 C   0  0  0  0  0  0  0  0  0  0  0  0
  -15.7520   -3.4040    3.5630 C   0  0  0  0  0  0  0  0  0  0  0  0
  -16.5480   -4.0000    4.4330 N   0  0  0  0  0  0  0  0  0  0  0  0
  -17.2060   -4.9950    3.7530 N   0  0  0  0  0  0  0  0  0  0  0  0
  -16.8400   -5.0170    2.4800 N   0  0  0  0  0  0  0  0  0  0  0  0
  -15.9470   -4.0280    2.3610 N   0  0  0  0  0  0  0  0  0  0  0  0
  -13.5730   -2.4410    4.3640 C   0  0  0  0  0  0  0  0  0  0  0  0
   -9.6420   -1.6750    6.7470 C   0  0  0  0  0  0  0  0  0  0  0  0
   -9.3280   -2.0130    8.1100 C   0  0  0  0  0  0  0  0  0  0  0  0
   -8.0590   -2.4810    8.5260 C   0  0  0  0  0  0  0  0  0  0  0  0
   -7.1220   -2.5740    7.4840 C   0  0  0  0  0  0  0  0  0  0  0  0
   -5.8410   -2.9750    7.5060 N   0  0  0  0  0  0  0  0  0  0  0  0
   -5.4170   -2.8480    6.2330 N   0  0  0  0  0  0  0  0  0  0  0  0
   -6.3680   -2.3930    5.3630 C   0  0  0  0  0  0  0  0  0  0  0  0
   -7.4780   -2.2060    6.1360 C   0  0  0  0  0  0  0  0  0  0  0  0
   -8.7080   -1.7430    5.6860 C   0  0  0  0  0  0  0  0  0  0  0  0
  -10.7920   -2.0710    4.5630 H   0  0  0  0  0  0  0  0  0  0  0  0
  -12.5249    0.8058    4.4059 H   0  0  0  0  0  0  0  0  0  0  0  0
  -14.7974    1.1245    3.4376 H   0  0  0  0  0  0  0  0  0  0  0  0
  -16.2850   -0.8311    3.0608 H   0  0  0  0  0  0  0  0  0  0  0  0
  -15.5420   -3.8350    1.4550 H   0  0  0  0  0  0  0  0  0  0  0  0
  -13.2264   -3.4494    4.6343 H   0  0  0  0  0  0  0  0  0  0  0  0
  -10.1164   -1.9017    8.8690 H   0  0  0  0  0  0  0  0  0  0  0  0
   -7.8281   -2.7471    9.5681 H   0  0  0  0  0  0  0  0  0  0  0  0
   -4.4550   -3.0930    6.0260 H   0  0  0  0  0  0  0  0  0  0  0  0
   -6.2627   -2.2169    4.2823 H   0  0  0  0  0  0  0  0  0  0  0  0
   -8.9268   -1.4662    4.6441 H   0  0  0  0  0  0  0  0  0  0  0  0
  1  2  2  0
  2  3  1  0
  3  4  1  0
  4  5  2  0
  5  6  1  0
  6  7  2  0
  7  8  1  0
  8  9  1  0
  9 10  2  0
 10 11  1  0
 11 12  2  0
 12 13  1  0
  8 14  2  0
  2 15  1  0
 15 16  1  0
 16 17  2  0
 17 18  1  0
 18 19  2  0
 19 20  1  0
 20 21  1  0
 21 22  2  0
 22 23  1  0
 14  4  1  0
 23 15  2  0
 13  9  1  0
 22 18  1  0
  3 24  1  0
  5 25  1  0
  6 26  1  0
  7 27  1  0
 13 28  1  0
 14 29  1  0
 16 30  1  0
 17 31  1  0
 20 32  1  0
 21 33  1  0
 23 34  1  0
M  END
>  <meeko>  (1) 
{"is_sidechain": [false], "free_energy": -7.7, "intermolecular_energy": -9.051, "internal_energy": -0.454}

$$$$
4de1_ligand
     RDKit          3D

 34 37  0  0  0  0  0  0  0  0999 V2000
  -11.4980    0.1680    7.3000 O   0  0  0  0  0  0  0  0  0  0  0  0
  -11.2630   -0.9560    6.8780 C   0  0  0  0  0  0  0  0  0  0  0  0
  -12.1350   -1.7980    6.2100 N   0  0  0  0  0  0  0  0  0  0  0  0
  -13.5070   -1.5790    5.9570 C   0  0  0  0  0  0  0  0  0  0  0  0
  -14.5340   -2.2150    6.6530 C   0  0  0  0  0  0  0  0  0  0  0  0
  -15.8690   -1.9640    6.3310 C   0  0  0  0  0  0  0  0  0  0  0  0
  -16.1870   -1.0690    5.3100 C   0  0  0  0  0  0  0  0  0  0  0  0
  -15.1780   -0.4080    4.5990 C   0  0  0  0  0  0  0  0  0  0  0  0
  -15.5510    0.5270    3.5410 C   0  0  0  0  0  0  0  0  0  0  0  0
  -15.8790    1.8010    3.6730 N   0  0  0  0  0  0  0  0  0  0  0  0
  -16.1420    2.2760    2.4120 N   0  0  0  0  0  0  0  0  0  0  0  0
  -15.9720    1.3260    1.5050 N   0  0  0  0  0  0  0  0  0  0  0  0
  -15.5990    0.2470    2.2020 N   0  0  0  0  0  0  0  0  0  0  0  0
  -13.8370   -0.6790    4.9280 C   0  0  0  0  0  0  0  0  0  0  0  0
   -9.8810   -1.4950    7.0330 C   0  0  0  0  0  0  0  0  0  0  0  0
   -9.4430   -1.9720    8.3190 C   0  0  0  0  0  0  0  0  0  0  0  0
   -8.1550   -2.5070    8.5560 C   0  0  0  0  0  0  0  0  0  0  0  0
   -7.3300   -2.5190    7.4190 C   0  0  0  0  0  0  0  0  0  0  0  0
   -6.0670   -2.9490    7.2720 N   0  0  0  0  0  0  0  0  0  0  0  0
   -5.7680   -2.7080    5.9800 N   0  0  0  0  0  0  0  0  0  0  0  0
   -6.7860   -2.1490    5.2600 C   0  0  0  0  0  0  0  0  0  0  0  0
   -7.8070   -2.0130    6.1570 C   0  0  0  0  0  0  0  0  0  0  0  0
   -9.0600   -1.4800    5.8810 C   0  0  0  0  0  0  0  0  0  0  0  0
  -11.7340   -2.6330    5.8020 H   0  0  0  0  0  0  0  0  0  0  0  0
  -14.2906   -2.9197    7.4618 H   0  0  0  0  0  0  0  0  0  0  0  0
  -16.6719   -2.4734    6.8840 H   0  0  0  0  0  0  0  0  0  0  0  0
  -17.2416   -0.8803    5.0606 H   0  0  0  0  0  0  0  0  0  0  0  0
  -15.3840   -0.6090    1.7090 H   0  0  0  0  0  0  0  0  0  0  0  0
  -13.0322   -0.1778    4.3702 H   0  0  0  0  0  0  0  0  0  0  0  0
  -10.1474   -1.9175    9.1621 H   0  0  0  0  0  0  0  0  0  0  0  0
   -7.8298   -2.8789    9.5388 H   0  0  0  0  0  0  0  0  0  0  0  0
   -4.8400   -2.9540    5.6530 H   0  0  0  0  0  0  0  0  0  0  0  0
   -6.7837   -1.8707    4.1958 H   0  0  0  0  0  0  0  0  0  0  0  0
   -9.3720   -1.0974    4.8980 H   0  0  0  0  0  0  0  0  0  0  0  0
  1  2  2  0
  2  3  1  0
  3  4  1  0
  4  5  2  0
  5  6  1  0
  6  7  2  0
  7  8  1  0
  8  9  1  0
  9 10  2  0
 10 11  1  0
 11 12  2  0
 12 13  1  0
  8 14  2  0
  2 15  1  0
 15 16  1  0
 16 17  2  0
 17 18  1  0
 18 19  2  0
 19 20  1  0
 20 21  1  0
 21 22  2  0
 22 23  1  0
 14  4  1  0
 23 15  2  0
 13  9  1  0
 22 18  1  0
  3 24  1  0
  5 25  1  0
  6 26  1  0
  7 27  1  0
 13 28  1  0
 14 29  1  0
 16 30  1  0
 17 31  1  0
 20 32  1  0
 21 33  1  0
 23 34  1  0
M  END
>  <meeko>  (2) 
{"is_sidechain": [false], "free_energy": -7.321, "intermolecular_energy": -8.597, "internal_energy": -0.462}

$$$$
4de1_ligand
     RDKit          3D

 34 37  0  0  0  0  0  0  0  0999 V2000
  -13.1480   -1.6050    3.5040 O   0  0  0  0  0  0  0  0  0  0  0  0
  -13.2520   -2.5830    4.2320 C   0  0  0  0  0  0  0  0  0  0  0  0
  -12.5920   -2.8090    5.4280 N   0  0  0  0  0  0  0  0  0  0  0  0
  -11.5910   -2.0040    6.0150 C   0  0  0  0  0  0  0  0  0  0  0  0
  -11.8530   -0.8090    6.6840 C   0  0  0  0  0  0  0  0  0  0  0  0
  -10.8080   -0.0550    7.2200 C   0  0  0  0  0  0  0  0  0  0  0  0
   -9.4910   -0.4940    7.0940 C   0  0  0  0  0  0  0  0  0  0  0  0
   -9.1970   -1.6950    6.4350 C   0  0  0  0  0  0  0  0  0  0  0  0
   -7.8050   -2.1250    6.3300 C   0  0  0  0  0  0  0  0  0  0  0  0
   -7.0600   -2.6740    7.2730 N   0  0  0  0  0  0  0  0  0  0  0  0
   -5.8290   -2.9160    6.7150 N   0  0  0  0  0  0  0  0  0  0  0  0
   -5.8030   -2.5390    5.4460 N   0  0  0  0  0  0  0  0  0  0  0  0
   -7.0280   -2.0560    5.2050 N   0  0  0  0  0  0  0  0  0  0  0  0
  -10.2600   -2.4380    5.8920 C   0  0  0  0  0  0  0  0  0  0  0  0
  -14.2240   -3.6490    3.8510 C   0  0  0  0  0  0  0  0  0  0  0  0
  -15.5560   -3.2850    3.4460 C   0  0  0  0  0  0  0  0  0  0  0  0
  -16.5390   -4.2280    3.0600 C   0  0  0  0  0  0  0  0  0  0  0  0
  -16.0980   -5.5600    3.1200 C   0  0  0  0  0  0  0  0  0  0  0  0
  -16.7470   -6.6990    2.8290 N   0  0  0  0  0  0  0  0  0  0  0  0
  -15.8550   -7.6780    3.0800 N   0  0  0  0  0  0  0  0  0  0  0  0
  -14.6370   -7.2350    3.5120 C   0  0  0  0  0  0  0  0  0  0  0  0
  -14.7590   -5.8760    3.5490 C   0  0  0  0  0  0  0  0  0  0  0  0
  -13.7660   -4.9850    3.9370 C   0  0  0  0  0  0  0  0  0  0  0  0
  -12.9050   -3.6020    5.9740 H   0  0  0  0  0  0  0  0  0  0  0  0
  -12.8902   -0.4582    6.7900 H   0  0  0  0  0  0  0  0  0  0  0  0
  -11.0242    0.8881    7.7432 H   0  0  0  0  0  0  0  0  0  0  0  0
   -8.6737    0.1090    7.5165 H   0  0  0  0  0  0  0  0  0  0  0  0
   -7.2550   -1.7270    4.2770 H   0  0  0  0  0  0  0  0  0  0  0  0
  -10.0457   -3.3770    5.3607 H   0  0  0  0  0  0  0  0  0  0  0  0
  -15.8245   -2.2183    3.4358 H   0  0  0  0  0  0  0  0  0  0  0  0
  -17.5532   -3.9439    2.7428 H   0  0  0  0  0  0  0  0  0  0  0  0
  -16.1500   -8.6370    2.9320 H   0  0  0  0  0  0  0  0  0  0  0  0
  -13.7550   -7.8387    3.7720 H   0  0  0  0  0  0  0  0  0  0  0  0
  -12.7586   -5.2789    4.2669 H   0  0  0  0  0  0  0  0  0  0  0  0
  1  2  2  0
  2  3  1  0
  3  4  1  0
  4  5  2  0
  5  6  1  0
  6  7  2  0
  7  8  1  0
  8  9  1  0
  9 10  2  0
 10 11  1  0
 11 12  2  0
 12 13  1  0
  8 14  2  0
  2 15  1  0
 15 16  1  0
 16 17  2  0
 17 18  1  0
 18 19  2  0
 19 20  1  0
 20 21  1  0
 21 22  2  0
 22 23  1  0
 14  4  1  0
 23 15  2  0
 13  9  1  0
 22 18  1  0
  3 24  1  0
  5 25  1  0
  6 26  1  0
  7 27  1  0
 13 28  1  0
 14 29  1  0
 16 30  1  0
 17 31  1  0
 20 32  1  0
 21 33  1  0
 23 34  1  0
M  END
>  <meeko>  (3) 
{"is_sidechain": [false], "free_energy": -7.245, "intermolecular_energy": -8.463, "internal_energy": -0.506}

$$$$
4de1_ligand
     RDKit          3D

 34 37  0  0  0  0  0  0  0  0999 V2000
  -13.1560   -4.0790    6.9690 O   0  0  0  0  0  0  0  0  0  0  0  0
  -12.4670   -3.5960    6.0810 C   0  0  0  0  0  0  0  0  0  0  0  0
  -12.5630   -3.8400    4.7210 N   0  0  0  0  0  0  0  0  0  0  0  0
  -13.4120   -4.7690    4.0790 C   0  0  0  0  0  0  0  0  0  0  0  0
  -13.0230   -6.0620    3.7320 C   0  0  0  0  0  0  0  0  0  0  0  0
  -13.9120   -6.9160    3.0780 C   0  0  0  0  0  0  0  0  0  0  0  0
  -15.2010   -6.4840    2.7690 C   0  0  0  0  0  0  0  0  0  0  0  0
  -15.6240   -5.1940    3.1130 C   0  0  0  0  0  0  0  0  0  0  0  0
  -16.9840   -4.7800    2.7790 C   0  0  0  0  0  0  0  0  0  0  0  0
  -17.8450   -4.1470    3.5560 N   0  0  0  0  0  0  0  0  0  0  0  0
  -18.9860   -3.9620    2.8160 N   0  0  0  0  0  0  0  0  0  0  0  0
  -18.8430   -4.4570    1.5960 N   0  0  0  0  0  0  0  0  0  0  0  0
  -17.6020   -4.9570    1.5710 N   0  0  0  0  0  0  0  0  0  0  0  0
  -14.7130   -4.3410    3.7630 C   0  0  0  0  0  0  0  0  0  0  0  0
  -11.4330   -2.5890    6.4560 C   0  0  0  0  0  0  0  0  0  0  0  0
  -10.8860   -2.5930    7.7880 C   0  0  0  0  0  0  0  0  0  0  0  0
   -9.8960   -1.6820    8.2270 C   0  0  0  0  0  0  0  0  0  0  0  0
   -9.5020   -0.7590    7.2450 C   0  0  0  0  0  0  0  0  0  0  0  0
   -8.5990    0.2330    7.3040 N   0  0  0  0  0  0  0  0  0  0  0  0
   -8.6380    0.8080    6.0860 N   0  0  0  0  0  0  0  0  0  0  0  0
   -9.5180    0.2300    5.2160 C   0  0  0  0  0  0  0  0  0  0  0  0
  -10.0920   -0.7830    5.9310 C   0  0  0  0  0  0  0  0  0  0  0  0
  -11.0640   -1.6560    5.4580 C   0  0  0  0  0  0  0  0  0  0  0  0
  -12.0130   -3.2460    4.1150 H   0  0  0  0  0  0  0  0  0  0  0  0
  -12.0087   -6.4113    3.9753 H   0  0  0  0  0  0  0  0  0  0  0  0
  -13.5947   -7.9333    2.8054 H   0  0  0  0  0  0  0  0  0  0  0  0
  -15.8929   -7.1634    2.2497 H   0  0  0  0  0  0  0  0  0  0  0  0
  -17.2550   -5.3710    0.7170 H   0  0  0  0  0  0  0  0  0  0  0  0
  -15.0248   -3.3202    4.0288 H   0  0  0  0  0  0  0  0  0  0  0  0
  -11.2570   -3.3434    8.5016 H   0  0  0  0  0  0  0  0  0  0  0  0
   -9.4744   -1.6957    9.2429 H   0  0  0  0  0  0  0  0  0  0  0  0
   -8.0280    1.6010    5.9150 H   0  0  0  0  0  0  0  0  0  0  0  0
   -9.7195    0.5160    4.1731 H   0  0  0  0  0  0  0  0  0  0  0  0
  -11.4895   -1.6259    4.4441 H   0  0  0  0  0  0  0  0  0  0  0  0
  1  2  2  0
  2  3  1  0
  3  4  1  0
  4  5  2  0
  5  6  1  0
  6  7  2  0
  7  8  1  0
  8  9  1  0
  9 10  2  0
 10 11  1  0
 11 12  2  0
 12 13  1  0
  8 14  2  0
  2 15  1  0
 15 16  1  0
 16 17  2  0
 17 18  1  0
 18 19  2  0
 19 20  1  0
 20 21  1  0
 21 22  2  0
 22 23  1  0
 14  4  1  0
 23 15  2  0
 13  9  1  0
 22 18  1  0
  3 24  1  0
  5 25  1  0
  6 26  1  0
  7 27  1  0
 13 28  1  0
 14 29  1  0
 16 30  1  0
 17 31  1  0
 20 32  1  0
 21 33  1  0
 23 34  1  0
M  END
>  <meeko>  (4) 
{"is_sidechain": [false], "free_energy": -7.045, "intermolecular_energy": -8.202, "internal_energy": -0.532}

$$$$
4de1_ligand
     RDKit          3D

 34 37  0  0  0  0  0  0  0  0999 V2000
   -6.2620   -3.2470    8.4850 O   0  0  0  0  0  0  0  0  0  0  0  0
   -7.2790   -3.3490    9.1580 C   0  0  0  0  0  0  0  0  0  0  0  0
   -7.4360   -4.0610   10.3350 N   0  0  0  0  0  0  0  0  0  0  0  0
   -6.4830   -4.8960   10.9590 C   0  0  0  0  0  0  0  0  0  0  0  0
   -6.1800   -6.1850   10.5230 C   0  0  0  0  0  0  0  0  0  0  0  0
   -5.2410   -6.9610   11.2060 C   0  0  0  0  0  0  0  0  0  0  0  0
   -4.5960   -6.4500   12.3310 C   0  0  0  0  0  0  0  0  0  0  0  0
   -4.8740   -5.1560   12.7890 C   0  0  0  0  0  0  0  0  0  0  0  0
   -4.1720   -4.6540   13.9670 C   0  0  0  0  0  0  0  0  0  0  0  0
   -3.4720   -5.3530   14.8440 N   0  0  0  0  0  0  0  0  0  0  0  0
   -2.9920   -4.4600   15.7700 N   0  0  0  0  0  0  0  0  0  0  0  0
   -3.3710   -3.2260   15.4770 N   0  0  0  0  0  0  0  0  0  0  0  0
   -4.0950   -3.3440   14.3580 N   0  0  0  0  0  0  0  0  0  0  0  0
   -5.8280   -4.3900   12.0960 C   0  0  0  0  0  0  0  0  0  0  0  0
   -8.4930   -2.5980    8.7240 C   0  0  0  0  0  0  0  0  0  0  0  0
   -9.7910   -3.0160    9.1830 C   0  0  0  0  0  0  0  0  0  0  0  0
  -10.9930   -2.3570    8.8300 C   0  0  0  0  0  0  0  0  0  0  0  0
  -10.8060   -1.2590    7.9750 C   0  0  0  0  0  0  0  0  0  0  0  0
  -11.7030   -0.4130    7.4450 N   0  0  0  0  0  0  0  0  0  0  0  0
  -10.9760    0.4350    6.6910 N   0  0  0  0  0  0  0  0  0  0  0  0
   -9.6300    0.1950    6.7100 C   0  0  0  0  0  0  0  0  0  0  0  0
   -9.4870   -0.8900    7.5270 C   0  0  0  0  0  0  0  0  0  0  0  0
   -8.2830   -1.5070    7.8470 C   0  0  0  0  0  0  0  0  0  0  0  0
   -8.3020   -3.9190   10.8370 H   0  0  0  0  0  0  0  0  0  0  0  0
   -6.6840   -6.5937    9.6348 H   0  0  0  0  0  0  0  0  0  0  0  0
   -5.0099   -7.9777   10.8554 H   0  0  0  0  0  0  0  0  0  0  0  0
   -3.8606   -7.0698   12.8649 H   0  0  0  0  0  0  0  0  0  0  0  0
   -4.4740   -2.5130   13.9250 H   0  0  0  0  0  0  0  0  0  0  0  0
   -6.0664   -3.3761   12.4498 H   0  0  0  0  0  0  0  0  0  0  0  0
   -9.8525   -3.8939    9.8430 H   0  0  0  0  0  0  0  0  0  0  0  0
  -11.9817   -2.6755    9.1919 H   0  0  0  0  0  0  0  0  0  0  0  0
  -11.4690    1.1630    6.1860 H   0  0  0  0  0  0  0  0  0  0  0  0
   -8.8395    0.7512    6.1849 H   0  0  0  0  0  0  0  0  0  0  0  0
   -7.2996   -1.1900    7.4695 H   0  0  0  0  0  0  0  0  0  0  0  0
  1  2  2  0
  2  3  1  0
  3  4  1  0
  4  5  2  0
  5  6  1  0
  6  7  2  0
  7  8  1  0
  8  9  1  0
  9 10  2  0
 10 11  1  0
 11 12  2  0
 12 13  1  0
  8 14  2  0
  2 15  1  0
 15 16  1  0
 16 17  2  0
 17 18  1  0
 18 19  2  0
 19 20  1  0
 20 21  1  0
 21 22  2  0
 22 23  1  0
 14  4  1  0
 23 15  2  0
 13  9  1  0
 22 18  1  0
  3 24  1  0
  5 25  1  0
  6 26  1  0
  7 27  1  0
 13 28  1  0
 14 29  1  0
 16 30  1  0
 17 31  1  0
 20 32  1  0
 21 33  1  0
 23 34  1  0
M  END
>  <meeko>  (5) 
{"is_sidechain": [false], "free_energy": -6.9, "intermolecular_energy": -8.051, "internal_energy": -0.513}

$$$$
4de1_ligand
     RDKit          3D

 34 37  0  0  0  0  0  0  0  0999 V2000
  -13.2960   -2.0020    3.6280 O   0  0  0  0  0  0  0  0  0  0  0  0
  -13.4150   -2.9960    4.3310 C   0  0  0  0  0  0  0  0  0  0  0  0
  -12.8050   -3.2370    5.5500 N   0  0  0  0  0  0  0  0  0  0  0  0
  -11.8430   -2.4300    6.1960 C   0  0  0  0  0  0  0  0  0  0  0  0
  -12.1640   -1.3380    7.0020 C   0  0  0  0  0  0  0  0  0  0  0  0
  -11.1560   -0.5720    7.5900 C   0  0  0  0  0  0  0  0  0  0  0  0
   -9.8160   -0.8960    7.3790 C   0  0  0  0  0  0  0  0  0  0  0  0
   -9.4630   -1.9920    6.5820 C   0  0  0  0  0  0  0  0  0  0  0  0
   -8.0490   -2.3030    6.3900 C   0  0  0  0  0  0  0  0  0  0  0  0
   -7.1990   -2.7680    7.2890 N   0  0  0  0  0  0  0  0  0  0  0  0
   -5.9910   -2.9150    6.6550 N   0  0  0  0  0  0  0  0  0  0  0  0
   -6.0800   -2.5630    5.3820 N   0  0  0  0  0  0  0  0  0  0  0  0
   -7.3550   -2.1910    5.2160 N   0  0  0  0  0  0  0  0  0  0  0  0
  -10.4890   -2.7480    5.9880 C   0  0  0  0  0  0  0  0  0  0  0  0
  -14.3530   -4.0680    3.8870 C   0  0  0  0  0  0  0  0  0  0  0  0
  -13.9670   -5.4490    4.0150 C   0  0  0  0  0  0  0  0  0  0  0  0
  -14.7960   -6.5290    3.6290 C   0  0  0  0  0  0  0  0  0  0  0  0
  -16.0320   -6.1310    3.0940 C   0  0  0  0  0  0  0  0  0  0  0  0
  -17.0530   -6.8700    2.6320 N   0  0  0  0  0  0  0  0  0  0  0  0
  -17.9730   -5.9730    2.2260 N   0  0  0  0  0  0  0  0  0  0  0  0
  -17.6110   -4.6690    2.4120 C   0  0  0  0  0  0  0  0  0  0  0  0
  -16.3650   -4.7340    2.9690 C   0  0  0  0  0  0  0  0  0  0  0  0
  -15.5840   -3.6450    3.3330 C   0  0  0  0  0  0  0  0  0  0  0  0
  -13.1280   -4.0450    6.0660 H   0  0  0  0  0  0  0  0  0  0  0  0
  -13.2188   -1.0786    7.1755 H   0  0  0  0  0  0  0  0  0  0  0  0
  -11.4192    0.2894    8.2214 H   0  0  0  0  0  0  0  0  0  0  0  0
   -9.0284   -0.2844    7.8434 H   0  0  0  0  0  0  0  0  0  0  0  0
   -7.6690   -1.9010    4.3000 H   0  0  0  0  0  0  0  0  0  0  0  0
  -10.2277   -3.6041    5.3487 H   0  0  0  0  0  0  0  0  0  0  0  0
  -12.9760   -5.6766    4.4347 H   0  0  0  0  0  0  0  0  0  0  0  0
  -14.4997   -7.5827    3.7379 H   0  0  0  0  0  0  0  0  0  0  0  0
  -18.8370   -6.3260    1.8270 H   0  0  0  0  0  0  0  0  0  0  0  0
  -18.1927   -3.7679    2.1679 H   0  0  0  0  0  0  0  0  0  0  0  0
  -15.8827   -2.5938    3.2073 H   0  0  0  0  0  0  0  0  0  0  0  0
  1  2  2  0
  2  3  1  0
  3  4  1  0
  4  5  2  0
  5  6  1  0
  6  7  2  0
  7  8  1  0
  8  9  1  0
  9 10  2  0
 10 11  1  0
 11 12  2  0
 12 13  1  0
  8 14  2  0
  2 15  1  0
 15 16  1  0
 16 17  2  0
 17 18  1  0
 18 19  2  0
 19 20  1  0
 20 21  1  0
 21 22  2  0
 22 23  1  0
 14  4  1  0
 23 15  2  0
 13  9  1  0
 22 18  1  0
  3 24  1  0
  5 25  1  0
  6 26  1  0
  7 27  1  0
 13 28  1  0
 14 29  1  0
 16 30  1  0
 17 31  1  0
 20 32  1  0
 21 33  1  0
 23 34  1  0
M  END
>  <meeko>  (6) 
{"is_sidechain": [false], "free_energy": -6.899, "intermolecular_energy": -8.063, "internal_energy": -0.5}

$$$$
4de1_ligand
     RDKit          3D

 34 37  0  0  0  0  0  0  0  0999 V2000
   -8.7790   -4.2970   10.8840 O   0  0  0  0  0  0  0  0  0  0  0  0
   -7.8250   -4.1280   10.1360 C   0  0  0  0  0  0  0  0  0  0  0  0
   -6.5530   -4.6570   10.2710 N   0  0  0  0  0  0  0  0  0  0  0  0
   -6.0590   -5.4260   11.3460 C   0  0  0  0  0  0  0  0  0  0  0  0
   -6.1820   -5.0540   12.6850 C   0  0  0  0  0  0  0  0  0  0  0  0
   -5.6470   -5.8570   13.6940 C   0  0  0  0  0  0  0  0  0  0  0  0
   -4.9870   -7.0420   13.3710 C   0  0  0  0  0  0  0  0  0  0  0  0
   -4.8560   -7.4460   12.0370 C   0  0  0  0  0  0  0  0  0  0  0  0
   -4.1640   -8.6980   11.7390 C   0  0  0  0  0  0  0  0  0  0  0  0
   -4.0770   -9.7700   12.5070 N   0  0  0  0  0  0  0  0  0  0  0  0
   -3.3410  -10.6970   11.8120 N   0  0  0  0  0  0  0  0  0  0  0  0
   -2.9820  -10.2250   10.6280 N   0  0  0  0  0  0  0  0  0  0  0  0
   -3.4980   -8.9900   10.5800 N   0  0  0  0  0  0  0  0  0  0  0  0
   -5.3910   -6.6220   11.0310 C   0  0  0  0  0  0  0  0  0  0  0  0
   -8.0280   -3.3100    8.9050 C   0  0  0  0  0  0  0  0  0  0  0  0
   -9.1830   -2.4570    8.7990 C   0  0  0  0  0  0  0  0  0  0  0  0
   -9.4490   -1.6410    7.6740 C   0  0  0  0  0  0  0  0  0  0  0  0
   -8.4870   -1.7480    6.6570 C   0  0  0  0  0  0  0  0  0  0  0  0
   -8.4130   -1.1310    5.4670 N   0  0  0  0  0  0  0  0  0  0  0  0
   -7.2960   -1.6190    4.8930 N   0  0  0  0  0  0  0  0  0  0  0  0
   -6.6160   -2.5240    5.6590 C   0  0  0  0  0  0  0  0  0  0  0  0
   -7.3560   -2.6300    6.8020 C   0  0  0  0  0  0  0  0  0  0  0  0
   -7.0570   -3.4470    7.8850 C   0  0  0  0  0  0  0  0  0  0  0  0
   -5.9280   -4.5350    9.4850 H   0  0  0  0  0  0  0  0  0  0  0  0
   -6.7039   -4.1219   12.9474 H   0  0  0  0  0  0  0  0  0  0  0  0
   -5.7464   -5.5540   14.7468 H   0  0  0  0  0  0  0  0  0  0  0  0
   -4.5649   -7.6659   14.1726 H   0  0  0  0  0  0  0  0  0  0  0  0
   -3.3730   -8.4360    9.7440 H   0  0  0  0  0  0  0  0  0  0  0  0
   -5.2847   -6.9191    9.9772 H   0  0  0  0  0  0  0  0  0  0  0  0
   -9.8960   -2.4387    9.6364 H   0  0  0  0  0  0  0  0  0  0  0  0
  -10.3281   -0.9837    7.6028 H   0  0  0  0  0  0  0  0  0  0  0  0
   -7.0540   -1.2850    3.9660 H   0  0  0  0  0  0  0  0  0  0  0  0
   -5.6820   -3.0493    5.4105 H   0  0  0  0  0  0  0  0  0  0  0  0
   -6.1823   -4.1116    7.9420 H   0  0  0  0  0  0  0  0  0  0  0  0
  1  2  2  0
  2  3  1  0
  3  4  1  0
  4  5  2  0
  5  6  1  0
  6  7  2  0
  7  8  1  0
  8  9  1  0
  9 10  2  0
 10 11  1  0
 11 12  2  0
 12 13  1  0
  8 14  2  0
  2 15  1  0
 15 16  1  0
 16 17  2  0
 17 18  1  0
 18 19  2  0
 19 20  1  0
 20 21  1  0
 21 22  2  0
 22 23  1  0
 14  4  1  0
 23 15  2  0
 13  9  1  0
 22 18  1  0
  3 24  1  0
  5 25  1  0
  6 26  1  0
  7 27  1  0
 13 28  1  0
 14 29  1  0
 16 30  1  0
 17 31  1  0
 20 32  1  0
 21 33  1  0
 23 34  1  0
M  END
>  <meeko>  (7) 
{"is_sidechain": [false], "free_energy": -6.876, "intermolecular_energy": -8.136, "internal_energy": -0.4}

$$$$
4de1_ligand
     RDKit          3D

 34 37  0  0  0  0  0  0  0  0999 V2000
  -11.4860   -0.3600    6.9920 O   0  0  0  0  0  0  0  0  0  0  0  0
  -10.9790   -1.1570    6.2150 C   0  0  0  0  0  0  0  0  0  0  0  0
  -11.5100   -1.6150    5.0210 N   0  0  0  0  0  0  0  0  0  0  0  0
  -12.7890   -1.3330    4.4930 C   0  0  0  0  0  0  0  0  0  0  0  0
  -13.2370   -0.0450    4.1980 C   0  0  0  0  0  0  0  0  0  0  0  0
  -14.5250    0.1580    3.6980 C   0  0  0  0  0  0  0  0  0  0  0  0
  -15.3730   -0.9270    3.4850 C   0  0  0  0  0  0  0  0  0  0  0  0
  -14.9490   -2.2320    3.7640 C   0  0  0  0  0  0  0  0  0  0  0  0
  -15.8640   -3.3440    3.5210 C   0  0  0  0  0  0  0  0  0  0  0  0
  -16.7830   -3.8220    4.3420 N   0  0  0  0  0  0  0  0  0  0  0  0
  -17.4030   -4.8560    3.6850 N   0  0  0  0  0  0  0  0  0  0  0  0
  -16.8960   -5.0170    2.4720 N   0  0  0  0  0  0  0  0  0  0  0  0
  -15.9490   -4.0770    2.3680 N   0  0  0  0  0  0  0  0  0  0  0  0
  -13.6520   -2.4210    4.2760 C   0  0  0  0  0  0  0  0  0  0  0  0
   -9.6160   -1.6780    6.5250 C   0  0  0  0  0  0  0  0  0  0  0  0
   -8.6080   -1.6920    5.4980 C   0  0  0  0  0  0  0  0  0  0  0  0
   -7.2890   -2.1590    5.7050 C   0  0  0  0  0  0  0  0  0  0  0  0
   -7.0520   -2.6240    7.0090 C   0  0  0  0  0  0  0  0  0  0  0  0
   -5.9360   -3.1290    7.5580 N   0  0  0  0  0  0  0  0  0  0  0  0
   -6.2790   -3.4250    8.8270 N   0  0  0  0  0  0  0  0  0  0  0  0
   -7.5730   -3.1250    9.1480 C   0  0  0  0  0  0  0  0  0  0  0  0
   -8.1000   -2.6080    7.9990 C   0  0  0  0  0  0  0  0  0  0  0  0
   -9.4050   -2.1600    7.8390 C   0  0  0  0  0  0  0  0  0  0  0  0
  -10.8940   -2.1600    4.4310 H   0  0  0  0  0  0  0  0  0  0  0  0
  -12.5716    0.8158    4.3603 H   0  0  0  0  0  0  0  0  0  0  0  0
  -14.8711    1.1773    3.4717 H   0  0  0  0  0  0  0  0  0  0  0  0
  -16.3867   -0.7564    3.0934 H   0  0  0  0  0  0  0  0  0  0  0  0
  -15.4340   -3.9900    1.5030 H   0  0  0  0  0  0  0  0  0  0  0  0
  -13.3072   -3.4388    4.5107 H   0  0  0  0  0  0  0  0  0  0  0  0
   -8.8777   -1.3197    4.4987 H   0  0  0  0  0  0  0  0  0  0  0  0
   -6.5204   -2.1581    4.9180 H   0  0  0  0  0  0  0  0  0  0  0  0
   -5.5700   -3.8350    9.4270 H   0  0  0  0  0  0  0  0  0  0  0  0
   -8.0772   -3.2679   10.1152 H   0  0  0  0  0  0  0  0  0  0  0  0
  -10.1716   -2.1775    8.6276 H   0  0  0  0  0  0  0  0  0  0  0  0
  1  2  2  0
  2  3  1  0
  3  4  1  0
  4  5  2  0
  5  6  1  0
  6  7  2  0
  7  8  1  0
  8  9  1  0
  9 10  2  0
 10 11  1  0
 11 12  2  0
 12 13  1  0
  8 14  2  0
  2 15  1  0
 15 16  1  0
 16 17  2  0
 17 18  1  0
 18 19  2  0
 19 20  1  0
 20 21  1  0
 21 22  2  0
 22 23  1  0
 14  4  1  0
 23 15  2  0
 13  9  1  0
 22 18  1  0
  3 24  1  0
  5 25  1  0
  6 26  1  0
  7 27  1  0
 13 28  1  0
 14 29  1  0
 16 30  1  0
 17 31  1  0
 20 32  1  0
 21 33  1  0
 23 34  1  0
M  END
>  <meeko>  (8) 
{"is_sidechain": [false], "free_energy": -6.725, "intermolecular_energy": -7.971, "internal_energy": -0.387}

$$$$
4de1_ligand
     RDKit          3D

 34 37  0  0  0  0  0  0  0  0999 V2000
  -14.0590   -2.6230    7.3910 O   0  0  0  0  0  0  0  0  0  0  0  0
  -13.5910   -1.8280    6.5880 C   0  0  0  0  0  0  0  0  0  0  0  0
  -14.2350   -1.2590    5.5030 N   0  0  0  0  0  0  0  0  0  0  0  0
  -15.5370   -1.5450    5.0370 C   0  0  0  0  0  0  0  0  0  0  0  0
  -16.6370   -0.7150    5.2560 C   0  0  0  0  0  0  0  0  0  0  0  0
  -17.8990   -1.0760    4.7830 C   0  0  0  0  0  0  0  0  0  0  0  0
  -18.0720   -2.2700    4.0850 C   0  0  0  0  0  0  0  0  0  0  0  0
  -16.9850   -3.1190    3.8420 C   0  0  0  0  0  0  0  0  0  0  0  0
  -17.2040   -4.3580    3.1000 C   0  0  0  0  0  0  0  0  0  0  0  0
  -18.1380   -5.2690    3.3140 N   0  0  0  0  0  0  0  0  0  0  0  0
  -17.9610   -6.2480    2.3690 N   0  0  0  0  0  0  0  0  0  0  0  0
  -16.9470   -5.9560    1.5700 N   0  0  0  0  0  0  0  0  0  0  0  0
  -16.4830   -4.7830    2.0170 N   0  0  0  0  0  0  0  0  0  0  0  0
  -15.7210   -2.7470    4.3320 C   0  0  0  0  0  0  0  0  0  0  0  0
  -12.1910   -1.3550    6.7940 C   0  0  0  0  0  0  0  0  0  0  0  0
  -11.4360   -1.8360    7.9210 C   0  0  0  0  0  0  0  0  0  0  0  0
  -10.1020   -1.4480    8.1890 C   0  0  0  0  0  0  0  0  0  0  0  0
   -9.5810   -0.5350    7.2580 C   0  0  0  0  0  0  0  0  0  0  0  0
   -8.3690    0.0390    7.1950 N   0  0  0  0  0  0  0  0  0  0  0  0
   -8.4210    0.8380    6.1110 N   0  0  0  0  0  0  0  0  0  0  0  0
   -9.6130    0.8070    5.4430 C   0  0  0  0  0  0  0  0  0  0  0  0
  -10.3830   -0.0670    6.1560 C   0  0  0  0  0  0  0  0  0  0  0  0
  -11.6930   -0.4200    5.8560 C   0  0  0  0  0  0  0  0  0  0  0  0
  -13.7460   -0.5100    5.0290 H   0  0  0  0  0  0  0  0  0  0  0  0
  -16.5085    0.2296    5.8048 H   0  0  0  0  0  0  0  0  0  0  0  0
  -18.7606   -0.4159    4.9616 H   0  0  0  0  0  0  0  0  0  0  0  0
  -19.0722   -2.5482    3.7214 H   0  0  0  0  0  0  0  0  0  0  0  0
  -15.7100   -4.3430    1.5370 H   0  0  0  0  0  0  0  0  0  0  0  0
  -14.8596   -3.4092    4.1604 H   0  0  0  0  0  0  0  0  0  0  0  0
  -11.9216   -2.5424    8.6103 H   0  0  0  0  0  0  0  0  0  0  0  0
   -9.5266   -1.8263    9.0468 H   0  0  0  0  0  0  0  0  0  0  0  0
   -7.5960    1.3820    5.8820 H   0  0  0  0  0  0  0  0  0  0  0  0
   -9.8901    1.3618    4.5345 H   0  0  0  0  0  0  0  0  0  0  0  0
  -12.2659   -0.0256    5.0038 H   0  0  0  0  0  0  0  0  0  0  0  0
  1  2  2  0
  2  3  1  0
  3  4  1  0
  4  5  2  0
  5  6  1  0
  6  7  2  0
  7  8  1  0
  8  9  1  0
  9 10  2  0
 10 11  1  0
 11 12  2  0
 12 13  1  0
  8 14  2  0
  2 15  1  0
 15 16  1  0
 16 17  2  0
 17 18  1  0
 18 19  2  0
 19 20  1  0
 20 21  1  0
 21 22  2  0
 22 23  1  0
 14  4  1  0
 23 15  2  0
 13  9  1  0
 22 18  1  0
  3 24  1  0
  5 25  1  0
  6 26  1  0
  7 27  1  0
 13 28  1  0
 14 29  1  0
 16 30  1  0
 17 31  1  0
 20 32  1  0
 21 33  1  0
 23 34  1  0
M  END
>  <meeko>  (9) 
{"is_sidechain": [false], "free_energy": -6.43, "intermolecular_energy": -7.476, "internal_energy": -0.535}

$$$$
