1r5y_ligand
     RDKit          3D

 21 22  0  0  0  0  0  0  0  0999 V2000
    1.1480   -6.3560    6.0810 N   0  0  0  0  0  0  0  0  0  0  0  0
    0.0790   -6.9980    5.4460 C   0  0  0  0  0  0  0  0  0  0  0  0
   -1.0890   -6.2900    5.1470 C   0  0  0  0  0  0  0  0  0  0  0  0
   -2.1190   -6.8830    4.4060 C   0  0  0  0  0  0  0  0  0  0  0  0
   -1.9820   -8.1800    3.9160 C   0  0  0  0  0  0  0  0  0  0  0  0
   -3.0320   -8.7460    3.1750 N   0  0  0  0  0  0  0  0  0  0  0  0
   -2.8710   -9.9390    2.7010 C   0  0  0  0  0  0  0  0  0  0  0  0
   -3.8520  -10.5270    1.9740 N   0  0  0  0  0  0  0  0  0  0  0  0
   -1.7310  -10.6620    2.8870 N   0  0  0  0  0  0  0  0  0  0  0  0
   -0.6600  -10.2170    3.6200 C   0  0  0  0  0  0  0  0  0  0  0  0
    0.3330  -10.9090    3.8120 O   0  0  0  0  0  0  0  0  0  0  0  0
   -0.7900   -8.8600    4.1700 C   0  0  0  0  0  0  0  0  0  0  0  0
    0.2450   -8.2750    4.9100 C   0  0  0  0  0  0  0  0  0  0  0  0
    1.9460   -6.9580    6.2620 H   0  0  0  0  0  0  0  0  0  0  0  0
    0.8810   -5.8140    6.8960 H   0  0  0  0  0  0  0  0  0  0  0  0
   -1.2004   -5.2536    5.4984 H   0  0  0  0  0  0  0  0  0  0  0  0
   -3.0435   -6.3202    4.2093 H   0  0  0  0  0  0  0  0  0  0  0  0
   -4.7720  -10.2590    2.3120 H   0  0  0  0  0  0  0  0  0  0  0  0
   -3.7720  -10.4390    0.9700 H   0  0  0  0  0  0  0  0  0  0  0  0
   -1.6730  -11.6080    2.5490 H   0  0  0  0  0  0  0  0  0  0  0  0
    1.1866   -8.8212    5.0682 H   0  0  0  0  0  0  0  0  0  0  0  0
  1  2  1  0
  2  3  2  0
  3  4  1  0
  4  5  2  0
  5  6  1  0
  6  7  2  0
  7  8  1  0
  7  9  1  0
  9 10  1  0
 10 11  2  0
 10 12  1  0
 12 13  2  0
 13  2  1  0
 12  5  1  0
  1 14  1  0
  1 15  1  0
  3 16  1  0
  4 17  1  0
  8 18  1  0
  8 19  1  0
  9 20  1  0
 13 21  1  0
M  END
>  <meeko>  (1) 
{"is_sidechain": [false], "free_energy": -7.221, "intermolecular_energy": -7.643, "internal_energy": 0.0}

$$$$
1r5y_ligand
     RDKit          3D

 21 22  0  0  0  0  0  0  0  0999 V2000
    1.2060   -6.5170    6.0280 N   0  0  0  0  0  0  0  0  0  0  0  0
    0.4750   -7.3640    5.1890 C   0  0  0  0  0  0  0  0  0  0  0  0
    0.9570   -8.6420    4.8870 C   0  0  0  0  0  0  0  0  0  0  0  0
    0.1840   -9.5450    4.1470 C   0  0  0  0  0  0  0  0  0  0  0  0
   -1.1010   -9.2020    3.7320 C   0  0  0  0  0  0  0  0  0  0  0  0
   -1.8520  -10.1320    2.9940 N   0  0  0  0  0  0  0  0  0  0  0  0
   -3.0560   -9.8060    2.6480 C   0  0  0  0  0  0  0  0  0  0  0  0
   -3.8230  -10.6690    1.9390 N   0  0  0  0  0  0  0  0  0  0  0  0
   -3.6200   -8.6090    2.9700 N   0  0  0  0  0  0  0  0  0  0  0  0
   -2.9650   -7.6200    3.6580 C   0  0  0  0  0  0  0  0  0  0  0  0
   -3.4820   -6.5340    3.8920 O   0  0  0  0  0  0  0  0  0  0  0  0
   -1.5970   -7.9470    4.0870 C   0  0  0  0  0  0  0  0  0  0  0  0
   -0.8320   -7.0380    4.8250 C   0  0  0  0  0  0  0  0  0  0  0  0
    1.2060   -6.7980    7.0040 H   0  0  0  0  0  0  0  0  0  0  0  0
    0.9950   -5.5310    5.9110 H   0  0  0  0  0  0  0  0  0  0  0  0
    1.9564   -8.9415    5.2355 H   0  0  0  0  0  0  0  0  0  0  0  0
    0.5945  -10.5330    3.8913 H   0  0  0  0  0  0  0  0  0  0  0  0
   -4.0730  -11.4830    2.4950 H   0  0  0  0  0  0  0  0  0  0  0  0
   -4.6230  -10.2670    1.4700 H   0  0  0  0  0  0  0  0  0  0  0  0
   -4.5390   -8.3760    2.6290 H   0  0  0  0  0  0  0  0  0  0  0  0
   -1.2599   -6.0679    5.1179 H   0  0  0  0  0  0  0  0  0  0  0  0
  1  2  1  0
  2  3  2  0
  3  4  1  0
  4  5  2  0
  5  6  1  0
  6  7  2  0
  7  8  1  0
  7  9  1  0
  9 10  1  0
 10 11  2  0
 10 12  1  0
 12 13  2  0
 13  2  1  0
 12  5  1  0
  1 14  1  0
  1 15  1  0
  3 16  1  0
  4 17  1  0
  8 18  1  0
  8 19  1  0
  9 20  1  0
 13 21  1  0
M  END
>  <meeko>  (2) 
{"is_sidechain": [false], "free_energy": -6.854, "intermolecular_energy": -7.255, "internal_energy": 0.0}

$$$$
1r5y_ligand
     RDKit          3D

 21 22  0  0  0  0  0  0  0  0999 V2000
   -4.2830   -9.8530    2.3900 N   0  0  0  0  0  0  0  0  0  0  0  0
   -3.0460   -9.6590    3.0140 C   0  0  0  0  0  0  0  0  0  0  0  0
   -2.1140  -10.7000    3.0680 C   0  0  0  0  0  0  0  0  0  0  0  0
   -0.8280  -10.4890    3.5810 C   0  0  0  0  0  0  0  0  0  0  0  0
   -0.4390   -9.2220    4.0120 C   0  0  0  0  0  0  0  0  0  0  0  0
    0.8590   -9.0410    4.5200 N   0  0  0  0  0  0  0  0  0  0  0  0
    1.2110   -7.8510    4.8830 C   0  0  0  0  0  0  0  0  0  0  0  0
    2.4530   -7.6230    5.3750 N   0  0  0  0  0  0  0  0  0  0  0  0
    0.3830   -6.7730    4.7910 N   0  0  0  0  0  0  0  0  0  0  0  0
   -0.9100   -6.8440    4.3400 C   0  0  0  0  0  0  0  0  0  0  0  0
   -1.6480   -5.8660    4.3140 O   0  0  0  0  0  0  0  0  0  0  0  0
   -1.3550   -8.1750    3.9020 C   0  0  0  0  0  0  0  0  0  0  0  0
   -2.6420   -8.3780    3.3910 C   0  0  0  0  0  0  0  0  0  0  0  0
   -4.5130   -9.1480    1.6960 H   0  0  0  0  0  0  0  0  0  0  0  0
   -5.0490  -10.0290    3.0310 H   0  0  0  0  0  0  0  0  0  0  0  0
   -2.3948  -11.6987    2.7024 H   0  0  0  0  0  0  0  0  0  0  0  0
   -0.1203  -11.3288    3.6442 H   0  0  0  0  0  0  0  0  0  0  0  0
    2.4140   -7.2670    6.3260 H   0  0  0  0  0  0  0  0  0  0  0  0
    3.1140   -8.3820    5.2770 H   0  0  0  0  0  0  0  0  0  0  0  0
    0.6810   -5.8770    5.1400 H   0  0  0  0  0  0  0  0  0  0  0  0
   -3.3337   -7.5291    3.2868 H   0  0  0  0  0  0  0  0  0  0  0  0
  1  2  1  0
  2  3  2  0
  3  4  1  0
  4  5  2  0
  5  6  1  0
  6  7  2  0
  7  8  1  0
  7  9  1  0
  9 10  1  0
 10 11  2  0
 10 12  1  0
 12 13  2  0
 13  2  1  0
 12  5  1  0
  1 14  1  0
  1 15  1  0
  3 16  1  0
  4 17  1  0
  8 18  1  0
  8 19  1  0
  9 20  1  0
 13 21  1  0
M  END
>  <meeko>  (3) 
{"is_sidechain": [false], "free_energy": -6.685, "intermolecular_energy": -7.076, "internal_energy": 0.0}

$$$$
1r5y_ligand
     RDKit          3D

 21 22  0  0  0  0  0  0  0  0999 V2000
   -4.2300  -10.1320    2.3660 N   0  0  0  0  0  0  0  0  0  0  0  0
   -3.2270   -9.3420    2.9360 C   0  0  0  0  0  0  0  0  0  0  0  0
   -3.5300   -8.0690    3.4300 C   0  0  0  0  0  0  0  0  0  0  0  0
   -2.5680   -7.3130    4.1110 C   0  0  0  0  0  0  0  0  0  0  0  0
   -1.2970   -7.8350    4.3460 C   0  0  0  0  0  0  0  0  0  0  0  0
   -0.3530   -7.0530    5.0340 N   0  0  0  0  0  0  0  0  0  0  0  0
    0.8090   -7.5690    5.2720 C   0  0  0  0  0  0  0  0  0  0  0  0
    1.7520   -6.8580    5.9360 N   0  0  0  0  0  0  0  0  0  0  0  0
    1.1520   -8.8300    4.8880 N   0  0  0  0  0  0  0  0  0  0  0  0
    0.3200   -9.6630    4.1850 C   0  0  0  0  0  0  0  0  0  0  0  0
    0.6730  -10.7750    3.8110 O   0  0  0  0  0  0  0  0  0  0  0  0
   -1.0200   -9.1280    3.9010 C   0  0  0  0  0  0  0  0  0  0  0  0
   -1.9760   -9.8900    3.2200 C   0  0  0  0  0  0  0  0  0  0  0  0
   -4.9420  -10.4380    3.0230 H   0  0  0  0  0  0  0  0  0  0  0  0
   -3.8840  -10.8930    1.7910 H   0  0  0  0  0  0  0  0  0  0  0  0
   -4.5385   -7.6558    3.2814 H   0  0  0  0  0  0  0  0  0  0  0  0
   -2.8168   -6.3009    4.4627 H   0  0  0  0  0  0  0  0  0  0  0  0
    1.7290   -5.8770    5.6720 H   0  0  0  0  0  0  0  0  0  0  0  0
    1.7740   -6.9830    6.9400 H   0  0  0  0  0  0  0  0  0  0  0  0
    2.0880   -9.1670    5.0430 H   0  0  0  0  0  0  0  0  0  0  0  0
   -1.7415  -10.9188    2.9093 H   0  0  0  0  0  0  0  0  0  0  0  0
  1  2  1  0
  2  3  2  0
  3  4  1  0
  4  5  2  0
  5  6  1  0
  6  7  2  0
  7  8  1  0
  7  9  1  0
  9 10  1  0
 10 11  2  0
 10 12  1  0
 12 13  2  0
 13  2  1  0
 12  5  1  0
  1 14  1  0
  1 15  1  0
  3 16  1  0
  4 17  1  0
  8 18  1  0
  8 19  1  0
  9 20  1  0
 13 21  1  0
M  END
>  <meeko>  (4) 
{"is_sidechain": [false], "free_energy": -6.188, "intermolecular_energy": -6.55, "internal_energy": 0.0}

$$$$
1r5y_ligand
     RDKit          3D

 21 22  0  0  0  0  0  0  0  0999 V2000
   -4.8230   -6.7570    3.9560 N   0  0  0  0  0  0  0  0  0  0  0  0
   -3.4470   -6.7180    4.2060 C   0  0  0  0  0  0  0  0  0  0  0  0
   -2.8980   -5.6770    4.9620 C   0  0  0  0  0  0  0  0  0  0  0  0
   -1.5460   -5.6860    5.3230 C   0  0  0  0  0  0  0  0  0  0  0  0
   -0.7260   -6.7560    4.9690 C   0  0  0  0  0  0  0  0  0  0  0  0
    0.6260   -6.7370    5.3470 N   0  0  0  0  0  0  0  0  0  0  0  0
    1.3610   -7.7550    5.0380 C   0  0  0  0  0  0  0  0  0  0  0  0
    2.6710   -7.7880    5.3850 N   0  0  0  0  0  0  0  0  0  0  0  0
    0.8800   -8.8390    4.3680 N   0  0  0  0  0  0  0  0  0  0  0  0
   -0.4140   -8.9460    3.9250 C   0  0  0  0  0  0  0  0  0  0  0  0
   -0.8060   -9.9130    3.2820 O   0  0  0  0  0  0  0  0  0  0  0  0
   -1.2940   -7.8180    4.2640 C   0  0  0  0  0  0  0  0  0  0  0  0
   -2.6450   -7.8180    3.8990 C   0  0  0  0  0  0  0  0  0  0  0  0
   -5.3720   -6.1550    4.5620 H   0  0  0  0  0  0  0  0  0  0  0  0
   -5.2070   -7.6940    3.8910 H   0  0  0  0  0  0  0  0  0  0  0  0
   -3.5379   -4.8396    5.2771 H   0  0  0  0  0  0  0  0  0  0  0  0
   -1.1271   -4.8420    5.8906 H   0  0  0  0  0  0  0  0  0  0  0  0
    2.8230   -8.3810    6.1960 H   0  0  0  0  0  0  0  0  0  0  0  0
    3.3220   -7.9870    4.6370 H   0  0  0  0  0  0  0  0  0  0  0  0
    1.5030   -9.5830    4.0970 H   0  0  0  0  0  0  0  0  0  0  0  0
   -3.0737   -8.6828    3.3715 H   0  0  0  0  0  0  0  0  0  0  0  0
  1  2  1  0
  2  3  2  0
  3  4  1  0
  4  5  2  0
  5  6  1  0
  6  7  2  0
  7  8  1  0
  7  9  1  0
  9 10  1  0
 10 11  2  0
 10 12  1  0
 12 13  2  0
 13  2  1  0
 12  5  1  0
  1 14  1  0
  1 15  1  0
  3 16  1  0
  4 17  1  0
  8 18  1  0
  8 19  1  0
  9 20  1  0
 13 21  1  0
M  END
>  <meeko>  (5) 
{"is_sidechain": [false], "free_energy": -6.101, "intermolecular_energy": -6.458, "internal_energy": 0.0}

$$$$
1r5y_ligand
     RDKit          3D

 21 22  0  0  0  0  0  0  0  0999 V2000
   -1.7360   -4.8110    7.9470 N   0  0  0  0  0  0  0  0  0  0  0  0
   -1.5080   -5.8740    7.0670 C   0  0  0  0  0  0  0  0  0  0  0  0
   -0.6670   -6.9280    7.4400 C   0  0  0  0  0  0  0  0  0  0  0  0
   -0.5210   -8.0560    6.6240 C   0  0  0  0  0  0  0  0  0  0  0  0
   -1.2460   -8.1690    5.4390 C   0  0  0  0  0  0  0  0  0  0  0  0
   -1.0800   -9.3140    4.6420 N   0  0  0  0  0  0  0  0  0  0  0  0
   -1.7870   -9.4140    3.5630 C   0  0  0  0  0  0  0  0  0  0  0  0
   -1.6680  -10.5010    2.7630 N   0  0  0  0  0  0  0  0  0  0  0  0
   -2.6820   -8.4640    3.1730 N   0  0  0  0  0  0  0  0  0  0  0  0
   -2.8970   -7.2960    3.8590 C   0  0  0  0  0  0  0  0  0  0  0  0
   -3.6740   -6.4370    3.4590 O   0  0  0  0  0  0  0  0  0  0  0  0
   -2.1260   -7.1400    5.1010 C   0  0  0  0  0  0  0  0  0  0  0  0
   -2.2780   -6.0090    5.9120 C   0  0  0  0  0  0  0  0  0  0  0  0
   -2.2500   -4.0360    7.5380 H   0  0  0  0  0  0  0  0  0  0  0  0
   -0.9110   -4.5040    8.4510 H   0  0  0  0  0  0  0  0  0  0  0  0
   -0.1125   -6.8695    8.3882 H   0  0  0  0  0  0  0  0  0  0  0  0
    0.1706   -8.8586    6.9200 H   0  0  0  0  0  0  0  0  0  0  0  0
   -1.1220  -10.2900    1.9320 H   0  0  0  0  0  0  0  0  0  0  0  0
   -1.3610  -11.3520    3.2160 H   0  0  0  0  0  0  0  0  0  0  0  0
   -3.1670   -8.5570    2.2960 H   0  0  0  0  0  0  0  0  0  0  0  0
   -3.0033   -5.2284    5.6388 H   0  0  0  0  0  0  0  0  0  0  0  0
  1  2  1  0
  2  3  2  0
  3  4  1  0
  4  5  2  0
  5  6  1  0
  6  7  2  0
  7  8  1  0
  7  9  1  0
  9 10  1  0
 10 11  2  0
 10 12  1  0
 12 13  2  0
 13  2  1  0
 12  5  1  0
  1 14  1  0
  1 15  1  0
  3 16  1  0
  4 17  1  0
  8 18  1  0
  8 19  1  0
  9 20  1  0
 13 21  1  0
M  END
>  <meeko>  (6) 
{"is_sidechain": [false], "free_energy": -5.946, "intermolecular_energy": -6.293, "internal_energy": 0.0}

$$$$
1r5y_ligand
     RDKit          3D

 21 22  0  0  0  0  0  0  0  0999 V2000
   -3.0950   -8.5350    2.9720 N   0  0  0  0  0  0  0  0  0  0  0  0
   -2.5050   -7.6490    3.8780 C   0  0  0  0  0  0  0  0  0  0  0  0
   -3.2970   -6.7550    4.6060 C   0  0  0  0  0  0  0  0  0  0  0  0
   -2.7390   -5.9460    5.6030 C   0  0  0  0  0  0  0  0  0  0  0  0
   -1.3850   -6.0450    5.9180 C   0  0  0  0  0  0  0  0  0  0  0  0
   -0.8550   -5.2210    6.9250 N   0  0  0  0  0  0  0  0  0  0  0  0
    0.3970   -5.3530    7.2250 C   0  0  0  0  0  0  0  0  0  0  0  0
    0.9550   -4.5850    8.1920 N   0  0  0  0  0  0  0  0  0  0  0  0
    1.2140   -6.2540    6.6120 N   0  0  0  0  0  0  0  0  0  0  0  0
    0.8070   -7.0820    5.5970 C   0  0  0  0  0  0  0  0  0  0  0  0
    1.5770   -7.8490    5.0310 O   0  0  0  0  0  0  0  0  0  0  0  0
   -0.6120   -6.9790    5.2280 C   0  0  0  0  0  0  0  0  0  0  0  0
   -1.1620   -7.7920    4.2300 C   0  0  0  0  0  0  0  0  0  0  0  0
   -3.3490   -8.1130    2.0840 H   0  0  0  0  0  0  0  0  0  0  0  0
   -3.8480   -9.0910    3.3640 H   0  0  0  0  0  0  0  0  0  0  0  0
   -4.3738   -6.6866    4.3920 H   0  0  0  0  0  0  0  0  0  0  0  0
   -3.3738   -5.2270    6.1416 H   0  0  0  0  0  0  0  0  0  0  0  0
    1.8370   -4.9770    8.5110 H   0  0  0  0  0  0  0  0  0  0  0  0
    1.0260   -3.5980    7.9870 H   0  0  0  0  0  0  0  0  0  0  0  0
    2.1950   -6.2810    6.8380 H   0  0  0  0  0  0  0  0  0  0  0  0
   -0.5368   -8.5424    3.7240 H   0  0  0  0  0  0  0  0  0  0  0  0
  1  2  1  0
  2  3  2  0
  3  4  1  0
  4  5  2  0
  5  6  1  0
  6  7  2  0
  7  8  1  0
  7  9  1  0
  9 10  1  0
 10 11  2  0
 10 12  1  0
 12 13  2  0
 13  2  1  0
 12  5  1  0
  1 14  1  0
  1 15  1  0
  3 16  1  0
  4 17  1  0
  8 18  1  0
  8 19  1  0
  9 20  1  0
 13 21  1  0
M  END
>  <meeko>  (7) 
{"is_sidechain": [false], "free_energy": -5.828, "intermolecular_energy": -6.168, "internal_energy": 0.0}

$$$$
1r5y_ligand
     RDKit          3D

 21 22  0  0  0  0  0  0  0  0999 V2000
   -3.1810   -4.1990    5.1760 N   0  0  0  0  0  0  0  0  0  0  0  0
   -2.7250   -5.4940    4.9050 C   0  0  0  0  0  0  0  0  0  0  0  0
   -3.4700   -6.3440    4.0800 C   0  0  0  0  0  0  0  0  0  0  0  0
   -2.9730   -7.5970    3.7020 C   0  0  0  0  0  0  0  0  0  0  0  0
   -1.7040   -8.0060    4.1080 C   0  0  0  0  0  0  0  0  0  0  0  0
   -1.2330   -9.2680    3.7110 N   0  0  0  0  0  0  0  0  0  0  0  0
   -0.0390   -9.6140    4.0700 C   0  0  0  0  0  0  0  0  0  0  0  0
    0.4640  -10.8190    3.7070 N   0  0  0  0  0  0  0  0  0  0  0  0
    0.7740   -8.8100    4.8100 N   0  0  0  0  0  0  0  0  0  0  0  0
    0.4010   -7.5750    5.2760 C   0  0  0  0  0  0  0  0  0  0  0  0
    1.1370   -6.8930    5.9810 O   0  0  0  0  0  0  0  0  0  0  0  0
   -0.9440   -7.1290    4.8830 C   0  0  0  0  0  0  0  0  0  0  0  0
   -1.4330   -5.8750    5.2660 C   0  0  0  0  0  0  0  0  0  0  0  0
   -3.0590   -3.5470    4.4070 H   0  0  0  0  0  0  0  0  0  0  0  0
   -2.8550   -3.8210    6.0590 H   0  0  0  0  0  0  0  0  0  0  0  0
   -4.4599   -6.0232    3.7235 H   0  0  0  0  0  0  0  0  0  0  0  0
   -3.5885   -8.2636    3.0800 H   0  0  0  0  0  0  0  0  0  0  0  0
   -0.1870  -11.3280    3.1160 H   0  0  0  0  0  0  0  0  0  0  0  0
    1.4010  -10.8100    3.3260 H   0  0  0  0  0  0  0  0  0  0  0  0
    1.6730   -9.1450    5.1150 H   0  0  0  0  0  0  0  0  0  0  0  0
   -0.7997   -5.1914    5.8505 H   0  0  0  0  0  0  0  0  0  0  0  0
  1  2  1  0
  2  3  2  0
  3  4  1  0
  4  5  2  0
  5  6  1  0
  6  7  2  0
  7  8  1  0
  7  9  1  0
  9 10  1  0
 10 11  2  0
 10 12  1  0
 12 13  2  0
 13  2  1  0
 12  5  1  0
  1 14  1  0
  1 15  1  0
  3 16  1  0
  4 17  1  0
  8 18  1  0
  8 19  1  0
  9 20  1  0
 13 21  1  0
M  END
>  <meeko>  (8) 
{"is_sidechain": [false], "free_energy": -5.789, "intermolecular_energy": -6.128, "internal_energy": 0.0}

$$$$
1r5y_ligand
     RDKit          3D

 21 22  0  0  0  0  0  0  0  0999 V2000
    1.6420   -8.1410    5.7980 N   0  0  0  0  0  0  0  0  0  0  0  0
    0.3910   -7.5190    5.8640 C   0  0  0  0  0  0  0  0  0  0  0  0
   -0.3240   -7.5040    7.0670 C   0  0  0  0  0  0  0  0  0  0  0  0
   -1.5190   -6.7850    7.1830 C   0  0  0  0  0  0  0  0  0  0  0  0
   -2.0000   -6.0340    6.1120 C   0  0  0  0  0  0  0  0  0  0  0  0
   -3.2020   -5.3210    6.2610 N   0  0  0  0  0  0  0  0  0  0  0  0
   -3.6120   -4.6030    5.2660 C   0  0  0  0  0  0  0  0  0  0  0  0
   -4.7620   -3.8930    5.3610 N   0  0  0  0  0  0  0  0  0  0  0  0
   -2.9310   -4.5090    4.0900 N   0  0  0  0  0  0  0  0  0  0  0  0
   -1.7680   -5.1870    3.8290 C   0  0  0  0  0  0  0  0  0  0  0  0
   -1.2020   -5.1200    2.7440 O   0  0  0  0  0  0  0  0  0  0  0  0
   -1.2520   -6.0070    4.9350 C   0  0  0  0  0  0  0  0  0  0  0  0
   -0.0560   -6.7230    4.8090 C   0  0  0  0  0  0  0  0  0  0  0  0
    1.6610   -9.0780    6.1890 H   0  0  0  0  0  0  0  0  0  0  0  0
    2.4100   -7.5680    6.1320 H   0  0  0  0  0  0  0  0  0  0  0  0
    0.0583   -8.0647    7.9327 H   0  0  0  0  0  0  0  0  0  0  0  0
   -2.0831   -6.8128    8.1269 H   0  0  0  0  0  0  0  0  0  0  0  0
   -5.0720   -3.8200    6.3260 H   0  0  0  0  0  0  0  0  0  0  0  0
   -4.7700   -2.9990    4.8880 H   0  0  0  0  0  0  0  0  0  0  0  0
   -3.3190   -3.9850    3.3230 H   0  0  0  0  0  0  0  0  0  0  0  0
    0.5301   -6.6583    3.8804 H   0  0  0  0  0  0  0  0  0  0  0  0
  1  2  1  0
  2  3  2  0
  3  4  1  0
  4  5  2  0
  5  6  1  0
  6  7  2  0
  7  8  1  0
  7  9  1  0
  9 10  1  0
 10 11  2  0
 10 12  1  0
 12 13  2  0
 13  2  1  0
 12  5  1  0
  1 14  1  0
  1 15  1  0
  3 16  1  0
  4 17  1  0
  8 18  1  0
  8 19  1  0
  9 20  1  0
 13 21  1  0
M  END
>  <meeko>  (9) 
{"is_sidechain": [false], "free_energy": -5.589, "intermolecular_energy": -5.916, "internal_energy": 0.0}

$$$$
