3zsx_ligand
     RDKit          3D

 60 63  0  0  0  0  0  0  0  0999 V2000
  -15.1940    2.2370   -3.2950 C   0  0  0  0  0  0  0  0  0  0  0  0
  -16.3160    2.0830   -4.0110 C   0  0  0  0  0  0  0  0  0  0  0  0
  -17.2170    3.1980   -4.4520 C   0  0  0  0  0  0  0  0  0  0  0  0
  -17.1020    3.5660   -5.8840 N   0  0  2  0  0  0  0  0  0  0  0  0
  -18.3460    3.9150   -6.6440 C   0  0  0  0  0  0  0  0  0  0  0  0
  -18.7970    5.3570   -6.6430 C   0  0  0  0  0  0  0  0  0  0  0  0
  -17.8540    6.3530   -6.9780 C   0  0  0  0  0  0  0  0  0  0  0  0
  -18.2060    7.7030   -7.0120 C   0  0  0  0  0  0  0  0  0  0  0  0
  -19.5110    8.0900   -6.7240 C   0  0  0  0  0  0  0  0  0  0  0  0
  -20.4610    7.1280   -6.3920 C   0  0  0  0  0  0  0  0  0  0  0  0
  -20.1090    5.7670   -6.3360 C   0  0  0  0  0  0  0  0  0  0  0  0
  -21.1600    4.7820   -5.9800 C   0  0  0  0  0  0  0  0  0  0  0  0
  -21.8890    4.3200   -6.8480 O   0  0  0  0  0  0  0  0  0  0  0  0
  -21.2120    4.4150   -4.6550 N   0  0  0  0  0  0  0  0  0  0  0  0
  -22.3080    3.6390   -4.1190 C   0  0  0  0  0  0  0  0  0  0  0  0
  -22.8570    4.3000   -2.8820 C   0  0  0  0  0  0  0  0  0  0  0  0
  -22.1150    5.2940   -2.2270 C   0  0  0  0  0  0  0  0  0  0  0  0
  -22.6030    5.8920   -1.0640 C   0  0  0  0  0  0  0  0  0  0  0  0
  -23.8340    5.4980   -0.5430 C   0  0  0  0  0  0  0  0  0  0  0  0
  -24.5770    4.5070   -1.1810 C   0  0  0  0  0  0  0  0  0  0  0  0
  -24.0900    3.9060   -2.3440 C   0  0  0  0  0  0  0  0  0  0  0  0
  -16.0150    2.9220   -6.6960 C   0  0  0  0  0  0  0  0  0  0  0  0
  -15.2290    3.8620   -7.5950 C   0  0  0  0  0  0  0  0  0  0  0  0
  -15.4470    3.8250   -8.9950 C   0  0  0  0  0  0  0  0  0  0  0  0
  -14.7600    4.6880   -9.8520 C   0  0  0  0  0  0  0  0  0  0  0  0
  -13.8680    5.5760   -9.2910 C   0  0  0  0  0  0  0  0  0  0  0  0
  -13.6420    5.6330   -7.9340 C   0  0  0  0  0  0  0  0  0  0  0  0
  -14.3080    4.8000   -7.0500 C   0  0  0  0  0  0  0  0  0  0  0  0
  -14.0610    4.8740   -5.5780 C   0  0  0  0  0  0  0  0  0  0  0  0
  -14.8810    5.6200   -4.9410 O   0  0  0  0  0  0  0  0  0  0  0  0
  -13.0310    4.3240   -5.1070 O   0  0  0  0  0  0  0  0  0  0  0  0
  -12.6930    6.5590   -7.6240 O   0  0  0  0  0  0  0  0  0  0  0  0
  -12.4210    7.1330   -8.9120 C   0  0  0  0  0  0  0  0  0  0  0  0
  -13.1160    6.4700   -9.9890 O   0  0  0  0  0  0  0  0  0  0  0  0
  -14.5944    1.3579   -3.0163 H   0  0  0  0  0  0  0  0  0  0  0  0
  -14.8725    3.2425   -2.9859 H   0  0  0  0  0  0  0  0  0  0  0  0
  -16.5983    1.0592   -4.2977 H   0  0  0  0  0  0  0  0  0  0  0  0
  -18.2564    2.8933   -4.2601 H   0  0  0  0  0  0  0  0  0  0  0  0
  -16.9103    4.0862   -3.8802 H   0  0  0  0  0  0  0  0  0  0  0  0
  -16.6910    4.5340   -5.7970 H   0  0  0  0  0  0  0  0  0  0  0  0
  -18.1812    3.6246   -7.6921 H   0  0  0  0  0  0  0  0  0  0  0  0
  -19.1486    3.3759   -6.1195 H   0  0  0  0  0  0  0  0  0  0  0  0
  -16.8213    6.0590   -7.2170 H   0  0  0  0  0  0  0  0  0  0  0  0
  -17.4512    8.4616   -7.2667 H   0  0  0  0  0  0  0  0  0  0  0  0
  -19.7914    9.1531   -6.7585 H   0  0  0  0  0  0  0  0  0  0  0  0
  -21.4943    7.4342   -6.1719 H   0  0  0  0  0  0  0  0  0  0  0  0
  -20.5990    4.8620   -3.9870 H   0  0  0  0  0  0  0  0  0  0  0  0
  -23.1039    3.5640   -4.8746 H   0  0  0  0  0  0  0  0  0  0  0  0
  -21.9428    2.6349   -3.8575 H   0  0  0  0  0  0  0  0  0  0  0  0
  -21.1410    5.6046   -2.6330 H   0  0  0  0  0  0  0  0  0  0  0  0
  -22.0164    6.6736   -0.5591 H   0  0  0  0  0  0  0  0  0  0  0  0
  -24.2194    5.9699    0.3728 H   0  0  0  0  0  0  0  0  0  0  0  0
  -25.5485    4.1975   -0.7682 H   0  0  0  0  0  0  0  0  0  0  0  0
  -24.6772    3.1193   -2.8404 H   0  0  0  0  0  0  0  0  0  0  0  0
  -15.3076    2.4473   -6.0002 H   0  0  0  0  0  0  0  0  0  0  0  0
  -16.5189    2.2112   -7.3674 H   0  0  0  0  0  0  0  0  0  0  0  0
  -16.1675    3.1064   -9.4126 H   0  0  0  0  0  0  0  0  0  0  0  0
  -14.9256    4.6597  -10.9391 H   0  0  0  0  0  0  0  0  0  0  0  0
  -12.7281    8.1892   -8.8958 H   0  0  0  0  0  0  0  0  0  0  0  0
  -11.3432    7.0184   -9.0995 H   0  0  0  0  0  0  0  0  0  0  0  0
  1  2  2  0
  2  3  1  0
  3  4  1  0
  4  5  1  0
  5  6  1  0
  6  7  2  0
  7  8  1  0
  8  9  2  0
  9 10  1  0
 10 11  2  0
 11 12  1  0
 12 13  2  0
 12 14  1  0
 14 15  1  0
 15 16  1  0
 16 17  2  0
 17 18  1  0
 18 19  2  0
 19 20  1  0
 20 21  2  0
  4 22  1  0
 22 23  1  0
 23 24  2  0
 24 25  1  0
 25 26  2  0
 26 27  1  0
 27 28  2  0
 28 29  1  0
 29 30  2  0
 29 31  1  0
 27 32  1  0
 32 33  1  0
 33 34  1  0
 11  6  1  0
 21 16  1  0
 28 23  1  0
 34 26  1  0
  1 35  1  0
  1 36  1  0
  2 37  1  0
  3 38  1  0
  3 39  1  0
  4 40  1  1
  5 41  1  0
  5 42  1  0
  7 43  1  0
  8 44  1  0
  9 45  1  0
 10 46  1  0
 14 47  1  0
 15 48  1  0
 15 49  1  0
 17 50  1  0
 18 51  1  0
 19 52  1  0
 20 53  1  0
 21 54  1  0
 22 55  1  0
 22 56  1  0
 24 57  1  0
 25 58  1  0
 33 59  1  0
 33 60  1  0
M  CHG  2   4   1  31  -1
M  END
>  <meeko>  (1) 
{"is_sidechain": [false], "free_energy": -8.091, "intermolecular_energy": -12.821, "internal_energy": -2.34}

$$$$
3zsx_ligand
     RDKit          3D

 60 63  0  0  0  0  0  0  0  0999 V2000
  -19.4220    2.9790  -10.7910 C   0  0  0  0  0  0  0  0  0  0  0  0
  -20.5920    2.8470  -10.1520 C   0  0  0  0  0  0  0  0  0  0  0  0
  -21.0210    3.6560   -8.9630 C   0  0  0  0  0  0  0  0  0  0  0  0
  -20.1900    3.4700   -7.7480 N   0  0  2  0  0  0  0  0  0  0  0  0
  -20.6870    2.5640   -6.6630 C   0  0  0  0  0  0  0  0  0  0  0  0
  -21.0390    3.1800   -5.3290 C   0  0  0  0  0  0  0  0  0  0  0  0
  -22.3050    3.7880   -5.1880 C   0  0  0  0  0  0  0  0  0  0  0  0
  -22.7030    4.3630   -3.9790 C   0  0  0  0  0  0  0  0  0  0  0  0
  -21.8510    4.3340   -2.8810 C   0  0  0  0  0  0  0  0  0  0  0  0
  -20.5960    3.7390   -2.9930 C   0  0  0  0  0  0  0  0  0  0  0  0
  -20.1810    3.1740   -4.2130 C   0  0  0  0  0  0  0  0  0  0  0  0
  -18.8360    2.5500   -4.2780 C   0  0  0  0  0  0  0  0  0  0  0  0
  -18.7010    1.4320   -4.7550 O   0  0  0  0  0  0  0  0  0  0  0  0
  -17.7960    3.3230   -3.8180 N   0  0  0  0  0  0  0  0  0  0  0  0
  -16.4700    2.7790   -3.6160 C   0  0  0  0  0  0  0  0  0  0  0  0
  -15.4370    3.6830   -4.2350 C   0  0  0  0  0  0  0  0  0  0  0  0
  -15.8180    4.9170   -4.7810 C   0  0  0  0  0  0  0  0  0  0  0  0
  -14.8720    5.7490   -5.3810 C   0  0  0  0  0  0  0  0  0  0  0  0
  -13.5370    5.3520   -5.4460 C   0  0  0  0  0  0  0  0  0  0  0  0
  -13.1480    4.1240   -4.9140 C   0  0  0  0  0  0  0  0  0  0  0  0
  -14.0930    3.2900   -4.3140 C   0  0  0  0  0  0  0  0  0  0  0  0
  -19.3480    4.6240   -7.2830 C   0  0  0  0  0  0  0  0  0  0  0  0
  -17.9120    4.6240   -7.7820 C   0  0  0  0  0  0  0  0  0  0  0  0
  -17.1680    3.4180   -7.7530 C   0  0  0  0  0  0  0  0  0  0  0  0
  -15.8530    3.3740   -8.2220 C   0  0  0  0  0  0  0  0  0  0  0  0
  -15.3070    4.5380   -8.7160 C   0  0  0  0  0  0  0  0  0  0  0  0
  -16.0110    5.7210   -8.7590 C   0  0  0  0  0  0  0  0  0  0  0  0
  -17.3180    5.8060   -8.3100 C   0  0  0  0  0  0  0  0  0  0  0  0
  -18.0760    7.0930   -8.3660 C   0  0  0  0  0  0  0  0  0  0  0  0
  -18.6590    7.3140   -9.4830 O   0  0  0  0  0  0  0  0  0  0  0  0
  -17.9870    7.8920   -7.3980 O   0  0  0  0  0  0  0  0  0  0  0  0
  -15.2500    6.7370   -9.2500 O   0  0  0  0  0  0  0  0  0  0  0  0
  -14.0380    6.0480   -9.5930 C   0  0  0  0  0  0  0  0  0  0  0  0
  -14.0400    4.6610   -9.1980 O   0  0  0  0  0  0  0  0  0  0  0  0
  -19.1929    2.3399  -11.6565 H   0  0  0  0  0  0  0  0  0  0  0  0
  -18.6904    3.7264  -10.4502 H   0  0  0  0  0  0  0  0  0  0  0  0
  -21.2925    2.0868  -10.5279 H   0  0  0  0  0  0  0  0  0  0  0  0
  -20.9848    4.7194   -9.2422 H   0  0  0  0  0  0  0  0  0  0  0  0
  -22.0314    3.3085   -8.7018 H   0  0  0  0  0  0  0  0  0  0  0  0
  -19.4260    2.8530   -8.1340 H   0  0  0  0  0  0  0  0  0  0  0  0
  -21.5916    2.0658   -7.0419 H   0  0  0  0  0  0  0  0  0  0  0  0
  -19.8342    1.9046   -6.4442 H   0  0  0  0  0  0  0  0  0  0  0  0
  -22.9916    3.8094   -6.0471 H   0  0  0  0  0  0  0  0  0  0  0  0
  -23.6911    4.8390   -3.8956 H   0  0  0  0  0  0  0  0  0  0  0  0
  -22.1667    4.7796   -1.9262 H   0  0  0  0  0  0  0  0  0  0  0  0
  -19.9251    3.7108   -2.1217 H   0  0  0  0  0  0  0  0  0  0  0  0
  -17.9850    4.2270   -3.4080 H   0  0  0  0  0  0  0  0  0  0  0  0
  -16.2746    2.6892   -2.5372 H   0  0  0  0  0  0  0  0  0  0  0  0
  -16.4119    1.7890   -4.0920 H   0  0  0  0  0  0  0  0  0  0  0  0
  -16.8711    5.2317   -4.7360 H   0  0  0  0  0  0  0  0  0  0  0  0
  -15.1793    6.7175   -5.8024 H   0  0  0  0  0  0  0  0  0  0  0  0
  -12.7906    6.0083   -5.9173 H   0  0  0  0  0  0  0  0  0  0  0  0
  -12.0947    3.8115   -4.9670 H   0  0  0  0  0  0  0  0  0  0  0  0
  -13.7818    2.3192   -3.9009 H   0  0  0  0  0  0  0  0  0  0  0  0
  -19.8266    5.5534   -7.6254 H   0  0  0  0  0  0  0  0  0  0  0  0
  -19.2892    4.5355   -6.1881 H   0  0  0  0  0  0  0  0  0  0  0  0
  -17.6327    2.5037   -7.3555 H   0  0  0  0  0  0  0  0  0  0  0  0
  -15.2724    2.4401   -8.1976 H   0  0  0  0  0  0  0  0  0  0  0  0
  -13.9030    6.1005  -10.6834 H   0  0  0  0  0  0  0  0  0  0  0  0
  -13.2179    6.5406   -9.0501 H   0  0  0  0  0  0  0  0  0  0  0  0
  1  2  2  0
  2  3  1  0
  3  4  1  0
  4  5  1  0
  5  6  1  0
  6  7  2  0
  7  8  1  0
  8  9  2  0
  9 10  1  0
 10 11  2  0
 11 12  1  0
 12 13  2  0
 12 14  1  0
 14 15  1  0
 15 16  1  0
 16 17  2  0
 17 18  1  0
 18 19  2  0
 19 20  1  0
 20 21  2  0
  4 22  1  0
 22 23  1  0
 23 24  2  0
 24 25  1  0
 25 26  2  0
 26 27  1  0
 27 28  2  0
 28 29  1  0
 29 30  2  0
 29 31  1  0
 27 32  1  0
 32 33  1  0
 33 34  1  0
 11  6  1  0
 21 16  1  0
 28 23  1  0
 34 26  1  0
  1 35  1  0
  1 36  1  0
  2 37  1  0
  3 38  1  0
  3 39  1  0
  4 40  1  6
  5 41  1  0
  5 42  1  0
  7 43  1  0
  8 44  1  0
  9 45  1  0
 10 46  1  0
 14 47  1  0
 15 48  1  0
 15 49  1  0
 17 50  1  0
 18 51  1  0
 19 52  1  0
 20 53  1  0
 21 54  1  0
 22 55  1  0
 22 56  1  0
 24 57  1  0
 25 58  1  0
 33 59  1  0
 33 60  1  0
M  CHG  2   4   1  31  -1
M  END
>  <meeko>  (2) 
{"is_sidechain": [false], "free_energy": -7.95, "intermolecular_energy": -11.699, "internal_energy": -3.238}

$$$$
3zsx_ligand
     RDKit          3D

 60 63  0  0  0  0  0  0  0  0999 V2000
  -15.1630    2.3190   -3.2330 C   0  0  0  0  0  0  0  0  0  0  0  0
  -16.3640    2.3530   -3.8280 C   0  0  0  0  0  0  0  0  0  0  0  0
  -17.0740    3.6010   -4.2610 C   0  0  0  0  0  0  0  0  0  0  0  0
  -17.0660    3.8500   -5.7240 N   0  0  2  0  0  0  0  0  0  0  0  0
  -18.3560    4.1820   -6.4100 C   0  0  0  0  0  0  0  0  0  0  0  0
  -18.3550    5.3110   -7.4140 C   0  0  0  0  0  0  0  0  0  0  0  0
  -17.8250    6.5570   -7.0180 C   0  0  0  0  0  0  0  0  0  0  0  0
  -17.7780    7.6390   -7.8990 C   0  0  0  0  0  0  0  0  0  0  0  0
  -18.2510    7.4980   -9.1990 C   0  0  0  0  0  0  0  0  0  0  0  0
  -18.7790    6.2790   -9.6160 C   0  0  0  0  0  0  0  0  0  0  0  0
  -18.8470    5.1900   -8.7280 C   0  0  0  0  0  0  0  0  0  0  0  0
  -19.4150    3.9120   -9.2230 C   0  0  0  0  0  0  0  0  0  0  0  0
  -18.7710    3.2090   -9.9900 O   0  0  0  0  0  0  0  0  0  0  0  0
  -20.6560    3.5790   -8.7310 N   0  0  0  0  0  0  0  0  0  0  0  0
  -21.4280    2.4850   -9.2790 C   0  0  0  0  0  0  0  0  0  0  0  0
  -21.9640    1.6200   -8.1700 C   0  0  0  0  0  0  0  0  0  0  0  0
  -21.5140    1.8020   -6.8540 C   0  0  0  0  0  0  0  0  0  0  0  0
  -21.9840    0.9860   -5.8250 C   0  0  0  0  0  0  0  0  0  0  0  0
  -22.9040   -0.0240   -6.1020 C   0  0  0  0  0  0  0  0  0  0  0  0
  -23.3530   -0.2190   -7.4060 C   0  0  0  0  0  0  0  0  0  0  0  0
  -22.8830    0.5950   -8.4380 C   0  0  0  0  0  0  0  0  0  0  0  0
  -16.0680    3.1030   -6.5630 C   0  0  0  0  0  0  0  0  0  0  0  0
  -15.2580    3.9570   -7.5250 C   0  0  0  0  0  0  0  0  0  0  0  0
  -15.4810    3.8310   -8.9190 C   0  0  0  0  0  0  0  0  0  0  0  0
  -14.7710    4.6130   -9.8330 C   0  0  0  0  0  0  0  0  0  0  0  0
  -13.8530    5.5110   -9.3350 C   0  0  0  0  0  0  0  0  0  0  0  0
  -13.6220    5.6550   -7.9850 C   0  0  0  0  0  0  0  0  0  0  0  0
  -14.3090    4.9040   -7.0460 C   0  0  0  0  0  0  0  0  0  0  0  0
  -14.0560    5.0710   -5.5820 C   0  0  0  0  0  0  0  0  0  0  0  0
  -13.1150    4.3370   -5.1220 O   0  0  0  0  0  0  0  0  0  0  0  0
  -14.8360    5.7950   -4.9100 O   0  0  0  0  0  0  0  0  0  0  0  0
  -12.6460    6.5720   -7.7400 O   0  0  0  0  0  0  0  0  0  0  0  0
  -12.3610    7.0480   -9.0650 C   0  0  0  0  0  0  0  0  0  0  0  0
  -13.0780    6.3340  -10.0930 O   0  0  0  0  0  0  0  0  0  0  0  0
  -14.7170    1.3544   -2.9490 H   0  0  0  0  0  0  0  0  0  0  0  0
  -14.6237    3.2557   -3.0288 H   0  0  0  0  0  0  0  0  0  0  0  0
  -16.8669    1.3923   -4.0126 H   0  0  0  0  0  0  0  0  0  0  0  0
  -18.1214    3.5295   -3.9325 H   0  0  0  0  0  0  0  0  0  0  0  0
  -16.5296    4.4399   -3.8028 H   0  0  0  0  0  0  0  0  0  0  0  0
  -16.6200    4.8060   -5.7490 H   0  0  0  0  0  0  0  0  0  0  0  0
  -18.6889    3.2757   -6.9371 H   0  0  0  0  0  0  0  0  0  0  0  0
  -19.0145    4.5333   -5.6020 H   0  0  0  0  0  0  0  0  0  0  0  0
  -17.4410    6.6785   -5.9944 H   0  0  0  0  0  0  0  0  0  0  0  0
  -17.3668    8.6030   -7.5648 H   0  0  0  0  0  0  0  0  0  0  0  0
  -18.2081    8.3476   -9.8964 H   0  0  0  0  0  0  0  0  0  0  0  0
  -19.1455    6.1667  -10.6470 H   0  0  0  0  0  0  0  0  0  0  0  0
  -21.1440    4.2230   -8.1240 H   0  0  0  0  0  0  0  0  0  0  0  0
  -22.2681    2.8897   -9.8625 H   0  0  0  0  0  0  0  0  0  0  0  0
  -20.7792    1.8770   -9.9266 H   0  0  0  0  0  0  0  0  0  0  0  0
  -20.7845    2.5947   -6.6316 H   0  0  0  0  0  0  0  0  0  0  0  0
  -21.6288    1.1394   -4.7953 H   0  0  0  0  0  0  0  0  0  0  0  0
  -23.2755   -0.6671   -5.2906 H   0  0  0  0  0  0  0  0  0  0  0  0
  -24.0794   -1.0160   -7.6230 H   0  0  0  0  0  0  0  0  0  0  0  0
  -23.2354    0.4316   -9.4671 H   0  0  0  0  0  0  0  0  0  0  0  0
  -15.3657    2.5963   -5.8848 H   0  0  0  0  0  0  0  0  0  0  0  0
  -16.6531    2.4127   -7.1884 H   0  0  0  0  0  0  0  0  0  0  0  0
  -16.2236    3.1073   -9.2862 H   0  0  0  0  0  0  0  0  0  0  0  0
  -14.9396    4.5148  -10.9156 H   0  0  0  0  0  0  0  0  0  0  0  0
  -12.6367    8.1114   -9.1210 H   0  0  0  0  0  0  0  0  0  0  0  0
  -11.2876    6.8887   -9.2451 H   0  0  0  0  0  0  0  0  0  0  0  0
  1  2  2  0
  2  3  1  0
  3  4  1  0
  4  5  1  0
  5  6  1  0
  6  7  2  0
  7  8  1  0
  8  9  2  0
  9 10  1  0
 10 11  2  0
 11 12  1  0
 12 13  2  0
 12 14  1  0
 14 15  1  0
 15 16  1  0
 16 17  2  0
 17 18  1  0
 18 19  2  0
 19 20  1  0
 20 21  2  0
  4 22  1  0
 22 23  1  0
 23 24  2  0
 24 25  1  0
 25 26  2  0
 26 27  1  0
 27 28  2  0
 28 29  1  0
 29 30  2  0
 29 31  1  0
 27 32  1  0
 32 33  1  0
 33 34  1  0
 11  6  1  0
 21 16  1  0
 28 23  1  0
 34 26  1  0
  1 35  1  0
  1 36  1  0
  2 37  1  0
  3 38  1  0
  3 39  1  0
  4 40  1  1
  5 41  1  0
  5 42  1  0
  7 43  1  0
  8 44  1  0
  9 45  1  0
 10 46  1  0
 14 47  1  0
 15 48  1  0
 15 49  1  0
 17 50  1  0
 18 51  1  0
 19 52  1  0
 20 53  1  0
 21 54  1  0
 22 55  1  0
 22 56  1  0
 24 57  1  0
 25 58  1  0
 33 59  1  0
 33 60  1  0
M  CHG  2   4   1  31  -1
M  END
>  <meeko>  (3) 
{"is_sidechain": [false], "free_energy": -7.682, "intermolecular_energy": -11.979, "internal_energy": -2.533}

$$$$
3zsx_ligand
     RDKit          3D

 60 63  0  0  0  0  0  0  0  0999 V2000
  -15.1100    1.5770   -3.6310 C   0  0  0  0  0  0  0  0  0  0  0  0
  -16.2910    1.6720   -4.2570 C   0  0  0  0  0  0  0  0  0  0  0  0
  -16.5180    2.3700   -5.5650 C   0  0  0  0  0  0  0  0  0  0  0  0
  -17.0860    3.7360   -5.4550 N   0  0  2  0  0  0  0  0  0  0  0  0
  -16.1810    4.8690   -5.0760 C   0  0  0  0  0  0  0  0  0  0  0  0
  -14.8210    4.9410   -5.7320 C   0  0  0  0  0  0  0  0  0  0  0  0
  -13.6800    4.7180   -4.9320 C   0  0  0  0  0  0  0  0  0  0  0  0
  -12.3950    4.7540   -5.4750 C   0  0  0  0  0  0  0  0  0  0  0  0
  -12.2190    5.0020   -6.8330 C   0  0  0  0  0  0  0  0  0  0  0  0
  -13.3290    5.2250   -7.6450 C   0  0  0  0  0  0  0  0  0  0  0  0
  -14.6260    5.2090   -7.1010 C   0  0  0  0  0  0  0  0  0  0  0  0
  -15.7740    5.4490   -8.0110 C   0  0  0  0  0  0  0  0  0  0  0  0
  -16.3740    4.5040   -8.5040 O   0  0  0  0  0  0  0  0  0  0  0  0
  -16.1160    6.7670   -8.2060 N   0  0  0  0  0  0  0  0  0  0  0  0
  -17.0620    7.1680   -9.2240 C   0  0  0  0  0  0  0  0  0  0  0  0
  -18.3780    7.5420   -8.5940 C   0  0  0  0  0  0  0  0  0  0  0  0
  -18.4290    7.9210   -7.2440 C   0  0  0  0  0  0  0  0  0  0  0  0
  -19.6470    8.2420   -6.6440 C   0  0  0  0  0  0  0  0  0  0  0  0
  -20.8260    8.1820   -7.3860 C   0  0  0  0  0  0  0  0  0  0  0  0
  -20.7880    7.7990   -8.7250 C   0  0  0  0  0  0  0  0  0  0  0  0
  -19.5710    7.4760   -9.3280 C   0  0  0  0  0  0  0  0  0  0  0  0
  -18.5110    3.8760   -5.0010 C   0  0  0  0  0  0  0  0  0  0  0  0
  -19.5630    3.5520   -6.0490 C   0  0  0  0  0  0  0  0  0  0  0  0
  -19.6480    4.3510   -7.2160 C   0  0  0  0  0  0  0  0  0  0  0  0
  -20.5870    4.0720   -8.2120 C   0  0  0  0  0  0  0  0  0  0  0  0
  -21.4230    2.9940   -8.0220 C   0  0  0  0  0  0  0  0  0  0  0  0
  -21.3570    2.2000   -6.8990 C   0  0  0  0  0  0  0  0  0  0  0  0
  -20.4370    2.4380   -5.8930 C   0  0  0  0  0  0  0  0  0  0  0  0
  -20.3690    1.5670   -4.6800 C   0  0  0  0  0  0  0  0  0  0  0  0
  -19.6450    0.5220   -4.8210 O   0  0  0  0  0  0  0  0  0  0  0  0
  -21.0980    1.8440   -3.6920 O   0  0  0  0  0  0  0  0  0  0  0  0
  -22.3080    1.2250   -6.9210 O   0  0  0  0  0  0  0  0  0  0  0  0
  -22.9060    1.4360   -8.2090 C   0  0  0  0  0  0  0  0  0  0  0  0
  -22.3950    2.6000   -8.8910 O   0  0  0  0  0  0  0  0  0  0  0  0
  -15.0374    1.0440   -2.6715 H   0  0  0  0  0  0  0  0  0  0  0  0
  -14.2131    2.0320   -4.0766 H   0  0  0  0  0  0  0  0  0  0  0  0
  -17.1607    1.2020   -3.7746 H   0  0  0  0  0  0  0  0  0  0  0  0
  -15.5516    2.4429   -6.0854 H   0  0  0  0  0  0  0  0  0  0  0  0
  -17.2621    1.7699   -6.1092 H   0  0  0  0  0  0  0  0  0  0  0  0
  -17.2140    3.9690   -6.4760 H   0  0  0  0  0  0  0  0  0  0  0  0
  -16.7094    5.8037   -5.3151 H   0  0  0  0  0  0  0  0  0  0  0  0
  -15.9636    4.7024   -4.0106 H   0  0  0  0  0  0  0  0  0  0  0  0
  -13.8061    4.5117   -3.8589 H   0  0  0  0  0  0  0  0  0  0  0  0
  -11.5205    4.5862   -4.8291 H   0  0  0  0  0  0  0  0  0  0  0  0
  -11.2071    5.0219   -7.2638 H   0  0  0  0  0  0  0  0  0  0  0  0
  -13.1900    5.4150   -8.7195 H   0  0  0  0  0  0  0  0  0  0  0  0
  -15.5540    7.4980   -7.7920 H   0  0  0  0  0  0  0  0  0  0  0  0
  -16.6617    8.0346   -9.7706 H   0  0  0  0  0  0  0  0  0  0  0  0
  -17.2216    6.3280   -9.9160 H   0  0  0  0  0  0  0  0  0  0  0  0
  -17.5016    7.9654   -6.6542 H   0  0  0  0  0  0  0  0  0  0  0  0
  -19.6772    8.5422   -5.5862 H   0  0  0  0  0  0  0  0  0  0  0  0
  -21.7863    8.4371   -6.9141 H   0  0  0  0  0  0  0  0  0  0  0  0
  -21.7192    7.7510   -9.3085 H   0  0  0  0  0  0  0  0  0  0  0  0
  -19.5478    7.1683  -10.3838 H   0  0  0  0  0  0  0  0  0  0  0  0
  -18.6632    3.1999   -4.1468 H   0  0  0  0  0  0  0  0  0  0  0  0
  -18.6473    4.9389   -4.7526 H   0  0  0  0  0  0  0  0  0  0  0  0
  -18.9643    5.2038   -7.3396 H   0  0  0  0  0  0  0  0  0  0  0  0
  -20.6564    4.6925   -9.1177 H   0  0  0  0  0  0  0  0  0  0  0  0
  -22.7112    0.5517   -8.8336 H   0  0  0  0  0  0  0  0  0  0  0  0
  -23.9816    1.5994   -8.0463 H   0  0  0  0  0  0  0  0  0  0  0  0
  1  2  2  0
  2  3  1  0
  3  4  1  0
  4  5  1  0
  5  6  1  0
  6  7  2  0
  7  8  1  0
  8  9  2  0
  9 10  1  0
 10 11  2  0
 11 12  1  0
 12 13  2  0
 12 14  1  0
 14 15  1  0
 15 16  1  0
 16 17  2  0
 17 18  1  0
 18 19  2  0
 19 20  1  0
 20 21  2  0
  4 22  1  0
 22 23  1  0
 23 24  2  0
 24 25  1  0
 25 26  2  0
 26 27  1  0
 27 28  2  0
 28 29  1  0
 29 30  2  0
 29 31  1  0
 27 32  1  0
 32 33  1  0
 33 34  1  0
 11  6  1  0
 21 16  1  0
 28 23  1  0
 34 26  1  0
  1 35  1  0
  1 36  1  0
  2 37  1  0
  3 38  1  0
  3 39  1  0
  4 40  1  6
  5 41  1  0
  5 42  1  0
  7 43  1  0
  8 44  1  0
  9 45  1  0
 10 46  1  0
 14 47  1  0
 15 48  1  0
 15 49  1  0
 17 50  1  0
 18 51  1  0
 19 52  1  0
 20 53  1  0
 21 54  1  0
 22 55  1  0
 22 56  1  0
 24 57  1  0
 25 58  1  0
 33 59  1  0
 33 60  1  0
M  CHG  2   4   1  31  -1
M  END
>  <meeko>  (4) 
{"is_sidechain": [false], "free_energy": -7.669, "intermolecular_energy": -11.142, "internal_energy": -3.35}

$$$$
3zsx_ligand
     RDKit          3D

 60 63  0  0  0  0  0  0  0  0999 V2000
  -14.8480    2.2120   -2.8940 C   0  0  0  0  0  0  0  0  0  0  0  0
  -15.5470    1.6830   -3.9080 C   0  0  0  0  0  0  0  0  0  0  0  0
  -15.7530    2.3330   -5.2440 C   0  0  0  0  0  0  0  0  0  0  0  0
  -16.7520    3.4290   -5.2590 N   0  0  2  0  0  0  0  0  0  0  0  0
  -18.0440    3.2220   -5.9880 C   0  0  0  0  0  0  0  0  0  0  0  0
  -19.3280    3.5550   -5.2650 C   0  0  0  0  0  0  0  0  0  0  0  0
  -19.6470    2.8250   -4.1000 C   0  0  0  0  0  0  0  0  0  0  0  0
  -20.8100    3.0900   -3.3730 C   0  0  0  0  0  0  0  0  0  0  0  0
  -21.6750    4.0970   -3.7870 C   0  0  0  0  0  0  0  0  0  0  0  0
  -21.3830    4.8330   -4.9330 C   0  0  0  0  0  0  0  0  0  0  0  0
  -20.2240    4.5590   -5.6820 C   0  0  0  0  0  0  0  0  0  0  0  0
  -19.9580    5.3740   -6.8920 C   0  0  0  0  0  0  0  0  0  0  0  0
  -19.7400    6.5730   -6.7900 O   0  0  0  0  0  0  0  0  0  0  0  0
  -19.9350    4.6860   -8.0830 N   0  0  0  0  0  0  0  0  0  0  0  0
  -19.9060    5.3660   -9.3590 C   0  0  0  0  0  0  0  0  0  0  0  0
  -19.9410    4.3650  -10.4830 C   0  0  0  0  0  0  0  0  0  0  0  0
  -19.9350    2.9910  -10.2030 C   0  0  0  0  0  0  0  0  0  0  0  0
  -19.9390    2.0560  -11.2390 C   0  0  0  0  0  0  0  0  0  0  0  0
  -19.9450    2.4860  -12.5650 C   0  0  0  0  0  0  0  0  0  0  0  0
  -19.9440    3.8490  -12.8560 C   0  0  0  0  0  0  0  0  0  0  0  0
  -19.9380    4.7860  -11.8210 C   0  0  0  0  0  0  0  0  0  0  0  0
  -16.2490    4.8450   -5.2360 C   0  0  0  0  0  0  0  0  0  0  0  0
  -14.9340    5.0810   -5.9610 C   0  0  0  0  0  0  0  0  0  0  0  0
  -13.7150    4.9000   -5.2620 C   0  0  0  0  0  0  0  0  0  0  0  0
  -12.4860    5.0860   -5.8990 C   0  0  0  0  0  0  0  0  0  0  0  0
  -12.5000    5.4480   -7.2290 C   0  0  0  0  0  0  0  0  0  0  0  0
  -13.6720    5.6260   -7.9310 C   0  0  0  0  0  0  0  0  0  0  0  0
  -14.9090    5.4440   -7.3370 C   0  0  0  0  0  0  0  0  0  0  0  0
  -16.1760    5.6330   -8.1090 C   0  0  0  0  0  0  0  0  0  0  0  0
  -16.7030    6.7920   -7.9820 O   0  0  0  0  0  0  0  0  0  0  0  0
  -16.6800    4.6440   -8.7010 O   0  0  0  0  0  0  0  0  0  0  0  0
  -13.4310    6.0180   -9.2120 O   0  0  0  0  0  0  0  0  0  0  0  0
  -11.9970    5.9760   -9.2610 C   0  0  0  0  0  0  0  0  0  0  0  0
  -11.3920    5.6770   -7.9860 O   0  0  0  0  0  0  0  0  0  0  0  0
  -14.7500    1.6609   -1.9471 H   0  0  0  0  0  0  0  0  0  0  0  0
  -14.3724    3.1972   -3.0088 H   0  0  0  0  0  0  0  0  0  0  0  0
  -16.0050    0.6958   -3.7480 H   0  0  0  0  0  0  0  0  0  0  0  0
  -14.7886    2.7454   -5.5754 H   0  0  0  0  0  0  0  0  0  0  0  0
  -16.1446    1.5502   -5.9103 H   0  0  0  0  0  0  0  0  0  0  0  0
  -17.1150    3.3670   -4.2700 H   0  0  0  0  0  0  0  0  0  0  0  0
  -18.0099    3.8417   -6.8962 H   0  0  0  0  0  0  0  0  0  0  0  0
  -18.0954    2.1356   -6.1525 H   0  0  0  0  0  0  0  0  0  0  0  0
  -18.9663    2.0316   -3.7577 H   0  0  0  0  0  0  0  0  0  0  0  0
  -21.0416    2.5019   -2.4727 H   0  0  0  0  0  0  0  0  0  0  0  0
  -22.5873    4.3118   -3.2111 H   0  0  0  0  0  0  0  0  0  0  0  0
  -22.0639    5.6347   -5.2549 H   0  0  0  0  0  0  0  0  0  0  0  0
  -20.1560    3.6990   -8.0970 H   0  0  0  0  0  0  0  0  0  0  0  0
  -20.7795    6.0301   -9.4367 H   0  0  0  0  0  0  0  0  0  0  0  0
  -18.9792    5.9541   -9.4311 H   0  0  0  0  0  0  0  0  0  0  0  0
  -19.9271    2.6473   -9.1581 H   0  0  0  0  0  0  0  0  0  0  0  0
  -19.9374    0.9802  -11.0094 H   0  0  0  0  0  0  0  0  0  0  0  0
  -19.9505    1.7494  -13.3819 H   0  0  0  0  0  0  0  0  0  0  0  0
  -19.9479    4.1870  -13.9028 H   0  0  0  0  0  0  0  0  0  0  0  0
  -19.9309    5.8605  -12.0562 H   0  0  0  0  0  0  0  0  0  0  0  0
  -17.0132    5.4843   -5.7022 H   0  0  0  0  0  0  0  0  0  0  0  0
  -16.0594    5.0824   -4.1788 H   0  0  0  0  0  0  0  0  0  0  0  0
  -13.7368    4.6086   -4.2015 H   0  0  0  0  0  0  0  0  0  0  0  0
  -11.5385    4.9482   -5.3574 H   0  0  0  0  0  0  0  0  0  0  0  0
  -11.6946    5.2016   -9.9813 H   0  0  0  0  0  0  0  0  0  0  0  0
  -11.6513    6.9767   -9.5595 H   0  0  0  0  0  0  0  0  0  0  0  0
  1  2  2  0
  2  3  1  0
  3  4  1  0
  4  5  1  0
  5  6  1  0
  6  7  2  0
  7  8  1  0
  8  9  2  0
  9 10  1  0
 10 11  2  0
 11 12  1  0
 12 13  2  0
 12 14  1  0
 14 15  1  0
 15 16  1  0
 16 17  2  0
 17 18  1  0
 18 19  2  0
 19 20  1  0
 20 21  2  0
  4 22  1  0
 22 23  1  0
 23 24  2  0
 24 25  1  0
 25 26  2  0
 26 27  1  0
 27 28  2  0
 28 29  1  0
 29 30  2  0
 29 31  1  0
 27 32  1  0
 32 33  1  0
 33 34  1  0
 11  6  1  0
 21 16  1  0
 28 23  1  0
 34 26  1  0
  1 35  1  0
  1 36  1  0
  2 37  1  0
  3 38  1  0
  3 39  1  0
  4 40  1  1
  5 41  1  0
  5 42  1  0
  7 43  1  0
  8 44  1  0
  9 45  1  0
 10 46  1  0
 14 47  1  0
 15 48  1  0
 15 49  1  0
 17 50  1  0
 18 51  1  0
 19 52  1  0
 20 53  1  0
 21 54  1  0
 22 55  1  0
 22 56  1  0
 24 57  1  0
 25 58  1  0
 33 59  1  0
 33 60  1  0
M  CHG  2   4   1  31  -1
M  END
>  <meeko>  (5) 
{"is_sidechain": [false], "free_energy": -7.624, "intermolecular_energy": -12.321, "internal_energy": -2.1}

$$$$
3zsx_ligand
     RDKit          3D

 60 63  0  0  0  0  0  0  0  0999 V2000
  -15.1270    2.1380   -3.2760 C   0  0  0  0  0  0  0  0  0  0  0  0
  -16.2690    2.1410   -3.9780 C   0  0  0  0  0  0  0  0  0  0  0  0
  -17.0720    3.3630   -4.3120 C   0  0  0  0  0  0  0  0  0  0  0  0
  -17.1240    3.7030   -5.7550 N   0  0  2  0  0  0  0  0  0  0  0  0
  -18.4440    4.0590   -6.3680 C   0  0  0  0  0  0  0  0  0  0  0  0
  -18.5200    5.3100   -7.2120 C   0  0  0  0  0  0  0  0  0  0  0  0
  -17.8300    6.4590   -6.7690 C   0  0  0  0  0  0  0  0  0  0  0  0
  -17.8430    7.6440   -7.5070 C   0  0  0  0  0  0  0  0  0  0  0  0
  -18.5380    7.7050   -8.7110 C   0  0  0  0  0  0  0  0  0  0  0  0
  -19.2260    6.5860   -9.1720 C   0  0  0  0  0  0  0  0  0  0  0  0
  -19.2330    5.3940   -8.4240 C   0  0  0  0  0  0  0  0  0  0  0  0
  -19.9800    4.2300   -8.9610 C   0  0  0  0  0  0  0  0  0  0  0  0
  -21.0190    3.8680   -8.4280 O   0  0  0  0  0  0  0  0  0  0  0  0
  -19.4480    3.6480  -10.0880 N   0  0  0  0  0  0  0  0  0  0  0  0
  -19.9350    2.3840  -10.5980 C   0  0  0  0  0  0  0  0  0  0  0  0
  -19.9330    2.3960  -12.1040 C   0  0  0  0  0  0  0  0  0  0  0  0
  -19.8000    1.1950  -12.8170 C   0  0  0  0  0  0  0  0  0  0  0  0
  -19.7690    1.1990  -14.2120 C   0  0  0  0  0  0  0  0  0  0  0  0
  -19.8650    2.4030  -14.9070 C   0  0  0  0  0  0  0  0  0  0  0  0
  -19.9890    3.6030  -14.2090 C   0  0  0  0  0  0  0  0  0  0  0  0
  -20.0190    3.6020  -12.8130 C   0  0  0  0  0  0  0  0  0  0  0  0
  -16.1520    3.0240   -6.6780 C   0  0  0  0  0  0  0  0  0  0  0  0
  -15.3500    3.9520   -7.5760 C   0  0  0  0  0  0  0  0  0  0  0  0
  -15.6120    3.9640   -8.9690 C   0  0  0  0  0  0  0  0  0  0  0  0
  -14.9120    4.8180   -9.8240 C   0  0  0  0  0  0  0  0  0  0  0  0
  -13.9630    5.6480   -9.2680 C   0  0  0  0  0  0  0  0  0  0  0  0
  -13.6940    5.6570   -7.9180 C   0  0  0  0  0  0  0  0  0  0  0  0
  -14.3700    4.8320   -7.0360 C   0  0  0  0  0  0  0  0  0  0  0  0
  -14.0760    4.8530   -5.5700 C   0  0  0  0  0  0  0  0  0  0  0  0
  -14.7940    5.6700   -4.8990 O   0  0  0  0  0  0  0  0  0  0  0  0
  -13.0970    4.1890   -5.1380 O   0  0  0  0  0  0  0  0  0  0  0  0
  -12.6930    6.5290   -7.6140 O   0  0  0  0  0  0  0  0  0  0  0  0
  -12.4340    7.1250   -8.8940 C   0  0  0  0  0  0  0  0  0  0  0  0
  -13.1910    6.5260   -9.9650 O   0  0  0  0  0  0  0  0  0  0  0  0
  -14.6050    1.1900   -3.0790 H   0  0  0  0  0  0  0  0  0  0  0  0
  -14.7119    3.0835   -2.8970 H   0  0  0  0  0  0  0  0  0  0  0  0
  -16.6465    1.1721   -4.3369 H   0  0  0  0  0  0  0  0  0  0  0  0
  -18.1022    3.2007   -3.9622 H   0  0  0  0  0  0  0  0  0  0  0  0
  -16.5702    4.2063   -3.8150 H   0  0  0  0  0  0  0  0  0  0  0  0
  -16.6910    4.6650   -5.7380 H   0  0  0  0  0  0  0  0  0  0  0  0
  -18.7466    3.2153   -7.0057 H   0  0  0  0  0  0  0  0  0  0  0  0
  -19.0986    4.2671   -5.5088 H   0  0  0  0  0  0  0  0  0  0  0  0
  -17.2705    6.4199   -5.8227 H   0  0  0  0  0  0  0  0  0  0  0  0
  -17.3043    8.5288   -7.1370 H   0  0  0  0  0  0  0  0  0  0  0  0
  -18.5438    8.6357   -9.2974 H   0  0  0  0  0  0  0  0  0  0  0  0
  -19.7681    6.6339  -10.1279 H   0  0  0  0  0  0  0  0  0  0  0  0
  -18.5670    3.9800  -10.4570 H   0  0  0  0  0  0  0  0  0  0  0  0
  -19.2841    1.5726  -10.2401 H   0  0  0  0  0  0  0  0  0  0  0  0
  -20.9634    2.2251  -10.2414 H   0  0  0  0  0  0  0  0  0  0  0  0
  -19.7195    0.2429  -12.2721 H   0  0  0  0  0  0  0  0  0  0  0  0
  -19.6688    0.2522  -14.7629 H   0  0  0  0  0  0  0  0  0  0  0  0
  -19.8429    2.4063  -16.0068 H   0  0  0  0  0  0  0  0  0  0  0  0
  -20.0634    4.5527  -14.7590 H   0  0  0  0  0  0  0  0  0  0  0  0
  -20.1106    4.5525  -12.2669 H   0  0  0  0  0  0  0  0  0  0  0  0
  -15.4431    2.4507   -6.0625 H   0  0  0  0  0  0  0  0  0  0  0  0
  -16.7580    2.3995   -7.3508 H   0  0  0  0  0  0  0  0  0  0  0  0
  -16.3776    3.2910   -9.3825 H   0  0  0  0  0  0  0  0  0  0  0  0
  -15.1117    4.8277  -10.9057 H   0  0  0  0  0  0  0  0  0  0  0  0
  -12.6904    8.1934   -8.8401 H   0  0  0  0  0  0  0  0  0  0  0  0
  -11.3690    6.9655   -9.1185 H   0  0  0  0  0  0  0  0  0  0  0  0
  1  2  2  0
  2  3  1  0
  3  4  1  0
  4  5  1  0
  5  6  1  0
  6  7  2  0
  7  8  1  0
  8  9  2  0
  9 10  1  0
 10 11  2  0
 11 12  1  0
 12 13  2  0
 12 14  1  0
 14 15  1  0
 15 16  1  0
 16 17  2  0
 17 18  1  0
 18 19  2  0
 19 20  1  0
 20 21  2  0
  4 22  1  0
 22 23  1  0
 23 24  2  0
 24 25  1  0
 25 26  2  0
 26 27  1  0
 27 28  2  0
 28 29  1  0
 29 30  2  0
 29 31  1  0
 27 32  1  0
 32 33  1  0
 33 34  1  0
 11  6  1  0
 21 16  1  0
 28 23  1  0
 34 26  1  0
  1 35  1  0
  1 36  1  0
  2 37  1  0
  3 38  1  0
  3 39  1  0
  4 40  1  1
  5 41  1  0
  5 42  1  0
  7 43  1  0
  8 44  1  0
  9 45  1  0
 10 46  1  0
 14 47  1  0
 15 48  1  0
 15 49  1  0
 17 50  1  0
 18 51  1  0
 19 52  1  0
 20 53  1  0
 21 54  1  0
 22 55  1  0
 22 56  1  0
 24 57  1  0
 25 58  1  0
 33 59  1  0
 33 60  1  0
M  CHG  2   4   1  31  -1
M  END
>  <meeko>  (6) 
{"is_sidechain": [false], "free_energy": -7.603, "intermolecular_energy": -11.837, "internal_energy": -2.55}

$$$$
3zsx_ligand
     RDKit          3D

 60 63  0  0  0  0  0  0  0  0999 V2000
  -15.1070    2.1280   -3.3200 C   0  0  0  0  0  0  0  0  0  0  0  0
  -16.1610    2.4000   -4.1030 C   0  0  0  0  0  0  0  0  0  0  0  0
  -16.8040    3.7470   -4.2440 C   0  0  0  0  0  0  0  0  0  0  0  0
  -16.5670    4.4200   -5.5450 N   0  0  2  0  0  0  0  0  0  0  0  0
  -17.4550    5.5590   -5.9440 C   0  0  0  0  0  0  0  0  0  0  0  0
  -18.3520    5.3740   -7.1460 C   0  0  0  0  0  0  0  0  0  0  0  0
  -18.0440    6.0850   -8.3250 C   0  0  0  0  0  0  0  0  0  0  0  0
  -18.8200    5.9490   -9.4780 C   0  0  0  0  0  0  0  0  0  0  0  0
  -19.9150    5.0920   -9.4820 C   0  0  0  0  0  0  0  0  0  0  0  0
  -20.2410    4.3770   -8.3320 C   0  0  0  0  0  0  0  0  0  0  0  0
  -19.4750    4.5230   -7.1610 C   0  0  0  0  0  0  0  0  0  0  0  0
  -19.8620    3.7370   -5.9640 C   0  0  0  0  0  0  0  0  0  0  0  0
  -20.4070    4.2880   -5.0170 O   0  0  0  0  0  0  0  0  0  0  0  0
  -19.6080    2.3870   -6.0280 N   0  0  0  0  0  0  0  0  0  0  0  0
  -19.7270    1.5300   -4.8680 C   0  0  0  0  0  0  0  0  0  0  0  0
  -21.0540    0.8190   -4.8800 C   0  0  0  0  0  0  0  0  0  0  0  0
  -21.5420    0.2170   -3.7120 C   0  0  0  0  0  0  0  0  0  0  0  0
  -22.7570   -0.4680   -3.7210 C   0  0  0  0  0  0  0  0  0  0  0  0
  -23.4950   -0.5620   -4.9000 C   0  0  0  0  0  0  0  0  0  0  0  0
  -23.0170    0.0260   -6.0690 C   0  0  0  0  0  0  0  0  0  0  0  0
  -21.8000    0.7110   -6.0630 C   0  0  0  0  0  0  0  0  0  0  0  0
  -16.0350    3.5950   -6.6820 C   0  0  0  0  0  0  0  0  0  0  0  0
  -15.0520    4.3060   -7.5990 C   0  0  0  0  0  0  0  0  0  0  0  0
  -15.2910    4.3170   -8.9950 C   0  0  0  0  0  0  0  0  0  0  0  0
  -14.4230    4.9780   -9.8680 C   0  0  0  0  0  0  0  0  0  0  0  0
  -13.3310    5.6190   -9.3240 C   0  0  0  0  0  0  0  0  0  0  0  0
  -13.0800    5.6250   -7.9700 C   0  0  0  0  0  0  0  0  0  0  0  0
  -13.9190    4.9890   -7.0720 C   0  0  0  0  0  0  0  0  0  0  0  0
  -13.6420    5.0060   -5.6030 C   0  0  0  0  0  0  0  0  0  0  0  0
  -12.9010    4.0470   -5.1950 O   0  0  0  0  0  0  0  0  0  0  0  0
  -14.2340    5.8520   -4.8830 O   0  0  0  0  0  0  0  0  0  0  0  0
  -11.9260    6.2880   -7.6800 O   0  0  0  0  0  0  0  0  0  0  0  0
  -11.5380    6.7700   -8.9760 C   0  0  0  0  0  0  0  0  0  0  0  0
  -12.3900    6.2950  -10.0380 O   0  0  0  0  0  0  0  0  0  0  0  0
  -14.7009    1.1065   -3.2796 H   0  0  0  0  0  0  0  0  0  0  0  0
  -14.6485    2.9264   -2.7180 H   0  0  0  0  0  0  0  0  0  0  0  0
  -16.5868    1.5708   -4.6870 H   0  0  0  0  0  0  0  0  0  0  0  0
  -17.8895    3.6224   -4.1166 H   0  0  0  0  0  0  0  0  0  0  0  0
  -16.3461    4.3889   -3.4770 H   0  0  0  0  0  0  0  0  0  0  0  0
  -15.6960    4.9690   -5.3180 H   0  0  0  0  0  0  0  0  0  0  0  0
  -18.1031    5.7848   -5.0843 H   0  0  0  0  0  0  0  0  0  0  0  0
  -16.7594    6.3575   -6.2416 H   0  0  0  0  0  0  0  0  0  0  0  0
  -17.1754    6.7598   -8.3362 H   0  0  0  0  0  0  0  0  0  0  0  0
  -18.5650    6.5198  -10.3831 H   0  0  0  0  0  0  0  0  0  0  0  0
  -20.5228    4.9789  -10.3919 H   0  0  0  0  0  0  0  0  0  0  0  0
  -21.1030    3.6937   -8.3394 H   0  0  0  0  0  0  0  0  0  0  0  0
  -19.1250    2.0040   -6.8300 H   0  0  0  0  0  0  0  0  0  0  0  0
  -18.9164    0.7865   -4.8810 H   0  0  0  0  0  0  0  0  0  0  0  0
  -19.6580    2.1454   -3.9589 H   0  0  0  0  0  0  0  0  0  0  0  0
  -20.9616    0.2854   -2.7801 H   0  0  0  0  0  0  0  0  0  0  0  0
  -23.1328   -0.9339   -2.7981 H   0  0  0  0  0  0  0  0  0  0  0  0
  -24.4543   -1.1002   -4.9072 H   0  0  0  0  0  0  0  0  0  0  0  0
  -23.5996   -0.0494   -6.9990 H   0  0  0  0  0  0  0  0  0  0  0  0
  -21.4246    1.1681   -6.9905 H   0  0  0  0  0  0  0  0  0  0  0  0
  -15.5276    2.7169   -6.2559 H   0  0  0  0  0  0  0  0  0  0  0  0
  -16.9046    3.3428   -7.3067 H   0  0  0  0  0  0  0  0  0  0  0  0
  -16.1729    3.7975   -9.3979 H   0  0  0  0  0  0  0  0  0  0  0  0
  -14.6051    4.9864  -10.9528 H   0  0  0  0  0  0  0  0  0  0  0  0
  -11.5733    7.8694   -8.9649 H   0  0  0  0  0  0  0  0  0  0  0  0
  -10.5250    6.3907   -9.1757 H   0  0  0  0  0  0  0  0  0  0  0  0
  1  2  2  0
  2  3  1  0
  3  4  1  0
  4  5  1  0
  5  6  1  0
  6  7  2  0
  7  8  1  0
  8  9  2  0
  9 10  1  0
 10 11  2  0
 11 12  1  0
 12 13  2  0
 12 14  1  0
 14 15  1  0
 15 16  1  0
 16 17  2  0
 17 18  1  0
 18 19  2  0
 19 20  1  0
 20 21  2  0
  4 22  1  0
 22 23  1  0
 23 24  2  0
 24 25  1  0
 25 26  2  0
 26 27  1  0
 27 28  2  0
 28 29  1  0
 29 30  2  0
 29 31  1  0
 27 32  1  0
 32 33  1  0
 33 34  1  0
 11  6  1  0
 21 16  1  0
 28 23  1  0
 34 26  1  0
  1 35  1  0
  1 36  1  0
  2 37  1  0
  3 38  1  0
  3 39  1  0
  4 40  1  1
  5 41  1  0
  5 42  1  0
  7 43  1  0
  8 44  1  0
  9 45  1  0
 10 46  1  0
 14 47  1  0
 15 48  1  0
 15 49  1  0
 17 50  1  0
 18 51  1  0
 19 52  1  0
 20 53  1  0
 21 54  1  0
 22 55  1  0
 22 56  1  0
 24 57  1  0
 25 58  1  0
 33 59  1  0
 33 60  1  0
M  CHG  2   4   1  31  -1
M  END
>  <meeko>  (7) 
{"is_sidechain": [false], "free_energy": -7.579, "intermolecular_energy": -12.337, "internal_energy": -2.012}

$$$$
3zsx_ligand
     RDKit          3D

 60 63  0  0  0  0  0  0  0  0999 V2000
  -15.0630    2.0130   -3.3460 C   0  0  0  0  0  0  0  0  0  0  0  0
  -16.0280    1.7310   -4.2320 C   0  0  0  0  0  0  0  0  0  0  0  0
  -16.2700    2.4790   -5.5090 C   0  0  0  0  0  0  0  0  0  0  0  0
  -17.0660    3.7230   -5.3650 N   0  0  2  0  0  0  0  0  0  0  0  0
  -16.3550    5.0420   -5.3690 C   0  0  0  0  0  0  0  0  0  0  0  0
  -14.9550    5.0920   -5.9340 C   0  0  0  0  0  0  0  0  0  0  0  0
  -13.8710    4.8870   -5.0530 C   0  0  0  0  0  0  0  0  0  0  0  0
  -12.5520    4.9040   -5.5090 C   0  0  0  0  0  0  0  0  0  0  0  0
  -12.2850    5.1160   -6.8580 C   0  0  0  0  0  0  0  0  0  0  0  0
  -13.3360    5.3210   -7.7480 C   0  0  0  0  0  0  0  0  0  0  0  0
  -14.6670    5.3240   -7.2930 C   0  0  0  0  0  0  0  0  0  0  0  0
  -15.7490    5.5430   -8.2830 C   0  0  0  0  0  0  0  0  0  0  0  0
  -15.9400    4.7280   -9.1750 O   0  0  0  0  0  0  0  0  0  0  0  0
  -16.5150    6.6700   -8.0920 N   0  0  0  0  0  0  0  0  0  0  0  0
  -17.4580    7.1320   -9.0880 C   0  0  0  0  0  0  0  0  0  0  0  0
  -18.6240    7.8130   -8.4230 C   0  0  0  0  0  0  0  0  0  0  0  0
  -19.7520    8.1720   -9.1750 C   0  0  0  0  0  0  0  0  0  0  0  0
  -20.8260    8.8280   -8.5720 C   0  0  0  0  0  0  0  0  0  0  0  0
  -20.7800    9.1370   -7.2140 C   0  0  0  0  0  0  0  0  0  0  0  0
  -19.6620    8.7920   -6.4580 C   0  0  0  0  0  0  0  0  0  0  0  0
  -18.5850    8.1360   -7.0580 C   0  0  0  0  0  0  0  0  0  0  0  0
  -18.3160    3.6710   -4.5340 C   0  0  0  0  0  0  0  0  0  0  0  0
  -19.4180    2.7720   -5.0710 C   0  0  0  0  0  0  0  0  0  0  0  0
  -19.7300    1.5730   -4.3820 C   0  0  0  0  0  0  0  0  0  0  0  0
  -20.7500    0.7310   -4.8320 C   0  0  0  0  0  0  0  0  0  0  0  0
  -21.4430    1.1070   -5.9620 C   0  0  0  0  0  0  0  0  0  0  0  0
  -21.1610    2.2700   -6.6450 C   0  0  0  0  0  0  0  0  0  0  0  0
  -20.1630    3.1340   -6.2280 C   0  0  0  0  0  0  0  0  0  0  0  0
  -19.8680    4.3960   -6.9730 C   0  0  0  0  0  0  0  0  0  0  0  0
  -20.6780    5.3550   -6.7290 O   0  0  0  0  0  0  0  0  0  0  0  0
  -18.9600    4.3880   -7.8450 O   0  0  0  0  0  0  0  0  0  0  0  0
  -21.9500    2.4050   -7.7470 O   0  0  0  0  0  0  0  0  0  0  0  0
  -22.8090    1.2610   -7.6270 C   0  0  0  0  0  0  0  0  0  0  0  0
  -22.4530    0.3940   -6.5300 O   0  0  0  0  0  0  0  0  0  0  0  0
  -14.9604    1.4077   -2.4333 H   0  0  0  0  0  0  0  0  0  0  0  0
  -14.3735    2.8498   -3.5314 H   0  0  0  0  0  0  0  0  0  0  0  0
  -16.6941    0.8855   -4.0050 H   0  0  0  0  0  0  0  0  0  0  0  0
  -15.2932    2.7465   -5.9383 H   0  0  0  0  0  0  0  0  0  0  0  0
  -16.8601    1.8087   -6.1513 H   0  0  0  0  0  0  0  0  0  0  0  0
  -17.5060    3.7760   -6.3230 H   0  0  0  0  0  0  0  0  0  0  0  0
  -16.9689    5.7426   -5.9541 H   0  0  0  0  0  0  0  0  0  0  0  0
  -16.2303    5.2898   -4.3045 H   0  0  0  0  0  0  0  0  0  0  0  0
  -14.0700    4.7103   -3.9857 H   0  0  0  0  0  0  0  0  0  0  0  0
  -11.7236    4.7498   -4.8019 H   0  0  0  0  0  0  0  0  0  0  0  0
  -11.2464    5.1216   -7.2204 H   0  0  0  0  0  0  0  0  0  0  0  0
  -13.1238    5.4819   -8.8153 H   0  0  0  0  0  0  0  0  0  0  0  0
  -16.2800    7.3170   -7.3520 H   0  0  0  0  0  0  0  0  0  0  0  0
  -16.9568    7.8437   -9.7605 H   0  0  0  0  0  0  0  0  0  0  0  0
  -17.8260    6.2687   -9.6618 H   0  0  0  0  0  0  0  0  0  0  0  0
  -19.7905    7.9347  -10.2484 H   0  0  0  0  0  0  0  0  0  0  0  0
  -21.7088    9.1012   -9.1686 H   0  0  0  0  0  0  0  0  0  0  0  0
  -21.6269    9.6536   -6.7388 H   0  0  0  0  0  0  0  0  0  0  0  0
  -19.6274    9.0368   -5.3861 H   0  0  0  0  0  0  0  0  0  0  0  0
  -17.7020    7.8713   -6.4578 H   0  0  0  0  0  0  0  0  0  0  0  0
  -18.0424    3.3108   -3.5313 H   0  0  0  0  0  0  0  0  0  0  0  0
  -18.7269    4.6913   -4.5398 H   0  0  0  0  0  0  0  0  0  0  0  0
  -19.1611    1.3018   -3.4805 H   0  0  0  0  0  0  0  0  0  0  0  0
  -20.9920   -0.2017   -4.3015 H   0  0  0  0  0  0  0  0  0  0  0  0
  -23.8400    1.6127   -7.4740 H   0  0  0  0  0  0  0  0  0  0  0  0
  -22.7045    0.6759   -8.5526 H   0  0  0  0  0  0  0  0  0  0  0  0
  1  2  2  0
  2  3  1  0
  3  4  1  0
  4  5  1  0
  5  6  1  0
  6  7  2  0
  7  8  1  0
  8  9  2  0
  9 10  1  0
 10 11  2  0
 11 12  1  0
 12 13  2  0
 12 14  1  0
 14 15  1  0
 15 16  1  0
 16 17  2  0
 17 18  1  0
 18 19  2  0
 19 20  1  0
 20 21  2  0
  4 22  1  0
 22 23  1  0
 23 24  2  0
 24 25  1  0
 25 26  2  0
 26 27  1  0
 27 28  2  0
 28 29  1  0
 29 30  2  0
 29 31  1  0
 27 32  1  0
 32 33  1  0
 33 34  1  0
 11  6  1  0
 21 16  1  0
 28 23  1  0
 34 26  1  0
  1 35  1  0
  1 36  1  0
  2 37  1  0
  3 38  1  0
  3 39  1  0
  4 40  1  6
  5 41  1  0
  5 42  1  0
  7 43  1  0
  8 44  1  0
  9 45  1  0
 10 46  1  0
 14 47  1  0
 15 48  1  0
 15 49  1  0
 17 50  1  0
 18 51  1  0
 19 52  1  0
 20 53  1  0
 21 54  1  0
 22 55  1  0
 22 56  1  0
 24 57  1  0
 25 58  1  0
 33 59  1  0
 33 60  1  0
M  CHG  2   4   1  31  -1
M  END
>  <meeko>  (8) 
{"is_sidechain": [false], "free_energy": -7.573, "intermolecular_energy": -11.818, "internal_energy": -2.522}

$$$$
3zsx_ligand
     RDKit          3D

 60 63  0  0  0  0  0  0  0  0999 V2000
  -16.2610    7.8050   -9.5460 C   0  0  0  0  0  0  0  0  0  0  0  0
  -17.0480    6.9980  -10.2700 C   0  0  0  0  0  0  0  0  0  0  0  0
  -17.3440    5.5640   -9.9420 C   0  0  0  0  0  0  0  0  0  0  0  0
  -16.7960    5.0920   -8.6470 N   0  0  2  0  0  0  0  0  0  0  0  0
  -15.5430    4.2690   -8.6480 C   0  0  0  0  0  0  0  0  0  0  0  0
  -14.2250    4.9840   -8.4650 C   0  0  0  0  0  0  0  0  0  0  0  0
  -13.4750    5.3090   -9.6150 C   0  0  0  0  0  0  0  0  0  0  0  0
  -12.2560    5.9830   -9.5210 C   0  0  0  0  0  0  0  0  0  0  0  0
  -11.7630    6.3580   -8.2760 C   0  0  0  0  0  0  0  0  0  0  0  0
  -12.4830    6.0500   -7.1240 C   0  0  0  0  0  0  0  0  0  0  0  0
  -13.7030    5.3540   -7.2100 C   0  0  0  0  0  0  0  0  0  0  0  0
  -14.4320    5.0540   -5.9530 C   0  0  0  0  0  0  0  0  0  0  0  0
  -15.0010    5.9500   -5.3440 O   0  0  0  0  0  0  0  0  0  0  0  0
  -14.4500    3.7320   -5.5740 N   0  0  0  0  0  0  0  0  0  0  0  0
  -14.9290    3.3170   -4.2730 C   0  0  0  0  0  0  0  0  0  0  0  0
  -16.3690    2.8860   -4.3620 C   0  0  0  0  0  0  0  0  0  0  0  0
  -17.3940    3.7880   -4.0430 C   0  0  0  0  0  0  0  0  0  0  0  0
  -18.7300    3.3890   -4.0950 C   0  0  0  0  0  0  0  0  0  0  0  0
  -19.0530    2.0840   -4.4620 C   0  0  0  0  0  0  0  0  0  0  0  0
  -18.0430    1.1770   -4.7730 C   0  0  0  0  0  0  0  0  0  0  0  0
  -16.7050    1.5730   -4.7210 C   0  0  0  0  0  0  0  0  0  0  0  0
  -17.7620    4.7860   -7.5390 C   0  0  0  0  0  0  0  0  0  0  0  0
  -18.6610    5.9400   -7.1210 C   0  0  0  0  0  0  0  0  0  0  0  0
  -18.0730    7.1510   -6.6800 C   0  0  0  0  0  0  0  0  0  0  0  0
  -18.8640    8.2410   -6.3090 C   0  0  0  0  0  0  0  0  0  0  0  0
  -20.2320    8.0980   -6.3900 C   0  0  0  0  0  0  0  0  0  0  0  0
  -20.8270    6.9330   -6.8190 C   0  0  0  0  0  0  0  0  0  0  0  0
  -20.0780    5.8330   -7.2020 C   0  0  0  0  0  0  0  0  0  0  0  0
  -20.7320    4.5740   -7.6730 C   0  0  0  0  0  0  0  0  0  0  0  0
  -20.9930    4.5500   -8.9250 O   0  0  0  0  0  0  0  0  0  0  0  0
  -21.0810    3.7160   -6.8200 O   0  0  0  0  0  0  0  0  0  0  0  0
  -22.1850    7.0200   -6.7750 O   0  0  0  0  0  0  0  0  0  0  0  0
  -22.3720    8.3830   -6.3660 C   0  0  0  0  0  0  0  0  0  0  0  0
  -21.1370    9.0590   -6.0550 O   0  0  0  0  0  0  0  0  0  0  0  0
  -16.1002    8.8459   -9.8633 H   0  0  0  0  0  0  0  0  0  0  0  0
  -15.7756    7.4267   -8.6343 H   0  0  0  0  0  0  0  0  0  0  0  0
  -17.5127    7.4187  -11.1739 H   0  0  0  0  0  0  0  0  0  0  0  0
  -18.4365    5.4381   -9.9166 H   0  0  0  0  0  0  0  0  0  0  0  0
  -16.8535    4.9624  -10.7214 H   0  0  0  0  0  0  0  0  0  0  0  0
  -16.3950    5.9930   -8.2730 H   0  0  0  0  0  0  0  0  0  0  0  0
  -15.6329    3.5352   -7.8335 H   0  0  0  0  0  0  0  0  0  0  0  0
  -15.4899    3.8505   -9.6639 H   0  0  0  0  0  0  0  0  0  0  0  0
  -13.8587    5.0255  -10.6062 H   0  0  0  0  0  0  0  0  0  0  0  0
  -11.6855    6.2174  -10.4318 H   0  0  0  0  0  0  0  0  0  0  0  0
  -10.8068    6.8965   -8.2010 H   0  0  0  0  0  0  0  0  0  0  0  0
  -12.0952    6.3529   -6.1402 H   0  0  0  0  0  0  0  0  0  0  0  0
  -13.9310    3.0500   -6.1090 H   0  0  0  0  0  0  0  0  0  0  0  0
  -14.3194    2.4751   -3.9130 H   0  0  0  0  0  0  0  0  0  0  0  0
  -14.8503    4.1634   -3.5749 H   0  0  0  0  0  0  0  0  0  0  0  0
  -17.1430    4.8180   -3.7495 H   0  0  0  0  0  0  0  0  0  0  0  0
  -19.5279    4.1042   -3.8464 H   0  0  0  0  0  0  0  0  0  0  0  0
  -20.1063    1.7701   -4.5061 H   0  0  0  0  0  0  0  0  0  0  0  0
  -18.2998    0.1467   -5.0602 H   0  0  0  0  0  0  0  0  0  0  0  0
  -15.9108    0.8514   -4.9628 H   0  0  0  0  0  0  0  0  0  0  0  0
  -18.4052    3.9567   -7.8686 H   0  0  0  0  0  0  0  0  0  0  0  0
  -17.1478    4.5455   -6.6587 H   0  0  0  0  0  0  0  0  0  0  0  0
  -16.9773    7.2343   -6.6289 H   0  0  0  0  0  0  0  0  0  0  0  0
  -18.4101    9.1817   -5.9639 H   0  0  0  0  0  0  0  0  0  0  0  0
  -22.8722    8.9267   -7.1810 H   0  0  0  0  0  0  0  0  0  0  0  0
  -22.9758    8.3677   -5.4467 H   0  0  0  0  0  0  0  0  0  0  0  0
  1  2  2  0
  2  3  1  0
  3  4  1  0
  4  5  1  0
  5  6  1  0
  6  7  2  0
  7  8  1  0
  8  9  2  0
  9 10  1  0
 10 11  2  0
 11 12  1  0
 12 13  2  0
 12 14  1  0
 14 15  1  0
 15 16  1  0
 16 17  2  0
 17 18  1  0
 18 19  2  0
 19 20  1  0
 20 21  2  0
  4 22  1  0
 22 23  1  0
 23 24  2  0
 24 25  1  0
 25 26  2  0
 26 27  1  0
 27 28  2  0
 28 29  1  0
 29 30  2  0
 29 31  1  0
 27 32  1  0
 32 33  1  0
 33 34  1  0
 11  6  1  0
 21 16  1  0
 28 23  1  0
 34 26  1  0
  1 35  1  0
  1 36  1  0
  2 37  1  0
  3 38  1  0
  3 39  1  0
  4 40  1  1
  5 41  1  0
  5 42  1  0
  7 43  1  0
  8 44  1  0
  9 45  1  0
 10 46  1  0
 14 47  1  0
 15 48  1  0
 15 49  1  0
 17 50  1  0
 18 51  1  0
 19 52  1  0
 20 53  1  0
 21 54  1  0
 22 55  1  0
 22 56  1  0
 24 57  1  0
 25 58  1  0
 33 59  1  0
 33 60  1  0
M  CHG  2   4   1  31  -1
M  END
>  <meeko>  (9) 
{"is_sidechain": [false], "free_energy": -7.572, "intermolecular_energy": -11.177, "internal_energy": -3.161}

$$$$
