
     RDKit          3D

 21 24  0  0  0  0  0  0  0  0999 V2000
   13.7820   13.5920  -15.6970 C   0  0  0  0  0  0  0  0  0  0  0  0
   13.6960   12.4390  -16.5420 N   0  0  0  0  0  0  0  0  0  0  0  0
   14.5100   11.3270  -15.9990 C   0  0  2  0  0  0  0  0  0  0  0  0
   15.9100   11.6950  -16.4290 C   0  0  0  0  0  0  0  0  0  0  0  0
   15.7620   12.5750  -17.6090 C   0  0  0  0  0  0  0  0  0  0  0  0
   14.2890   12.6680  -17.8540 C   0  0  1  0  0  0  0  0  0  0  0  0
   13.8630   11.5560  -18.7900 C   0  0  0  0  0  0  0  0  0  0  0  0
   13.8630   10.1880  -18.1730 C   0  0  2  0  0  0  0  0  0  0  0  0
   12.5360    9.8080  -18.3790 O   0  0  0  0  0  0  0  0  0  0  0  0
   12.3490    8.5060  -18.8310 C   0  0  0  0  0  0  0  0  0  0  0  0
   12.0600    7.6720  -18.0030 O   0  0  0  0  0  0  0  0  0  0  0  0
   12.4220    8.1010  -20.2620 C   0  0  0  0  0  0  0  0  0  0  0  0
   12.2140    6.8110  -20.7050 C   0  0  0  0  0  0  0  0  0  0  0  0
   12.3520    6.7620  -22.0210 N   0  0  0  0  0  0  0  0  0  0  0  0
   12.6520    7.9860  -22.4840 C   0  0  0  0  0  0  0  0  0  0  0  0
   12.9000    8.3710  -23.8220 C   0  0  0  0  0  0  0  0  0  0  0  0
   13.1800    9.6980  -24.0610 C   0  0  0  0  0  0  0  0  0  0  0  0
   13.2230   10.6090  -23.0200 C   0  0  0  0  0  0  0  0  0  0  0  0
   12.9920   10.1980  -21.6840 C   0  0  0  0  0  0  0  0  0  0  0  0
   12.7030    8.8640  -21.4220 C   0  0  0  0  0  0  0  0  0  0  0  0
   14.1090   10.0330  -16.6960 C   0  0  0  0  0  0  0  0  0  0  0  0
  2  1  1  0
  3  2  1  0
  3  4  1  6
  5  4  1  0
  6  5  1  1
  6  2  1  0
  7  6  1  0
  8  7  1  0
  8  9  1  1
 10  9  1  0
 11 10  2  0
 12 10  1  0
 13 12  2  0
 14 13  1  0
 15 14  1  0
 16 15  2  0
 17 16  1  0
 18 17  2  0
 19 18  1  0
 20 15  1  0
 20 19  2  0
 20 12  1  0
 21  8  1  0
 21  3  1  0
M  CHG  1   2   1
M  END
$$$$
