4ivc_ligand
     RDKit          3D

 45 48  0  0  0  0  0  0  0  0999 V2000
    0.0480   -1.0830   10.4130 C   0  0  0  0  0  0  0  0  0  0  0  0
   -1.0200   -0.7110    9.3950 C   0  0  1  0  0  0  0  0  0  0  0  0
   -1.7830   -1.8770    9.0860 O   0  0  0  0  0  0  0  0  0  0  0  0
   -1.9920    0.2920    9.9420 C   0  0  0  0  0  0  0  0  0  0  0  0
   -2.9650   -0.0440   10.7780 N   0  0  0  0  0  0  0  0  0  0  0  0
   -3.7080    1.0870   10.9620 C   0  0  0  0  0  0  0  0  0  0  0  0
   -4.8630    1.3270   11.7290 C   0  0  0  0  0  0  0  0  0  0  0  0
   -5.4980    2.5390   11.7510 N   0  0  0  0  0  0  0  0  0  0  0  0
   -4.9500    3.4760   10.9610 C   0  0  0  0  0  0  0  0  0  0  0  0
   -5.4010    4.7500   10.7650 N   0  0  0  0  0  0  0  0  0  0  0  0
   -4.5930    5.3870    9.8460 C   0  0  0  0  0  0  0  0  0  0  0  0
   -3.5930    4.5120    9.4530 C   0  0  0  0  0  0  0  0  0  0  0  0
   -3.8220    3.3210   10.1860 C   0  0  0  0  0  0  0  0  0  0  0  0
   -3.1770    2.1180   10.2090 C   0  0  0  0  0  0  0  0  0  0  0  0
   -2.0500    1.6500    9.6200 N   0  0  0  0  0  0  0  0  0  0  0  0
   -1.0820    2.3950    8.8210 C   0  0  2  0  0  0  0  0  0  0  0  0
   -0.9240    1.8120    7.4110 C   0  0  0  0  0  0  0  0  0  0  0  0
   -0.0350    2.7060    6.5480 C   0  0  0  0  0  0  0  0  0  0  0  0
    1.3030    3.1060    7.2110 C   0  0  1  0  0  0  0  0  0  0  0  0
    1.4520    4.6430    7.2240 C   0  0  0  0  0  0  0  0  0  0  0  0
    0.3890    5.3150    6.4630 C   0  0  0  0  0  0  0  0  0  0  0  0
   -0.4470    5.8440    5.8560 N   0  0  0  0  0  0  0  0  0  0  0  0
    1.4710    2.4730    8.6050 C   0  0  0  0  0  0  0  0  0  0  0  0
    0.2630    2.6830    9.5200 C   0  0  0  0  0  0  0  0  0  0  0  0
   -0.3499   -0.9444   11.4291 H   0  0  0  0  0  0  0  0  0  0  0  0
    0.3375   -2.1349   10.2729 H   0  0  0  0  0  0  0  0  0  0  0  0
    0.9284   -0.4386   10.2729 H   0  0  0  0  0  0  0  0  0  0  0  0
   -0.5047   -0.2900    8.5190 H   0  0  0  0  0  0  0  0  0  0  0  0
   -1.2850   -2.6220    9.4770 H   0  0  0  0  0  0  0  0  0  0  0  0
   -5.2725    0.5062   12.3362 H   0  0  0  0  0  0  0  0  0  0  0  0
   -6.2190    5.1320   11.2150 H   0  0  0  0  0  0  0  0  0  0  0  0
   -4.7213    6.4182    9.4852 H   0  0  0  0  0  0  0  0  0  0  0  0
   -2.7903    4.7019    8.7252 H   0  0  0  0  0  0  0  0  0  0  0  0
   -1.5248    3.3953    8.7055 H   0  0  0  0  0  0  0  0  0  0  0  0
   -0.4686    0.8133    7.4831 H   0  0  0  0  0  0  0  0  0  0  0  0
   -1.9177    1.7482    6.9436 H   0  0  0  0  0  0  0  0  0  0  0  0
    0.1903    2.1691    5.6147 H   0  0  0  0  0  0  0  0  0  0  0  0
   -0.5943    3.6385    6.3816 H   0  0  0  0  0  0  0  0  0  0  0  0
    2.1269    2.6996    6.6060 H   0  0  0  0  0  0  0  0  0  0  0  0
    1.4155    4.9927    8.2663 H   0  0  0  0  0  0  0  0  0  0  0  0
    2.4128    4.8911    6.7493 H   0  0  0  0  0  0  0  0  0  0  0  0
    1.6291    1.3917    8.4796 H   0  0  0  0  0  0  0  0  0  0  0  0
    2.3293    2.9673    9.0836 H   0  0  0  0  0  0  0  0  0  0  0  0
    0.3586    2.0114   10.3859 H   0  0  0  0  0  0  0  0  0  0  0  0
    0.2576    3.7416    9.8190 H   0  0  0  0  0  0  0  0  0  0  0  0
  1  2  1  0
  2  3  1  0
  2  4  1  0
  4  5  2  0
  5  6  1  0
  6  7  2  0
  7  8  1  0
  8  9  2  0
  9 10  1  0
 10 11  1  0
 11 12  2  0
 12 13  1  0
 13 14  2  0
 14 15  1  0
 15 16  1  0
 16 17  1  0
 17 18  1  0
 18 19  1  0
 19 20  1  0
 20 21  1  0
 21 22  3  0
 19 23  1  0
 23 24  1  0
 15  4  1  0
 24 16  1  0
 14  6  1  0
 13  9  1  0
  1 25  1  0
  1 26  1  0
  1 27  1  0
  2 28  1  6
  3 29  1  0
  7 30  1  0
 10 31  1  0
 11 32  1  0
 12 33  1  0
 16 34  1  1
 17 35  1  0
 17 36  1  0
 18 37  1  0
 18 38  1  0
 19 39  1  1
 20 40  1  0
 20 41  1  0
 23 42  1  0
 23 43  1  0
 24 44  1  0
 24 45  1  0
M  END
>  <meeko>  (1) 
{"is_sidechain": [false], "free_energy": -8.599, "intermolecular_energy": -10.358, "internal_energy": -0.625}

$$$$
4ivc_ligand
     RDKit          3D

 45 48  0  0  0  0  0  0  0  0999 V2000
   -1.2910   -1.3070   11.6760 C   0  0  0  0  0  0  0  0  0  0  0  0
   -1.9460   -0.8780   10.3720 C   0  0  1  0  0  0  0  0  0  0  0  0
   -3.0660   -1.7260   10.1220 O   0  0  0  0  0  0  0  0  0  0  0  0
   -2.4880    0.5190   10.4490 C   0  0  0  0  0  0  0  0  0  0  0  0
   -3.6950    0.7860   10.9310 N   0  0  0  0  0  0  0  0  0  0  0  0
   -3.8880    2.1240   10.7350 C   0  0  0  0  0  0  0  0  0  0  0  0
   -4.9800    2.9610   11.0320 C   0  0  0  0  0  0  0  0  0  0  0  0
   -5.0020    4.2900   10.7130 N   0  0  0  0  0  0  0  0  0  0  0  0
   -3.9100    4.7330   10.0680 C   0  0  0  0  0  0  0  0  0  0  0  0
   -3.6880    5.9970    9.6020 N   0  0  0  0  0  0  0  0  0  0  0  0
   -2.4700    6.0420    8.9560 C   0  0  0  0  0  0  0  0  0  0  0  0
   -1.8890    4.7850    9.0190 C   0  0  0  0  0  0  0  0  0  0  0  0
   -2.8010    3.9810    9.7450 C   0  0  0  0  0  0  0  0  0  0  0  0
   -2.7800    2.6650   10.1090 C   0  0  0  0  0  0  0  0  0  0  0  0
   -1.8590    1.6780    9.9920 N   0  0  0  0  0  0  0  0  0  0  0  0
   -0.4890    1.7860    9.5010 C   0  0  2  0  0  0  0  0  0  0  0  0
   -0.2730    0.9940    8.2060 C   0  0  0  0  0  0  0  0  0  0  0  0
    1.1170    1.2590    7.6300 C   0  0  0  0  0  0  0  0  0  0  0  0
    2.2700    1.1120    8.6490 C   0  0  1  0  0  0  0  0  0  0  0  0
    3.1140    2.4050    8.6870 C   0  0  0  0  0  0  0  0  0  0  0  0
    4.4640    2.1770    9.2210 C   0  0  0  0  0  0  0  0  0  0  0  0
    5.5280    1.9960    9.6490 N   0  0  0  0  0  0  0  0  0  0  0  0
    1.7620    0.6840   10.0390 C   0  0  0  0  0  0  0  0  0  0  0  0
    0.6080    1.5420   10.5600 C   0  0  0  0  0  0  0  0  0  0  0  0
   -1.8769   -0.9233   12.5242 H   0  0  0  0  0  0  0  0  0  0  0  0
   -1.2533   -2.4053   11.7234 H   0  0  0  0  0  0  0  0  0  0  0  0
   -0.2691   -0.9027   11.7234 H   0  0  0  0  0  0  0  0  0  0  0  0
   -1.1790   -0.9367    9.5857 H   0  0  0  0  0  0  0  0  0  0  0  0
   -3.6130   -1.6770   10.9310 H   0  0  0  0  0  0  0  0  0  0  0  0
   -5.8526    2.5273   11.5424 H   0  0  0  0  0  0  0  0  0  0  0  0
   -4.3440    6.7570    9.7040 H   0  0  0  0  0  0  0  0  0  0  0  0
   -2.0327    6.9276    8.4717 H   0  0  0  0  0  0  0  0  0  0  0  0
   -0.9223    4.4767    8.5942 H   0  0  0  0  0  0  0  0  0  0  0  0
   -0.3647    2.8494    9.2486 H   0  0  0  0  0  0  0  0  0  0  0  0
   -0.3755   -0.0802    8.4195 H   0  0  0  0  0  0  0  0  0  0  0  0
   -1.0252    1.3130    7.4695 H   0  0  0  0  0  0  0  0  0  0  0  0
    1.2906    0.5474    6.8093 H   0  0  0  0  0  0  0  0  0  0  0  0
    1.1240    2.3076    7.2976 H   0  0  0  0  0  0  0  0  0  0  0  0
    2.9292    0.2969    8.3156 H   0  0  0  0  0  0  0  0  0  0  0  0
    3.2008    2.8005    7.6642 H   0  0  0  0  0  0  0  0  0  0  0  0
    2.6058    3.1179    9.3529 H   0  0  0  0  0  0  0  0  0  0  0  0
    1.4195   -0.3595    9.9779 H   0  0  0  0  0  0  0  0  0  0  0  0
    2.5995    0.8090   10.7411 H   0  0  0  0  0  0  0  0  0  0  0  0
    0.1547    1.0328   11.4233 H   0  0  0  0  0  0  0  0  0  0  0  0
    1.0248    2.5225   10.8337 H   0  0  0  0  0  0  0  0  0  0  0  0
  1  2  1  0
  2  3  1  0
  2  4  1  0
  4  5  2  0
  5  6  1  0
  6  7  2  0
  7  8  1  0
  8  9  2  0
  9 10  1  0
 10 11  1  0
 11 12  2  0
 12 13  1  0
 13 14  2  0
 14 15  1  0
 15 16  1  0
 16 17  1  0
 17 18  1  0
 18 19  1  0
 19 20  1  0
 20 21  1  0
 21 22  3  0
 19 23  1  0
 23 24  1  0
 15  4  1  0
 24 16  1  0
 14  6  1  0
 13  9  1  0
  1 25  1  0
  1 26  1  0
  1 27  1  0
  2 28  1  6
  3 29  1  0
  7 30  1  0
 10 31  1  0
 11 32  1  0
 12 33  1  0
 16 34  1  1
 17 35  1  0
 17 36  1  0
 18 37  1  0
 18 38  1  0
 19 39  1  1
 20 40  1  0
 20 41  1  0
 23 42  1  0
 23 43  1  0
 24 44  1  0
 24 45  1  0
M  END
>  <meeko>  (2) 
{"is_sidechain": [false], "free_energy": -8.54, "intermolecular_energy": -10.178, "internal_energy": -0.735}

$$$$
4ivc_ligand
     RDKit          3D

 45 48  0  0  0  0  0  0  0  0999 V2000
   -5.7940    1.2150   12.6930 C   0  0  0  0  0  0  0  0  0  0  0  0
   -4.5580    1.0920   11.8150 C   0  0  1  0  0  0  0  0  0  0  0  0
   -4.8500    0.2070   10.7340 O   0  0  0  0  0  0  0  0  0  0  0  0
   -4.1800    2.4030   11.1910 C   0  0  0  0  0  0  0  0  0  0  0  0
   -5.0150    3.4330   11.1430 N   0  0  0  0  0  0  0  0  0  0  0  0
   -4.3810    4.3950   10.4090 C   0  0  0  0  0  0  0  0  0  0  0  0
   -4.7830    5.6860   10.0210 C   0  0  0  0  0  0  0  0  0  0  0  0
   -4.0110    6.4970    9.2350 N   0  0  0  0  0  0  0  0  0  0  0  0
   -2.8480    5.9550    8.8380 C   0  0  0  0  0  0  0  0  0  0  0  0
   -1.9140    6.5250    8.0230 N   0  0  0  0  0  0  0  0  0  0  0  0
   -0.8810    5.6340    7.8130 C   0  0  0  0  0  0  0  0  0  0  0  0
   -1.1490    4.4710    8.5190 C   0  0  0  0  0  0  0  0  0  0  0  0
   -2.3820    4.7040    9.1770 C   0  0  0  0  0  0  0  0  0  0  0  0
   -3.1470    3.9250    9.9970 C   0  0  0  0  0  0  0  0  0  0  0  0
   -2.9770    2.6980   10.5480 N   0  0  0  0  0  0  0  0  0  0  0  0
   -1.7890    1.8510   10.4970 C   0  0  2  0  0  0  0  0  0  0  0  0
   -0.5390    2.5750   11.0100 C   0  0  0  0  0  0  0  0  0  0  0  0
    0.6480    1.6180   11.1000 C   0  0  0  0  0  0  0  0  0  0  0  0
    0.8920    0.7820    9.8220 C   0  0  1  0  0  0  0  0  0  0  0  0
    0.9100   -0.7230   10.1670 C   0  0  0  0  0  0  0  0  0  0  0  0
    1.1040   -1.5680    8.9800 C   0  0  0  0  0  0  0  0  0  0  0  0
    1.2510   -2.2330    8.0410 N   0  0  0  0  0  0  0  0  0  0  0  0
   -0.1060    1.1320    8.7030 C   0  0  0  0  0  0  0  0  0  0  0  0
   -1.5660    1.1150    9.1580 C   0  0  0  0  0  0  0  0  0  0  0  0
   -5.4963    1.1854   13.7515 H   0  0  0  0  0  0  0  0  0  0  0  0
   -6.3009    2.1680   12.4812 H   0  0  0  0  0  0  0  0  0  0  0  0
   -6.4787    0.3806   12.4812 H   0  0  0  0  0  0  0  0  0  0  0  0
   -3.7377    0.7333   12.4540 H   0  0  0  0  0  0  0  0  0  0  0  0
   -4.5390    0.6700    9.9300 H   0  0  0  0  0  0  0  0  0  0  0  0
   -5.7593    6.0591   10.3641 H   0  0  0  0  0  0  0  0  0  0  0  0
   -2.0020    7.4480    7.6250 H   0  0  0  0  0  0  0  0  0  0  0  0
    0.0068    5.8161    7.1896 H   0  0  0  0  0  0  0  0  0  0  0  0
   -0.5341    3.5598    8.5596 H   0  0  0  0  0  0  0  0  0  0  0  0
   -1.9964    1.0336   11.2033 H   0  0  0  0  0  0  0  0  0  0  0  0
   -0.2891    3.3945   10.3201 H   0  0  0  0  0  0  0  0  0  0  0  0
   -0.7493    2.9689   12.0153 H   0  0  0  0  0  0  0  0  0  0  0  0
    1.5528    2.2100   11.3020 H   0  0  0  0  0  0  0  0  0  0  0  0
    0.4154    0.9034   11.9033 H   0  0  0  0  0  0  0  0  0  0  0  0
    1.8826    1.0399    9.4191 H   0  0  0  0  0  0  0  0  0  0  0  0
    1.7308   -0.9135   10.8741 H   0  0  0  0  0  0  0  0  0  0  0  0
   -0.0665   -0.9784   10.6044 H   0  0  0  0  0  0  0  0  0  0  0  0
    0.1300    2.1391    8.3289 H   0  0  0  0  0  0  0  0  0  0  0  0
   -0.0015    0.3617    7.9247 H   0  0  0  0  0  0  0  0  0  0  0  0
   -2.1798    1.6002    8.3848 H   0  0  0  0  0  0  0  0  0  0  0  0
   -1.8515    0.0635    9.3089 H   0  0  0  0  0  0  0  0  0  0  0  0
  1  2  1  0
  2  3  1  0
  2  4  1  0
  4  5  2  0
  5  6  1  0
  6  7  2  0
  7  8  1  0
  8  9  2  0
  9 10  1  0
 10 11  1  0
 11 12  2  0
 12 13  1  0
 13 14  2  0
 14 15  1  0
 15 16  1  0
 16 17  1  0
 17 18  1  0
 18 19  1  0
 19 20  1  0
 20 21  1  0
 21 22  3  0
 19 23  1  0
 23 24  1  0
 15  4  1  0
 24 16  1  0
 14  6  1  0
 13  9  1  0
  1 25  1  0
  1 26  1  0
  1 27  1  0
  2 28  1  1
  3 29  1  0
  7 30  1  0
 10 31  1  0
 11 32  1  0
 12 33  1  0
 16 34  1  6
 17 35  1  0
 17 36  1  0
 18 37  1  0
 18 38  1  0
 19 39  1  1
 20 40  1  0
 20 41  1  0
 23 42  1  0
 23 43  1  0
 24 44  1  0
 24 45  1  0
M  END
>  <meeko>  (3) 
{"is_sidechain": [false], "free_energy": -8.288, "intermolecular_energy": -10.173, "internal_energy": -0.435}

$$$$
4ivc_ligand
     RDKit          3D

 45 48  0  0  0  0  0  0  0  0999 V2000
    0.6270    5.0260    6.4310 C   0  0  0  0  0  0  0  0  0  0  0  0
    0.5300    4.5800    7.8830 C   0  0  1  0  0  0  0  0  0  0  0  0
    1.2940    5.4760    8.6890 O   0  0  0  0  0  0  0  0  0  0  0  0
   -0.8760    4.6470    8.3990 C   0  0  0  0  0  0  0  0  0  0  0  0
   -1.6050    5.7540    8.3330 N   0  0  0  0  0  0  0  0  0  0  0  0
   -2.7660    5.4780    8.9970 C   0  0  0  0  0  0  0  0  0  0  0  0
   -3.8990    6.2710    9.2580 C   0  0  0  0  0  0  0  0  0  0  0  0
   -4.9630    5.8210    9.9910 N   0  0  0  0  0  0  0  0  0  0  0  0
   -4.8310    4.5720   10.4670 C   0  0  0  0  0  0  0  0  0  0  0  0
   -5.7190    3.8970   11.2550 N   0  0  0  0  0  0  0  0  0  0  0  0
   -5.2020    2.6580   11.5720 C   0  0  0  0  0  0  0  0  0  0  0  0
   -3.9630    2.5260   10.9640 C   0  0  0  0  0  0  0  0  0  0  0  0
   -3.7590    3.7340   10.2530 C   0  0  0  0  0  0  0  0  0  0  0  0
   -2.7250    4.1850    9.4830 C   0  0  0  0  0  0  0  0  0  0  0  0
   -1.5710    3.6250    9.0480 N   0  0  0  0  0  0  0  0  0  0  0  0
   -1.1310    2.2420    9.2080 C   0  0  2  0  0  0  0  0  0  0  0  0
   -0.1030    2.0870   10.3340 C   0  0  0  0  0  0  0  0  0  0  0  0
    0.2120    0.6130   10.5870 C   0  0  0  0  0  0  0  0  0  0  0  0
    0.5570   -0.1930    9.3130 C   0  0  1  0  0  0  0  0  0  0  0  0
   -0.3670   -1.4240    9.1970 C   0  0  0  0  0  0  0  0  0  0  0  0
   -1.6870   -1.1940    9.8030 C   0  0  0  0  0  0  0  0  0  0  0  0
   -2.7260   -1.0130   10.2860 N   0  0  0  0  0  0  0  0  0  0  0  0
    0.5470    0.6880    8.0500 C   0  0  0  0  0  0  0  0  0  0  0  0
   -0.7220    1.5290    7.9010 C   0  0  0  0  0  0  0  0  0  0  0  0
    0.8606    6.1002    6.3922 H   0  0  0  0  0  0  0  0  0  0  0  0
    1.4229    4.4592    5.9257 H   0  0  0  0  0  0  0  0  0  0  0  0
   -0.3324    4.8409    5.9257 H   0  0  0  0  0  0  0  0  0  0  0  0
    0.8937    3.5430    7.9313 H   0  0  0  0  0  0  0  0  0  0  0  0
    1.9580    4.9170    9.1390 H   0  0  0  0  0  0  0  0  0  0  0  0
   -3.9304    7.2945    8.8562 H   0  0  0  0  0  0  0  0  0  0  0  0
   -6.5990    4.2800   11.5670 H   0  0  0  0  0  0  0  0  0  0  0  0
   -5.6913    1.9008   12.2022 H   0  0  0  0  0  0  0  0  0  0  0  0
   -3.2817    1.6643   11.0216 H   0  0  0  0  0  0  0  0  0  0  0  0
   -2.0325    1.6959    9.5226 H   0  0  0  0  0  0  0  0  0  0  0  0
    0.8226    2.6095   10.0508 H   0  0  0  0  0  0  0  0  0  0  0  0
   -0.5225    2.5193   11.2544 H   0  0  0  0  0  0  0  0  0  0  0  0
    1.0703    0.5571   11.2727 H   0  0  0  0  0  0  0  0  0  0  0  0
   -0.7005    0.1638   11.0059 H   0  0  0  0  0  0  0  0  0  0  0  0
    1.5895   -0.5617    9.4022 H   0  0  0  0  0  0  0  0  0  0  0  0
   -0.5042   -1.6635    8.1322 H   0  0  0  0  0  0  0  0  0  0  0  0
    0.1105   -2.2537    9.7388 H   0  0  0  0  0  0  0  0  0  0  0  0
    1.4114    1.3670    8.0926 H   0  0  0  0  0  0  0  0  0  0  0  0
    0.5894    0.0112    7.1839 H   0  0  0  0  0  0  0  0  0  0  0  0
   -0.5489    2.2902    7.1260 H   0  0  0  0  0  0  0  0  0  0  0  0
   -1.5397    0.8450    7.6299 H   0  0  0  0  0  0  0  0  0  0  0  0
  1  2  1  0
  2  3  1  0
  2  4  1  0
  4  5  2  0
  5  6  1  0
  6  7  2  0
  7  8  1  0
  8  9  2  0
  9 10  1  0
 10 11  1  0
 11 12  2  0
 12 13  1  0
 13 14  2  0
 14 15  1  0
 15 16  1  0
 16 17  1  0
 17 18  1  0
 18 19  1  0
 19 20  1  0
 20 21  1  0
 21 22  3  0
 19 23  1  0
 23 24  1  0
 15  4  1  0
 24 16  1  0
 14  6  1  0
 13  9  1  0
  1 25  1  0
  1 26  1  0
  1 27  1  0
  2 28  1  6
  3 29  1  0
  7 30  1  0
 10 31  1  0
 11 32  1  0
 12 33  1  0
 16 34  1  6
 17 35  1  0
 17 36  1  0
 18 37  1  0
 18 38  1  0
 19 39  1  6
 20 40  1  0
 20 41  1  0
 23 42  1  0
 23 43  1  0
 24 44  1  0
 24 45  1  0
M  END
>  <meeko>  (4) 
{"is_sidechain": [false], "free_energy": -8.229, "intermolecular_energy": -9.857, "internal_energy": -0.68}

$$$$
4ivc_ligand
     RDKit          3D

 45 48  0  0  0  0  0  0  0  0999 V2000
   -0.0980    5.3140    7.8430 C   0  0  0  0  0  0  0  0  0  0  0  0
   -0.3700    3.8600    7.4840 C   0  0  1  0  0  0  0  0  0  0  0  0
   -0.0380    3.6590    6.1110 O   0  0  0  0  0  0  0  0  0  0  0  0
    0.4940    2.9170    8.2670 C   0  0  0  0  0  0  0  0  0  0  0  0
    1.7960    2.7960    8.0450 N   0  0  0  0  0  0  0  0  0  0  0  0
    2.2200    1.7770    8.8480 C   0  0  0  0  0  0  0  0  0  0  0  0
    3.4910    1.1990    9.0260 C   0  0  0  0  0  0  0  0  0  0  0  0
    3.7110    0.1370    9.8600 N   0  0  0  0  0  0  0  0  0  0  0  0
    2.6130   -0.3310   10.4760 C   0  0  0  0  0  0  0  0  0  0  0  0
    2.5410   -1.3990   11.3240 N   0  0  0  0  0  0  0  0  0  0  0  0
    1.2310   -1.5910   11.7120 C   0  0  0  0  0  0  0  0  0  0  0  0
    0.4450   -0.6190   11.1130 C   0  0  0  0  0  0  0  0  0  0  0  0
    1.3390    0.1790   10.3580 C   0  0  0  0  0  0  0  0  0  0  0  0
    1.1470    1.2660    9.5540 C   0  0  0  0  0  0  0  0  0  0  0  0
    0.0660    2.0260    9.2530 N   0  0  0  0  0  0  0  0  0  0  0  0
   -1.2710    1.9510    9.8340 C   0  0  2  0  0  0  0  0  0  0  0  0
   -2.2180    1.0810    8.9980 C   0  0  0  0  0  0  0  0  0  0  0  0
   -3.5540    0.8850    9.7130 C   0  0  0  0  0  0  0  0  0  0  0  0
   -4.2000    2.1930   10.2270 C   0  0  1  0  0  0  0  0  0  0  0  0
   -4.4920    2.0830   11.7380 C   0  0  0  0  0  0  0  0  0  0  0  0
   -5.8460    2.5410   12.0820 C   0  0  0  0  0  0  0  0  0  0  0  0
   -6.9130    2.9080   12.3520 N   0  0  0  0  0  0  0  0  0  0  0  0
   -3.3620    3.4330    9.8640 C   0  0  0  0  0  0  0  0  0  0  0  0
   -1.8860    3.3060   10.2430 C   0  0  0  0  0  0  0  0  0  0  0  0
   -0.0775    5.4238    8.9373 H   0  0  0  0  0  0  0  0  0  0  0  0
    0.8728    5.6193    7.4256 H   0  0  0  0  0  0  0  0  0  0  0  0
   -0.8928    5.9496    7.4256 H   0  0  0  0  0  0  0  0  0  0  0  0
   -1.4294    3.6610    7.7032 H   0  0  0  0  0  0  0  0  0  0  0  0
    0.8540    3.2560    6.1170 H   0  0  0  0  0  0  0  0  0  0  0  0
    4.3431    1.6188    8.4713 H   0  0  0  0  0  0  0  0  0  0  0  0
    3.3360   -1.9620   11.5880 H   0  0  0  0  0  0  0  0  0  0  0  0
    0.8704   -2.3833   12.3845 H   0  0  0  0  0  0  0  0  0  0  0  0
   -0.6440   -0.4938   11.2047 H   0  0  0  0  0  0  0  0  0  0  0  0
   -1.1291    1.4370   10.7961 H   0  0  0  0  0  0  0  0  0  0  0  0
   -2.3965    1.5713    8.0296 H   0  0  0  0  0  0  0  0  0  0  0  0
   -1.7512    0.0960    8.8503 H   0  0  0  0  0  0  0  0  0  0  0  0
   -4.2537    0.4083    9.0107 H   0  0  0  0  0  0  0  0  0  0  0  0
   -3.3487    0.2663   10.5990 H   0  0  0  0  0  0  0  0  0  0  0  0
   -5.1631    2.3323    9.7142 H   0  0  0  0  0  0  0  0  0  0  0  0
   -4.3869    1.0312   12.0424 H   0  0  0  0  0  0  0  0  0  0  0  0
   -3.7752    2.7291   12.2660 H   0  0  0  0  0  0  0  0  0  0  0  0
   -3.4297    3.5928    8.7778 H   0  0  0  0  0  0  0  0  0  0  0  0
   -3.7709    4.2781   10.4372 H   0  0  0  0  0  0  0  0  0  0  0  0
   -1.3257    4.1100    9.7433 H   0  0  0  0  0  0  0  0  0  0  0  0
   -1.8210    3.3786   11.3387 H   0  0  0  0  0  0  0  0  0  0  0  0
  1  2  1  0
  2  3  1  0
  2  4  1  0
  4  5  2  0
  5  6  1  0
  6  7  2  0
  7  8  1  0
  8  9  2  0
  9 10  1  0
 10 11  1  0
 11 12  2  0
 12 13  1  0
 13 14  2  0
 14 15  1  0
 15 16  1  0
 16 17  1  0
 17 18  1  0
 18 19  1  0
 19 20  1  0
 20 21  1  0
 21 22  3  0
 19 23  1  0
 23 24  1  0
 15  4  1  0
 24 16  1  0
 14  6  1  0
 13  9  1  0
  1 25  1  0
  1 26  1  0
  1 27  1  0
  2 28  1  6
  3 29  1  0
  7 30  1  0
 10 31  1  0
 11 32  1  0
 12 33  1  0
 16 34  1  6
 17 35  1  0
 17 36  1  0
 18 37  1  0
 18 38  1  0
 19 39  1  1
 20 40  1  0
 20 41  1  0
 23 42  1  0
 23 43  1  0
 24 44  1  0
 24 45  1  0
M  END
>  <meeko>  (5) 
{"is_sidechain": [false], "free_energy": -8.038, "intermolecular_energy": -9.706, "internal_energy": -0.602}

$$$$
4ivc_ligand
     RDKit          3D

 45 48  0  0  0  0  0  0  0  0999 V2000
    5.5890   -0.2850    8.4370 C   0  0  0  0  0  0  0  0  0  0  0  0
    4.9410    0.5090    9.5610 C   0  0  1  0  0  0  0  0  0  0  0  0
    5.9270    1.3550   10.1520 O   0  0  0  0  0  0  0  0  0  0  0  0
    3.8590    1.4170    9.0560 C   0  0  0  0  0  0  0  0  0  0  0  0
    4.1160    2.6180    8.5550 N   0  0  0  0  0  0  0  0  0  0  0  0
    2.9000    3.1920    8.3160 C   0  0  0  0  0  0  0  0  0  0  0  0
    2.5510    4.4550    7.8020 C   0  0  0  0  0  0  0  0  0  0  0  0
    1.2540    4.8700    7.6750 N   0  0  0  0  0  0  0  0  0  0  0  0
    0.3370    3.9890    8.1060 C   0  0  0  0  0  0  0  0  0  0  0  0
   -1.0180    4.1620    8.1320 N   0  0  0  0  0  0  0  0  0  0  0  0
   -1.6130    3.0480    8.6880 C   0  0  0  0  0  0  0  0  0  0  0  0
   -0.6240    2.1330    9.0140 C   0  0  0  0  0  0  0  0  0  0  0  0
    0.5950    2.7360    8.6170 C   0  0  0  0  0  0  0  0  0  0  0  0
    1.8940    2.3220    8.6960 C   0  0  0  0  0  0  0  0  0  0  0  0
    2.4850    1.1690    9.0940 N   0  0  0  0  0  0  0  0  0  0  0  0
    1.8390   -0.0820    9.4780 C   0  0  2  0  0  0  0  0  0  0  0  0
    2.1410   -0.4690   10.9300 C   0  0  0  0  0  0  0  0  0  0  0  0
    1.3210   -1.6880   11.3520 C   0  0  0  0  0  0  0  0  0  0  0  0
    1.3890   -2.8750   10.3640 C   0  0  1  0  0  0  0  0  0  0  0  0
   -0.0350   -3.2920    9.9360 C   0  0  0  0  0  0  0  0  0  0  0  0
   -1.0190   -2.2180   10.1390 C   0  0  0  0  0  0  0  0  0  0  0  0
   -1.7950   -1.3720   10.3050 N   0  0  0  0  0  0  0  0  0  0  0  0
    2.3150   -2.5820    9.1690 C   0  0  0  0  0  0  0  0  0  0  0  0
    2.0220   -1.2470    8.4810 C   0  0  0  0  0  0  0  0  0  0  0  0
    6.2298   -1.0701    8.8648 H   0  0  0  0  0  0  0  0  0  0  0  0
    4.8071   -0.7474    7.8167 H   0  0  0  0  0  0  0  0  0  0  0  0
    6.1988    0.3883    7.8167 H   0  0  0  0  0  0  0  0  0  0  0  0
    4.5166   -0.2163   10.2708 H   0  0  0  0  0  0  0  0  0  0  0  0
    6.1180    0.9580   11.0260 H   0  0  0  0  0  0  0  0  0  0  0  0
    3.3554    5.1371    7.4892 H   0  0  0  0  0  0  0  0  0  0  0  0
   -1.4840    4.9980    7.8130 H   0  0  0  0  0  0  0  0  0  0  0  0
   -2.6927    2.9091    8.8462 H   0  0  0  0  0  0  0  0  0  0  0  0
   -0.7575    1.1466    9.4822 H   0  0  0  0  0  0  0  0  0  0  0  0
    0.7612    0.1308    9.4232 H   0  0  0  0  0  0  0  0  0  0  0  0
    3.2113   -0.7047   11.0246 H   0  0  0  0  0  0  0  0  0  0  0  0
    1.8744    0.3763   11.5815 H   0  0  0  0  0  0  0  0  0  0  0  0
    1.6924   -2.0314   12.3288 H   0  0  0  0  0  0  0  0  0  0  0  0
    0.2701   -1.3646   11.3831 H   0  0  0  0  0  0  0  0  0  0  0  0
    1.8439   -3.7331   10.8804 H   0  0  0  0  0  0  0  0  0  0  0  0
   -0.0190   -3.5593    8.8691 H   0  0  0  0  0  0  0  0  0  0  0  0
   -0.3365   -4.1454   10.5612 H   0  0  0  0  0  0  0  0  0  0  0  0
    3.3541   -2.5669    9.5296 H   0  0  0  0  0  0  0  0  0  0  0  0
    2.1423   -3.3735    8.4249 H   0  0  0  0  0  0  0  0  0  0  0  0
    2.8605   -1.0065    7.8109 H   0  0  0  0  0  0  0  0  0  0  0  0
    1.0764   -1.3609    7.9307 H   0  0  0  0  0  0  0  0  0  0  0  0
  1  2  1  0
  2  3  1  0
  2  4  1  0
  4  5  2  0
  5  6  1  0
  6  7  2  0
  7  8  1  0
  8  9  2  0
  9 10  1  0
 10 11  1  0
 11 12  2  0
 12 13  1  0
 13 14  2  0
 14 15  1  0
 15 16  1  0
 16 17  1  0
 17 18  1  0
 18 19  1  0
 19 20  1  0
 20 21  1  0
 21 22  3  0
 19 23  1  0
 23 24  1  0
 15  4  1  0
 24 16  1  0
 14  6  1  0
 13  9  1  0
  1 25  1  0
  1 26  1  0
  1 27  1  0
  2 28  1  1
  3 29  1  0
  7 30  1  0
 10 31  1  0
 11 32  1  0
 12 33  1  0
 16 34  1  6
 17 35  1  0
 17 36  1  0
 18 37  1  0
 18 38  1  0
 19 39  1  6
 20 40  1  0
 20 41  1  0
 23 42  1  0
 23 43  1  0
 24 44  1  0
 24 45  1  0
M  END
>  <meeko>  (6) 
{"is_sidechain": [false], "free_energy": -7.811, "intermolecular_energy": -9.288, "internal_energy": -0.747}

$$$$
4ivc_ligand
     RDKit          3D

 45 48  0  0  0  0  0  0  0  0999 V2000
   -2.0510   -3.8430    9.4150 C   0  0  0  0  0  0  0  0  0  0  0  0
   -1.8520   -2.3680    9.7310 C   0  0  1  0  0  0  0  0  0  0  0  0
   -1.9630   -2.1820   11.1410 O   0  0  0  0  0  0  0  0  0  0  0  0
   -0.4800   -1.8930    9.3530 C   0  0  0  0  0  0  0  0  0  0  0  0
    0.5000   -2.7310    9.0390 N   0  0  0  0  0  0  0  0  0  0  0  0
    1.6140   -1.9580    8.8730 C   0  0  0  0  0  0  0  0  0  0  0  0
    2.9410   -2.2960    8.5480 C   0  0  0  0  0  0  0  0  0  0  0  0
    3.9420   -1.3680    8.4690 N   0  0  0  0  0  0  0  0  0  0  0  0
    3.5670   -0.1100    8.7520 C   0  0  0  0  0  0  0  0  0  0  0  0
    4.3670    0.9960    8.7860 N   0  0  0  0  0  0  0  0  0  0  0  0
    3.6190    2.0930    9.1630 C   0  0  0  0  0  0  0  0  0  0  0  0
    2.3090    1.6890    9.3610 C   0  0  0  0  0  0  0  0  0  0  0  0
    2.2920    0.3020    9.0730 C   0  0  0  0  0  0  0  0  0  0  0  0
    1.2970   -0.6330    9.1060 C   0  0  0  0  0  0  0  0  0  0  0  0
   -0.0370   -0.5690    9.3360 N   0  0  0  0  0  0  0  0  0  0  0  0
   -0.8580    0.6240    9.5200 C   0  0  2  0  0  0  0  0  0  0  0  0
   -0.5950    1.6810    8.4410 C   0  0  0  0  0  0  0  0  0  0  0  0
   -1.5810    2.8410    8.5630 C   0  0  0  0  0  0  0  0  0  0  0  0
   -1.7070    3.4250    9.9890 C   0  0  1  0  0  0  0  0  0  0  0  0
   -3.1830    3.4100   10.4400 C   0  0  0  0  0  0  0  0  0  0  0  0
   -3.9340    4.5710    9.9390 C   0  0  0  0  0  0  0  0  0  0  0  0
   -4.5240    5.4900    9.5470 N   0  0  0  0  0  0  0  0  0  0  0  0
   -0.7660    2.7240   10.9860 C   0  0  0  0  0  0  0  0  0  0  0  0
   -0.8660    1.1980   10.9530 C   0  0  0  0  0  0  0  0  0  0  0  0
   -2.1278   -4.4119   10.3533 H   0  0  0  0  0  0  0  0  0  0  0  0
   -2.9746   -3.9716    8.8316 H   0  0  0  0  0  0  0  0  0  0  0  0
   -1.1945   -4.2118    8.8316 H   0  0  0  0  0  0  0  0  0  0  0  0
   -2.6095   -1.8074    9.1636 H   0  0  0  0  0  0  0  0  0  0  0  0
   -1.2180   -1.5960   11.3840 H   0  0  0  0  0  0  0  0  0  0  0  0
    3.1829   -3.3505    8.3493 H   0  0  0  0  0  0  0  0  0  0  0  0
    5.3570    0.9820    8.5890 H   0  0  0  0  0  0  0  0  0  0  0  0
    3.9999    3.1176    9.2858 H   0  0  0  0  0  0  0  0  0  0  0  0
    1.4602    2.3138    9.6757 H   0  0  0  0  0  0  0  0  0  0  0  0
   -1.8926    0.2775    9.3802 H   0  0  0  0  0  0  0  0  0  0  0  0
    0.4293    2.0654    8.5554 H   0  0  0  0  0  0  0  0  0  0  0  0
   -0.7219    1.2141    7.4531 H   0  0  0  0  0  0  0  0  0  0  0  0
   -1.2505    3.6456    7.8897 H   0  0  0  0  0  0  0  0  0  0  0  0
   -2.5710    2.4405    8.2992 H   0  0  0  0  0  0  0  0  0  0  0  0
   -1.3786    4.4746    9.9674 H   0  0  0  0  0  0  0  0  0  0  0  0
   -3.6583    2.4924   10.0630 H   0  0  0  0  0  0  0  0  0  0  0  0
   -3.1983    3.4495   11.5392 H   0  0  0  0  0  0  0  0  0  0  0  0
    0.2690    3.0099   10.7473 H   0  0  0  0  0  0  0  0  0  0  0  0
   -1.0668    3.0453   11.9941 H   0  0  0  0  0  0  0  0  0  0  0  0
   -0.0109    0.7787   11.5034 H   0  0  0  0  0  0  0  0  0  0  0  0
   -1.8260    0.9211   11.4131 H   0  0  0  0  0  0  0  0  0  0  0  0
  1  2  1  0
  2  3  1  0
  2  4  1  0
  4  5  2  0
  5  6  1  0
  6  7  2  0
  7  8  1  0
  8  9  2  0
  9 10  1  0
 10 11  1  0
 11 12  2  0
 12 13  1  0
 13 14  2  0
 14 15  1  0
 15 16  1  0
 16 17  1  0
 17 18  1  0
 18 19  1  0
 19 20  1  0
 20 21  1  0
 21 22  3  0
 19 23  1  0
 23 24  1  0
 15  4  1  0
 24 16  1  0
 14  6  1  0
 13  9  1  0
  1 25  1  0
  1 26  1  0
  1 27  1  0
  2 28  1  6
  3 29  1  0
  7 30  1  0
 10 31  1  0
 11 32  1  0
 12 33  1  0
 16 34  1  1
 17 35  1  0
 17 36  1  0
 18 37  1  0
 18 38  1  0
 19 39  1  1
 20 40  1  0
 20 41  1  0
 23 42  1  0
 23 43  1  0
 24 44  1  0
 24 45  1  0
M  END
>  <meeko>  (7) 
{"is_sidechain": [false], "free_energy": -7.787, "intermolecular_energy": -9.757, "internal_energy": -0.248}

$$$$
4ivc_ligand
     RDKit          3D

 45 48  0  0  0  0  0  0  0  0999 V2000
   -1.9480   -1.5880    9.4950 C   0  0  0  0  0  0  0  0  0  0  0  0
   -2.7520   -0.8360   10.5450 C   0  0  1  0  0  0  0  0  0  0  0  0
   -2.1750   -1.0820   11.8270 O   0  0  0  0  0  0  0  0  0  0  0  0
   -2.6960    0.6490   10.3390 C   0  0  0  0  0  0  0  0  0  0  0  0
   -3.7680    1.4220   10.4420 N   0  0  0  0  0  0  0  0  0  0  0  0
   -3.3650    2.6740   10.0760 C   0  0  0  0  0  0  0  0  0  0  0  0
   -4.0690    3.8890    9.9810 C   0  0  0  0  0  0  0  0  0  0  0  0
   -3.4890    5.0480    9.5450 N   0  0  0  0  0  0  0  0  0  0  0  0
   -2.1990    4.9330    9.1880 C   0  0  0  0  0  0  0  0  0  0  0  0
   -1.3960    5.9160    8.6850 N   0  0  0  0  0  0  0  0  0  0  0  0
   -0.1520    5.3920    8.3980 C   0  0  0  0  0  0  0  0  0  0  0  0
   -0.1490    4.0480    8.7360 C   0  0  0  0  0  0  0  0  0  0  0  0
   -1.4410    3.7840    9.2550 C   0  0  0  0  0  0  0  0  0  0  0  0
   -2.0260    2.6470    9.7320 C   0  0  0  0  0  0  0  0  0  0  0  0
   -1.5730    1.3910    9.9660 N   0  0  0  0  0  0  0  0  0  0  0  0
   -0.2020    0.9000    9.8640 C   0  0  2  0  0  0  0  0  0  0  0  0
    0.7330    1.5790   10.8720 C   0  0  0  0  0  0  0  0  0  0  0  0
    2.1160    0.9310   10.8550 C   0  0  0  0  0  0  0  0  0  0  0  0
    2.7300    0.7710    9.4450 C   0  0  1  0  0  0  0  0  0  0  0  0
    3.1160   -0.7030    9.1970 C   0  0  0  0  0  0  0  0  0  0  0  0
    4.4990   -0.8480    8.7210 C   0  0  0  0  0  0  0  0  0  0  0  0
    5.5890   -0.9600    8.3400 N   0  0  0  0  0  0  0  0  0  0  0  0
    1.8150    1.3470    8.3480 C   0  0  0  0  0  0  0  0  0  0  0  0
    0.3710    0.8500    8.4320 C   0  0  0  0  0  0  0  0  0  0  0  0
   -1.2315   -2.2582    9.9924 H   0  0  0  0  0  0  0  0  0  0  0  0
   -2.6291   -2.1807    8.8667 H   0  0  0  0  0  0  0  0  0  0  0  0
   -1.4021   -0.8688    8.8667 H   0  0  0  0  0  0  0  0  0  0  0  0
   -3.7931   -1.1828   10.4691 H   0  0  0  0  0  0  0  0  0  0  0  0
   -2.1550   -0.2120   12.2720 H   0  0  0  0  0  0  0  0  0  0  0  0
   -5.1303    3.9070   10.2696 H   0  0  0  0  0  0  0  0  0  0  0  0
   -1.7000    6.8660    8.5300 H   0  0  0  0  0  0  0  0  0  0  0  0
    0.6959    5.9484    7.9720 H   0  0  0  0  0  0  0  0  0  0  0  0
    0.6818    3.3357    8.6248 H   0  0  0  0  0  0  0  0  0  0  0  0
   -0.2615   -0.1607   10.1491 H   0  0  0  0  0  0  0  0  0  0  0  0
    0.8308    2.6434   10.6121 H   0  0  0  0  0  0  0  0  0  0  0  0
    0.3049    1.4671   11.8791 H   0  0  0  0  0  0  0  0  0  0  0  0
    2.7947    1.5531   11.4570 H   0  0  0  0  0  0  0  0  0  0  0  0
    1.9916   -0.0842   11.2599 H   0  0  0  0  0  0  0  0  0  0  0  0
    3.6539    1.3661    9.3963 H   0  0  0  0  0  0  0  0  0  0  0  0
    3.0065   -1.2601   10.1392 H   0  0  0  0  0  0  0  0  0  0  0  0
    2.4495   -1.0971    8.4157 H   0  0  0  0  0  0  0  0  0  0  0  0
    1.8113    2.4433    8.4384 H   0  0  0  0  0  0  0  0  0  0  0  0
    2.2171    1.0083    7.3818 H   0  0  0  0  0  0  0  0  0  0  0  0
   -0.2546    1.4794    7.7820 H   0  0  0  0  0  0  0  0  0  0  0  0
    0.3664   -0.2026    8.1125 H   0  0  0  0  0  0  0  0  0  0  0  0
  1  2  1  0
  2  3  1  0
  2  4  1  0
  4  5  2  0
  5  6  1  0
  6  7  2  0
  7  8  1  0
  8  9  2  0
  9 10  1  0
 10 11  1  0
 11 12  2  0
 12 13  1  0
 13 14  2  0
 14 15  1  0
 15 16  1  0
 16 17  1  0
 17 18  1  0
 18 19  1  0
 19 20  1  0
 20 21  1  0
 21 22  3  0
 19 23  1  0
 23 24  1  0
 15  4  1  0
 24 16  1  0
 14  6  1  0
 13  9  1  0
  1 25  1  0
  1 26  1  0
  1 27  1  0
  2 28  1  1
  3 29  1  0
  7 30  1  0
 10 31  1  0
 11 32  1  0
 12 33  1  0
 16 34  1  6
 17 35  1  0
 17 36  1  0
 18 37  1  0
 18 38  1  0
 19 39  1  6
 20 40  1  0
 20 41  1  0
 23 42  1  0
 23 43  1  0
 24 44  1  0
 24 45  1  0
M  END
>  <meeko>  (8) 
{"is_sidechain": [false], "free_energy": -7.575, "intermolecular_energy": -9.873, "internal_energy": 0.123}

$$$$
