
     RDKit          3D

 12 13  0  0  0  0  0  0  0  0999 V2000
    1.1110    0.9280    7.0220 O   0  0  0  0  0  0  0  0  0  0  0  0
    0.3050    1.6120    6.0810 C   0  0  2  0  0  0  0  0  0  0  0  0
    0.0720    0.6830    4.8840 C   0  0  2  0  0  0  0  0  0  0  0  0
   -0.3480   -0.6110    5.3220 O   0  0  0  0  0  0  0  0  0  0  0  0
    1.3180    0.5530    3.9880 C   0  0  1  0  0  0  0  0  0  0  0  0
    0.7830    0.3170    2.6760 O   0  0  0  0  0  0  0  0  0  0  0  0
    2.1780    1.8740    3.9770 C   0  0  2  0  0  0  0  0  0  0  0  0
    2.9190    1.9910    2.8250 O   0  0  0  0  0  0  0  0  0  0  0  0
    3.1090    2.0610    5.2040 C   0  0  0  0  0  0  0  0  0  0  0  0
    2.3980    3.0260    6.1290 C   0  0  0  0  0  0  0  0  0  0  0  0
    0.9740    2.9670    5.6200 C   0  0  1  0  0  0  0  0  0  0  0  0
    1.2690    2.9710    4.1670 N   0  0  0  0  0  0  0  0  0  0  0  0
  2  1  1  1
  3  2  1  0
  3  4  1  1
  5  3  1  0
  5  6  1  6
  7  5  1  0
  7  8  1  6
  9  7  1  0
 10  9  1  0
 11 10  1  1
 11  2  1  0
 12  7  1  0
 12 11  1  0
M  CHG  1  12   1
M  END
$$$$
