
     RDKit          3D

 29 32  0  0  0  0  0  0  0  0999 V2000
    6.1210   15.9580  -19.2580 C   0  0  0  0  0  0  0  0  0  0  0  0
    6.1640   17.2980  -18.8550 O   0  0  0  0  0  0  0  0  0  0  0  0
    5.5210   17.6500  -17.7120 C   0  0  0  0  0  0  0  0  0  0  0  0
    5.7930   18.9010  -17.2090 C   0  0  0  0  0  0  0  0  0  0  0  0
    5.1930   19.3340  -16.0240 C   0  0  0  0  0  0  0  0  0  0  0  0
    4.3080   18.4590  -15.3710 C   0  0  0  0  0  0  0  0  0  0  0  0
    4.0110   17.2150  -15.8850 C   0  0  0  0  0  0  0  0  0  0  0  0
    4.6190   16.7770  -17.0530 C   0  0  0  0  0  0  0  0  0  0  0  0
    3.1020   16.5920  -15.0030 C   0  0  0  0  0  0  0  0  0  0  0  0
    2.8760   17.4800  -13.9960 C   0  0  0  0  0  0  0  0  0  0  0  0
    1.9820   17.2340  -12.8310 C   0  0  0  0  0  0  0  0  0  0  0  0
    0.6600   17.0220  -13.2720 N   0  0  0  0  0  0  0  0  0  0  0  0
   -0.5400   16.9860  -12.1230 S   0  0  2  0  0  0  0  0  0  0  0  0
   -1.7710   16.8520  -12.8460 O   0  0  0  0  0  0  0  0  0  0  0  0
   -0.3930   18.1630  -11.3060 O   0  0  0  0  0  0  0  0  0  0  0  0
   -0.3600   15.5780  -11.1340 C   0  0  0  0  0  0  0  0  0  0  0  0
   -0.7650   14.3500  -11.4660 C   0  0  0  0  0  0  0  0  0  0  0  0
   -0.4970   13.5390  -10.3490 C   0  0  0  0  0  0  0  0  0  0  0  0
   -0.7010   12.1960  -10.0610 C   0  0  0  0  0  0  0  0  0  0  0  0
   -0.3310   11.7030   -8.8140 C   0  0  0  0  0  0  0  0  0  0  0  0
    0.2510   12.5300   -7.8720 C   0  0  0  0  0  0  0  0  0  0  0  0
    0.4520   13.8850   -8.1610 C   0  0  0  0  0  0  0  0  0  0  0  0
    0.0710   14.3690   -9.4010 C   0  0  0  0  0  0  0  0  0  0  0  0
    0.1680   15.6470   -9.8880 O   0  0  0  0  0  0  0  0  0  0  0  0
    3.6090   18.6120  -14.2100 N   0  0  0  0  0  0  0  0  0  0  0  0
    3.7110   19.7690  -13.3430 C   0  0  0  0  0  0  0  0  0  0  0  0
    2.5360   20.6890  -13.2880 C   0  0  0  0  0  0  0  0  0  0  0  0
    1.5820   20.4970  -14.0370 O   0  0  0  0  0  0  0  0  0  0  0  0
    2.6180   21.6310  -12.4720 O   0  0  0  0  0  0  0  0  0  0  0  0
  2  1  1  0
  3  2  1  0
  4  3  2  0
  5  4  1  0
  6  5  2  0
  7  6  1  0
  8  7  2  0
  8  3  1  0
  9  7  1  0
 10  9  2  0
 11 10  1  0
 12 11  1  0
 13 12  1  6
 14 13  2  0
 15 13  2  0
 16 13  1  0
 17 16  2  0
 18 17  1  0
 19 18  2  0
 20 19  1  0
 21 20  2  0
 22 21  1  0
 23 22  2  0
 23 18  1  0
 24 16  1  0
 24 23  1  0
 25 10  1  0
 25  6  1  0
 26 25  1  0
 27 26  1  0
 28 27  2  0
 29 27  1  0
M  CHG  1  29  -1
M  END
$$$$
