
     RDKit          3D

 22 24  0  0  0  0  0  0  0  0999 V2000
   14.5290   15.2520   16.3800 C   0  0  0  0  0  0  0  0  0  0  0  0
   13.3970   14.9260   17.1040 O   0  0  0  0  0  0  0  0  0  0  0  0
   13.5910   14.2570   18.2720 C   0  0  0  0  0  0  0  0  0  0  0  0
   14.8690   14.1070   18.7960 C   0  0  0  0  0  0  0  0  0  0  0  0
   15.0790   13.4130   19.9740 C   0  0  0  0  0  0  0  0  0  0  0  0
   16.3340   13.2790   20.4750 O   0  0  0  0  0  0  0  0  0  0  0  0
   13.9930   12.8640   20.6370 C   0  0  0  0  0  0  0  0  0  0  0  0
   12.7270   13.0210   20.1180 C   0  0  0  0  0  0  0  0  0  0  0  0
   12.4800   13.7120   18.9460 C   0  0  0  0  0  0  0  0  0  0  0  0
   11.1000   13.9160   18.3890 C   0  0  0  0  0  0  0  0  0  0  0  0
    9.9090   13.3470   18.8540 C   0  0  0  0  0  0  0  0  0  0  0  0
    9.9200   12.2880   19.9110 C   0  0  0  0  0  0  0  0  0  0  0  0
    8.7780   11.3420   19.8100 C   0  0  0  0  0  0  0  0  0  0  0  0
    7.4870   12.1210   19.7850 C   0  0  0  0  0  0  0  0  0  0  0  0
    7.5200   13.0990   18.7560 N   0  0  0  0  0  0  0  0  0  0  0  0
    8.5790   13.7310   18.3460 C   0  0  0  0  0  0  0  0  0  0  0  0
    8.3150   14.8410   17.4300 C   0  0  0  0  0  0  0  0  0  0  0  0
    8.2220   16.1430   17.9130 C   0  0  0  0  0  0  0  0  0  0  0  0
    7.9560   17.1830   17.0440 C   0  0  0  0  0  0  0  0  0  0  0  0
    7.7240   16.8740   15.6940 C   0  0  0  0  0  0  0  0  0  0  0  0
    7.7560   15.5980   15.2470 N   0  0  0  0  0  0  0  0  0  0  0  0
    8.0360   14.5960   16.0710 C   0  0  0  0  0  0  0  0  0  0  0  0
  2  1  1  0
  3  2  1  0
  4  3  2  0
  5  4  1  0
  6  5  1  0
  7  5  2  0
  8  7  1  0
  9  8  2  0
  9  3  1  0
 10  9  1  0
 11 10  2  3
 12 11  1  0
 13 12  1  0
 14 13  1  0
 15 14  1  0
 16 15  2  0
 16 11  1  0
 17 16  1  0
 18 17  2  0
 19 18  1  0
 20 19  2  0
 21 20  1  0
 22 21  2  0
 22 17  1  0
M  CHG  1  15   1
M  END
$$$$
