
     RDKit          3D

 21 22  0  0  0  0  0  0  0  0999 V2000
   -1.2190   -4.8860    3.1360 O   0  0  0  0  0  0  0  0  0  0  0  0
   -2.0180   -3.9340    3.0980 C   0  0  0  0  0  0  0  0  0  0  0  0
   -3.4080   -4.1370    2.9120 C   0  0  0  0  0  0  0  0  0  0  0  0
   -4.2630   -3.0610    2.8880 C   0  0  0  0  0  0  0  0  0  0  0  0
   -3.7750   -1.7830    3.0290 N   0  0  0  0  0  0  0  0  0  0  0  0
   -4.6800   -0.6050    3.0270 C   0  0  2  0  0  0  0  0  0  0  0  0
   -5.9480   -0.9890    3.5680 O   0  0  0  0  0  0  0  0  0  0  0  0
   -6.9750   -0.7240    2.6090 C   0  0  2  0  0  0  0  0  0  0  0  0
   -8.0240   -1.8190    2.6710 C   0  0  0  0  0  0  0  0  0  0  0  0
   -7.3920   -3.1040    2.4830 O   0  0  0  0  0  0  0  0  0  0  0  0
   -8.1910   -4.4960    2.7180 P   0  0  0  0  0  0  0  0  0  0  0  0
   -9.5320   -4.3370    2.0510 O   0  0  0  0  0  0  0  0  0  0  0  0
   -8.2990   -4.6890    4.2110 O   0  0  0  0  0  0  0  0  0  0  0  0
   -7.3610   -5.5760    2.0720 O   0  0  0  0  0  0  0  0  0  0  0  0
   -6.2770   -0.6530    1.2670 C   0  0  1  0  0  0  0  0  0  0  0  0
   -6.9650    0.1570    0.3430 O   0  0  0  0  0  0  0  0  0  0  0  0
   -4.9210   -0.0910    1.6250 C   0  0  1  0  0  0  0  0  0  0  0  0
   -4.9550    1.3450    1.6450 O   0  0  0  0  0  0  0  0  0  0  0  0
   -2.4220   -1.5740    3.2010 C   0  0  0  0  0  0  0  0  0  0  0  0
   -1.9830   -0.4300    3.3060 O   0  0  0  0  0  0  0  0  0  0  0  0
   -1.5750   -2.6480    3.2380 N   0  0  0  0  0  0  0  0  0  0  0  0
  2  1  2  0
  3  2  1  0
  4  3  2  0
  5  4  1  0
  6  5  1  6
  7  6  1  0
  8  7  1  0
  8  9  1  6
 10  9  1  0
 11 10  1  0
 12 11  2  0
 13 11  1  0
 14 11  1  0
 15  8  1  0
 15 16  1  6
 17 15  1  0
 17  6  1  0
 17 18  1  1
 19  5  1  0
 20 19  2  0
 21 19  1  0
 21  2  1  0
M  CHG  2  13  -1  14  -1
M  END
$$$$
