
     RDKit          3D

 15 16  0  0  0  0  0  0  0  0999 V2000
   15.1820   -7.2020   -4.9770 C   0  0  0  0  0  0  0  0  0  0  0  0
   14.3130   -6.1540   -4.4350 N   0  0  0  0  0  0  0  0  0  0  0  0
   12.9100   -6.4270   -4.7620 C   0  0  0  0  0  0  0  0  0  0  0  0
   11.9920   -5.3490   -4.2000 C   0  0  0  0  0  0  0  0  0  0  0  0
   12.2330   -5.1520   -2.7650 N   0  0  0  0  0  0  0  0  0  0  0  0
   11.2940   -4.3740   -2.0750 C   0  0  0  0  0  0  0  0  0  0  0  0
    9.9380   -4.4600   -2.3410 C   0  0  0  0  0  0  0  0  0  0  0  0
    9.0190   -3.7200   -1.6180 C   0  0  0  0  0  0  0  0  0  0  0  0
    9.4500   -2.8730   -0.6220 C   0  0  0  0  0  0  0  0  0  0  0  0
   10.8010   -2.7670   -0.3280 C   0  0  0  0  0  0  0  0  0  0  0  0
   11.2780   -1.8660    0.7820 C   0  0  0  0  0  0  0  0  0  0  0  0
   12.1660   -2.5440    1.7230 N   0  0  0  0  0  0  0  0  0  0  0  0
   11.7230   -3.5120   -1.0620 C   0  0  0  0  0  0  0  0  0  0  0  0
   13.6500   -4.9470   -2.4000 C   0  0  0  0  0  0  0  0  0  0  0  0
   14.5060   -6.0570   -2.9740 C   0  0  0  0  0  0  0  0  0  0  0  0
  2  1  1  0
  3  2  1  0
  4  3  1  0
  5  4  1  0
  6  5  1  0
  7  6  2  0
  8  7  1  0
  9  8  2  0
 10  9  1  0
 11 10  1  0
 12 11  1  0
 13 10  2  0
 13  6  1  0
 14  5  1  0
 15  2  1  0
 15 14  1  0
M  CHG  2   2   1  12   1
M  END
$$$$
