3coy_ligand
     RDKit          3D

 57 59  0  0  0  0  0  0  0  0999 V2000
    5.4470  -13.0680   -3.8470 C   0  0  0  0  0  0  0  0  0  0  0  0
    6.8020  -13.6960   -3.4540 C   0  0  0  0  0  0  0  0  0  0  0  0
    7.4220  -12.7970   -2.3610 C   0  0  0  0  0  0  0  0  0  0  0  0
    6.5310  -15.0880   -2.8510 C   0  0  0  0  0  0  0  0  0  0  0  0
    7.7410  -13.7560   -4.6950 C   0  0  1  0  0  0  0  0  0  0  0  0
    9.1250  -13.2550   -4.3510 N   0  0  0  0  0  0  0  0  0  0  0  0
    7.8340  -15.1650   -5.3290 C   0  0  0  0  0  0  0  0  0  0  0  0
    8.7290  -15.9320   -4.9880 O   0  0  0  0  0  0  0  0  0  0  0  0
    6.9110  -15.4590   -6.3360 N   0  0  0  0  0  0  0  0  0  0  0  0
    6.6720  -16.9810   -6.9560 S   0  0  0  0  0  0  0  0  0  0  0  0
    7.7320  -17.1460   -7.9240 O   0  0  0  0  0  0  0  0  0  0  0  0
    5.2830  -17.0660   -7.3330 O   0  0  0  0  0  0  0  0  0  0  0  0
    6.9250  -17.9820   -5.7100 O   0  0  0  0  0  0  0  0  0  0  0  0
    7.6490  -19.1830   -5.9460 C   0  0  0  0  0  0  0  0  0  0  0  0
    6.8250  -20.4090   -5.5270 C   0  0  1  0  0  0  0  0  0  0  0  0
    5.7360  -20.5870   -6.4610 O   0  0  0  0  0  0  0  0  0  0  0  0
    6.0390  -21.6900   -7.3330 C   0  0  1  0  0  0  0  0  0  0  0  0
    5.9500  -21.2780   -8.7320 N   0  0  0  0  0  0  0  0  0  0  0  0
    5.9300  -19.9580   -9.1380 C   0  0  0  0  0  0  0  0  0  0  0  0
    5.6890  -19.8320  -10.4280 N   0  0  0  0  0  0  0  0  0  0  0  0
    5.6850  -21.1310  -10.8910 C   0  0  0  0  0  0  0  0  0  0  0  0
    5.4600  -21.6420  -12.1770 C   0  0  0  0  0  0  0  0  0  0  0  0
    5.2320  -20.8020  -13.2850 N   0  0  0  0  0  0  0  0  0  0  0  0
    5.3280  -22.9680  -12.3400 N   0  0  0  0  0  0  0  0  0  0  0  0
    5.5050  -23.7600  -11.2560 C   0  0  0  0  0  0  0  0  0  0  0  0
    5.7180  -23.3770   -9.9850 N   0  0  0  0  0  0  0  0  0  0  0  0
    5.8000  -22.0440   -9.8590 C   0  0  0  0  0  0  0  0  0  0  0  0
    7.4440  -22.1990   -6.9710 C   0  0  2  0  0  0  0  0  0  0  0  0
    7.5670  -23.6190   -7.0730 O   0  0  0  0  0  0  0  0  0  0  0  0
    7.6000  -21.7230   -5.5390 C   0  0  2  0  0  0  0  0  0  0  0  0
    6.9670  -22.6540   -4.6510 O   0  0  0  0  0  0  0  0  0  0  0  0
    4.8858  -12.8079   -2.9374 H   0  0  0  0  0  0  0  0  0  0  0  0
    5.6227  -12.1595   -4.4418 H   0  0  0  0  0  0  0  0  0  0  0  0
    4.8673  -13.7893   -4.4418 H   0  0  0  0  0  0  0  0  0  0  0  0
    7.1526  -13.1876   -1.3686 H   0  0  0  0  0  0  0  0  0  0  0  0
    8.5168  -12.7916   -2.4681 H   0  0  0  0  0  0  0  0  0  0  0  0
    7.0380  -11.7718   -2.4681 H   0  0  0  0  0  0  0  0  0  0  0  0
    6.5441  -15.0209   -1.7531 H   0  0  0  0  0  0  0  0  0  0  0  0
    5.5462  -15.4467   -3.1847 H   0  0  0  0  0  0  0  0  0  0  0  0
    7.3093  -15.7900   -3.1847 H   0  0  0  0  0  0  0  0  0  0  0  0
    7.2851  -13.0952   -5.4470 H   0  0  0  0  0  0  0  0  0  0  0  0
    9.2110  -12.2510   -4.1740 H   0  0  0  0  0  0  0  0  0  0  0  0
    9.4990  -13.7420   -3.5100 H   0  0  0  0  0  0  0  0  0  0  0  0
    9.7970  -13.5120   -5.1000 H   0  0  0  0  0  0  0  0  0  0  0  0
    6.1920  -14.8180   -6.6580 H   0  0  0  0  0  0  0  0  0  0  0  0
    7.8853  -19.2567   -7.0178 H   0  0  0  0  0  0  0  0  0  0  0  0
    8.5734  -19.1597   -5.3503 H   0  0  0  0  0  0  0  0  0  0  0  0
    6.5010  -20.2022   -4.4963 H   0  0  0  0  0  0  0  0  0  0  0  0
    5.3108  -22.5039   -7.2017 H   0  0  0  0  0  0  0  0  0  0  0  0
    6.0965  -19.1072   -8.4609 H   0  0  0  0  0  0  0  0  0  0  0  0
    5.0770  -21.4060  -14.1000 H   0  0  0  0  0  0  0  0  0  0  0  0
    4.3600  -20.3040  -13.0710 H   0  0  0  0  0  0  0  0  0  0  0  0
    5.4704  -24.8445  -11.4366 H   0  0  0  0  0  0  0  0  0  0  0  0
    8.2210  -21.8250   -7.6539 H   0  0  0  0  0  0  0  0  0  0  0  0
    8.2680  -23.8070   -7.7280 H   0  0  0  0  0  0  0  0  0  0  0  0
    8.6488  -21.6216   -5.2233 H   0  0  0  0  0  0  0  0  0  0  0  0
    7.6510  -23.2700   -4.3240 H   0  0  0  0  0  0  0  0  0  0  0  0
  1  2  1  0
  2  3  1  0
  2  4  1  0
  2  5  1  0
  5  6  1  0
  5  7  1  0
  7  8  2  0
  7  9  1  0
  9 10  1  0
 10 11  2  0
 10 12  2  0
 10 13  1  0
 13 14  1  0
 14 15  1  0
 15 16  1  0
 16 17  1  0
 17 18  1  0
 18 19  1  0
 19 20  2  0
 20 21  1  0
 21 22  2  0
 22 23  1  0
 22 24  1  0
 24 25  2  0
 25 26  1  0
 26 27  2  0
 17 28  1  0
 28 29  1  0
 28 30  1  0
 30 31  1  0
 30 15  1  0
 27 18  1  0
 27 21  1  0
  1 32  1  0
  1 33  1  0
  1 34  1  0
  3 35  1  0
  3 36  1  0
  3 37  1  0
  4 38  1  0
  4 39  1  0
  4 40  1  0
  5 41  1  6
  6 42  1  0
  6 43  1  0
  6 44  1  0
  9 45  1  0
 14 46  1  0
 14 47  1  0
 15 48  1  1
 17 49  1  6
 19 50  1  0
 23 51  1  0
 23 52  1  0
 25 53  1  0
 28 54  1  6
 29 55  1  0
 30 56  1  1
 31 57  1  0
M  CHG  1   6   1
M  END
>  <meeko>  (1) 
{"is_sidechain": [false], "free_energy": -8.654, "intermolecular_energy": -13.207, "internal_energy": -0.891}

$$$$
3coy_ligand
     RDKit          3D

 57 59  0  0  0  0  0  0  0  0999 V2000
    8.0880  -13.0090   -4.3570 C   0  0  0  0  0  0  0  0  0  0  0  0
    6.8540  -13.9380   -4.3040 C   0  0  0  0  0  0  0  0  0  0  0  0
    5.6560  -13.0790   -3.8410 C   0  0  0  0  0  0  0  0  0  0  0  0
    6.5730  -14.4480   -5.7300 C   0  0  0  0  0  0  0  0  0  0  0  0
    7.1050  -15.0970   -3.2940 C   0  0  1  0  0  0  0  0  0  0  0  0
    5.8680  -15.3740   -2.4700 N   0  0  0  0  0  0  0  0  0  0  0  0
    7.5930  -16.4030   -3.9660 C   0  0  0  0  0  0  0  0  0  0  0  0
    8.6060  -16.3940   -4.6580 O   0  0  0  0  0  0  0  0  0  0  0  0
    6.7850  -17.5310   -3.7990 N   0  0  0  0  0  0  0  0  0  0  0  0
    7.2510  -19.0710   -4.2100 S   0  0  0  0  0  0  0  0  0  0  0  0
    6.4800  -19.9260   -3.3370 O   0  0  0  0  0  0  0  0  0  0  0  0
    8.6930  -19.0880   -4.2060 O   0  0  0  0  0  0  0  0  0  0  0  0
    6.7440  -19.2660   -5.7350 O   0  0  0  0  0  0  0  0  0  0  0  0
    7.5830  -18.8080   -6.7880 C   0  0  0  0  0  0  0  0  0  0  0  0
    6.8020  -17.9070   -7.7550 C   0  0  1  0  0  0  0  0  0  0  0  0
    6.6950  -18.5700   -9.0350 O   0  0  0  0  0  0  0  0  0  0  0  0
    5.3590  -19.0780   -9.1920 C   0  0  1  0  0  0  0  0  0  0  0  0
    5.3840  -20.5080   -9.4930 N   0  0  0  0  0  0  0  0  0  0  0  0
    5.6340  -21.4810   -8.5450 C   0  0  0  0  0  0  0  0  0  0  0  0
    5.7610  -22.6810   -9.0780 N   0  0  0  0  0  0  0  0  0  0  0  0
    5.4470  -22.4860  -10.4060 C   0  0  0  0  0  0  0  0  0  0  0  0
    5.4250  -23.3860  -11.4810 C   0  0  0  0  0  0  0  0  0  0  0  0
    5.7060  -24.7570  -11.3130 N   0  0  0  0  0  0  0  0  0  0  0  0
    5.2620  -22.9130  -12.7260 N   0  0  0  0  0  0  0  0  0  0  0  0
    5.0390  -21.5850  -12.8760 C   0  0  0  0  0  0  0  0  0  0  0  0
    5.0430  -20.6400  -11.9210 N   0  0  0  0  0  0  0  0  0  0  0  0
    5.2540  -21.1490  -10.6970 C   0  0  0  0  0  0  0  0  0  0  0  0
    4.5890  -18.7760   -7.8950 C   0  0  2  0  0  0  0  0  0  0  0  0
    3.2200  -18.4360   -8.1240 O   0  0  0  0  0  0  0  0  0  0  0  0
    5.3700  -17.6090   -7.3220 C   0  0  2  0  0  0  0  0  0  0  0  0
    4.9340  -16.3890   -7.9370 O   0  0  0  0  0  0  0  0  0  0  0  0
    8.4092  -12.7672   -3.3331 H   0  0  0  0  0  0  0  0  0  0  0  0
    8.9067  -13.5168   -4.8878 H   0  0  0  0  0  0  0  0  0  0  0  0
    7.8264  -12.0818   -4.8878 H   0  0  0  0  0  0  0  0  0  0  0  0
    5.6243  -13.0562   -2.7417 H   0  0  0  0  0  0  0  0  0  0  0  0
    5.7688  -12.0547   -4.2258 H   0  0  0  0  0  0  0  0  0  0  0  0
    4.7221  -13.5145   -4.2258 H   0  0  0  0  0  0  0  0  0  0  0  0
    6.0428  -15.4103   -5.6774 H   0  0  0  0  0  0  0  0  0  0  0  0
    5.9511  -13.7155   -6.2655 H   0  0  0  0  0  0  0  0  0  0  0  0
    7.5244  -14.5824   -6.2655 H   0  0  0  0  0  0  0  0  0  0  0  0
    7.9166  -14.7511   -2.6369 H   0  0  0  0  0  0  0  0  0  0  0  0
    5.0060  -14.9220   -2.7840 H   0  0  0  0  0  0  0  0  0  0  0  0
    5.6730  -16.3950   -2.4240 H   0  0  0  0  0  0  0  0  0  0  0  0
    6.0310  -15.1110   -1.4780 H   0  0  0  0  0  0  0  0  0  0  0  0
    5.9220  -17.5430   -3.2630 H   0  0  0  0  0  0  0  0  0  0  0  0
    8.4201  -18.2372   -6.3597 H   0  0  0  0  0  0  0  0  0  0  0  0
    7.9586  -19.6797   -7.3439 H   0  0  0  0  0  0  0  0  0  0  0  0
    7.3627  -16.9612   -7.7864 H   0  0  0  0  0  0  0  0  0  0  0  0
    4.8533  -18.5914  -10.0390 H   0  0  0  0  0  0  0  0  0  0  0  0
    5.7177  -21.2781   -7.4671 H   0  0  0  0  0  0  0  0  0  0  0  0
    5.8020  -25.1660  -12.2490 H   0  0  0  0  0  0  0  0  0  0  0  0
    6.6170  -24.7900  -10.8410 H   0  0  0  0  0  0  0  0  0  0  0  0
    4.8302  -21.2402  -13.8995 H   0  0  0  0  0  0  0  0  0  0  0  0
    4.5273  -19.6456   -7.2242 H   0  0  0  0  0  0  0  0  0  0  0  0
    2.8120  -18.2570   -7.2540 H   0  0  0  0  0  0  0  0  0  0  0  0
    5.2505  -17.4952   -6.2344 H   0  0  0  0  0  0  0  0  0  0  0  0
    5.5890  -15.6960   -7.7270 H   0  0  0  0  0  0  0  0  0  0  0  0
  1  2  1  0
  2  3  1  0
  2  4  1  0
  2  5  1  0
  5  6  1  0
  5  7  1  0
  7  8  2  0
  7  9  1  0
  9 10  1  0
 10 11  2  0
 10 12  2  0
 10 13  1  0
 13 14  1  0
 14 15  1  0
 15 16  1  0
 16 17  1  0
 17 18  1  0
 18 19  1  0
 19 20  2  0
 20 21  1  0
 21 22  2  0
 22 23  1  0
 22 24  1  0
 24 25  2  0
 25 26  1  0
 26 27  2  0
 17 28  1  0
 28 29  1  0
 28 30  1  0
 30 31  1  0
 30 15  1  0
 27 18  1  0
 27 21  1  0
  1 32  1  0
  1 33  1  0
  1 34  1  0
  3 35  1  0
  3 36  1  0
  3 37  1  0
  4 38  1  0
  4 39  1  0
  4 40  1  0
  5 41  1  1
  6 42  1  0
  6 43  1  0
  6 44  1  0
  9 45  1  0
 14 46  1  0
 14 47  1  0
 15 48  1  6
 17 49  1  6
 19 50  1  0
 23 51  1  0
 23 52  1  0
 25 53  1  0
 28 54  1  1
 29 55  1  0
 30 56  1  1
 31 57  1  0
M  CHG  1   6   1
M  END
>  <meeko>  (2) 
{"is_sidechain": [false], "free_energy": -8.559, "intermolecular_energy": -13.489, "internal_energy": -0.464}

$$$$
3coy_ligand
     RDKit          3D

 57 59  0  0  0  0  0  0  0  0999 V2000
    5.7540  -17.4330   -5.4340 C   0  0  0  0  0  0  0  0  0  0  0  0
    6.9910  -16.5660   -5.7570 C   0  0  0  0  0  0  0  0  0  0  0  0
    6.4780  -15.2590   -6.4000 C   0  0  0  0  0  0  0  0  0  0  0  0
    7.6950  -16.2190   -4.4310 C   0  0  0  0  0  0  0  0  0  0  0  0
    7.9260  -17.3210   -6.7480 C   0  0  1  0  0  0  0  0  0  0  0  0
    8.8090  -18.3050   -6.0170 N   0  0  0  0  0  0  0  0  0  0  0  0
    7.1630  -18.0420   -7.8860 C   0  0  0  0  0  0  0  0  0  0  0  0
    6.6950  -17.3930   -8.8160 O   0  0  0  0  0  0  0  0  0  0  0  0
    6.9820  -19.4190   -7.7410 N   0  0  0  0  0  0  0  0  0  0  0  0
    6.4290  -20.4120   -8.9530 S   0  0  0  0  0  0  0  0  0  0  0  0
    7.5080  -20.4440   -9.9130 O   0  0  0  0  0  0  0  0  0  0  0  0
    5.1120  -19.9430   -9.3090 O   0  0  0  0  0  0  0  0  0  0  0  0
    6.2820  -21.8690   -8.2630 O   0  0  0  0  0  0  0  0  0  0  0  0
    6.1580  -21.9350   -6.8480 C   0  0  0  0  0  0  0  0  0  0  0  0
    7.5370  -21.8690   -6.1750 C   0  0  1  0  0  0  0  0  0  0  0  0
    7.4510  -21.0220   -5.0070 O   0  0  0  0  0  0  0  0  0  0  0  0
    7.4490  -21.8450   -3.8270 C   0  0  1  0  0  0  0  0  0  0  0  0
    6.2880  -21.5440   -2.9910 N   0  0  0  0  0  0  0  0  0  0  0  0
    5.3230  -22.4760   -2.6640 C   0  0  0  0  0  0  0  0  0  0  0  0
    4.2970  -21.9370   -2.0350 N   0  0  0  0  0  0  0  0  0  0  0  0
    4.6830  -20.6280   -1.8360 C   0  0  0  0  0  0  0  0  0  0  0  0
    4.0040  -19.5570   -1.2390 C   0  0  0  0  0  0  0  0  0  0  0  0
    2.7260  -19.7080   -0.6660 N   0  0  0  0  0  0  0  0  0  0  0  0
    4.5240  -18.3220   -1.3290 N   0  0  0  0  0  0  0  0  0  0  0  0
    5.7330  -18.1850   -1.9240 C   0  0  0  0  0  0  0  0  0  0  0  0
    6.4630  -19.1380   -2.5280 N   0  0  0  0  0  0  0  0  0  0  0  0
    5.8870  -20.3480   -2.4540 C   0  0  0  0  0  0  0  0  0  0  0  0
    7.4650  -23.3140   -4.2820 C   0  0  2  0  0  0  0  0  0  0  0  0
    8.2480  -24.1540   -3.4330 O   0  0  0  0  0  0  0  0  0  0  0  0
    8.0580  -23.2130   -5.6740 C   0  0  2  0  0  0  0  0  0  0  0  0
    9.4890  -23.1620   -5.5850 O   0  0  0  0  0  0  0  0  0  0  0  0
    5.6380  -17.5143   -4.3432 H   0  0  0  0  0  0  0  0  0  0  0  0
    4.8561  -16.9655   -5.8644 H   0  0  0  0  0  0  0  0  0  0  0  0
    5.8871  -18.4365   -5.8644 H   0  0  0  0  0  0  0  0  0  0  0  0
    6.1984  -14.5467   -5.6097 H   0  0  0  0  0  0  0  0  0  0  0  0
    7.2711  -14.8215   -7.0241 H   0  0  0  0  0  0  0  0  0  0  0  0
    5.5990  -15.4778   -7.0241 H   0  0  0  0  0  0  0  0  0  0  0  0
    7.0620  -16.5310   -3.5872 H   0  0  0  0  0  0  0  0  0  0  0  0
    8.6599  -16.7447   -4.3796 H   0  0  0  0  0  0  0  0  0  0  0  0
    7.8657  -15.1335   -4.3796 H   0  0  0  0  0  0  0  0  0  0  0  0
    8.5489  -16.5466   -7.2196 H   0  0  0  0  0  0  0  0  0  0  0  0
    9.4320  -17.9120   -5.3070 H   0  0  0  0  0  0  0  0  0  0  0  0
    8.2390  -19.0380   -5.5450 H   0  0  0  0  0  0  0  0  0  0  0  0
    9.3850  -18.8430   -6.6940 H   0  0  0  0  0  0  0  0  0  0  0  0
    7.3280  -19.9630   -6.9560 H   0  0  0  0  0  0  0  0  0  0  0  0
    5.5462  -21.0897   -6.5000 H   0  0  0  0  0  0  0  0  0  0  0  0
    5.6809  -22.8893   -6.5804 H   0  0  0  0  0  0  0  0  0  0  0  0
    8.2211  -21.4940   -6.9505 H   0  0  0  0  0  0  0  0  0  0  0  0
    8.3368  -21.6439   -3.2094 H   0  0  0  0  0  0  0  0  0  0  0  0
    5.4013  -23.5472   -2.9014 H   0  0  0  0  0  0  0  0  0  0  0  0
    2.1890  -20.3350   -1.2760 H   0  0  0  0  0  0  0  0  0  0  0  0
    2.8870  -20.1780    0.2320 H   0  0  0  0  0  0  0  0  0  0  0  0
    6.1685  -17.1750   -1.9113 H   0  0  0  0  0  0  0  0  0  0  0  0
    6.4686  -23.7791   -4.2524 H   0  0  0  0  0  0  0  0  0  0  0  0
    7.6530  -24.8380   -3.0660 H   0  0  0  0  0  0  0  0  0  0  0  0
    7.7938  -24.0603   -6.3239 H   0  0  0  0  0  0  0  0  0  0  0  0
    9.7230  -22.8630   -4.6850 H   0  0  0  0  0  0  0  0  0  0  0  0
  1  2  1  0
  2  3  1  0
  2  4  1  0
  2  5  1  0
  5  6  1  0
  5  7  1  0
  7  8  2  0
  7  9  1  0
  9 10  1  0
 10 11  2  0
 10 12  2  0
 10 13  1  0
 13 14  1  0
 14 15  1  0
 15 16  1  0
 16 17  1  0
 17 18  1  0
 18 19  1  0
 19 20  2  0
 20 21  1  0
 21 22  2  0
 22 23  1  0
 22 24  1  0
 24 25  2  0
 25 26  1  0
 26 27  2  0
 17 28  1  0
 28 29  1  0
 28 30  1  0
 30 31  1  0
 30 15  1  0
 27 18  1  0
 27 21  1  0
  1 32  1  0
  1 33  1  0
  1 34  1  0
  3 35  1  0
  3 36  1  0
  3 37  1  0
  4 38  1  0
  4 39  1  0
  4 40  1  0
  5 41  1  6
  6 42  1  0
  6 43  1  0
  6 44  1  0
  9 45  1  0
 14 46  1  0
 14 47  1  0
 15 48  1  6
 17 49  1  1
 19 50  1  0
 23 51  1  0
 23 52  1  0
 25 53  1  0
 28 54  1  6
 29 55  1  0
 30 56  1  6
 31 57  1  0
M  CHG  1   6   1
M  END
>  <meeko>  (3) 
{"is_sidechain": [false], "free_energy": -8.477, "intermolecular_energy": -12.735, "internal_energy": -1.092}

$$$$
3coy_ligand
     RDKit          3D

 57 59  0  0  0  0  0  0  0  0999 V2000
    5.9170  -13.1760   -4.3030 C   0  0  0  0  0  0  0  0  0  0  0  0
    6.8850  -14.3360   -3.9830 C   0  0  0  0  0  0  0  0  0  0  0  0
    8.2920  -13.8970   -4.4470 C   0  0  0  0  0  0  0  0  0  0  0  0
    6.9100  -14.5350   -2.4560 C   0  0  0  0  0  0  0  0  0  0  0  0
    6.4460  -15.6210   -4.7450 C   0  0  1  0  0  0  0  0  0  0  0  0
    7.2130  -15.7720   -6.0390 N   0  0  0  0  0  0  0  0  0  0  0  0
    6.5780  -16.9120   -3.9020 C   0  0  0  0  0  0  0  0  0  0  0  0
    7.6780  -17.4350   -3.7500 O   0  0  0  0  0  0  0  0  0  0  0  0
    5.3910  -17.4620   -3.4120 N   0  0  0  0  0  0  0  0  0  0  0  0
    5.3320  -18.6790   -2.2830 S   0  0  0  0  0  0  0  0  0  0  0  0
    3.9330  -18.7840   -1.9390 O   0  0  0  0  0  0  0  0  0  0  0  0
    6.3350  -18.3790   -1.2910 O   0  0  0  0  0  0  0  0  0  0  0  0
    5.7880  -20.0110   -3.0820 O   0  0  0  0  0  0  0  0  0  0  0  0
    6.8120  -20.8190   -2.5160 C   0  0  0  0  0  0  0  0  0  0  0  0
    6.8400  -22.2050   -3.1750 C   0  0  1  0  0  0  0  0  0  0  0  0
    6.1520  -22.1370   -4.4450 O   0  0  0  0  0  0  0  0  0  0  0  0
    7.1220  -22.1440   -5.5070 C   0  0  1  0  0  0  0  0  0  0  0  0
    6.9280  -20.9950   -6.3890 N   0  0  0  0  0  0  0  0  0  0  0  0
    7.3030  -19.7080   -6.0550 C   0  0  0  0  0  0  0  0  0  0  0  0
    6.8870  -18.8200   -6.9370 N   0  0  0  0  0  0  0  0  0  0  0  0
    6.3380  -19.5860   -7.9430 C   0  0  0  0  0  0  0  0  0  0  0  0
    5.7140  -19.2090   -9.1400 C   0  0  0  0  0  0  0  0  0  0  0  0
    5.5970  -17.8600   -9.5300 N   0  0  0  0  0  0  0  0  0  0  0  0
    5.0930  -20.1450   -9.8760 N   0  0  0  0  0  0  0  0  0  0  0  0
    5.1750  -21.4330   -9.4640 C   0  0  0  0  0  0  0  0  0  0  0  0
    5.7410  -21.9000   -8.3380 N   0  0  0  0  0  0  0  0  0  0  0  0
    6.3110  -20.9280   -7.6110 C   0  0  0  0  0  0  0  0  0  0  0  0
    8.5190  -22.1480   -4.8640 C   0  0  2  0  0  0  0  0  0  0  0  0
    9.4660  -22.9360   -5.5870 O   0  0  0  0  0  0  0  0  0  0  0  0
    8.2400  -22.7250   -3.4900 C   0  0  2  0  0  0  0  0  0  0  0  0
    8.2060  -24.1570   -3.5670 O   0  0  0  0  0  0  0  0  0  0  0  0
    5.5495  -12.7356   -3.3644 H   0  0  0  0  0  0  0  0  0  0  0  0
    6.4456  -12.4076   -4.8863 H   0  0  0  0  0  0  0  0  0  0  0  0
    5.0664  -13.5585   -4.8863 H   0  0  0  0  0  0  0  0  0  0  0  0
    8.9232  -13.7001   -3.5679 H   0  0  0  0  0  0  0  0  0  0  0  0
    8.7447  -14.6966   -5.0517 H   0  0  0  0  0  0  0  0  0  0  0  0
    8.2097  -12.9818   -5.0517 H   0  0  0  0  0  0  0  0  0  0  0  0
    6.7878  -13.5621   -1.9574 H   0  0  0  0  0  0  0  0  0  0  0  0
    6.0889  -15.2044   -2.1600 H   0  0  0  0  0  0  0  0  0  0  0  0
    7.8712  -14.9805   -2.1600 H   0  0  0  0  0  0  0  0  0  0  0  0
    5.3761  -15.4878   -4.9630 H   0  0  0  0  0  0  0  0  0  0  0  0
    8.2240  -15.6240   -5.9840 H   0  0  0  0  0  0  0  0  0  0  0  0
    7.0700  -16.7190   -6.4480 H   0  0  0  0  0  0  0  0  0  0  0  0
    6.8290  -15.1330   -6.7610 H   0  0  0  0  0  0  0  0  0  0  0  0
    4.4690  -17.0630   -3.5650 H   0  0  0  0  0  0  0  0  0  0  0  0
    7.7844  -20.3277   -2.6681 H   0  0  0  0  0  0  0  0  0  0  0  0
    6.6095  -20.9435   -1.4420 H   0  0  0  0  0  0  0  0  0  0  0  0
    6.3697  -22.8821   -2.4467 H   0  0  0  0  0  0  0  0  0  0  0  0
    7.0070  -23.0397   -6.1351 H   0  0  0  0  0  0  0  0  0  0  0  0
    7.8827  -19.4528   -5.1556 H   0  0  0  0  0  0  0  0  0  0  0  0
    5.9060  -17.7960  -10.5070 H   0  0  0  0  0  0  0  0  0  0  0  0
    4.5930  -17.6530   -9.4850 H   0  0  0  0  0  0  0  0  0  0  0  0
    4.7255  -22.1849  -10.1292 H   0  0  0  0  0  0  0  0  0  0  0  0
    8.9803  -21.1496   -4.8447 H   0  0  0  0  0  0  0  0  0  0  0  0
    9.0220  -23.2620   -6.3940 H   0  0  0  0  0  0  0  0  0  0  0  0
    8.9946  -22.4488   -2.7388 H   0  0  0  0  0  0  0  0  0  0  0  0
    8.6410  -24.5110   -2.7680 H   0  0  0  0  0  0  0  0  0  0  0  0
  1  2  1  0
  2  3  1  0
  2  4  1  0
  2  5  1  0
  5  6  1  0
  5  7  1  0
  7  8  2  0
  7  9  1  0
  9 10  1  0
 10 11  2  0
 10 12  2  0
 10 13  1  0
 13 14  1  0
 14 15  1  0
 15 16  1  0
 16 17  1  0
 17 18  1  0
 18 19  1  0
 19 20  2  0
 20 21  1  0
 21 22  2  0
 22 23  1  0
 22 24  1  0
 24 25  2  0
 25 26  1  0
 26 27  2  0
 17 28  1  0
 28 29  1  0
 28 30  1  0
 30 31  1  0
 30 15  1  0
 27 18  1  0
 27 21  1  0
  1 32  1  0
  1 33  1  0
  1 34  1  0
  3 35  1  0
  3 36  1  0
  3 37  1  0
  4 38  1  0
  4 39  1  0
  4 40  1  0
  5 41  1  6
  6 42  1  0
  6 43  1  0
  6 44  1  0
  9 45  1  0
 14 46  1  0
 14 47  1  0
 15 48  1  1
 17 49  1  6
 19 50  1  0
 23 51  1  0
 23 52  1  0
 25 53  1  0
 28 54  1  1
 29 55  1  0
 30 56  1  1
 31 57  1  0
M  CHG  1   6   1
M  END
>  <meeko>  (4) 
{"is_sidechain": [false], "free_energy": -8.412, "intermolecular_energy": -12.295, "internal_energy": -1.434}

$$$$
3coy_ligand
     RDKit          3D

 57 59  0  0  0  0  0  0  0  0999 V2000
    7.5090  -11.2200   -3.5310 C   0  0  0  0  0  0  0  0  0  0  0  0
    8.3830  -12.4230   -3.1110 C   0  0  0  0  0  0  0  0  0  0  0  0
    9.0920  -12.9390   -4.3830 C   0  0  0  0  0  0  0  0  0  0  0  0
    9.4510  -11.9190   -2.1220 C   0  0  0  0  0  0  0  0  0  0  0  0
    7.4890  -13.5440   -2.5030 C   0  0  1  0  0  0  0  0  0  0  0  0
    6.3520  -12.9540   -1.7010 N   0  0  0  0  0  0  0  0  0  0  0  0
    6.9320  -14.5280   -3.5600 C   0  0  0  0  0  0  0  0  0  0  0  0
    5.9900  -14.1940   -4.2720 O   0  0  0  0  0  0  0  0  0  0  0  0
    7.5040  -15.8020   -3.5900 N   0  0  0  0  0  0  0  0  0  0  0  0
    7.2390  -16.9070   -4.8010 S   0  0  0  0  0  0  0  0  0  0  0  0
    7.6560  -16.2290   -6.0060 O   0  0  0  0  0  0  0  0  0  0  0  0
    5.8910  -17.3950   -4.6340 O   0  0  0  0  0  0  0  0  0  0  0  0
    8.2620  -18.1210   -4.4880 O   0  0  0  0  0  0  0  0  0  0  0  0
    8.3480  -19.1890   -5.4250 C   0  0  0  0  0  0  0  0  0  0  0  0
    7.5110  -20.3900   -4.9620 C   0  0  1  0  0  0  0  0  0  0  0  0
    6.3420  -20.5020   -5.8050 O   0  0  0  0  0  0  0  0  0  0  0  0
    6.5250  -21.5960   -6.7210 C   0  0  1  0  0  0  0  0  0  0  0  0
    6.3380  -21.1500   -8.1000 N   0  0  0  0  0  0  0  0  0  0  0  0
    6.2100  -19.8220   -8.4590 C   0  0  0  0  0  0  0  0  0  0  0  0
    5.8950  -19.6740   -9.7310 N   0  0  0  0  0  0  0  0  0  0  0  0
    5.9550  -20.9560  -10.2360 C   0  0  0  0  0  0  0  0  0  0  0  0
    5.7010  -21.4420  -11.5270 C   0  0  0  0  0  0  0  0  0  0  0  0
    5.3610  -20.5860  -12.5940 N   0  0  0  0  0  0  0  0  0  0  0  0
    5.6500  -22.7680  -11.7270 N   0  0  0  0  0  0  0  0  0  0  0  0
    5.9340  -23.5790  -10.6800 C   0  0  0  0  0  0  0  0  0  0  0  0
    6.1840  -23.2210   -9.4100 N   0  0  0  0  0  0  0  0  0  0  0  0
    6.1830  -21.8900   -9.2430 C   0  0  0  0  0  0  0  0  0  0  0  0
    7.9320  -22.1700   -6.4870 C   0  0  2  0  0  0  0  0  0  0  0  0
    7.9870  -23.5910   -6.6270 O   0  0  0  0  0  0  0  0  0  0  0  0
    8.2260  -21.7340   -5.0650 C   0  0  2  0  0  0  0  0  0  0  0  0
    7.6300  -22.6580   -4.1440 O   0  0  0  0  0  0  0  0  0  0  0  0
    7.1359  -10.7065   -2.6326 H   0  0  0  0  0  0  0  0  0  0  0  0
    8.1111  -10.5207   -4.1297 H   0  0  0  0  0  0  0  0  0  0  0  0
    6.6578  -11.5765   -4.1297 H   0  0  0  0  0  0  0  0  0  0  0  0
    9.9506  -13.5639   -4.0962 H   0  0  0  0  0  0  0  0  0  0  0  0
    8.3866  -13.5364   -4.9792 H   0  0  0  0  0  0  0  0  0  0  0  0
    9.4436  -12.0841   -4.9792 H   0  0  0  0  0  0  0  0  0  0  0  0
    9.1030  -12.0832   -1.0915 H   0  0  0  0  0  0  0  0  0  0  0  0
   10.3896  -12.4692   -2.2841 H   0  0  0  0  0  0  0  0  0  0  0  0
    9.6230  -10.8447   -2.2841 H   0  0  0  0  0  0  0  0  0  0  0  0
    8.1471  -14.1242   -1.8394 H   0  0  0  0  0  0  0  0  0  0  0  0
    5.4090  -13.1320   -2.0560 H   0  0  0  0  0  0  0  0  0  0  0  0
    6.3730  -13.2980   -0.7180 H   0  0  0  0  0  0  0  0  0  0  0  0
    6.4750  -11.9280   -1.6030 H   0  0  0  0  0  0  0  0  0  0  0  0
    8.2570  -16.1070   -2.9790 H   0  0  0  0  0  0  0  0  0  0  0  0
    7.9745  -18.8438   -6.4004 H   0  0  0  0  0  0  0  0  0  0  0  0
    9.3992  -19.5025   -5.5064 H   0  0  0  0  0  0  0  0  0  0  0  0
    7.2831  -20.1943   -3.9038 H   0  0  0  0  0  0  0  0  0  0  0  0
    5.7758  -22.3820   -6.5454 H   0  0  0  0  0  0  0  0  0  0  0  0
    6.3545  -18.9829   -7.7625 H   0  0  0  0  0  0  0  0  0  0  0  0
    5.6340  -19.6350  -12.3220 H   0  0  0  0  0  0  0  0  0  0  0  0
    5.9480  -20.8890  -13.3790 H   0  0  0  0  0  0  0  0  0  0  0  0
    5.9633  -24.6574  -10.8952 H   0  0  0  0  0  0  0  0  0  0  0  0
    8.6648  -21.8120   -7.2252 H   0  0  0  0  0  0  0  0  0  0  0  0
    7.0840  -23.9010   -6.8360 H   0  0  0  0  0  0  0  0  0  0  0  0
    9.3010  -21.6832   -4.8374 H   0  0  0  0  0  0  0  0  0  0  0  0
    8.2680  -22.8170   -3.4220 H   0  0  0  0  0  0  0  0  0  0  0  0
  1  2  1  0
  2  3  1  0
  2  4  1  0
  2  5  1  0
  5  6  1  0
  5  7  1  0
  7  8  2  0
  7  9  1  0
  9 10  1  0
 10 11  2  0
 10 12  2  0
 10 13  1  0
 13 14  1  0
 14 15  1  0
 15 16  1  0
 16 17  1  0
 17 18  1  0
 18 19  1  0
 19 20  2  0
 20 21  1  0
 21 22  2  0
 22 23  1  0
 22 24  1  0
 24 25  2  0
 25 26  1  0
 26 27  2  0
 17 28  1  0
 28 29  1  0
 28 30  1  0
 30 31  1  0
 30 15  1  0
 27 18  1  0
 27 21  1  0
  1 32  1  0
  1 33  1  0
  1 34  1  0
  3 35  1  0
  3 36  1  0
  3 37  1  0
  4 38  1  0
  4 39  1  0
  4 40  1  0
  5 41  1  1
  6 42  1  0
  6 43  1  0
  6 44  1  0
  9 45  1  0
 14 46  1  0
 14 47  1  0
 15 48  1  1
 17 49  1  1
 19 50  1  0
 23 51  1  0
 23 52  1  0
 25 53  1  0
 28 54  1  6
 29 55  1  0
 30 56  1  6
 31 57  1  0
M  CHG  1   6   1
M  END
>  <meeko>  (5) 
{"is_sidechain": [false], "free_energy": -8.283, "intermolecular_energy": -12.625, "internal_energy": -0.906}

$$$$
3coy_ligand
     RDKit          3D

 57 59  0  0  0  0  0  0  0  0999 V2000
    8.6880  -13.4640   -4.4700 C   0  0  0  0  0  0  0  0  0  0  0  0
    7.3930  -13.6220   -3.6430 C   0  0  0  0  0  0  0  0  0  0  0  0
    7.5470  -12.7460   -2.3800 C   0  0  0  0  0  0  0  0  0  0  0  0
    6.2180  -13.0780   -4.4790 C   0  0  0  0  0  0  0  0  0  0  0  0
    7.1970  -15.1140   -3.2410 C   0  0  1  0  0  0  0  0  0  0  0  0
    5.7960  -15.3570   -2.7280 N   0  0  0  0  0  0  0  0  0  0  0  0
    7.5190  -16.1070   -4.3830 C   0  0  0  0  0  0  0  0  0  0  0  0
    8.6010  -16.6850   -4.4050 O   0  0  0  0  0  0  0  0  0  0  0  0
    6.5590  -16.2320   -5.3910 N   0  0  0  0  0  0  0  0  0  0  0  0
    6.5880  -17.4180   -6.5540 S   0  0  0  0  0  0  0  0  0  0  0  0
    7.8970  -17.3030   -7.1530 O   0  0  0  0  0  0  0  0  0  0  0  0
    5.3830  -17.2700   -7.3330 O   0  0  0  0  0  0  0  0  0  0  0  0
    6.4960  -18.8090   -5.7320 O   0  0  0  0  0  0  0  0  0  0  0  0
    6.8940  -20.0070   -6.3870 C   0  0  0  0  0  0  0  0  0  0  0  0
    8.1170  -20.6260   -5.6970 C   0  0  1  0  0  0  0  0  0  0  0  0
    7.9880  -20.4540   -4.2670 O   0  0  0  0  0  0  0  0  0  0  0  0
    7.6180  -21.7100   -3.6720 C   0  0  1  0  0  0  0  0  0  0  0  0
    6.4070  -21.5620   -2.8680 N   0  0  0  0  0  0  0  0  0  0  0  0
    5.5790  -22.6170   -2.5360 C   0  0  0  0  0  0  0  0  0  0  0  0
    4.4710  -22.2190   -1.9420 N   0  0  0  0  0  0  0  0  0  0  0  0
    4.6590  -20.8640   -1.7690 C   0  0  0  0  0  0  0  0  0  0  0  0
    3.8180  -19.8880   -1.2150 C   0  0  0  0  0  0  0  0  0  0  0  0
    2.5620  -20.2110   -0.6630 N   0  0  0  0  0  0  0  0  0  0  0  0
    4.1560  -18.5940   -1.3260 N   0  0  0  0  0  0  0  0  0  0  0  0
    5.3460  -18.2970   -1.9000 C   0  0  0  0  0  0  0  0  0  0  0  0
    6.2200  -19.1470   -2.4650 N   0  0  0  0  0  0  0  0  0  0  0  0
    5.8240  -20.4250   -2.3700 C   0  0  0  0  0  0  0  0  0  0  0  0
    7.4340  -22.7290   -4.8090 C   0  0  2  0  0  0  0  0  0  0  0  0
    7.8770  -24.0420   -4.4620 O   0  0  0  0  0  0  0  0  0  0  0  0
    8.2740  -22.1280   -5.9200 C   0  0  2  0  0  0  0  0  0  0  0  0
    9.6480  -22.4920   -5.7340 O   0  0  0  0  0  0  0  0  0  0  0  0
    9.5466  -13.3592   -3.7904 H   0  0  0  0  0  0  0  0  0  0  0  0
    8.8286  -14.3517   -5.1043 H   0  0  0  0  0  0  0  0  0  0  0  0
    8.6110  -12.5686   -5.1043 H   0  0  0  0  0  0  0  0  0  0  0  0
    7.4367  -13.3732   -1.4831 H   0  0  0  0  0  0  0  0  0  0  0  0
    8.5415  -12.2760   -2.3788 H   0  0  0  0  0  0  0  0  0  0  0  0
    6.7724  -11.9650   -2.3788 H   0  0  0  0  0  0  0  0  0  0  0  0
    5.4280  -12.7122   -3.8066 H   0  0  0  0  0  0  0  0  0  0  0  0
    6.5710  -12.2517   -5.1135 H   0  0  0  0  0  0  0  0  0  0  0  0
    5.8164  -13.8818   -5.1135 H   0  0  0  0  0  0  0  0  0  0  0  0
    7.9229  -15.3042   -2.4367 H   0  0  0  0  0  0  0  0  0  0  0  0
    5.0420  -14.8840   -3.2330 H   0  0  0  0  0  0  0  0  0  0  0  0
    5.5700  -16.3730   -2.7310 H   0  0  0  0  0  0  0  0  0  0  0  0
    5.7300  -15.0950   -1.7250 H   0  0  0  0  0  0  0  0  0  0  0  0
    5.6770  -15.7280   -5.4070 H   0  0  0  0  0  0  0  0  0  0  0  0
    6.0622  -20.7263   -6.3596 H   0  0  0  0  0  0  0  0  0  0  0  0
    7.1600  -19.7680   -7.4273 H   0  0  0  0  0  0  0  0  0  0  0  0
    8.9868  -20.1134   -6.1336 H   0  0  0  0  0  0  0  0  0  0  0  0
    8.4029  -22.0643   -2.9875 H   0  0  0  0  0  0  0  0  0  0  0  0
    5.8173  -23.6706   -2.7438 H   0  0  0  0  0  0  0  0  0  0  0  0
    2.6950  -21.0270   -0.0550 H   0  0  0  0  0  0  0  0  0  0  0  0
    2.3070  -19.4040   -0.0840 H   0  0  0  0  0  0  0  0  0  0  0  0
    5.6308  -17.2345   -1.9042 H   0  0  0  0  0  0  0  0  0  0  0  0
    6.3778  -22.8790   -5.0773 H   0  0  0  0  0  0  0  0  0  0  0  0
    7.4040  -24.6740   -5.0380 H   0  0  0  0  0  0  0  0  0  0  0  0
    7.9732  -22.4606   -6.9245 H   0  0  0  0  0  0  0  0  0  0  0  0
    9.6760  -23.4290   -5.4570 H   0  0  0  0  0  0  0  0  0  0  0  0
  1  2  1  0
  2  3  1  0
  2  4  1  0
  2  5  1  0
  5  6  1  0
  5  7  1  0
  7  8  2  0
  7  9  1  0
  9 10  1  0
 10 11  2  0
 10 12  2  0
 10 13  1  0
 13 14  1  0
 14 15  1  0
 15 16  1  0
 16 17  1  0
 17 18  1  0
 18 19  1  0
 19 20  2  0
 20 21  1  0
 21 22  2  0
 22 23  1  0
 22 24  1  0
 24 25  2  0
 25 26  1  0
 26 27  2  0
 17 28  1  0
 28 29  1  0
 28 30  1  0
 30 31  1  0
 30 15  1  0
 27 18  1  0
 27 21  1  0
  1 32  1  0
  1 33  1  0
  1 34  1  0
  3 35  1  0
  3 36  1  0
  3 37  1  0
  4 38  1  0
  4 39  1  0
  4 40  1  0
  5 41  1  1
  6 42  1  0
  6 43  1  0
  6 44  1  0
  9 45  1  0
 14 46  1  0
 14 47  1  0
 15 48  1  6
 17 49  1  1
 19 50  1  0
 23 51  1  0
 23 52  1  0
 25 53  1  0
 28 54  1  6
 29 55  1  0
 30 56  1  6
 31 57  1  0
M  CHG  1   6   1
M  END
>  <meeko>  (6) 
{"is_sidechain": [false], "free_energy": -8.174, "intermolecular_energy": -12.915, "internal_energy": -0.449}

$$$$
3coy_ligand
     RDKit          3D

 57 59  0  0  0  0  0  0  0  0999 V2000
    6.4390  -20.2940    0.4380 C   0  0  0  0  0  0  0  0  0  0  0  0
    6.4610  -20.8110   -1.0170 C   0  0  0  0  0  0  0  0  0  0  0  0
    5.3770  -21.9060   -1.1290 C   0  0  0  0  0  0  0  0  0  0  0  0
    6.0800  -19.6440   -1.9480 C   0  0  0  0  0  0  0  0  0  0  0  0
    7.8610  -21.4060   -1.3500 C   0  0  1  0  0  0  0  0  0  0  0  0
    8.3230  -22.3450   -0.2590 N   0  0  0  0  0  0  0  0  0  0  0  0
    7.9140  -22.1250   -2.7200 C   0  0  0  0  0  0  0  0  0  0  0  0
    7.8160  -23.3470   -2.7740 O   0  0  0  0  0  0  0  0  0  0  0  0
    8.1530  -21.3220   -3.8380 N   0  0  0  0  0  0  0  0  0  0  0  0
    7.9910  -21.8470   -5.4050 S   0  0  0  0  0  0  0  0  0  0  0  0
    6.7190  -22.5290   -5.4270 O   0  0  0  0  0  0  0  0  0  0  0  0
    9.2190  -22.5220   -5.7500 O   0  0  0  0  0  0  0  0  0  0  0  0
    7.8890  -20.4940   -6.2880 O   0  0  0  0  0  0  0  0  0  0  0  0
    7.1180  -19.4130   -5.7780 C   0  0  0  0  0  0  0  0  0  0  0  0
    6.9290  -18.3260   -6.8460 C   0  0  1  0  0  0  0  0  0  0  0  0
    7.1110  -18.9140   -8.1540 O   0  0  0  0  0  0  0  0  0  0  0  0
    5.8270  -19.0760   -8.7810 C   0  0  1  0  0  0  0  0  0  0  0  0
    5.6310  -20.4620   -9.2030 N   0  0  0  0  0  0  0  0  0  0  0  0
    5.6860  -21.5360   -8.3360 C   0  0  0  0  0  0  0  0  0  0  0  0
    5.6360  -22.6930   -8.9670 N   0  0  0  0  0  0  0  0  0  0  0  0
    5.4070  -22.3420  -10.2810 C   0  0  0  0  0  0  0  0  0  0  0  0
    5.2800  -23.1370  -11.4290 C   0  0  0  0  0  0  0  0  0  0  0  0
    5.3280  -24.5440  -11.3730 N   0  0  0  0  0  0  0  0  0  0  0  0
    5.2410  -22.5440  -12.6330 N   0  0  0  0  0  0  0  0  0  0  0  0
    5.2420  -21.1900  -12.6730 C   0  0  0  0  0  0  0  0  0  0  0  0
    5.3640  -20.3380  -11.6410 N   0  0  0  0  0  0  0  0  0  0  0  0
    5.4440  -20.9720  -10.4610 C   0  0  0  0  0  0  0  0  0  0  0  0
    4.7560  -18.6240   -7.7740 C   0  0  2  0  0  0  0  0  0  0  0  0
    3.6550  -17.9540   -8.3920 O   0  0  0  0  0  0  0  0  0  0  0  0
    5.5390  -17.6970   -6.8650 C   0  0  2  0  0  0  0  0  0  0  0  0
    5.6180  -16.3940   -7.4590 O   0  0  0  0  0  0  0  0  0  0  0  0
    6.4753  -21.1475    1.1310 H   0  0  0  0  0  0  0  0  0  0  0  0
    7.3103  -19.6449    0.6097 H   0  0  0  0  0  0  0  0  0  0  0  0
    5.5157  -19.7213    0.6097 H   0  0  0  0  0  0  0  0  0  0  0  0
    5.0668  -22.2193   -0.1212 H   0  0  0  0  0  0  0  0  0  0  0  0
    4.5079  -21.5073   -1.6728 H   0  0  0  0  0  0  0  0  0  0  0  0
    5.7844  -22.7710   -1.6728 H   0  0  0  0  0  0  0  0  0  0  0  0
    5.7948  -18.7705   -1.3432 H   0  0  0  0  0  0  0  0  0  0  0  0
    6.9404  -19.3854   -2.5827 H   0  0  0  0  0  0  0  0  0  0  0  0
    5.2328  -19.9429   -2.5827 H   0  0  0  0  0  0  0  0  0  0  0  0
    8.5444  -20.5463   -1.4118 H   0  0  0  0  0  0  0  0  0  0  0  0
    9.1610  -22.0620    0.2550 H   0  0  0  0  0  0  0  0  0  0  0  0
    7.5720  -22.4930    0.4470 H   0  0  0  0  0  0  0  0  0  0  0  0
    8.4840  -23.2950   -0.6470 H   0  0  0  0  0  0  0  0  0  0  0  0
    8.2780  -20.3140   -3.8030 H   0  0  0  0  0  0  0  0  0  0  0  0
    6.1319  -19.7885   -5.4673 H   0  0  0  0  0  0  0  0  0  0  0  0
    7.6491  -18.9754   -4.9198 H   0  0  0  0  0  0  0  0  0  0  0  0
    7.6643  -17.5458   -6.5997 H   0  0  0  0  0  0  0  0  0  0  0  0
    5.7562  -18.4618   -9.6908 H   0  0  0  0  0  0  0  0  0  0  0  0
    5.7628  -21.4374   -7.2431 H   0  0  0  0  0  0  0  0  0  0  0  0
    6.2560  -24.8320  -11.7030 H   0  0  0  0  0  0  0  0  0  0  0  0
    5.2430  -24.7770  -10.3780 H   0  0  0  0  0  0  0  0  0  0  0  0
    5.1297  -20.7341  -13.6677 H   0  0  0  0  0  0  0  0  0  0  0  0
    4.2814  -19.4673   -7.2510 H   0  0  0  0  0  0  0  0  0  0  0  0
    3.2210  -17.4080   -7.7080 H   0  0  0  0  0  0  0  0  0  0  0  0
    5.0908  -17.5822   -5.8670 H   0  0  0  0  0  0  0  0  0  0  0  0
    6.5630  -16.1680   -7.5630 H   0  0  0  0  0  0  0  0  0  0  0  0
  1  2  1  0
  2  3  1  0
  2  4  1  0
  2  5  1  0
  5  6  1  0
  5  7  1  0
  7  8  2  0
  7  9  1  0
  9 10  1  0
 10 11  2  0
 10 12  2  0
 10 13  1  0
 13 14  1  0
 14 15  1  0
 15 16  1  0
 16 17  1  0
 17 18  1  0
 18 19  1  0
 19 20  2  0
 20 21  1  0
 21 22  2  0
 22 23  1  0
 22 24  1  0
 24 25  2  0
 25 26  1  0
 26 27  2  0
 17 28  1  0
 28 29  1  0
 28 30  1  0
 30 31  1  0
 30 15  1  0
 27 18  1  0
 27 21  1  0
  1 32  1  0
  1 33  1  0
  1 34  1  0
  3 35  1  0
  3 36  1  0
  3 37  1  0
  4 38  1  0
  4 39  1  0
  4 40  1  0
  5 41  1  6
  6 42  1  0
  6 43  1  0
  6 44  1  0
  9 45  1  0
 14 46  1  0
 14 47  1  0
 15 48  1  1
 17 49  1  6
 19 50  1  0
 23 51  1  0
 23 52  1  0
 25 53  1  0
 28 54  1  1
 29 55  1  0
 30 56  1  1
 31 57  1  0
M  CHG  1   6   1
M  END
>  <meeko>  (7) 
{"is_sidechain": [false], "free_energy": -8.159, "intermolecular_energy": -12.659, "internal_energy": -0.683}

$$$$
3coy_ligand
     RDKit          3D

 57 59  0  0  0  0  0  0  0  0999 V2000
    7.8070  -24.0860   -2.8000 C   0  0  0  0  0  0  0  0  0  0  0  0
    7.3690  -22.6270   -2.5430 C   0  0  0  0  0  0  0  0  0  0  0  0
    7.9680  -22.2040   -1.1830 C   0  0  0  0  0  0  0  0  0  0  0  0
    7.9780  -21.7400   -3.6450 C   0  0  0  0  0  0  0  0  0  0  0  0
    5.8150  -22.5380   -2.4960 C   0  0  1  0  0  0  0  0  0  0  0  0
    5.2260  -23.7300   -1.7760 N   0  0  0  0  0  0  0  0  0  0  0  0
    5.2920  -21.2280   -1.8590 C   0  0  0  0  0  0  0  0  0  0  0  0
    4.7260  -21.2590   -0.7710 O   0  0  0  0  0  0  0  0  0  0  0  0
    5.4350  -20.0640   -2.6190 N   0  0  0  0  0  0  0  0  0  0  0  0
    5.1830  -18.5340   -2.0240 S   0  0  0  0  0  0  0  0  0  0  0  0
    6.0820  -18.4330   -0.8980 O   0  0  0  0  0  0  0  0  0  0  0  0
    3.7570  -18.3740   -1.8700 O   0  0  0  0  0  0  0  0  0  0  0  0
    5.6830  -17.5420   -3.2010 O   0  0  0  0  0  0  0  0  0  0  0  0
    5.6420  -18.0130   -4.5420 C   0  0  0  0  0  0  0  0  0  0  0  0
    6.5700  -17.1840   -5.4410 C   0  0  1  0  0  0  0  0  0  0  0  0
    7.4520  -18.0760   -6.1590 O   0  0  0  0  0  0  0  0  0  0  0  0
    7.0120  -18.1750   -7.5250 C   0  0  1  0  0  0  0  0  0  0  0  0
    6.8030  -19.5720   -7.8980 N   0  0  0  0  0  0  0  0  0  0  0  0
    7.0460  -20.6320   -7.0470 C   0  0  0  0  0  0  0  0  0  0  0  0
    6.9350  -21.7980   -7.6530 N   0  0  0  0  0  0  0  0  0  0  0  0
    6.4720  -21.4740   -8.9100 C   0  0  0  0  0  0  0  0  0  0  0  0
    6.1830  -22.2870  -10.0150 C   0  0  0  0  0  0  0  0  0  0  0  0
    6.2960  -23.6910   -9.9590 N   0  0  0  0  0  0  0  0  0  0  0  0
    5.9170  -21.7120  -11.1980 N   0  0  0  0  0  0  0  0  0  0  0  0
    5.8570  -20.3600  -11.2460 C   0  0  0  0  0  0  0  0  0  0  0  0
    6.1200  -19.4910  -10.2560 N   0  0  0  0  0  0  0  0  0  0  0  0
    6.4240  -20.1060   -9.1030 C   0  0  0  0  0  0  0  0  0  0  0  0
    5.7260  -17.3430   -7.6620 C   0  0  2  0  0  0  0  0  0  0  0  0
    5.6270  -16.6690   -8.9180 O   0  0  0  0  0  0  0  0  0  0  0  0
    5.8490  -16.3670   -6.5080 C   0  0  2  0  0  0  0  0  0  0  0  0
    6.6770  -15.2620   -6.8980 O   0  0  0  0  0  0  0  0  0  0  0  0
    7.9606  -24.5975   -1.8384 H   0  0  0  0  0  0  0  0  0  0  0  0
    7.0259  -24.6079   -3.3723 H   0  0  0  0  0  0  0  0  0  0  0  0
    8.7464  -24.0914   -3.3723 H   0  0  0  0  0  0  0  0  0  0  0  0
    7.3645  -22.6302   -0.3681 H   0  0  0  0  0  0  0  0  0  0  0  0
    9.0011  -22.5740   -1.1064 H   0  0  0  0  0  0  0  0  0  0  0  0
    7.9649  -21.1067   -1.1064 H   0  0  0  0  0  0  0  0  0  0  0  0
    8.5430  -20.9171   -3.1828 H   0  0  0  0  0  0  0  0  0  0  0  0
    8.6534  -22.3431   -4.2696 H   0  0  0  0  0  0  0  0  0  0  0  0
    7.1726  -21.3263   -4.2696 H   0  0  0  0  0  0  0  0  0  0  0  0
    5.4842  -22.5391   -3.5451 H   0  0  0  0  0  0  0  0  0  0  0  0
    4.9150  -23.5680   -0.8150 H   0  0  0  0  0  0  0  0  0  0  0  0
    4.4090  -24.1120   -2.2960 H   0  0  0  0  0  0  0  0  0  0  0  0
    5.9030  -24.5170   -1.7710 H   0  0  0  0  0  0  0  0  0  0  0  0
    5.8640  -20.0300   -3.5390 H   0  0  0  0  0  0  0  0  0  0  0  0
    5.9635  -19.0647   -4.5646 H   0  0  0  0  0  0  0  0  0  0  0  0
    4.6122  -17.9186   -4.9169 H   0  0  0  0  0  0  0  0  0  0  0  0
    7.0897  -16.4925   -4.7614 H   0  0  0  0  0  0  0  0  0  0  0  0
    7.7762  -17.7820   -8.2117 H   0  0  0  0  0  0  0  0  0  0  0  0
    7.3031  -20.5168   -5.9837 H   0  0  0  0  0  0  0  0  0  0  0  0
    6.8950  -23.9180   -9.1580 H   0  0  0  0  0  0  0  0  0  0  0  0
    5.3460  -24.0300   -9.7690 H   0  0  0  0  0  0  0  0  0  0  0  0
    5.5575  -19.9216  -12.2094 H   0  0  0  0  0  0  0  0  0  0  0  0
    4.8155  -17.9595   -7.6310 H   0  0  0  0  0  0  0  0  0  0  0  0
    6.5060  -16.7080   -9.3430 H   0  0  0  0  0  0  0  0  0  0  0  0
    4.8830  -15.9589   -6.1758 H   0  0  0  0  0  0  0  0  0  0  0  0
    6.7090  -14.6330   -6.1520 H   0  0  0  0  0  0  0  0  0  0  0  0
  1  2  1  0
  2  3  1  0
  2  4  1  0
  2  5  1  0
  5  6  1  0
  5  7  1  0
  7  8  2  0
  7  9  1  0
  9 10  1  0
 10 11  2  0
 10 12  2  0
 10 13  1  0
 13 14  1  0
 14 15  1  0
 15 16  1  0
 16 17  1  0
 17 18  1  0
 18 19  1  0
 19 20  2  0
 20 21  1  0
 21 22  2  0
 22 23  1  0
 22 24  1  0
 24 25  2  0
 25 26  1  0
 26 27  2  0
 17 28  1  0
 28 29  1  0
 28 30  1  0
 30 31  1  0
 30 15  1  0
 27 18  1  0
 27 21  1  0
  1 32  1  0
  1 33  1  0
  1 34  1  0
  3 35  1  0
  3 36  1  0
  3 37  1  0
  4 38  1  0
  4 39  1  0
  4 40  1  0
  5 41  1  6
  6 42  1  0
  6 43  1  0
  6 44  1  0
  9 45  1  0
 14 46  1  0
 14 47  1  0
 15 48  1  1
 17 49  1  6
 19 50  1  0
 23 51  1  0
 23 52  1  0
 25 53  1  0
 28 54  1  1
 29 55  1  0
 30 56  1  1
 31 57  1  0
M  CHG  1   6   1
M  END
>  <meeko>  (8) 
{"is_sidechain": [false], "free_energy": -7.951, "intermolecular_energy": -11.931, "internal_energy": -1.093}

$$$$
3coy_ligand
     RDKit          3D

 57 59  0  0  0  0  0  0  0  0999 V2000
    6.4580  -13.2570   -1.8530 C   0  0  0  0  0  0  0  0  0  0  0  0
    6.6310  -13.3610   -3.3840 C   0  0  0  0  0  0  0  0  0  0  0  0
    5.3090  -12.8850   -4.0260 C   0  0  0  0  0  0  0  0  0  0  0  0
    7.7580  -12.3990   -3.8080 C   0  0  0  0  0  0  0  0  0  0  0  0
    6.9230  -14.8360   -3.7890 C   0  0  1  0  0  0  0  0  0  0  0  0
    6.0820  -15.7960   -2.9780 N   0  0  0  0  0  0  0  0  0  0  0  0
    6.7260  -15.1110   -5.2990 C   0  0  0  0  0  0  0  0  0  0  0  0
    6.9100  -14.2120   -6.1140 O   0  0  0  0  0  0  0  0  0  0  0  0
    6.2640  -16.3820   -5.6480 N   0  0  0  0  0  0  0  0  0  0  0  0
    6.2360  -16.9610   -7.2040 S   0  0  0  0  0  0  0  0  0  0  0  0
    7.6260  -17.0150   -7.5940 O   0  0  0  0  0  0  0  0  0  0  0  0
    5.2770  -16.1650   -7.9300 O   0  0  0  0  0  0  0  0  0  0  0  0
    5.6570  -18.4670   -7.0780 O   0  0  0  0  0  0  0  0  0  0  0  0
    4.9520  -19.0130   -8.1860 C   0  0  0  0  0  0  0  0  0  0  0  0
    5.9260  -19.4800   -9.2760 C   0  0  1  0  0  0  0  0  0  0  0  0
    7.1260  -19.9880   -8.6500 O   0  0  0  0  0  0  0  0  0  0  0  0
    7.1200  -21.4260   -8.7160 C   0  0  1  0  0  0  0  0  0  0  0  0
    7.2890  -22.0030   -7.3840 N   0  0  0  0  0  0  0  0  0  0  0  0
    7.1100  -23.3440   -7.1070 C   0  0  0  0  0  0  0  0  0  0  0  0
    7.1630  -23.6010   -5.8150 N   0  0  0  0  0  0  0  0  0  0  0  0
    7.5230  -22.3950   -5.2530 C   0  0  0  0  0  0  0  0  0  0  0  0
    7.7150  -22.0320   -3.9120 C   0  0  0  0  0  0  0  0  0  0  0  0
    7.5980  -22.9650   -2.8620 N   0  0  0  0  0  0  0  0  0  0  0  0
    7.8870  -20.7370   -3.6030 N   0  0  0  0  0  0  0  0  0  0  0  0
    7.9510  -19.8460   -4.6210 C   0  0  0  0  0  0  0  0  0  0  0  0
    7.7760  -20.0830   -5.9320 N   0  0  0  0  0  0  0  0  0  0  0  0
    7.5640  -21.3820   -6.1930 C   0  0  0  0  0  0  0  0  0  0  0  0
    5.7950  -21.8570   -9.3670 C   0  0  2  0  0  0  0  0  0  0  0  0
    5.9350  -22.9960  -10.2180 O   0  0  0  0  0  0  0  0  0  0  0  0
    5.4010  -20.6170  -10.1470 C   0  0  2  0  0  0  0  0  0  0  0  0
    6.0850  -20.6040  -11.4070 O   0  0  0  0  0  0  0  0  0  0  0  0
    7.2981  -13.7621   -1.3539 H   0  0  0  0  0  0  0  0  0  0  0  0
    6.4391  -12.1977   -1.5573 H   0  0  0  0  0  0  0  0  0  0  0  0
    5.5136  -13.7372   -1.5573 H   0  0  0  0  0  0  0  0  0  0  0  0
    4.5897  -12.6260   -3.2351 H   0  0  0  0  0  0  0  0  0  0  0  0
    5.5022  -12.0000   -4.6500 H   0  0  0  0  0  0  0  0  0  0  0  0
    4.8937  -13.6901   -4.6500 H   0  0  0  0  0  0  0  0  0  0  0  0
    8.2431  -11.9849   -2.9118 H   0  0  0  0  0  0  0  0  0  0  0  0
    8.5007  -12.9459   -4.4074 H   0  0  0  0  0  0  0  0  0  0  0  0
    7.3345  -11.5796   -4.4074 H   0  0  0  0  0  0  0  0  0  0  0  0
    7.9882  -15.0007   -3.5696 H   0  0  0  0  0  0  0  0  0  0  0  0
    5.8690  -15.5100   -2.0190 H   0  0  0  0  0  0  0  0  0  0  0  0
    5.1710  -15.9790   -3.4470 H   0  0  0  0  0  0  0  0  0  0  0  0
    6.5340  -16.7310   -2.9470 H   0  0  0  0  0  0  0  0  0  0  0  0
    6.0680  -17.1230   -4.9810 H   0  0  0  0  0  0  0  0  0  0  0  0
    4.3539  -19.8710   -7.8453 H   0  0  0  0  0  0  0  0  0  0  0  0
    4.2995  -18.2339   -8.6069 H   0  0  0  0  0  0  0  0  0  0  0  0
    6.0915  -18.5984   -9.9127 H   0  0  0  0  0  0  0  0  0  0  0  0
    7.9615  -21.7934   -9.3218 H   0  0  0  0  0  0  0  0  0  0  0  0
    6.9422  -24.1111   -7.8773 H   0  0  0  0  0  0  0  0  0  0  0  0
    7.8820  -22.4900   -1.9980 H   0  0  0  0  0  0  0  0  0  0  0  0
    6.5970  -23.1840   -2.8070 H   0  0  0  0  0  0  0  0  0  0  0  0
    8.1724  -18.8054   -4.3416 H   0  0  0  0  0  0  0  0  0  0  0  0
    5.0442  -22.1793   -8.6305 H   0  0  0  0  0  0  0  0  0  0  0  0
    6.8490  -22.9950  -10.5630 H   0  0  0  0  0  0  0  0  0  0  0  0
    4.3223  -20.5541  -10.3529 H   0  0  0  0  0  0  0  0  0  0  0  0
    6.5870  -21.4390  -11.4850 H   0  0  0  0  0  0  0  0  0  0  0  0
  1  2  1  0
  2  3  1  0
  2  4  1  0
  2  5  1  0
  5  6  1  0
  5  7  1  0
  7  8  2  0
  7  9  1  0
  9 10  1  0
 10 11  2  0
 10 12  2  0
 10 13  1  0
 13 14  1  0
 14 15  1  0
 15 16  1  0
 16 17  1  0
 17 18  1  0
 18 19  1  0
 19 20  2  0
 20 21  1  0
 21 22  2  0
 22 23  1  0
 22 24  1  0
 24 25  2  0
 25 26  1  0
 26 27  2  0
 17 28  1  0
 28 29  1  0
 28 30  1  0
 30 31  1  0
 30 15  1  0
 27 18  1  0
 27 21  1  0
  1 32  1  0
  1 33  1  0
  1 34  1  0
  3 35  1  0
  3 36  1  0
  3 37  1  0
  4 38  1  0
  4 39  1  0
  4 40  1  0
  5 41  1  1
  6 42  1  0
  6 43  1  0
  6 44  1  0
  9 45  1  0
 14 46  1  0
 14 47  1  0
 15 48  1  6
 17 49  1  6
 19 50  1  0
 23 51  1  0
 23 52  1  0
 25 53  1  0
 28 54  1  1
 29 55  1  0
 30 56  1  6
 31 57  1  0
M  CHG  1   6   1
M  END
>  <meeko>  (9) 
{"is_sidechain": [false], "free_energy": -7.811, "intermolecular_energy": -12.855, "internal_energy": 0.044}

$$$$
