
     RDKit          3D

 31 33  0  0  0  0  0  0  0  0999 V2000
   13.6570    5.0370   -4.5260 C   0  0  0  0  0  0  0  0  0  0  0  0
   14.1010    6.2410   -5.3490 C   0  0  1  0  0  0  0  0  0  0  0  0
   14.6560    5.7470   -6.7150 C   0  0  0  0  0  0  0  0  0  0  0  0
   12.8910    7.1200   -5.5800 C   0  0  0  0  0  0  0  0  0  0  0  0
   13.2110    8.4650   -6.1640 C   0  0  1  0  0  0  0  0  0  0  0  0
   11.9970    9.2470   -6.2920 N   0  0  0  0  0  0  0  0  0  0  0  0
   11.1390    9.0470   -7.3450 C   0  0  0  0  0  0  0  0  0  0  0  0
   11.5540    8.7050   -8.6380 C   0  0  0  0  0  0  0  0  0  0  0  0
   10.6270    8.5240   -9.6640 C   0  0  0  0  0  0  0  0  0  0  0  0
    9.2560    8.6830   -9.3990 C   0  0  0  0  0  0  0  0  0  0  0  0
    8.8300    9.0140   -8.0940 C   0  0  0  0  0  0  0  0  0  0  0  0
    7.4140    9.1620   -7.8230 C   0  0  0  0  0  0  0  0  0  0  0  0
    6.3640    9.9160   -8.9470 S   0  0  0  0  0  0  0  0  0  0  0  0
    4.9740    9.7250   -7.9120 C   0  0  0  0  0  0  0  0  0  0  0  0
    3.6140   10.2230   -8.3110 C   0  0  0  0  0  0  0  0  0  0  0  0
    3.5360   10.8900   -9.3740 O   0  0  0  0  0  0  0  0  0  0  0  0
    2.6350    9.9300   -7.5930 O   0  0  0  0  0  0  0  0  0  0  0  0
    5.3180    9.0840   -6.7480 C   0  0  0  0  0  0  0  0  0  0  0  0
    4.4180    8.7640   -5.7150 O   0  0  0  0  0  0  0  0  0  0  0  0
    4.4140    9.6310   -4.5920 C   0  0  0  0  0  0  0  0  0  0  0  0
    3.5860    9.0550   -3.4310 C   0  0  0  0  0  0  0  0  0  0  0  0
    3.5160    9.6820   -2.3590 O   0  0  0  0  0  0  0  0  0  0  0  0
    3.0140    7.9550   -3.6130 O   0  0  0  0  0  0  0  0  0  0  0  0
    6.6790    8.7740   -6.6990 C   0  0  0  0  0  0  0  0  0  0  0  0
    7.3900    7.8610   -5.2010 Br  0  0  0  0  0  0  0  0  0  0  0  0
    9.7640    9.2250   -7.0960 C   0  0  0  0  0  0  0  0  0  0  0  0
   14.1700    9.2120   -5.2570 C   0  0  0  0  0  0  0  0  0  0  0  0
   15.4660    8.4420   -5.0280 C   0  0  2  0  0  0  0  0  0  0  0  0
   16.2580    9.1430   -3.9170 C   0  0  0  0  0  0  0  0  0  0  0  0
   16.2930    8.4770   -6.3490 C   0  0  0  0  0  0  0  0  0  0  0  0
   15.1640    7.0240   -4.5690 C   0  0  0  0  0  0  0  0  0  0  0  0
  2  1  1  1
  3  2  1  0
  4  2  1  0
  5  4  1  0
  5  6  1  1
  7  6  1  0
  8  7  2  0
  9  8  1  0
 10  9  2  0
 11 10  1  0
 12 11  1  0
 13 12  1  0
 14 13  1  0
 15 14  1  0
 16 15  2  0
 17 15  1  0
 18 14  2  0
 19 18  1  0
 20 19  1  0
 21 20  1  0
 22 21  1  0
 23 21  2  0
 24 18  1  0
 24 12  2  0
 25 24  1  0
 26 11  2  0
 26  7  1  0
 27  5  1  0
 28 27  1  0
 28 29  1  1
 30 28  1  0
 31 28  1  0
 31  2  1  0
M  CHG  2  17  -1  22  -1
M  END
$$$$
