3nw9_ligand
     RDKit          3D

 62 66  0  0  0  0  0  0  0  0999 V2000
   -9.6350   -4.5250    6.9730 C   0  0  0  0  0  0  0  0  0  0  0  0
   -9.4490   -5.7860    7.7520 C   0  0  0  0  0  0  0  0  0  0  0  0
  -10.4530   -6.1840    8.5910 N   0  0  0  0  0  0  0  0  0  0  0  0
  -10.2880   -7.3170    9.3080 C   0  0  0  0  0  0  0  0  0  0  0  0
   -9.2280   -8.1500    9.3130 N   0  0  0  0  0  0  0  0  0  0  0  0
   -8.2690   -7.7090    8.4830 C   0  0  0  0  0  0  0  0  0  0  0  0
   -8.2940   -6.5740    7.6880 C   0  0  0  0  0  0  0  0  0  0  0  0
   -7.1260   -6.4580    6.9710 N   0  0  0  0  0  0  0  0  0  0  0  0
   -6.3980   -7.4940    7.3360 C   0  0  0  0  0  0  0  0  0  0  0  0
   -7.0570   -8.2940    8.2300 N   0  0  0  0  0  0  0  0  0  0  0  0
   -6.5830   -9.5220    8.8450 C   0  0  2  0  0  0  0  0  0  0  0  0
   -5.1830   -9.3660    9.1880 O   0  0  0  0  0  0  0  0  0  0  0  0
   -4.4340  -10.3590    8.4680 C   0  0  2  0  0  0  0  0  0  0  0  0
   -3.1430   -9.7320    8.0300 C   0  0  0  0  0  0  0  0  0  0  0  0
   -3.0610   -8.6130    7.2890 C   0  0  0  0  0  0  0  0  0  0  0  0
   -1.7810   -7.9810    6.8470 C   0  0  0  0  0  0  0  0  0  0  0  0
   -1.3820   -7.0470    7.8730 N   0  0  0  0  0  0  0  0  0  0  0  0
   -1.7580   -5.7230    7.8300 C   0  0  0  0  0  0  0  0  0  0  0  0
   -2.4840   -5.2500    6.9590 O   0  0  0  0  0  0  0  0  0  0  0  0
   -1.2060   -4.8150    8.8720 C   0  0  0  0  0  0  0  0  0  0  0  0
   -1.9460   -4.4570   10.0130 C   0  0  0  0  0  0  0  0  0  0  0  0
   -1.4040   -3.6110   11.0040 C   0  0  0  0  0  0  0  0  0  0  0  0
   -2.1870   -3.2490   12.1960 C   0  0  0  0  0  0  0  0  0  0  0  0
   -1.8140   -2.1580   13.0040 C   0  0  0  0  0  0  0  0  0  0  0  0
   -2.5600   -1.8130   14.1330 C   0  0  0  0  0  0  0  0  0  0  0  0
   -3.6850   -2.5570   14.4650 C   0  0  0  0  0  0  0  0  0  0  0  0
   -4.4000   -2.2250   15.5480 F   0  0  0  0  0  0  0  0  0  0  0  0
   -4.0780   -3.6390   13.6880 C   0  0  0  0  0  0  0  0  0  0  0  0
   -3.3310   -3.9830   12.5600 C   0  0  0  0  0  0  0  0  0  0  0  0
   -0.1000   -3.1230   10.8250 C   0  0  0  0  0  0  0  0  0  0  0  0
    0.6200   -3.4590    9.6870 C   0  0  0  0  0  0  0  0  0  0  0  0
    1.8820   -2.9560    9.5280 O   0  0  0  0  0  0  0  0  0  0  0  0
    0.0790   -4.2880    8.7080 C   0  0  0  0  0  0  0  0  0  0  0  0
    0.8740   -4.5350    7.6140 O   0  0  0  0  0  0  0  0  0  0  0  0
   -5.3190  -10.8050    7.3000 C   0  0  1  0  0  0  0  0  0  0  0  0
   -5.0180  -12.1070    6.8090 O   0  0  0  0  0  0  0  0  0  0  0  0
   -6.6990  -10.7490    7.9310 C   0  0  1  0  0  0  0  0  0  0  0  0
   -6.9060  -11.9470    8.7030 O   0  0  0  0  0  0  0  0  0  0  0  0
   -9.7596   -3.6805    7.6667 H   0  0  0  0  0  0  0  0  0  0  0  0
   -8.7527   -4.3519    6.3393 H   0  0  0  0  0  0  0  0  0  0  0  0
  -10.5297   -4.6141    6.3393 H   0  0  0  0  0  0  0  0  0  0  0  0
  -11.1218   -7.5942    9.9697 H   0  0  0  0  0  0  0  0  0  0  0  0
   -5.3812   -7.6924    6.9661 H   0  0  0  0  0  0  0  0  0  0  0  0
   -7.2181   -9.6945    9.7264 H   0  0  0  0  0  0  0  0  0  0  0  0
   -4.1756  -11.2445    9.0673 H   0  0  0  0  0  0  0  0  0  0  0  0
   -2.2045  -10.2185    8.3343 H   0  0  0  0  0  0  0  0  0  0  0  0
   -4.0016   -8.1291    6.9871 H   0  0  0  0  0  0  0  0  0  0  0  0
   -1.0064   -8.7514    6.7184 H   0  0  0  0  0  0  0  0  0  0  0  0
   -1.9152   -7.4657    5.8845 H   0  0  0  0  0  0  0  0  0  0  0  0
   -0.6060   -7.3270    8.4540 H   0  0  0  0  0  0  0  0  0  0  0  0
   -2.9682   -4.8443   10.1356 H   0  0  0  0  0  0  0  0  0  0  0  0
   -0.9225   -1.5691   12.7423 H   0  0  0  0  0  0  0  0  0  0  0  0
   -2.2586   -0.9575   14.7554 H   0  0  0  0  0  0  0  0  0  0  0  0
   -4.9713   -4.2206   13.9594 H   0  0  0  0  0  0  0  0  0  0  0  0
   -3.6415   -4.8413   11.9461 H   0  0  0  0  0  0  0  0  0  0  0  0
    0.3522   -2.4728   11.5884 H   0  0  0  0  0  0  0  0  0  0  0  0
    1.9660   -2.7990    8.5660 H   0  0  0  0  0  0  0  0  0  0  0  0
    1.8020   -4.6090    7.9390 H   0  0  0  0  0  0  0  0  0  0  0  0
   -5.1907  -10.1762    6.4066 H   0  0  0  0  0  0  0  0  0  0  0  0
   -5.3930  -12.1640    5.9100 H   0  0  0  0  0  0  0  0  0  0  0  0
   -7.5347  -10.6803    7.2191 H   0  0  0  0  0  0  0  0  0  0  0  0
   -7.0690  -11.6560    9.6200 H   0  0  0  0  0  0  0  0  0  0  0  0
  1  2  1  0
  2  3  2  0
  3  4  1  0
  4  5  2  0
  5  6  1  0
  6  7  2  0
  7  8  1  0
  8  9  2  0
  9 10  1  0
 10 11  1  0
 11 12  1  0
 12 13  1  0
 13 14  1  0
 14 15  2  0
 15 16  1  0
 16 17  1  0
 17 18  1  0
 18 19  2  0
 18 20  1  0
 20 21  2  0
 21 22  1  0
 22 23  1  0
 23 24  2  0
 24 25  1  0
 25 26  2  0
 26 27  1  0
 26 28  1  0
 28 29  2  0
 22 30  2  0
 30 31  1  0
 31 32  1  0
 31 33  2  0
 33 34  1  0
 13 35  1  0
 35 36  1  0
 35 37  1  0
 37 38  1  0
  7  2  1  0
 37 11  1  0
 10  6  1  0
 33 20  1  0
 29 23  1  0
  1 39  1  0
  1 40  1  0
  1 41  1  0
  4 42  1  0
  9 43  1  0
 11 44  1  1
 13 45  1  1
 14 46  1  0
 15 47  1  0
 16 48  1  0
 16 49  1  0
 17 50  1  0
 21 51  1  0
 24 52  1  0
 25 53  1  0
 28 54  1  0
 29 55  1  0
 30 56  1  0
 32 57  1  0
 34 58  1  0
 35 59  1  6
 36 60  1  0
 37 61  1  6
 38 62  1  0
M  END
>  <meeko>  (1) 
{"is_sidechain": [false], "free_energy": -9.54, "intermolecular_energy": -14.001, "internal_energy": -1.492}

$$$$
3nw9_ligand
     RDKit          3D

 62 66  0  0  0  0  0  0  0  0999 V2000
   -9.8680   -5.3120    5.2370 C   0  0  0  0  0  0  0  0  0  0  0  0
   -9.6970   -6.5080    6.1160 C   0  0  0  0  0  0  0  0  0  0  0  0
  -10.8070   -7.2370    6.4420 N   0  0  0  0  0  0  0  0  0  0  0  0
  -10.6630   -8.3130    7.2460 C   0  0  0  0  0  0  0  0  0  0  0  0
   -9.5290   -8.7940    7.7950 N   0  0  0  0  0  0  0  0  0  0  0  0
   -8.4740   -8.0380    7.4540 C   0  0  0  0  0  0  0  0  0  0  0  0
   -8.4660   -6.9130    6.6430 C   0  0  0  0  0  0  0  0  0  0  0  0
   -7.1900   -6.4110    6.5230 N   0  0  0  0  0  0  0  0  0  0  0  0
   -6.4410   -7.2060    7.2590 C   0  0  0  0  0  0  0  0  0  0  0  0
   -7.1680   -8.2200    7.8230 N   0  0  0  0  0  0  0  0  0  0  0  0
   -6.6900   -9.2890    8.6820 C   0  0  2  0  0  0  0  0  0  0  0  0
   -5.3440   -8.9740    9.1190 O   0  0  0  0  0  0  0  0  0  0  0  0
   -4.4680  -10.0150    8.6540 C   0  0  2  0  0  0  0  0  0  0  0  0
   -3.1780   -9.3760    8.2330 C   0  0  0  0  0  0  0  0  0  0  0  0
   -3.0410   -8.5970    7.1460 C   0  0  0  0  0  0  0  0  0  0  0  0
   -1.7600   -7.9560    6.7180 C   0  0  0  0  0  0  0  0  0  0  0  0
   -1.3640   -7.0410    7.7610 N   0  0  0  0  0  0  0  0  0  0  0  0
   -1.7590   -5.7210    7.7520 C   0  0  0  0  0  0  0  0  0  0  0  0
   -2.5000   -5.2380    6.9000 O   0  0  0  0  0  0  0  0  0  0  0  0
   -1.2080   -4.8300    8.8100 C   0  0  0  0  0  0  0  0  0  0  0  0
   -1.9570   -4.4760    9.9470 C   0  0  0  0  0  0  0  0  0  0  0  0
   -1.4170   -3.6470   10.9520 C   0  0  0  0  0  0  0  0  0  0  0  0
   -2.2080   -3.2890   12.1400 C   0  0  0  0  0  0  0  0  0  0  0  0
   -3.3160   -4.0650   12.5330 C   0  0  0  0  0  0  0  0  0  0  0  0
   -4.0630   -3.7270   13.6630 C   0  0  0  0  0  0  0  0  0  0  0  0
   -3.7090   -2.6110   14.4110 C   0  0  0  0  0  0  0  0  0  0  0  0
   -4.4260   -2.2880   15.4950 F   0  0  0  0  0  0  0  0  0  0  0  0
   -2.6220   -1.8260   14.0480 C   0  0  0  0  0  0  0  0  0  0  0  0
   -1.8760   -2.1640   12.9170 C   0  0  0  0  0  0  0  0  0  0  0  0
   -0.1060   -3.1690   10.7910 C   0  0  0  0  0  0  0  0  0  0  0  0
    0.6230   -3.5000    9.6570 C   0  0  0  0  0  0  0  0  0  0  0  0
    1.8900   -3.0090    9.5170 O   0  0  0  0  0  0  0  0  0  0  0  0
    0.0830   -4.3140    8.6640 C   0  0  0  0  0  0  0  0  0  0  0  0
    0.8870   -4.5580    7.5760 O   0  0  0  0  0  0  0  0  0  0  0  0
   -5.2020  -10.7150    7.5060 C   0  0  1  0  0  0  0  0  0  0  0  0
   -4.7760  -12.0540    7.2780 O   0  0  0  0  0  0  0  0  0  0  0  0
   -6.6400  -10.6570    7.9890 C   0  0  1  0  0  0  0  0  0  0  0  0
   -6.8560  -11.7210    8.9350 O   0  0  0  0  0  0  0  0  0  0  0  0
   -9.9963   -4.4145    5.8599 H   0  0  0  0  0  0  0  0  0  0  0  0
   -8.9777   -5.1934    4.6020 H   0  0  0  0  0  0  0  0  0  0  0  0
  -10.7559   -5.4476    4.6020 H   0  0  0  0  0  0  0  0  0  0  0  0
  -11.5847   -8.8651    7.4821 H   0  0  0  0  0  0  0  0  0  0  0  0
   -5.3589   -7.0712    7.4036 H   0  0  0  0  0  0  0  0  0  0  0  0
   -7.4019   -9.3586    9.5177 H   0  0  0  0  0  0  0  0  0  0  0  0
   -4.2207  -10.7655    9.4192 H   0  0  0  0  0  0  0  0  0  0  0  0
   -2.2875   -9.5562    8.8531 H   0  0  0  0  0  0  0  0  0  0  0  0
   -3.9337   -8.4188    6.5284 H   0  0  0  0  0  0  0  0  0  0  0  0
   -0.9846   -8.7234    6.5771 H   0  0  0  0  0  0  0  0  0  0  0  0
   -1.8925   -7.4234    5.7647 H   0  0  0  0  0  0  0  0  0  0  0  0
   -0.5780   -7.3230    8.3270 H   0  0  0  0  0  0  0  0  0  0  0  0
   -2.9846   -4.8534   10.0543 H   0  0  0  0  0  0  0  0  0  0  0  0
   -3.5964   -4.9491   11.9416 H   0  0  0  0  0  0  0  0  0  0  0  0
   -4.9266   -4.3405   13.9593 H   0  0  0  0  0  0  0  0  0  0  0  0
   -2.3508   -0.9443   14.6473 H   0  0  0  0  0  0  0  0  0  0  0  0
   -1.0160   -1.5414   12.6293 H   0  0  0  0  0  0  0  0  0  0  0  0
    0.3441   -2.5307   11.5656 H   0  0  0  0  0  0  0  0  0  0  0  0
    1.9300   -2.2480   10.1330 H   0  0  0  0  0  0  0  0  0  0  0  0
    1.0050   -3.7010    7.1020 H   0  0  0  0  0  0  0  0  0  0  0  0
   -5.0208  -10.2369    6.5321 H   0  0  0  0  0  0  0  0  0  0  0  0
   -4.9270  -12.5440    8.1100 H   0  0  0  0  0  0  0  0  0  0  0  0
   -7.4007  -10.7709    7.2027 H   0  0  0  0  0  0  0  0  0  0  0  0
   -7.2760  -11.3120    9.7150 H   0  0  0  0  0  0  0  0  0  0  0  0
  1  2  1  0
  2  3  2  0
  3  4  1  0
  4  5  2  0
  5  6  1  0
  6  7  2  0
  7  8  1  0
  8  9  2  0
  9 10  1  0
 10 11  1  0
 11 12  1  0
 12 13  1  0
 13 14  1  0
 14 15  2  0
 15 16  1  0
 16 17  1  0
 17 18  1  0
 18 19  2  0
 18 20  1  0
 20 21  2  0
 21 22  1  0
 22 23  1  0
 23 24  2  0
 24 25  1  0
 25 26  2  0
 26 27  1  0
 26 28  1  0
 28 29  2  0
 22 30  2  0
 30 31  1  0
 31 32  1  0
 31 33  2  0
 33 34  1  0
 13 35  1  0
 35 36  1  0
 35 37  1  0
 37 38  1  0
  7  2  1  0
 37 11  1  0
 10  6  1  0
 33 20  1  0
 29 23  1  0
  1 39  1  0
  1 40  1  0
  1 41  1  0
  4 42  1  0
  9 43  1  0
 11 44  1  1
 13 45  1  1
 14 46  1  0
 15 47  1  0
 16 48  1  0
 16 49  1  0
 17 50  1  0
 21 51  1  0
 24 52  1  0
 25 53  1  0
 28 54  1  0
 29 55  1  0
 30 56  1  0
 32 57  1  0
 34 58  1  0
 35 59  1  6
 36 60  1  0
 37 61  1  6
 38 62  1  0
M  END
>  <meeko>  (2) 
{"is_sidechain": [false], "free_energy": -9.456, "intermolecular_energy": -13.732, "internal_energy": -1.638}

$$$$
3nw9_ligand
     RDKit          3D

 62 66  0  0  0  0  0  0  0  0999 V2000
    2.1490  -11.7020   15.4830 C   0  0  0  0  0  0  0  0  0  0  0  0
    1.0470  -12.3380   14.6990 C   0  0  0  0  0  0  0  0  0  0  0  0
    0.8310  -13.6790   14.8540 N   0  0  0  0  0  0  0  0  0  0  0  0
   -0.1550  -14.2640   14.1400 C   0  0  0  0  0  0  0  0  0  0  0  0
   -0.9980  -13.6870   13.2600 N   0  0  0  0  0  0  0  0  0  0  0  0
   -0.7380  -12.3760   13.1370 C   0  0  0  0  0  0  0  0  0  0  0  0
    0.2340  -11.6400   13.7980 C   0  0  0  0  0  0  0  0  0  0  0  0
    0.1910  -10.3210   13.4110 N   0  0  0  0  0  0  0  0  0  0  0  0
   -0.7770  -10.2590   12.5200 C   0  0  0  0  0  0  0  0  0  0  0  0
   -1.3860  -11.4720   12.3390 N   0  0  0  0  0  0  0  0  0  0  0  0
   -2.4920  -11.7910   11.4520 C   0  0  2  0  0  0  0  0  0  0  0  0
   -2.1700  -11.3310   10.1160 O   0  0  0  0  0  0  0  0  0  0  0  0
   -3.1590  -10.3640    9.7250 C   0  0  2  0  0  0  0  0  0  0  0  0
   -2.4640   -9.2830    8.9520 C   0  0  0  0  0  0  0  0  0  0  0  0
   -2.6620   -9.0450    7.6440 C   0  0  0  0  0  0  0  0  0  0  0  0
   -1.9730   -7.9710    6.8630 C   0  0  0  0  0  0  0  0  0  0  0  0
   -1.4730   -7.0030    7.8080 N   0  0  0  0  0  0  0  0  0  0  0  0
   -2.1280   -5.8140    8.0400 C   0  0  0  0  0  0  0  0  0  0  0  0
   -3.1920   -5.5080    7.5070 O   0  0  0  0  0  0  0  0  0  0  0  0
   -1.4750   -4.8320    8.9490 C   0  0  0  0  0  0  0  0  0  0  0  0
   -2.0920   -4.3930   10.1340 C   0  0  0  0  0  0  0  0  0  0  0  0
   -1.4540   -3.4770   10.9970 C   0  0  0  0  0  0  0  0  0  0  0  0
   -2.1070   -3.0310   12.2380 C   0  0  0  0  0  0  0  0  0  0  0  0
   -3.2640   -3.6720   12.7190 C   0  0  0  0  0  0  0  0  0  0  0  0
   -3.8800   -3.2500   13.8990 C   0  0  0  0  0  0  0  0  0  0  0  0
   -3.3440   -2.1840   14.6090 C   0  0  0  0  0  0  0  0  0  0  0  0
   -3.9340   -1.7800   15.7410 F   0  0  0  0  0  0  0  0  0  0  0  0
   -2.2030   -1.5310   14.1600 C   0  0  0  0  0  0  0  0  0  0  0  0
   -1.5890   -1.9530   12.9790 C   0  0  0  0  0  0  0  0  0  0  0  0
   -0.1810   -3.0000   10.6430 C   0  0  0  0  0  0  0  0  0  0  0  0
    0.4150   -3.4170    9.4610 C   0  0  0  0  0  0  0  0  0  0  0  0
    1.6470   -2.9250    9.1310 O   0  0  0  0  0  0  0  0  0  0  0  0
   -0.2210   -4.3160    8.6080 C   0  0  0  0  0  0  0  0  0  0  0  0
    0.4540   -4.6410    7.4560 O   0  0  0  0  0  0  0  0  0  0  0  0
   -3.8080   -9.8640   11.0200 C   0  0  1  0  0  0  0  0  0  0  0  0
   -5.1200   -9.3410   10.8450 O   0  0  0  0  0  0  0  0  0  0  0  0
   -3.8150  -11.1280   11.8600 C   0  0  1  0  0  0  0  0  0  0  0  0
   -4.9380  -11.9400   11.4700 O   0  0  0  0  0  0  0  0  0  0  0  0
    1.9482  -11.8179   16.5583 H   0  0  0  0  0  0  0  0  0  0  0  0
    3.1039  -12.1879   15.2339 H   0  0  0  0  0  0  0  0  0  0  0  0
    2.2060  -10.6321   15.2339 H   0  0  0  0  0  0  0  0  0  0  0  0
   -0.2866  -15.3449   14.2957 H   0  0  0  0  0  0  0  0  0  0  0  0
   -1.0624   -9.3414   11.9847 H   0  0  0  0  0  0  0  0  0  0  0  0
   -2.6286  -12.8813   11.5034 H   0  0  0  0  0  0  0  0  0  0  0  0
   -3.9472  -10.7693    9.0735 H   0  0  0  0  0  0  0  0  0  0  0  0
   -1.7471   -8.6447    9.4892 H   0  0  0  0  0  0  0  0  0  0  0  0
   -3.3807   -9.6845    7.1106 H   0  0  0  0  0  0  0  0  0  0  0  0
   -1.1393   -8.4004    6.2881 H   0  0  0  0  0  0  0  0  0  0  0  0
   -2.6696   -7.4983    6.1550 H   0  0  0  0  0  0  0  0  0  0  0  0
   -0.5040   -7.0990    8.0750 H   0  0  0  0  0  0  0  0  0  0  0  0
   -3.0919   -4.7712   10.3933 H   0  0  0  0  0  0  0  0  0  0  0  0
   -3.6889   -4.5171   12.1576 H   0  0  0  0  0  0  0  0  0  0  0  0
   -4.7843   -3.7590   14.2638 H   0  0  0  0  0  0  0  0  0  0  0  0
   -1.7864   -0.6878   14.7305 H   0  0  0  0  0  0  0  0  0  0  0  0
   -0.6866   -1.4347   12.6226 H   0  0  0  0  0  0  0  0  0  0  0  0
    0.3444   -2.2948   11.3038 H   0  0  0  0  0  0  0  0  0  0  0  0
    2.1190   -3.6860    8.7330 H   0  0  0  0  0  0  0  0  0  0  0  0
    0.7730   -5.5680    7.5560 H   0  0  0  0  0  0  0  0  0  0  0  0
   -3.2685   -9.0148   11.4647 H   0  0  0  0  0  0  0  0  0  0  0  0
   -5.3870   -8.9540   11.7020 H   0  0  0  0  0  0  0  0  0  0  0  0
   -3.9010  -10.9658   12.9446 H   0  0  0  0  0  0  0  0  0  0  0  0
   -5.6650  -11.3210   11.2670 H   0  0  0  0  0  0  0  0  0  0  0  0
  1  2  1  0
  2  3  2  0
  3  4  1  0
  4  5  2  0
  5  6  1  0
  6  7  2  0
  7  8  1  0
  8  9  2  0
  9 10  1  0
 10 11  1  0
 11 12  1  0
 12 13  1  0
 13 14  1  0
 14 15  2  0
 15 16  1  0
 16 17  1  0
 17 18  1  0
 18 19  2  0
 18 20  1  0
 20 21  2  0
 21 22  1  0
 22 23  1  0
 23 24  2  0
 24 25  1  0
 25 26  2  0
 26 27  1  0
 26 28  1  0
 28 29  2  0
 22 30  2  0
 30 31  1  0
 31 32  1  0
 31 33  2  0
 33 34  1  0
 13 35  1  0
 35 36  1  0
 35 37  1  0
 37 38  1  0
  7  2  1  0
 37 11  1  0
 10  6  1  0
 33 20  1  0
 29 23  1  0
  1 39  1  0
  1 40  1  0
  1 41  1  0
  4 42  1  0
  9 43  1  0
 11 44  1  6
 13 45  1  6
 14 46  1  0
 15 47  1  0
 16 48  1  0
 16 49  1  0
 17 50  1  0
 21 51  1  0
 24 52  1  0
 25 53  1  0
 28 54  1  0
 29 55  1  0
 30 56  1  0
 32 57  1  0
 34 58  1  0
 35 59  1  1
 36 60  1  0
 37 61  1  1
 38 62  1  0
M  END
>  <meeko>  (3) 
{"is_sidechain": [false], "free_energy": -9.291, "intermolecular_energy": -13.566, "internal_energy": -1.562}

$$$$
3nw9_ligand
     RDKit          3D

 62 66  0  0  0  0  0  0  0  0999 V2000
   -5.6970   -5.3220   17.5380 C   0  0  0  0  0  0  0  0  0  0  0  0
   -5.0390   -4.1860   16.8240 C   0  0  0  0  0  0  0  0  0  0  0  0
   -4.9110   -2.9940   17.4820 N   0  0  0  0  0  0  0  0  0  0  0  0
   -4.3280   -1.9590   16.8400 C   0  0  0  0  0  0  0  0  0  0  0  0
   -3.8280   -1.9330   15.5880 N   0  0  0  0  0  0  0  0  0  0  0  0
   -3.9870   -3.1210   14.9840 C   0  0  0  0  0  0  0  0  0  0  0  0
   -4.5630   -4.2680   15.5110 C   0  0  0  0  0  0  0  0  0  0  0  0
   -4.5420   -5.2890   14.5890 N   0  0  0  0  0  0  0  0  0  0  0  0
   -3.9790   -4.7680   13.5170 C   0  0  0  0  0  0  0  0  0  0  0  0
   -3.6040   -3.4670   13.7160 N   0  0  0  0  0  0  0  0  0  0  0  0
   -2.9500   -2.5740   12.7750 C   0  0  2  0  0  0  0  0  0  0  0  0
   -3.2370   -3.0210   11.4260 O   0  0  0  0  0  0  0  0  0  0  0  0
   -1.9890   -3.3420   10.7870 C   0  0  2  0  0  0  0  0  0  0  0  0
   -2.2080   -4.5580    9.9360 C   0  0  0  0  0  0  0  0  0  0  0  0
   -1.6380   -4.7500    8.7340 C   0  0  0  0  0  0  0  0  0  0  0  0
   -1.8500   -5.9570    7.8780 C   0  0  0  0  0  0  0  0  0  0  0  0
   -3.2360   -5.9630    7.4750 N   0  0  0  0  0  0  0  0  0  0  0  0
   -3.6080   -5.7780    6.1620 C   0  0  0  0  0  0  0  0  0  0  0  0
   -2.8060   -5.6410    5.2410 O   0  0  0  0  0  0  0  0  0  0  0  0
   -5.0630   -5.6890    5.8640 C   0  0  0  0  0  0  0  0  0  0  0  0
   -6.0380   -5.8570    6.8630 C   0  0  0  0  0  0  0  0  0  0  0  0
   -7.4140   -5.7520    6.5710 C   0  0  0  0  0  0  0  0  0  0  0  0
   -8.4240   -5.9230    7.6280 C   0  0  0  0  0  0  0  0  0  0  0  0
   -9.2480   -4.8510    8.0230 C   0  0  0  0  0  0  0  0  0  0  0  0
  -10.2090   -5.0160    9.0230 C   0  0  0  0  0  0  0  0  0  0  0  0
  -10.3540   -6.2530    9.6370 C   0  0  0  0  0  0  0  0  0  0  0  0
  -11.2760   -6.4110   10.5960 F   0  0  0  0  0  0  0  0  0  0  0  0
   -9.5550   -7.3290    9.2700 C   0  0  0  0  0  0  0  0  0  0  0  0
   -8.5940   -7.1630    8.2710 C   0  0  0  0  0  0  0  0  0  0  0  0
   -7.7980   -5.4800    5.2480 C   0  0  0  0  0  0  0  0  0  0  0  0
   -6.8350   -5.3370    4.2580 C   0  0  0  0  0  0  0  0  0  0  0  0
   -7.2360   -5.0900    2.9750 O   0  0  0  0  0  0  0  0  0  0  0  0
   -5.4780   -5.4500    4.5490 C   0  0  0  0  0  0  0  0  0  0  0  0
   -4.6160   -5.3120    3.4870 O   0  0  0  0  0  0  0  0  0  0  0  0
   -0.9720   -3.5610   11.9110 C   0  0  1  0  0  0  0  0  0  0  0  0
    0.3800   -3.3550   11.5180 O   0  0  0  0  0  0  0  0  0  0  0  0
   -1.4240   -2.5310   12.9300 C   0  0  1  0  0  0  0  0  0  0  0  0
   -0.9050   -1.2420   12.5500 O   0  0  0  0  0  0  0  0  0  0  0  0
   -5.6101   -5.1720   18.6242 H   0  0  0  0  0  0  0  0  0  0  0  0
   -6.7598   -5.3649   17.2577 H   0  0  0  0  0  0  0  0  0  0  0  0
   -5.2054   -6.2653   17.2577 H   0  0  0  0  0  0  0  0  0  0  0  0
   -4.2515   -1.0207   17.4089 H   0  0  0  0  0  0  0  0  0  0  0  0
   -3.8284   -5.3143   12.5742 H   0  0  0  0  0  0  0  0  0  0  0  0
   -3.3401   -1.5661   12.9797 H   0  0  0  0  0  0  0  0  0  0  0  0
   -1.6099   -2.5500   10.1245 H   0  0  0  0  0  0  0  0  0  0  0  0
   -2.8773   -5.3419   10.3200 H   0  0  0  0  0  0  0  0  0  0  0  0
   -0.9688   -3.9641    8.3537 H   0  0  0  0  0  0  0  0  0  0  0  0
   -1.2009   -5.9077    6.9913 H   0  0  0  0  0  0  0  0  0  0  0  0
   -1.6030   -6.8743    8.4325 H   0  0  0  0  0  0  0  0  0  0  0  0
   -3.9150   -5.8280    8.2100 H   0  0  0  0  0  0  0  0  0  0  0  0
   -5.7212   -6.0748    7.8936 H   0  0  0  0  0  0  0  0  0  0  0  0
   -9.1331   -3.8707    7.5374 H   0  0  0  0  0  0  0  0  0  0  0  0
  -10.8470   -4.1714    9.3223 H   0  0  0  0  0  0  0  0  0  0  0  0
   -9.6788   -8.3045    9.7630 H   0  0  0  0  0  0  0  0  0  0  0  0
   -7.9602   -8.0144    7.9822 H   0  0  0  0  0  0  0  0  0  0  0  0
   -8.8639   -5.3800    4.9954 H   0  0  0  0  0  0  0  0  0  0  0  0
   -6.9090   -5.8570    2.4620 H   0  0  0  0  0  0  0  0  0  0  0  0
   -4.4480   -4.3470    3.3720 H   0  0  0  0  0  0  0  0  0  0  0  0
   -0.9594   -4.5990   12.2748 H   0  0  0  0  0  0  0  0  0  0  0  0
    0.7870   -2.7780   12.1930 H   0  0  0  0  0  0  0  0  0  0  0  0
   -1.0893   -2.7182   13.9610 H   0  0  0  0  0  0  0  0  0  0  0  0
   -0.2230   -1.0160   13.2110 H   0  0  0  0  0  0  0  0  0  0  0  0
  1  2  1  0
  2  3  2  0
  3  4  1  0
  4  5  2  0
  5  6  1  0
  6  7  2  0
  7  8  1  0
  8  9  2  0
  9 10  1  0
 10 11  1  0
 11 12  1  0
 12 13  1  0
 13 14  1  0
 14 15  2  0
 15 16  1  0
 16 17  1  0
 17 18  1  0
 18 19  2  0
 18 20  1  0
 20 21  2  0
 21 22  1  0
 22 23  1  0
 23 24  2  0
 24 25  1  0
 25 26  2  0
 26 27  1  0
 26 28  1  0
 28 29  2  0
 22 30  2  0
 30 31  1  0
 31 32  1  0
 31 33  2  0
 33 34  1  0
 13 35  1  0
 35 36  1  0
 35 37  1  0
 37 38  1  0
  7  2  1  0
 37 11  1  0
 10  6  1  0
 33 20  1  0
 29 23  1  0
  1 39  1  0
  1 40  1  0
  1 41  1  0
  4 42  1  0
  9 43  1  0
 11 44  1  6
 13 45  1  6
 14 46  1  0
 15 47  1  0
 16 48  1  0
 16 49  1  0
 17 50  1  0
 21 51  1  0
 24 52  1  0
 25 53  1  0
 28 54  1  0
 29 55  1  0
 30 56  1  0
 32 57  1  0
 34 58  1  0
 35 59  1  1
 36 60  1  0
 37 61  1  1
 38 62  1  0
M  END
>  <meeko>  (4) 
{"is_sidechain": [false], "free_energy": -9.263, "intermolecular_energy": -13.795, "internal_energy": -1.292}

$$$$
3nw9_ligand
     RDKit          3D

 62 66  0  0  0  0  0  0  0  0999 V2000
   -1.7120   -1.1370   12.0730 C   0  0  0  0  0  0  0  0  0  0  0  0
   -1.1160   -2.0940   11.0920 C   0  0  0  0  0  0  0  0  0  0  0  0
   -0.1030   -1.6520   10.2880 N   0  0  0  0  0  0  0  0  0  0  0  0
    0.4330   -2.5070    9.3900 C   0  0  0  0  0  0  0  0  0  0  0  0
    0.0980   -3.7930    9.1660 N   0  0  0  0  0  0  0  0  0  0  0  0
   -0.9070   -4.1740    9.9710 C   0  0  0  0  0  0  0  0  0  0  0  0
   -1.5530   -3.4140   10.9340 C   0  0  0  0  0  0  0  0  0  0  0  0
   -2.5300   -4.1540   11.5600 N   0  0  0  0  0  0  0  0  0  0  0  0
   -2.4890   -5.3340   10.9760 C   0  0  0  0  0  0  0  0  0  0  0  0
   -1.5070   -5.4030   10.0260 N   0  0  0  0  0  0  0  0  0  0  0  0
   -1.1550   -6.5370    9.1880 C   0  0  2  0  0  0  0  0  0  0  0  0
   -1.1550   -6.1130    7.8010 O   0  0  0  0  0  0  0  0  0  0  0  0
   -2.1340   -6.8930    7.0950 C   0  0  2  0  0  0  0  0  0  0  0  0
   -2.8110   -5.9930    6.1040 C   0  0  0  0  0  0  0  0  0  0  0  0
   -2.7060   -6.1250    4.7710 C   0  0  0  0  0  0  0  0  0  0  0  0
   -3.3750   -5.2330    3.7750 C   0  0  0  0  0  0  0  0  0  0  0  0
   -4.7970   -5.3220    4.0010 N   0  0  0  0  0  0  0  0  0  0  0  0
   -5.6870   -5.4750    2.9600 C   0  0  0  0  0  0  0  0  0  0  0  0
   -5.3450   -5.5910    1.7860 O   0  0  0  0  0  0  0  0  0  0  0  0
   -7.1390   -5.4450    3.2840 C   0  0  0  0  0  0  0  0  0  0  0  0
   -7.6030   -5.3810    4.6100 C   0  0  0  0  0  0  0  0  0  0  0  0
   -8.9820   -5.3340    4.9030 C   0  0  0  0  0  0  0  0  0  0  0  0
   -9.4550   -5.2600    6.2950 C   0  0  0  0  0  0  0  0  0  0  0  0
   -8.6280   -5.6570    7.3630 C   0  0  0  0  0  0  0  0  0  0  0  0
   -9.0770   -5.5830    8.6830 C   0  0  0  0  0  0  0  0  0  0  0  0
  -10.3560   -5.1110    8.9470 C   0  0  0  0  0  0  0  0  0  0  0  0
  -10.7860   -5.0390   10.2140 F   0  0  0  0  0  0  0  0  0  0  0  0
  -11.1960   -4.7120    7.9150 C   0  0  0  0  0  0  0  0  0  0  0  0
  -10.7460   -4.7880    6.5950 C   0  0  0  0  0  0  0  0  0  0  0  0
   -9.8940   -5.3580    3.8350 C   0  0  0  0  0  0  0  0  0  0  0  0
   -9.4340   -5.4440    2.5280 C   0  0  0  0  0  0  0  0  0  0  0  0
  -10.3430   -5.4830    1.5070 O   0  0  0  0  0  0  0  0  0  0  0  0
   -8.0720   -5.4990    2.2430 C   0  0  0  0  0  0  0  0  0  0  0  0
   -7.7330   -5.6050    0.9150 O   0  0  0  0  0  0  0  0  0  0  0  0
   -3.0860   -7.4540    8.1560 C   0  0  1  0  0  0  0  0  0  0  0  0
   -3.7650   -8.6390    7.7570 O   0  0  0  0  0  0  0  0  0  0  0  0
   -2.1320   -7.7140    9.3080 C   0  0  1  0  0  0  0  0  0  0  0  0
   -1.4580   -8.9660    9.0790 O   0  0  0  0  0  0  0  0  0  0  0  0
   -1.4983   -1.4801   13.0961 H   0  0  0  0  0  0  0  0  0  0  0  0
   -1.2758   -0.1385   11.9225 H   0  0  0  0  0  0  0  0  0  0  0  0
   -2.8006   -1.0881   11.9225 H   0  0  0  0  0  0  0  0  0  0  0  0
    1.2429   -2.1038    8.7643 H   0  0  0  0  0  0  0  0  0  0  0  0
   -3.1648   -6.1660   11.2231 H   0  0  0  0  0  0  0  0  0  0  0  0
   -0.1666   -6.8806    9.5270 H   0  0  0  0  0  0  0  0  0  0  0  0
   -1.7097   -7.7346    6.5279 H   0  0  0  0  0  0  0  0  0  0  0  0
   -3.4327   -5.1732    6.4932 H   0  0  0  0  0  0  0  0  0  0  0  0
   -2.0845   -6.9467    4.3856 H   0  0  0  0  0  0  0  0  0  0  0  0
   -3.0368   -4.1954    3.9131 H   0  0  0  0  0  0  0  0  0  0  0  0
   -3.1253   -5.5413    2.7490 H   0  0  0  0  0  0  0  0  0  0  0  0
   -5.1290   -4.9920    4.8960 H   0  0  0  0  0  0  0  0  0  0  0  0
   -6.8759   -5.3673    5.4353 H   0  0  0  0  0  0  0  0  0  0  0  0
   -7.6145   -6.0305    7.1547 H   0  0  0  0  0  0  0  0  0  0  0  0
   -8.4215   -5.8967    9.5088 H   0  0  0  0  0  0  0  0  0  0  0  0
  -12.2072   -4.3393    8.1356 H   0  0  0  0  0  0  0  0  0  0  0  0
  -11.4113   -4.4739    5.7772 H   0  0  0  0  0  0  0  0  0  0  0  0
  -10.9746   -5.3086    4.0346 H   0  0  0  0  0  0  0  0  0  0  0  0
  -11.2120   -5.5560    1.9530 H   0  0  0  0  0  0  0  0  0  0  0  0
   -8.3130   -4.9830    0.4160 H   0  0  0  0  0  0  0  0  0  0  0  0
   -3.9155   -6.7691    8.3860 H   0  0  0  0  0  0  0  0  0  0  0  0
   -4.3300   -8.9080    8.5070 H   0  0  0  0  0  0  0  0  0  0  0  0
   -2.6057   -7.7827   10.2984 H   0  0  0  0  0  0  0  0  0  0  0  0
   -0.9080   -8.8390    8.2830 H   0  0  0  0  0  0  0  0  0  0  0  0
  1  2  1  0
  2  3  2  0
  3  4  1  0
  4  5  2  0
  5  6  1  0
  6  7  2  0
  7  8  1  0
  8  9  2  0
  9 10  1  0
 10 11  1  0
 11 12  1  0
 12 13  1  0
 13 14  1  0
 14 15  2  0
 15 16  1  0
 16 17  1  0
 17 18  1  0
 18 19  2  0
 18 20  1  0
 20 21  2  0
 21 22  1  0
 22 23  1  0
 23 24  2  0
 24 25  1  0
 25 26  2  0
 26 27  1  0
 26 28  1  0
 28 29  2  0
 22 30  2  0
 30 31  1  0
 31 32  1  0
 31 33  2  0
 33 34  1  0
 13 35  1  0
 35 36  1  0
 35 37  1  0
 37 38  1  0
  7  2  1  0
 37 11  1  0
 10  6  1  0
 33 20  1  0
 29 23  1  0
  1 39  1  0
  1 40  1  0
  1 41  1  0
  4 42  1  0
  9 43  1  0
 11 44  1  1
 13 45  1  6
 14 46  1  0
 15 47  1  0
 16 48  1  0
 16 49  1  0
 17 50  1  0
 21 51  1  0
 24 52  1  0
 25 53  1  0
 28 54  1  0
 29 55  1  0
 30 56  1  0
 32 57  1  0
 34 58  1  0
 35 59  1  1
 36 60  1  0
 37 61  1  1
 38 62  1  0
M  END
>  <meeko>  (5) 
{"is_sidechain": [false], "free_energy": -9.263, "intermolecular_energy": -14.026, "internal_energy": -1.061}

$$$$
3nw9_ligand
     RDKit          3D

 62 66  0  0  0  0  0  0  0  0999 V2000
   -8.1140  -12.4640    3.4250 C   0  0  0  0  0  0  0  0  0  0  0  0
   -8.2040  -12.0400    4.8550 C   0  0  0  0  0  0  0  0  0  0  0  0
   -9.4300  -11.6980    5.3540 N   0  0  0  0  0  0  0  0  0  0  0  0
   -9.5180  -11.3020    6.6430 C   0  0  0  0  0  0  0  0  0  0  0  0
   -8.5250  -11.1940    7.5490 N   0  0  0  0  0  0  0  0  0  0  0  0
   -7.3440  -11.5300    7.0060 C   0  0  0  0  0  0  0  0  0  0  0  0
   -7.0980  -11.9520    5.7090 C   0  0  0  0  0  0  0  0  0  0  0  0
   -5.7580  -12.2080    5.5270 N   0  0  0  0  0  0  0  0  0  0  0  0
   -5.1990  -11.9310    6.6880 C   0  0  0  0  0  0  0  0  0  0  0  0
   -6.1210  -11.5400    7.6210 N   0  0  0  0  0  0  0  0  0  0  0  0
   -5.8840  -11.1670    9.0050 C   0  0  2  0  0  0  0  0  0  0  0  0
   -5.2910   -9.8450    9.0410 O   0  0  0  0  0  0  0  0  0  0  0  0
   -4.0010   -9.9510    9.6670 C   0  0  2  0  0  0  0  0  0  0  0  0
   -3.0650   -9.0240    8.9480 C   0  0  0  0  0  0  0  0  0  0  0  0
   -2.9350   -8.9710    7.6110 C   0  0  0  0  0  0  0  0  0  0  0  0
   -2.0050   -8.0530    6.8850 C   0  0  0  0  0  0  0  0  0  0  0  0
   -1.5050   -7.0980    7.8440 N   0  0  0  0  0  0  0  0  0  0  0  0
   -2.0850   -5.8580    7.9980 C   0  0  0  0  0  0  0  0  0  0  0  0
   -3.0800   -5.4900    7.3780 O   0  0  0  0  0  0  0  0  0  0  0  0
   -1.4300   -4.9010    8.9310 C   0  0  0  0  0  0  0  0  0  0  0  0
   -2.0640   -4.4560   10.1050 C   0  0  0  0  0  0  0  0  0  0  0  0
   -1.4250   -3.5640   10.9920 C   0  0  0  0  0  0  0  0  0  0  0  0
   -2.0970   -3.1120   12.2200 C   0  0  0  0  0  0  0  0  0  0  0  0
   -3.2510   -3.7630   12.6970 C   0  0  0  0  0  0  0  0  0  0  0  0
   -3.8850   -3.3350   13.8650 C   0  0  0  0  0  0  0  0  0  0  0  0
   -3.3710   -2.2520   14.5670 C   0  0  0  0  0  0  0  0  0  0  0  0
   -3.9800   -1.8420   15.6880 F   0  0  0  0  0  0  0  0  0  0  0  0
   -2.2350   -1.5890   14.1210 C   0  0  0  0  0  0  0  0  0  0  0  0
   -1.6020   -2.0170   12.9530 C   0  0  0  0  0  0  0  0  0  0  0  0
   -0.1320   -3.1190   10.6740 C   0  0  0  0  0  0  0  0  0  0  0  0
    0.4840   -3.5410    9.5030 C   0  0  0  0  0  0  0  0  0  0  0  0
    1.7360   -3.0780    9.2090 O   0  0  0  0  0  0  0  0  0  0  0  0
   -0.1540   -4.4150    8.6270 C   0  0  0  0  0  0  0  0  0  0  0  0
    0.5410   -4.7480    7.4890 O   0  0  0  0  0  0  0  0  0  0  0  0
   -3.5930  -11.4240    9.5690 C   0  0  1  0  0  0  0  0  0  0  0  0
   -2.6560  -11.8320   10.5590 O   0  0  0  0  0  0  0  0  0  0  0  0
   -4.9320  -12.1180    9.7420 C   0  0  1  0  0  0  0  0  0  0  0  0
   -5.2470  -12.1750   11.1460 O   0  0  0  0  0  0  0  0  0  0  0  0
   -7.8858  -13.5389    3.3749 H   0  0  0  0  0  0  0  0  0  0  0  0
   -9.0735  -12.2691    2.9237 H   0  0  0  0  0  0  0  0  0  0  0  0
   -7.3164  -11.8961    2.9237 H   0  0  0  0  0  0  0  0  0  0  0  0
  -10.5245  -11.0346    6.9972 H   0  0  0  0  0  0  0  0  0  0  0  0
   -4.1192  -12.0053    6.8840 H   0  0  0  0  0  0  0  0  0  0  0  0
   -6.8608  -11.2071    9.5093 H   0  0  0  0  0  0  0  0  0  0  0  0
   -3.9932   -9.6581   10.7272 H   0  0  0  0  0  0  0  0  0  0  0  0
   -2.4463   -8.3451    9.5532 H   0  0  0  0  0  0  0  0  0  0  0  0
   -3.5563   -9.6506    7.0092 H   0  0  0  0  0  0  0  0  0  0  0  0
   -1.1704   -8.6263    6.4552 H   0  0  0  0  0  0  0  0  0  0  0  0
   -2.5276   -7.5411    6.0635 H   0  0  0  0  0  0  0  0  0  0  0  0
   -0.5680   -7.2570    8.1860 H   0  0  0  0  0  0  0  0  0  0  0  0
   -3.0792   -4.8108   10.3365 H   0  0  0  0  0  0  0  0  0  0  0  0
   -3.6586   -4.6206   12.1417 H   0  0  0  0  0  0  0  0  0  0  0  0
   -4.7858   -3.8521   14.2271 H   0  0  0  0  0  0  0  0  0  0  0  0
   -1.8368   -0.7323   14.6845 H   0  0  0  0  0  0  0  0  0  0  0  0
   -0.7029   -1.4907   12.6000 H   0  0  0  0  0  0  0  0  0  0  0  0
    0.3949   -2.4339   11.3545 H   0  0  0  0  0  0  0  0  0  0  0  0
    1.7370   -2.9700    8.2360 H   0  0  0  0  0  0  0  0  0  0  0  0
    1.4970   -4.7750    7.7290 H   0  0  0  0  0  0  0  0  0  0  0  0
   -3.0673  -11.6577    8.6314 H   0  0  0  0  0  0  0  0  0  0  0  0
   -2.3860  -12.7430   10.3340 H   0  0  0  0  0  0  0  0  0  0  0  0
   -4.9746  -13.1499    9.3634 H   0  0  0  0  0  0  0  0  0  0  0  0
   -4.6740  -11.5160   11.5820 H   0  0  0  0  0  0  0  0  0  0  0  0
  1  2  1  0
  2  3  2  0
  3  4  1  0
  4  5  2  0
  5  6  1  0
  6  7  2  0
  7  8  1  0
  8  9  2  0
  9 10  1  0
 10 11  1  0
 11 12  1  0
 12 13  1  0
 13 14  1  0
 14 15  2  0
 15 16  1  0
 16 17  1  0
 17 18  1  0
 18 19  2  0
 18 20  1  0
 20 21  2  0
 21 22  1  0
 22 23  1  0
 23 24  2  0
 24 25  1  0
 25 26  2  0
 26 27  1  0
 26 28  1  0
 28 29  2  0
 22 30  2  0
 30 31  1  0
 31 32  1  0
 31 33  2  0
 33 34  1  0
 13 35  1  0
 35 36  1  0
 35 37  1  0
 37 38  1  0
  7  2  1  0
 37 11  1  0
 10  6  1  0
 33 20  1  0
 29 23  1  0
  1 39  1  0
  1 40  1  0
  1 41  1  0
  4 42  1  0
  9 43  1  0
 11 44  1  1
 13 45  1  1
 14 46  1  0
 15 47  1  0
 16 48  1  0
 16 49  1  0
 17 50  1  0
 21 51  1  0
 24 52  1  0
 25 53  1  0
 28 54  1  0
 29 55  1  0
 30 56  1  0
 32 57  1  0
 34 58  1  0
 35 59  1  6
 36 60  1  0
 37 61  1  6
 38 62  1  0
M  END
>  <meeko>  (6) 
{"is_sidechain": [false], "free_energy": -9.163, "intermolecular_energy": -13.494, "internal_energy": -1.446}

$$$$
3nw9_ligand
     RDKit          3D

 62 66  0  0  0  0  0  0  0  0999 V2000
   -2.7520  -10.1090   16.0100 C   0  0  0  0  0  0  0  0  0  0  0  0
   -2.4490  -10.6280   14.6420 C   0  0  0  0  0  0  0  0  0  0  0  0
   -1.3220  -11.3820   14.4700 N   0  0  0  0  0  0  0  0  0  0  0  0
   -1.0350  -11.8460   13.2340 C   0  0  0  0  0  0  0  0  0  0  0  0
   -1.7350  -11.6670   12.0960 N   0  0  0  0  0  0  0  0  0  0  0  0
   -2.8230  -10.9130   12.3180 C   0  0  0  0  0  0  0  0  0  0  0  0
   -3.2460  -10.3690   13.5210 C   0  0  0  0  0  0  0  0  0  0  0  0
   -4.4110   -9.6590   13.3500 N   0  0  0  0  0  0  0  0  0  0  0  0
   -4.6830   -9.7560   12.0650 C   0  0  0  0  0  0  0  0  0  0  0  0
   -3.7650  -10.5250   11.4020 N   0  0  0  0  0  0  0  0  0  0  0  0
   -3.7390  -10.8640    9.9900 C   0  0  2  0  0  0  0  0  0  0  0  0
   -2.7770  -10.0110    9.3200 O   0  0  0  0  0  0  0  0  0  0  0  0
   -3.4760   -9.2470    8.3220 C   0  0  2  0  0  0  0  0  0  0  0  0
   -2.8880   -7.8680    8.3050 C   0  0  0  0  0  0  0  0  0  0  0  0
   -1.8470   -7.4820    9.0630 C   0  0  0  0  0  0  0  0  0  0  0  0
   -1.2530   -6.1100    9.0540 C   0  0  0  0  0  0  0  0  0  0  0  0
   -1.7510   -5.4160   10.2170 N   0  0  0  0  0  0  0  0  0  0  0  0
   -1.6140   -4.0530   10.3600 C   0  0  0  0  0  0  0  0  0  0  0  0
   -1.1080   -3.3270    9.5070 O   0  0  0  0  0  0  0  0  0  0  0  0
   -2.0600   -3.4450   11.6430 C   0  0  0  0  0  0  0  0  0  0  0  0
   -3.1740   -3.9340   12.3490 C   0  0  0  0  0  0  0  0  0  0  0  0
   -3.5750   -3.3610   13.5750 C   0  0  0  0  0  0  0  0  0  0  0  0
   -4.7380   -3.8860   14.3070 C   0  0  0  0  0  0  0  0  0  0  0  0
   -5.7630   -3.0290   14.7500 C   0  0  0  0  0  0  0  0  0  0  0  0
   -6.8680   -3.5290   15.4410 C   0  0  0  0  0  0  0  0  0  0  0  0
   -6.9590   -4.8910   15.6950 C   0  0  0  0  0  0  0  0  0  0  0  0
   -8.0200   -5.3710   16.3580 F   0  0  0  0  0  0  0  0  0  0  0  0
   -5.9640   -5.7630   15.2720 C   0  0  0  0  0  0  0  0  0  0  0  0
   -4.8590   -5.2610   14.5820 C   0  0  0  0  0  0  0  0  0  0  0  0
   -2.8370   -2.2780   14.0790 C   0  0  0  0  0  0  0  0  0  0  0  0
   -1.7520   -1.7830   13.3700 C   0  0  0  0  0  0  0  0  0  0  0  0
   -1.0610   -0.7170   13.8750 O   0  0  0  0  0  0  0  0  0  0  0  0
   -1.3640   -2.3460   12.1570 C   0  0  0  0  0  0  0  0  0  0  0  0
   -0.2890   -1.7600   11.5320 O   0  0  0  0  0  0  0  0  0  0  0  0
   -4.9560   -9.2720    8.7180 C   0  0  1  0  0  0  0  0  0  0  0  0
   -5.8490   -9.0580    7.6310 O   0  0  0  0  0  0  0  0  0  0  0  0
   -5.0910  -10.6720    9.2880 C   0  0  1  0  0  0  0  0  0  0  0  0
   -5.2420  -11.6050    8.2010 O   0  0  0  0  0  0  0  0  0  0  0  0
   -2.3476  -10.8016   16.7628 H   0  0  0  0  0  0  0  0  0  0  0  0
   -2.2901   -9.1188   16.1371 H   0  0  0  0  0  0  0  0  0  0  0  0
   -3.8414  -10.0245   16.1371 H   0  0  0  0  0  0  0  0  0  0  0  0
   -0.1161  -12.4441   13.1453 H   0  0  0  0  0  0  0  0  0  0  0  0
   -5.5463   -9.2756   11.5814 H   0  0  0  0  0  0  0  0  0  0  0  0
   -3.4745  -11.9301    9.9305 H   0  0  0  0  0  0  0  0  0  0  0  0
   -3.3811   -9.6501    7.3029 H   0  0  0  0  0  0  0  0  0  0  0  0
   -3.3368   -7.1249    7.6294 H   0  0  0  0  0  0  0  0  0  0  0  0
   -1.4009   -8.2280    9.7372 H   0  0  0  0  0  0  0  0  0  0  0  0
   -0.1557   -6.1752    9.0963 H   0  0  0  0  0  0  0  0  0  0  0  0
   -1.5289   -5.5736    8.1341 H   0  0  0  0  0  0  0  0  0  0  0  0
   -1.9450   -5.9860   11.0280 H   0  0  0  0  0  0  0  0  0  0  0  0
   -3.7441   -4.7799   11.9374 H   0  0  0  0  0  0  0  0  0  0  0  0
   -5.6922   -1.9499   14.5488 H   0  0  0  0  0  0  0  0  0  0  0  0
   -7.6618   -2.8482   15.7822 H   0  0  0  0  0  0  0  0  0  0  0  0
   -6.0460   -6.8402   15.4790 H   0  0  0  0  0  0  0  0  0  0  0  0
   -4.0703   -5.9512   14.2479 H   0  0  0  0  0  0  0  0  0  0  0  0
   -3.1199   -1.8207   15.0386 H   0  0  0  0  0  0  0  0  0  0  0  0
   -1.6070    0.0630   13.6460 H   0  0  0  0  0  0  0  0  0  0  0  0
   -0.6230   -0.9550   11.0700 H   0  0  0  0  0  0  0  0  0  0  0  0
   -5.2235   -8.4613    9.4117 H   0  0  0  0  0  0  0  0  0  0  0  0
   -5.4160   -8.4240    7.0290 H   0  0  0  0  0  0  0  0  0  0  0  0
   -5.9510  -10.8209    9.9574 H   0  0  0  0  0  0  0  0  0  0  0  0
   -6.2030  -11.7100    8.0630 H   0  0  0  0  0  0  0  0  0  0  0  0
  1  2  1  0
  2  3  2  0
  3  4  1  0
  4  5  2  0
  5  6  1  0
  6  7  2  0
  7  8  1  0
  8  9  2  0
  9 10  1  0
 10 11  1  0
 11 12  1  0
 12 13  1  0
 13 14  1  0
 14 15  2  0
 15 16  1  0
 16 17  1  0
 17 18  1  0
 18 19  2  0
 18 20  1  0
 20 21  2  0
 21 22  1  0
 22 23  1  0
 23 24  2  0
 24 25  1  0
 25 26  2  0
 26 27  1  0
 26 28  1  0
 28 29  2  0
 22 30  2  0
 30 31  1  0
 31 32  1  0
 31 33  2  0
 33 34  1  0
 13 35  1  0
 35 36  1  0
 35 37  1  0
 37 38  1  0
  7  2  1  0
 37 11  1  0
 10  6  1  0
 33 20  1  0
 29 23  1  0
  1 39  1  0
  1 40  1  0
  1 41  1  0
  4 42  1  0
  9 43  1  0
 11 44  1  1
 13 45  1  6
 14 46  1  0
 15 47  1  0
 16 48  1  0
 16 49  1  0
 17 50  1  0
 21 51  1  0
 24 52  1  0
 25 53  1  0
 28 54  1  0
 29 55  1  0
 30 56  1  0
 32 57  1  0
 34 58  1  0
 35 59  1  1
 36 60  1  0
 37 61  1  1
 38 62  1  0
M  END
>  <meeko>  (7) 
{"is_sidechain": [false], "free_energy": -9.133, "intermolecular_energy": -13.239, "internal_energy": -1.657}

$$$$
3nw9_ligand
     RDKit          3D

 62 66  0  0  0  0  0  0  0  0999 V2000
  -10.7720   -5.9170    1.1580 C   0  0  0  0  0  0  0  0  0  0  0  0
  -10.7640   -6.3240    2.5960 C   0  0  0  0  0  0  0  0  0  0  0  0
  -11.8680   -6.9550    3.0980 N   0  0  0  0  0  0  0  0  0  0  0  0
  -11.8730   -7.3160    4.3990 C   0  0  0  0  0  0  0  0  0  0  0  0
  -10.8990   -7.1390    5.3140 N   0  0  0  0  0  0  0  0  0  0  0  0
   -9.8450   -6.5070    4.7740 C   0  0  0  0  0  0  0  0  0  0  0  0
   -9.6950   -6.0780    3.4650 C   0  0  0  0  0  0  0  0  0  0  0  0
   -8.4710   -5.4740    3.2890 N   0  0  0  0  0  0  0  0  0  0  0  0
   -7.8960   -5.5210    4.4730 C   0  0  0  0  0  0  0  0  0  0  0  0
   -8.6770   -6.1590    5.3990 N   0  0  0  0  0  0  0  0  0  0  0  0
   -8.3760   -6.4100    6.7980 C   0  0  2  0  0  0  0  0  0  0  0  0
   -7.2210   -5.6210    7.1790 O   0  0  0  0  0  0  0  0  0  0  0  0
   -6.1850   -6.5230    7.6030 C   0  0  2  0  0  0  0  0  0  0  0  0
   -4.8750   -5.9800    7.1140 C   0  0  0  0  0  0  0  0  0  0  0  0
   -3.7540   -6.7110    6.9890 C   0  0  0  0  0  0  0  0  0  0  0  0
   -2.4440   -6.1790    6.5040 C   0  0  0  0  0  0  0  0  0  0  0  0
   -1.9680   -5.2380    7.4890 N   0  0  0  0  0  0  0  0  0  0  0  0
   -1.4840   -5.6520    8.7100 C   0  0  0  0  0  0  0  0  0  0  0  0
   -1.3780   -6.8320    9.0350 O   0  0  0  0  0  0  0  0  0  0  0  0
   -1.1210   -4.6020    9.7000 C   0  0  0  0  0  0  0  0  0  0  0  0
   -1.9280   -4.3240   10.8180 C   0  0  0  0  0  0  0  0  0  0  0  0
   -1.5640   -3.3390   11.7600 C   0  0  0  0  0  0  0  0  0  0  0  0
   -2.4140   -3.0630   12.9290 C   0  0  0  0  0  0  0  0  0  0  0  0
   -3.7970   -3.3250   12.8970 C   0  0  0  0  0  0  0  0  0  0  0  0
   -4.6020   -3.0660   14.0090 C   0  0  0  0  0  0  0  0  0  0  0  0
   -4.0310   -2.5450   15.1620 C   0  0  0  0  0  0  0  0  0  0  0  0
   -4.8030   -2.2970   16.2290 F   0  0  0  0  0  0  0  0  0  0  0  0
   -2.6700   -2.2750   15.2240 C   0  0  0  0  0  0  0  0  0  0  0  0
   -1.8660   -2.5330   14.1120 C   0  0  0  0  0  0  0  0  0  0  0  0
   -0.3710   -2.6280   11.5560 C   0  0  0  0  0  0  0  0  0  0  0  0
    0.4130   -2.8870   10.4390 C   0  0  0  0  0  0  0  0  0  0  0  0
    1.5610   -2.1690   10.2550 O   0  0  0  0  0  0  0  0  0  0  0  0
    0.0460   -3.8550    9.5080 C   0  0  0  0  0  0  0  0  0  0  0  0
    0.8860   -4.0110    8.4320 O   0  0  0  0  0  0  0  0  0  0  0  0
   -6.5340   -7.8920    7.0110 C   0  0  1  0  0  0  0  0  0  0  0  0
   -5.9750   -8.9900    7.7220 O   0  0  0  0  0  0  0  0  0  0  0  0
   -8.0500   -7.8790    7.0990 C   0  0  1  0  0  0  0  0  0  0  0  0
   -8.4400   -8.2270    8.4410 O   0  0  0  0  0  0  0  0  0  0  0  0
  -10.7936   -4.8195    1.0877 H   0  0  0  0  0  0  0  0  0  0  0  0
   -9.8662   -6.2983    0.6640 H   0  0  0  0  0  0  0  0  0  0  0  0
  -11.6621   -6.3336    0.6640 H   0  0  0  0  0  0  0  0  0  0  0  0
  -12.7849   -7.8166    4.7566 H   0  0  0  0  0  0  0  0  0  0  0  0
   -6.9048   -5.0974    4.6921 H   0  0  0  0  0  0  0  0  0  0  0  0
   -9.2788   -6.1395    7.3653 H   0  0  0  0  0  0  0  0  0  0  0  0
   -6.1035   -6.6268    8.6951 H   0  0  0  0  0  0  0  0  0  0  0  0
   -4.8288   -4.9156    6.8402 H   0  0  0  0  0  0  0  0  0  0  0  0
   -3.8041   -7.7752    7.2628 H   0  0  0  0  0  0  0  0  0  0  0  0
   -1.7228   -7.0019    6.3911 H   0  0  0  0  0  0  0  0  0  0  0  0
   -2.5620   -5.6902    5.5257 H   0  0  0  0  0  0  0  0  0  0  0  0
   -2.2580   -4.2780    7.3660 H   0  0  0  0  0  0  0  0  0  0  0  0
   -2.8625   -4.8864   10.9608 H   0  0  0  0  0  0  0  0  0  0  0  0
   -4.2498   -3.7392   11.9841 H   0  0  0  0  0  0  0  0  0  0  0  0
   -5.6816   -3.2736   13.9711 H   0  0  0  0  0  0  0  0  0  0  0  0
   -2.2287   -1.8609   16.1426 H   0  0  0  0  0  0  0  0  0  0  0  0
   -0.7882   -2.3188   14.1613 H   0  0  0  0  0  0  0  0  0  0  0  0
   -0.0563   -1.8641   12.2822 H   0  0  0  0  0  0  0  0  0  0  0  0
    2.2450   -2.8420   10.0600 H   0  0  0  0  0  0  0  0  0  0  0  0
    0.3610   -3.8150    7.6200 H   0  0  0  0  0  0  0  0  0  0  0  0
   -6.1290   -8.0319    5.9979 H   0  0  0  0  0  0  0  0  0  0  0  0
   -5.0580   -9.0970    7.4010 H   0  0  0  0  0  0  0  0  0  0  0  0
   -8.5620   -8.5819    6.4253 H   0  0  0  0  0  0  0  0  0  0  0  0
   -8.1110   -7.5090    9.0160 H   0  0  0  0  0  0  0  0  0  0  0  0
  1  2  1  0
  2  3  2  0
  3  4  1  0
  4  5  2  0
  5  6  1  0
  6  7  2  0
  7  8  1  0
  8  9  2  0
  9 10  1  0
 10 11  1  0
 11 12  1  0
 12 13  1  0
 13 14  1  0
 14 15  2  0
 15 16  1  0
 16 17  1  0
 17 18  1  0
 18 19  2  0
 18 20  1  0
 20 21  2  0
 21 22  1  0
 22 23  1  0
 23 24  2  0
 24 25  1  0
 25 26  2  0
 26 27  1  0
 26 28  1  0
 28 29  2  0
 22 30  2  0
 30 31  1  0
 31 32  1  0
 31 33  2  0
 33 34  1  0
 13 35  1  0
 35 36  1  0
 35 37  1  0
 37 38  1  0
  7  2  1  0
 37 11  1  0
 10  6  1  0
 33 20  1  0
 29 23  1  0
  1 39  1  0
  1 40  1  0
  1 41  1  0
  4 42  1  0
  9 43  1  0
 11 44  1  1
 13 45  1  1
 14 46  1  0
 15 47  1  0
 16 48  1  0
 16 49  1  0
 17 50  1  0
 21 51  1  0
 24 52  1  0
 25 53  1  0
 28 54  1  0
 29 55  1  0
 30 56  1  0
 32 57  1  0
 34 58  1  0
 35 59  1  6
 36 60  1  0
 37 61  1  6
 38 62  1  0
M  END
>  <meeko>  (8) 
{"is_sidechain": [false], "free_energy": -8.974, "intermolecular_energy": -13.41, "internal_energy": -1.253}

$$$$
3nw9_ligand
     RDKit          3D

 62 66  0  0  0  0  0  0  0  0999 V2000
   -5.6750  -10.7200   15.1050 C   0  0  0  0  0  0  0  0  0  0  0  0
   -5.9400  -11.0330   13.6680 C   0  0  0  0  0  0  0  0  0  0  0  0
   -6.9090  -11.9510   13.3720 N   0  0  0  0  0  0  0  0  0  0  0  0
   -7.1460  -12.2490   12.0760 C   0  0  0  0  0  0  0  0  0  0  0  0
   -6.5390  -11.7440   10.9830 N   0  0  0  0  0  0  0  0  0  0  0  0
   -5.5910  -10.8580   11.3290 C   0  0  0  0  0  0  0  0  0  0  0  0
   -5.2360  -10.4530   12.6070 C   0  0  0  0  0  0  0  0  0  0  0  0
   -4.2220   -9.5250   12.5570 N   0  0  0  0  0  0  0  0  0  0  0  0
   -3.9550   -9.3800   11.2750 C   0  0  0  0  0  0  0  0  0  0  0  0
   -4.7740  -10.1470   10.4910 N   0  0  0  0  0  0  0  0  0  0  0  0
   -4.7850  -10.2440    9.0410 C   0  0  2  0  0  0  0  0  0  0  0  0
   -3.6450   -9.5210    8.5140 O   0  0  0  0  0  0  0  0  0  0  0  0
   -4.1360   -8.4680    7.6670 C   0  0  2  0  0  0  0  0  0  0  0  0
   -3.2630   -7.2660    7.8750 C   0  0  0  0  0  0  0  0  0  0  0  0
   -2.1710   -7.2540    8.6580 C   0  0  0  0  0  0  0  0  0  0  0  0
   -1.2940   -6.0620    8.8740 C   0  0  0  0  0  0  0  0  0  0  0  0
   -1.7750   -5.3790   10.0500 N   0  0  0  0  0  0  0  0  0  0  0  0
   -1.5450   -4.0350   10.2510 C   0  0  0  0  0  0  0  0  0  0  0  0
   -0.9640   -3.3170    9.4410 O   0  0  0  0  0  0  0  0  0  0  0  0
   -1.9830   -3.4470   11.5450 C   0  0  0  0  0  0  0  0  0  0  0  0
   -3.0830   -3.9560   12.2590 C   0  0  0  0  0  0  0  0  0  0  0  0
   -3.4770   -3.4010   13.4940 C   0  0  0  0  0  0  0  0  0  0  0  0
   -4.6250   -3.9480   14.2350 C   0  0  0  0  0  0  0  0  0  0  0  0
   -5.6430   -3.1050   14.7200 C   0  0  0  0  0  0  0  0  0  0  0  0
   -6.7340   -3.6260   15.4190 C   0  0  0  0  0  0  0  0  0  0  0  0
   -6.8170   -4.9940   15.6380 C   0  0  0  0  0  0  0  0  0  0  0  0
   -7.8650   -5.4940   16.3080 F   0  0  0  0  0  0  0  0  0  0  0  0
   -5.8290   -5.8520   15.1720 C   0  0  0  0  0  0  0  0  0  0  0  0
   -4.7380   -5.3300   14.4750 C   0  0  0  0  0  0  0  0  0  0  0  0
   -2.7470   -2.3140   14.0020 C   0  0  0  0  0  0  0  0  0  0  0  0
   -1.6760   -1.7980   13.2850 C   0  0  0  0  0  0  0  0  0  0  0  0
   -0.9930   -0.7290   13.7930 O   0  0  0  0  0  0  0  0  0  0  0  0
   -1.2950   -2.3440   12.0620 C   0  0  0  0  0  0  0  0  0  0  0  0
   -0.2350   -1.7380   11.4310 O   0  0  0  0  0  0  0  0  0  0  0  0
   -5.5960   -8.2360    8.0690 C   0  0  1  0  0  0  0  0  0  0  0  0
   -6.3940   -7.6550    7.0440 O   0  0  0  0  0  0  0  0  0  0  0  0
   -6.0450   -9.6480    8.3980 C   0  0  1  0  0  0  0  0  0  0  0  0
   -6.3670  -10.3310    7.1710 O   0  0  0  0  0  0  0  0  0  0  0  0
   -6.2544  -11.4043   15.7422 H   0  0  0  0  0  0  0  0  0  0  0  0
   -4.6023  -10.8430   15.3153 H   0  0  0  0  0  0  0  0  0  0  0  0
   -5.9732   -9.6823   15.3153 H   0  0  0  0  0  0  0  0  0  0  0  0
   -7.9314  -12.9961   11.8891 H   0  0  0  0  0  0  0  0  0  0  0  0
   -3.1673   -8.7207   10.8814 H   0  0  0  0  0  0  0  0  0  0  0  0
   -4.7551  -11.3166    8.7990 H   0  0  0  0  0  0  0  0  0  0  0  0
   -4.1040   -8.7069    6.5937 H   0  0  0  0  0  0  0  0  0  0  0  0
   -3.5338   -6.3359    7.3538 H   0  0  0  0  0  0  0  0  0  0  0  0
   -1.9033   -8.1865    9.1765 H   0  0  0  0  0  0  0  0  0  0  0  0
   -0.2531   -6.3838    9.0256 H   0  0  0  0  0  0  0  0  0  0  0  0
   -1.3226   -5.3956    7.9993 H   0  0  0  0  0  0  0  0  0  0  0  0
   -2.0320   -5.9630   10.8320 H   0  0  0  0  0  0  0  0  0  0  0  0
   -3.6476   -4.8046   11.8453 H   0  0  0  0  0  0  0  0  0  0  0  0
   -5.5781   -2.0208   14.5459 H   0  0  0  0  0  0  0  0  0  0  0  0
   -7.5224   -2.9565   15.7935 H   0  0  0  0  0  0  0  0  0  0  0  0
   -5.9057   -6.9346   15.3509 H   0  0  0  0  0  0  0  0  0  0  0  0
   -3.9546   -6.0093   14.1077 H   0  0  0  0  0  0  0  0  0  0  0  0
   -3.0244   -1.8707   14.9698 H   0  0  0  0  0  0  0  0  0  0  0  0
   -1.5530   -0.4030   14.5270 H   0  0  0  0  0  0  0  0  0  0  0  0
   -0.5090   -1.5680   10.4990 H   0  0  0  0  0  0  0  0  0  0  0  0
   -5.6995   -7.5129    8.8914 H   0  0  0  0  0  0  0  0  0  0  0  0
   -7.0780   -7.1180    7.4880 H   0  0  0  0  0  0  0  0  0  0  0  0
   -6.9330   -9.7156    9.0437 H   0  0  0  0  0  0  0  0  0  0  0  0
   -5.8010  -11.1270    7.1450 H   0  0  0  0  0  0  0  0  0  0  0  0
  1  2  1  0
  2  3  2  0
  3  4  1  0
  4  5  2  0
  5  6  1  0
  6  7  2  0
  7  8  1  0
  8  9  2  0
  9 10  1  0
 10 11  1  0
 11 12  1  0
 12 13  1  0
 13 14  1  0
 14 15  2  0
 15 16  1  0
 16 17  1  0
 17 18  1  0
 18 19  2  0
 18 20  1  0
 20 21  2  0
 21 22  1  0
 22 23  1  0
 23 24  2  0
 24 25  1  0
 25 26  2  0
 26 27  1  0
 26 28  1  0
 28 29  2  0
 22 30  2  0
 30 31  1  0
 31 32  1  0
 31 33  2  0
 33 34  1  0
 13 35  1  0
 35 36  1  0
 35 37  1  0
 37 38  1  0
  7  2  1  0
 37 11  1  0
 10  6  1  0
 33 20  1  0
 29 23  1  0
  1 39  1  0
  1 40  1  0
  1 41  1  0
  4 42  1  0
  9 43  1  0
 11 44  1  1
 13 45  1  6
 14 46  1  0
 15 47  1  0
 16 48  1  0
 16 49  1  0
 17 50  1  0
 21 51  1  0
 24 52  1  0
 25 53  1  0
 28 54  1  0
 29 55  1  0
 30 56  1  0
 32 57  1  0
 34 58  1  0
 35 59  1  1
 36 60  1  0
 37 61  1  1
 38 62  1  0
M  END
>  <meeko>  (9) 
{"is_sidechain": [false], "free_energy": -8.9, "intermolecular_energy": -12.838, "internal_energy": -1.717}

$$$$
