3ag9_ligand
     RDKit          3D

140142  0  0  0  0  0  0  0  0999 V2000
   -4.1130    8.7810  -11.1020 N   0  0  0  0  0  0  0  0  0  0  0  0
   -4.2120    7.4800  -11.3920 C   0  0  0  0  0  0  0  0  0  0  0  0
   -4.4110    7.1240  -12.6630 N   0  0  0  0  0  0  0  0  0  0  0  0
   -4.1100    6.5710  -10.4020 N   0  0  0  0  0  0  0  0  0  0  0  0
   -4.1800    5.1200  -10.6160 C   0  0  0  0  0  0  0  0  0  0  0  0
   -5.5910    4.5610  -10.4100 C   0  0  0  0  0  0  0  0  0  0  0  0
   -6.0580    3.6640  -11.5650 C   0  0  0  0  0  0  0  0  0  0  0  0
   -7.5690    3.3630  -11.5270 C   0  0  1  0  0  0  0  0  0  0  0  0
   -8.3350    4.6040  -11.4150 N   0  0  0  0  0  0  0  0  0  0  0  0
   -9.5860    4.5640  -10.8230 C   0  0  0  0  0  0  0  0  0  0  0  0
  -10.1000    3.5220  -10.4280 O   0  0  0  0  0  0  0  0  0  0  0  0
  -10.2520    5.9460  -10.6790 C   0  0  1  0  0  0  0  0  0  0  0  0
  -11.7410    5.8110  -10.3210 C   0  0  0  0  0  0  0  0  0  0  0  0
  -12.0400    5.6210   -8.8270 C   0  0  0  0  0  0  0  0  0  0  0  0
  -13.4370    5.0910   -8.5050 C   0  0  0  0  0  0  0  0  0  0  0  0
  -13.6840    3.8090   -9.1800 N   0  0  0  0  0  0  0  0  0  0  0  0
  -14.7350    3.5750   -9.9860 C   0  0  0  0  0  0  0  0  0  0  0  0
  -14.8350    2.3890  -10.5970 N   0  0  0  0  0  0  0  0  0  0  0  0
  -15.6890    4.4800  -10.2010 N   0  0  0  0  0  0  0  0  0  0  0  0
   -9.5420    6.6530   -9.6170 N   0  0  0  0  0  0  0  0  0  0  0  0
   -9.3540    8.0180   -9.6630 C   0  0  0  0  0  0  0  0  0  0  0  0
   -9.7230    8.7010  -10.6140 O   0  0  0  0  0  0  0  0  0  0  0  0
   -8.6210    8.5520   -8.4430 C   0  0  0  0  0  0  0  0  0  0  0  0
   -8.0280    7.4420   -7.5760 C   0  0  0  0  0  0  0  0  0  0  0  0
   -8.1620    7.6990   -6.0680 C   0  0  0  0  0  0  0  0  0  0  0  0
   -6.8470    8.1180   -5.3970 C   0  0  0  0  0  0  0  0  0  0  0  0
   -5.6640    7.2300   -5.7930 C   0  0  0  0  0  0  0  0  0  0  0  0
   -4.4360    7.9780   -5.9890 N   0  0  0  0  0  0  0  0  0  0  0  0
   -4.2000    8.6820   -7.1500 C   0  0  0  0  0  0  0  0  0  0  0  0
   -4.9100    8.6000   -8.1590 O   0  0  0  0  0  0  0  0  0  0  0  0
   -2.9060    9.5200   -7.1480 C   0  0  1  0  0  0  0  0  0  0  0  0
   -2.9760   10.6000   -6.0460 C   0  0  0  0  0  0  0  0  0  0  0  0
   -3.6960   11.9090   -6.4140 C   0  0  0  0  0  0  0  0  0  0  0  0
   -2.8020   13.1540   -6.4680 C   0  0  0  0  0  0  0  0  0  0  0  0
   -1.5530   13.0110   -5.6040 C   0  0  0  0  0  0  0  0  0  0  0  0
   -0.3390   13.2320   -6.4260 N   0  0  0  0  0  0  0  0  0  0  0  0
   -1.7700    8.6100   -7.0220 N   0  0  0  0  0  0  0  0  0  0  0  0
   -1.3130    7.9150   -8.1290 C   0  0  0  0  0  0  0  0  0  0  0  0
   -1.7340    8.1240   -9.2590 O   0  0  0  0  0  0  0  0  0  0  0  0
   -0.2490    6.8890   -7.7820 C   0  0  0  0  0  0  0  0  0  0  0  0
    0.4290    6.2650   -9.0000 C   0  0  0  0  0  0  0  0  0  0  0  0
    1.6910    7.0170   -9.4350 C   0  0  0  0  0  0  0  0  0  0  0  0
    1.4430    7.7930  -10.7340 C   0  0  0  0  0  0  0  0  0  0  0  0
    1.2420    9.2910  -10.5040 C   0  0  0  0  0  0  0  0  0  0  0  0
    2.1600    9.8550   -9.5330 N   0  0  0  0  0  0  0  0  0  0  0  0
    1.7070   10.5910   -8.4550 C   0  0  0  0  0  0  0  0  0  0  0  0
    0.5190   10.7200   -8.1750 O   0  0  0  0  0  0  0  0  0  0  0  0
    2.8190   11.1710   -7.5760 C   0  0  1  0  0  0  0  0  0  0  0  0
    2.3100   11.6170   -6.3110 O   0  0  0  0  0  0  0  0  0  0  0  0
    2.7410   10.6930   -5.2940 C   0  0  1  0  0  0  0  0  0  0  0  0
    1.6340   10.3650   -4.4150 N   0  0  0  0  0  0  0  0  0  0  0  0
    0.3470   10.0550   -4.7600 C   0  0  0  0  0  0  0  0  0  0  0  0
   -0.4090    9.8470   -3.7000 N   0  0  0  0  0  0  0  0  0  0  0  0
    0.4330   10.0280   -2.6220 C   0  0  0  0  0  0  0  0  0  0  0  0
    0.2320    9.9460   -1.2340 C   0  0  0  0  0  0  0  0  0  0  0  0
   -0.9960    9.6610   -0.6580 N   0  0  0  0  0  0  0  0  0  0  0  0
    1.2940   10.1430   -0.4190 N   0  0  0  0  0  0  0  0  0  0  0  0
    2.4890   10.4340   -0.9750 C   0  0  0  0  0  0  0  0  0  0  0  0
    2.8060   10.5400   -2.2870 N   0  0  0  0  0  0  0  0  0  0  0  0
    1.7140   10.3310   -3.0480 C   0  0  0  0  0  0  0  0  0  0  0  0
    3.3180    9.4660   -6.0060 C   0  0  2  0  0  0  0  0  0  0  0  0
    4.3950    8.8310   -5.3100 O   0  0  0  0  0  0  0  0  0  0  0  0
    3.8310   10.0670   -7.3010 C   0  0  2  0  0  0  0  0  0  0  0  0
    5.1400   10.6220   -7.1020 O   0  0  0  0  0  0  0  0  0  0  0  0
   -7.9960    2.6400  -12.8360 C   0  0  0  0  0  0  0  0  0  0  0  0
   -8.7500    1.5130  -12.6650 N   0  0  0  0  0  0  0  0  0  0  0  0
   -7.6640    2.9980  -13.9690 O   0  0  0  0  0  0  0  0  0  0  0  0
   -3.9590    9.1160  -10.1610 H   0  0  0  0  0  0  0  0  0  0  0  0
   -4.1810    9.4860  -11.8270 H   0  0  0  0  0  0  0  0  0  0  0  0
   -4.4900    6.1550  -12.9410 H   0  0  0  0  0  0  0  0  0  0  0  0
   -4.4810    7.8110  -13.4030 H   0  0  0  0  0  0  0  0  0  0  0  0
   -3.9420    6.9280   -9.4700 H   0  0  0  0  0  0  0  0  0  0  0  0
   -3.8609    4.9000  -11.6455 H   0  0  0  0  0  0  0  0  0  0  0  0
   -3.5213    4.6422   -9.8758 H   0  0  0  0  0  0  0  0  0  0  0  0
   -5.6016    3.9706   -9.4819 H   0  0  0  0  0  0  0  0  0  0  0  0
   -6.2793    5.4177  -10.3611 H   0  0  0  0  0  0  0  0  0  0  0  0
   -5.8256    4.1677  -12.5149 H   0  0  0  0  0  0  0  0  0  0  0  0
   -5.5307    2.7036  -11.4669 H   0  0  0  0  0  0  0  0  0  0  0  0
   -7.7702    2.7237  -10.6547 H   0  0  0  0  0  0  0  0  0  0  0  0
   -7.8240    5.4610  -11.1940 H   0  0  0  0  0  0  0  0  0  0  0  0
  -10.1971    6.4954  -11.6304 H   0  0  0  0  0  0  0  0  0  0  0  0
  -12.2559    6.7229  -10.6577 H   0  0  0  0  0  0  0  0  0  0  0  0
  -12.0934    4.8969  -10.8213 H   0  0  0  0  0  0  0  0  0  0  0  0
  -11.3047    4.9111   -8.4204 H   0  0  0  0  0  0  0  0  0  0  0  0
  -11.9815    6.6218   -8.3744 H   0  0  0  0  0  0  0  0  0  0  0  0
  -13.5254    4.9478   -7.4180 H   0  0  0  0  0  0  0  0  0  0  0  0
  -14.1787    5.8217   -8.8597 H   0  0  0  0  0  0  0  0  0  0  0  0
  -13.0210    3.0540   -9.0570 H   0  0  0  0  0  0  0  0  0  0  0  0
  -14.1350    1.6660  -10.4850 H   0  0  0  0  0  0  0  0  0  0  0  0
  -15.6090    2.1800  -11.2150 H   0  0  0  0  0  0  0  0  0  0  0  0
  -16.4700    4.3010  -10.8150 H   0  0  0  0  0  0  0  0  0  0  0  0
  -15.6950    5.3930   -9.7360 H   0  0  0  0  0  0  0  0  0  0  0  0
   -8.9440    6.1090   -9.0030 H   0  0  0  0  0  0  0  0  0  0  0  0
   -7.8050    9.2071   -8.7820 H   0  0  0  0  0  0  0  0  0  0  0  0
   -9.3530    9.0969   -7.8288 H   0  0  0  0  0  0  0  0  0  0  0  0
   -8.5447    6.5009   -7.8152 H   0  0  0  0  0  0  0  0  0  0  0  0
   -6.9520    7.3986   -7.8005 H   0  0  0  0  0  0  0  0  0  0  0  0
   -8.9006    8.4999   -5.9160 H   0  0  0  0  0  0  0  0  0  0  0  0
   -8.4723    6.7505   -5.6054 H   0  0  0  0  0  0  0  0  0  0  0  0
   -6.6200    9.1544   -5.6873 H   0  0  0  0  0  0  0  0  0  0  0  0
   -6.9852    8.0169   -4.3104 H   0  0  0  0  0  0  0  0  0  0  0  0
   -5.5000    6.4887   -4.9971 H   0  0  0  0  0  0  0  0  0  0  0  0
   -5.9161    6.7531   -6.7517 H   0  0  0  0  0  0  0  0  0  0  0  0
   -3.9210    8.2580   -5.1600 H   0  0  0  0  0  0  0  0  0  0  0  0
   -2.7795   10.0719   -8.0911 H   0  0  0  0  0  0  0  0  0  0  0  0
   -3.4978   10.1628   -5.1820 H   0  0  0  0  0  0  0  0  0  0  0  0
   -1.9319   10.8862   -5.8514 H   0  0  0  0  0  0  0  0  0  0  0  0
   -4.1560   11.7773   -7.4045 H   0  0  0  0  0  0  0  0  0  0  0  0
   -4.4253   12.0919   -5.6111 H   0  0  0  0  0  0  0  0  0  0  0  0
   -2.4932   13.3222   -7.5103 H   0  0  0  0  0  0  0  0  0  0  0  0
   -3.3841   14.0021   -6.0782 H   0  0  0  0  0  0  0  0  0  0  0  0
   -1.5840   13.7538   -4.7933 H   0  0  0  0  0  0  0  0  0  0  0  0
   -1.5218   11.9965   -5.1799 H   0  0  0  0  0  0  0  0  0  0  0  0
    0.5490   13.1490   -5.8890 H   0  0  0  0  0  0  0  0  0  0  0  0
   -0.2640   12.5370   -7.1770 H   0  0  0  0  0  0  0  0  0  0  0  0
   -0.3370   14.1590   -6.8650 H   0  0  0  0  0  0  0  0  0  0  0  0
   -1.6420    8.1520   -6.1260 H   0  0  0  0  0  0  0  0  0  0  0  0
    0.5216    7.3821   -7.1713 H   0  0  0  0  0  0  0  0  0  0  0  0
   -0.7550    6.0731   -7.2451 H   0  0  0  0  0  0  0  0  0  0  0  0
    0.7057    5.2290   -8.7545 H   0  0  0  0  0  0  0  0  0  0  0  0
   -0.2860    6.3130   -9.8345 H   0  0  0  0  0  0  0  0  0  0  0  0
    1.9808    7.7232   -8.6430 H   0  0  0  0  0  0  0  0  0  0  0  0
    2.4941    6.2859   -9.6094 H   0  0  0  0  0  0  0  0  0  0  0  0
    2.3094    7.6530  -11.3971 H   0  0  0  0  0  0  0  0  0  0  0  0
    0.5174    7.4009  -11.1807 H   0  0  0  0  0  0  0  0  0  0  0  0
    1.3845    9.8126  -11.4619 H   0  0  0  0  0  0  0  0  0  0  0  0
    0.2259    9.4237  -10.1041 H   0  0  0  0  0  0  0  0  0  0  0  0
    3.1190    9.9900   -9.8310 H   0  0  0  0  0  0  0  0  0  0  0  0
    3.2679   12.0260   -8.1027 H   0  0  0  0  0  0  0  0  0  0  0  0
    3.5194   11.1309   -4.6519 H   0  0  0  0  0  0  0  0  0  0  0  0
   -0.0137    9.9874   -5.7970 H   0  0  0  0  0  0  0  0  0  0  0  0
   -1.1260    8.6860   -0.4120 H   0  0  0  0  0  0  0  0  0  0  0  0
   -1.3070   10.3660   -0.0060 H   0  0  0  0  0  0  0  0  0  0  0  0
    3.3143   10.6080   -0.2689 H   0  0  0  0  0  0  0  0  0  0  0  0
    2.5647    8.6710   -6.1090 H   0  0  0  0  0  0  0  0  0  0  0  0
    4.0110    8.4750   -4.4760 H   0  0  0  0  0  0  0  0  0  0  0  0
    3.9232    9.3422   -8.1233 H   0  0  0  0  0  0  0  0  0  0  0  0
    4.9980   11.4080   -6.5290 H   0  0  0  0  0  0  0  0  0  0  0  0
   -9.3690    1.4520  -11.8610 H   0  0  0  0  0  0  0  0  0  0  0  0
   -9.1330    1.1000  -13.5080 H   0  0  0  0  0  0  0  0  0  0  0  0
  1  2  1  0
  2  3  2  0
  2  4  1  0
  4  5  1  0
  5  6  1  0
  6  7  1  0
  7  8  1  0
  8  9  1  0
  9 10  1  0
 10 11  2  0
 10 12  1  0
 12 13  1  0
 13 14  1  0
 14 15  1  0
 15 16  1  0
 16 17  1  0
 17 18  1  0
 17 19  2  0
 12 20  1  0
 20 21  1  0
 21 22  2  0
 21 23  1  0
 23 24  1  0
 24 25  1  0
 25 26  1  0
 26 27  1  0
 27 28  1  0
 28 29  1  0
 29 30  2  0
 29 31  1  0
 31 32  1  0
 32 33  1  0
 33 34  1  0
 34 35  1  0
 35 36  1  0
 31 37  1  0
 37 38  1  0
 38 39  2  0
 38 40  1  0
 40 41  1  0
 41 42  1  0
 42 43  1  0
 43 44  1  0
 44 45  1  0
 45 46  1  0
 46 47  2  0
 46 48  1  0
 48 49  1  0
 49 50  1  0
 50 51  1  0
 51 52  1  0
 52 53  2  0
 53 54  1  0
 54 55  2  0
 55 56  1  0
 55 57  1  0
 57 58  2  0
 58 59  1  0
 59 60  2  0
 50 61  1  0
 61 62  1  0
 61 63  1  0
 63 64  1  0
  8 65  1  0
 65 66  1  0
 65 67  2  0
 63 48  1  0
 60 51  1  0
 60 54  1  0
  1 68  1  0
  1 69  1  0
  3 70  1  0
  3 71  1  0
  4 72  1  0
  5 73  1  0
  5 74  1  0
  6 75  1  0
  6 76  1  0
  7 77  1  0
  7 78  1  0
  8 79  1  1
  9 80  1  0
 12 81  1  6
 13 82  1  0
 13 83  1  0
 14 84  1  0
 14 85  1  0
 15 86  1  0
 15 87  1  0
 16 88  1  0
 18 89  1  0
 18 90  1  0
 19 91  1  0
 19 92  1  0
 20 93  1  0
 23 94  1  0
 23 95  1  0
 24 96  1  0
 24 97  1  0
 25 98  1  0
 25 99  1  0
 26100  1  0
 26101  1  0
 27102  1  0
 27103  1  0
 28104  1  0
 31105  1  6
 32106  1  0
 32107  1  0
 33108  1  0
 33109  1  0
 34110  1  0
 34111  1  0
 35112  1  0
 35113  1  0
 36114  1  0
 36115  1  0
 36116  1  0
 37117  1  0
 40118  1  0
 40119  1  0
 41120  1  0
 41121  1  0
 42122  1  0
 42123  1  0
 43124  1  0
 43125  1  0
 44126  1  0
 44127  1  0
 45128  1  0
 48129  1  6
 50130  1  1
 52131  1  0
 56132  1  0
 56133  1  0
 58134  1  0
 61135  1  6
 62136  1  0
 63137  1  6
 64138  1  0
 66139  1  0
 66140  1  0
M  CHG  3   3   1  19   1  36   1
M  END
>  <meeko>  (1) 
{"is_sidechain": [false], "free_energy": -6.419, "intermolecular_energy": -19.177, "internal_energy": -6.947}

$$$$
3ag9_ligand
     RDKit          3D

140142  0  0  0  0  0  0  0  0999 V2000
   -0.8850    2.3440  -13.1410 N   0  0  0  0  0  0  0  0  0  0  0  0
   -1.9930    3.0000  -12.7840 C   0  0  0  0  0  0  0  0  0  0  0  0
   -2.0220    4.3260  -12.9230 N   0  0  0  0  0  0  0  0  0  0  0  0
   -3.0420    2.3080  -12.2950 N   0  0  0  0  0  0  0  0  0  0  0  0
   -4.3130    2.9270  -11.8960 C   0  0  0  0  0  0  0  0  0  0  0  0
   -4.3990    3.1750  -10.3870 C   0  0  0  0  0  0  0  0  0  0  0  0
   -4.4560    4.6650  -10.0230 C   0  0  0  0  0  0  0  0  0  0  0  0
   -4.9420    5.5550  -11.1830 C   0  0  1  0  0  0  0  0  0  0  0  0
   -6.3230    5.9800  -10.9560 N   0  0  0  0  0  0  0  0  0  0  0  0
   -7.1290    6.2390  -12.0530 C   0  0  0  0  0  0  0  0  0  0  0  0
   -6.7200    6.1690  -13.2080 O   0  0  0  0  0  0  0  0  0  0  0  0
   -8.5850    6.5860  -11.6880 C   0  0  1  0  0  0  0  0  0  0  0  0
   -9.5050    5.3640  -11.8480 C   0  0  0  0  0  0  0  0  0  0  0  0
   -9.6180    4.8150  -13.2780 C   0  0  0  0  0  0  0  0  0  0  0  0
   -8.9760    3.4460  -13.5010 C   0  0  0  0  0  0  0  0  0  0  0  0
   -9.9060    2.3630  -13.1480 N   0  0  0  0  0  0  0  0  0  0  0  0
   -9.7800    1.5930  -12.0530 C   0  0  0  0  0  0  0  0  0  0  0  0
  -10.7140    0.6710  -11.7950 N   0  0  0  0  0  0  0  0  0  0  0  0
   -8.7540    1.7080  -11.2090 N   0  0  0  0  0  0  0  0  0  0  0  0
   -8.5810    7.0350  -10.2980 N   0  0  0  0  0  0  0  0  0  0  0  0
   -8.9110    8.3300   -9.9610 C   0  0  0  0  0  0  0  0  0  0  0  0
   -9.1720    9.1840  -10.8040 O   0  0  0  0  0  0  0  0  0  0  0  0
   -8.8750    8.5740   -8.4610 C   0  0  0  0  0  0  0  0  0  0  0  0
   -7.8380    7.7090   -7.7460 C   0  0  0  0  0  0  0  0  0  0  0  0
   -8.1340    7.4980   -6.2540 C   0  0  0  0  0  0  0  0  0  0  0  0
   -7.1450    8.2140   -5.3240 C   0  0  0  0  0  0  0  0  0  0  0  0
   -5.8220    7.4610   -5.1640 C   0  0  0  0  0  0  0  0  0  0  0  0
   -4.6700    8.2480   -5.5640 N   0  0  0  0  0  0  0  0  0  0  0  0
   -4.1540    8.1700   -6.8390 C   0  0  0  0  0  0  0  0  0  0  0  0
   -4.5040    7.3260   -7.6720 O   0  0  0  0  0  0  0  0  0  0  0  0
   -3.0100    9.1600   -7.1370 C   0  0  1  0  0  0  0  0  0  0  0  0
   -3.1790   10.4370   -6.2830 C   0  0  0  0  0  0  0  0  0  0  0  0
   -3.6340   11.7030   -7.0280 C   0  0  0  0  0  0  0  0  0  0  0  0
   -3.1100   13.0250   -6.4510 C   0  0  0  0  0  0  0  0  0  0  0  0
   -1.6770   12.9090   -5.9420 C   0  0  0  0  0  0  0  0  0  0  0  0
   -0.8960   14.1010   -6.3500 N   0  0  0  0  0  0  0  0  0  0  0  0
   -1.7400    8.4680   -6.9320 N   0  0  0  0  0  0  0  0  0  0  0  0
   -1.1500    7.7790   -7.9780 C   0  0  0  0  0  0  0  0  0  0  0  0
   -1.5780    7.8270   -9.1230 O   0  0  0  0  0  0  0  0  0  0  0  0
    0.0640    6.9770   -7.5450 C   0  0  0  0  0  0  0  0  0  0  0  0
    0.6840    6.1390   -8.6620 C   0  0  0  0  0  0  0  0  0  0  0  0
    1.9280    6.7870   -9.2780 C   0  0  0  0  0  0  0  0  0  0  0  0
    1.5960    7.4310  -10.6290 C   0  0  0  0  0  0  0  0  0  0  0  0
    1.3840    8.9430  -10.5330 C   0  0  0  0  0  0  0  0  0  0  0  0
    2.2630    9.5900   -9.5770 N   0  0  0  0  0  0  0  0  0  0  0  0
    1.7640   10.3820   -8.5610 C   0  0  0  0  0  0  0  0  0  0  0  0
    0.5660   10.5000   -8.3200 O   0  0  0  0  0  0  0  0  0  0  0  0
    2.8390   11.0430   -7.6930 C   0  0  1  0  0  0  0  0  0  0  0  0
    2.2870   11.5510   -6.4690 O   0  0  0  0  0  0  0  0  0  0  0  0
    2.7170   10.7010   -5.3890 C   0  0  1  0  0  0  0  0  0  0  0  0
    1.5970   10.3960   -4.5170 N   0  0  0  0  0  0  0  0  0  0  0  0
    0.3030   10.1260   -4.8700 C   0  0  0  0  0  0  0  0  0  0  0  0
   -0.4630    9.9300   -3.8150 N   0  0  0  0  0  0  0  0  0  0  0  0
    0.3790   10.0760   -2.7320 C   0  0  0  0  0  0  0  0  0  0  0  0
    0.1710    9.9860   -1.3460 C   0  0  0  0  0  0  0  0  0  0  0  0
   -1.0670    9.7310   -0.7780 N   0  0  0  0  0  0  0  0  0  0  0  0
    1.2340   10.1460   -0.5250 N   0  0  0  0  0  0  0  0  0  0  0  0
    2.4390   10.4080   -1.0730 C   0  0  0  0  0  0  0  0  0  0  0  0
    2.7640   10.5170   -2.3830 N   0  0  0  0  0  0  0  0  0  0  0  0
    1.6710   10.3470   -3.1500 C   0  0  0  0  0  0  0  0  0  0  0  0
    3.3430    9.4500   -6.0110 C   0  0  2  0  0  0  0  0  0  0  0  0
    4.4180    8.8870   -5.2530 O   0  0  0  0  0  0  0  0  0  0  0  0
    3.8720    9.9860   -7.3280 C   0  0  2  0  0  0  0  0  0  0  0  0
    5.1610   10.5880   -7.1330 O   0  0  0  0  0  0  0  0  0  0  0  0
   -4.0480    6.8240  -11.2840 C   0  0  0  0  0  0  0  0  0  0  0  0
   -4.3990    7.8560  -10.4590 N   0  0  0  0  0  0  0  0  0  0  0  0
   -3.1060    6.9510  -12.0700 O   0  0  0  0  0  0  0  0  0  0  0  0
   -0.8000    1.3400  -13.0650 H   0  0  0  0  0  0  0  0  0  0  0  0
   -0.0820    2.8380  -13.5160 H   0  0  0  0  0  0  0  0  0  0  0  0
   -2.8340    4.8740  -12.6720 H   0  0  0  0  0  0  0  0  0  0  0  0
   -1.2330    4.8390  -13.2960 H   0  0  0  0  0  0  0  0  0  0  0  0
   -2.9400    1.3030  -12.2400 H   0  0  0  0  0  0  0  0  0  0  0  0
   -4.4150    3.8900  -12.4177 H   0  0  0  0  0  0  0  0  0  0  0  0
   -5.1215    2.2318  -12.1661 H   0  0  0  0  0  0  0  0  0  0  0  0
   -5.3066    2.6861  -10.0032 H   0  0  0  0  0  0  0  0  0  0  0  0
   -3.4854    2.7620   -9.9346 H   0  0  0  0  0  0  0  0  0  0  0  0
   -5.1435    4.7913   -9.1737 H   0  0  0  0  0  0  0  0  0  0  0  0
   -3.4316    4.9806   -9.7759 H   0  0  0  0  0  0  0  0  0  0  0  0
   -4.8824    4.9715  -12.1136 H   0  0  0  0  0  0  0  0  0  0  0  0
   -6.8360    5.5460  -10.1880 H   0  0  0  0  0  0  0  0  0  0  0  0
   -8.9691    7.3686  -12.3588 H   0  0  0  0  0  0  0  0  0  0  0  0
   -9.1186    4.5602  -11.2041 H   0  0  0  0  0  0  0  0  0  0  0  0
  -10.5140    5.7022  -11.5696 H   0  0  0  0  0  0  0  0  0  0  0  0
  -10.6861    4.7351  -13.5286 H   0  0  0  0  0  0  0  0  0  0  0  0
   -9.0680    5.5188  -13.9200 H   0  0  0  0  0  0  0  0  0  0  0  0
   -8.6960    3.3485  -14.5603 H   0  0  0  0  0  0  0  0  0  0  0  0
   -8.0869    3.3674  -12.8581 H   0  0  0  0  0  0  0  0  0  0  0  0
  -10.7040    2.1880  -13.7440 H   0  0  0  0  0  0  0  0  0  0  0  0
  -11.5230    0.5440  -12.3900 H   0  0  0  0  0  0  0  0  0  0  0  0
  -10.6550    0.0770  -10.9770 H   0  0  0  0  0  0  0  0  0  0  0  0
   -8.6710    1.1330  -10.3840 H   0  0  0  0  0  0  0  0  0  0  0  0
   -7.9840    2.3660  -11.3670 H   0  0  0  0  0  0  0  0  0  0  0  0
   -8.0620    6.4830   -9.6230 H   0  0  0  0  0  0  0  0  0  0  0  0
   -8.6334    9.6322   -8.2826 H   0  0  0  0  0  0  0  0  0  0  0  0
   -9.8633    8.3080   -8.0580 H   0  0  0  0  0  0  0  0  0  0  0  0
   -7.8085    6.7250   -8.2368 H   0  0  0  0  0  0  0  0  0  0  0  0
   -6.8765    8.2393   -7.8114 H   0  0  0  0  0  0  0  0  0  0  0  0
   -9.1453    7.8759   -6.0433 H   0  0  0  0  0  0  0  0  0  0  0  0
   -8.0404    6.4200   -6.0559 H   0  0  0  0  0  0  0  0  0  0  0  0
   -6.9331    9.2107   -5.7382 H   0  0  0  0  0  0  0  0  0  0  0  0
   -7.6121    8.2732   -4.3299 H   0  0  0  0  0  0  0  0  0  0  0  0
   -5.7044    7.1795   -4.1072 H   0  0  0  0  0  0  0  0  0  0  0  0
   -5.8631    6.5800   -5.8213 H   0  0  0  0  0  0  0  0  0  0  0  0
   -4.4670    9.0860   -5.0280 H   0  0  0  0  0  0  0  0  0  0  0  0
   -3.0314    9.5015   -8.1824 H   0  0  0  0  0  0  0  0  0  0  0  0
   -3.9242   10.2217   -5.5031 H   0  0  0  0  0  0  0  0  0  0  0  0
   -2.1736   10.6682   -5.9013 H   0  0  0  0  0  0  0  0  0  0  0  0
   -3.2902   11.6266   -8.0701 H   0  0  0  0  0  0  0  0  0  0  0  0
   -4.7288   11.7391   -6.9278 H   0  0  0  0  0  0  0  0  0  0  0  0
   -3.1443   13.7925   -7.2383 H   0  0  0  0  0  0  0  0  0  0  0  0
   -3.7487   13.2951   -5.5971 H   0  0  0  0  0  0  0  0  0  0  0  0
   -1.6850   12.8370   -4.8444 H   0  0  0  0  0  0  0  0  0  0  0  0
   -1.2130   12.0089   -6.3716 H   0  0  0  0  0  0  0  0  0  0  0  0
   -1.1420   14.9630   -5.8200 H   0  0  0  0  0  0  0  0  0  0  0  0
    0.1080   13.9650   -6.1880 H   0  0  0  0  0  0  0  0  0  0  0  0
   -1.0180   14.3180   -7.3460 H   0  0  0  0  0  0  0  0  0  0  0  0
   -1.5530    8.1080   -6.0020 H   0  0  0  0  0  0  0  0  0  0  0  0
    0.8268    7.6770   -7.1733 H   0  0  0  0  0  0  0  0  0  0  0  0
   -0.2777    6.2740   -6.7710 H   0  0  0  0  0  0  0  0  0  0  0  0
    0.9672    5.1595   -8.2491 H   0  0  0  0  0  0  0  0  0  0  0  0
   -0.0678    6.0472   -9.4598 H   0  0  0  0  0  0  0  0  0  0  0  0
    2.3077    7.5602   -8.5939 H   0  0  0  0  0  0  0  0  0  0  0  0
    2.6884    6.0082   -9.4368 H   0  0  0  0  0  0  0  0  0  0  0  0
    2.4264    7.2366  -11.3237 H   0  0  0  0  0  0  0  0  0  0  0  0
    0.6534    6.9878  -10.9826 H   0  0  0  0  0  0  0  0  0  0  0  0
    1.5633    9.3836  -11.5248 H   0  0  0  0  0  0  0  0  0  0  0  0
    0.3528    9.1042  -10.1858 H   0  0  0  0  0  0  0  0  0  0  0  0
    3.2260    9.7290   -9.8590 H   0  0  0  0  0  0  0  0  0  0  0  0
    3.2792   11.8763   -8.2604 H   0  0  0  0  0  0  0  0  0  0  0  0
    3.4684   11.1976   -4.7575 H   0  0  0  0  0  0  0  0  0  0  0  0
   -0.0551   10.0782   -5.9090 H   0  0  0  0  0  0  0  0  0  0  0  0
   -1.2500    8.7500   -0.5970 H   0  0  0  0  0  0  0  0  0  0  0  0
   -1.3350   10.4060   -0.0760 H   0  0  0  0  0  0  0  0  0  0  0  0
    3.2660   10.5519   -0.3621 H   0  0  0  0  0  0  0  0  0  0  0  0
    2.6135    8.6299   -6.0827 H   0  0  0  0  0  0  0  0  0  0  0  0
    5.2470    9.1530   -5.7130 H   0  0  0  0  0  0  0  0  0  0  0  0
    4.0033    9.2157   -8.1022 H   0  0  0  0  0  0  0  0  0  0  0  0
    5.7870    9.8330   -7.0820 H   0  0  0  0  0  0  0  0  0  0  0  0
   -4.8320    7.6450   -9.5640 H   0  0  0  0  0  0  0  0  0  0  0  0
   -3.7580    8.6410  -10.4280 H   0  0  0  0  0  0  0  0  0  0  0  0
  1  2  1  0
  2  3  2  0
  2  4  1  0
  4  5  1  0
  5  6  1  0
  6  7  1  0
  7  8  1  0
  8  9  1  0
  9 10  1  0
 10 11  2  0
 10 12  1  0
 12 13  1  0
 13 14  1  0
 14 15  1  0
 15 16  1  0
 16 17  1  0
 17 18  1  0
 17 19  2  0
 12 20  1  0
 20 21  1  0
 21 22  2  0
 21 23  1  0
 23 24  1  0
 24 25  1  0
 25 26  1  0
 26 27  1  0
 27 28  1  0
 28 29  1  0
 29 30  2  0
 29 31  1  0
 31 32  1  0
 32 33  1  0
 33 34  1  0
 34 35  1  0
 35 36  1  0
 31 37  1  0
 37 38  1  0
 38 39  2  0
 38 40  1  0
 40 41  1  0
 41 42  1  0
 42 43  1  0
 43 44  1  0
 44 45  1  0
 45 46  1  0
 46 47  2  0
 46 48  1  0
 48 49  1  0
 49 50  1  0
 50 51  1  0
 51 52  1  0
 52 53  2  0
 53 54  1  0
 54 55  2  0
 55 56  1  0
 55 57  1  0
 57 58  2  0
 58 59  1  0
 59 60  2  0
 50 61  1  0
 61 62  1  0
 61 63  1  0
 63 64  1  0
  8 65  1  0
 65 66  1  0
 65 67  2  0
 63 48  1  0
 60 51  1  0
 60 54  1  0
  1 68  1  0
  1 69  1  0
  3 70  1  0
  3 71  1  0
  4 72  1  0
  5 73  1  0
  5 74  1  0
  6 75  1  0
  6 76  1  0
  7 77  1  0
  7 78  1  0
  8 79  1  6
  9 80  1  0
 12 81  1  6
 13 82  1  0
 13 83  1  0
 14 84  1  0
 14 85  1  0
 15 86  1  0
 15 87  1  0
 16 88  1  0
 18 89  1  0
 18 90  1  0
 19 91  1  0
 19 92  1  0
 20 93  1  0
 23 94  1  0
 23 95  1  0
 24 96  1  0
 24 97  1  0
 25 98  1  0
 25 99  1  0
 26100  1  0
 26101  1  0
 27102  1  0
 27103  1  0
 28104  1  0
 31105  1  6
 32106  1  0
 32107  1  0
 33108  1  0
 33109  1  0
 34110  1  0
 34111  1  0
 35112  1  0
 35113  1  0
 36114  1  0
 36115  1  0
 36116  1  0
 37117  1  0
 40118  1  0
 40119  1  0
 41120  1  0
 41121  1  0
 42122  1  0
 42123  1  0
 43124  1  0
 43125  1  0
 44126  1  0
 44127  1  0
 45128  1  0
 48129  1  6
 50130  1  1
 52131  1  0
 56132  1  0
 56133  1  0
 58134  1  0
 61135  1  6
 62136  1  0
 63137  1  6
 64138  1  0
 66139  1  0
 66140  1  0
M  CHG  3   3   1  19   1  36   1
M  END
>  <meeko>  (2) 
{"is_sidechain": [false], "free_energy": -6.4, "intermolecular_energy": -19.669, "internal_energy": -6.399}

$$$$
3ag9_ligand
     RDKit          3D

140142  0  0  0  0  0  0  0  0999 V2000
    1.6340   -1.9950  -12.9900 N   0  0  0  0  0  0  0  0  0  0  0  0
    2.3880   -0.9260  -13.2600 C   0  0  0  0  0  0  0  0  0  0  0  0
    3.6130   -0.8600  -12.7350 N   0  0  0  0  0  0  0  0  0  0  0  0
    1.8950    0.0490  -14.0490 N   0  0  0  0  0  0  0  0  0  0  0  0
    2.6480    1.2530  -14.4270 C   0  0  0  0  0  0  0  0  0  0  0  0
    2.1010    2.5220  -13.7660 C   0  0  0  0  0  0  0  0  0  0  0  0
    1.1530    2.2300  -12.5950 C   0  0  0  0  0  0  0  0  0  0  0  0
    0.2700    3.4340  -12.2150 C   0  0  1  0  0  0  0  0  0  0  0  0
    0.9710    4.6890  -12.4880 N   0  0  0  0  0  0  0  0  0  0  0  0
    1.4190    5.4480  -11.4200 C   0  0  0  0  0  0  0  0  0  0  0  0
    1.2140    5.1350  -10.2510 O   0  0  0  0  0  0  0  0  0  0  0  0
    2.2230    6.6950  -11.8360 C   0  0  1  0  0  0  0  0  0  0  0  0
    1.8190    7.1740  -13.2400 C   0  0  0  0  0  0  0  0  0  0  0  0
    0.8740    8.3850  -13.2700 C   0  0  0  0  0  0  0  0  0  0  0  0
   -0.6160    8.0470  -13.2980 C   0  0  0  0  0  0  0  0  0  0  0  0
   -1.2930    8.5460  -12.0920 N   0  0  0  0  0  0  0  0  0  0  0  0
   -2.0520    9.6560  -12.0630 C   0  0  0  0  0  0  0  0  0  0  0  0
   -2.6710    9.9900  -10.9250 N   0  0  0  0  0  0  0  0  0  0  0  0
   -2.2130   10.4440  -13.1250 N   0  0  0  0  0  0  0  0  0  0  0  0
    1.9410    7.7330  -10.8490 N   0  0  0  0  0  0  0  0  0  0  0  0
    2.9170    8.1940   -9.9910 C   0  0  0  0  0  0  0  0  0  0  0  0
    4.0520    7.7250   -9.9740 O   0  0  0  0  0  0  0  0  0  0  0  0
    2.4190    9.2960   -9.0700 C   0  0  0  0  0  0  0  0  0  0  0  0
    1.0170    9.7810   -9.4340 C   0  0  0  0  0  0  0  0  0  0  0  0
   -0.0290    9.5240   -8.3400 C   0  0  0  0  0  0  0  0  0  0  0  0
   -0.7000    8.1470   -8.4420 C   0  0  0  0  0  0  0  0  0  0  0  0
   -0.0040    7.0790   -7.5950 C   0  0  0  0  0  0  0  0  0  0  0  0
    0.4990    7.5940   -6.3350 N   0  0  0  0  0  0  0  0  0  0  0  0
    1.8230    7.4580   -5.9800 C   0  0  0  0  0  0  0  0  0  0  0  0
    2.6320    6.7580   -6.6000 O   0  0  0  0  0  0  0  0  0  0  0  0
    2.2190    8.1670   -4.6690 C   0  0  1  0  0  0  0  0  0  0  0  0
    3.7310    8.4880   -4.6770 C   0  0  0  0  0  0  0  0  0  0  0  0
    4.4630    8.3660   -3.3300 C   0  0  0  0  0  0  0  0  0  0  0  0
    5.1690    9.6420   -2.8520 C   0  0  0  0  0  0  0  0  0  0  0  0
    4.5530   10.2030   -1.5750 C   0  0  0  0  0  0  0  0  0  0  0  0
    3.5010    9.2850   -1.0740 N   0  0  0  0  0  0  0  0  0  0  0  0
    1.3600    9.3370   -4.5030 N   0  0  0  0  0  0  0  0  0  0  0  0
    0.6460    9.5100   -3.3290 C   0  0  0  0  0  0  0  0  0  0  0  0
    0.7990    8.7900   -2.3520 O   0  0  0  0  0  0  0  0  0  0  0  0
   -0.3240   10.6770   -3.3970 C   0  0  0  0  0  0  0  0  0  0  0  0
   -0.5810   11.1860   -4.8140 C   0  0  0  0  0  0  0  0  0  0  0  0
   -1.8940   10.6660   -5.4090 C   0  0  0  0  0  0  0  0  0  0  0  0
   -2.6040   11.7660   -6.2070 C   0  0  0  0  0  0  0  0  0  0  0  0
   -3.5230   11.2130   -7.2970 C   0  0  0  0  0  0  0  0  0  0  0  0
   -4.0670    9.9050   -6.9850 N   0  0  0  0  0  0  0  0  0  0  0  0
   -4.7430    9.1620   -7.9330 C   0  0  0  0  0  0  0  0  0  0  0  0
   -4.8300    9.4870   -9.1130 O   0  0  0  0  0  0  0  0  0  0  0  0
   -5.3120    7.8400   -7.4080 C   0  0  1  0  0  0  0  0  0  0  0  0
   -5.7030    6.9720   -8.4820 O   0  0  0  0  0  0  0  0  0  0  0  0
   -4.7520    5.8950   -8.5670 C   0  0  1  0  0  0  0  0  0  0  0  0
   -4.3710    5.6730   -9.9500 N   0  0  0  0  0  0  0  0  0  0  0  0
   -3.2880    6.1750  -10.6180 C   0  0  0  0  0  0  0  0  0  0  0  0
   -3.2710    5.7980  -11.8810 N   0  0  0  0  0  0  0  0  0  0  0  0
   -4.3940    5.0110  -12.0320 C   0  0  0  0  0  0  0  0  0  0  0  0
   -4.9290    4.3180  -13.1300 C   0  0  0  0  0  0  0  0  0  0  0  0
   -4.3590    4.3370  -14.3930 N   0  0  0  0  0  0  0  0  0  0  0  0
   -6.0510    3.5850  -12.9420 N   0  0  0  0  0  0  0  0  0  0  0  0
   -6.6170    3.5750  -11.7170 C   0  0  0  0  0  0  0  0  0  0  0  0
   -6.2000    4.1960  -10.5900 N   0  0  0  0  0  0  0  0  0  0  0  0
   -5.0820    4.9050  -10.8350 C   0  0  0  0  0  0  0  0  0  0  0  0
   -3.5620    6.2630   -7.6760 C   0  0  2  0  0  0  0  0  0  0  0  0
   -2.9230    5.1460   -7.0520 O   0  0  0  0  0  0  0  0  0  0  0  0
   -4.2190    7.1320   -6.6200 C   0  0  2  0  0  0  0  0  0  0  0  0
   -4.7920    6.3090   -5.5910 O   0  0  0  0  0  0  0  0  0  0  0  0
   -1.0410    3.4130  -13.0510 C   0  0  0  0  0  0  0  0  0  0  0  0
   -1.1840    4.4390  -13.9430 N   0  0  0  0  0  0  0  0  0  0  0  0
   -1.9360    2.5740  -12.9210 O   0  0  0  0  0  0  0  0  0  0  0  0
    0.7000   -2.1070  -13.3600 H   0  0  0  0  0  0  0  0  0  0  0  0
    1.9810   -2.7460  -12.4040 H   0  0  0  0  0  0  0  0  0  0  0  0
    4.2290   -0.0770  -12.9080 H   0  0  0  0  0  0  0  0  0  0  0  0
    3.9800   -1.5990  -12.1480 H   0  0  0  0  0  0  0  0  0  0  0  0
    0.9630   -0.0900  -14.4190 H   0  0  0  0  0  0  0  0  0  0  0  0
    3.6972    1.1220  -14.1236 H   0  0  0  0  0  0  0  0  0  0  0  0
    2.5528    1.3771  -15.5158 H   0  0  0  0  0  0  0  0  0  0  0  0
    2.9485    3.1146  -13.3910 H   0  0  0  0  0  0  0  0  0  0  0  0
    1.5234    3.0659  -14.5279 H   0  0  0  0  0  0  0  0  0  0  0  0
    0.4989    1.3912  -12.8754 H   0  0  0  0  0  0  0  0  0  0  0  0
    1.7767    1.9928  -11.7205 H   0  0  0  0  0  0  0  0  0  0  0  0
    0.0388    3.3647  -11.1418 H   0  0  0  0  0  0  0  0  0  0  0  0
    1.6130    4.7130  -13.2820 H   0  0  0  0  0  0  0  0  0  0  0  0
    3.2971    6.4606  -11.8721 H   0  0  0  0  0  0  0  0  0  0  0  0
    2.7358    7.4439  -13.7846 H   0  0  0  0  0  0  0  0  0  0  0  0
    1.2647    6.3422  -13.6991 H   0  0  0  0  0  0  0  0  0  0  0  0
    1.0687    8.9909  -12.3728 H   0  0  0  0  0  0  0  0  0  0  0  0
    1.0849    8.9135  -14.2114 H   0  0  0  0  0  0  0  0  0  0  0  0
   -1.0732    8.5103  -14.1847 H   0  0  0  0  0  0  0  0  0  0  0  0
   -0.7263    6.9531  -13.3341 H   0  0  0  0  0  0  0  0  0  0  0  0
   -1.2090    8.0220  -11.2310 H   0  0  0  0  0  0  0  0  0  0  0  0
   -2.5990    9.4250  -10.0870 H   0  0  0  0  0  0  0  0  0  0  0  0
   -3.2540   10.8150  -10.8670 H   0  0  0  0  0  0  0  0  0  0  0  0
   -2.7910   11.2700  -13.0990 H   0  0  0  0  0  0  0  0  0  0  0  0
   -1.7370   10.2680  -14.0160 H   0  0  0  0  0  0  0  0  0  0  0  0
    0.9710    7.9030  -10.6030 H   0  0  0  0  0  0  0  0  0  0  0  0
    2.4018    8.9120   -8.0393 H   0  0  0  0  0  0  0  0  0  0  0  0
    3.1035   10.1507   -9.1748 H   0  0  0  0  0  0  0  0  0  0  0  0
    1.0624   10.8636   -9.6234 H   0  0  0  0  0  0  0  0  0  0  0  0
    0.7006    9.2124  -10.3209 H   0  0  0  0  0  0  0  0  0  0  0  0
    0.4668    9.5975   -7.3608 H   0  0  0  0  0  0  0  0  0  0  0  0
   -0.8198   10.2781   -8.4665 H   0  0  0  0  0  0  0  0  0  0  0  0
   -1.7424    8.2390   -8.1030 H   0  0  0  0  0  0  0  0  0  0  0  0
   -0.6368    7.8269   -9.4925 H   0  0  0  0  0  0  0  0  0  0  0  0
   -0.7245    6.2754   -7.3827 H   0  0  0  0  0  0  0  0  0  0  0  0
    0.8600    6.7143   -8.1700 H   0  0  0  0  0  0  0  0  0  0  0  0
   -0.0310    8.3360   -5.8880 H   0  0  0  0  0  0  0  0  0  0  0  0
    2.0616    7.5194   -3.7938 H   0  0  0  0  0  0  0  0  0  0  0  0
    4.2156    7.7994   -5.3848 H   0  0  0  0  0  0  0  0  0  0  0  0
    3.8028    9.5503   -4.9534 H   0  0  0  0  0  0  0  0  0  0  0  0
    3.7250    8.0790   -2.5664 H   0  0  0  0  0  0  0  0  0  0  0  0
    5.2546    7.6170   -3.4795 H   0  0  0  0  0  0  0  0  0  0  0  0
    6.2273    9.4101   -2.6615 H   0  0  0  0  0  0  0  0  0  0  0  0
    5.0586   10.4018   -3.6397 H   0  0  0  0  0  0  0  0  0  0  0  0
    5.3360   10.3119   -0.8101 H   0  0  0  0  0  0  0  0  0  0  0  0
    4.1039   11.1836   -1.7911 H   0  0  0  0  0  0  0  0  0  0  0  0
    3.7970    8.2880   -1.0440 H   0  0  0  0  0  0  0  0  0  0  0  0
    3.2320    9.5140   -0.1100 H   0  0  0  0  0  0  0  0  0  0  0  0
    2.6500    9.3280   -1.6470 H   0  0  0  0  0  0  0  0  0  0  0  0
    0.9390    9.7250   -5.3400 H   0  0  0  0  0  0  0  0  0  0  0  0
   -1.2833   10.3557   -2.9650 H   0  0  0  0  0  0  0  0  0  0  0  0
    0.1342   11.5062   -2.8379 H   0  0  0  0  0  0  0  0  0  0  0  0
   -0.6182   12.2851   -4.7901 H   0  0  0  0  0  0  0  0  0  0  0  0
    0.2371   10.8161   -5.4495 H   0  0  0  0  0  0  0  0  0  0  0  0
   -1.6769    9.8192   -6.0767 H   0  0  0  0  0  0  0  0  0  0  0  0
   -2.5515   10.3469   -4.5869 H   0  0  0  0  0  0  0  0  0  0  0  0
   -3.2070   12.3695   -5.5126 H   0  0  0  0  0  0  0  0  0  0  0  0
   -1.8275   12.3663   -6.7037 H   0  0  0  0  0  0  0  0  0  0  0  0
   -4.3592   11.9139   -7.4363 H   0  0  0  0  0  0  0  0  0  0  0  0
   -2.9158   11.1026   -8.2076 H   0  0  0  0  0  0  0  0  0  0  0  0
   -4.2390    9.6990   -6.0080 H   0  0  0  0  0  0  0  0  0  0  0  0
   -6.1937    8.0634   -6.7893 H   0  0  0  0  0  0  0  0  0  0  0  0
   -5.1819    4.9464   -8.2130 H   0  0  0  0  0  0  0  0  0  0  0  0
   -2.5229    6.8165  -10.1565 H   0  0  0  0  0  0  0  0  0  0  0  0
   -3.8100    5.1660  -14.5910 H   0  0  0  0  0  0  0  0  0  0  0  0
   -3.9960    3.4400  -14.6840 H   0  0  0  0  0  0  0  0  0  0  0  0
   -7.5396    2.9835  -11.6224 H   0  0  0  0  0  0  0  0  0  0  0  0
   -2.7567    6.7363   -8.2569 H   0  0  0  0  0  0  0  0  0  0  0  0
   -3.4870    4.9010   -6.2830 H   0  0  0  0  0  0  0  0  0  0  0  0
   -3.5260    7.8215   -6.1158 H   0  0  0  0  0  0  0  0  0  0  0  0
   -4.2640    5.4800   -5.6080 H   0  0  0  0  0  0  0  0  0  0  0  0
   -0.3540    4.8450  -14.3650 H   0  0  0  0  0  0  0  0  0  0  0  0
   -1.9750    4.3740  -14.5750 H   0  0  0  0  0  0  0  0  0  0  0  0
  1  2  1  0
  2  3  2  0
  2  4  1  0
  4  5  1  0
  5  6  1  0
  6  7  1  0
  7  8  1  0
  8  9  1  0
  9 10  1  0
 10 11  2  0
 10 12  1  0
 12 13  1  0
 13 14  1  0
 14 15  1  0
 15 16  1  0
 16 17  1  0
 17 18  1  0
 17 19  2  0
 12 20  1  0
 20 21  1  0
 21 22  2  0
 21 23  1  0
 23 24  1  0
 24 25  1  0
 25 26  1  0
 26 27  1  0
 27 28  1  0
 28 29  1  0
 29 30  2  0
 29 31  1  0
 31 32  1  0
 32 33  1  0
 33 34  1  0
 34 35  1  0
 35 36  1  0
 31 37  1  0
 37 38  1  0
 38 39  2  0
 38 40  1  0
 40 41  1  0
 41 42  1  0
 42 43  1  0
 43 44  1  0
 44 45  1  0
 45 46  1  0
 46 47  2  0
 46 48  1  0
 48 49  1  0
 49 50  1  0
 50 51  1  0
 51 52  1  0
 52 53  2  0
 53 54  1  0
 54 55  2  0
 55 56  1  0
 55 57  1  0
 57 58  2  0
 58 59  1  0
 59 60  2  0
 50 61  1  0
 61 62  1  0
 61 63  1  0
 63 64  1  0
  8 65  1  0
 65 66  1  0
 65 67  2  0
 63 48  1  0
 60 51  1  0
 60 54  1  0
  1 68  1  0
  1 69  1  0
  3 70  1  0
  3 71  1  0
  4 72  1  0
  5 73  1  0
  5 74  1  0
  6 75  1  0
  6 76  1  0
  7 77  1  0
  7 78  1  0
  8 79  1  1
  9 80  1  0
 12 81  1  6
 13 82  1  0
 13 83  1  0
 14 84  1  0
 14 85  1  0
 15 86  1  0
 15 87  1  0
 16 88  1  0
 18 89  1  0
 18 90  1  0
 19 91  1  0
 19 92  1  0
 20 93  1  0
 23 94  1  0
 23 95  1  0
 24 96  1  0
 24 97  1  0
 25 98  1  0
 25 99  1  0
 26100  1  0
 26101  1  0
 27102  1  0
 27103  1  0
 28104  1  0
 31105  1  1
 32106  1  0
 32107  1  0
 33108  1  0
 33109  1  0
 34110  1  0
 34111  1  0
 35112  1  0
 35113  1  0
 36114  1  0
 36115  1  0
 36116  1  0
 37117  1  0
 40118  1  0
 40119  1  0
 41120  1  0
 41121  1  0
 42122  1  0
 42123  1  0
 43124  1  0
 43125  1  0
 44126  1  0
 44127  1  0
 45128  1  0
 48129  1  1
 50130  1  1
 52131  1  0
 56132  1  0
 56133  1  0
 58134  1  0
 61135  1  6
 62136  1  0
 63137  1  1
 64138  1  0
 66139  1  0
 66140  1  0
M  CHG  3   3   1  19   1  36   1
M  END
>  <meeko>  (3) 
{"is_sidechain": [false], "free_energy": -6.394, "intermolecular_energy": -18.037, "internal_energy": -8.015}

$$$$
3ag9_ligand
     RDKit          3D

140142  0  0  0  0  0  0  0  0999 V2000
   -3.8150   10.0400   -9.8170 N   0  0  0  0  0  0  0  0  0  0  0  0
   -2.9170    9.4950  -10.6430 C   0  0  0  0  0  0  0  0  0  0  0  0
   -2.3660   10.2640  -11.5830 N   0  0  0  0  0  0  0  0  0  0  0  0
   -2.5980    8.1920  -10.5070 N   0  0  0  0  0  0  0  0  0  0  0  0
   -1.6080    7.5020  -11.3450 C   0  0  0  0  0  0  0  0  0  0  0  0
   -2.2460    6.7830  -12.5370 C   0  0  0  0  0  0  0  0  0  0  0  0
   -1.8900    5.2910  -12.6020 C   0  0  0  0  0  0  0  0  0  0  0  0
   -2.9290    4.3880  -11.9110 C   0  0  1  0  0  0  0  0  0  0  0  0
   -4.2820    4.8890  -12.1530 N   0  0  0  0  0  0  0  0  0  0  0  0
   -5.1700    4.9490  -11.0920 C   0  0  0  0  0  0  0  0  0  0  0  0
   -4.8840    4.5580   -9.9640 O   0  0  0  0  0  0  0  0  0  0  0  0
   -6.5290    5.5810  -11.4510 C   0  0  1  0  0  0  0  0  0  0  0  0
   -7.5700    4.5030  -11.7950 C   0  0  0  0  0  0  0  0  0  0  0  0
   -6.9980    3.0990  -12.0450 C   0  0  0  0  0  0  0  0  0  0  0  0
   -7.3540    2.4830  -13.3970 C   0  0  0  0  0  0  0  0  0  0  0  0
   -8.7240    1.9500  -13.3910 N   0  0  0  0  0  0  0  0  0  0  0  0
   -9.0990    0.8340  -14.0400 C   0  0  0  0  0  0  0  0  0  0  0  0
  -10.3600    0.4050  -13.9220 N   0  0  0  0  0  0  0  0  0  0  0  0
   -8.2620    0.1330  -14.8040 N   0  0  0  0  0  0  0  0  0  0  0  0
   -6.9640    6.3480  -10.2870 N   0  0  0  0  0  0  0  0  0  0  0  0
   -7.6470    7.5370  -10.4250 C   0  0  0  0  0  0  0  0  0  0  0  0
   -7.8790    8.0400  -11.5210 O   0  0  0  0  0  0  0  0  0  0  0  0
   -8.0330    8.1520   -9.0890 C   0  0  0  0  0  0  0  0  0  0  0  0
   -7.0060    7.8750   -7.9920 C   0  0  0  0  0  0  0  0  0  0  0  0
   -7.6150    7.7820   -6.5860 C   0  0  0  0  0  0  0  0  0  0  0  0
   -6.6300    7.2810   -5.5210 C   0  0  0  0  0  0  0  0  0  0  0  0
   -5.1950    7.1630   -6.0420 C   0  0  0  0  0  0  0  0  0  0  0  0
   -4.3450    8.2580   -5.6130 N   0  0  0  0  0  0  0  0  0  0  0  0
   -3.3520    8.7580   -6.4270 C   0  0  0  0  0  0  0  0  0  0  0  0
   -2.9970    8.2240   -7.4840 O   0  0  0  0  0  0  0  0  0  0  0  0
   -2.6230    9.9990   -5.8730 C   0  0  1  0  0  0  0  0  0  0  0  0
   -3.6060   11.1860   -5.7650 C   0  0  0  0  0  0  0  0  0  0  0  0
   -3.7010   12.1110   -6.9910 C   0  0  0  0  0  0  0  0  0  0  0  0
   -3.3450   13.5800   -6.7310 C   0  0  0  0  0  0  0  0  0  0  0  0
   -2.2150   13.7330   -5.7180 C   0  0  0  0  0  0  0  0  0  0  0  0
   -0.9150   13.8470   -6.4220 N   0  0  0  0  0  0  0  0  0  0  0  0
   -1.9890    9.6310   -4.6100 N   0  0  0  0  0  0  0  0  0  0  0  0
   -0.8930   10.3440   -4.1520 C   0  0  0  0  0  0  0  0  0  0  0  0
   -0.4990   11.3670   -4.6940 O   0  0  0  0  0  0  0  0  0  0  0  0
   -0.2560    9.7200   -2.9230 C   0  0  0  0  0  0  0  0  0  0  0  0
    0.1650   10.7340   -1.8610 C   0  0  0  0  0  0  0  0  0  0  0  0
    1.6750   10.7380   -1.6010 C   0  0  0  0  0  0  0  0  0  0  0  0
    2.3060    9.4100   -2.0340 C   0  0  0  0  0  0  0  0  0  0  0  0
    3.6070    9.5940   -2.8160 C   0  0  0  0  0  0  0  0  0  0  0  0
    3.4200   10.2290   -4.1060 N   0  0  0  0  0  0  0  0  0  0  0  0
    3.4480    9.4990   -5.2790 C   0  0  0  0  0  0  0  0  0  0  0  0
    3.5100    8.2740   -5.3120 O   0  0  0  0  0  0  0  0  0  0  0  0
    3.3070   10.3430   -6.5500 C   0  0  1  0  0  0  0  0  0  0  0  0
    3.3960    9.5330   -7.7310 O   0  0  0  0  0  0  0  0  0  0  0  0
    2.0830    9.4300   -8.3130 C   0  0  1  0  0  0  0  0  0  0  0  0
    1.8080    8.0540   -8.6860 N   0  0  0  0  0  0  0  0  0  0  0  0
    1.4870    7.0070   -7.8670 C   0  0  0  0  0  0  0  0  0  0  0  0
    1.3410    5.8830   -8.5400 N   0  0  0  0  0  0  0  0  0  0  0  0
    1.5750    6.2250   -9.8560 C   0  0  0  0  0  0  0  0  0  0  0  0
    1.5690    5.4810  -11.0470 C   0  0  0  0  0  0  0  0  0  0  0  0
    1.3220    4.1180  -11.0920 N   0  0  0  0  0  0  0  0  0  0  0  0
    1.8050    6.1300  -12.2110 N   0  0  0  0  0  0  0  0  0  0  0  0
    2.0590    7.4540  -12.1710 C   0  0  0  0  0  0  0  0  0  0  0  0
    2.0930    8.2750  -11.0950 N   0  0  0  0  0  0  0  0  0  0  0  0
    1.8490    7.5770   -9.9690 C   0  0  0  0  0  0  0  0  0  0  0  0
    1.0840    9.9790   -7.2900 C   0  0  2  0  0  0  0  0  0  0  0  0
   -0.0520   10.6320   -7.8650 O   0  0  0  0  0  0  0  0  0  0  0  0
    1.9290   10.9910   -6.5390 C   0  0  2  0  0  0  0  0  0  0  0  0
    1.9530   12.2380   -7.2510 O   0  0  0  0  0  0  0  0  0  0  0  0
   -2.8330    2.9430  -12.4780 C   0  0  0  0  0  0  0  0  0  0  0  0
   -1.5750    2.4090  -12.5110 N   0  0  0  0  0  0  0  0  0  0  0  0
   -3.7910    2.3030  -12.9170 O   0  0  0  0  0  0  0  0  0  0  0  0
   -4.2660    9.5130   -9.0820 H   0  0  0  0  0  0  0  0  0  0  0  0
   -4.0710   11.0180   -9.8940 H   0  0  0  0  0  0  0  0  0  0  0  0
   -1.6790    9.9070  -12.2330 H   0  0  0  0  0  0  0  0  0  0  0  0
   -2.6060   11.2440  -11.6770 H   0  0  0  0  0  0  0  0  0  0  0  0
   -3.0510    7.6870   -9.7560 H   0  0  0  0  0  0  0  0  0  0  0  0
   -0.8891    8.2433  -11.7240 H   0  0  0  0  0  0  0  0  0  0  0  0
   -1.1150    6.7416  -10.7215 H   0  0  0  0  0  0  0  0  0  0  0  0
   -3.3391    6.8789  -12.4594 H   0  0  0  0  0  0  0  0  0  0  0  0
   -1.8548    7.2534  -13.4512 H   0  0  0  0  0  0  0  0  0  0  0  0
   -1.8173    4.9948  -13.6589 H   0  0  0  0  0  0  0  0  0  0  0  0
   -0.9368    5.1591  -12.0691 H   0  0  0  0  0  0  0  0  0  0  0  0
   -2.7209    4.3884  -10.8309 H   0  0  0  0  0  0  0  0  0  0  0  0
   -4.3920    5.6720  -12.8000 H   0  0  0  0  0  0  0  0  0  0  0  0
   -6.4267    6.2248  -12.3370 H   0  0  0  0  0  0  0  0  0  0  0  0
   -8.2811    4.4370  -10.9583 H   0  0  0  0  0  0  0  0  0  0  0  0
   -8.0341    4.8171  -12.7415 H   0  0  0  0  0  0  0  0  0  0  0  0
   -5.9018    3.1611  -11.9773 H   0  0  0  0  0  0  0  0  0  0  0  0
   -7.4488    2.4456  -11.2836 H   0  0  0  0  0  0  0  0  0  0  0  0
   -7.2722    3.2550  -14.1763 H   0  0  0  0  0  0  0  0  0  0  0  0
   -6.6578    1.6554  -13.5983 H   0  0  0  0  0  0  0  0  0  0  0  0
   -9.4340    2.4310  -12.8540 H   0  0  0  0  0  0  0  0  0  0  0  0
  -11.0400    0.8860  -13.3460 H   0  0  0  0  0  0  0  0  0  0  0  0
  -10.6760   -0.4340  -14.3910 H   0  0  0  0  0  0  0  0  0  0  0  0
   -8.5460   -0.7090  -15.2810 H   0  0  0  0  0  0  0  0  0  0  0  0
   -7.2930    0.4260  -14.9690 H   0  0  0  0  0  0  0  0  0  0  0  0
   -6.5150    6.1550   -9.3980 H   0  0  0  0  0  0  0  0  0  0  0  0
   -8.1261    9.2406   -9.2168 H   0  0  0  0  0  0  0  0  0  0  0  0
   -8.9837    7.6956   -8.7761 H   0  0  0  0  0  0  0  0  0  0  0  0
   -6.5056    6.9217   -8.2175 H   0  0  0  0  0  0  0  0  0  0  0  0
   -6.3070    8.7243   -7.9841 H   0  0  0  0  0  0  0  0  0  0  0  0
   -7.9656    8.7824   -6.2921 H   0  0  0  0  0  0  0  0  0  0  0  0
   -8.4341    7.0496   -6.6374 H   0  0  0  0  0  0  0  0  0  0  0  0
   -6.6394    7.9851   -4.6759 H   0  0  0  0  0  0  0  0  0  0  0  0
   -6.9547    6.2741   -5.2200 H   0  0  0  0  0  0  0  0  0  0  0  0
   -4.7647    6.2200   -5.6738 H   0  0  0  0  0  0  0  0  0  0  0  0
   -5.2401    7.1920   -7.1407 H   0  0  0  0  0  0  0  0  0  0  0  0
   -4.6980    8.8650   -4.8800 H   0  0  0  0  0  0  0  0  0  0  0  0
   -1.8271   10.3391   -6.5518 H   0  0  0  0  0  0  0  0  0  0  0  0
   -4.6087   10.7739   -5.5785 H   0  0  0  0  0  0  0  0  0  0  0  0
   -3.2137   11.8166   -4.9536 H   0  0  0  0  0  0  0  0  0  0  0  0
   -3.0163   11.7263   -7.7612 H   0  0  0  0  0  0  0  0  0  0  0  0
   -4.7573   12.1030   -7.2978 H   0  0  0  0  0  0  0  0  0  0  0  0
   -3.0340   14.0416   -7.6798 H   0  0  0  0  0  0  0  0  0  0  0  0
   -4.2366   14.0733   -6.3165 H   0  0  0  0  0  0  0  0  0  0  0  0
   -2.3845   14.6387   -5.1171 H   0  0  0  0  0  0  0  0  0  0  0  0
   -2.1948   12.8493   -5.0632 H   0  0  0  0  0  0  0  0  0  0  0  0
   -0.8930   13.3550   -7.3390 H   0  0  0  0  0  0  0  0  0  0  0  0
   -0.6900   14.8250   -6.6360 H   0  0  0  0  0  0  0  0  0  0  0  0
   -0.1420   13.4700   -5.8620 H   0  0  0  0  0  0  0  0  0  0  0  0
   -2.0280    8.6550   -4.3390 H   0  0  0  0  0  0  0  0  0  0  0  0
   -0.9809    9.0266   -2.4716 H   0  0  0  0  0  0  0  0  0  0  0  0
    0.6599    9.2130   -3.2609 H   0  0  0  0  0  0  0  0  0  0  0  0
   -0.1354   11.7377   -2.1963 H   0  0  0  0  0  0  0  0  0  0  0  0
   -0.3296   10.4495   -0.9206 H   0  0  0  0  0  0  0  0  0  0  0  0
    2.1365   11.5588   -2.1696 H   0  0  0  0  0  0  0  0  0  0  0  0
    1.8465   10.8747   -0.5231 H   0  0  0  0  0  0  0  0  0  0  0  0
    2.5189    8.8133   -1.1348 H   0  0  0  0  0  0  0  0  0  0  0  0
    1.5897    8.9070   -2.7003 H   0  0  0  0  0  0  0  0  0  0  0  0
    4.2886   10.2159   -2.2171 H   0  0  0  0  0  0  0  0  0  0  0  0
    4.0163    8.5906   -3.0049 H   0  0  0  0  0  0  0  0  0  0  0  0
    3.6060   11.2240   -4.1620 H   0  0  0  0  0  0  0  0  0  0  0  0
    4.1170   11.0871   -6.5647 H   0  0  0  0  0  0  0  0  0  0  0  0
    2.0032   10.0182   -9.2391 H   0  0  0  0  0  0  0  0  0  0  0  0
    1.3652    7.0925   -6.7771 H   0  0  0  0  0  0  0  0  0  0  0  0
    1.5400    3.6250  -10.2330 H   0  0  0  0  0  0  0  0  0  0  0  0
    0.4700    3.8790  -11.5790 H   0  0  0  0  0  0  0  0  0  0  0  0
    2.2659    7.9297  -13.1410 H   0  0  0  0  0  0  0  0  0  0  0  0
    0.6461    9.1723   -6.6838 H   0  0  0  0  0  0  0  0  0  0  0  0
   -0.2160   10.1890   -8.7290 H   0  0  0  0  0  0  0  0  0  0  0  0
    1.5596   11.2181   -5.5281 H   0  0  0  0  0  0  0  0  0  0  0  0
    1.4990   12.8760   -6.6580 H   0  0  0  0  0  0  0  0  0  0  0  0
   -0.9010    2.6920  -11.8070 H   0  0  0  0  0  0  0  0  0  0  0  0
   -1.5130    1.4290  -12.7670 H   0  0  0  0  0  0  0  0  0  0  0  0
  1  2  1  0
  2  3  2  0
  2  4  1  0
  4  5  1  0
  5  6  1  0
  6  7  1  0
  7  8  1  0
  8  9  1  0
  9 10  1  0
 10 11  2  0
 10 12  1  0
 12 13  1  0
 13 14  1  0
 14 15  1  0
 15 16  1  0
 16 17  1  0
 17 18  1  0
 17 19  2  0
 12 20  1  0
 20 21  1  0
 21 22  2  0
 21 23  1  0
 23 24  1  0
 24 25  1  0
 25 26  1  0
 26 27  1  0
 27 28  1  0
 28 29  1  0
 29 30  2  0
 29 31  1  0
 31 32  1  0
 32 33  1  0
 33 34  1  0
 34 35  1  0
 35 36  1  0
 31 37  1  0
 37 38  1  0
 38 39  2  0
 38 40  1  0
 40 41  1  0
 41 42  1  0
 42 43  1  0
 43 44  1  0
 44 45  1  0
 45 46  1  0
 46 47  2  0
 46 48  1  0
 48 49  1  0
 49 50  1  0
 50 51  1  0
 51 52  1  0
 52 53  2  0
 53 54  1  0
 54 55  2  0
 55 56  1  0
 55 57  1  0
 57 58  2  0
 58 59  1  0
 59 60  2  0
 50 61  1  0
 61 62  1  0
 61 63  1  0
 63 64  1  0
  8 65  1  0
 65 66  1  0
 65 67  2  0
 63 48  1  0
 60 51  1  0
 60 54  1  0
  1 68  1  0
  1 69  1  0
  3 70  1  0
  3 71  1  0
  4 72  1  0
  5 73  1  0
  5 74  1  0
  6 75  1  0
  6 76  1  0
  7 77  1  0
  7 78  1  0
  8 79  1  1
  9 80  1  0
 12 81  1  6
 13 82  1  0
 13 83  1  0
 14 84  1  0
 14 85  1  0
 15 86  1  0
 15 87  1  0
 16 88  1  0
 18 89  1  0
 18 90  1  0
 19 91  1  0
 19 92  1  0
 20 93  1  0
 23 94  1  0
 23 95  1  0
 24 96  1  0
 24 97  1  0
 25 98  1  0
 25 99  1  0
 26100  1  0
 26101  1  0
 27102  1  0
 27103  1  0
 28104  1  0
 31105  1  6
 32106  1  0
 32107  1  0
 33108  1  0
 33109  1  0
 34110  1  0
 34111  1  0
 35112  1  0
 35113  1  0
 36114  1  0
 36115  1  0
 36116  1  0
 37117  1  0
 40118  1  0
 40119  1  0
 41120  1  0
 41121  1  0
 42122  1  0
 42123  1  0
 43124  1  0
 43125  1  0
 44126  1  0
 44127  1  0
 45128  1  0
 48129  1  6
 50130  1  6
 52131  1  0
 56132  1  0
 56133  1  0
 58134  1  0
 61135  1  1
 62136  1  0
 63137  1  1
 64138  1  0
 66139  1  0
 66140  1  0
M  CHG  3   3   1  19   1  36   1
M  END
>  <meeko>  (4) 
{"is_sidechain": [false], "free_energy": -6.394, "intermolecular_energy": -19.953, "internal_energy": -6.096}

$$$$
3ag9_ligand
     RDKit          3D

140142  0  0  0  0  0  0  0  0999 V2000
    4.5860   -1.2630  -11.4600 N   0  0  0  0  0  0  0  0  0  0  0  0
    3.8780   -1.5200  -12.5640 C   0  0  0  0  0  0  0  0  0  0  0  0
    4.2010   -2.5890  -13.2940 N   0  0  0  0  0  0  0  0  0  0  0  0
    2.8660   -0.6980  -12.9070 N   0  0  0  0  0  0  0  0  0  0  0  0
    2.0110   -0.9040  -14.0840 C   0  0  0  0  0  0  0  0  0  0  0  0
    1.5060    0.4140  -14.6820 C   0  0  0  0  0  0  0  0  0  0  0  0
    2.0420    1.6520  -13.9500 C   0  0  0  0  0  0  0  0  0  0  0  0
    0.9910    2.7670  -13.7920 C   0  0  1  0  0  0  0  0  0  0  0  0
    1.5890    3.9480  -13.1700 N   0  0  0  0  0  0  0  0  0  0  0  0
    1.6370    4.0200  -11.7870 C   0  0  0  0  0  0  0  0  0  0  0  0
    1.1600    3.1530  -11.0610 O   0  0  0  0  0  0  0  0  0  0  0  0
    2.3730    5.2640  -11.2530 C   0  0  1  0  0  0  0  0  0  0  0  0
    3.3690    5.8090  -12.2900 C   0  0  0  0  0  0  0  0  0  0  0  0
    4.8480    5.7190  -11.8850 C   0  0  0  0  0  0  0  0  0  0  0  0
    5.3680    6.8950  -11.0590 C   0  0  0  0  0  0  0  0  0  0  0  0
    4.9730    6.7650   -9.6490 N   0  0  0  0  0  0  0  0  0  0  0  0
    4.1590    7.6270   -9.0150 C   0  0  0  0  0  0  0  0  0  0  0  0
    3.8180    7.3850   -7.7450 N   0  0  0  0  0  0  0  0  0  0  0  0
    3.6770    8.7230   -9.6010 N   0  0  0  0  0  0  0  0  0  0  0  0
    1.3540    6.2670  -10.9580 N   0  0  0  0  0  0  0  0  0  0  0  0
    0.8690    6.4440   -9.6800 C   0  0  0  0  0  0  0  0  0  0  0  0
    1.2240    5.7390   -8.7380 O   0  0  0  0  0  0  0  0  0  0  0  0
   -0.1580    7.5610   -9.5890 C   0  0  0  0  0  0  0  0  0  0  0  0
   -0.4670    7.9640   -8.1480 C   0  0  0  0  0  0  0  0  0  0  0  0
    0.5450    8.9540   -7.5540 C   0  0  0  0  0  0  0  0  0  0  0  0
    0.6660   10.2610   -8.3490 C   0  0  0  0  0  0  0  0  0  0  0  0
    1.7380   11.2020   -7.7930 C   0  0  0  0  0  0  0  0  0  0  0  0
    2.1160   10.8850   -6.4280 N   0  0  0  0  0  0  0  0  0  0  0  0
    3.4180   10.5770   -6.0970 C   0  0  0  0  0  0  0  0  0  0  0  0
    4.3110   10.3810   -6.9300 O   0  0  0  0  0  0  0  0  0  0  0  0
    3.6750   10.3860   -4.5890 C   0  0  1  0  0  0  0  0  0  0  0  0
    4.6510   11.4690   -4.0770 C   0  0  0  0  0  0  0  0  0  0  0  0
    5.2260   11.2600   -2.6650 C   0  0  0  0  0  0  0  0  0  0  0  0
    5.2060    9.8130   -2.1590 C   0  0  0  0  0  0  0  0  0  0  0  0
    4.3080    9.6360   -0.9380 C   0  0  0  0  0  0  0  0  0  0  0  0
    4.5140   10.7590    0.0090 N   0  0  0  0  0  0  0  0  0  0  0  0
    2.3860   10.3700   -3.9020 N   0  0  0  0  0  0  0  0  0  0  0  0
    1.8030    9.1630   -3.5530 C   0  0  0  0  0  0  0  0  0  0  0  0
    2.3810    8.0920   -3.6740 O   0  0  0  0  0  0  0  0  0  0  0  0
    0.3940    9.3260   -3.0110 C   0  0  0  0  0  0  0  0  0  0  0  0
   -0.3260   10.5720   -3.5220 C   0  0  0  0  0  0  0  0  0  0  0  0
   -1.2090   10.2970   -4.7440 C   0  0  0  0  0  0  0  0  0  0  0  0
   -1.5410   11.5980   -5.4820 C   0  0  0  0  0  0  0  0  0  0  0  0
   -2.4020   11.3760   -6.7260 C   0  0  0  0  0  0  0  0  0  0  0  0
   -3.3510   10.2890   -6.5840 N   0  0  0  0  0  0  0  0  0  0  0  0
   -4.0690    9.8140   -7.6640 C   0  0  0  0  0  0  0  0  0  0  0  0
   -3.8770   10.1810   -8.8190 O   0  0  0  0  0  0  0  0  0  0  0  0
   -5.0780    8.7160   -7.3160 C   0  0  1  0  0  0  0  0  0  0  0  0
   -5.4610    7.9660   -8.4780 O   0  0  0  0  0  0  0  0  0  0  0  0
   -4.8500    6.6640   -8.4030 C   0  0  1  0  0  0  0  0  0  0  0  0
   -4.2650    6.3110   -9.6840 N   0  0  0  0  0  0  0  0  0  0  0  0
   -3.6860    7.1410  -10.6030 C   0  0  0  0  0  0  0  0  0  0  0  0
   -3.2930    6.4860  -11.6780 N   0  0  0  0  0  0  0  0  0  0  0  0
   -3.6320    5.1710  -11.4350 C   0  0  0  0  0  0  0  0  0  0  0  0
   -3.4770    3.9950  -12.1870 C   0  0  0  0  0  0  0  0  0  0  0  0
   -2.9150    3.9700  -13.4540 N   0  0  0  0  0  0  0  0  0  0  0  0
   -3.8860    2.8260  -11.6430 N   0  0  0  0  0  0  0  0  0  0  0  0
   -4.4460    2.8470  -10.4160 C   0  0  0  0  0  0  0  0  0  0  0  0
   -4.6490    3.9070   -9.5990 N   0  0  0  0  0  0  0  0  0  0  0  0
   -4.2210    5.0390  -10.1900 C   0  0  0  0  0  0  0  0  0  0  0  0
   -3.8180    6.7080   -7.2710 C   0  0  2  0  0  0  0  0  0  0  0  0
   -3.6590    5.4720   -6.5680 O   0  0  0  0  0  0  0  0  0  0  0  0
   -4.4140    7.7500   -6.3440 C   0  0  2  0  0  0  0  0  0  0  0  0
   -5.3940    7.1450   -5.4870 O   0  0  0  0  0  0  0  0  0  0  0  0
    0.4400    3.1740  -15.1880 C   0  0  0  0  0  0  0  0  0  0  0  0
    1.3260    3.8250  -16.0010 N   0  0  0  0  0  0  0  0  0  0  0  0
   -0.7200    2.9830  -15.5620 O   0  0  0  0  0  0  0  0  0  0  0  0
    4.3900   -0.4720  -10.8620 H   0  0  0  0  0  0  0  0  0  0  0  0
    5.3500   -1.8660  -11.1750 H   0  0  0  0  0  0  0  0  0  0  0  0
    3.6980   -2.8350  -14.1360 H   0  0  0  0  0  0  0  0  0  0  0  0
    4.9590   -3.2060  -13.0280 H   0  0  0  0  0  0  0  0  0  0  0  0
    2.6790    0.0790  -12.2870 H   0  0  0  0  0  0  0  0  0  0  0  0
    2.5897   -1.4401  -14.8506 H   0  0  0  0  0  0  0  0  0  0  0  0
    1.1327   -1.4823  -13.7614 H   0  0  0  0  0  0  0  0  0  0  0  0
    1.8227    0.4651  -15.7342 H   0  0  0  0  0  0  0  0  0  0  0  0
    0.4107    0.4217  -14.5806 H   0  0  0  0  0  0  0  0  0  0  0  0
    2.3807    1.3467  -12.9490 H   0  0  0  0  0  0  0  0  0  0  0  0
    2.8628    2.0607  -14.5577 H   0  0  0  0  0  0  0  0  0  0  0  0
    0.1776    2.3858  -13.1572 H   0  0  0  0  0  0  0  0  0  0  0  0
    2.4150    4.3540  -13.6120 H   0  0  0  0  0  0  0  0  0  0  0  0
    2.9525    5.0070  -10.3540 H   0  0  0  0  0  0  0  0  0  0  0  0
    3.2359    5.2399  -13.2219 H   0  0  0  0  0  0  0  0  0  0  0  0
    3.1454    6.8809  -12.3947 H   0  0  0  0  0  0  0  0  0  0  0  0
    4.9840    4.8013  -11.2940 H   0  0  0  0  0  0  0  0  0  0  0  0
    5.4228    5.7262  -12.8228 H   0  0  0  0  0  0  0  0  0  0  0  0
    6.4657    6.9224  -11.1238 H   0  0  0  0  0  0  0  0  0  0  0  0
    4.9346    7.8232  -11.4598 H   0  0  0  0  0  0  0  0  0  0  0  0
    5.3100    5.9740   -9.1170 H   0  0  0  0  0  0  0  0  0  0  0  0
    4.1400    6.5630   -7.2480 H   0  0  0  0  0  0  0  0  0  0  0  0
    3.2030    8.0090   -7.2370 H   0  0  0  0  0  0  0  0  0  0  0  0
    3.0590    9.3610   -9.1230 H   0  0  0  0  0  0  0  0  0  0  0  0
    3.9290    8.9890  -10.5590 H   0  0  0  0  0  0  0  0  0  0  0  0
    0.8040    6.6260  -11.7310 H   0  0  0  0  0  0  0  0  0  0  0  0
    0.2302    8.4400  -10.1244 H   0  0  0  0  0  0  0  0  0  0  0  0
   -1.0917    7.1903  -10.0371 H   0  0  0  0  0  0  0  0  0  0  0  0
   -1.4635    8.4292   -8.1235 H   0  0  0  0  0  0  0  0  0  0  0  0
   -0.4164    7.0486   -7.5401 H   0  0  0  0  0  0  0  0  0  0  0  0
    0.2311    9.1987   -6.5285 H   0  0  0  0  0  0  0  0  0  0  0  0
    1.5301    8.4655   -7.5851 H   0  0  0  0  0  0  0  0  0  0  0  0
    0.9210   10.0155   -9.3905 H   0  0  0  0  0  0  0  0  0  0  0  0
   -0.2999   10.7820   -8.2748 H   0  0  0  0  0  0  0  0  0  0  0  0
    2.6319   11.1309   -8.4301 H   0  0  0  0  0  0  0  0  0  0  0  0
    1.3161   12.2179   -7.7909 H   0  0  0  0  0  0  0  0  0  0  0  0
    1.5120   11.2190   -5.6850 H   0  0  0  0  0  0  0  0  0  0  0  0
    4.1680    9.4250   -4.3806 H   0  0  0  0  0  0  0  0  0  0  0  0
    5.4966   11.5162   -4.7790 H   0  0  0  0  0  0  0  0  0  0  0  0
    4.0567   12.3927   -4.0165 H   0  0  0  0  0  0  0  0  0  0  0  0
    6.2706   11.6047   -2.6686 H   0  0  0  0  0  0  0  0  0  0  0  0
    4.5771   11.8302   -1.9840 H   0  0  0  0  0  0  0  0  0  0  0  0
    4.8380    9.1618   -2.9655 H   0  0  0  0  0  0  0  0  0  0  0  0
    6.2314    9.5472   -1.8625 H   0  0  0  0  0  0  0  0  0  0  0  0
    3.2560    9.6181   -1.2588 H   0  0  0  0  0  0  0  0  0  0  0  0
    4.5609    8.6898   -0.4373 H   0  0  0  0  0  0  0  0  0  0  0  0
    3.6540   11.3210    0.1830 H   0  0  0  0  0  0  0  0  0  0  0  0
    4.8050   10.4200    0.9330 H   0  0  0  0  0  0  0  0  0  0  0  0
    5.2350   11.4110   -0.3200 H   0  0  0  0  0  0  0  0  0  0  0  0
    1.7460   11.1310   -4.1010 H   0  0  0  0  0  0  0  0  0  0  0  0
   -0.1934    8.4428   -3.3024 H   0  0  0  0  0  0  0  0  0  0  0  0
    0.4824    9.4336   -1.9199 H   0  0  0  0  0  0  0  0  0  0  0  0
   -0.9595   10.9665   -2.7139 H   0  0  0  0  0  0  0  0  0  0  0  0
    0.4451   11.2934   -3.8300 H   0  0  0  0  0  0  0  0  0  0  0  0
   -0.6763    9.6205   -5.4285 H   0  0  0  0  0  0  0  0  0  0  0  0
   -2.1481    9.8368   -4.4029 H   0  0  0  0  0  0  0  0  0  0  0  0
   -2.0840   12.2626   -4.7939 H   0  0  0  0  0  0  0  0  0  0  0  0
   -0.5900   12.0397   -5.8145 H   0  0  0  0  0  0  0  0  0  0  0  0
   -2.9600   12.3010   -6.9332 H   0  0  0  0  0  0  0  0  0  0  0  0
   -1.7217   11.1074   -7.5476 H   0  0  0  0  0  0  0  0  0  0  0  0
   -3.7220   10.1200   -5.6560 H   0  0  0  0  0  0  0  0  0  0  0  0
   -5.9720    9.1909   -6.8856 H   0  0  0  0  0  0  0  0  0  0  0  0
   -5.5902    5.8812   -8.1808 H   0  0  0  0  0  0  0  0  0  0  0  0
   -3.5627    8.2250  -10.4627 H   0  0  0  0  0  0  0  0  0  0  0  0
   -2.4550    4.8330  -13.7240 H   0  0  0  0  0  0  0  0  0  0  0  0
   -2.4620    3.0950  -13.6760 H   0  0  0  0  0  0  0  0  0  0  0  0
   -4.7821    1.8741  -10.0281 H   0  0  0  0  0  0  0  0  0  0  0  0
   -2.8102    6.9248   -7.6549 H   0  0  0  0  0  0  0  0  0  0  0  0
   -2.7380    5.1730   -6.7430 H   0  0  0  0  0  0  0  0  0  0  0  0
   -3.6782    8.2306   -5.6824 H   0  0  0  0  0  0  0  0  0  0  0  0
   -6.0700    7.8430   -5.3420 H   0  0  0  0  0  0  0  0  0  0  0  0
    2.3160    3.6120  -15.9210 H   0  0  0  0  0  0  0  0  0  0  0  0
    1.0190    3.9910  -16.9540 H   0  0  0  0  0  0  0  0  0  0  0  0
  1  2  1  0
  2  3  2  0
  2  4  1  0
  4  5  1  0
  5  6  1  0
  6  7  1  0
  7  8  1  0
  8  9  1  0
  9 10  1  0
 10 11  2  0
 10 12  1  0
 12 13  1  0
 13 14  1  0
 14 15  1  0
 15 16  1  0
 16 17  1  0
 17 18  1  0
 17 19  2  0
 12 20  1  0
 20 21  1  0
 21 22  2  0
 21 23  1  0
 23 24  1  0
 24 25  1  0
 25 26  1  0
 26 27  1  0
 27 28  1  0
 28 29  1  0
 29 30  2  0
 29 31  1  0
 31 32  1  0
 32 33  1  0
 33 34  1  0
 34 35  1  0
 35 36  1  0
 31 37  1  0
 37 38  1  0
 38 39  2  0
 38 40  1  0
 40 41  1  0
 41 42  1  0
 42 43  1  0
 43 44  1  0
 44 45  1  0
 45 46  1  0
 46 47  2  0
 46 48  1  0
 48 49  1  0
 49 50  1  0
 50 51  1  0
 51 52  1  0
 52 53  2  0
 53 54  1  0
 54 55  2  0
 55 56  1  0
 55 57  1  0
 57 58  2  0
 58 59  1  0
 59 60  2  0
 50 61  1  0
 61 62  1  0
 61 63  1  0
 63 64  1  0
  8 65  1  0
 65 66  1  0
 65 67  2  0
 63 48  1  0
 60 51  1  0
 60 54  1  0
  1 68  1  0
  1 69  1  0
  3 70  1  0
  3 71  1  0
  4 72  1  0
  5 73  1  0
  5 74  1  0
  6 75  1  0
  6 76  1  0
  7 77  1  0
  7 78  1  0
  8 79  1  1
  9 80  1  0
 12 81  1  1
 13 82  1  0
 13 83  1  0
 14 84  1  0
 14 85  1  0
 15 86  1  0
 15 87  1  0
 16 88  1  0
 18 89  1  0
 18 90  1  0
 19 91  1  0
 19 92  1  0
 20 93  1  0
 23 94  1  0
 23 95  1  0
 24 96  1  0
 24 97  1  0
 25 98  1  0
 25 99  1  0
 26100  1  0
 26101  1  0
 27102  1  0
 27103  1  0
 28104  1  0
 31105  1  6
 32106  1  0
 32107  1  0
 33108  1  0
 33109  1  0
 34110  1  0
 34111  1  0
 35112  1  0
 35113  1  0
 36114  1  0
 36115  1  0
 36116  1  0
 37117  1  0
 40118  1  0
 40119  1  0
 41120  1  0
 41121  1  0
 42122  1  0
 42123  1  0
 43124  1  0
 43125  1  0
 44126  1  0
 44127  1  0
 45128  1  0
 48129  1  1
 50130  1  1
 52131  1  0
 56132  1  0
 56133  1  0
 58134  1  0
 61135  1  6
 62136  1  0
 63137  1  1
 64138  1  0
 66139  1  0
 66140  1  0
M  CHG  3   3   1  19   1  36   1
M  END
>  <meeko>  (5) 
{"is_sidechain": [false], "free_energy": -6.369, "intermolecular_energy": -19.211, "internal_energy": -6.765}

$$$$
3ag9_ligand
     RDKit          3D

140142  0  0  0  0  0  0  0  0999 V2000
   -2.1970   10.3440  -11.5330 N   0  0  0  0  0  0  0  0  0  0  0  0
   -2.3620    9.1930  -12.1910 C   0  0  0  0  0  0  0  0  0  0  0  0
   -1.3810    8.7710  -12.9920 N   0  0  0  0  0  0  0  0  0  0  0  0
   -3.5040    8.4970  -12.0310 N   0  0  0  0  0  0  0  0  0  0  0  0
   -3.7760    7.2110  -12.6880 C   0  0  0  0  0  0  0  0  0  0  0  0
   -5.2690    6.9850  -12.9460 C   0  0  0  0  0  0  0  0  0  0  0  0
   -5.8930    8.0590  -13.8470 C   0  0  0  0  0  0  0  0  0  0  0  0
   -7.4280    8.1360  -13.7270 C   0  0  1  0  0  0  0  0  0  0  0  0
   -7.8710    7.5410  -12.4670 N   0  0  0  0  0  0  0  0  0  0  0  0
   -8.9060    6.6200  -12.4920 C   0  0  0  0  0  0  0  0  0  0  0  0
   -9.4960    6.3150  -13.5240 O   0  0  0  0  0  0  0  0  0  0  0  0
   -9.2190    5.9960  -11.1190 C   0  0  1  0  0  0  0  0  0  0  0  0
   -8.8630    4.5000  -11.0950 C   0  0  0  0  0  0  0  0  0  0  0  0
   -9.9740    3.5720  -10.5800 C   0  0  0  0  0  0  0  0  0  0  0  0
  -11.3250    4.2460  -10.3390 C   0  0  0  0  0  0  0  0  0  0  0  0
  -12.0800    3.5530   -9.2860 N   0  0  0  0  0  0  0  0  0  0  0  0
  -12.6810    4.1780   -8.2580 C   0  0  0  0  0  0  0  0  0  0  0  0
  -13.3920    3.4570   -7.3840 N   0  0  0  0  0  0  0  0  0  0  0  0
  -12.5940    5.4950   -8.0680 N   0  0  0  0  0  0  0  0  0  0  0  0
   -8.4240    6.7180  -10.1310 N   0  0  0  0  0  0  0  0  0  0  0  0
   -8.9910    7.2140   -8.9760 C   0  0  0  0  0  0  0  0  0  0  0  0
  -10.1930    7.1230   -8.7410 O   0  0  0  0  0  0  0  0  0  0  0  0
   -7.9800    7.9020   -8.0720 C   0  0  0  0  0  0  0  0  0  0  0  0
   -8.3610    7.8260   -6.5940 C   0  0  0  0  0  0  0  0  0  0  0  0
   -7.2090    7.3790   -5.6820 C   0  0  0  0  0  0  0  0  0  0  0  0
   -6.6590    8.5010   -4.7920 C   0  0  0  0  0  0  0  0  0  0  0  0
   -5.2110    8.8710   -5.1220 C   0  0  0  0  0  0  0  0  0  0  0  0
   -4.5790    7.9290   -6.0280 N   0  0  0  0  0  0  0  0  0  0  0  0
   -4.3590    8.2420   -7.3520 C   0  0  0  0  0  0  0  0  0  0  0  0
   -4.8210    9.2470   -7.9060 O   0  0  0  0  0  0  0  0  0  0  0  0
   -3.5690    7.1820   -8.1450 C   0  0  1  0  0  0  0  0  0  0  0  0
   -4.4910    6.5010   -9.1810 C   0  0  0  0  0  0  0  0  0  0  0  0
   -4.4020    4.9680   -9.2730 C   0  0  0  0  0  0  0  0  0  0  0  0
   -5.1170    4.3420  -10.4760 C   0  0  0  0  0  0  0  0  0  0  0  0
   -4.5230    2.9930  -10.8680 C   0  0  0  0  0  0  0  0  0  0  0  0
   -4.3430    2.1480   -9.6630 N   0  0  0  0  0  0  0  0  0  0  0  0
   -2.3930    7.8270   -8.7250 N   0  0  0  0  0  0  0  0  0  0  0  0
   -1.1280    7.3340   -8.4500 C   0  0  0  0  0  0  0  0  0  0  0  0
   -0.9450    6.2890   -7.8410 O   0  0  0  0  0  0  0  0  0  0  0  0
   -0.0210    8.2240   -8.9860 C   0  0  0  0  0  0  0  0  0  0  0  0
    0.8560    7.5540  -10.0420 C   0  0  0  0  0  0  0  0  0  0  0  0
    1.9240    6.6350   -9.4410 C   0  0  0  0  0  0  0  0  0  0  0  0
    2.8860    7.4270   -8.5490 C   0  0  0  0  0  0  0  0  0  0  0  0
    2.7500    7.0780   -7.0670 C   0  0  0  0  0  0  0  0  0  0  0  0
    2.7970    8.2360   -6.1940 N   0  0  0  0  0  0  0  0  0  0  0  0
    2.5610    8.1260   -4.8370 C   0  0  0  0  0  0  0  0  0  0  0  0
    2.4170    7.0520   -4.2600 O   0  0  0  0  0  0  0  0  0  0  0  0
    2.5790    9.4600   -4.0850 C   0  0  1  0  0  0  0  0  0  0  0  0
    1.8140   10.4610   -4.7710 O   0  0  0  0  0  0  0  0  0  0  0  0
    0.5980   10.6900   -4.0340 C   0  0  1  0  0  0  0  0  0  0  0  0
   -0.5350   10.7300   -4.9410 N   0  0  0  0  0  0  0  0  0  0  0  0
   -1.0960    9.6950   -5.6360 C   0  0  0  0  0  0  0  0  0  0  0  0
   -2.0930   10.0980   -6.3990 N   0  0  0  0  0  0  0  0  0  0  0  0
   -2.1800   11.4580   -6.1810 C   0  0  0  0  0  0  0  0  0  0  0  0
   -3.0320   12.4500   -6.6910 C   0  0  0  0  0  0  0  0  0  0  0  0
   -4.0230   12.1950   -7.6260 N   0  0  0  0  0  0  0  0  0  0  0  0
   -2.8860   13.7170   -6.2390 N   0  0  0  0  0  0  0  0  0  0  0  0
   -1.9140   13.9720   -5.3390 C   0  0  0  0  0  0  0  0  0  0  0  0
   -1.0370   13.1090   -4.7760 N   0  0  0  0  0  0  0  0  0  0  0  0
   -1.2300   11.8670   -5.2600 C   0  0  0  0  0  0  0  0  0  0  0  0
    0.4810    9.5780   -2.9870 C   0  0  2  0  0  0  0  0  0  0  0  0
   -0.1520    9.9790   -1.7680 O   0  0  0  0  0  0  0  0  0  0  0  0
    1.9360    9.2440   -2.7210 C   0  0  2  0  0  0  0  0  0  0  0  0
    2.4840   10.1560   -1.7560 O   0  0  0  0  0  0  0  0  0  0  0  0
   -7.8850    9.6220  -13.7550 C   0  0  0  0  0  0  0  0  0  0  0  0
   -7.1190   10.4570  -14.5210 N   0  0  0  0  0  0  0  0  0  0  0  0
   -8.8400   10.0690  -13.1150 O   0  0  0  0  0  0  0  0  0  0  0  0
   -2.8990   10.7160  -10.9080 H   0  0  0  0  0  0  0  0  0  0  0  0
   -1.3460   10.8860  -11.6310 H   0  0  0  0  0  0  0  0  0  0  0  0
   -1.4490    7.9060  -13.5120 H   0  0  0  0  0  0  0  0  0  0  0  0
   -0.5230    9.2960  -13.1040 H   0  0  0  0  0  0  0  0  0  0  0  0
   -4.1880    8.8810  -11.3910 H   0  0  0  0  0  0  0  0  0  0  0  0
   -3.2447    7.1881  -13.6509 H   0  0  0  0  0  0  0  0  0  0  0  0
   -3.4300    6.4132  -12.0144 H   0  0  0  0  0  0  0  0  0  0  0  0
   -5.3964    6.0051  -13.4294 H   0  0  0  0  0  0  0  0  0  0  0  0
   -5.7812    7.0341  -11.9738 H   0  0  0  0  0  0  0  0  0  0  0  0
   -5.4712    9.0363  -13.5695 H   0  0  0  0  0  0  0  0  0  0  0  0
   -5.6598    7.7885  -14.8874 H   0  0  0  0  0  0  0  0  0  0  0  0
   -7.8679    7.5858  -14.5718 H   0  0  0  0  0  0  0  0  0  0  0  0
   -7.1600    7.3110  -11.7710 H   0  0  0  0  0  0  0  0  0  0  0  0
  -10.2942    6.0759  -10.9008 H   0  0  0  0  0  0  0  0  0  0  0  0
   -8.6117    4.1934  -12.1211 H   0  0  0  0  0  0  0  0  0  0  0  0
   -8.0263    4.3963  -10.3884 H   0  0  0  0  0  0  0  0  0  0  0  0
  -10.1200    2.7721  -11.3209 H   0  0  0  0  0  0  0  0  0  0  0  0
   -9.6360    3.2060   -9.5993 H   0  0  0  0  0  0  0  0  0  0  0  0
  -11.1569    5.2893  -10.0335 H   0  0  0  0  0  0  0  0  0  0  0  0
  -11.9074    4.2059  -11.2713 H   0  0  0  0  0  0  0  0  0  0  0  0
  -12.1810    2.5480   -9.3350 H   0  0  0  0  0  0  0  0  0  0  0  0
  -13.5060    2.4560   -7.4800 H   0  0  0  0  0  0  0  0  0  0  0  0
  -13.8620    3.8940   -6.6010 H   0  0  0  0  0  0  0  0  0  0  0  0
  -13.0550    5.9590   -7.3000 H   0  0  0  0  0  0  0  0  0  0  0  0
  -12.0340    6.1010   -8.6770 H   0  0  0  0  0  0  0  0  0  0  0  0
   -7.5320    7.1010  -10.4280 H   0  0  0  0  0  0  0  0  0  0  0  0
   -7.0009    7.4194   -8.2081 H   0  0  0  0  0  0  0  0  0  0  0  0
   -7.9528    8.9651   -8.3534 H   0  0  0  0  0  0  0  0  0  0  0  0
   -8.6942    8.8228   -6.2695 H   0  0  0  0  0  0  0  0  0  0  0  0
   -9.1541    7.0690   -6.5048 H   0  0  0  0  0  0  0  0  0  0  0  0
   -7.5731    6.5681   -5.0340 H   0  0  0  0  0  0  0  0  0  0  0  0
   -6.3868    7.0544   -6.3367 H   0  0  0  0  0  0  0  0  0  0  0  0
   -7.2878    9.3937   -4.9247 H   0  0  0  0  0  0  0  0  0  0  0  0
   -6.6770    8.1364   -3.7543 H   0  0  0  0  0  0  0  0  0  0  0  0
   -5.2010    9.8671   -5.5885 H   0  0  0  0  0  0  0  0  0  0  0  0
   -4.6434    8.8541   -4.1799 H   0  0  0  0  0  0  0  0  0  0  0  0
   -4.0040    7.2000   -5.6180 H   0  0  0  0  0  0  0  0  0  0  0  0
   -3.2104    6.3714   -7.4936 H   0  0  0  0  0  0  0  0  0  0  0  0
   -5.5292    6.7613   -8.9272 H   0  0  0  0  0  0  0  0  0  0  0  0
   -4.1545    6.8724  -10.1602 H   0  0  0  0  0  0  0  0  0  0  0  0
   -3.3386    4.6919   -9.3281 H   0  0  0  0  0  0  0  0  0  0  0  0
   -4.9122    4.5792   -8.3794 H   0  0  0  0  0  0  0  0  0  0  0  0
   -6.1779    4.2005  -10.2220 H   0  0  0  0  0  0  0  0  0  0  0  0
   -4.9946    5.0235  -11.3308 H   0  0  0  0  0  0  0  0  0  0  0  0
   -5.2017    2.4864  -11.5699 H   0  0  0  0  0  0  0  0  0  0  0  0
   -3.5450    3.1543  -11.3449 H   0  0  0  0  0  0  0  0  0  0  0  0
   -4.6470    1.1610   -9.7960 H   0  0  0  0  0  0  0  0  0  0  0  0
   -3.3560    2.0910   -9.3890 H   0  0  0  0  0  0  0  0  0  0  0  0
   -4.8640    2.5140   -8.8570 H   0  0  0  0  0  0  0  0  0  0  0  0
   -2.4520    8.8230   -8.9050 H   0  0  0  0  0  0  0  0  0  0  0  0
   -0.4811    9.1171   -9.4340 H   0  0  0  0  0  0  0  0  0  0  0  0
    0.6330    8.4669   -8.1355 H   0  0  0  0  0  0  0  0  0  0  0  0
    0.2121    6.9563  -10.7040 H   0  0  0  0  0  0  0  0  0  0  0  0
    1.3798    8.3524  -10.5880 H   0  0  0  0  0  0  0  0  0  0  0  0
    1.4323    5.8567   -8.8389 H   0  0  0  0  0  0  0  0  0  0  0  0
    2.4986    6.1797  -10.2611 H   0  0  0  0  0  0  0  0  0  0  0  0
    3.9168    7.2113   -8.8668 H   0  0  0  0  0  0  0  0  0  0  0  0
    2.6366    8.4925   -8.6605 H   0  0  0  0  0  0  0  0  0  0  0  0
    1.7876    6.5670   -6.9163 H   0  0  0  0  0  0  0  0  0  0  0  0
    3.6064    6.4395   -6.8046 H   0  0  0  0  0  0  0  0  0  0  0  0
    2.6690    9.1430   -6.6260 H   0  0  0  0  0  0  0  0  0  0  0  0
    3.6222    9.7998   -4.0053 H   0  0  0  0  0  0  0  0  0  0  0  0
    0.6121   11.6625   -3.5202 H   0  0  0  0  0  0  0  0  0  0  0  0
   -0.7563    8.6510   -5.5670 H   0  0  0  0  0  0  0  0  0  0  0  0
   -3.8480   11.3850   -8.2110 H   0  0  0  0  0  0  0  0  0  0  0  0
   -4.9580   12.3360   -7.2700 H   0  0  0  0  0  0  0  0  0  0  0  0
   -1.8222   15.0209   -5.0205 H   0  0  0  0  0  0  0  0  0  0  0  0
   -0.1449    8.7493   -3.3496 H   0  0  0  0  0  0  0  0  0  0  0  0
   -0.2860    9.1560   -1.2440 H   0  0  0  0  0  0  0  0  0  0  0  0
    2.0941    8.2334   -2.3165 H   0  0  0  0  0  0  0  0  0  0  0  0
    1.9270   10.0410   -0.9550 H   0  0  0  0  0  0  0  0  0  0  0  0
   -6.6540   10.0840  -15.3430 H   0  0  0  0  0  0  0  0  0  0  0  0
   -7.4730   11.4000  -14.6430 H   0  0  0  0  0  0  0  0  0  0  0  0
  1  2  1  0
  2  3  2  0
  2  4  1  0
  4  5  1  0
  5  6  1  0
  6  7  1  0
  7  8  1  0
  8  9  1  0
  9 10  1  0
 10 11  2  0
 10 12  1  0
 12 13  1  0
 13 14  1  0
 14 15  1  0
 15 16  1  0
 16 17  1  0
 17 18  1  0
 17 19  2  0
 12 20  1  0
 20 21  1  0
 21 22  2  0
 21 23  1  0
 23 24  1  0
 24 25  1  0
 25 26  1  0
 26 27  1  0
 27 28  1  0
 28 29  1  0
 29 30  2  0
 29 31  1  0
 31 32  1  0
 32 33  1  0
 33 34  1  0
 34 35  1  0
 35 36  1  0
 31 37  1  0
 37 38  1  0
 38 39  2  0
 38 40  1  0
 40 41  1  0
 41 42  1  0
 42 43  1  0
 43 44  1  0
 44 45  1  0
 45 46  1  0
 46 47  2  0
 46 48  1  0
 48 49  1  0
 49 50  1  0
 50 51  1  0
 51 52  1  0
 52 53  2  0
 53 54  1  0
 54 55  2  0
 55 56  1  0
 55 57  1  0
 57 58  2  0
 58 59  1  0
 59 60  2  0
 50 61  1  0
 61 62  1  0
 61 63  1  0
 63 64  1  0
  8 65  1  0
 65 66  1  0
 65 67  2  0
 63 48  1  0
 60 51  1  0
 60 54  1  0
  1 68  1  0
  1 69  1  0
  3 70  1  0
  3 71  1  0
  4 72  1  0
  5 73  1  0
  5 74  1  0
  6 75  1  0
  6 76  1  0
  7 77  1  0
  7 78  1  0
  8 79  1  6
  9 80  1  0
 12 81  1  1
 13 82  1  0
 13 83  1  0
 14 84  1  0
 14 85  1  0
 15 86  1  0
 15 87  1  0
 16 88  1  0
 18 89  1  0
 18 90  1  0
 19 91  1  0
 19 92  1  0
 20 93  1  0
 23 94  1  0
 23 95  1  0
 24 96  1  0
 24 97  1  0
 25 98  1  0
 25 99  1  0
 26100  1  0
 26101  1  0
 27102  1  0
 27103  1  0
 28104  1  0
 31105  1  1
 32106  1  0
 32107  1  0
 33108  1  0
 33109  1  0
 34110  1  0
 34111  1  0
 35112  1  0
 35113  1  0
 36114  1  0
 36115  1  0
 36116  1  0
 37117  1  0
 40118  1  0
 40119  1  0
 41120  1  0
 41121  1  0
 42122  1  0
 42123  1  0
 43124  1  0
 43125  1  0
 44126  1  0
 44127  1  0
 45128  1  0
 48129  1  1
 50130  1  1
 52131  1  0
 56132  1  0
 56133  1  0
 58134  1  0
 61135  1  6
 62136  1  0
 63137  1  1
 64138  1  0
 66139  1  0
 66140  1  0
M  CHG  3   3   1  19   1  36   1
M  END
>  <meeko>  (6) 
{"is_sidechain": [false], "free_energy": -6.364, "intermolecular_energy": -19.274, "internal_energy": -6.688}

$$$$
3ag9_ligand
     RDKit          3D

140142  0  0  0  0  0  0  0  0999 V2000
   -2.1720   11.1510  -12.8680 N   0  0  0  0  0  0  0  0  0  0  0  0
   -1.9720   10.2090  -11.9420 C   0  0  0  0  0  0  0  0  0  0  0  0
   -2.9470    9.9590  -11.0660 N   0  0  0  0  0  0  0  0  0  0  0  0
   -0.8000    9.5430  -11.9170 N   0  0  0  0  0  0  0  0  0  0  0  0
   -0.4880    8.4750  -10.9590 C   0  0  0  0  0  0  0  0  0  0  0  0
    0.1440    9.0070   -9.6690 C   0  0  0  0  0  0  0  0  0  0  0  0
    1.6430    9.3030   -9.8090 C   0  0  0  0  0  0  0  0  0  0  0  0
    2.4900    8.7050   -8.6690 C   0  0  1  0  0  0  0  0  0  0  0  0
    1.6760    8.5300   -7.4660 N   0  0  0  0  0  0  0  0  0  0  0  0
    2.2770    8.6820   -6.2280 C   0  0  0  0  0  0  0  0  0  0  0  0
    3.4750    8.9140   -6.0950 O   0  0  0  0  0  0  0  0  0  0  0  0
    1.2990    8.5670   -5.0420 C   0  0  1  0  0  0  0  0  0  0  0  0
    1.9950    7.9850   -3.8010 C   0  0  0  0  0  0  0  0  0  0  0  0
    2.3020    8.9990   -2.6880 C   0  0  0  0  0  0  0  0  0  0  0  0
    3.7210    8.9380   -2.1250 C   0  0  0  0  0  0  0  0  0  0  0  0
    3.7290    9.2210   -0.6820 N   0  0  0  0  0  0  0  0  0  0  0  0
    4.0470   10.4160   -0.1540 C   0  0  0  0  0  0  0  0  0  0  0  0
    3.9680   10.5830    1.1710 N   0  0  0  0  0  0  0  0  0  0  0  0
    4.4440   11.4480   -0.8990 N   0  0  0  0  0  0  0  0  0  0  0  0
    0.8100    9.9140   -4.7610 N   0  0  0  0  0  0  0  0  0  0  0  0
   -0.3340   10.4010   -5.3550 C   0  0  0  0  0  0  0  0  0  0  0  0
   -0.9710    9.7580   -6.1850 O   0  0  0  0  0  0  0  0  0  0  0  0
   -0.6810   11.8090   -4.8970 C   0  0  0  0  0  0  0  0  0  0  0  0
   -0.9880   12.7500   -6.0620 C   0  0  0  0  0  0  0  0  0  0  0  0
   -2.0940   13.7700   -5.7560 C   0  0  0  0  0  0  0  0  0  0  0  0
   -3.5110   13.1980   -5.8900 C   0  0  0  0  0  0  0  0  0  0  0  0
   -3.6520   12.2160   -7.0560 C   0  0  0  0  0  0  0  0  0  0  0  0
   -3.8480   10.8450   -6.6200 N   0  0  0  0  0  0  0  0  0  0  0  0
   -4.1560    9.8440   -7.5160 C   0  0  0  0  0  0  0  0  0  0  0  0
   -4.4520   10.0480   -8.6990 O   0  0  0  0  0  0  0  0  0  0  0  0
   -4.2100    8.4270   -6.9100 C   0  0  1  0  0  0  0  0  0  0  0  0
   -5.1050    8.4240   -5.6500 C   0  0  0  0  0  0  0  0  0  0  0  0
   -6.2010    7.3470   -5.5910 C   0  0  0  0  0  0  0  0  0  0  0  0
   -7.5590    7.7640   -6.1690 C   0  0  0  0  0  0  0  0  0  0  0  0
   -8.6740    7.7120   -5.1280 C   0  0  0  0  0  0  0  0  0  0  0  0
   -8.5740    8.8810   -4.2200 N   0  0  0  0  0  0  0  0  0  0  0  0
   -4.6440    7.4990   -7.9520 N   0  0  0  0  0  0  0  0  0  0  0  0
   -3.9650    6.3080   -8.1430 C   0  0  0  0  0  0  0  0  0  0  0  0
   -3.0850    5.9210   -7.3870 O   0  0  0  0  0  0  0  0  0  0  0  0
   -4.4360    5.5530   -9.3740 C   0  0  0  0  0  0  0  0  0  0  0  0
   -3.4890    5.6620  -10.5670 C   0  0  0  0  0  0  0  0  0  0  0  0
   -3.9400    4.8270  -11.7700 C   0  0  0  0  0  0  0  0  0  0  0  0
   -3.9800    5.6810  -13.0430 C   0  0  0  0  0  0  0  0  0  0  0  0
   -4.3240    7.1450  -12.7690 C   0  0  0  0  0  0  0  0  0  0  0  0
   -5.7490    7.4130  -12.7700 N   0  0  0  0  0  0  0  0  0  0  0  0
   -6.3730    8.0020  -11.6870 C   0  0  0  0  0  0  0  0  0  0  0  0
   -5.7680    8.4430  -10.7150 O   0  0  0  0  0  0  0  0  0  0  0  0
   -7.8910    8.1420  -11.8340 C   0  0  1  0  0  0  0  0  0  0  0  0
   -8.4800    6.9460  -12.3650 O   0  0  0  0  0  0  0  0  0  0  0  0
   -9.1950    6.2810  -11.3070 C   0  0  1  0  0  0  0  0  0  0  0  0
   -8.8980    4.8600  -11.3180 N   0  0  0  0  0  0  0  0  0  0  0  0
   -7.6980    4.2490  -11.0810 C   0  0  0  0  0  0  0  0  0  0  0  0
   -7.7800    2.9390  -11.2120 N   0  0  0  0  0  0  0  0  0  0  0  0
   -9.0960    2.6970  -11.5450 C   0  0  0  0  0  0  0  0  0  0  0  0
   -9.8080    1.5170  -11.8130 C   0  0  0  0  0  0  0  0  0  0  0  0
   -9.2250    0.2590  -11.8090 N   0  0  0  0  0  0  0  0  0  0  0  0
  -11.1320    1.6100  -12.0770 N   0  0  0  0  0  0  0  0  0  0  0  0
  -11.7010    2.8330  -12.0950 C   0  0  0  0  0  0  0  0  0  0  0  0
  -11.1260    4.0350  -11.8550 N   0  0  0  0  0  0  0  0  0  0  0  0
   -9.8130    3.8800  -11.5970 C   0  0  0  0  0  0  0  0  0  0  0  0
   -8.8010    6.9590   -9.9910 C   0  0  2  0  0  0  0  0  0  0  0  0
   -9.8420    6.9960   -9.0100 O   0  0  0  0  0  0  0  0  0  0  0  0
   -8.4830    8.3700  -10.4490 C   0  0  2  0  0  0  0  0  0  0  0  0
   -9.6890    9.1440  -10.5390 O   0  0  0  0  0  0  0  0  0  0  0  0
    3.0410    7.3150   -9.0940 C   0  0  0  0  0  0  0  0  0  0  0  0
    4.3570    7.0900   -8.7980 N   0  0  0  0  0  0  0  0  0  0  0  0
    2.3860    6.4600   -9.6970 O   0  0  0  0  0  0  0  0  0  0  0  0
   -1.4750   11.3850  -13.5630 H   0  0  0  0  0  0  0  0  0  0  0  0
   -3.0450   11.6640  -12.9140 H   0  0  0  0  0  0  0  0  0  0  0  0
   -2.8530    9.2550  -10.3460 H   0  0  0  0  0  0  0  0  0  0  0  0
   -3.8270   10.4580  -11.0940 H   0  0  0  0  0  0  0  0  0  0  0  0
   -0.1230    9.7840  -12.6300 H   0  0  0  0  0  0  0  0  0  0  0  0
   -1.4190    7.9476  -10.7038 H   0  0  0  0  0  0  0  0  0  0  0  0
    0.2414    7.8031  -11.4349 H   0  0  0  0  0  0  0  0  0  0  0  0
   -0.3710    9.9364   -9.3846 H   0  0  0  0  0  0  0  0  0  0  0  0
    0.0350    8.2241   -8.9040 H   0  0  0  0  0  0  0  0  0  0  0  0
    1.9945    8.8828  -10.7629 H   0  0  0  0  0  0  0  0  0  0  0  0
    1.7652   10.3954   -9.7680 H   0  0  0  0  0  0  0  0  0  0  0  0
    3.3197    9.3958   -8.4582 H   0  0  0  0  0  0  0  0  0  0  0  0
    0.7190    8.8850   -7.4830 H   0  0  0  0  0  0  0  0  0  0  0  0
    0.4721    7.8872   -5.2952 H   0  0  0  0  0  0  0  0  0  0  0  0
    1.3441    7.2044   -3.3803 H   0  0  0  0  0  0  0  0  0  0  0  0
    2.9683    7.6061   -4.1461 H   0  0  0  0  0  0  0  0  0  0  0  0
    2.1400   10.0086   -3.0935 H   0  0  0  0  0  0  0  0  0  0  0  0
    1.6315    8.7477   -1.8530 H   0  0  0  0  0  0  0  0  0  0  0  0
    4.1329    7.9326   -2.2965 H   0  0  0  0  0  0  0  0  0  0  0  0
    4.3325    9.6975   -2.6341 H   0  0  0  0  0  0  0  0  0  0  0  0
    3.4620    8.4890   -0.0380 H   0  0  0  0  0  0  0  0  0  0  0  0
    3.6600    9.8430    1.7890 H   0  0  0  0  0  0  0  0  0  0  0  0
    4.1950   11.4700    1.6030 H   0  0  0  0  0  0  0  0  0  0  0  0
    4.6730   12.3440   -0.4970 H   0  0  0  0  0  0  0  0  0  0  0  0
    4.5640   11.3770   -1.9150 H   0  0  0  0  0  0  0  0  0  0  0  0
    1.4620   10.5810   -4.3610 H   0  0  0  0  0  0  0  0  0  0  0  0
   -1.5642   11.7587   -4.2432 H   0  0  0  0  0  0  0  0  0  0  0  0
    0.1951   12.2112   -4.3673 H   0  0  0  0  0  0  0  0  0  0  0  0
   -0.0695   13.2993   -6.3161 H   0  0  0  0  0  0  0  0  0  0  0  0
   -1.3472   12.1259   -6.8935 H   0  0  0  0  0  0  0  0  0  0  0  0
   -1.9601   14.1294   -4.7250 H   0  0  0  0  0  0  0  0  0  0  0  0
   -2.0011   14.5784   -6.4962 H   0  0  0  0  0  0  0  0  0  0  0  0
   -3.7671   12.6739   -4.9574 H   0  0  0  0  0  0  0  0  0  0  0  0
   -4.1891   14.0416   -6.0865 H   0  0  0  0  0  0  0  0  0  0  0  0
   -4.5164   12.5172   -7.6659 H   0  0  0  0  0  0  0  0  0  0  0  0
   -2.7143   12.2488   -7.6302 H   0  0  0  0  0  0  0  0  0  0  0  0
   -3.4310   10.5700   -5.7370 H   0  0  0  0  0  0  0  0  0  0  0  0
   -3.2189    8.0948   -6.5673 H   0  0  0  0  0  0  0  0  0  0  0  0
   -4.4517    8.2846   -4.7761 H   0  0  0  0  0  0  0  0  0  0  0  0
   -5.6407    9.3845   -5.6705 H   0  0  0  0  0  0  0  0  0  0  0  0
   -5.8469    6.4702   -6.1529 H   0  0  0  0  0  0  0  0  0  0  0  0
   -6.3730    7.1451   -4.5235 H   0  0  0  0  0  0  0  0  0  0  0  0
   -7.4798    8.7925   -6.5510 H   0  0  0  0  0  0  0  0  0  0  0  0
   -7.8147    7.0554   -6.9706 H   0  0  0  0  0  0  0  0  0  0  0  0
   -9.6490    7.7283   -5.6371 H   0  0  0  0  0  0  0  0  0  0  0  0
   -8.5764    6.7878   -4.5395 H   0  0  0  0  0  0  0  0  0  0  0  0
   -7.8660    8.7640   -3.4660 H   0  0  0  0  0  0  0  0  0  0  0  0
   -8.2890    9.7260   -4.7280 H   0  0  0  0  0  0  0  0  0  0  0  0
   -9.4690    9.0860   -3.7610 H   0  0  0  0  0  0  0  0  0  0  0  0
   -5.0800    7.8990   -8.7760 H   0  0  0  0  0  0  0  0  0  0  0  0
   -4.5394    4.4902   -9.1099 H   0  0  0  0  0  0  0  0  0  0  0  0
   -5.3898    6.0067   -9.6811 H   0  0  0  0  0  0  0  0  0  0  0  0
   -3.4327    6.7167  -10.8742 H   0  0  0  0  0  0  0  0  0  0  0  0
   -2.5110    5.2739  -10.2462 H   0  0  0  0  0  0  0  0  0  0  0  0
   -3.2351    3.9953  -11.9160 H   0  0  0  0  0  0  0  0  0  0  0  0
   -4.9514    4.4423  -11.5722 H   0  0  0  0  0  0  0  0  0  0  0  0
   -2.9925    5.6373  -13.5257 H   0  0  0  0  0  0  0  0  0  0  0  0
   -4.7710    5.2723  -13.6889 H   0  0  0  0  0  0  0  0  0  0  0  0
   -3.9185    7.4197  -11.7841 H   0  0  0  0  0  0  0  0  0  0  0  0
   -3.8818    7.7395  -13.5821 H   0  0  0  0  0  0  0  0  0  0  0  0
   -6.3190    6.8710  -13.4090 H   0  0  0  0  0  0  0  0  0  0  0  0
   -8.0981    8.9777  -12.5187 H   0  0  0  0  0  0  0  0  0  0  0  0
  -10.2837    6.3655  -11.4395 H   0  0  0  0  0  0  0  0  0  0  0  0
   -6.7755    4.7852  -10.8134 H   0  0  0  0  0  0  0  0  0  0  0  0
   -9.4020   -0.2870  -12.6450 H   0  0  0  0  0  0  0  0  0  0  0  0
   -8.2940    0.2490  -11.4180 H   0  0  0  0  0  0  0  0  0  0  0  0
  -12.7739    2.8568  -12.3366 H   0  0  0  0  0  0  0  0  0  0  0  0
   -7.9844    6.4182   -9.4902 H   0  0  0  0  0  0  0  0  0  0  0  0
   -9.5100    7.5640   -8.2780 H   0  0  0  0  0  0  0  0  0  0  0  0
   -7.8131    8.9179   -9.7700 H   0  0  0  0  0  0  0  0  0  0  0  0
   -9.3890   10.0580  -10.7410 H   0  0  0  0  0  0  0  0  0  0  0  0
    4.7600    7.5340   -7.9780 H   0  0  0  0  0  0  0  0  0  0  0  0
    4.6970    6.1480   -8.9620 H   0  0  0  0  0  0  0  0  0  0  0  0
  1  2  1  0
  2  3  2  0
  2  4  1  0
  4  5  1  0
  5  6  1  0
  6  7  1  0
  7  8  1  0
  8  9  1  0
  9 10  1  0
 10 11  2  0
 10 12  1  0
 12 13  1  0
 13 14  1  0
 14 15  1  0
 15 16  1  0
 16 17  1  0
 17 18  1  0
 17 19  2  0
 12 20  1  0
 20 21  1  0
 21 22  2  0
 21 23  1  0
 23 24  1  0
 24 25  1  0
 25 26  1  0
 26 27  1  0
 27 28  1  0
 28 29  1  0
 29 30  2  0
 29 31  1  0
 31 32  1  0
 32 33  1  0
 33 34  1  0
 34 35  1  0
 35 36  1  0
 31 37  1  0
 37 38  1  0
 38 39  2  0
 38 40  1  0
 40 41  1  0
 41 42  1  0
 42 43  1  0
 43 44  1  0
 44 45  1  0
 45 46  1  0
 46 47  2  0
 46 48  1  0
 48 49  1  0
 49 50  1  0
 50 51  1  0
 51 52  1  0
 52 53  2  0
 53 54  1  0
 54 55  2  0
 55 56  1  0
 55 57  1  0
 57 58  2  0
 58 59  1  0
 59 60  2  0
 50 61  1  0
 61 62  1  0
 61 63  1  0
 63 64  1  0
  8 65  1  0
 65 66  1  0
 65 67  2  0
 63 48  1  0
 60 51  1  0
 60 54  1  0
  1 68  1  0
  1 69  1  0
  3 70  1  0
  3 71  1  0
  4 72  1  0
  5 73  1  0
  5 74  1  0
  6 75  1  0
  6 76  1  0
  7 77  1  0
  7 78  1  0
  8 79  1  1
  9 80  1  0
 12 81  1  6
 13 82  1  0
 13 83  1  0
 14 84  1  0
 14 85  1  0
 15 86  1  0
 15 87  1  0
 16 88  1  0
 18 89  1  0
 18 90  1  0
 19 91  1  0
 19 92  1  0
 20 93  1  0
 23 94  1  0
 23 95  1  0
 24 96  1  0
 24 97  1  0
 25 98  1  0
 25 99  1  0
 26100  1  0
 26101  1  0
 27102  1  0
 27103  1  0
 28104  1  0
 31105  1  1
 32106  1  0
 32107  1  0
 33108  1  0
 33109  1  0
 34110  1  0
 34111  1  0
 35112  1  0
 35113  1  0
 36114  1  0
 36115  1  0
 36116  1  0
 37117  1  0
 40118  1  0
 40119  1  0
 41120  1  0
 41121  1  0
 42122  1  0
 42123  1  0
 43124  1  0
 43125  1  0
 44126  1  0
 44127  1  0
 45128  1  0
 48129  1  6
 50130  1  6
 52131  1  0
 56132  1  0
 56133  1  0
 58134  1  0
 61135  1  1
 62136  1  0
 63137  1  1
 64138  1  0
 66139  1  0
 66140  1  0
M  CHG  3   3   1  19   1  36   1
M  END
>  <meeko>  (7) 
{"is_sidechain": [false], "free_energy": -6.324, "intermolecular_energy": -19.595, "internal_energy": -6.245}

$$$$
3ag9_ligand
     RDKit          3D

140142  0  0  0  0  0  0  0  0999 V2000
   -4.8250    2.8840  -10.5820 N   0  0  0  0  0  0  0  0  0  0  0  0
   -4.5120    2.8170  -11.8800 C   0  0  0  0  0  0  0  0  0  0  0  0
   -5.3420    2.1730  -12.7030 N   0  0  0  0  0  0  0  0  0  0  0  0
   -3.3760    3.3950  -12.3180 N   0  0  0  0  0  0  0  0  0  0  0  0
   -2.9530    3.4010  -13.7240 C   0  0  0  0  0  0  0  0  0  0  0  0
   -1.4620    3.0910  -13.8910 C   0  0  0  0  0  0  0  0  0  0  0  0
   -0.7550    2.7960  -12.5610 C   0  0  0  0  0  0  0  0  0  0  0  0
    0.7780    2.9290  -12.6450 C   0  0  1  0  0  0  0  0  0  0  0  0
    1.2810    3.7370  -11.5350 N   0  0  0  0  0  0  0  0  0  0  0  0
    1.5640    5.0750  -11.7590 C   0  0  0  0  0  0  0  0  0  0  0  0
    1.4510    5.6000  -12.8620 O   0  0  0  0  0  0  0  0  0  0  0  0
    1.9960    5.8410  -10.4940 C   0  0  1  0  0  0  0  0  0  0  0  0
    3.0170    6.9400  -10.8320 C   0  0  0  0  0  0  0  0  0  0  0  0
    4.2180    7.0320   -9.8790 C   0  0  0  0  0  0  0  0  0  0  0  0
    5.1180    8.2500  -10.0820 C   0  0  0  0  0  0  0  0  0  0  0  0
    4.3220    9.4570  -10.3470 N   0  0  0  0  0  0  0  0  0  0  0  0
    4.5870   10.6630   -9.8150 C   0  0  0  0  0  0  0  0  0  0  0  0
    3.8320   11.7090  -10.1670 N   0  0  0  0  0  0  0  0  0  0  0  0
    5.5760   10.8620   -8.9440 N   0  0  0  0  0  0  0  0  0  0  0  0
    0.7910    6.4320   -9.9200 N   0  0  0  0  0  0  0  0  0  0  0  0
    0.5180    6.3400   -8.5720 C   0  0  0  0  0  0  0  0  0  0  0  0
    1.2380    5.7190   -7.7960 O   0  0  0  0  0  0  0  0  0  0  0  0
   -0.7680    7.0520   -8.1830 C   0  0  0  0  0  0  0  0  0  0  0  0
   -0.6540    8.5730   -8.2780 C   0  0  0  0  0  0  0  0  0  0  0  0
    0.5390    9.1520   -7.5050 C   0  0  0  0  0  0  0  0  0  0  0  0
    1.0550   10.4800   -8.0730 C   0  0  0  0  0  0  0  0  0  0  0  0
    2.0080   11.2080   -7.1220 C   0  0  0  0  0  0  0  0  0  0  0  0
    2.2940   10.4500   -5.9180 N   0  0  0  0  0  0  0  0  0  0  0  0
    3.5890   10.2210   -5.5040 C   0  0  0  0  0  0  0  0  0  0  0  0
    4.5850   10.4830   -6.1880 O   0  0  0  0  0  0  0  0  0  0  0  0
    3.7170    9.5060   -4.1440 C   0  0  1  0  0  0  0  0  0  0  0  0
    5.0610    9.8750   -3.4770 C   0  0  0  0  0  0  0  0  0  0  0  0
    5.0610   11.1280   -2.5840 C   0  0  0  0  0  0  0  0  0  0  0  0
    5.3120   10.8690   -1.0930 C   0  0  0  0  0  0  0  0  0  0  0  0
    4.0400   10.9910   -0.2610 C   0  0  0  0  0  0  0  0  0  0  0  0
    3.5060    9.6420    0.0490 N   0  0  0  0  0  0  0  0  0  0  0  0
    2.5420    9.8340   -3.3410 N   0  0  0  0  0  0  0  0  0  0  0  0
    1.5310    8.9010   -3.1810 C   0  0  0  0  0  0  0  0  0  0  0  0
    1.6290    7.7470   -3.5760 O   0  0  0  0  0  0  0  0  0  0  0  0
    0.3140    9.4670   -2.4700 C   0  0  0  0  0  0  0  0  0  0  0  0
   -0.2710   10.7090   -3.1390 C   0  0  0  0  0  0  0  0  0  0  0  0
   -1.0110   10.3950   -4.4440 C   0  0  0  0  0  0  0  0  0  0  0  0
   -1.2210   11.6680   -5.2720 C   0  0  0  0  0  0  0  0  0  0  0  0
   -2.1880   11.4670   -6.4390 C   0  0  0  0  0  0  0  0  0  0  0  0
   -3.2300   10.4960   -6.1660 N   0  0  0  0  0  0  0  0  0  0  0  0
   -4.0220    9.9860   -7.1760 C   0  0  0  0  0  0  0  0  0  0  0  0
   -3.8330   10.2150   -8.3660 O   0  0  0  0  0  0  0  0  0  0  0  0
   -5.1180    9.0300   -6.6940 C   0  0  1  0  0  0  0  0  0  0  0  0
   -5.8170    8.4340   -7.7970 O   0  0  0  0  0  0  0  0  0  0  0  0
   -5.4210    7.0530   -7.8940 C   0  0  1  0  0  0  0  0  0  0  0  0
   -5.1370    6.7110   -9.2760 N   0  0  0  0  0  0  0  0  0  0  0  0
   -3.9290    6.4060   -9.8380 C   0  0  0  0  0  0  0  0  0  0  0  0
   -4.0320    6.1820  -11.1340 N   0  0  0  0  0  0  0  0  0  0  0  0
   -5.3720    6.3470  -11.4170 C   0  0  0  0  0  0  0  0  0  0  0  0
   -6.1120    6.2450  -12.6060 C   0  0  0  0  0  0  0  0  0  0  0  0
   -5.5410    5.9510  -13.8350 N   0  0  0  0  0  0  0  0  0  0  0  0
   -7.4510    6.4310  -12.5480 N   0  0  0  0  0  0  0  0  0  0  0  0
   -8.0090    6.7300  -11.3560 C   0  0  0  0  0  0  0  0  0  0  0  0
   -7.4070    6.8560  -10.1500 N   0  0  0  0  0  0  0  0  0  0  0  0
   -6.0800    6.6580  -10.2690 C   0  0  0  0  0  0  0  0  0  0  0  0
   -4.2120    6.8570   -6.9750 C   0  0  2  0  0  0  0  0  0  0  0  0
   -4.1330    5.5640   -6.3690 O   0  0  0  0  0  0  0  0  0  0  0  0
   -4.4570    7.9070   -5.9070 C   0  0  2  0  0  0  0  0  0  0  0  0
   -5.3550    7.3950   -4.9100 O   0  0  0  0  0  0  0  0  0  0  0  0
    1.4350    1.5220  -12.5650 C   0  0  0  0  0  0  0  0  0  0  0  0
    2.2610    1.2000  -13.6060 N   0  0  0  0  0  0  0  0  0  0  0  0
    1.2210    0.7040  -11.6660 O   0  0  0  0  0  0  0  0  0  0  0  0
   -4.2410    3.3600   -9.9080 H   0  0  0  0  0  0  0  0  0  0  0  0
   -5.6750    2.4620  -10.2260 H   0  0  0  0  0  0  0  0  0  0  0  0
   -5.1590    2.0940  -13.6940 H   0  0  0  0  0  0  0  0  0  0  0  0
   -6.1970    1.7460  -12.3690 H   0  0  0  0  0  0  0  0  0  0  0  0
   -2.8140    3.8770  -11.6280 H   0  0  0  0  0  0  0  0  0  0  0  0
   -3.5339    2.6431  -14.2701 H   0  0  0  0  0  0  0  0  0  0  0  0
   -3.1302    4.4113  -14.1213 H   0  0  0  0  0  0  0  0  0  0  0  0
   -1.3583    2.2125  -14.5448 H   0  0  0  0  0  0  0  0  0  0  0  0
   -0.9879    3.9846  -14.3230 H   0  0  0  0  0  0  0  0  0  0  0  0
   -1.1261    3.5023  -11.8038 H   0  0  0  0  0  0  0  0  0  0  0  0
   -0.9782    1.7517  -12.2971 H   0  0  0  0  0  0  0  0  0  0  0  0
    1.0300    3.4132  -13.6000 H   0  0  0  0  0  0  0  0  0  0  0  0
    0.8890    3.5700  -10.6070 H   0  0  0  0  0  0  0  0  0  0  0  0
    2.4816    5.1571   -9.7823 H   0  0  0  0  0  0  0  0  0  0  0  0
    3.4003    6.7485  -11.8451 H   0  0  0  0  0  0  0  0  0  0  0  0
    2.4795    7.8952  -10.7390 H   0  0  0  0  0  0  0  0  0  0  0  0
    3.8335    7.0610   -8.8488 H   0  0  0  0  0  0  0  0  0  0  0  0
    4.8432    6.1520  -10.0902 H   0  0  0  0  0  0  0  0  0  0  0  0
    5.7191    8.4080   -9.1744 H   0  0  0  0  0  0  0  0  0  0  0  0
    5.7690    8.0632  -10.9488 H   0  0  0  0  0  0  0  0  0  0  0  0
    3.5360    9.3960  -10.9810 H   0  0  0  0  0  0  0  0  0  0  0  0
    3.0740   11.6260  -10.8340 H   0  0  0  0  0  0  0  0  0  0  0  0
    4.0050   12.6330   -9.7910 H   0  0  0  0  0  0  0  0  0  0  0  0
    5.7760   11.7710   -8.5550 H   0  0  0  0  0  0  0  0  0  0  0  0
    6.1680   10.0970   -8.6020 H   0  0  0  0  0  0  0  0  0  0  0  0
    0.0250    6.6520  -10.5490 H   0  0  0  0  0  0  0  0  0  0  0  0
   -1.5723    6.7171   -8.8545 H   0  0  0  0  0  0  0  0  0  0  0  0
   -0.9818    6.8005   -7.1337 H   0  0  0  0  0  0  0  0  0  0  0  0
   -0.5474    8.8477   -9.3378 H   0  0  0  0  0  0  0  0  0  0  0  0
   -1.5645    8.9924   -7.8251 H   0  0  0  0  0  0  0  0  0  0  0  0
    0.2303    9.3168   -6.4621 H   0  0  0  0  0  0  0  0  0  0  0  0
    1.3604    8.4252   -7.5894 H   0  0  0  0  0  0  0  0  0  0  0  0
    1.5872   10.2755   -9.0137 H   0  0  0  0  0  0  0  0  0  0  0  0
    0.1829   11.1324   -8.2275 H   0  0  0  0  0  0  0  0  0  0  0  0
    2.9540   11.3973   -7.6504 H   0  0  0  0  0  0  0  0  0  0  0  0
    1.5163   12.1426   -6.8142 H   0  0  0  0  0  0  0  0  0  0  0  0
    1.5620   10.3880   -5.2180 H   0  0  0  0  0  0  0  0  0  0  0  0
    3.7379    8.4125   -4.2613 H   0  0  0  0  0  0  0  0  0  0  0  0
    5.3718    9.0218   -2.8562 H   0  0  0  0  0  0  0  0  0  0  0  0
    5.7445   10.1079   -4.3068 H   0  0  0  0  0  0  0  0  0  0  0  0
    5.8473   11.8054   -2.9486 H   0  0  0  0  0  0  0  0  0  0  0  0
    4.0482   11.5516   -2.6534 H   0  0  0  0  0  0  0  0  0  0  0  0
    5.7162    9.8529   -0.9739 H   0  0  0  0  0  0  0  0  0  0  0  0
    6.0219   11.6291   -0.7348 H   0  0  0  0  0  0  0  0  0  0  0  0
    4.2676   11.5174    0.6777 H   0  0  0  0  0  0  0  0  0  0  0  0
    3.2876   11.5551   -0.8317 H   0  0  0  0  0  0  0  0  0  0  0  0
    3.1990    9.5320    1.0380 H   0  0  0  0  0  0  0  0  0  0  0  0
    2.6750    9.4300   -0.5150 H   0  0  0  0  0  0  0  0  0  0  0  0
    4.1960    8.9050   -0.1330 H   0  0  0  0  0  0  0  0  0  0  0  0
    2.2560   10.8070   -3.3120 H   0  0  0  0  0  0  0  0  0  0  0  0
   -0.4637    8.6896   -2.4423 H   0  0  0  0  0  0  0  0  0  0  0  0
    0.6434    9.7705   -1.4653 H   0  0  0  0  0  0  0  0  0  0  0  0
   -0.9770   11.1831   -2.4413 H   0  0  0  0  0  0  0  0  0  0  0  0
    0.5688   11.3739   -3.3892 H   0  0  0  0  0  0  0  0  0  0  0  0
   -0.4187    9.6772   -5.0305 H   0  0  0  0  0  0  0  0  0  0  0  0
   -1.9948    9.9692   -4.1972 H   0  0  0  0  0  0  0  0  0  0  0  0
   -1.6236   12.4521   -4.6139 H   0  0  0  0  0  0  0  0  0  0  0  0
   -0.2461   11.9498   -5.6964 H   0  0  0  0  0  0  0  0  0  0  0  0
   -2.6630   12.4324   -6.6679 H   0  0  0  0  0  0  0  0  0  0  0  0
   -1.5993   11.0810   -7.2843 H   0  0  0  0  0  0  0  0  0  0  0  0
   -3.5850   10.4570   -5.2170 H   0  0  0  0  0  0  0  0  0  0  0  0
   -5.8330    9.6008   -6.0832 H   0  0  0  0  0  0  0  0  0  0  0  0
   -6.2268    6.3773   -7.5713 H   0  0  0  0  0  0  0  0  0  0  0  0
   -2.9843    6.3536   -9.2770 H   0  0  0  0  0  0  0  0  0  0  0  0
   -4.5510    6.1590  -13.8960 H   0  0  0  0  0  0  0  0  0  0  0  0
   -5.8760    5.0870  -14.2370 H   0  0  0  0  0  0  0  0  0  0  0  0
   -9.0968    6.8929  -11.3657 H   0  0  0  0  0  0  0  0  0  0  0  0
   -3.2671    6.9458   -7.5312 H   0  0  0  0  0  0  0  0  0  0  0  0
   -3.8270    5.7110   -5.4450 H   0  0  0  0  0  0  0  0  0  0  0  0
   -3.5477    8.2216   -5.3739 H   0  0  0  0  0  0  0  0  0  0  0  0
   -4.9420    6.5580   -4.6030 H   0  0  0  0  0  0  0  0  0  0  0  0
    2.7730    1.9410  -14.0760 H   0  0  0  0  0  0  0  0  0  0  0  0
    2.7860    0.3380  -13.5080 H   0  0  0  0  0  0  0  0  0  0  0  0
  1  2  1  0
  2  3  2  0
  2  4  1  0
  4  5  1  0
  5  6  1  0
  6  7  1  0
  7  8  1  0
  8  9  1  0
  9 10  1  0
 10 11  2  0
 10 12  1  0
 12 13  1  0
 13 14  1  0
 14 15  1  0
 15 16  1  0
 16 17  1  0
 17 18  1  0
 17 19  2  0
 12 20  1  0
 20 21  1  0
 21 22  2  0
 21 23  1  0
 23 24  1  0
 24 25  1  0
 25 26  1  0
 26 27  1  0
 27 28  1  0
 28 29  1  0
 29 30  2  0
 29 31  1  0
 31 32  1  0
 32 33  1  0
 33 34  1  0
 34 35  1  0
 35 36  1  0
 31 37  1  0
 37 38  1  0
 38 39  2  0
 38 40  1  0
 40 41  1  0
 41 42  1  0
 42 43  1  0
 43 44  1  0
 44 45  1  0
 45 46  1  0
 46 47  2  0
 46 48  1  0
 48 49  1  0
 49 50  1  0
 50 51  1  0
 51 52  1  0
 52 53  2  0
 53 54  1  0
 54 55  2  0
 55 56  1  0
 55 57  1  0
 57 58  2  0
 58 59  1  0
 59 60  2  0
 50 61  1  0
 61 62  1  0
 61 63  1  0
 63 64  1  0
  8 65  1  0
 65 66  1  0
 65 67  2  0
 63 48  1  0
 60 51  1  0
 60 54  1  0
  1 68  1  0
  1 69  1  0
  3 70  1  0
  3 71  1  0
  4 72  1  0
  5 73  1  0
  5 74  1  0
  6 75  1  0
  6 76  1  0
  7 77  1  0
  7 78  1  0
  8 79  1  6
  9 80  1  0
 12 81  1  1
 13 82  1  0
 13 83  1  0
 14 84  1  0
 14 85  1  0
 15 86  1  0
 15 87  1  0
 16 88  1  0
 18 89  1  0
 18 90  1  0
 19 91  1  0
 19 92  1  0
 20 93  1  0
 23 94  1  0
 23 95  1  0
 24 96  1  0
 24 97  1  0
 25 98  1  0
 25 99  1  0
 26100  1  0
 26101  1  0
 27102  1  0
 27103  1  0
 28104  1  0
 31105  1  6
 32106  1  0
 32107  1  0
 33108  1  0
 33109  1  0
 34110  1  0
 34111  1  0
 35112  1  0
 35113  1  0
 36114  1  0
 36115  1  0
 36116  1  0
 37117  1  0
 40118  1  0
 40119  1  0
 41120  1  0
 41121  1  0
 42122  1  0
 42123  1  0
 43124  1  0
 43125  1  0
 44126  1  0
 44127  1  0
 45128  1  0
 48129  1  1
 50130  1  1
 52131  1  0
 56132  1  0
 56133  1  0
 58134  1  0
 61135  1  6
 62136  1  0
 63137  1  1
 64138  1  0
 66139  1  0
 66140  1  0
M  CHG  3   3   1  19   1  36   1
M  END
>  <meeko>  (8) 
{"is_sidechain": [false], "free_energy": -6.184, "intermolecular_energy": -18.695, "internal_energy": -6.726}

$$$$
3ag9_ligand
     RDKit          3D

140142  0  0  0  0  0  0  0  0999 V2000
    0.8700   10.3510   -9.3810 N   0  0  0  0  0  0  0  0  0  0  0  0
   -0.0370    9.8530   -8.5360 C   0  0  0  0  0  0  0  0  0  0  0  0
   -0.9990    9.0670   -9.0240 N   0  0  0  0  0  0  0  0  0  0  0  0
    0.0430   10.1560   -7.2250 N   0  0  0  0  0  0  0  0  0  0  0  0
   -0.8860    9.6420   -6.2100 C   0  0  0  0  0  0  0  0  0  0  0  0
   -1.5030   10.7560   -5.3590 C   0  0  0  0  0  0  0  0  0  0  0  0
   -0.5830   11.2290   -4.2260 C   0  0  0  0  0  0  0  0  0  0  0  0
    0.1210   10.0720   -3.4920 C   0  0  1  0  0  0  0  0  0  0  0  0
    1.5080    9.9500   -3.9420 N   0  0  0  0  0  0  0  0  0  0  0  0
    2.0140    8.6880   -4.2050 C   0  0  0  0  0  0  0  0  0  0  0  0
    1.3610    7.6620   -4.0340 O   0  0  0  0  0  0  0  0  0  0  0  0
    3.4510    8.6960   -4.7610 C   0  0  1  0  0  0  0  0  0  0  0  0
    4.4680    8.3010   -3.6770 C   0  0  0  0  0  0  0  0  0  0  0  0
    5.5580    9.3450   -3.3910 C   0  0  0  0  0  0  0  0  0  0  0  0
    5.1920   10.3960   -2.3440 C   0  0  0  0  0  0  0  0  0  0  0  0
    4.8790    9.7680   -1.0520 N   0  0  0  0  0  0  0  0  0  0  0  0
    4.0580   10.3070   -0.1340 C   0  0  0  0  0  0  0  0  0  0  0  0
    3.7970    9.6240    0.9860 N   0  0  0  0  0  0  0  0  0  0  0  0
    3.4920   11.5040   -0.2910 N   0  0  0  0  0  0  0  0  0  0  0  0
    3.4890    7.7370   -5.8610 N   0  0  0  0  0  0  0  0  0  0  0  0
    3.2890    8.1330   -7.1660 C   0  0  0  0  0  0  0  0  0  0  0  0
    3.0200    9.2930   -7.4680 O   0  0  0  0  0  0  0  0  0  0  0  0
    3.4040    6.9830   -8.1540 C   0  0  0  0  0  0  0  0  0  0  0  0
    2.7620    7.2990   -9.5050 C   0  0  0  0  0  0  0  0  0  0  0  0
    1.4940    6.4830   -9.7910 C   0  0  0  0  0  0  0  0  0  0  0  0
    1.4840    5.8270  -11.1780 C   0  0  0  0  0  0  0  0  0  0  0  0
    1.4600    4.2980  -11.1170 C   0  0  0  0  0  0  0  0  0  0  0  0
    1.8200    3.6760  -12.3780 N   0  0  0  0  0  0  0  0  0  0  0  0
    1.3870    2.4080  -12.7030 C   0  0  0  0  0  0  0  0  0  0  0  0
    0.8210    1.6500  -11.9060 O   0  0  0  0  0  0  0  0  0  0  0  0
    1.7530    1.9430  -14.1270 C   0  0  1  0  0  0  0  0  0  0  0  0
    2.5650    0.6300  -14.0620 C   0  0  0  0  0  0  0  0  0  0  0  0
    1.9000   -0.6170  -14.6680 C   0  0  0  0  0  0  0  0  0  0  0  0
    2.6770   -1.9270  -14.4870 C   0  0  0  0  0  0  0  0  0  0  0  0
    2.5240   -2.5030  -13.0830 C   0  0  0  0  0  0  0  0  0  0  0  0
    3.8030   -2.3810  -12.3420 N   0  0  0  0  0  0  0  0  0  0  0  0
    0.5230    1.8470  -14.9080 N   0  0  0  0  0  0  0  0  0  0  0  0
    0.0850    2.9330  -15.6470 C   0  0  0  0  0  0  0  0  0  0  0  0
    0.7540    3.9480  -15.7870 O   0  0  0  0  0  0  0  0  0  0  0  0
   -1.2920    2.7180  -16.2500 C   0  0  0  0  0  0  0  0  0  0  0  0
   -2.1790    1.7700  -15.4460 C   0  0  0  0  0  0  0  0  0  0  0  0
   -3.1460    2.5030  -14.5090 C   0  0  0  0  0  0  0  0  0  0  0  0
   -2.6300    2.4790  -13.0660 C   0  0  0  0  0  0  0  0  0  0  0  0
   -1.9750    3.7950  -12.6450 C   0  0  0  0  0  0  0  0  0  0  0  0
   -2.8400    4.9480  -12.8050 N   0  0  0  0  0  0  0  0  0  0  0  0
   -2.4270    6.0680  -13.5000 C   0  0  0  0  0  0  0  0  0  0  0  0
   -1.3710    6.1270  -14.1220 O   0  0  0  0  0  0  0  0  0  0  0  0
   -3.4410    7.2160  -13.5050 C   0  0  1  0  0  0  0  0  0  0  0  0
   -4.4390    7.0410  -12.4900 O   0  0  0  0  0  0  0  0  0  0  0  0
   -4.1930    7.9930  -11.4380 C   0  0  1  0  0  0  0  0  0  0  0  0
   -4.2930    7.3450  -10.1430 N   0  0  0  0  0  0  0  0  0  0  0  0
   -4.3540    6.0060   -9.8730 C   0  0  0  0  0  0  0  0  0  0  0  0
   -4.4800    5.7700   -8.5820 N   0  0  0  0  0  0  0  0  0  0  0  0
   -4.4970    7.0180   -7.9930 C   0  0  0  0  0  0  0  0  0  0  0  0
   -4.6050    7.4380   -6.6570 C   0  0  0  0  0  0  0  0  0  0  0  0
   -4.7560    6.5620   -5.5940 N   0  0  0  0  0  0  0  0  0  0  0  0
   -4.5480    8.7640   -6.3940 N   0  0  0  0  0  0  0  0  0  0  0  0
   -4.4140    9.6210   -7.4270 C   0  0  0  0  0  0  0  0  0  0  0  0
   -4.3010    9.3410   -8.7470 N   0  0  0  0  0  0  0  0  0  0  0  0
   -4.3610    8.0110   -8.9480 C   0  0  0  0  0  0  0  0  0  0  0  0
   -2.8110    8.6050  -11.6890 C   0  0  2  0  0  0  0  0  0  0  0  0
   -2.6880    9.9710  -11.2830 O   0  0  0  0  0  0  0  0  0  0  0  0
   -2.6960    8.5090  -13.1990 C   0  0  2  0  0  0  0  0  0  0  0  0
   -3.3530    9.6270  -13.8160 O   0  0  0  0  0  0  0  0  0  0  0  0
    0.1250   10.3430   -1.9610 C   0  0  0  0  0  0  0  0  0  0  0  0
   -0.8150    9.6580   -1.2410 N   0  0  0  0  0  0  0  0  0  0  0  0
    0.8750   11.1430   -1.3970 O   0  0  0  0  0  0  0  0  0  0  0  0
    1.6250   10.9500   -9.0750 H   0  0  0  0  0  0  0  0  0  0  0  0
    0.8370   10.1370  -10.3720 H   0  0  0  0  0  0  0  0  0  0  0  0
   -1.7090    8.6590   -8.4310 H   0  0  0  0  0  0  0  0  0  0  0  0
   -1.0500    8.8390  -10.0090 H   0  0  0  0  0  0  0  0  0  0  0  0
    0.8150   10.7450   -6.9390 H   0  0  0  0  0  0  0  0  0  0  0  0
   -1.6955    9.0966   -6.7172 H   0  0  0  0  0  0  0  0  0  0  0  0
   -0.3147    8.9859   -5.5369 H   0  0  0  0  0  0  0  0  0  0  0  0
   -1.7235   11.6135   -6.0117 H   0  0  0  0  0  0  0  0  0  0  0  0
   -2.4121   10.3473   -4.8937 H   0  0  0  0  0  0  0  0  0  0  0  0
    0.1850   11.8909   -4.6527 H   0  0  0  0  0  0  0  0  0  0  0  0
   -1.2131   11.7481   -3.4888 H   0  0  0  0  0  0  0  0  0  0  0  0
   -0.4238    9.1424   -3.7136 H   0  0  0  0  0  0  0  0  0  0  0  0
    1.8640   10.6560   -4.5870 H   0  0  0  0  0  0  0  0  0  0  0  0
    3.7206    9.7058   -5.1040 H   0  0  0  0  0  0  0  0  0  0  0  0
    3.9164    8.1202   -2.7426 H   0  0  0  0  0  0  0  0  0  0  0  0
    4.9903    7.4111   -4.0583 H   0  0  0  0  0  0  0  0  0  0  0  0
    6.4551    8.8135   -3.0408 H   0  0  0  0  0  0  0  0  0  0  0  0
    5.7118    9.8922   -4.3327 H   0  0  0  0  0  0  0  0  0  0  0  0
    6.0405   11.0837   -2.2132 H   0  0  0  0  0  0  0  0  0  0  0  0
    4.3027   10.9418   -2.6922 H   0  0  0  0  0  0  0  0  0  0  0  0
    5.2830    8.8660   -0.8360 H   0  0  0  0  0  0  0  0  0  0  0  0
    4.1850    8.7050    1.1590 H   0  0  0  0  0  0  0  0  0  0  0  0
    3.1800    9.9960    1.6970 H   0  0  0  0  0  0  0  0  0  0  0  0
    2.8700   11.8990    0.3970 H   0  0  0  0  0  0  0  0  0  0  0  0
    3.6800   12.0960   -1.1070 H   0  0  0  0  0  0  0  0  0  0  0  0
    3.3730    6.7540   -5.6370 H   0  0  0  0  0  0  0  0  0  0  0  0
    4.4696    6.7618   -8.3140 H   0  0  0  0  0  0  0  0  0  0  0  0
    2.8695    6.1223   -7.7255 H   0  0  0  0  0  0  0  0  0  0  0  0
    2.4993    8.3670   -9.5234 H   0  0  0  0  0  0  0  0  0  0  0  0
    3.4965    7.0342  -10.2799 H   0  0  0  0  0  0  0  0  0  0  0  0
    1.4115    5.6915   -9.0316 H   0  0  0  0  0  0  0  0  0  0  0  0
    0.6464    7.1835   -9.7600 H   0  0  0  0  0  0  0  0  0  0  0  0
    0.5912    6.1700  -11.7214 H   0  0  0  0  0  0  0  0  0  0  0  0
    2.4135    6.1211  -11.6874 H   0  0  0  0  0  0  0  0  0  0  0  0
    2.1716    3.9664  -10.3465 H   0  0  0  0  0  0  0  0  0  0  0  0
    0.4296    3.9935  -10.8814 H   0  0  0  0  0  0  0  0  0  0  0  0
    2.0900    4.2870  -13.1420 H   0  0  0  0  0  0  0  0  0  0  0  0
    2.4068    2.6672  -14.6350 H   0  0  0  0  0  0  0  0  0  0  0  0
    3.5127    0.7961  -14.5951 H   0  0  0  0  0  0  0  0  0  0  0  0
    2.6772    0.4091  -12.9903 H   0  0  0  0  0  0  0  0  0  0  0  0
    0.9135   -0.7390  -14.1969 H   0  0  0  0  0  0  0  0  0  0  0  0
    1.8513   -0.4393  -15.7525 H   0  0  0  0  0  0  0  0  0  0  0  0
    2.3030   -2.6631  -15.2138 H   0  0  0  0  0  0  0  0  0  0  0  0
    3.7435   -1.7099  -14.6467 H   0  0  0  0  0  0  0  0  0  0  0  0
    1.7382   -1.9510  -12.5465 H   0  0  0  0  0  0  0  0  0  0  0  0
    2.2496   -3.5657  -13.1568 H   0  0  0  0  0  0  0  0  0  0  0  0
    3.7810   -2.8160  -11.3960 H   0  0  0  0  0  0  0  0  0  0  0  0
    4.5690   -2.8540  -12.8370 H   0  0  0  0  0  0  0  0  0  0  0  0
    4.0800   -1.4010  -12.2140 H   0  0  0  0  0  0  0  0  0  0  0  0
   -0.2000    1.2270  -14.5590 H   0  0  0  0  0  0  0  0  0  0  0  0
   -1.7973    3.6929  -16.3156 H   0  0  0  0  0  0  0  0  0  0  0  0
   -1.1398    2.2537  -17.2355 H   0  0  0  0  0  0  0  0  0  0  0  0
   -2.7663    1.1598  -16.1480 H   0  0  0  0  0  0  0  0  0  0  0  0
   -1.5178    1.1536  -14.8192 H   0  0  0  0  0  0  0  0  0  0  0  0
   -3.2454    3.5476  -14.8390 H   0  0  0  0  0  0  0  0  0  0  0  0
   -4.1216    1.9959  -14.5427 H   0  0  0  0  0  0  0  0  0  0  0  0
   -3.4772    2.2781  -12.3938 H   0  0  0  0  0  0  0  0  0  0  0  0
   -1.8620    1.6939  -13.0036 H   0  0  0  0  0  0  0  0  0  0  0  0
   -1.6890    3.7185  -11.5856 H   0  0  0  0  0  0  0  0  0  0  0  0
   -1.1057    3.9487  -13.3013 H   0  0  0  0  0  0  0  0  0  0  0  0
   -3.5920    5.0560  -12.1350 H   0  0  0  0  0  0  0  0  0  0  0  0
   -3.9322    7.2405  -14.4889 H   0  0  0  0  0  0  0  0  0  0  0  0
   -4.9444    8.7964  -11.4355 H   0  0  0  0  0  0  0  0  0  0  0  0
   -4.3040    5.2199  -10.6408 H   0  0  0  0  0  0  0  0  0  0  0  0
   -5.7180    6.3960   -5.3220 H   0  0  0  0  0  0  0  0  0  0  0  0
   -4.1250    5.7730   -5.6300 H   0  0  0  0  0  0  0  0  0  0  0  0
   -4.3939   10.6884   -7.1621 H   0  0  0  0  0  0  0  0  0  0  0  0
   -2.0311    8.0863  -11.1122 H   0  0  0  0  0  0  0  0  0  0  0  0
   -2.1590    9.9650  -10.4530 H   0  0  0  0  0  0  0  0  0  0  0  0
   -1.6599    8.5161  -13.5685 H   0  0  0  0  0  0  0  0  0  0  0  0
   -4.3060    9.3880  -13.8220 H   0  0  0  0  0  0  0  0  0  0  0  0
   -1.1110    8.7410   -1.5640 H   0  0  0  0  0  0  0  0  0  0  0  0
   -0.7480    9.7340   -0.2320 H   0  0  0  0  0  0  0  0  0  0  0  0
  1  2  1  0
  2  3  2  0
  2  4  1  0
  4  5  1  0
  5  6  1  0
  6  7  1  0
  7  8  1  0
  8  9  1  0
  9 10  1  0
 10 11  2  0
 10 12  1  0
 12 13  1  0
 13 14  1  0
 14 15  1  0
 15 16  1  0
 16 17  1  0
 17 18  1  0
 17 19  2  0
 12 20  1  0
 20 21  1  0
 21 22  2  0
 21 23  1  0
 23 24  1  0
 24 25  1  0
 25 26  1  0
 26 27  1  0
 27 28  1  0
 28 29  1  0
 29 30  2  0
 29 31  1  0
 31 32  1  0
 32 33  1  0
 33 34  1  0
 34 35  1  0
 35 36  1  0
 31 37  1  0
 37 38  1  0
 38 39  2  0
 38 40  1  0
 40 41  1  0
 41 42  1  0
 42 43  1  0
 43 44  1  0
 44 45  1  0
 45 46  1  0
 46 47  2  0
 46 48  1  0
 48 49  1  0
 49 50  1  0
 50 51  1  0
 51 52  1  0
 52 53  2  0
 53 54  1  0
 54 55  2  0
 55 56  1  0
 55 57  1  0
 57 58  2  0
 58 59  1  0
 59 60  2  0
 50 61  1  0
 61 62  1  0
 61 63  1  0
 63 64  1  0
  8 65  1  0
 65 66  1  0
 65 67  2  0
 63 48  1  0
 60 51  1  0
 60 54  1  0
  1 68  1  0
  1 69  1  0
  3 70  1  0
  3 71  1  0
  4 72  1  0
  5 73  1  0
  5 74  1  0
  6 75  1  0
  6 76  1  0
  7 77  1  0
  7 78  1  0
  8 79  1  1
  9 80  1  0
 12 81  1  6
 13 82  1  0
 13 83  1  0
 14 84  1  0
 14 85  1  0
 15 86  1  0
 15 87  1  0
 16 88  1  0
 18 89  1  0
 18 90  1  0
 19 91  1  0
 19 92  1  0
 20 93  1  0
 23 94  1  0
 23 95  1  0
 24 96  1  0
 24 97  1  0
 25 98  1  0
 25 99  1  0
 26100  1  0
 26101  1  0
 27102  1  0
 27103  1  0
 28104  1  0
 31105  1  6
 32106  1  0
 32107  1  0
 33108  1  0
 33109  1  0
 34110  1  0
 34111  1  0
 35112  1  0
 35113  1  0
 36114  1  0
 36115  1  0
 36116  1  0
 37117  1  0
 40118  1  0
 40119  1  0
 41120  1  0
 41121  1  0
 42122  1  0
 42123  1  0
 43124  1  0
 43125  1  0
 44126  1  0
 44127  1  0
 45128  1  0
 48129  1  6
 50130  1  1
 52131  1  0
 56132  1  0
 56133  1  0
 58134  1  0
 61135  1  1
 62136  1  0
 63137  1  1
 64138  1  0
 66139  1  0
 66140  1  0
M  CHG  3   3   1  19   1  36   1
M  END
>  <meeko>  (9) 
{"is_sidechain": [false], "free_energy": -6.172, "intermolecular_energy": -19.007, "internal_energy": -6.379}

$$$$
