3gy4_ligand
     RDKit          3D

 20 20  0  0  0  0  0  0  0  0999 V2000
   -2.2570    2.1290   11.2730 N   0  0  0  0  0  0  0  0  0  0  0  0
   -3.4470    1.9900   11.8170 C   0  0  0  0  0  0  0  0  0  0  0  0
   -4.1260    0.8700   11.7030 N   0  0  0  0  0  0  0  0  0  0  0  0
   -4.0270    3.1070   12.5700 C   0  0  0  0  0  0  0  0  0  0  0  0
   -3.4460    4.3820   12.5160 C   0  0  0  0  0  0  0  0  0  0  0  0
   -3.9920    5.4420   13.2490 C   0  0  0  0  0  0  0  0  0  0  0  0
   -5.1470    5.2650   14.0110 C   0  0  0  0  0  0  0  0  0  0  0  0
   -5.6040    6.2860   14.8430 N   0  0  0  0  0  0  0  0  0  0  0  0
   -5.6960    3.9860   14.1030 C   0  0  0  0  0  0  0  0  0  0  0  0
   -5.1570    2.9180   13.3770 C   0  0  0  0  0  0  0  0  0  0  0  0
   -1.7700    3.0180   11.3510 H   0  0  0  0  0  0  0  0  0  0  0  0
   -1.8090    1.3950   10.7430 H   0  0  0  0  0  0  0  0  0  0  0  0
   -3.7770    0.0670   11.1990 H   0  0  0  0  0  0  0  0  0  0  0  0
   -5.0330    0.7830   12.1530 H   0  0  0  0  0  0  0  0  0  0  0  0
   -2.5550    4.5503   11.8933 H   0  0  0  0  0  0  0  0  0  0  0  0
   -3.5040    6.4275   13.2239 H   0  0  0  0  0  0  0  0  0  0  0  0
   -6.5360    6.1520   15.2240 H   0  0  0  0  0  0  0  0  0  0  0  0
   -4.9460    6.5960   15.5520 H   0  0  0  0  0  0  0  0  0  0  0  0
   -6.5649    3.8145   14.7554 H   0  0  0  0  0  0  0  0  0  0  0  0
   -5.6233    1.9237   13.4402 H   0  0  0  0  0  0  0  0  0  0  0  0
  1  2  1  0
  2  3  2  0
  2  4  1  0
  4  5  2  0
  5  6  1  0
  6  7  2  0
  7  8  1  0
  7  9  1  0
  9 10  2  0
 10  4  1  0
  1 11  1  0
  1 12  1  0
  3 13  1  0
  3 14  1  0
  5 15  1  0
  6 16  1  0
  8 17  1  0
  8 18  1  0
  9 19  1  0
 10 20  1  0
M  CHG  1   3   1
M  END
>  <meeko>  (1) 
{"is_sidechain": [false], "free_energy": -5.053, "intermolecular_energy": -5.496, "internal_energy": -0.046}

$$$$
3gy4_ligand
     RDKit          3D

 20 20  0  0  0  0  0  0  0  0999 V2000
   -4.5590    9.5760   12.1780 N   0  0  0  0  0  0  0  0  0  0  0  0
   -5.5340    8.8030   12.6050 C   0  0  0  0  0  0  0  0  0  0  0  0
   -6.7290    8.8390   12.0570 N   0  0  0  0  0  0  0  0  0  0  0  0
   -5.2820    7.8790   13.7160 C   0  0  0  0  0  0  0  0  0  0  0  0
   -5.6180    6.5220   13.6060 C   0  0  0  0  0  0  0  0  0  0  0  0
   -5.3910    5.6460   14.6730 C   0  0  0  0  0  0  0  0  0  0  0  0
   -4.7870    6.0920   15.8490 C   0  0  0  0  0  0  0  0  0  0  0  0
   -4.6900    5.2470   16.9540 N   0  0  0  0  0  0  0  0  0  0  0  0
   -4.4980    7.4510   15.9770 C   0  0  0  0  0  0  0  0  0  0  0  0
   -4.7230    8.3360   14.9170 C   0  0  0  0  0  0  0  0  0  0  0  0
   -3.6560    9.5490   12.6430 H   0  0  0  0  0  0  0  0  0  0  0  0
   -4.6740   10.2320   11.4180 H   0  0  0  0  0  0  0  0  0  0  0  0
   -6.9590    9.4540   11.2890 H   0  0  0  0  0  0  0  0  0  0  0  0
   -7.4560    8.2150   12.3920 H   0  0  0  0  0  0  0  0  0  0  0  0
   -6.0633    6.1435   12.6741 H   0  0  0  0  0  0  0  0  0  0  0  0
   -5.6926    4.5919   14.5836 H   0  0  0  0  0  0  0  0  0  0  0  0
   -5.5130    4.6800   17.1400 H   0  0  0  0  0  0  0  0  0  0  0  0
   -3.8340    4.7040   17.0110 H   0  0  0  0  0  0  0  0  0  0  0  0
   -4.0878    7.8317   16.9240 H   0  0  0  0  0  0  0  0  0  0  0  0
   -4.4592    9.3982   15.0271 H   0  0  0  0  0  0  0  0  0  0  0  0
  1  2  1  0
  2  3  2  0
  2  4  1  0
  4  5  2  0
  5  6  1  0
  6  7  2  0
  7  8  1  0
  7  9  1  0
  9 10  2  0
 10  4  1  0
  1 11  1  0
  1 12  1  0
  3 13  1  0
  3 14  1  0
  5 15  1  0
  6 16  1  0
  8 17  1  0
  8 18  1  0
  9 19  1  0
 10 20  1  0
M  CHG  1   3   1
M  END
>  <meeko>  (2) 
{"is_sidechain": [false], "free_energy": -4.951, "intermolecular_energy": -5.394, "internal_energy": -0.037}

$$$$
3gy4_ligand
     RDKit          3D

 20 20  0  0  0  0  0  0  0  0999 V2000
   -6.6850    8.9950   11.9740 N   0  0  0  0  0  0  0  0  0  0  0  0
   -5.5000    8.8880   12.5360 C   0  0  0  0  0  0  0  0  0  0  0  0
   -4.4730    9.5910   12.1110 N   0  0  0  0  0  0  0  0  0  0  0  0
   -5.3220    7.9680   13.6650 C   0  0  0  0  0  0  0  0  0  0  0  0
   -4.7430    8.4110   14.8620 C   0  0  0  0  0  0  0  0  0  0  0  0
   -4.5600    7.5260   15.9310 C   0  0  0  0  0  0  0  0  0  0  0  0
   -4.9880    6.2010   15.8450 C   0  0  0  0  0  0  0  0  0  0  0  0
   -4.6790    5.2950   16.8580 N   0  0  0  0  0  0  0  0  0  0  0  0
   -5.5190    5.7490   14.6360 C   0  0  0  0  0  0  0  0  0  0  0  0
   -5.7040    6.6240   13.5600 C   0  0  0  0  0  0  0  0  0  0  0  0
   -7.4520    8.4160   12.3040 H   0  0  0  0  0  0  0  0  0  0  0  0
   -6.8670    9.6110   11.1940 H   0  0  0  0  0  0  0  0  0  0  0  0
   -4.5370   10.2410   11.3390 H   0  0  0  0  0  0  0  0  0  0  0  0
   -3.5760    9.5050   12.5780 H   0  0  0  0  0  0  0  0  0  0  0  0
   -4.4304    9.4609   14.9621 H   0  0  0  0  0  0  0  0  0  0  0  0
   -4.0722    7.8800   16.8512 H   0  0  0  0  0  0  0  0  0  0  0  0
   -5.2210    4.4360   16.8520 H   0  0  0  0  0  0  0  0  0  0  0  0
   -3.6890    5.1180   16.9950 H   0  0  0  0  0  0  0  0  0  0  0  0
   -5.7959    4.6900   14.5276 H   0  0  0  0  0  0  0  0  0  0  0  0
   -6.1521    6.2545   12.6258 H   0  0  0  0  0  0  0  0  0  0  0  0
  1  2  1  0
  2  3  2  0
  2  4  1  0
  4  5  2  0
  5  6  1  0
  6  7  2  0
  7  8  1  0
  7  9  1  0
  9 10  2  0
 10  4  1  0
  1 11  1  0
  1 12  1  0
  3 13  1  0
  3 14  1  0
  5 15  1  0
  6 16  1  0
  8 17  1  0
  8 18  1  0
  9 19  1  0
 10 20  1  0
M  CHG  1   3   1
M  END
>  <meeko>  (3) 
{"is_sidechain": [false], "free_energy": -4.897, "intermolecular_energy": -5.335, "internal_energy": -0.036}

$$$$
3gy4_ligand
     RDKit          3D

 20 20  0  0  0  0  0  0  0  0999 V2000
   -5.5060    7.1780   13.6540 N   0  0  0  0  0  0  0  0  0  0  0  0
   -4.5930    6.3690   14.1470 C   0  0  0  0  0  0  0  0  0  0  0  0
   -3.8330    6.7280   15.1570 N   0  0  0  0  0  0  0  0  0  0  0  0
   -4.4240    5.0360   13.5590 C   0  0  0  0  0  0  0  0  0  0  0  0
   -5.3300    4.0070   13.8500 C   0  0  0  0  0  0  0  0  0  0  0  0
   -5.1560    2.7320   13.3010 C   0  0  0  0  0  0  0  0  0  0  0  0
   -4.1060    2.4690   12.4200 C   0  0  0  0  0  0  0  0  0  0  0  0
   -3.8610    1.1670   11.9860 N   0  0  0  0  0  0  0  0  0  0  0  0
   -3.1770    3.4790   12.1690 C   0  0  0  0  0  0  0  0  0  0  0  0
   -3.3400    4.7570   12.7150 C   0  0  0  0  0  0  0  0  0  0  0  0
   -6.0570    6.8840   12.8520 H   0  0  0  0  0  0  0  0  0  0  0  0
   -5.6680    8.1070   14.0170 H   0  0  0  0  0  0  0  0  0  0  0  0
   -3.9060    7.6320   15.6030 H   0  0  0  0  0  0  0  0  0  0  0  0
   -3.1520    6.0740   15.5320 H   0  0  0  0  0  0  0  0  0  0  0  0
   -6.1841    4.2033   14.5149 H   0  0  0  0  0  0  0  0  0  0  0  0
   -5.8559    1.9263   13.5672 H   0  0  0  0  0  0  0  0  0  0  0  0
   -4.3180    0.9050   11.1180 H   0  0  0  0  0  0  0  0  0  0  0  0
   -2.8870    0.8790   12.0040 H   0  0  0  0  0  0  0  0  0  0  0  0
   -2.3045    3.2679   11.5332 H   0  0  0  0  0  0  0  0  0  0  0  0
   -2.6126    5.5481   12.4804 H   0  0  0  0  0  0  0  0  0  0  0  0
  1  2  1  0
  2  3  2  0
  2  4  1  0
  4  5  2  0
  5  6  1  0
  6  7  2  0
  7  8  1  0
  7  9  1  0
  9 10  2  0
 10  4  1  0
  1 11  1  0
  1 12  1  0
  3 13  1  0
  3 14  1  0
  5 15  1  0
  6 16  1  0
  8 17  1  0
  8 18  1  0
  9 19  1  0
 10 20  1  0
M  CHG  1   3   1
M  END
>  <meeko>  (4) 
{"is_sidechain": [false], "free_energy": -4.559, "intermolecular_energy": -4.973, "internal_energy": -0.031}

$$$$
3gy4_ligand
     RDKit          3D

 20 20  0  0  0  0  0  0  0  0999 V2000
   -6.7350    7.7920   15.2660 N   0  0  0  0  0  0  0  0  0  0  0  0
   -5.5860    7.5860   14.6600 C   0  0  0  0  0  0  0  0  0  0  0  0
   -4.7240    8.5620   14.4730 N   0  0  0  0  0  0  0  0  0  0  0  0
   -5.2570    6.2380   14.1840 C   0  0  0  0  0  0  0  0  0  0  0  0
   -6.0080    5.1310   14.6030 C   0  0  0  0  0  0  0  0  0  0  0  0
   -5.6820    3.8440   14.1600 C   0  0  0  0  0  0  0  0  0  0  0  0
   -4.6350    3.6400   13.2610 C   0  0  0  0  0  0  0  0  0  0  0  0
   -4.2310    2.3470   12.9330 N   0  0  0  0  0  0  0  0  0  0  0  0
   -3.8570    4.7350   12.8830 C   0  0  0  0  0  0  0  0  0  0  0  0
   -4.1720    6.0260   13.3220 C   0  0  0  0  0  0  0  0  0  0  0  0
   -7.3940    7.0250   15.3680 H   0  0  0  0  0  0  0  0  0  0  0  0
   -7.0150    8.6980   15.6140 H   0  0  0  0  0  0  0  0  0  0  0  0
   -4.8950    9.5090   14.7810 H   0  0  0  0  0  0  0  0  0  0  0  0
   -3.8350    8.3690   14.0220 H   0  0  0  0  0  0  0  0  0  0  0  0
   -6.8593    5.2748   15.2846 H   0  0  0  0  0  0  0  0  0  0  0  0
   -6.2591    2.9818   14.5256 H   0  0  0  0  0  0  0  0  0  0  0  0
   -3.8870    2.2260   11.9850 H   0  0  0  0  0  0  0  0  0  0  0  0
   -3.6310    1.8930   13.6160 H   0  0  0  0  0  0  0  0  0  0  0  0
   -2.9843    4.5814   12.2312 H   0  0  0  0  0  0  0  0  0  0  0  0
   -3.5642    6.8800   12.9885 H   0  0  0  0  0  0  0  0  0  0  0  0
  1  2  1  0
  2  3  2  0
  2  4  1  0
  4  5  2  0
  5  6  1  0
  6  7  2  0
  7  8  1  0
  7  9  1  0
  9 10  2  0
 10  4  1  0
  1 11  1  0
  1 12  1  0
  3 13  1  0
  3 14  1  0
  5 15  1  0
  6 16  1  0
  8 17  1  0
  8 18  1  0
  9 19  1  0
 10 20  1  0
M  CHG  1   3   1
M  END
>  <meeko>  (5) 
{"is_sidechain": [false], "free_energy": -4.412, "intermolecular_energy": -4.799, "internal_energy": -0.045}

$$$$
3gy4_ligand
     RDKit          3D

 20 20  0  0  0  0  0  0  0  0999 V2000
   -4.8700    4.9560   17.0530 N   0  0  0  0  0  0  0  0  0  0  0  0
   -4.7530    6.2540   16.8790 C   0  0  0  0  0  0  0  0  0  0  0  0
   -4.1820    7.0190   17.7830 N   0  0  0  0  0  0  0  0  0  0  0  0
   -5.2670    6.8620   15.6460 C   0  0  0  0  0  0  0  0  0  0  0  0
   -4.3880    7.3440   14.6670 C   0  0  0  0  0  0  0  0  0  0  0  0
   -4.8810    7.9370   13.5000 C   0  0  0  0  0  0  0  0  0  0  0  0
   -6.2540    8.0230   13.2660 C   0  0  0  0  0  0  0  0  0  0  0  0
   -6.7380    8.7360   12.1700 N   0  0  0  0  0  0  0  0  0  0  0  0
   -7.1290    7.5880   14.2620 C   0  0  0  0  0  0  0  0  0  0  0  0
   -6.6460    6.9950   15.4340 C   0  0  0  0  0  0  0  0  0  0  0  0
   -5.3450    4.3950   16.3500 H   0  0  0  0  0  0  0  0  0  0  0  0
   -4.5360    4.4820   17.8800 H   0  0  0  0  0  0  0  0  0  0  0  0
   -3.8080    6.6560   18.6490 H   0  0  0  0  0  0  0  0  0  0  0  0
   -4.0840    8.0150   17.6110 H   0  0  0  0  0  0  0  0  0  0  0  0
   -3.3019    7.2554   14.8173 H   0  0  0  0  0  0  0  0  0  0  0  0
   -4.1773    8.3407   12.7572 H   0  0  0  0  0  0  0  0  0  0  0  0
   -7.0530    8.1690   11.3880 H   0  0  0  0  0  0  0  0  0  0  0  0
   -7.3960    9.4780   12.3900 H   0  0  0  0  0  0  0  0  0  0  0  0
   -8.2132    7.7129   14.1241 H   0  0  0  0  0  0  0  0  0  0  0  0
   -7.3533    6.6309   16.1937 H   0  0  0  0  0  0  0  0  0  0  0  0
  1  2  1  0
  2  3  2  0
  2  4  1  0
  4  5  2  0
  5  6  1  0
  6  7  2  0
  7  8  1  0
  7  9  1  0
  9 10  2  0
 10  4  1  0
  1 11  1  0
  1 12  1  0
  3 13  1  0
  3 14  1  0
  5 15  1  0
  6 16  1  0
  8 17  1  0
  8 18  1  0
  9 19  1  0
 10 20  1  0
M  CHG  1   3   1
M  END
>  <meeko>  (6) 
{"is_sidechain": [false], "free_energy": -4.361, "intermolecular_energy": -4.757, "internal_energy": -0.032}

$$$$
3gy4_ligand
     RDKit          3D

 20 20  0  0  0  0  0  0  0  0999 V2000
   -4.8250    8.9870   13.2010 N   0  0  0  0  0  0  0  0  0  0  0  0
   -5.9950    8.4050   13.0550 C   0  0  0  0  0  0  0  0  0  0  0  0
   -6.8050    8.7280   12.0710 N   0  0  0  0  0  0  0  0  0  0  0  0
   -6.4050    7.3700   14.0110 C   0  0  0  0  0  0  0  0  0  0  0  0
   -5.6730    6.1810   14.1330 C   0  0  0  0  0  0  0  0  0  0  0  0
   -6.0760    5.1900   15.0340 C   0  0  0  0  0  0  0  0  0  0  0  0
   -7.1850    5.3790   15.8580 C   0  0  0  0  0  0  0  0  0  0  0  0
   -7.6590    4.3340   16.6510 N   0  0  0  0  0  0  0  0  0  0  0  0
   -7.9420    6.5400   15.7010 C   0  0  0  0  0  0  0  0  0  0  0  0
   -7.5500    7.5380   14.8020 C   0  0  0  0  0  0  0  0  0  0  0  0
   -4.2340    8.7390   13.9900 H   0  0  0  0  0  0  0  0  0  0  0  0
   -4.4900    9.7060   12.5750 H   0  0  0  0  0  0  0  0  0  0  0  0
   -6.5750    9.4320   11.3820 H   0  0  0  0  0  0  0  0  0  0  0  0
   -7.6930    8.2460   11.9700 H   0  0  0  0  0  0  0  0  0  0  0  0
   -4.7756    6.0262   13.5160 H   0  0  0  0  0  0  0  0  0  0  0  0
   -5.5103    4.2485   15.0934 H   0  0  0  0  0  0  0  0  0  0  0  0
   -7.3350    3.4080   16.3880 H   0  0  0  0  0  0  0  0  0  0  0  0
   -7.5970    4.4870   17.6530 H   0  0  0  0  0  0  0  0  0  0  0  0
   -8.8600    6.6729   16.2922 H   0  0  0  0  0  0  0  0  0  0  0  0
   -8.1439    8.4599   14.7155 H   0  0  0  0  0  0  0  0  0  0  0  0
  1  2  1  0
  2  3  2  0
  2  4  1  0
  4  5  2  0
  5  6  1  0
  6  7  2  0
  7  8  1  0
  7  9  1  0
  9 10  2  0
 10  4  1  0
  1 11  1  0
  1 12  1  0
  3 13  1  0
  3 14  1  0
  5 15  1  0
  6 16  1  0
  8 17  1  0
  8 18  1  0
  9 19  1  0
 10 20  1  0
M  CHG  1   3   1
M  END
>  <meeko>  (7) 
{"is_sidechain": [false], "free_energy": -4.255, "intermolecular_energy": -4.64, "internal_energy": -0.034}

$$$$
3gy4_ligand
     RDKit          3D

 20 20  0  0  0  0  0  0  0  0999 V2000
    0.6530   -4.9990   16.6780 N   0  0  0  0  0  0  0  0  0  0  0  0
   -0.3040   -4.1140   16.8590 C   0  0  0  0  0  0  0  0  0  0  0  0
   -1.5670   -4.4190   16.6580 N   0  0  0  0  0  0  0  0  0  0  0  0
    0.0470   -2.7600   17.2990 C   0  0  0  0  0  0  0  0  0  0  0  0
   -0.7640   -2.0750   18.2150 C   0  0  0  0  0  0  0  0  0  0  0  0
   -0.4350   -0.7760   18.6200 C   0  0  0  0  0  0  0  0  0  0  0  0
    0.7250   -0.1530   18.1570 C   0  0  0  0  0  0  0  0  0  0  0  0
    0.9720    1.1850   18.4570 N   0  0  0  0  0  0  0  0  0  0  0  0
    1.5040   -0.8160   17.2090 C   0  0  0  0  0  0  0  0  0  0  0  0
    1.1840   -2.1130   16.7950 C   0  0  0  0  0  0  0  0  0  0  0  0
    1.6220   -4.7250   16.8110 H   0  0  0  0  0  0  0  0  0  0  0  0
    0.4720   -5.9460   16.3750 H   0  0  0  0  0  0  0  0  0  0  0  0
   -1.8670   -5.3350   16.3570 H   0  0  0  0  0  0  0  0  0  0  0  0
   -2.2860   -3.7220   16.8280 H   0  0  0  0  0  0  0  0  0  0  0  0
   -1.6645   -2.5615   18.6180 H   0  0  0  0  0  0  0  0  0  0  0  0
   -1.0998   -0.2389   19.3126 H   0  0  0  0  0  0  0  0  0  0  0  0
    0.2780    1.8430   18.1130 H   0  0  0  0  0  0  0  0  0  0  0  0
    1.2280    1.3740   19.4220 H   0  0  0  0  0  0  0  0  0  0  0  0
    2.3827   -0.3116   16.7808 H   0  0  0  0  0  0  0  0  0  0  0  0
    1.8291   -2.6292   16.0687 H   0  0  0  0  0  0  0  0  0  0  0  0
  1  2  1  0
  2  3  2  0
  2  4  1  0
  4  5  2  0
  5  6  1  0
  6  7  2  0
  7  8  1  0
  7  9  1  0
  9 10  2  0
 10  4  1  0
  1 11  1  0
  1 12  1  0
  3 13  1  0
  3 14  1  0
  5 15  1  0
  6 16  1  0
  8 17  1  0
  8 18  1  0
  9 19  1  0
 10 20  1  0
M  CHG  1   3   1
M  END
>  <meeko>  (8) 
{"is_sidechain": [false], "free_energy": -4.211, "intermolecular_energy": -4.586, "internal_energy": -0.04}

$$$$
3gy4_ligand
     RDKit          3D

 20 20  0  0  0  0  0  0  0  0999 V2000
   -7.4110    3.7890   15.2790 N   0  0  0  0  0  0  0  0  0  0  0  0
   -6.2740    4.3750   15.5870 C   0  0  0  0  0  0  0  0  0  0  0  0
   -5.4750    3.8830   16.5070 N   0  0  0  0  0  0  0  0  0  0  0  0
   -5.8880    5.6040   14.8850 C   0  0  0  0  0  0  0  0  0  0  0  0
   -4.7860    5.6150   14.0190 C   0  0  0  0  0  0  0  0  0  0  0  0
   -4.4110    6.7930   13.3630 C   0  0  0  0  0  0  0  0  0  0  0  0
   -5.1480    7.9670   13.5220 C   0  0  0  0  0  0  0  0  0  0  0  0
   -4.6900    9.1650   12.9750 N   0  0  0  0  0  0  0  0  0  0  0  0
   -6.2150    7.9680   14.4210 C   0  0  0  0  0  0  0  0  0  0  0  0
   -6.5970    6.7970   15.0840 C   0  0  0  0  0  0  0  0  0  0  0  0
   -8.0230    4.2110   14.5860 H   0  0  0  0  0  0  0  0  0  0  0  0
   -7.7290    2.9420   15.7290 H   0  0  0  0  0  0  0  0  0  0  0  0
   -5.6880    3.0390   17.0220 H   0  0  0  0  0  0  0  0  0  0  0  0
   -4.5930    4.3440   16.7080 H   0  0  0  0  0  0  0  0  0  0  0  0
   -4.2119    4.6914   13.8538 H   0  0  0  0  0  0  0  0  0  0  0  0
   -3.5233    6.7933   12.7133 H   0  0  0  0  0  0  0  0  0  0  0  0
   -5.2110    9.5030   12.1720 H   0  0  0  0  0  0  0  0  0  0  0  0
   -4.5040    9.9050   13.6460 H   0  0  0  0  0  0  0  0  0  0  0  0
   -6.7634    8.9025   14.6110 H   0  0  0  0  0  0  0  0  0  0  0  0
   -7.4597    6.8123   15.7663 H   0  0  0  0  0  0  0  0  0  0  0  0
  1  2  1  0
  2  3  2  0
  2  4  1  0
  4  5  2  0
  5  6  1  0
  6  7  2  0
  7  8  1  0
  7  9  1  0
  9 10  2  0
 10  4  1  0
  1 11  1  0
  1 12  1  0
  3 13  1  0
  3 14  1  0
  5 15  1  0
  6 16  1  0
  8 17  1  0
  8 18  1  0
  9 19  1  0
 10 20  1  0
M  CHG  1   3   1
M  END
>  <meeko>  (9) 
{"is_sidechain": [false], "free_energy": -4.008, "intermolecular_energy": -4.372, "internal_energy": -0.033}

$$$$
