
     RDKit          3D

 26 29  0  0  0  0  0  0  0  0999 V2000
    7.6010    5.0270   -8.2660 C   0  0  0  0  0  0  0  0  0  0  0  0
    6.5960    5.8810   -7.5820 C   0  0  0  0  0  0  0  0  0  0  0  0
    6.8430    6.9250   -6.8060 N   0  0  0  0  0  0  0  0  0  0  0  0
    5.6440    7.4100   -6.3600 N   0  0  0  0  0  0  0  0  0  0  0  0
    4.7140    6.6180   -6.9110 C   0  0  0  0  0  0  0  0  0  0  0  0
    3.2940    6.6900   -6.7350 C   0  0  0  0  0  0  0  0  0  0  0  0
    2.7400    7.4500   -5.7060 C   0  0  0  0  0  0  0  0  0  0  0  0
    1.3510    7.4920   -5.5330 C   0  0  0  0  0  0  0  0  0  0  0  0
    0.5100    6.7870   -6.3930 C   0  0  0  0  0  0  0  0  0  0  0  0
   -0.9480    6.8130   -6.1430 C   0  0  0  0  0  0  0  0  0  0  0  0
   -1.4700    5.8310   -5.3260 C   0  0  0  0  0  0  0  0  0  0  0  0
   -2.8250    5.7700   -5.0310 C   0  0  0  0  0  0  0  0  0  0  0  0
   -3.2770    4.6980   -4.1100 C   0  0  0  0  0  0  0  0  0  0  0  0
   -2.4800    4.0510   -3.4720 O   0  0  0  0  0  0  0  0  0  0  0  0
   -4.5970    4.4530   -4.0120 N   0  0  0  0  0  0  0  0  0  0  0  0
   -5.1210    3.4270   -3.1400 C   0  0  1  0  0  0  0  0  0  0  0  0
   -5.0780    3.6860   -1.6730 C   0  0  0  0  0  0  0  0  0  0  0  0
   -6.3920    3.6520   -2.4210 C   0  0  0  0  0  0  0  0  0  0  0  0
   -3.6900    6.7150   -5.5840 C   0  0  0  0  0  0  0  0  0  0  0  0
   -3.1750    7.7320   -6.4020 C   0  0  0  0  0  0  0  0  0  0  0  0
   -1.8060    7.7970   -6.6940 C   0  0  0  0  0  0  0  0  0  0  0  0
   -1.2750    8.9070   -7.5670 C   0  0  0  0  0  0  0  0  0  0  0  0
    1.0700    6.0160   -7.4200 C   0  0  0  0  0  0  0  0  0  0  0  0
    0.1890    5.2130   -8.3820 C   0  0  0  0  0  0  0  0  0  0  0  0
    2.4500    5.9810   -7.5860 C   0  0  0  0  0  0  0  0  0  0  0  0
    5.2760    5.6630   -7.6670 O   0  0  0  0  0  0  0  0  0  0  0  0
  2  1  1  0
  3  2  2  0
  4  3  1  0
  5  4  2  0
  6  5  1  0
  7  6  2  0
  8  7  1  0
  9  8  2  0
 10  9  1  0
 11 10  2  0
 12 11  1  0
 13 12  1  0
 14 13  2  0
 15 13  1  0
 16 15  1  6
 17 16  1  0
 18 17  1  0
 18 16  1  0
 19 12  2  0
 20 19  1  0
 21 20  2  0
 21 10  1  0
 22 21  1  0
 23  9  1  0
 24 23  1  0
 25 23  2  0
 25  6  1  0
 26  5  1  0
 26  2  1  0
M  END
$$$$
