4w9c_ligand
     RDKit          3D

 55 57  0  0  0  0  0  0  0  0999 V2000
   -7.7570   32.5620   18.3680 C   0  0  0  0  0  0  0  0  0  0  0  0
   -6.3470   32.7140   18.9760 C   0  0  0  0  0  0  0  0  0  0  0  0
   -5.3250   32.1470   17.9790 C   0  0  0  0  0  0  0  0  0  0  0  0
   -6.0750   34.2120   19.1920 C   0  0  0  0  0  0  0  0  0  0  0  0
   -6.3190   31.9330   20.3100 C   0  0  0  0  0  0  0  0  0  0  0  0
   -4.9340   31.5610   20.8140 C   0  0  0  0  0  0  0  0  0  0  0  0
   -3.9990   32.3560   20.8320 O   0  0  0  0  0  0  0  0  0  0  0  0
   -4.8070   30.2080   21.1980 N   0  0  0  0  0  0  0  0  0  0  0  0
   -5.9870   29.4400   20.7860 C   0  0  0  0  0  0  0  0  0  0  0  0
   -5.6340   28.7400   19.4560 C   0  0  2  0  0  0  0  0  0  0  0  0
   -5.7670   27.3250   19.5770 O   0  0  0  0  0  0  0  0  0  0  0  0
   -4.1780   29.1110   19.1770 C   0  0  0  0  0  0  0  0  0  0  0  0
   -3.6810   29.5070   20.5620 C   0  0  1  0  0  0  0  0  0  0  0  0
   -2.2930   30.1670   20.5980 C   0  0  0  0  0  0  0  0  0  0  0  0
   -1.6670   30.3560   21.6350 O   0  0  0  0  0  0  0  0  0  0  0  0
   -1.8860   30.6520   19.3710 N   0  0  0  0  0  0  0  0  0  0  0  0
   -0.5930   31.2710   19.1820 C   0  0  0  0  0  0  0  0  0  0  0  0
   -0.6680   32.3330   18.1180 C   0  0  0  0  0  0  0  0  0  0  0  0
    0.2700   32.3570   17.0780 C   0  0  0  0  0  0  0  0  0  0  0  0
    0.1810   33.3130   16.0610 C   0  0  0  0  0  0  0  0  0  0  0  0
   -0.8490   34.2650   16.0540 C   0  0  0  0  0  0  0  0  0  0  0  0
   -0.9580   35.2530   14.9910 C   0  0  0  0  0  0  0  0  0  0  0  0
   -0.7540   35.2670   13.6260 C   0  0  0  0  0  0  0  0  0  0  0  0
   -1.0100   36.5140   13.1130 N   0  0  0  0  0  0  0  0  0  0  0  0
   -1.3570   37.2080   14.1710 C   0  0  0  0  0  0  0  0  0  0  0  0
   -1.3520   36.5200   15.3440 O   0  0  0  0  0  0  0  0  0  0  0  0
   -1.7840   34.2360   17.0980 C   0  0  0  0  0  0  0  0  0  0  0  0
   -1.6990   33.2800   18.1160 C   0  0  0  0  0  0  0  0  0  0  0  0
   -8.4984   32.4821   19.1767 H   0  0  0  0  0  0  0  0  0  0  0  0
   -7.9852   33.4408   17.7469 H   0  0  0  0  0  0  0  0  0  0  0  0
   -7.7926   31.6548   17.7469 H   0  0  0  0  0  0  0  0  0  0  0  0
   -4.4925   31.6851   18.5301 H   0  0  0  0  0  0  0  0  0  0  0  0
   -5.8111   31.3896   17.3465 H   0  0  0  0  0  0  0  0  0  0  0  0
   -4.9396   32.9603   17.3465 H   0  0  0  0  0  0  0  0  0  0  0  0
   -6.0362   34.4259   20.2703 H   0  0  0  0  0  0  0  0  0  0  0  0
   -5.1134   34.4804   18.7301 H   0  0  0  0  0  0  0  0  0  0  0  0
   -6.8808   34.8013   18.7301 H   0  0  0  0  0  0  0  0  0  0  0  0
   -6.8051   32.5532   21.0775 H   0  0  0  0  0  0  0  0  0  0  0  0
   -6.8390   30.9829   20.1181 H   0  0  0  0  0  0  0  0  0  0  0  0
   -6.2354   28.6907   21.5520 H   0  0  0  0  0  0  0  0  0  0  0  0
   -6.8584   30.0996   20.6610 H   0  0  0  0  0  0  0  0  0  0  0  0
   -6.3052   29.0548   18.6434 H   0  0  0  0  0  0  0  0  0  0  0  0
   -5.6390   26.9160   18.7050 H   0  0  0  0  0  0  0  0  0  0  0  0
   -3.6157   28.2526   18.7809 H   0  0  0  0  0  0  0  0  0  0  0  0
   -4.0586   29.9005   18.4205 H   0  0  0  0  0  0  0  0  0  0  0  0
   -3.4251   28.6312   21.1763 H   0  0  0  0  0  0  0  0  0  0  0  0
   -2.4160   30.3920   18.5510 H   0  0  0  0  0  0  0  0  0  0  0  0
   -0.2689   31.7288   20.1283 H   0  0  0  0  0  0  0  0  0  0  0  0
    0.1273   30.5017   18.8669 H   0  0  0  0  0  0  0  0  0  0  0  0
    1.0840   31.6173   17.0610 H   0  0  0  0  0  0  0  0  0  0  0  0
    0.9296   33.3183   15.2550 H   0  0  0  0  0  0  0  0  0  0  0  0
   -0.4311   34.3994   13.0319 H   0  0  0  0  0  0  0  0  0  0  0  0
   -1.6325   38.2714   14.1133 H   0  0  0  0  0  0  0  0  0  0  0  0
   -2.5972   34.9764   17.1172 H   0  0  0  0  0  0  0  0  0  0  0  0
   -2.4483   33.2724   18.9213 H   0  0  0  0  0  0  0  0  0  0  0  0
  1  2  1  0
  2  3  1  0
  2  4  1  0
  2  5  1  0
  5  6  1  0
  6  7  2  0
  6  8  1  0
  8  9  1  0
  9 10  1  0
 10 11  1  0
 10 12  1  0
 12 13  1  0
 13 14  1  0
 14 15  2  0
 14 16  1  0
 16 17  1  0
 17 18  1  0
 18 19  2  0
 19 20  1  0
 20 21  2  0
 21 22  1  0
 22 23  2  0
 23 24  1  0
 24 25  2  0
 25 26  1  0
 21 27  1  0
 27 28  2  0
 13  8  1  0
 28 18  1  0
 26 22  1  0
  1 29  1  0
  1 30  1  0
  1 31  1  0
  3 32  1  0
  3 33  1  0
  3 34  1  0
  4 35  1  0
  4 36  1  0
  4 37  1  0
  5 38  1  0
  5 39  1  0
  9 40  1  0
  9 41  1  0
 10 42  1  6
 11 43  1  0
 12 44  1  0
 12 45  1  0
 13 46  1  1
 16 47  1  0
 17 48  1  0
 17 49  1  0
 19 50  1  0
 20 51  1  0
 23 52  1  0
 25 53  1  0
 27 54  1  0
 28 55  1  0
M  END
>  <meeko>  (1) 
{"is_sidechain": [false], "free_energy": -5.165, "intermolecular_energy": -7.43, "internal_energy": -0.735}

$$$$
4w9c_ligand
     RDKit          3D

 55 57  0  0  0  0  0  0  0  0999 V2000
   -3.4390   33.8600   18.4160 C   0  0  0  0  0  0  0  0  0  0  0  0
   -1.9290   33.6100   18.6020 C   0  0  0  0  0  0  0  0  0  0  0  0
   -1.2780   33.5120   17.2130 C   0  0  0  0  0  0  0  0  0  0  0  0
   -1.3330   34.8070   19.3630 C   0  0  0  0  0  0  0  0  0  0  0  0
   -1.7600   32.2930   19.3930 C   0  0  0  0  0  0  0  0  0  0  0  0
   -0.3700   31.6800   19.3420 C   0  0  0  0  0  0  0  0  0  0  0  0
    0.5930   32.1700   19.9240 O   0  0  0  0  0  0  0  0  0  0  0  0
   -0.2760   30.5380   18.5160 N   0  0  0  0  0  0  0  0  0  0  0  0
    1.0360   30.4770   17.8630 C   0  0  0  0  0  0  0  0  0  0  0  0
    1.9180   29.5250   18.7000 C   0  0  2  0  0  0  0  0  0  0  0  0
    2.3820   28.4350   17.9040 O   0  0  0  0  0  0  0  0  0  0  0  0
    1.0130   29.0130   19.8190 C   0  0  0  0  0  0  0  0  0  0  0  0
   -0.3750   29.2620   19.2440 C   0  0  1  0  0  0  0  0  0  0  0  0
   -1.5390   29.0700   20.2290 C   0  0  0  0  0  0  0  0  0  0  0  0
   -1.3760   28.8690   21.4290 O   0  0  0  0  0  0  0  0  0  0  0  0
   -2.7730   29.0050   19.6140 N   0  0  0  0  0  0  0  0  0  0  0  0
   -3.9990   28.8690   20.3670 C   0  0  0  0  0  0  0  0  0  0  0  0
   -4.9430   29.9970   20.0470 C   0  0  0  0  0  0  0  0  0  0  0  0
   -5.4930   30.7710   21.0760 C   0  0  0  0  0  0  0  0  0  0  0  0
   -6.3350   31.8490   20.7850 C   0  0  0  0  0  0  0  0  0  0  0  0
   -6.6440   32.1850   19.4590 C   0  0  0  0  0  0  0  0  0  0  0  0
   -7.5070   33.3150   19.1470 C   0  0  0  0  0  0  0  0  0  0  0  0
   -7.3380   34.6760   18.9860 C   0  0  0  0  0  0  0  0  0  0  0  0
   -8.5360   35.2790   18.6950 N   0  0  0  0  0  0  0  0  0  0  0  0
   -9.3830   34.2750   18.6870 C   0  0  0  0  0  0  0  0  0  0  0  0
   -8.8400   33.0560   18.9500 O   0  0  0  0  0  0  0  0  0  0  0  0
   -6.0900   31.4070   18.4330 C   0  0  0  0  0  0  0  0  0  0  0  0
   -5.2470   30.3280   18.7210 C   0  0  0  0  0  0  0  0  0  0  0  0
   -3.9215   33.9399   19.4013 H   0  0  0  0  0  0  0  0  0  0  0  0
   -3.5897   34.7953   17.8570 H   0  0  0  0  0  0  0  0  0  0  0  0
   -3.8831   33.0232   17.8570 H   0  0  0  0  0  0  0  0  0  0  0  0
   -0.1960   33.3491   17.3258 H   0  0  0  0  0  0  0  0  0  0  0  0
   -1.7198   32.6702   16.6596 H   0  0  0  0  0  0  0  0  0  0  0  0
   -1.4524   34.4465   16.6596 H   0  0  0  0  0  0  0  0  0  0  0  0
   -1.4196   34.6331   20.4457 H   0  0  0  0  0  0  0  0  0  0  0  0
   -0.2726   34.9215   19.0937 H   0  0  0  0  0  0  0  0  0  0  0  0
   -1.8806   35.7222   19.0937 H   0  0  0  0  0  0  0  0  0  0  0  0
   -2.0041   32.4952   20.4463 H   0  0  0  0  0  0  0  0  0  0  0  0
   -2.4324   31.5636   18.9177 H   0  0  0  0  0  0  0  0  0  0  0  0
    0.9298   30.0898   16.8389 H   0  0  0  0  0  0  0  0  0  0  0  0
    1.4892   31.4775   17.8023 H   0  0  0  0  0  0  0  0  0  0  0  0
    2.8094   30.0379   19.0903 H   0  0  0  0  0  0  0  0  0  0  0  0
    2.5950   28.7570   17.0120 H   0  0  0  0  0  0  0  0  0  0  0  0
    1.1802   27.9427   20.0099 H   0  0  0  0  0  0  0  0  0  0  0  0
    1.1857   29.5038   20.7882 H   0  0  0  0  0  0  0  0  0  0  0  0
   -0.6751   28.4779   18.5333 H   0  0  0  0  0  0  0  0  0  0  0  0
   -2.8370   29.2560   18.6370 H   0  0  0  0  0  0  0  0  0  0  0  0
   -4.4776   27.9126   20.1096 H   0  0  0  0  0  0  0  0  0  0  0  0
   -3.7617   28.8979   21.4407 H   0  0  0  0  0  0  0  0  0  0  0  0
   -5.2605   30.5288   22.1235 H   0  0  0  0  0  0  0  0  0  0  0  0
   -6.7610   32.4418   21.6079 H   0  0  0  0  0  0  0  0  0  0  0  0
   -6.3771   35.2034   19.0781 H   0  0  0  0  0  0  0  0  0  0  0  0
  -10.4552   34.4105   18.4822 H   0  0  0  0  0  0  0  0  0  0  0  0
   -6.3216   31.6485   17.3851 H   0  0  0  0  0  0  0  0  0  0  0  0
   -4.8197   29.7350   17.8990 H   0  0  0  0  0  0  0  0  0  0  0  0
  1  2  1  0
  2  3  1  0
  2  4  1  0
  2  5  1  0
  5  6  1  0
  6  7  2  0
  6  8  1  0
  8  9  1  0
  9 10  1  0
 10 11  1  0
 10 12  1  0
 12 13  1  0
 13 14  1  0
 14 15  2  0
 14 16  1  0
 16 17  1  0
 17 18  1  0
 18 19  2  0
 19 20  1  0
 20 21  2  0
 21 22  1  0
 22 23  2  0
 23 24  1  0
 24 25  2  0
 25 26  1  0
 21 27  1  0
 27 28  2  0
 13  8  1  0
 28 18  1  0
 26 22  1  0
  1 29  1  0
  1 30  1  0
  1 31  1  0
  3 32  1  0
  3 33  1  0
  3 34  1  0
  4 35  1  0
  4 36  1  0
  4 37  1  0
  5 38  1  0
  5 39  1  0
  9 40  1  0
  9 41  1  0
 10 42  1  1
 11 43  1  0
 12 44  1  0
 12 45  1  0
 13 46  1  6
 16 47  1  0
 17 48  1  0
 17 49  1  0
 19 50  1  0
 20 51  1  0
 23 52  1  0
 25 53  1  0
 27 54  1  0
 28 55  1  0
M  END
>  <meeko>  (2) 
{"is_sidechain": [false], "free_energy": -5.16, "intermolecular_energy": -7.01, "internal_energy": -1.147}

$$$$
4w9c_ligand
     RDKit          3D

 55 57  0  0  0  0  0  0  0  0999 V2000
   -8.3220   32.9120   17.9890 C   0  0  0  0  0  0  0  0  0  0  0  0
   -7.3110   32.9710   19.1520 C   0  0  0  0  0  0  0  0  0  0  0  0
   -6.2060   33.9730   18.7840 C   0  0  0  0  0  0  0  0  0  0  0  0
   -8.0490   33.4630   20.4080 C   0  0  0  0  0  0  0  0  0  0  0  0
   -6.7340   31.5510   19.3510 C   0  0  0  0  0  0  0  0  0  0  0  0
   -5.3290   31.4970   19.9290 C   0  0  0  0  0  0  0  0  0  0  0  0
   -5.0550   31.9240   21.0470 O   0  0  0  0  0  0  0  0  0  0  0  0
   -4.3630   30.9710   19.0430 N   0  0  0  0  0  0  0  0  0  0  0  0
   -3.1320   31.7690   19.0850 C   0  0  0  0  0  0  0  0  0  0  0  0
   -2.1550   31.0490   20.0380 C   0  0  2  0  0  0  0  0  0  0  0  0
   -0.9430   30.7140   19.3620 O   0  0  0  0  0  0  0  0  0  0  0  0
   -2.8810   29.7790   20.4800 C   0  0  0  0  0  0  0  0  0  0  0  0
   -3.9200   29.6080   19.3790 C   0  0  1  0  0  0  0  0  0  0  0  0
   -4.9880   28.5360   19.6450 C   0  0  0  0  0  0  0  0  0  0  0  0
   -5.8930   28.2790   18.8570 O   0  0  0  0  0  0  0  0  0  0  0  0
   -4.9160   27.9920   20.9120 N   0  0  0  0  0  0  0  0  0  0  0  0
   -5.8040   26.9380   21.3470 C   0  0  0  0  0  0  0  0  0  0  0  0
   -5.0160   25.7590   21.8520 C   0  0  0  0  0  0  0  0  0  0  0  0
   -3.7410   25.9450   22.4000 C   0  0  0  0  0  0  0  0  0  0  0  0
   -3.0220   24.8600   22.9140 C   0  0  0  0  0  0  0  0  0  0  0  0
   -3.5590   23.5660   22.8970 C   0  0  0  0  0  0  0  0  0  0  0  0
   -2.8240   22.4340   23.4440 C   0  0  0  0  0  0  0  0  0  0  0  0
   -1.5110   22.1760   23.7800 C   0  0  0  0  0  0  0  0  0  0  0  0
   -1.3790   20.8970   24.2610 N   0  0  0  0  0  0  0  0  0  0  0  0
   -2.6040   20.4270   24.2020 C   0  0  0  0  0  0  0  0  0  0  0  0
   -3.5350   21.2930   23.7200 O   0  0  0  0  0  0  0  0  0  0  0  0
   -4.8360   23.3860   22.3480 C   0  0  0  0  0  0  0  0  0  0  0  0
   -5.5590   24.4690   21.8340 C   0  0  0  0  0  0  0  0  0  0  0  0
   -9.3432   32.8524   18.3935 H   0  0  0  0  0  0  0  0  0  0  0  0
   -8.2243   33.8174   17.3719 H   0  0  0  0  0  0  0  0  0  0  0  0
   -8.1197   32.0241   17.3719 H   0  0  0  0  0  0  0  0  0  0  0  0
   -5.7583   34.3790   19.7031 H   0  0  0  0  0  0  0  0  0  0  0  0
   -5.4310   33.4634   18.1927 H   0  0  0  0  0  0  0  0  0  0  0  0
   -6.6376   34.7940   18.1927 H   0  0  0  0  0  0  0  0  0  0  0  0
   -7.5201   33.1104   21.3058 H   0  0  0  0  0  0  0  0  0  0  0  0
   -8.0792   34.5626   20.4084 H   0  0  0  0  0  0  0  0  0  0  0  0
   -9.0756   33.0680   20.4084 H   0  0  0  0  0  0  0  0  0  0  0  0
   -7.4031   31.0044   20.0319 H   0  0  0  0  0  0  0  0  0  0  0  0
   -6.6679   31.1056   18.3474 H   0  0  0  0  0  0  0  0  0  0  0  0
   -2.6938   31.8395   18.0785 H   0  0  0  0  0  0  0  0  0  0  0  0
   -3.3400   32.7902   19.4369 H   0  0  0  0  0  0  0  0  0  0  0  0
   -1.8792   31.6864   20.8911 H   0  0  0  0  0  0  0  0  0  0  0  0
   -0.2910   30.3990   20.0110 H   0  0  0  0  0  0  0  0  0  0  0  0
   -2.1952   28.9198   20.5192 H   0  0  0  0  0  0  0  0  0  0  0  0
   -3.3119   29.8434   21.4900 H   0  0  0  0  0  0  0  0  0  0  0  0
   -3.4948   29.1471   18.4752 H   0  0  0  0  0  0  0  0  0  0  0  0
   -4.1010   28.1940   21.4760 H   0  0  0  0  0  0  0  0  0  0  0  0
   -6.4466   27.3168   22.1554 H   0  0  0  0  0  0  0  0  0  0  0  0
   -6.4183   26.6157   20.4933 H   0  0  0  0  0  0  0  0  0  0  0  0
   -3.3007   26.9527   22.4267 H   0  0  0  0  0  0  0  0  0  0  0  0
   -2.0204   25.0255   23.3376 H   0  0  0  0  0  0  0  0  0  0  0  0
   -0.6849   22.8950   23.6768 H   0  0  0  0  0  0  0  0  0  0  0  0
   -2.8588   19.4052   24.5200 H   0  0  0  0  0  0  0  0  0  0  0  0
   -5.2768   22.3785   22.3206 H   0  0  0  0  0  0  0  0  0  0  0  0
   -6.5618   24.3049   21.4126 H   0  0  0  0  0  0  0  0  0  0  0  0
  1  2  1  0
  2  3  1  0
  2  4  1  0
  2  5  1  0
  5  6  1  0
  6  7  2  0
  6  8  1  0
  8  9  1  0
  9 10  1  0
 10 11  1  0
 10 12  1  0
 12 13  1  0
 13 14  1  0
 14 15  2  0
 14 16  1  0
 16 17  1  0
 17 18  1  0
 18 19  2  0
 19 20  1  0
 20 21  2  0
 21 22  1  0
 22 23  2  0
 23 24  1  0
 24 25  2  0
 25 26  1  0
 21 27  1  0
 27 28  2  0
 13  8  1  0
 28 18  1  0
 26 22  1  0
  1 29  1  0
  1 30  1  0
  1 31  1  0
  3 32  1  0
  3 33  1  0
  3 34  1  0
  4 35  1  0
  4 36  1  0
  4 37  1  0
  5 38  1  0
  5 39  1  0
  9 40  1  0
  9 41  1  0
 10 42  1  1
 11 43  1  0
 12 44  1  0
 12 45  1  0
 13 46  1  6
 16 47  1  0
 17 48  1  0
 17 49  1  0
 19 50  1  0
 20 51  1  0
 23 52  1  0
 25 53  1  0
 27 54  1  0
 28 55  1  0
M  END
>  <meeko>  (3) 
{"is_sidechain": [false], "free_energy": -5.152, "intermolecular_energy": -7.677, "internal_energy": -0.469}

$$$$
4w9c_ligand
     RDKit          3D

 55 57  0  0  0  0  0  0  0  0999 V2000
    3.0820   30.9070   18.1740 C   0  0  0  0  0  0  0  0  0  0  0  0
    1.6110   31.1810   17.7990 C   0  0  0  0  0  0  0  0  0  0  0  0
    0.8890   29.8320   17.6520 C   0  0  0  0  0  0  0  0  0  0  0  0
    0.9650   31.9850   18.9390 C   0  0  0  0  0  0  0  0  0  0  0  0
    1.5990   31.9690   16.4700 C   0  0  0  0  0  0  0  0  0  0  0  0
    0.5230   33.0370   16.3590 C   0  0  0  0  0  0  0  0  0  0  0  0
   -0.6730   32.7690   16.2920 O   0  0  0  0  0  0  0  0  0  0  0  0
    1.0260   34.3540   16.2790 N   0  0  0  0  0  0  0  0  0  0  0  0
    1.4530   34.6630   14.9090 C   0  0  0  0  0  0  0  0  0  0  0  0
    0.2950   35.4280   14.2330 C   0  0  2  0  0  0  0  0  0  0  0  0
    0.7300   36.7120   13.7850 O   0  0  0  0  0  0  0  0  0  0  0  0
   -0.7750   35.5810   15.3130 C   0  0  0  0  0  0  0  0  0  0  0  0
    0.0340   35.3960   16.5900 C   0  0  1  0  0  0  0  0  0  0  0  0
   -0.7930   35.2570   17.8780 C   0  0  0  0  0  0  0  0  0  0  0  0
   -0.2970   35.2740   19.0000 O   0  0  0  0  0  0  0  0  0  0  0  0
   -2.1230   34.9700   17.6460 N   0  0  0  0  0  0  0  0  0  0  0  0
   -3.0790   34.8410   18.7220 C   0  0  0  0  0  0  0  0  0  0  0  0
   -3.6300   33.4410   18.7750 C   0  0  0  0  0  0  0  0  0  0  0  0
   -2.8110   32.3750   19.1650 C   0  0  0  0  0  0  0  0  0  0  0  0
   -3.3260   31.0780   19.2600 C   0  0  0  0  0  0  0  0  0  0  0  0
   -4.6730   30.8150   18.9740 C   0  0  0  0  0  0  0  0  0  0  0  0
   -5.2220   29.4710   19.0860 C   0  0  0  0  0  0  0  0  0  0  0  0
   -5.5290   28.4500   18.2100 C   0  0  0  0  0  0  0  0  0  0  0  0
   -6.0430   27.3720   18.8870 N   0  0  0  0  0  0  0  0  0  0  0  0
   -6.0310   27.7700   20.1380 C   0  0  0  0  0  0  0  0  0  0  0  0
   -5.5490   29.0250   20.3430 O   0  0  0  0  0  0  0  0  0  0  0  0
   -5.4890   31.8860   18.5850 C   0  0  0  0  0  0  0  0  0  0  0  0
   -4.9760   33.1850   18.4890 C   0  0  0  0  0  0  0  0  0  0  0  0
    3.1838   30.8880   19.2691 H   0  0  0  0  0  0  0  0  0  0  0  0
    3.3911   29.9358   17.7601 H   0  0  0  0  0  0  0  0  0  0  0  0
    3.7200   31.7017   17.7601 H   0  0  0  0  0  0  0  0  0  0  0  0
    0.6700   29.4228   18.6493 H   0  0  0  0  0  0  0  0  0  0  0  0
   -0.0517   29.9777   17.1008 H   0  0  0  0  0  0  0  0  0  0  0  0
    1.5320   29.1301   17.1008 H   0  0  0  0  0  0  0  0  0  0  0  0
    1.2926   31.5772   19.9067 H   0  0  0  0  0  0  0  0  0  0  0  0
    1.2702   33.0391   18.8630 H   0  0  0  0  0  0  0  0  0  0  0  0
   -0.1301   31.9140   18.8630 H   0  0  0  0  0  0  0  0  0  0  0  0
    2.5773   32.4588   16.3563 H   0  0  0  0  0  0  0  0  0  0  0  0
    1.3807   31.2335   15.6817 H   0  0  0  0  0  0  0  0  0  0  0  0
    2.3578   35.2883   14.9280 H   0  0  0  0  0  0  0  0  0  0  0  0
    1.6888   33.7419   14.3558 H   0  0  0  0  0  0  0  0  0  0  0  0
   -0.0820   34.8922   13.3494 H   0  0  0  0  0  0  0  0  0  0  0  0
    0.5990   37.3600   14.4970 H   0  0  0  0  0  0  0  0  0  0  0  0
   -1.2407   36.5769   15.2758 H   0  0  0  0  0  0  0  0  0  0  0  0
   -1.6112   34.8735   15.2117 H   0  0  0  0  0  0  0  0  0  0  0  0
    0.5696   36.3130   16.8769 H   0  0  0  0  0  0  0  0  0  0  0  0
   -2.4750   35.0480   16.7010 H   0  0  0  0  0  0  0  0  0  0  0  0
   -2.5826   35.0707   19.6764 H   0  0  0  0  0  0  0  0  0  0  0  0
   -3.9080   35.5424   18.5464 H   0  0  0  0  0  0  0  0  0  0  0  0
   -1.7521   32.5590   19.3991 H   0  0  0  0  0  0  0  0  0  0  0  0
   -2.6649   30.2528   19.5634 H   0  0  0  0  0  0  0  0  0  0  0  0
   -5.3823   28.4938   17.1207 H   0  0  0  0  0  0  0  0  0  0  0  0
   -6.3857   27.1334   20.9620 H   0  0  0  0  0  0  0  0  0  0  0  0
   -6.5483   31.7032   18.3516 H   0  0  0  0  0  0  0  0  0  0  0  0
   -5.6361   34.0112   18.1863 H   0  0  0  0  0  0  0  0  0  0  0  0
  1  2  1  0
  2  3  1  0
  2  4  1  0
  2  5  1  0
  5  6  1  0
  6  7  2  0
  6  8  1  0
  8  9  1  0
  9 10  1  0
 10 11  1  0
 10 12  1  0
 12 13  1  0
 13 14  1  0
 14 15  2  0
 14 16  1  0
 16 17  1  0
 17 18  1  0
 18 19  2  0
 19 20  1  0
 20 21  2  0
 21 22  1  0
 22 23  2  0
 23 24  1  0
 24 25  2  0
 25 26  1  0
 21 27  1  0
 27 28  2  0
 13  8  1  0
 28 18  1  0
 26 22  1  0
  1 29  1  0
  1 30  1  0
  1 31  1  0
  3 32  1  0
  3 33  1  0
  3 34  1  0
  4 35  1  0
  4 36  1  0
  4 37  1  0
  5 38  1  0
  5 39  1  0
  9 40  1  0
  9 41  1  0
 10 42  1  6
 11 43  1  0
 12 44  1  0
 12 45  1  0
 13 46  1  1
 16 47  1  0
 17 48  1  0
 17 49  1  0
 19 50  1  0
 20 51  1  0
 23 52  1  0
 25 53  1  0
 27 54  1  0
 28 55  1  0
M  END
>  <meeko>  (4) 
{"is_sidechain": [false], "free_energy": -5.124, "intermolecular_energy": -7.244, "internal_energy": -0.861}

$$$$
4w9c_ligand
     RDKit          3D

 55 57  0  0  0  0  0  0  0  0999 V2000
   -6.6330   36.8590   20.5860 C   0  0  0  0  0  0  0  0  0  0  0  0
   -5.6990   36.4750   19.4200 C   0  0  0  0  0  0  0  0  0  0  0  0
   -6.5610   36.1950   18.1800 C   0  0  0  0  0  0  0  0  0  0  0  0
   -4.7660   37.6650   19.1380 C   0  0  0  0  0  0  0  0  0  0  0  0
   -4.9040   35.2180   19.8430 C   0  0  0  0  0  0  0  0  0  0  0  0
   -3.4080   35.2800   19.5830 C   0  0  0  0  0  0  0  0  0  0  0  0
   -2.6060   35.6880   20.4180 O   0  0  0  0  0  0  0  0  0  0  0  0
   -3.0350   34.8850   18.2790 N   0  0  0  0  0  0  0  0  0  0  0  0
   -1.7900   35.5470   17.8740 C   0  0  0  0  0  0  0  0  0  0  0  0
   -0.6380   34.5540   18.1370 C   0  0  2  0  0  0  0  0  0  0  0  0
    0.0770   34.2780   16.9330 O   0  0  0  0  0  0  0  0  0  0  0  0
   -1.3100   33.2830   18.6540 C   0  0  0  0  0  0  0  0  0  0  0  0
   -2.7370   33.4500   18.1490 C   0  0  1  0  0  0  0  0  0  0  0  0
   -3.7530   32.4380   18.7030 C   0  0  0  0  0  0  0  0  0  0  0  0
   -3.5080   31.6880   19.6430 O   0  0  0  0  0  0  0  0  0  0  0  0
   -4.9100   32.3560   17.9550 N   0  0  0  0  0  0  0  0  0  0  0  0
   -6.0080   31.4950   18.3310 C   0  0  0  0  0  0  0  0  0  0  0  0
   -7.0560   32.2730   19.0800 C   0  0  0  0  0  0  0  0  0  0  0  0
   -6.9090   32.5160   20.4510 C   0  0  0  0  0  0  0  0  0  0  0  0
   -7.8550   33.2770   21.1460 C   0  0  0  0  0  0  0  0  0  0  0  0
   -8.9690   33.8170   20.4880 C   0  0  0  0  0  0  0  0  0  0  0  0
   -9.9510   34.6230   21.2000 C   0  0  0  0  0  0  0  0  0  0  0  0
   -9.9710   35.8740   21.7800 C   0  0  0  0  0  0  0  0  0  0  0  0
  -11.2020   36.1280   22.3340 N   0  0  0  0  0  0  0  0  0  0  0  0
  -11.8790   35.0340   22.0740 C   0  0  0  0  0  0  0  0  0  0  0  0
  -11.1960   34.0770   21.3910 O   0  0  0  0  0  0  0  0  0  0  0  0
   -9.1110   33.5700   19.1150 C   0  0  0  0  0  0  0  0  0  0  0  0
   -8.1660   32.8100   18.4170 C   0  0  0  0  0  0  0  0  0  0  0  0
   -6.1300   36.6522   21.5421 H   0  0  0  0  0  0  0  0  0  0  0  0
   -6.8760   37.9300   20.5237 H   0  0  0  0  0  0  0  0  0  0  0  0
   -7.5591   36.2687   20.5237 H   0  0  0  0  0  0  0  0  0  0  0  0
   -7.5631   35.8695   18.4960 H   0  0  0  0  0  0  0  0  0  0  0  0
   -6.6461   37.1117   17.5780 H   0  0  0  0  0  0  0  0  0  0  0  0
   -6.0912   35.4033   17.5780 H   0  0  0  0  0  0  0  0  0  0  0  0
   -4.4263   38.0983   20.0903 H   0  0  0  0  0  0  0  0  0  0  0  0
   -3.8954   37.3197   18.5610 H   0  0  0  0  0  0  0  0  0  0  0  0
   -5.3091   38.4280   18.5610 H   0  0  0  0  0  0  0  0  0  0  0  0
   -5.0558   35.0666   20.9219 H   0  0  0  0  0  0  0  0  0  0  0  0
   -5.2870   34.3926   19.2250 H   0  0  0  0  0  0  0  0  0  0  0  0
   -1.8300   35.8032   16.8050 H   0  0  0  0  0  0  0  0  0  0  0  0
   -1.6403   36.4775   18.4413 H   0  0  0  0  0  0  0  0  0  0  0  0
    0.0901   34.9598   18.8548 H   0  0  0  0  0  0  0  0  0  0  0  0
    0.7670   34.9510   16.8100 H   0  0  0  0  0  0  0  0  0  0  0  0
   -0.8397   32.3825   18.2321 H   0  0  0  0  0  0  0  0  0  0  0  0
   -1.2379   33.1558   19.7442 H   0  0  0  0  0  0  0  0  0  0  0  0
   -2.8369   33.1687   17.0903 H   0  0  0  0  0  0  0  0  0  0  0  0
   -5.0730   33.0570   17.2440 H   0  0  0  0  0  0  0  0  0  0  0  0
   -6.4567   31.0638   17.4240 H   0  0  0  0  0  0  0  0  0  0  0  0
   -5.6257   30.6953   18.9823 H   0  0  0  0  0  0  0  0  0  0  0  0
   -6.0410   32.1044   20.9870 H   0  0  0  0  0  0  0  0  0  0  0  0
   -7.7230   33.4541   22.2236 H   0  0  0  0  0  0  0  0  0  0  0  0
   -9.1201   36.5710   21.7967 H   0  0  0  0  0  0  0  0  0  0  0  0
  -12.9252   34.9008   22.3866 H   0  0  0  0  0  0  0  0  0  0  0  0
   -9.9791   33.9802   18.5782 H   0  0  0  0  0  0  0  0  0  0  0  0
   -8.2962   32.6331   17.3392 H   0  0  0  0  0  0  0  0  0  0  0  0
  1  2  1  0
  2  3  1  0
  2  4  1  0
  2  5  1  0
  5  6  1  0
  6  7  2  0
  6  8  1  0
  8  9  1  0
  9 10  1  0
 10 11  1  0
 10 12  1  0
 12 13  1  0
 13 14  1  0
 14 15  2  0
 14 16  1  0
 16 17  1  0
 17 18  1  0
 18 19  2  0
 19 20  1  0
 20 21  2  0
 21 22  1  0
 22 23  2  0
 23 24  1  0
 24 25  2  0
 25 26  1  0
 21 27  1  0
 27 28  2  0
 13  8  1  0
 28 18  1  0
 26 22  1  0
  1 29  1  0
  1 30  1  0
  1 31  1  0
  3 32  1  0
  3 33  1  0
  3 34  1  0
  4 35  1  0
  4 36  1  0
  4 37  1  0
  5 38  1  0
  5 39  1  0
  9 40  1  0
  9 41  1  0
 10 42  1  1
 11 43  1  0
 12 44  1  0
 12 45  1  0
 13 46  1  6
 16 47  1  0
 17 48  1  0
 17 49  1  0
 19 50  1  0
 20 51  1  0
 23 52  1  0
 25 53  1  0
 27 54  1  0
 28 55  1  0
M  END
>  <meeko>  (5) 
{"is_sidechain": [false], "free_energy": -5.117, "intermolecular_energy": -6.574, "internal_energy": -1.521}

$$$$
4w9c_ligand
     RDKit          3D

 55 57  0  0  0  0  0  0  0  0999 V2000
   -4.2850   27.9560   21.7200 C   0  0  0  0  0  0  0  0  0  0  0  0
   -4.7980   26.8330   22.6450 C   0  0  0  0  0  0  0  0  0  0  0  0
   -4.2760   27.0990   24.0660 C   0  0  0  0  0  0  0  0  0  0  0  0
   -6.3350   26.8750   22.6480 C   0  0  0  0  0  0  0  0  0  0  0  0
   -4.2670   25.4880   22.0980 C   0  0  0  0  0  0  0  0  0  0  0  0
   -5.0820   24.2650   22.4850 C   0  0  0  0  0  0  0  0  0  0  0  0
   -5.8160   23.6800   21.6940 O   0  0  0  0  0  0  0  0  0  0  0  0
   -4.9650   23.9030   23.8450 N   0  0  0  0  0  0  0  0  0  0  0  0
   -6.2870   23.6480   24.4290 C   0  0  0  0  0  0  0  0  0  0  0  0
   -6.5130   22.1210   24.3950 C   0  0  2  0  0  0  0  0  0  0  0  0
   -6.7390   21.6140   25.7100 O   0  0  0  0  0  0  0  0  0  0  0  0
   -5.2270   21.5340   23.8170 C   0  0  0  0  0  0  0  0  0  0  0  0
   -4.2240   22.6520   24.0720 C   0  0  1  0  0  0  0  0  0  0  0  0
   -2.8570   22.4770   23.3910 C   0  0  0  0  0  0  0  0  0  0  0  0
   -2.6600   21.6830   22.4760 O   0  0  0  0  0  0  0  0  0  0  0  0
   -1.8460   23.1930   24.0000 N   0  0  0  0  0  0  0  0  0  0  0  0
   -0.4940   23.1970   23.4890 C   0  0  0  0  0  0  0  0  0  0  0  0
   -0.2790   24.3750   22.5760 C   0  0  0  0  0  0  0  0  0  0  0  0
    0.5460   24.2540   21.4510 C   0  0  0  0  0  0  0  0  0  0  0  0
    0.7150   25.3300   20.5730 C   0  0  0  0  0  0  0  0  0  0  0  0
    0.0620   26.5500   20.7940 C   0  0  0  0  0  0  0  0  0  0  0  0
    0.2200   27.6700   19.8760 C   0  0  0  0  0  0  0  0  0  0  0  0
   -0.2630   28.9600   19.7950 C   0  0  0  0  0  0  0  0  0  0  0  0
    0.2280   29.5890   18.6780 N   0  0  0  0  0  0  0  0  0  0  0  0
    0.9850   28.6700   18.1240 C   0  0  0  0  0  0  0  0  0  0  0  0
    1.0340   27.4830   18.7870 O   0  0  0  0  0  0  0  0  0  0  0  0
   -0.7630   26.6660   21.9220 C   0  0  0  0  0  0  0  0  0  0  0  0
   -0.9350   25.5910   22.8020 C   0  0  0  0  0  0  0  0  0  0  0  0
   -3.9047   28.7885   22.3301 H   0  0  0  0  0  0  0  0  0  0  0  0
   -3.4753   27.5669   21.0852 H   0  0  0  0  0  0  0  0  0  0  0  0
   -5.1092   28.3133   21.0852 H   0  0  0  0  0  0  0  0  0  0  0  0
   -5.0058   26.7271   24.8003 H   0  0  0  0  0  0  0  0  0  0  0  0
   -3.3166   26.5799   24.2073 H   0  0  0  0  0  0  0  0  0  0  0  0
   -4.1321   28.1804   24.2073 H   0  0  0  0  0  0  0  0  0  0  0  0
   -6.6995   26.8850   23.6858 H   0  0  0  0  0  0  0  0  0  0  0  0
   -6.6780   27.7829   22.1302 H   0  0  0  0  0  0  0  0  0  0  0  0
   -6.7271   25.9872   22.1302 H   0  0  0  0  0  0  0  0  0  0  0  0
   -4.2482   25.5509   21.0000 H   0  0  0  0  0  0  0  0  0  0  0  0
   -3.2729   25.3469   22.5472 H   0  0  0  0  0  0  0  0  0  0  0  0
   -6.3170   24.0106   25.4671 H   0  0  0  0  0  0  0  0  0  0  0  0
   -7.0718   24.1720   23.8638 H   0  0  0  0  0  0  0  0  0  0  0  0
   -7.3956   21.8558   23.7944 H   0  0  0  0  0  0  0  0  0  0  0  0
   -7.6360   21.8540   25.9960 H   0  0  0  0  0  0  0  0  0  0  0  0
   -4.9383   20.6111   24.3413 H   0  0  0  0  0  0  0  0  0  0  0  0
   -5.3086   21.2450   22.7588 H   0  0  0  0  0  0  0  0  0  0  0  0
   -3.8546   22.6487   25.1081 H   0  0  0  0  0  0  0  0  0  0  0  0
   -2.0960   23.8830   24.6950 H   0  0  0  0  0  0  0  0  0  0  0  0
    0.2111   23.2582   24.3311 H   0  0  0  0  0  0  0  0  0  0  0  0
   -0.3258   22.2706   22.9202 H   0  0  0  0  0  0  0  0  0  0  0  0
    1.0658   23.3044   21.2559 H   0  0  0  0  0  0  0  0  0  0  0  0
    1.3699   25.2167   19.6965 H   0  0  0  0  0  0  0  0  0  0  0  0
   -0.9463   29.4202   20.5239 H   0  0  0  0  0  0  0  0  0  0  0  0
    1.5397   28.8472   17.1908 H   0  0  0  0  0  0  0  0  0  0  0  0
   -1.2825   27.6155   22.1182 H   0  0  0  0  0  0  0  0  0  0  0  0
   -1.5908   25.7026   23.6781 H   0  0  0  0  0  0  0  0  0  0  0  0
  1  2  1  0
  2  3  1  0
  2  4  1  0
  2  5  1  0
  5  6  1  0
  6  7  2  0
  6  8  1  0
  8  9  1  0
  9 10  1  0
 10 11  1  0
 10 12  1  0
 12 13  1  0
 13 14  1  0
 14 15  2  0
 14 16  1  0
 16 17  1  0
 17 18  1  0
 18 19  2  0
 19 20  1  0
 20 21  2  0
 21 22  1  0
 22 23  2  0
 23 24  1  0
 24 25  2  0
 25 26  1  0
 21 27  1  0
 27 28  2  0
 13  8  1  0
 28 18  1  0
 26 22  1  0
  1 29  1  0
  1 30  1  0
  1 31  1  0
  3 32  1  0
  3 33  1  0
  3 34  1  0
  4 35  1  0
  4 36  1  0
  4 37  1  0
  5 38  1  0
  5 39  1  0
  9 40  1  0
  9 41  1  0
 10 42  1  6
 11 43  1  0
 12 44  1  0
 12 45  1  0
 13 46  1  1
 16 47  1  0
 17 48  1  0
 17 49  1  0
 19 50  1  0
 20 51  1  0
 23 52  1  0
 25 53  1  0
 27 54  1  0
 28 55  1  0
M  END
>  <meeko>  (6) 
{"is_sidechain": [false], "free_energy": -5.089, "intermolecular_energy": -6.911, "internal_energy": -1.144}

$$$$
4w9c_ligand
     RDKit          3D

 55 57  0  0  0  0  0  0  0  0999 V2000
   -3.0480   29.4350   19.4570 C   0  0  0  0  0  0  0  0  0  0  0  0
   -4.5340   29.8320   19.5800 C   0  0  0  0  0  0  0  0  0  0  0  0
   -5.2850   29.2850   18.3560 C   0  0  0  0  0  0  0  0  0  0  0  0
   -5.1000   29.1880   20.8570 C   0  0  0  0  0  0  0  0  0  0  0  0
   -4.6090   31.3740   19.6390 C   0  0  0  0  0  0  0  0  0  0  0  0
   -6.0120   31.9520   19.7300 C   0  0  0  0  0  0  0  0  0  0  0  0
   -6.7390   31.7780   20.7040 O   0  0  0  0  0  0  0  0  0  0  0  0
   -6.4220   32.6490   18.5720 N   0  0  0  0  0  0  0  0  0  0  0  0
   -7.8470   32.4210   18.3080 C   0  0  0  0  0  0  0  0  0  0  0  0
   -8.6180   33.6240   18.8920 C   0  0  2  0  0  0  0  0  0  0  0  0
   -9.3730   34.2830   17.8760 O   0  0  0  0  0  0  0  0  0  0  0  0
   -7.5460   34.5630   19.4430 C   0  0  0  0  0  0  0  0  0  0  0  0
   -6.3060   34.1120   18.6810 C   0  0  1  0  0  0  0  0  0  0  0  0
   -4.9780   34.7070   19.1760 C   0  0  0  0  0  0  0  0  0  0  0  0
   -4.8800   35.3630   20.2080 O   0  0  0  0  0  0  0  0  0  0  0  0
   -3.9410   34.5530   18.2780 N   0  0  0  0  0  0  0  0  0  0  0  0
   -2.6000   35.0050   18.5710 C   0  0  0  0  0  0  0  0  0  0  0  0
   -1.6330   33.8510   18.5350 C   0  0  0  0  0  0  0  0  0  0  0  0
   -1.3480   33.1340   19.7030 C   0  0  0  0  0  0  0  0  0  0  0  0
   -0.4870   32.0320   19.6700 C   0  0  0  0  0  0  0  0  0  0  0  0
    0.1060   31.6160   18.4700 C   0  0  0  0  0  0  0  0  0  0  0  0
    0.9910   30.4610   18.4230 C   0  0  0  0  0  0  0  0  0  0  0  0
    2.3520   30.2510   18.5210 C   0  0  0  0  0  0  0  0  0  0  0  0
    2.6430   28.9150   18.3950 N   0  0  0  0  0  0  0  0  0  0  0  0
    1.4630   28.3650   18.2280 C   0  0  0  0  0  0  0  0  0  0  0  0
    0.4130   29.2310   18.2330 O   0  0  0  0  0  0  0  0  0  0  0  0
   -0.1840   32.3380   17.3030 C   0  0  0  0  0  0  0  0  0  0  0  0
   -1.0460   33.4400   17.3330 C   0  0  0  0  0  0  0  0  0  0  0  0
   -2.6150   29.3193   20.4616 H   0  0  0  0  0  0  0  0  0  0  0  0
   -2.9666   28.4836   18.9109 H   0  0  0  0  0  0  0  0  0  0  0  0
   -2.5030   30.2190   18.9109 H   0  0  0  0  0  0  0  0  0  0  0  0
   -6.1319   28.6681   18.6910 H   0  0  0  0  0  0  0  0  0  0  0  0
   -5.6591   30.1236   17.7504 H   0  0  0  0  0  0  0  0  0  0  0  0
   -4.6016   28.6717   17.7504 H   0  0  0  0  0  0  0  0  0  0  0  0
   -4.6665   29.6812   21.7395 H   0  0  0  0  0  0  0  0  0  0  0  0
   -6.1938   29.3040   20.8724 H   0  0  0  0  0  0  0  0  0  0  0  0
   -4.8445   28.1182   20.8724 H   0  0  0  0  0  0  0  0  0  0  0  0
   -4.0455   31.7083   20.5226 H   0  0  0  0  0  0  0  0  0  0  0  0
   -4.1915   31.7360   18.6879 H   0  0  0  0  0  0  0  0  0  0  0  0
   -8.0229   32.3508   17.2244 H   0  0  0  0  0  0  0  0  0  0  0  0
   -8.1838   31.4807   18.7688 H   0  0  0  0  0  0  0  0  0  0  0  0
   -9.3319   33.3085   19.6671 H   0  0  0  0  0  0  0  0  0  0  0  0
   -9.0070   34.0540   17.0050 H   0  0  0  0  0  0  0  0  0  0  0  0
   -7.7869   35.6144   19.2275 H   0  0  0  0  0  0  0  0  0  0  0  0
   -7.4355   34.5161   20.5364 H   0  0  0  0  0  0  0  0  0  0  0  0
   -6.2671   34.5341   17.6659 H   0  0  0  0  0  0  0  0  0  0  0  0
   -4.0750   33.9360   17.4880 H   0  0  0  0  0  0  0  0  0  0  0  0
   -2.2988   35.7528   17.8226 H   0  0  0  0  0  0  0  0  0  0  0  0
   -2.5867   35.4481   19.5777 H   0  0  0  0  0  0  0  0  0  0  0  0
   -1.8053   33.4399   20.6555 H   0  0  0  0  0  0  0  0  0  0  0  0
   -0.2722   31.4840   20.5993 H   0  0  0  0  0  0  0  0  0  0  0  0
    3.0988   31.0432   18.6781 H   0  0  0  0  0  0  0  0  0  0  0  0
    1.3320   27.2811   18.0936 H   0  0  0  0  0  0  0  0  0  0  0  0
    0.2730   32.0335   16.3499 H   0  0  0  0  0  0  0  0  0  0  0  0
   -1.2639   33.9876   16.4042 H   0  0  0  0  0  0  0  0  0  0  0  0
  1  2  1  0
  2  3  1  0
  2  4  1  0
  2  5  1  0
  5  6  1  0
  6  7  2  0
  6  8  1  0
  8  9  1  0
  9 10  1  0
 10 11  1  0
 10 12  1  0
 12 13  1  0
 13 14  1  0
 14 15  2  0
 14 16  1  0
 16 17  1  0
 17 18  1  0
 18 19  2  0
 19 20  1  0
 20 21  2  0
 21 22  1  0
 22 23  2  0
 23 24  1  0
 24 25  2  0
 25 26  1  0
 21 27  1  0
 27 28  2  0
 13  8  1  0
 28 18  1  0
 26 22  1  0
  1 29  1  0
  1 30  1  0
  1 31  1  0
  3 32  1  0
  3 33  1  0
  3 34  1  0
  4 35  1  0
  4 36  1  0
  4 37  1  0
  5 38  1  0
  5 39  1  0
  9 40  1  0
  9 41  1  0
 10 42  1  1
 11 43  1  0
 12 44  1  0
 12 45  1  0
 13 46  1  6
 16 47  1  0
 17 48  1  0
 17 49  1  0
 19 50  1  0
 20 51  1  0
 23 52  1  0
 25 53  1  0
 27 54  1  0
 28 55  1  0
M  END
>  <meeko>  (7) 
{"is_sidechain": [false], "free_energy": -5.04, "intermolecular_energy": -6.946, "internal_energy": -1.04}

$$$$
4w9c_ligand
     RDKit          3D

 55 57  0  0  0  0  0  0  0  0999 V2000
    0.2230   32.3200   16.8410 C   0  0  0  0  0  0  0  0  0  0  0  0
   -0.5120   32.8580   18.0850 C   0  0  0  0  0  0  0  0  0  0  0  0
    0.3450   33.9690   18.7130 C   0  0  0  0  0  0  0  0  0  0  0  0
   -1.8590   33.4460   17.6320 C   0  0  0  0  0  0  0  0  0  0  0  0
   -0.7070   31.6800   19.0670 C   0  0  0  0  0  0  0  0  0  0  0  0
    0.4260   30.6680   19.0970 C   0  0  0  0  0  0  0  0  0  0  0  0
    1.5180   30.9090   19.6040 O   0  0  0  0  0  0  0  0  0  0  0  0
    0.1300   29.4540   18.4380 N   0  0  0  0  0  0  0  0  0  0  0  0
    1.3520   28.8450   17.9010 C   0  0  0  0  0  0  0  0  0  0  0  0
    1.8190   27.7830   18.9190 C   0  0  2  0  0  0  0  0  0  0  0  0
    1.8870   26.4940   18.3110 O   0  0  0  0  0  0  0  0  0  0  0  0
    0.7630   27.7900   20.0240 C   0  0  0  0  0  0  0  0  0  0  0  0
   -0.4320   28.4160   19.3170 C   0  0  1  0  0  0  0  0  0  0  0  0
   -1.6130   28.7890   20.2280 C   0  0  0  0  0  0  0  0  0  0  0  0
   -1.5130   28.8970   21.4460 O   0  0  0  0  0  0  0  0  0  0  0  0
   -2.8200   28.8500   19.5620 N   0  0  0  0  0  0  0  0  0  0  0  0
   -4.0460   29.2250   20.2290 C   0  0  0  0  0  0  0  0  0  0  0  0
   -4.4710   30.6090   19.8160 C   0  0  0  0  0  0  0  0  0  0  0  0
   -5.3390   30.7870   18.7320 C   0  0  0  0  0  0  0  0  0  0  0  0
   -5.7740   32.0660   18.3700 C   0  0  0  0  0  0  0  0  0  0  0  0
   -5.3570   33.1980   19.0850 C   0  0  0  0  0  0  0  0  0  0  0  0
   -5.8180   34.5320   18.7250 C   0  0  0  0  0  0  0  0  0  0  0  0
   -7.0310   35.1090   18.4090 C   0  0  0  0  0  0  0  0  0  0  0  0
   -6.8720   36.4460   18.1390 N   0  0  0  0  0  0  0  0  0  0  0  0
   -5.5820   36.6330   18.2970 C   0  0  0  0  0  0  0  0  0  0  0  0
   -4.8750   35.5270   18.6520 O   0  0  0  0  0  0  0  0  0  0  0  0
   -4.4880   33.0140   20.1690 C   0  0  0  0  0  0  0  0  0  0  0  0
   -4.0520   31.7360   20.5340 C   0  0  0  0  0  0  0  0  0  0  0  0
    1.0730   31.6978   17.1578 H   0  0  0  0  0  0  0  0  0  0  0  0
   -0.4703   31.7144   16.2388 H   0  0  0  0  0  0  0  0  0  0  0  0
    0.5907   33.1639   16.2388 H   0  0  0  0  0  0  0  0  0  0  0  0
    0.2906   33.8985   19.8094 H   0  0  0  0  0  0  0  0  0  0  0  0
    1.3900   33.8532   18.3895 H   0  0  0  0  0  0  0  0  0  0  0  0
   -0.0324   34.9503   18.3895 H   0  0  0  0  0  0  0  0  0  0  0  0
   -2.4601   33.7084   18.5151 H   0  0  0  0  0  0  0  0  0  0  0  0
   -1.6808   34.3482   17.0285 H   0  0  0  0  0  0  0  0  0  0  0  0
   -2.3995   32.7019   17.0285 H   0  0  0  0  0  0  0  0  0  0  0  0
   -0.8187   32.0958   20.0792 H   0  0  0  0  0  0  0  0  0  0  0  0
   -1.5948   31.1337   18.7157 H   0  0  0  0  0  0  0  0  0  0  0  0
    1.1416   28.3704   16.9312 H   0  0  0  0  0  0  0  0  0  0  0  0
    2.1312   29.6057   17.7456 H   0  0  0  0  0  0  0  0  0  0  0  0
    2.8245   28.0071   19.3046 H   0  0  0  0  0  0  0  0  0  0  0  0
    2.4130   26.5520   17.4960 H   0  0  0  0  0  0  0  0  0  0  0  0
    0.5355   26.7695   20.3657 H   0  0  0  0  0  0  0  0  0  0  0  0
    1.0740   28.3294   20.9309 H   0  0  0  0  0  0  0  0  0  0  0  0
   -0.9721   27.6879   18.6940 H   0  0  0  0  0  0  0  0  0  0  0  0
   -2.8140   28.8270   18.5510 H   0  0  0  0  0  0  0  0  0  0  0  0
   -4.8369   28.5089   19.9615 H   0  0  0  0  0  0  0  0  0  0  0  0
   -3.8762   29.2153   21.3158 H   0  0  0  0  0  0  0  0  0  0  0  0
   -5.6821   29.9126   18.1596 H   0  0  0  0  0  0  0  0  0  0  0  0
   -6.4526   32.1856   17.5126 H   0  0  0  0  0  0  0  0  0  0  0  0
   -7.9910   34.5730   18.3778 H   0  0  0  0  0  0  0  0  0  0  0  0
   -5.1070   37.6146   18.1525 H   0  0  0  0  0  0  0  0  0  0  0  0
   -4.1436   33.8879   20.7415 H   0  0  0  0  0  0  0  0  0  0  0  0
   -3.3744   31.6152   21.3921 H   0  0  0  0  0  0  0  0  0  0  0  0
  1  2  1  0
  2  3  1  0
  2  4  1  0
  2  5  1  0
  5  6  1  0
  6  7  2  0
  6  8  1  0
  8  9  1  0
  9 10  1  0
 10 11  1  0
 10 12  1  0
 12 13  1  0
 13 14  1  0
 14 15  2  0
 14 16  1  0
 16 17  1  0
 17 18  1  0
 18 19  2  0
 19 20  1  0
 20 21  2  0
 21 22  1  0
 22 23  2  0
 23 24  1  0
 24 25  2  0
 25 26  1  0
 21 27  1  0
 27 28  2  0
 13  8  1  0
 28 18  1  0
 26 22  1  0
  1 29  1  0
  1 30  1  0
  1 31  1  0
  3 32  1  0
  3 33  1  0
  3 34  1  0
  4 35  1  0
  4 36  1  0
  4 37  1  0
  5 38  1  0
  5 39  1  0
  9 40  1  0
  9 41  1  0
 10 42  1  1
 11 43  1  0
 12 44  1  0
 12 45  1  0
 13 46  1  6
 16 47  1  0
 17 48  1  0
 17 49  1  0
 19 50  1  0
 20 51  1  0
 23 52  1  0
 25 53  1  0
 27 54  1  0
 28 55  1  0
M  END
>  <meeko>  (8) 
{"is_sidechain": [false], "free_energy": -5.033, "intermolecular_energy": -6.814, "internal_energy": -1.161}

$$$$
4w9c_ligand
     RDKit          3D

 55 57  0  0  0  0  0  0  0  0999 V2000
   -5.4210   18.4370   25.6670 C   0  0  0  0  0  0  0  0  0  0  0  0
   -4.1960   19.1970   26.2180 C   0  0  0  0  0  0  0  0  0  0  0  0
   -3.8100   18.5780   27.5700 C   0  0  0  0  0  0  0  0  0  0  0  0
   -3.0350   19.0240   25.2250 C   0  0  0  0  0  0  0  0  0  0  0  0
   -4.5920   20.6830   26.3760 C   0  0  0  0  0  0  0  0  0  0  0  0
   -3.9850   21.6270   25.3520 C   0  0  0  0  0  0  0  0  0  0  0  0
   -3.0260   22.3520   25.6040 O   0  0  0  0  0  0  0  0  0  0  0  0
   -4.6590   21.6400   24.1110 N   0  0  0  0  0  0  0  0  0  0  0  0
   -5.9930   22.2330   24.2520 C   0  0  0  0  0  0  0  0  0  0  0  0
   -5.8830   23.7110   23.8200 C   0  0  2  0  0  0  0  0  0  0  0  0
   -6.7700   23.9900   22.7370 O   0  0  0  0  0  0  0  0  0  0  0  0
   -4.4330   23.8970   23.3760 C   0  0  0  0  0  0  0  0  0  0  0  0
   -4.0060   22.4640   23.0810 C   0  0  1  0  0  0  0  0  0  0  0  0
   -2.5030   22.2660   22.8290 C   0  0  0  0  0  0  0  0  0  0  0  0
   -2.0080   21.1800   22.5430 O   0  0  0  0  0  0  0  0  0  0  0  0
   -1.7490   23.3910   23.0950 N   0  0  0  0  0  0  0  0  0  0  0  0
   -0.3200   23.4260   22.8820 C   0  0  0  0  0  0  0  0  0  0  0  0
    0.0510   24.5650   21.9700 C   0  0  0  0  0  0  0  0  0  0  0  0
    1.0610   24.4050   21.0150 C   0  0  0  0  0  0  0  0  0  0  0  0
    1.3810   25.4430   20.1340 C   0  0  0  0  0  0  0  0  0  0  0  0
    0.6950   26.6650   20.1810 C   0  0  0  0  0  0  0  0  0  0  0  0
    1.0110   27.7450   19.2580 C   0  0  0  0  0  0  0  0  0  0  0  0
    0.3200   28.4690   18.3070 C   0  0  0  0  0  0  0  0  0  0  0  0
    1.1440   29.3920   17.7120 N   0  0  0  0  0  0  0  0  0  0  0  0
    2.2940   29.2000   18.3150 C   0  0  0  0  0  0  0  0  0  0  0  0
    2.2970   28.2240   19.2620 O   0  0  0  0  0  0  0  0  0  0  0  0
   -0.3160   26.8200   21.1400 C   0  0  0  0  0  0  0  0  0  0  0  0
   -0.6390   25.7830   22.0220 C   0  0  0  0  0  0  0  0  0  0  0  0
   -6.0267   18.0612   26.5048 H   0  0  0  0  0  0  0  0  0  0  0  0
   -6.0282   19.1172   25.0517 H   0  0  0  0  0  0  0  0  0  0  0  0
   -5.0812   17.5908   25.0517 H   0  0  0  0  0  0  0  0  0  0  0  0
   -4.2008   19.2047   28.3852 H   0  0  0  0  0  0  0  0  0  0  0  0
   -4.2385   17.5678   27.6465 H   0  0  0  0  0  0  0  0  0  0  0  0
   -2.7143   18.5183   27.6465 H   0  0  0  0  0  0  0  0  0  0  0  0
   -2.0956   18.8840   25.7800 H   0  0  0  0  0  0  0  0  0  0  0  0
   -3.2217   18.1438   24.5923 H   0  0  0  0  0  0  0  0  0  0  0  0
   -2.9570   19.9204   24.5923 H   0  0  0  0  0  0  0  0  0  0  0  0
   -5.6869   20.7536   26.2968 H   0  0  0  0  0  0  0  0  0  0  0  0
   -4.2005   21.0008   27.3536 H   0  0  0  0  0  0  0  0  0  0  0  0
   -6.7106   21.7043   23.6074 H   0  0  0  0  0  0  0  0  0  0  0  0
   -6.3475   22.1548   25.2904 H   0  0  0  0  0  0  0  0  0  0  0  0
   -6.1560   24.3925   24.6392 H   0  0  0  0  0  0  0  0  0  0  0  0
   -6.3970   23.6250   21.9170 H   0  0  0  0  0  0  0  0  0  0  0  0
   -4.3681   24.5267   22.4764 H   0  0  0  0  0  0  0  0  0  0  0  0
   -3.8022   24.4033   24.1215 H   0  0  0  0  0  0  0  0  0  0  0  0
   -4.3502   22.1234   22.0933 H   0  0  0  0  0  0  0  0  0  0  0  0
   -2.2310   24.2670   23.2500 H   0  0  0  0  0  0  0  0  0  0  0  0
    0.1868   23.5574   23.8494 H   0  0  0  0  0  0  0  0  0  0  0  0
   -0.0074   22.4806   22.4146 H   0  0  0  0  0  0  0  0  0  0  0  0
    1.6090   23.4530   20.9565 H   0  0  0  0  0  0  0  0  0  0  0  0
    2.1820   25.2988   19.3940 H   0  0  0  0  0  0  0  0  0  0  0  0
   -0.7425   28.3263   18.0604 H   0  0  0  0  0  0  0  0  0  0  0  0
    3.1918   29.7871   18.0715 H   0  0  0  0  0  0  0  0  0  0  0  0
   -0.8639   27.7719   21.1999 H   0  0  0  0  0  0  0  0  0  0  0  0
   -1.4406   25.9252   22.7617 H   0  0  0  0  0  0  0  0  0  0  0  0
  1  2  1  0
  2  3  1  0
  2  4  1  0
  2  5  1  0
  5  6  1  0
  6  7  2  0
  6  8  1  0
  8  9  1  0
  9 10  1  0
 10 11  1  0
 10 12  1  0
 12 13  1  0
 13 14  1  0
 14 15  2  0
 14 16  1  0
 16 17  1  0
 17 18  1  0
 18 19  2  0
 19 20  1  0
 20 21  2  0
 21 22  1  0
 22 23  2  0
 23 24  1  0
 24 25  2  0
 25 26  1  0
 21 27  1  0
 27 28  2  0
 13  8  1  0
 28 18  1  0
 26 22  1  0
  1 29  1  0
  1 30  1  0
  1 31  1  0
  3 32  1  0
  3 33  1  0
  3 34  1  0
  4 35  1  0
  4 36  1  0
  4 37  1  0
  5 38  1  0
  5 39  1  0
  9 40  1  0
  9 41  1  0
 10 42  1  1
 11 43  1  0
 12 44  1  0
 12 45  1  0
 13 46  1  6
 16 47  1  0
 17 48  1  0
 17 49  1  0
 19 50  1  0
 20 51  1  0
 23 52  1  0
 25 53  1  0
 27 54  1  0
 28 55  1  0
M  END
>  <meeko>  (9) 
{"is_sidechain": [false], "free_energy": -4.979, "intermolecular_energy": -7.507, "internal_energy": -0.39}

$$$$
