4f9w_ligand
     RDKit          3D

 43 46  0  0  0  0  0  0  0  0999 V2000
   -7.1610   -1.3890   10.7550 C   0  0  0  0  0  0  0  0  0  0  0  0
   -7.8780   -0.1480   10.4490 N   0  0  0  0  0  0  0  0  0  0  0  0
   -8.9210   -0.2990    9.4330 C   0  0  0  0  0  0  0  0  0  0  0  0
   -7.0020    0.9270   10.1750 C   0  0  0  0  0  0  0  0  0  0  0  0
   -5.7140    0.9260   10.7020 C   0  0  0  0  0  0  0  0  0  0  0  0
   -4.8110    1.9740   10.4380 C   0  0  0  0  0  0  0  0  0  0  0  0
   -3.4740    1.9350   11.0580 C   0  0  0  0  0  0  0  0  0  0  0  0
   -2.3130    1.8460   10.2810 C   0  0  0  0  0  0  0  0  0  0  0  0
   -1.0820    1.8130   10.9160 C   0  0  0  0  0  0  0  0  0  0  0  0
   -0.9250    1.8690   12.2530 N   0  0  0  0  0  0  0  0  0  0  0  0
   -2.0500    1.9610   12.9910 C   0  0  0  0  0  0  0  0  0  0  0  0
   -3.3250    1.9980   12.4500 C   0  0  0  0  0  0  0  0  0  0  0  0
   -5.2600    3.0120    9.6130 C   0  0  0  0  0  0  0  0  0  0  0  0
   -4.4640    4.1860    9.2120 C   0  0  0  0  0  0  0  0  0  0  0  0
   -4.0900    5.1780   10.1300 C   0  0  0  0  0  0  0  0  0  0  0  0
   -3.3500    6.2930    9.7260 C   0  0  0  0  0  0  0  0  0  0  0  0
   -2.9490    6.4430    8.3920 C   0  0  0  0  0  0  0  0  0  0  0  0
   -2.2080    7.5580    7.9700 C   0  0  0  0  0  0  0  0  0  0  0  0
   -1.8120    7.6880    6.6380 C   0  0  0  0  0  0  0  0  0  0  0  0
   -2.1520    6.7060    5.7130 C   0  0  0  0  0  0  0  0  0  0  0  0
   -2.8890    5.5920    6.1180 C   0  0  0  0  0  0  0  0  0  0  0  0
   -3.2970    5.4480    7.4530 C   0  0  0  0  0  0  0  0  0  0  0  0
   -4.0430    4.3330    7.8770 C   0  0  0  0  0  0  0  0  0  0  0  0
   -6.5150    2.9960    9.1090 N   0  0  0  0  0  0  0  0  0  0  0  0
   -7.3730    1.9510    9.3830 N   0  0  0  0  0  0  0  0  0  0  0  0
   -7.0899   -1.5120   11.8458 H   0  0  0  0  0  0  0  0  0  0  0  0
   -7.7051   -2.2426   10.3244 H   0  0  0  0  0  0  0  0  0  0  0  0
   -6.1498   -1.3439   10.3244 H   0  0  0  0  0  0  0  0  0  0  0  0
   -9.8946   -0.4400    9.9251 H   0  0  0  0  0  0  0  0  0  0  0  0
   -8.9548    0.6036    8.8052 H   0  0  0  0  0  0  0  0  0  0  0  0
   -8.6974   -1.1741    8.8052 H   0  0  0  0  0  0  0  0  0  0  0  0
   -5.3941    0.0881   11.3389 H   0  0  0  0  0  0  0  0  0  0  0  0
   -2.3770    1.8029    9.1837 H   0  0  0  0  0  0  0  0  0  0  0  0
   -0.1795    1.7366   10.2917 H   0  0  0  0  0  0  0  0  0  0  0  0
   -1.9496    2.0094   14.0853 H   0  0  0  0  0  0  0  0  0  0  0  0
   -4.2067    2.0756   13.1031 H   0  0  0  0  0  0  0  0  0  0  0  0
   -4.3838    5.0770   11.1852 H   0  0  0  0  0  0  0  0  0  0  0  0
   -3.0792    7.0620   10.4645 H   0  0  0  0  0  0  0  0  0  0  0  0
   -1.9365    8.3377    8.6969 H   0  0  0  0  0  0  0  0  0  0  0  0
   -1.2314    8.5664    6.3197 H   0  0  0  0  0  0  0  0  0  0  0  0
   -1.8402    6.8075    4.6630 H   0  0  0  0  0  0  0  0  0  0  0  0
   -3.1531    4.8180    5.3823 H   0  0  0  0  0  0  0  0  0  0  0  0
   -4.3044    3.5547    7.1450 H   0  0  0  0  0  0  0  0  0  0  0  0
  1  2  1  0
  2  3  1  0
  2  4  1  0
  4  5  2  0
  5  6  1  0
  6  7  1  0
  7  8  2  0
  8  9  1  0
  9 10  2  0
 10 11  1  0
 11 12  2  0
  6 13  2  0
 13 14  1  0
 14 15  2  0
 15 16  1  0
 16 17  2  0
 17 18  1  0
 18 19  2  0
 19 20  1  0
 20 21  2  0
 21 22  1  0
 22 23  2  0
 13 24  1  0
 24 25  2  0
 25  4  1  0
 12  7  1  0
 23 14  1  0
 22 17  1  0
  1 26  1  0
  1 27  1  0
  1 28  1  0
  3 29  1  0
  3 30  1  0
  3 31  1  0
  5 32  1  0
  8 33  1  0
  9 34  1  0
 11 35  1  0
 12 36  1  0
 15 37  1  0
 16 38  1  0
 18 39  1  0
 19 40  1  0
 20 41  1  0
 21 42  1  0
 23 43  1  0
M  END
>  <meeko>  (1) 
{"is_sidechain": [false], "free_energy": -8.809, "intermolecular_energy": -10.354, "internal_energy": -0.944}

$$$$
4f9w_ligand
     RDKit          3D

 43 46  0  0  0  0  0  0  0  0999 V2000
   -0.5000   -0.0060   13.8950 C   0  0  0  0  0  0  0  0  0  0  0  0
   -1.9230    0.3120   13.7450 N   0  0  0  0  0  0  0  0  0  0  0  0
   -2.8010   -0.8580   13.7890 C   0  0  0  0  0  0  0  0  0  0  0  0
   -2.1740    1.1410   12.6270 C   0  0  0  0  0  0  0  0  0  0  0  0
   -3.4820    1.4440   12.2660 C   0  0  0  0  0  0  0  0  0  0  0  0
   -3.7680    2.2770   11.1670 C   0  0  0  0  0  0  0  0  0  0  0  0
   -5.1760    2.5290   10.8110 C   0  0  0  0  0  0  0  0  0  0  0  0
   -5.8430    3.6800   11.2450 C   0  0  0  0  0  0  0  0  0  0  0  0
   -7.1670    3.8660   10.8810 C   0  0  0  0  0  0  0  0  0  0  0  0
   -7.8640    3.0020   10.1160 N   0  0  0  0  0  0  0  0  0  0  0  0
   -7.2090    1.9000    9.6990 C   0  0  0  0  0  0  0  0  0  0  0  0
   -5.8880    1.6240   10.0130 C   0  0  0  0  0  0  0  0  0  0  0  0
   -2.6780    2.7990   10.4610 C   0  0  0  0  0  0  0  0  0  0  0  0
   -2.7690    3.6960    9.2950 C   0  0  0  0  0  0  0  0  0  0  0  0
   -3.4310    3.3170    8.1170 C   0  0  0  0  0  0  0  0  0  0  0  0
   -3.4920    4.1760    7.0160 C   0  0  0  0  0  0  0  0  0  0  0  0
   -2.9020    5.4470    7.0630 C   0  0  0  0  0  0  0  0  0  0  0  0
   -2.9520    6.3200    5.9650 C   0  0  0  0  0  0  0  0  0  0  0  0
   -2.3650    7.5850    6.0330 C   0  0  0  0  0  0  0  0  0  0  0  0
   -1.7230    7.9910    7.1980 C   0  0  0  0  0  0  0  0  0  0  0  0
   -1.6650    7.1330    8.2980 C   0  0  0  0  0  0  0  0  0  0  0  0
   -2.2480    5.8570    8.2450 C   0  0  0  0  0  0  0  0  0  0  0  0
   -2.1960    4.9800    9.3430 C   0  0  0  0  0  0  0  0  0  0  0  0
   -1.4120    2.4940   10.8260 N   0  0  0  0  0  0  0  0  0  0  0  0
   -1.1670    1.6780   11.9120 N   0  0  0  0  0  0  0  0  0  0  0  0
   -0.2476   -0.0624   14.9642 H   0  0  0  0  0  0  0  0  0  0  0  0
   -0.2881   -0.9736   13.4167 H   0  0  0  0  0  0  0  0  0  0  0  0
    0.1036    0.7794   13.4167 H   0  0  0  0  0  0  0  0  0  0  0  0
   -3.0023   -1.1262   14.8366 H   0  0  0  0  0  0  0  0  0  0  0  0
   -3.7487   -0.6245   13.2817 H   0  0  0  0  0  0  0  0  0  0  0  0
   -2.3120   -1.7027   13.2817 H   0  0  0  0  0  0  0  0  0  0  0  0
   -4.3124    1.0235   12.8521 H   0  0  0  0  0  0  0  0  0  0  0  0
   -5.3243    4.4256   11.8655 H   0  0  0  0  0  0  0  0  0  0  0  0
   -7.6795    4.7718   11.2372 H   0  0  0  0  0  0  0  0  0  0  0  0
   -7.7547    1.1783    9.0734 H   0  0  0  0  0  0  0  0  0  0  0  0
   -5.4055    0.7080    9.6413 H   0  0  0  0  0  0  0  0  0  0  0  0
   -3.9095    2.3282    8.0592 H   0  0  0  0  0  0  0  0  0  0  0  0
   -4.0093    3.8508    6.1013 H   0  0  0  0  0  0  0  0  0  0  0  0
   -3.4590    6.0042    5.0413 H   0  0  0  0  0  0  0  0  0  0  0  0
   -2.4103    8.2601    5.1657 H   0  0  0  0  0  0  0  0  0  0  0  0
   -1.2610    8.9878    7.2528 H   0  0  0  0  0  0  0  0  0  0  0  0
   -1.1566    7.4607    9.2168 H   0  0  0  0  0  0  0  0  0  0  0  0
   -1.6933    5.3070   10.2651 H   0  0  0  0  0  0  0  0  0  0  0  0
  1  2  1  0
  2  3  1  0
  2  4  1  0
  4  5  2  0
  5  6  1  0
  6  7  1  0
  7  8  2  0
  8  9  1  0
  9 10  2  0
 10 11  1  0
 11 12  2  0
  6 13  2  0
 13 14  1  0
 14 15  2  0
 15 16  1  0
 16 17  2  0
 17 18  1  0
 18 19  2  0
 19 20  1  0
 20 21  2  0
 21 22  1  0
 22 23  2  0
 13 24  1  0
 24 25  2  0
 25  4  1  0
 12  7  1  0
 23 14  1  0
 22 17  1  0
  1 26  1  0
  1 27  1  0
  1 28  1  0
  3 29  1  0
  3 30  1  0
  3 31  1  0
  5 32  1  0
  8 33  1  0
  9 34  1  0
 11 35  1  0
 12 36  1  0
 15 37  1  0
 16 38  1  0
 18 39  1  0
 19 40  1  0
 20 41  1  0
 21 42  1  0
 23 43  1  0
M  END
>  <meeko>  (2) 
{"is_sidechain": [false], "free_energy": -8.16, "intermolecular_energy": -9.62, "internal_energy": -0.916}

$$$$
4f9w_ligand
     RDKit          3D

 43 46  0  0  0  0  0  0  0  0999 V2000
   -4.9020   -2.5580   11.8940 C   0  0  0  0  0  0  0  0  0  0  0  0
   -4.1830   -2.4450   10.6230 N   0  0  0  0  0  0  0  0  0  0  0  0
   -2.9890   -3.2870   10.5390 C   0  0  0  0  0  0  0  0  0  0  0  0
   -3.9290   -1.1010   10.2650 C   0  0  0  0  0  0  0  0  0  0  0  0
   -4.9030   -0.1300   10.4710 C   0  0  0  0  0  0  0  0  0  0  0  0
   -4.6780    1.2200   10.1390 C   0  0  0  0  0  0  0  0  0  0  0  0
   -5.7650    2.1940   10.3450 C   0  0  0  0  0  0  0  0  0  0  0  0
   -6.8340    2.2950    9.4470 C   0  0  0  0  0  0  0  0  0  0  0  0
   -7.8290    3.2290    9.6900 C   0  0  0  0  0  0  0  0  0  0  0  0
   -7.8400    4.0530   10.7560 N   0  0  0  0  0  0  0  0  0  0  0  0
   -6.8080    3.9430   11.6170 C   0  0  0  0  0  0  0  0  0  0  0  0
   -5.7660    3.0430   11.4600 C   0  0  0  0  0  0  0  0  0  0  0  0
   -3.4260    1.5460    9.6050 C   0  0  0  0  0  0  0  0  0  0  0  0
   -2.9960    2.8990    9.2080 C   0  0  0  0  0  0  0  0  0  0  0  0
   -2.2090    3.7030   10.0450 C   0  0  0  0  0  0  0  0  0  0  0  0
   -1.8260    4.9910    9.6570 C   0  0  0  0  0  0  0  0  0  0  0  0
   -2.2090    5.5090    8.4130 C   0  0  0  0  0  0  0  0  0  0  0  0
   -1.8340    6.8010    8.0090 C   0  0  0  0  0  0  0  0  0  0  0  0
   -2.2190    7.2980    6.7630 C   0  0  0  0  0  0  0  0  0  0  0  0
   -2.9820    6.5100    5.9070 C   0  0  0  0  0  0  0  0  0  0  0  0
   -3.3610    5.2240    6.2940 C   0  0  0  0  0  0  0  0  0  0  0  0
   -2.9840    4.7100    7.5450 C   0  0  0  0  0  0  0  0  0  0  0  0
   -3.3620    3.4180    7.9520 C   0  0  0  0  0  0  0  0  0  0  0  0
   -2.4900    0.5890    9.4120 N   0  0  0  0  0  0  0  0  0  0  0  0
   -2.7420   -0.7240    9.7530 N   0  0  0  0  0  0  0  0  0  0  0  0
   -4.1929   -2.4466   12.7275 H   0  0  0  0  0  0  0  0  0  0  0  0
   -5.6660   -1.7689   11.9545 H   0  0  0  0  0  0  0  0  0  0  0  0
   -5.3871   -3.5434   11.9545 H   0  0  0  0  0  0  0  0  0  0  0  0
   -2.6412   -3.5323   11.5533 H   0  0  0  0  0  0  0  0  0  0  0  0
   -3.2318   -4.2148   10.0003 H   0  0  0  0  0  0  0  0  0  0  0  0
   -2.1966   -2.7468   10.0003 H   0  0  0  0  0  0  0  0  0  0  0  0
   -5.8712   -0.4231   10.9031 H   0  0  0  0  0  0  0  0  0  0  0  0
   -6.8837    1.6433    8.5622 H   0  0  0  0  0  0  0  0  0  0  0  0
   -8.6580    3.3017    8.9706 H   0  0  0  0  0  0  0  0  0  0  0  0
   -6.7924    4.6059   12.4946 H   0  0  0  0  0  0  0  0  0  0  0  0
   -4.9525    2.9957   12.1989 H   0  0  0  0  0  0  0  0  0  0  0  0
   -1.8876    3.3144   11.0226 H   0  0  0  0  0  0  0  0  0  0  0  0
   -1.2167    5.6047   10.3368 H   0  0  0  0  0  0  0  0  0  0  0  0
   -1.2304    7.4278    8.6819 H   0  0  0  0  0  0  0  0  0  0  0  0
   -1.9196    8.3116    6.4580 H   0  0  0  0  0  0  0  0  0  0  0  0
   -3.2865    6.9009    4.9249 H   0  0  0  0  0  0  0  0  0  0  0  0
   -3.9621    4.6058    5.6110 H   0  0  0  0  0  0  0  0  0  0  0  0
   -3.9602    2.7959    7.2699 H   0  0  0  0  0  0  0  0  0  0  0  0
  1  2  1  0
  2  3  1  0
  2  4  1  0
  4  5  2  0
  5  6  1  0
  6  7  1  0
  7  8  2  0
  8  9  1  0
  9 10  2  0
 10 11  1  0
 11 12  2  0
  6 13  2  0
 13 14  1  0
 14 15  2  0
 15 16  1  0
 16 17  2  0
 17 18  1  0
 18 19  2  0
 19 20  1  0
 20 21  2  0
 21 22  1  0
 22 23  2  0
 13 24  1  0
 24 25  2  0
 25  4  1  0
 12  7  1  0
 23 14  1  0
 22 17  1  0
  1 26  1  0
  1 27  1  0
  1 28  1  0
  3 29  1  0
  3 30  1  0
  3 31  1  0
  5 32  1  0
  8 33  1  0
  9 34  1  0
 11 35  1  0
 12 36  1  0
 15 37  1  0
 16 38  1  0
 18 39  1  0
 19 40  1  0
 20 41  1  0
 21 42  1  0
 23 43  1  0
M  END
>  <meeko>  (3) 
{"is_sidechain": [false], "free_energy": -8.136, "intermolecular_energy": -9.34, "internal_energy": -1.167}

$$$$
4f9w_ligand
     RDKit          3D

 43 46  0  0  0  0  0  0  0  0999 V2000
    2.4550    2.9640   10.1450 C   0  0  0  0  0  0  0  0  0  0  0  0
    1.6630    3.4930   11.2580 N   0  0  0  0  0  0  0  0  0  0  0  0
    2.1540    3.0960   12.5790 C   0  0  0  0  0  0  0  0  0  0  0  0
    0.2790    3.2540   11.0960 C   0  0  0  0  0  0  0  0  0  0  0  0
   -0.4450    3.9720   10.1500 C   0  0  0  0  0  0  0  0  0  0  0  0
   -1.8210    3.7490    9.9530 C   0  0  0  0  0  0  0  0  0  0  0  0
   -2.5400    4.5700    8.9620 C   0  0  0  0  0  0  0  0  0  0  0  0
   -3.2690    3.9840    7.9200 C   0  0  0  0  0  0  0  0  0  0  0  0
   -3.9270    4.8040    7.0170 C   0  0  0  0  0  0  0  0  0  0  0  0
   -3.9180    6.1510    7.0810 N   0  0  0  0  0  0  0  0  0  0  0  0
   -3.2180    6.7030    8.0920 C   0  0  0  0  0  0  0  0  0  0  0  0
   -2.5260    5.9690    9.0420 C   0  0  0  0  0  0  0  0  0  0  0  0
   -2.4280    2.7650   10.7400 C   0  0  0  0  0  0  0  0  0  0  0  0
   -3.8490    2.3780   10.6750 C   0  0  0  0  0  0  0  0  0  0  0  0
   -4.8580    3.1550   11.2620 C   0  0  0  0  0  0  0  0  0  0  0  0
   -6.1980    2.7620   11.2040 C   0  0  0  0  0  0  0  0  0  0  0  0
   -6.5720    1.5830   10.5450 C   0  0  0  0  0  0  0  0  0  0  0  0
   -7.9130    1.1730   10.4790 C   0  0  0  0  0  0  0  0  0  0  0  0
   -8.2680   -0.0010    9.8120 C   0  0  0  0  0  0  0  0  0  0  0  0
   -7.2870   -0.7770    9.2030 C   0  0  0  0  0  0  0  0  0  0  0  0
   -5.9490   -0.3820    9.2600 C   0  0  0  0  0  0  0  0  0  0  0  0
   -5.5760    0.7940    9.9290 C   0  0  0  0  0  0  0  0  0  0  0  0
   -4.2330    1.2050    9.9980 C   0  0  0  0  0  0  0  0  0  0  0  0
   -1.7090    2.0760   11.6560 N   0  0  0  0  0  0  0  0  0  0  0  0
   -0.3600    2.3160   11.8200 N   0  0  0  0  0  0  0  0  0  0  0  0
    3.3085    2.3939   10.5407 H   0  0  0  0  0  0  0  0  0  0  0  0
    1.8268    2.3036    9.5293 H   0  0  0  0  0  0  0  0  0  0  0  0
    2.8245    3.7973    9.5293 H   0  0  0  0  0  0  0  0  0  0  0  0
    1.5494    3.5849   13.3571 H   0  0  0  0  0  0  0  0  0  0  0  0
    2.0761    2.0040   12.6862 H   0  0  0  0  0  0  0  0  0  0  0  0
    3.2055    3.4008   12.6862 H   0  0  0  0  0  0  0  0  0  0  0  0
    0.0691    4.7311    9.5422 H   0  0  0  0  0  0  0  0  0  0  0  0
   -3.3187    2.8897    7.8197 H   0  0  0  0  0  0  0  0  0  0  0  0
   -4.4896    4.3282    6.2002 H   0  0  0  0  0  0  0  0  0  0  0  0
   -3.1947    7.8002    8.1673 H   0  0  0  0  0  0  0  0  0  0  0  0
   -1.9741    6.4768    9.8467 H   0  0  0  0  0  0  0  0  0  0  0  0
   -4.5904    4.0895   11.7768 H   0  0  0  0  0  0  0  0  0  0  0  0
   -6.9683    3.3855   11.6813 H   0  0  0  0  0  0  0  0  0  0  0  0
   -8.6926    1.7834   10.9581 H   0  0  0  0  0  0  0  0  0  0  0  0
   -9.3222   -0.3121    9.7681 H   0  0  0  0  0  0  0  0  0  0  0  0
   -7.5655   -1.7018    8.6765 H   0  0  0  0  0  0  0  0  0  0  0  0
   -5.1786   -0.9995    8.7751 H   0  0  0  0  0  0  0  0  0  0  0  0
   -3.4608    0.5928    9.5093 H   0  0  0  0  0  0  0  0  0  0  0  0
  1  2  1  0
  2  3  1  0
  2  4  1  0
  4  5  2  0
  5  6  1  0
  6  7  1  0
  7  8  2  0
  8  9  1  0
  9 10  2  0
 10 11  1  0
 11 12  2  0
  6 13  2  0
 13 14  1  0
 14 15  2  0
 15 16  1  0
 16 17  2  0
 17 18  1  0
 18 19  2  0
 19 20  1  0
 20 21  2  0
 21 22  1  0
 22 23  2  0
 13 24  1  0
 24 25  2  0
 25  4  1  0
 12  7  1  0
 23 14  1  0
 22 17  1  0
  1 26  1  0
  1 27  1  0
  1 28  1  0
  3 29  1  0
  3 30  1  0
  3 31  1  0
  5 32  1  0
  8 33  1  0
  9 34  1  0
 11 35  1  0
 12 36  1  0
 15 37  1  0
 16 38  1  0
 18 39  1  0
 19 40  1  0
 20 41  1  0
 21 42  1  0
 23 43  1  0
M  END
>  <meeko>  (4) 
{"is_sidechain": [false], "free_energy": -8.097, "intermolecular_energy": -9.583, "internal_energy": -0.878}

$$$$
4f9w_ligand
     RDKit          3D

 43 46  0  0  0  0  0  0  0  0999 V2000
   -7.8260   -0.4410   12.3770 C   0  0  0  0  0  0  0  0  0  0  0  0
   -8.3480    0.2460   11.1930 N   0  0  0  0  0  0  0  0  0  0  0  0
   -8.9250   -0.6510   10.1910 C   0  0  0  0  0  0  0  0  0  0  0  0
   -7.4130    1.1520   10.6400 C   0  0  0  0  0  0  0  0  0  0  0  0
   -6.0510    0.9580   10.8450 C   0  0  0  0  0  0  0  0  0  0  0  0
   -5.0930    1.8330   10.2980 C   0  0  0  0  0  0  0  0  0  0  0  0
   -3.6670    1.5950   10.5840 C   0  0  0  0  0  0  0  0  0  0  0  0
   -2.9870    2.3310   11.5620 C   0  0  0  0  0  0  0  0  0  0  0  0
   -1.6450    2.0660   11.7890 C   0  0  0  0  0  0  0  0  0  0  0  0
   -0.9440    1.1240   11.1270 N   0  0  0  0  0  0  0  0  0  0  0  0
   -1.6110    0.4180   10.1930 C   0  0  0  0  0  0  0  0  0  0  0  0
   -2.9490    0.6110    9.8910 C   0  0  0  0  0  0  0  0  0  0  0  0
   -5.5690    2.9000    9.5270 C   0  0  0  0  0  0  0  0  0  0  0  0
   -4.7280    3.9120    8.8630 C   0  0  0  0  0  0  0  0  0  0  0  0
   -4.2390    3.7310    7.5600 C   0  0  0  0  0  0  0  0  0  0  0  0
   -3.4280    4.6960    6.9540 C   0  0  0  0  0  0  0  0  0  0  0  0
   -3.0920    5.8770    7.6280 C   0  0  0  0  0  0  0  0  0  0  0  0
   -2.2770    6.8540    7.0340 C   0  0  0  0  0  0  0  0  0  0  0  0
   -1.9570    8.0280    7.7190 C   0  0  0  0  0  0  0  0  0  0  0  0
   -2.4490    8.2390    9.0030 C   0  0  0  0  0  0  0  0  0  0  0  0
   -3.2600    7.2770    9.6060 C   0  0  0  0  0  0  0  0  0  0  0  0
   -3.5890    6.0900    8.9320 C   0  0  0  0  0  0  0  0  0  0  0  0
   -4.4020    5.1080    9.5270 C   0  0  0  0  0  0  0  0  0  0  0  0
   -6.8970    3.0730    9.3380 N   0  0  0  0  0  0  0  0  0  0  0  0
   -7.8090    2.1940    9.8850 N   0  0  0  0  0  0  0  0  0  0  0  0
   -8.2024    0.0544   13.2841 H   0  0  0  0  0  0  0  0  0  0  0  0
   -8.1569   -1.4900   12.3679 H   0  0  0  0  0  0  0  0  0  0  0  0
   -6.7267   -0.4033   12.3679 H   0  0  0  0  0  0  0  0  0  0  0  0
   -9.4537   -1.4730   10.6958 H   0  0  0  0  0  0  0  0  0  0  0  0
   -9.6329   -0.0913    9.5620 H   0  0  0  0  0  0  0  0  0  0  0  0
   -8.1221   -1.0630    9.5620 H   0  0  0  0  0  0  0  0  0  0  0  0
   -5.7147    0.1017   11.4480 H   0  0  0  0  0  0  0  0  0  0  0  0
   -3.5091    3.1070   12.1410 H   0  0  0  0  0  0  0  0  0  0  0  0
   -1.1220    2.6590   12.5538 H   0  0  0  0  0  0  0  0  0  0  0  0
   -1.0611   -0.3565    9.6382 H   0  0  0  0  0  0  0  0  0  0  0  0
   -3.4406    0.0011    9.1188 H   0  0  0  0  0  0  0  0  0  0  0  0
   -4.4976    2.8161    7.0068 H   0  0  0  0  0  0  0  0  0  0  0  0
   -3.0493    4.5254    5.9354 H   0  0  0  0  0  0  0  0  0  0  0  0
   -1.8865    6.6929    6.0184 H   0  0  0  0  0  0  0  0  0  0  0  0
   -1.3164    8.7854    7.2437 H   0  0  0  0  0  0  0  0  0  0  0  0
   -2.1987    9.1642    9.5428 H   0  0  0  0  0  0  0  0  0  0  0  0
   -3.6461    7.4505   10.6213 H   0  0  0  0  0  0  0  0  0  0  0  0
   -4.7937    5.2806   10.5403 H   0  0  0  0  0  0  0  0  0  0  0  0
  1  2  1  0
  2  3  1  0
  2  4  1  0
  4  5  2  0
  5  6  1  0
  6  7  1  0
  7  8  2  0
  8  9  1  0
  9 10  2  0
 10 11  1  0
 11 12  2  0
  6 13  2  0
 13 14  1  0
 14 15  2  0
 15 16  1  0
 16 17  2  0
 17 18  1  0
 18 19  2  0
 19 20  1  0
 20 21  2  0
 21 22  1  0
 22 23  2  0
 13 24  1  0
 24 25  2  0
 25  4  1  0
 12  7  1  0
 23 14  1  0
 22 17  1  0
  1 26  1  0
  1 27  1  0
  1 28  1  0
  3 29  1  0
  3 30  1  0
  3 31  1  0
  5 32  1  0
  8 33  1  0
  9 34  1  0
 11 35  1  0
 12 36  1  0
 15 37  1  0
 16 38  1  0
 18 39  1  0
 19 40  1  0
 20 41  1  0
 21 42  1  0
 23 43  1  0
M  END
>  <meeko>  (5) 
{"is_sidechain": [false], "free_energy": -8.042, "intermolecular_energy": -9.224, "internal_energy": -1.172}

$$$$
4f9w_ligand
     RDKit          3D

 43 46  0  0  0  0  0  0  0  0999 V2000
    2.1940    3.0830   10.2240 C   0  0  0  0  0  0  0  0  0  0  0  0
    1.1590    3.6080   11.1180 N   0  0  0  0  0  0  0  0  0  0  0  0
    1.5360    3.6050   12.5320 C   0  0  0  0  0  0  0  0  0  0  0  0
   -0.1030    3.0130   10.8890 C   0  0  0  0  0  0  0  0  0  0  0  0
   -1.0680    3.6910   10.1510 C   0  0  0  0  0  0  0  0  0  0  0  0
   -2.3300    3.1220    9.8930 C   0  0  0  0  0  0  0  0  0  0  0  0
   -3.3240    3.9080    9.1390 C   0  0  0  0  0  0  0  0  0  0  0  0
   -4.2280    4.7570    9.7880 C   0  0  0  0  0  0  0  0  0  0  0  0
   -5.1410    5.4720    9.0290 C   0  0  0  0  0  0  0  0  0  0  0  0
   -5.2110    5.4100    7.6840 N   0  0  0  0  0  0  0  0  0  0  0  0
   -4.3310    4.5930    7.0700 C   0  0  0  0  0  0  0  0  0  0  0  0
   -3.3840    3.8360    7.7400 C   0  0  0  0  0  0  0  0  0  0  0  0
   -2.5680    1.8390   10.3990 C   0  0  0  0  0  0  0  0  0  0  0  0
   -3.8160    1.0730   10.2250 C   0  0  0  0  0  0  0  0  0  0  0  0
   -3.9260    0.0380    9.2850 C   0  0  0  0  0  0  0  0  0  0  0  0
   -5.1240   -0.6660    9.1240 C   0  0  0  0  0  0  0  0  0  0  0  0
   -6.2450   -0.3620    9.9070 C   0  0  0  0  0  0  0  0  0  0  0  0
   -7.4560   -1.0570    9.7560 C   0  0  0  0  0  0  0  0  0  0  0  0
   -8.5610   -0.7460   10.5500 C   0  0  0  0  0  0  0  0  0  0  0  0
   -8.4680    0.2630   11.5040 C   0  0  0  0  0  0  0  0  0  0  0  0
   -7.2710    0.9620   11.6660 C   0  0  0  0  0  0  0  0  0  0  0  0
   -6.1520    0.6630   10.8740 C   0  0  0  0  0  0  0  0  0  0  0  0
   -4.9400    1.3610   11.0210 C   0  0  0  0  0  0  0  0  0  0  0  0
   -1.6180    1.1950   11.1140 N   0  0  0  0  0  0  0  0  0  0  0  0
   -0.3900    1.7790   11.3440 N   0  0  0  0  0  0  0  0  0  0  0  0
    3.0175    2.6653   10.8218 H   0  0  0  0  0  0  0  0  0  0  0  0
    1.7645    2.2938    9.5894 H   0  0  0  0  0  0  0  0  0  0  0  0
    2.5771    3.8957    9.5894 H   0  0  0  0  0  0  0  0  0  0  0  0
    0.6284    3.6122   13.1535 H   0  0  0  0  0  0  0  0  0  0  0  0
    2.1243    2.7021   12.7527 H   0  0  0  0  0  0  0  0  0  0  0  0
    2.1386    4.4984   12.7527 H   0  0  0  0  0  0  0  0  0  0  0  0
   -0.8401    4.6937    9.7604 H   0  0  0  0  0  0  0  0  0  0  0  0
   -4.2140    4.8552   10.8835 H   0  0  0  0  0  0  0  0  0  0  0  0
   -5.8500    6.1285    9.5547 H   0  0  0  0  0  0  0  0  0  0  0  0
   -4.3674    4.5237    5.9728 H   0  0  0  0  0  0  0  0  0  0  0  0
   -2.6902    3.1888    7.1835 H   0  0  0  0  0  0  0  0  0  0  0  0
   -3.0564   -0.2243    8.6645 H   0  0  0  0  0  0  0  0  0  0  0  0
   -5.1865   -1.4679    8.3736 H   0  0  0  0  0  0  0  0  0  0  0  0
   -7.5346   -1.8555    9.0035 H   0  0  0  0  0  0  0  0  0  0  0  0
   -9.5040   -1.2976   10.4219 H   0  0  0  0  0  0  0  0  0  0  0  0
   -9.3380    0.5096   12.1304 H   0  0  0  0  0  0  0  0  0  0  0  0
   -7.2040    1.7568   12.4235 H   0  0  0  0  0  0  0  0  0  0  0  0
   -4.8687    2.1544   11.7796 H   0  0  0  0  0  0  0  0  0  0  0  0
  1  2  1  0
  2  3  1  0
  2  4  1  0
  4  5  2  0
  5  6  1  0
  6  7  1  0
  7  8  2  0
  8  9  1  0
  9 10  2  0
 10 11  1  0
 11 12  2  0
  6 13  2  0
 13 14  1  0
 14 15  2  0
 15 16  1  0
 16 17  2  0
 17 18  1  0
 18 19  2  0
 19 20  1  0
 20 21  2  0
 21 22  1  0
 22 23  2  0
 13 24  1  0
 24 25  2  0
 25  4  1  0
 12  7  1  0
 23 14  1  0
 22 17  1  0
  1 26  1  0
  1 27  1  0
  1 28  1  0
  3 29  1  0
  3 30  1  0
  3 31  1  0
  5 32  1  0
  8 33  1  0
  9 34  1  0
 11 35  1  0
 12 36  1  0
 15 37  1  0
 16 38  1  0
 18 39  1  0
 19 40  1  0
 20 41  1  0
 21 42  1  0
 23 43  1  0
M  END
>  <meeko>  (6) 
{"is_sidechain": [false], "free_energy": -7.634, "intermolecular_energy": -8.776, "internal_energy": -1.142}

$$$$
4f9w_ligand
     RDKit          3D

 43 46  0  0  0  0  0  0  0  0999 V2000
    2.9970    3.4570   12.3620 C   0  0  0  0  0  0  0  0  0  0  0  0
    2.6230    2.5680   11.2590 N   0  0  0  0  0  0  0  0  0  0  0  0
    3.5090    2.6580   10.0970 C   0  0  0  0  0  0  0  0  0  0  0  0
    1.2570    2.6840   10.9130 C   0  0  0  0  0  0  0  0  0  0  0  0
    0.3980    1.6070   11.1040 C   0  0  0  0  0  0  0  0  0  0  0  0
   -0.9710    1.6920   10.7830 C   0  0  0  0  0  0  0  0  0  0  0  0
   -1.8210    0.5030   10.9720 C   0  0  0  0  0  0  0  0  0  0  0  0
   -2.0740   -0.3870    9.9210 C   0  0  0  0  0  0  0  0  0  0  0  0
   -2.8810   -1.4890   10.1550 C   0  0  0  0  0  0  0  0  0  0  0  0
   -3.4400   -1.7710   11.3490 N   0  0  0  0  0  0  0  0  0  0  0  0
   -3.1840   -0.9100   12.3540 C   0  0  0  0  0  0  0  0  0  0  0  0
   -2.3940    0.2200   12.2190 C   0  0  0  0  0  0  0  0  0  0  0  0
   -1.4340    2.9120   10.2770 C   0  0  0  0  0  0  0  0  0  0  0  0
   -2.8270    3.2010    9.8950 C   0  0  0  0  0  0  0  0  0  0  0  0
   -3.2020    3.4190    8.5610 C   0  0  0  0  0  0  0  0  0  0  0  0
   -4.5270    3.7090    8.2220 C   0  0  0  0  0  0  0  0  0  0  0  0
   -5.5210    3.7800    9.2070 C   0  0  0  0  0  0  0  0  0  0  0  0
   -6.8550    4.0730    8.8830 C   0  0  0  0  0  0  0  0  0  0  0  0
   -7.8340    4.1330    9.8770 C   0  0  0  0  0  0  0  0  0  0  0  0
   -7.4900    3.8990   11.2040 C   0  0  0  0  0  0  0  0  0  0  0  0
   -6.1670    3.6060   11.5420 C   0  0  0  0  0  0  0  0  0  0  0  0
   -5.1710    3.5450   10.5540 C   0  0  0  0  0  0  0  0  0  0  0  0
   -3.8340    3.2550   10.8780 C   0  0  0  0  0  0  0  0  0  0  0  0
   -0.5840    3.9480   10.0980 N   0  0  0  0  0  0  0  0  0  0  0  0
    0.7510    3.8330   10.4270 N   0  0  0  0  0  0  0  0  0  0  0  0
    2.7878    2.9598   13.3207 H   0  0  0  0  0  0  0  0  0  0  0  0
    4.0698    3.6910   12.2967 H   0  0  0  0  0  0  0  0  0  0  0  0
    2.4141    4.3876   12.2967 H   0  0  0  0  0  0  0  0  0  0  0  0
    4.5498    2.7637   10.4368 H   0  0  0  0  0  0  0  0  0  0  0  0
    3.4122    1.7454    9.4905 H   0  0  0  0  0  0  0  0  0  0  0  0
    3.2307    3.5325    9.4905 H   0  0  0  0  0  0  0  0  0  0  0  0
    0.7966    0.6677   11.5150 H   0  0  0  0  0  0  0  0  0  0  0  0
   -1.6391   -0.2142    8.9255 H   0  0  0  0  0  0  0  0  0  0  0  0
   -3.0771   -2.1741    9.3171 H   0  0  0  0  0  0  0  0  0  0  0  0
   -3.6283   -1.1167   13.3388 H   0  0  0  0  0  0  0  0  0  0  0  0
   -2.2192    0.8849   13.0777 H   0  0  0  0  0  0  0  0  0  0  0  0
   -2.4412    3.3608    7.7687 H   0  0  0  0  0  0  0  0  0  0  0  0
   -4.7925    3.8836    7.1689 H   0  0  0  0  0  0  0  0  0  0  0  0
   -7.1323    4.2574    7.8346 H   0  0  0  0  0  0  0  0  0  0  0  0
   -8.8758    4.3650    9.6107 H   0  0  0  0  0  0  0  0  0  0  0  0
   -8.2604    3.9447   11.9878 H   0  0  0  0  0  0  0  0  0  0  0  0
   -5.9023    3.4210   12.5935 H   0  0  0  0  0  0  0  0  0  0  0  0
   -3.5672    3.0651   11.9281 H   0  0  0  0  0  0  0  0  0  0  0  0
  1  2  1  0
  2  3  1  0
  2  4  1  0
  4  5  2  0
  5  6  1  0
  6  7  1  0
  7  8  2  0
  8  9  1  0
  9 10  2  0
 10 11  1  0
 11 12  2  0
  6 13  2  0
 13 14  1  0
 14 15  2  0
 15 16  1  0
 16 17  2  0
 17 18  1  0
 18 19  2  0
 19 20  1  0
 20 21  2  0
 21 22  1  0
 22 23  2  0
 13 24  1  0
 24 25  2  0
 25  4  1  0
 12  7  1  0
 23 14  1  0
 22 17  1  0
  1 26  1  0
  1 27  1  0
  1 28  1  0
  3 29  1  0
  3 30  1  0
  3 31  1  0
  5 32  1  0
  8 33  1  0
  9 34  1  0
 11 35  1  0
 12 36  1  0
 15 37  1  0
 16 38  1  0
 18 39  1  0
 19 40  1  0
 20 41  1  0
 21 42  1  0
 23 43  1  0
M  END
>  <meeko>  (7) 
{"is_sidechain": [false], "free_energy": -7.495, "intermolecular_energy": -8.705, "internal_energy": -1.048}

$$$$
4f9w_ligand
     RDKit          3D

 43 46  0  0  0  0  0  0  0  0999 V2000
   -2.9120    5.3520    5.6590 C   0  0  0  0  0  0  0  0  0  0  0  0
   -3.6440    5.9860    6.7580 N   0  0  0  0  0  0  0  0  0  0  0  0
   -2.8390    6.9180    7.5490 C   0  0  0  0  0  0  0  0  0  0  0  0
   -4.3340    5.0460    7.5580 C   0  0  0  0  0  0  0  0  0  0  0  0
   -3.6290    4.2280    8.4340 C   0  0  0  0  0  0  0  0  0  0  0  0
   -4.2850    3.2910    9.2550 C   0  0  0  0  0  0  0  0  0  0  0  0
   -3.4780    2.4260   10.1340 C   0  0  0  0  0  0  0  0  0  0  0  0
   -3.3600    2.6860   11.5050 C   0  0  0  0  0  0  0  0  0  0  0  0
   -2.5880    1.8390   12.2840 C   0  0  0  0  0  0  0  0  0  0  0  0
   -1.9410    0.7580   11.8040 N   0  0  0  0  0  0  0  0  0  0  0  0
   -2.0670    0.5150   10.4840 C   0  0  0  0  0  0  0  0  0  0  0  0
   -2.8130    1.3030    9.6230 C   0  0  0  0  0  0  0  0  0  0  0  0
   -5.6800    3.2270    9.1620 C   0  0  0  0  0  0  0  0  0  0  0  0
   -6.5450    2.3250    9.9430 C   0  0  0  0  0  0  0  0  0  0  0  0
   -7.4980    2.8120   10.8510 C   0  0  0  0  0  0  0  0  0  0  0  0
   -8.2970    1.9390   11.5950 C   0  0  0  0  0  0  0  0  0  0  0  0
   -8.1760    0.5510   11.4460 C   0  0  0  0  0  0  0  0  0  0  0  0
   -8.9700   -0.3390   12.1880 C   0  0  0  0  0  0  0  0  0  0  0  0
   -8.8400   -1.7180   12.0210 C   0  0  0  0  0  0  0  0  0  0  0  0
   -7.9170   -2.2240   11.1110 C   0  0  0  0  0  0  0  0  0  0  0  0
   -7.1220   -1.3520   10.3660 C   0  0  0  0  0  0  0  0  0  0  0  0
   -7.2380    0.0380   10.5240 C   0  0  0  0  0  0  0  0  0  0  0  0
   -6.4410    0.9310    9.7840 C   0  0  0  0  0  0  0  0  0  0  0  0
   -6.3500    4.0310    8.3040 N   0  0  0  0  0  0  0  0  0  0  0  0
   -5.6750    4.9420    7.5180 N   0  0  0  0  0  0  0  0  0  0  0  0
   -2.1406    4.6839    6.0695 H   0  0  0  0  0  0  0  0  0  0  0  0
   -3.6109    4.7691    5.0411 H   0  0  0  0  0  0  0  0  0  0  0  0
   -2.4348    6.1269    5.0411 H   0  0  0  0  0  0  0  0  0  0  0  0
   -3.0037    6.7273    8.6198 H   0  0  0  0  0  0  0  0  0  0  0  0
   -1.7745    6.7765    7.3109 H   0  0  0  0  0  0  0  0  0  0  0  0
   -3.1339    7.9506    7.3109 H   0  0  0  0  0  0  0  0  0  0  0  0
   -2.5337    4.3149    8.4868 H   0  0  0  0  0  0  0  0  0  0  0  0
   -3.8719    3.5487   11.9563 H   0  0  0  0  0  0  0  0  0  0  0  0
   -2.4978    2.0618   13.3574 H   0  0  0  0  0  0  0  0  0  0  0  0
   -1.5472   -0.3599   10.0664 H   0  0  0  0  0  0  0  0  0  0  0  0
   -2.8824    1.0512    8.5545 H   0  0  0  0  0  0  0  0  0  0  0  0
   -7.6181    3.8979   10.9792 H   0  0  0  0  0  0  0  0  0  0  0  0
   -9.0301    2.3469   12.3065 H   0  0  0  0  0  0  0  0  0  0  0  0
   -9.7019    0.0554   12.9082 H   0  0  0  0  0  0  0  0  0  0  0  0
   -9.4669   -2.4049   12.6085 H   0  0  0  0  0  0  0  0  0  0  0  0
   -7.8140   -3.3112   10.9789 H   0  0  0  0  0  0  0  0  0  0  0  0
   -6.3960   -1.7586    9.6466 H   0  0  0  0  0  0  0  0  0  0  0  0
   -5.7165    0.5279    9.0611 H   0  0  0  0  0  0  0  0  0  0  0  0
  1  2  1  0
  2  3  1  0
  2  4  1  0
  4  5  2  0
  5  6  1  0
  6  7  1  0
  7  8  2  0
  8  9  1  0
  9 10  2  0
 10 11  1  0
 11 12  2  0
  6 13  2  0
 13 14  1  0
 14 15  2  0
 15 16  1  0
 16 17  2  0
 17 18  1  0
 18 19  2  0
 19 20  1  0
 20 21  2  0
 21 22  1  0
 22 23  2  0
 13 24  1  0
 24 25  2  0
 25  4  1  0
 12  7  1  0
 23 14  1  0
 22 17  1  0
  1 26  1  0
  1 27  1  0
  1 28  1  0
  3 29  1  0
  3 30  1  0
  3 31  1  0
  5 32  1  0
  8 33  1  0
  9 34  1  0
 11 35  1  0
 12 36  1  0
 15 37  1  0
 16 38  1  0
 18 39  1  0
 19 40  1  0
 20 41  1  0
 21 42  1  0
 23 43  1  0
M  END
>  <meeko>  (8) 
{"is_sidechain": [false], "free_energy": -7.438, "intermolecular_energy": -8.689, "internal_energy": -0.997}

$$$$
4f9w_ligand
     RDKit          3D

 43 46  0  0  0  0  0  0  0  0999 V2000
   -3.3290   -4.8140   11.7090 C   0  0  0  0  0  0  0  0  0  0  0  0
   -2.2490   -3.9970   11.1500 N   0  0  0  0  0  0  0  0  0  0  0  0
   -1.0050   -4.0470   11.9200 C   0  0  0  0  0  0  0  0  0  0  0  0
   -2.6640   -2.6750   10.8690 C   0  0  0  0  0  0  0  0  0  0  0  0
   -4.0160   -2.3880   10.7160 C   0  0  0  0  0  0  0  0  0  0  0  0
   -4.4650   -1.0810   10.4490 C   0  0  0  0  0  0  0  0  0  0  0  0
   -5.9080   -0.8480   10.2580 C   0  0  0  0  0  0  0  0  0  0  0  0
   -6.7750   -0.7070   11.3480 C   0  0  0  0  0  0  0  0  0  0  0  0
   -8.1230   -0.4900   11.1110 C   0  0  0  0  0  0  0  0  0  0  0  0
   -8.6620   -0.3950    9.8790 N   0  0  0  0  0  0  0  0  0  0  0  0
   -7.8160   -0.5260    8.8370 C   0  0  0  0  0  0  0  0  0  0  0  0
   -6.4560   -0.7480    8.9720 C   0  0  0  0  0  0  0  0  0  0  0  0
   -3.4930   -0.0770   10.3580 C   0  0  0  0  0  0  0  0  0  0  0  0
   -3.7620    1.3480   10.0990 C   0  0  0  0  0  0  0  0  0  0  0  0
   -4.2530    2.2040   11.0960 C   0  0  0  0  0  0  0  0  0  0  0  0
   -4.5190    3.5500   10.8250 C   0  0  0  0  0  0  0  0  0  0  0  0
   -4.2890    4.0840    9.5510 C   0  0  0  0  0  0  0  0  0  0  0  0
   -4.5520    5.4330    9.2620 C   0  0  0  0  0  0  0  0  0  0  0  0
   -4.3110    5.9490    7.9880 C   0  0  0  0  0  0  0  0  0  0  0  0
   -3.8030    5.1250    6.9890 C   0  0  0  0  0  0  0  0  0  0  0  0
   -3.5360    3.7820    7.2610 C   0  0  0  0  0  0  0  0  0  0  0  0
   -3.7760    3.2470    8.5360 C   0  0  0  0  0  0  0  0  0  0  0  0
   -3.5160    1.8950    8.8260 C   0  0  0  0  0  0  0  0  0  0  0  0
   -2.1820   -0.3750   10.5100 N   0  0  0  0  0  0  0  0  0  0  0  0
   -1.7770   -1.6670   10.7760 N   0  0  0  0  0  0  0  0  0  0  0  0
   -3.2837   -4.7797   12.8075 H   0  0  0  0  0  0  0  0  0  0  0  0
   -4.2989   -4.4216   11.3696 H   0  0  0  0  0  0  0  0  0  0  0  0
   -3.2152   -5.8541   11.3696 H   0  0  0  0  0  0  0  0  0  0  0  0
   -1.2385   -4.0376   12.9949 H   0  0  0  0  0  0  0  0  0  0  0  0
   -0.4569   -4.9679   11.6719 H   0  0  0  0  0  0  0  0  0  0  0  0
   -0.3848   -3.1731   11.6719 H   0  0  0  0  0  0  0  0  0  0  0  0
   -4.7515   -3.2011   10.8057 H   0  0  0  0  0  0  0  0  0  0  0  0
   -6.3919   -0.7676   12.3774 H   0  0  0  0  0  0  0  0  0  0  0  0
   -8.7920   -0.3894   11.9784 H   0  0  0  0  0  0  0  0  0  0  0  0
   -8.2305   -0.4522    7.8208 H   0  0  0  0  0  0  0  0  0  0  0  0
   -5.8152   -0.8444    8.0831 H   0  0  0  0  0  0  0  0  0  0  0  0
   -4.4317    1.8101   12.1074 H   0  0  0  0  0  0  0  0  0  0  0  0
   -4.9137    4.1971   11.6222 H   0  0  0  0  0  0  0  0  0  0  0  0
   -4.9523    6.0899   10.0483 H   0  0  0  0  0  0  0  0  0  0  0  0
   -4.5227    7.0070    7.7738 H   0  0  0  0  0  0  0  0  0  0  0  0
   -3.6117    5.5315    5.9849 H   0  0  0  0  0  0  0  0  0  0  0  0
   -3.1330    3.1360    6.4671 H   0  0  0  0  0  0  0  0  0  0  0  0
   -3.1090    1.2474    8.0355 H   0  0  0  0  0  0  0  0  0  0  0  0
  1  2  1  0
  2  3  1  0
  2  4  1  0
  4  5  2  0
  5  6  1  0
  6  7  1  0
  7  8  2  0
  8  9  1  0
  9 10  2  0
 10 11  1  0
 11 12  2  0
  6 13  2  0
 13 14  1  0
 14 15  2  0
 15 16  1  0
 16 17  2  0
 17 18  1  0
 18 19  2  0
 19 20  1  0
 20 21  2  0
 21 22  1  0
 22 23  2  0
 13 24  1  0
 24 25  2  0
 25  4  1  0
 12  7  1  0
 23 14  1  0
 22 17  1  0
  1 26  1  0
  1 27  1  0
  1 28  1  0
  3 29  1  0
  3 30  1  0
  3 31  1  0
  5 32  1  0
  8 33  1  0
  9 34  1  0
 11 35  1  0
 12 36  1  0
 15 37  1  0
 16 38  1  0
 18 39  1  0
 19 40  1  0
 20 41  1  0
 21 42  1  0
 23 43  1  0
M  END
>  <meeko>  (9) 
{"is_sidechain": [false], "free_energy": -7.381, "intermolecular_energy": -8.463, "internal_energy": -1.157}

$$$$
