5tmn_ligand
     RDKit          3D

 64 64  0  0  0  0  0  0  0  0999 V2000
   -5.3640   -0.0920   -2.7030 C   0  0  0  0  0  0  0  0  0  0  0  0
   -3.9770   -0.1190   -2.0530 C   0  0  0  0  0  0  0  0  0  0  0  0
   -4.1280   -0.0110   -0.5340 C   0  0  0  0  0  0  0  0  0  0  0  0
   -3.2310   -1.4000   -2.4740 C   0  0  0  0  0  0  0  0  0  0  0  0
   -2.1450   -1.2200   -3.5500 C   0  0  2  0  0  0  0  0  0  0  0  0
   -1.1770   -0.1720   -3.1700 N   0  0  0  0  0  0  0  0  0  0  0  0
   -0.0210   -0.3700   -2.4460 C   0  0  0  0  0  0  0  0  0  0  0  0
    0.2660   -1.4450   -1.9240 O   0  0  0  0  0  0  0  0  0  0  0  0
    0.8410    0.9050   -2.3020 C   0  0  2  0  0  0  0  0  0  0  0  0
    2.2650    0.6790   -2.8260 C   0  0  0  0  0  0  0  0  0  0  0  0
    3.3590    0.5070   -1.7480 C   0  0  0  0  0  0  0  0  0  0  0  0
    3.5500   -0.9620   -1.3570 C   0  0  0  0  0  0  0  0  0  0  0  0
    4.7000    1.1320   -2.1300 C   0  0  0  0  0  0  0  0  0  0  0  0
    0.7500    1.4950   -0.9450 N   0  0  0  0  0  0  0  0  0  0  0  0
   -0.6960    1.9270   -0.1270 P   0  0  1  0  0  5  0  0  0  0  0  0
   -1.7290    2.4140   -1.1090 O   0  0  0  0  0  0  0  0  0  0  0  0
   -1.0080    0.7280    0.7400 O   0  0  0  0  0  0  0  0  0  0  0  0
   -0.2520    3.2920    1.0530 C   0  0  0  0  0  0  0  0  0  0  0  0
   -0.3280    4.5190    0.2650 N   0  0  0  0  0  0  0  0  0  0  0  0
   -0.0310    5.6820    0.9100 C   0  0  0  0  0  0  0  0  0  0  0  0
   -0.3730    5.9890    2.0440 O   0  0  0  0  0  0  0  0  0  0  0  0
    0.7030    6.4640    0.0830 O   0  0  0  0  0  0  0  0  0  0  0  0
    2.0940    6.4620    0.3980 C   0  0  0  0  0  0  0  0  0  0  0  0
    2.8570    6.0490   -0.8370 C   0  0  0  0  0  0  0  0  0  0  0  0
    2.7220    4.7660   -1.3850 C   0  0  0  0  0  0  0  0  0  0  0  0
    3.4300    4.4140   -2.5370 C   0  0  0  0  0  0  0  0  0  0  0  0
    4.2760    5.3380   -3.1490 C   0  0  0  0  0  0  0  0  0  0  0  0
    4.4150    6.6170   -2.6120 C   0  0  0  0  0  0  0  0  0  0  0  0
    3.7080    6.9720   -1.4630 C   0  0  0  0  0  0  0  0  0  0  0  0
   -2.9220   -0.8200   -4.8580 C   0  0  0  0  0  0  0  0  0  0  0  0
   -2.7170    0.3470   -5.3010 O   0  0  0  0  0  0  0  0  0  0  0  0
   -3.6740   -1.7380   -5.3160 O   0  0  0  0  0  0  0  0  0  0  0  0
   -6.1359   -0.0770   -1.9195 H   0  0  0  0  0  0  0  0  0  0  0  0
   -5.4585    0.8082   -3.3281 H   0  0  0  0  0  0  0  0  0  0  0  0
   -5.4935   -0.9878   -3.3281 H   0  0  0  0  0  0  0  0  0  0  0  0
   -3.3773    0.7380   -2.3934 H   0  0  0  0  0  0  0  0  0  0  0  0
   -3.3269   -0.5840   -0.0442 H   0  0  0  0  0  0  0  0  0  0  0  0
   -4.0603    1.0448   -0.2329 H   0  0  0  0  0  0  0  0  0  0  0  0
   -5.1053   -0.4162   -0.2329 H   0  0  0  0  0  0  0  0  0  0  0  0
   -2.7518   -1.8213   -1.5780 H   0  0  0  0  0  0  0  0  0  0  0  0
   -3.9919   -2.0545   -2.9242 H   0  0  0  0  0  0  0  0  0  0  0  0
   -1.5553   -2.1387   -3.6854 H   0  0  0  0  0  0  0  0  0  0  0  0
   -1.2660    0.6460   -3.7730 H   0  0  0  0  0  0  0  0  0  0  0  0
    0.4211    1.6846   -2.9546 H   0  0  0  0  0  0  0  0  0  0  0  0
    2.2563   -0.2296   -3.4459 H   0  0  0  0  0  0  0  0  0  0  0  0
    2.5294    1.5938   -3.3766 H   0  0  0  0  0  0  0  0  0  0  0  0
    2.9871    1.0609   -0.8734 H   0  0  0  0  0  0  0  0  0  0  0  0
    3.5616   -1.0511   -0.2607 H   0  0  0  0  0  0  0  0  0  0  0  0
    2.7221   -1.5606   -1.7648 H   0  0  0  0  0  0  0  0  0  0  0  0
    4.5034   -1.3290   -1.7648 H   0  0  0  0  0  0  0  0  0  0  0  0
    5.2568    1.3915   -1.2175 H   0  0  0  0  0  0  0  0  0  0  0  0
    5.2837    0.4131   -2.7237 H   0  0  0  0  0  0  0  0  0  0  0  0
    4.5249    2.0413   -2.7237 H   0  0  0  0  0  0  0  0  0  0  0  0
    1.3970    2.2760   -0.8130 H   0  0  0  0  0  0  0  0  0  0  0  0
   -0.9654    3.3260    1.8896 H   0  0  0  0  0  0  0  0  0  0  0  0
    0.7458    3.1470    1.4928 H   0  0  0  0  0  0  0  0  0  0  0  0
    0.2330    4.4280   -0.5770 H   0  0  0  0  0  0  0  0  0  0  0  0
    2.4067    7.4697    0.7092 H   0  0  0  0  0  0  0  0  0  0  0  0
    2.2960    5.7610    1.2213 H   0  0  0  0  0  0  0  0  0  0  0  0
    2.0559    4.0332   -0.9061 H   0  0  0  0  0  0  0  0  0  0  0  0
    3.3197    3.4055   -2.9621 H   0  0  0  0  0  0  0  0  0  0  0  0
    4.8334    5.0580   -4.0550 H   0  0  0  0  0  0  0  0  0  0  0  0
    5.0823    7.3464   -3.0944 H   0  0  0  0  0  0  0  0  0  0  0  0
    3.8186    7.9833   -1.0447 H   0  0  0  0  0  0  0  0  0  0  0  0
  1  2  1  0
  2  3  1  0
  2  4  1  0
  4  5  1  0
  5  6  1  0
  6  7  1  0
  7  8  2  0
  7  9  1  0
  9 10  1  0
 10 11  1  0
 11 12  1  0
 11 13  1  0
  9 14  1  0
 14 15  1  0
 15 16  2  0
 15 17  1  1
 15 18  1  0
 18 19  1  0
 19 20  1  0
 20 21  2  0
 20 22  1  0
 22 23  1  0
 23 24  1  0
 24 25  2  0
 25 26  1  0
 26 27  2  0
 27 28  1  0
 28 29  2  0
  5 30  1  0
 30 31  2  0
 30 32  1  0
 29 24  1  0
  1 33  1  0
  1 34  1  0
  1 35  1  0
  2 36  1  0
  3 37  1  0
  3 38  1  0
  3 39  1  0
  4 40  1  0
  4 41  1  0
  5 42  1  6
  6 43  1  0
  9 44  1  6
 10 45  1  0
 10 46  1  0
 11 47  1  0
 12 48  1  0
 12 49  1  0
 12 50  1  0
 13 51  1  0
 13 52  1  0
 13 53  1  0
 14 54  1  0
 18 55  1  0
 18 56  1  0
 19 57  1  0
 23 58  1  0
 23 59  1  0
 25 60  1  0
 26 61  1  0
 27 62  1  0
 28 63  1  0
 29 64  1  0
M  CHG  2  17  -1  32  -1
M  END
>  <meeko>  (1) 
{"is_sidechain": [false], "free_energy": -7.616, "intermolecular_energy": -13.849, "internal_energy": -2.078}

$$$$
5tmn_ligand
     RDKit          3D

 64 64  0  0  0  0  0  0  0  0999 V2000
   -6.2040    1.4880   -4.5700 C   0  0  0  0  0  0  0  0  0  0  0  0
   -7.0470    0.5530   -3.6980 C   0  0  0  0  0  0  0  0  0  0  0  0
   -7.8500   -0.3910   -4.5960 C   0  0  0  0  0  0  0  0  0  0  0  0
   -6.1320   -0.2120   -2.7220 C   0  0  0  0  0  0  0  0  0  0  0  0
   -4.6240   -0.1490   -3.0280 C   0  0  2  0  0  0  0  0  0  0  0  0
   -4.1970   -1.2850   -3.8700 N   0  0  0  0  0  0  0  0  0  0  0  0
   -3.1790   -1.2600   -4.7970 C   0  0  0  0  0  0  0  0  0  0  0  0
   -2.5900   -0.2290   -5.1170 O   0  0  0  0  0  0  0  0  0  0  0  0
   -2.8980   -2.6360   -5.4420 C   0  0  2  0  0  0  0  0  0  0  0  0
   -4.0640   -3.6080   -5.2150 C   0  0  0  0  0  0  0  0  0  0  0  0
   -5.0690   -3.7350   -6.3830 C   0  0  0  0  0  0  0  0  0  0  0  0
   -4.8970   -5.0550   -7.1420 C   0  0  0  0  0  0  0  0  0  0  0  0
   -6.5250   -3.5540   -5.9600 C   0  0  0  0  0  0  0  0  0  0  0  0
   -1.5580   -3.1600   -5.0890 N   0  0  0  0  0  0  0  0  0  0  0  0
   -1.2140   -4.3100   -3.8610 P   0  0  1  0  0  5  0  0  0  0  0  0
   -2.0710   -5.5360   -4.0340 O   0  0  0  0  0  0  0  0  0  0  0  0
    0.2920   -4.4500   -3.8910 O   0  0  0  0  0  0  0  0  0  0  0  0
   -1.6050   -3.4890   -2.2400 C   0  0  0  0  0  0  0  0  0  0  0  0
   -0.7040   -2.3430   -2.1650 N   0  0  0  0  0  0  0  0  0  0  0  0
    0.0590   -2.2320   -1.0410 C   0  0  0  0  0  0  0  0  0  0  0  0
   -0.3090   -2.4470    0.1060 O   0  0  0  0  0  0  0  0  0  0  0  0
    1.3020   -1.8310   -1.3940 O   0  0  0  0  0  0  0  0  0  0  0  0
    1.3240   -1.0730   -2.6030 C   0  0  0  0  0  0  0  0  0  0  0  0
    2.4940   -0.1200   -2.5420 C   0  0  0  0  0  0  0  0  0  0  0  0
    3.6040   -0.3770   -1.7260 C   0  0  0  0  0  0  0  0  0  0  0  0
    4.6790    0.5140   -1.6980 C   0  0  0  0  0  0  0  0  0  0  0  0
    4.6540    1.6670   -2.4820 C   0  0  0  0  0  0  0  0  0  0  0  0
    3.5540    1.9300   -3.2970 C   0  0  0  0  0  0  0  0  0  0  0  0
    2.4800    1.0400   -3.3290 C   0  0  0  0  0  0  0  0  0  0  0  0
   -3.9160   -0.1900   -1.6250 C   0  0  0  0  0  0  0  0  0  0  0  0
   -2.6590   -0.0470   -1.6240 O   0  0  0  0  0  0  0  0  0  0  0  0
   -4.7100   -0.3660   -0.6470 O   0  0  0  0  0  0  0  0  0  0  0  0
   -5.6067    2.1504   -3.9262 H   0  0  0  0  0  0  0  0  0  0  0  0
   -5.5328    0.8912   -5.2051 H   0  0  0  0  0  0  0  0  0  0  0  0
   -6.8669    2.0940   -5.2051 H   0  0  0  0  0  0  0  0  0  0  0  0
   -7.7614    1.1327   -3.0950 H   0  0  0  0  0  0  0  0  0  0  0  0
   -8.4366   -1.0807   -3.9713 H   0  0  0  0  0  0  0  0  0  0  0  0
   -8.5294    0.1965   -5.2310 H   0  0  0  0  0  0  0  0  0  0  0  0
   -7.1611   -0.9673   -5.2310 H   0  0  0  0  0  0  0  0  0  0  0  0
   -6.2898    0.2033   -1.7157 H   0  0  0  0  0  0  0  0  0  0  0  0
   -6.4123   -1.2714   -2.8179 H   0  0  0  0  0  0  0  0  0  0  0  0
   -4.3639    0.7580   -3.5934 H   0  0  0  0  0  0  0  0  0  0  0  0
   -4.4950   -2.1730   -3.4650 H   0  0  0  0  0  0  0  0  0  0  0  0
   -2.8478   -2.5048   -6.5330 H   0  0  0  0  0  0  0  0  0  0  0  0
   -3.6404   -4.6050   -5.0239 H   0  0  0  0  0  0  0  0  0  0  0  0
   -4.6366   -3.1969   -4.3706 H   0  0  0  0  0  0  0  0  0  0  0  0
   -4.8280   -2.9022   -7.0600 H   0  0  0  0  0  0  0  0  0  0  0  0
   -4.7895   -5.8802   -6.4227 H   0  0  0  0  0  0  0  0  0  0  0  0
   -5.7796   -5.2322   -7.7741 H   0  0  0  0  0  0  0  0  0  0  0  0
   -3.9984   -5.0001   -7.7741 H   0  0  0  0  0  0  0  0  0  0  0  0
   -6.5895   -3.5460   -4.8619 H   0  0  0  0  0  0  0  0  0  0  0  0
   -6.9064   -2.6015   -6.3567 H   0  0  0  0  0  0  0  0  0  0  0  0
   -7.1280   -4.3841   -6.3567 H   0  0  0  0  0  0  0  0  0  0  0  0
   -0.8600   -2.4190   -4.9900 H   0  0  0  0  0  0  0  0  0  0  0  0
   -2.6536   -3.1574   -2.2184 H   0  0  0  0  0  0  0  0  0  0  0  0
   -1.4716   -4.1736   -1.3894 H   0  0  0  0  0  0  0  0  0  0  0  0
   -0.1170   -2.3050   -2.9950 H   0  0  0  0  0  0  0  0  0  0  0  0
    1.4384   -1.7483   -3.4637 H   0  0  0  0  0  0  0  0  0  0  0  0
    0.3840   -0.5133   -2.7174 H   0  0  0  0  0  0  0  0  0  0  0  0
    3.6286   -1.2845   -1.1048 H   0  0  0  0  0  0  0  0  0  0  0  0
    5.5476    0.3058   -1.0560 H   0  0  0  0  0  0  0  0  0  0  0  0
    5.5012    2.3681   -2.4574 H   0  0  0  0  0  0  0  0  0  0  0  0
    3.5328    2.8396   -3.9151 H   0  0  0  0  0  0  0  0  0  0  0  0
    1.6159    1.2501   -3.9765 H   0  0  0  0  0  0  0  0  0  0  0  0
  1  2  1  0
  2  3  1  0
  2  4  1  0
  4  5  1  0
  5  6  1  0
  6  7  1  0
  7  8  2  0
  7  9  1  0
  9 10  1  0
 10 11  1  0
 11 12  1  0
 11 13  1  0
  9 14  1  0
 14 15  1  0
 15 16  2  0
 15 17  1  1
 15 18  1  0
 18 19  1  0
 19 20  1  0
 20 21  2  0
 20 22  1  0
 22 23  1  0
 23 24  1  0
 24 25  2  0
 25 26  1  0
 26 27  2  0
 27 28  1  0
 28 29  2  0
  5 30  1  0
 30 31  2  0
 30 32  1  0
 29 24  1  0
  1 33  1  0
  1 34  1  0
  1 35  1  0
  2 36  1  0
  3 37  1  0
  3 38  1  0
  3 39  1  0
  4 40  1  0
  4 41  1  0
  5 42  1  6
  6 43  1  0
  9 44  1  6
 10 45  1  0
 10 46  1  0
 11 47  1  0
 12 48  1  0
 12 49  1  0
 12 50  1  0
 13 51  1  0
 13 52  1  0
 13 53  1  0
 14 54  1  0
 18 55  1  0
 18 56  1  0
 19 57  1  0
 23 58  1  0
 23 59  1  0
 25 60  1  0
 26 61  1  0
 27 62  1  0
 28 63  1  0
 29 64  1  0
M  CHG  2  17  -1  32  -1
M  END
>  <meeko>  (2) 
{"is_sidechain": [false], "free_energy": -7.568, "intermolecular_energy": -13.841, "internal_energy": -1.999}

$$$$
5tmn_ligand
     RDKit          3D

 64 64  0  0  0  0  0  0  0  0999 V2000
   -1.6600   -1.8680   -3.6300 C   0  0  0  0  0  0  0  0  0  0  0  0
   -1.9320   -2.6340   -2.3310 C   0  0  0  0  0  0  0  0  0  0  0  0
   -0.9180   -3.7720   -2.1910 C   0  0  0  0  0  0  0  0  0  0  0  0
   -1.8850   -1.6630   -1.1360 C   0  0  0  0  0  0  0  0  0  0  0  0
   -1.7730   -0.1680   -1.4910 C   0  0  2  0  0  0  0  0  0  0  0  0
   -0.7130    0.4950   -0.7050 N   0  0  0  0  0  0  0  0  0  0  0  0
   -0.2070    1.7540   -0.9400 C   0  0  0  0  0  0  0  0  0  0  0  0
   -0.5060    2.4230   -1.9270 O   0  0  0  0  0  0  0  0  0  0  0  0
    0.8180    2.2140    0.1220 C   0  0  2  0  0  0  0  0  0  0  0  0
    1.8530    3.1750   -0.4790 C   0  0  0  0  0  0  0  0  0  0  0  0
    1.6030    4.6780   -0.2210 C   0  0  0  0  0  0  0  0  0  0  0  0
    1.3160    4.9630    1.2560 C   0  0  0  0  0  0  0  0  0  0  0  0
    2.7260    5.5810   -0.7260 C   0  0  0  0  0  0  0  0  0  0  0  0
    1.3780    1.0790    0.8930 N   0  0  0  0  0  0  0  0  0  0  0  0
    0.8980    0.5950    2.4690 P   0  0  1  0  0  5  0  0  0  0  0  0
    1.4800    1.5210    3.5030 O   0  0  0  0  0  0  0  0  0  0  0  0
   -0.6050    0.4450    2.3720 O   0  0  0  0  0  0  0  0  0  0  0  0
    1.5540   -1.1260    2.7190 C   0  0  0  0  0  0  0  0  0  0  0  0
    2.1920   -1.4800    1.4540 N   0  0  0  0  0  0  0  0  0  0  0  0
    1.4480   -2.2060    0.5730 C   0  0  0  0  0  0  0  0  0  0  0  0
    0.7080   -3.1400    0.8490 O   0  0  0  0  0  0  0  0  0  0  0  0
    1.6690   -1.7350   -0.6770 O   0  0  0  0  0  0  0  0  0  0  0  0
    3.0550   -1.6220   -0.9960 C   0  0  0  0  0  0  0  0  0  0  0  0
    3.2490   -0.3710   -1.8180 C   0  0  0  0  0  0  0  0  0  0  0  0
    4.3940    0.4240   -1.6790 C   0  0  0  0  0  0  0  0  0  0  0  0
    4.5560    1.5710   -2.4620 C   0  0  0  0  0  0  0  0  0  0  0  0
    3.5770    1.9300   -3.3880 C   0  0  0  0  0  0  0  0  0  0  0  0
    2.4350    1.1430   -3.5340 C   0  0  0  0  0  0  0  0  0  0  0  0
    2.2730   -0.0030   -2.7560 C   0  0  0  0  0  0  0  0  0  0  0  0
   -3.1840    0.4420   -1.1610 C   0  0  0  0  0  0  0  0  0  0  0  0
   -3.4310    0.6610    0.0600 O   0  0  0  0  0  0  0  0  0  0  0  0
   -3.9160    0.6420   -2.1820 O   0  0  0  0  0  0  0  0  0  0  0  0
   -1.3007   -0.8562   -3.3907 H   0  0  0  0  0  0  0  0  0  0  0  0
   -0.8956   -2.3995   -4.2159 H   0  0  0  0  0  0  0  0  0  0  0  0
   -2.5884   -1.7984   -4.2159 H   0  0  0  0  0  0  0  0  0  0  0  0
   -2.9371   -3.0805   -2.3535 H   0  0  0  0  0  0  0  0  0  0  0  0
   -0.7382   -3.9738   -1.1247 H   0  0  0  0  0  0  0  0  0  0  0  0
   -1.3141   -4.6775   -2.6738 H   0  0  0  0  0  0  0  0  0  0  0  0
    0.0270   -3.4825   -2.6738 H   0  0  0  0  0  0  0  0  0  0  0  0
   -2.8060   -1.8029   -0.5510 H   0  0  0  0  0  0  0  0  0  0  0  0
   -0.9644   -1.9095   -0.5867 H   0  0  0  0  0  0  0  0  0  0  0  0
   -1.4991   -0.0232   -2.5465 H   0  0  0  0  0  0  0  0  0  0  0  0
   -0.6280    0.0760    0.2220 H   0  0  0  0  0  0  0  0  0  0  0  0
    0.2888    2.8087    0.8811 H   0  0  0  0  0  0  0  0  0  0  0  0
    2.8363    2.9190   -0.0575 H   0  0  0  0  0  0  0  0  0  0  0  0
    1.7861    3.0433   -1.5690 H   0  0  0  0  0  0  0  0  0  0  0  0
    0.7073    4.9242   -0.8101 H   0  0  0  0  0  0  0  0  0  0  0  0
    1.9570    4.3264    1.8836 H   0  0  0  0  0  0  0  0  0  0  0  0
    1.5253    6.0209    1.4727 H   0  0  0  0  0  0  0  0  0  0  0  0
    0.2595    4.7463    1.4727 H   0  0  0  0  0  0  0  0  0  0  0  0
    3.2630    6.0128    0.1315 H   0  0  0  0  0  0  0  0  0  0  0  0
    3.4248    4.9904   -1.3366 H   0  0  0  0  0  0  0  0  0  0  0  0
    2.2992    6.3903   -1.3366 H   0  0  0  0  0  0  0  0  0  0  0  0
    2.4000    1.0700    0.8910 H   0  0  0  0  0  0  0  0  0  0  0  0
    2.2869   -1.1441    3.5390 H   0  0  0  0  0  0  0  0  0  0  0  0
    0.7573   -1.8344    2.9901 H   0  0  0  0  0  0  0  0  0  0  0  0
    2.5590   -0.6460    1.0040 H   0  0  0  0  0  0  0  0  0  0  0  0
    3.6459   -1.5549   -0.0706 H   0  0  0  0  0  0  0  0  0  0  0  0
    3.3878   -2.5043   -1.5623 H   0  0  0  0  0  0  0  0  0  0  0  0
    5.1693    0.1446   -0.9504 H   0  0  0  0  0  0  0  0  0  0  0  0
    5.4572    2.1913   -2.3474 H   0  0  0  0  0  0  0  0  0  0  0  0
    3.7054    2.8331   -4.0027 H   0  0  0  0  0  0  0  0  0  0  0  0
    1.6617    1.4263   -4.2632 H   0  0  0  0  0  0  0  0  0  0  0  0
    1.3729   -0.6232   -2.8788 H   0  0  0  0  0  0  0  0  0  0  0  0
  1  2  1  0
  2  3  1  0
  2  4  1  0
  4  5  1  0
  5  6  1  0
  6  7  1  0
  7  8  2  0
  7  9  1  0
  9 10  1  0
 10 11  1  0
 11 12  1  0
 11 13  1  0
  9 14  1  0
 14 15  1  0
 15 16  2  0
 15 17  1  6
 15 18  1  0
 18 19  1  0
 19 20  1  0
 20 21  2  0
 20 22  1  0
 22 23  1  0
 23 24  1  0
 24 25  2  0
 25 26  1  0
 26 27  2  0
 27 28  1  0
 28 29  2  0
  5 30  1  0
 30 31  2  0
 30 32  1  0
 29 24  1  0
  1 33  1  0
  1 34  1  0
  1 35  1  0
  2 36  1  0
  3 37  1  0
  3 38  1  0
  3 39  1  0
  4 40  1  0
  4 41  1  0
  5 42  1  6
  6 43  1  0
  9 44  1  1
 10 45  1  0
 10 46  1  0
 11 47  1  0
 12 48  1  0
 12 49  1  0
 12 50  1  0
 13 51  1  0
 13 52  1  0
 13 53  1  0
 14 54  1  0
 18 55  1  0
 18 56  1  0
 19 57  1  0
 23 58  1  0
 23 59  1  0
 25 60  1  0
 26 61  1  0
 27 62  1  0
 28 63  1  0
 29 64  1  0
M  CHG  2  17  -1  32  -1
M  END
>  <meeko>  (3) 
{"is_sidechain": [false], "free_energy": -7.56, "intermolecular_energy": -12.318, "internal_energy": -3.507}

$$$$
5tmn_ligand
     RDKit          3D

 64 64  0  0  0  0  0  0  0  0999 V2000
    2.1600    4.0380   -0.4670 C   0  0  0  0  0  0  0  0  0  0  0  0
    1.7240    5.1190    0.5260 C   0  0  0  0  0  0  0  0  0  0  0  0
    1.7190    6.4790   -0.1760 C   0  0  0  0  0  0  0  0  0  0  0  0
    0.3430    4.7610    1.1090 C   0  0  0  0  0  0  0  0  0  0  0  0
    0.3520    3.7930    2.3070 C   0  0  2  0  0  0  0  0  0  0  0  0
   -0.3940    2.5540    2.0050 N   0  0  0  0  0  0  0  0  0  0  0  0
    0.1660    1.3350    1.6960 C   0  0  0  0  0  0  0  0  0  0  0  0
    1.3720    1.1780    1.5120 O   0  0  0  0  0  0  0  0  0  0  0  0
   -0.8730    0.2020    1.5370 C   0  0  2  0  0  0  0  0  0  0  0  0
   -2.2950    0.7630    1.3970 C   0  0  0  0  0  0  0  0  0  0  0  0
   -2.8850    0.7490   -0.0310 C   0  0  0  0  0  0  0  0  0  0  0  0
   -1.8840    0.2050   -1.0560 C   0  0  0  0  0  0  0  0  0  0  0  0
   -4.2120   -0.0010   -0.1390 C   0  0  0  0  0  0  0  0  0  0  0  0
   -0.7080   -0.8610    2.5560 N   0  0  0  0  0  0  0  0  0  0  0  0
   -0.6840   -2.5520    2.2570 P   0  0  1  0  0  5  0  0  0  0  0  0
   -1.3240   -3.2970    3.3990 O   0  0  0  0  0  0  0  0  0  0  0  0
   -1.2630   -2.6930    0.8650 O   0  0  0  0  0  0  0  0  0  0  0  0
    1.1020   -3.0400    2.1040 C   0  0  0  0  0  0  0  0  0  0  0  0
    1.7080   -2.0130    1.2600 N   0  0  0  0  0  0  0  0  0  0  0  0
    1.7580   -2.2670   -0.0770 C   0  0  0  0  0  0  0  0  0  0  0  0
    2.0340   -3.3380   -0.6010 O   0  0  0  0  0  0  0  0  0  0  0  0
    1.4620   -1.1300   -0.7490 O   0  0  0  0  0  0  0  0  0  0  0  0
    1.8190   -1.1850   -2.1290 C   0  0  0  0  0  0  0  0  0  0  0  0
    2.7650   -0.0440   -2.4180 C   0  0  0  0  0  0  0  0  0  0  0  0
    4.0190    0.0400   -1.7990 C   0  0  0  0  0  0  0  0  0  0  0  0
    4.8810    1.1000   -2.0920 C   0  0  0  0  0  0  0  0  0  0  0  0
    4.4970    2.0820   -3.0060 C   0  0  0  0  0  0  0  0  0  0  0  0
    3.2510    2.0050   -3.6280 C   0  0  0  0  0  0  0  0  0  0  0  0
    2.3900    0.9470   -3.3370 C   0  0  0  0  0  0  0  0  0  0  0  0
   -0.3250    4.5860    3.4840 C   0  0  0  0  0  0  0  0  0  0  0  0
   -0.2910    5.8480    3.4060 O   0  0  0  0  0  0  0  0  0  0  0  0
   -0.8320    3.8450    4.3850 O   0  0  0  0  0  0  0  0  0  0  0  0
    2.5160    3.1554    0.0847 H   0  0  0  0  0  0  0  0  0  0  0  0
    1.3057    3.7551   -1.0995 H   0  0  0  0  0  0  0  0  0  0  0  0
    2.9716    4.4270   -1.0995 H   0  0  0  0  0  0  0  0  0  0  0  0
    2.4321    5.1762    1.3658 H   0  0  0  0  0  0  0  0  0  0  0  0
    1.7161    7.2805    0.5774 H   0  0  0  0  0  0  0  0  0  0  0  0
    2.6168    6.5703   -0.8050 H   0  0  0  0  0  0  0  0  0  0  0  0
    0.8205    6.5637   -0.8050 H   0  0  0  0  0  0  0  0  0  0  0  0
   -0.1389    5.6951    1.4334 H   0  0  0  0  0  0  0  0  0  0  0  0
   -0.1940    4.2365    0.3049 H   0  0  0  0  0  0  0  0  0  0  0  0
    1.3736    3.4737    2.5606 H   0  0  0  0  0  0  0  0  0  0  0  0
   -1.3440    2.6000    2.3740 H   0  0  0  0  0  0  0  0  0  0  0  0
   -0.6790   -0.3162    0.5863 H   0  0  0  0  0  0  0  0  0  0  0  0
   -2.9579    0.1676    2.0421 H   0  0  0  0  0  0  0  0  0  0  0  0
   -2.2277    1.8232    1.6824 H   0  0  0  0  0  0  0  0  0  0  0  0
   -3.0950    1.8034   -0.2637 H   0  0  0  0  0  0  0  0  0  0  0  0
   -1.0350   -0.2564   -0.5303 H   0  0  0  0  0  0  0  0  0  0  0  0
   -2.3781   -0.5487   -1.6867 H   0  0  0  0  0  0  0  0  0  0  0  0
   -1.5204    1.0296   -1.6867 H   0  0  0  0  0  0  0  0  0  0  0  0
   -4.5942   -0.2170    0.8696 H   0  0  0  0  0  0  0  0  0  0  0  0
   -4.9404    0.6190   -0.6822 H   0  0  0  0  0  0  0  0  0  0  0  0
   -4.0566   -0.9448   -0.6822 H   0  0  0  0  0  0  0  0  0  0  0  0
   -1.3140   -0.7240    3.3680 H   0  0  0  0  0  0  0  0  0  0  0  0
    1.5827   -3.0596    3.0932 H   0  0  0  0  0  0  0  0  0  0  0  0
    1.2183   -4.0463    1.6752 H   0  0  0  0  0  0  0  0  0  0  0  0
    1.2660   -1.1140    1.4330 H   0  0  0  0  0  0  0  0  0  0  0  0
    2.3134   -2.1430   -2.3477 H   0  0  0  0  0  0  0  0  0  0  0  0
    0.9201   -1.1014   -2.7574 H   0  0  0  0  0  0  0  0  0  0  0  0
    4.3266   -0.7324   -1.0787 H   0  0  0  0  0  0  0  0  0  0  0  0
    5.8637    1.1604   -1.6014 H   0  0  0  0  0  0  0  0  0  0  0  0
    5.1764    2.9161   -3.2357 H   0  0  0  0  0  0  0  0  0  0  0  0
    2.9473    2.7789   -4.3483 H   0  0  0  0  0  0  0  0  0  0  0  0
    1.4094    0.8894   -3.8320 H   0  0  0  0  0  0  0  0  0  0  0  0
  1  2  1  0
  2  3  1  0
  2  4  1  0
  4  5  1  0
  5  6  1  0
  6  7  1  0
  7  8  2  0
  7  9  1  0
  9 10  1  0
 10 11  1  0
 11 12  1  0
 11 13  1  0
  9 14  1  0
 14 15  1  0
 15 16  2  0
 15 17  1  6
 15 18  1  0
 18 19  1  0
 19 20  1  0
 20 21  2  0
 20 22  1  0
 22 23  1  0
 23 24  1  0
 24 25  2  0
 25 26  1  0
 26 27  2  0
 27 28  1  0
 28 29  2  0
  5 30  1  0
 30 31  2  0
 30 32  1  0
 29 24  1  0
  1 33  1  0
  1 34  1  0
  1 35  1  0
  2 36  1  0
  3 37  1  0
  3 38  1  0
  3 39  1  0
  4 40  1  0
  4 41  1  0
  5 42  1  1
  6 43  1  0
  9 44  1  6
 10 45  1  0
 10 46  1  0
 11 47  1  0
 12 48  1  0
 12 49  1  0
 12 50  1  0
 13 51  1  0
 13 52  1  0
 13 53  1  0
 14 54  1  0
 18 55  1  0
 18 56  1  0
 19 57  1  0
 23 58  1  0
 23 59  1  0
 25 60  1  0
 26 61  1  0
 27 62  1  0
 28 63  1  0
 29 64  1  0
M  CHG  2  17  -1  32  -1
M  END
>  <meeko>  (4) 
{"is_sidechain": [false], "free_energy": -7.537, "intermolecular_energy": -13.309, "internal_energy": -2.474}

$$$$
5tmn_ligand
     RDKit          3D

 64 64  0  0  0  0  0  0  0  0999 V2000
    2.7010    4.9440   -1.9310 C   0  0  0  0  0  0  0  0  0  0  0  0
    2.5720    5.6260   -0.5660 C   0  0  0  0  0  0  0  0  0  0  0  0
    3.2230    7.0100   -0.6270 C   0  0  0  0  0  0  0  0  0  0  0  0
    1.0870    5.7000   -0.1610 C   0  0  0  0  0  0  0  0  0  0  0  0
    0.5310    4.4660    0.5760 C   0  0  2  0  0  0  0  0  0  0  0  0
   -0.5440    3.8150   -0.1990 N   0  0  0  0  0  0  0  0  0  0  0  0
   -0.6040    2.4770   -0.5210 C   0  0  0  0  0  0  0  0  0  0  0  0
    0.3160    1.6920   -0.2990 O   0  0  0  0  0  0  0  0  0  0  0  0
   -1.9090    2.0760   -1.2460 C   0  0  2  0  0  0  0  0  0  0  0  0
   -2.0630    0.5510   -1.3190 C   0  0  0  0  0  0  0  0  0  0  0  0
   -3.0300   -0.0760   -0.2890 C   0  0  0  0  0  0  0  0  0  0  0  0
   -3.0400    0.7010    1.0310 C   0  0  0  0  0  0  0  0  0  0  0  0
   -4.4550   -0.2480   -0.8120 C   0  0  0  0  0  0  0  0  0  0  0  0
   -2.0830    2.7940   -2.5310 N   0  0  0  0  0  0  0  0  0  0  0  0
   -1.0490    2.6800   -3.8980 P   0  0  1  0  0  5  0  0  0  0  0  0
   -0.4360    4.0200   -4.2060 O   0  0  0  0  0  0  0  0  0  0  0  0
   -0.1460    1.5070   -3.5870 O   0  0  0  0  0  0  0  0  0  0  0  0
   -2.1090    2.1270   -5.3210 C   0  0  0  0  0  0  0  0  0  0  0  0
   -2.5090    0.7620   -4.9920 N   0  0  0  0  0  0  0  0  0  0  0  0
   -3.8130    0.5700   -4.6470 C   0  0  0  0  0  0  0  0  0  0  0  0
   -4.4870    1.2990   -3.9320 O   0  0  0  0  0  0  0  0  0  0  0  0
   -4.2510   -0.5780   -5.2160 O   0  0  0  0  0  0  0  0  0  0  0  0
   -4.8290   -1.4830   -4.2770 C   0  0  0  0  0  0  0  0  0  0  0  0
   -3.9690   -2.7240   -4.2280 C   0  0  0  0  0  0  0  0  0  0  0  0
   -4.2140   -3.8160   -5.0700 C   0  0  0  0  0  0  0  0  0  0  0  0
   -3.3960   -4.9480   -5.0140 C   0  0  0  0  0  0  0  0  0  0  0  0
   -2.3290   -4.9960   -4.1170 C   0  0  0  0  0  0  0  0  0  0  0  0
   -2.0770   -3.9130   -3.2760 C   0  0  0  0  0  0  0  0  0  0  0  0
   -2.8920   -2.7810   -3.3320 C   0  0  0  0  0  0  0  0  0  0  0  0
   -0.0140    5.0150    1.9450 C   0  0  0  0  0  0  0  0  0  0  0  0
    0.0990    4.2470    2.9440 O   0  0  0  0  0  0  0  0  0  0  0  0
   -0.5100    6.1840    1.8760 O   0  0  0  0  0  0  0  0  0  0  0  0
    2.9037    3.8724   -1.7878 H   0  0  0  0  0  0  0  0  0  0  0  0
    1.7635    5.0679   -2.4929 H   0  0  0  0  0  0  0  0  0  0  0  0
    3.5285    5.4018   -2.4929 H   0  0  0  0  0  0  0  0  0  0  0  0
    3.0957    5.0415    0.2048 H   0  0  0  0  0  0  0  0  0  0  0  0
    3.3965    7.3789    0.3947 H   0  0  0  0  0  0  0  0  0  0  0  0
    4.1829    6.9405   -1.1597 H   0  0  0  0  0  0  0  0  0  0  0  0
    2.5574    7.7051   -1.1597 H   0  0  0  0  0  0  0  0  0  0  0  0
    0.9596    6.5721    0.4972 H   0  0  0  0  0  0  0  0  0  0  0  0
    0.5230    5.7647   -1.1032 H   0  0  0  0  0  0  0  0  0  0  0  0
    1.3048    3.6975    0.7196 H   0  0  0  0  0  0  0  0  0  0  0  0
   -1.3970    4.3740   -0.1830 H   0  0  0  0  0  0  0  0  0  0  0  0
   -2.7615    2.4162   -0.6398 H   0  0  0  0  0  0  0  0  0  0  0  0
   -2.4289    0.2962   -2.3246 H   0  0  0  0  0  0  0  0  0  0  0  0
   -1.0700    0.1383   -1.0873 H   0  0  0  0  0  0  0  0  0  0  0  0
   -2.6343   -1.0855   -0.1036 H   0  0  0  0  0  0  0  0  0  0  0  0
   -3.0309   -0.0067    1.8731 H   0  0  0  0  0  0  0  0  0  0  0  0
   -2.1501    1.3454    1.0839 H   0  0  0  0  0  0  0  0  0  0  0  0
   -3.9462    1.3223    1.0839 H   0  0  0  0  0  0  0  0  0  0  0  0
   -5.1495   -0.3318    0.0369 H   0  0  0  0  0  0  0  0  0  0  0  0
   -4.7284    0.6237   -1.4247 H   0  0  0  0  0  0  0  0  0  0  0  0
   -4.5132   -1.1597   -1.4247 H   0  0  0  0  0  0  0  0  0  0  0  0
   -2.2760    3.7890   -2.4020 H   0  0  0  0  0  0  0  0  0  0  0  0
   -2.9925    2.7750   -5.4186 H   0  0  0  0  0  0  0  0  0  0  0  0
   -1.5709    2.1783   -6.2790 H   0  0  0  0  0  0  0  0  0  0  0  0
   -2.2460    0.1300   -5.7440 H   0  0  0  0  0  0  0  0  0  0  0  0
   -4.8648   -1.0151   -3.2821 H   0  0  0  0  0  0  0  0  0  0  0  0
   -5.8541   -1.7424   -4.5802 H   0  0  0  0  0  0  0  0  0  0  0  0
   -5.0544   -3.7826   -5.7790 H   0  0  0  0  0  0  0  0  0  0  0  0
   -3.5940   -5.8022   -5.6782 H   0  0  0  0  0  0  0  0  0  0  0  0
   -1.6867   -5.8879   -4.0732 H   0  0  0  0  0  0  0  0  0  0  0  0
   -1.2358   -3.9505   -2.5682 H   0  0  0  0  0  0  0  0  0  0  0  0
   -2.6878   -1.9277   -2.6685 H   0  0  0  0  0  0  0  0  0  0  0  0
  1  2  1  0
  2  3  1  0
  2  4  1  0
  4  5  1  0
  5  6  1  0
  6  7  1  0
  7  8  2  0
  7  9  1  0
  9 10  1  0
 10 11  1  0
 11 12  1  0
 11 13  1  0
  9 14  1  0
 14 15  1  0
 15 16  2  0
 15 17  1  1
 15 18  1  0
 18 19  1  0
 19 20  1  0
 20 21  2  0
 20 22  1  0
 22 23  1  0
 23 24  1  0
 24 25  2  0
 25 26  1  0
 26 27  2  0
 27 28  1  0
 28 29  2  0
  5 30  1  0
 30 31  2  0
 30 32  1  0
 29 24  1  0
  1 33  1  0
  1 34  1  0
  1 35  1  0
  2 36  1  0
  3 37  1  0
  3 38  1  0
  3 39  1  0
  4 40  1  0
  4 41  1  0
  5 42  1  1
  6 43  1  0
  9 44  1  1
 10 45  1  0
 10 46  1  0
 11 47  1  0
 12 48  1  0
 12 49  1  0
 12 50  1  0
 13 51  1  0
 13 52  1  0
 13 53  1  0
 14 54  1  0
 18 55  1  0
 18 56  1  0
 19 57  1  0
 23 58  1  0
 23 59  1  0
 25 60  1  0
 26 61  1  0
 27 62  1  0
 28 63  1  0
 29 64  1  0
M  CHG  2  17  -1  32  -1
M  END
>  <meeko>  (5) 
{"is_sidechain": [false], "free_energy": -7.475, "intermolecular_energy": -13.782, "internal_energy": -1.889}

$$$$
5tmn_ligand
     RDKit          3D

 64 64  0  0  0  0  0  0  0  0999 V2000
    1.4220    2.8990   -4.4440 C   0  0  0  0  0  0  0  0  0  0  0  0
    2.6700    2.0190   -4.5640 C   0  0  0  0  0  0  0  0  0  0  0  0
    3.7340    2.7560   -5.3820 C   0  0  0  0  0  0  0  0  0  0  0  0
    3.1770    1.6410   -3.1590 C   0  0  0  0  0  0  0  0  0  0  0  0
    2.5620    0.3690   -2.5450 C   0  0  2  0  0  0  0  0  0  0  0  0
    1.4280    0.6920   -1.6560 N   0  0  0  0  0  0  0  0  0  0  0  0
    0.1000    0.4470   -1.9270 C   0  0  0  0  0  0  0  0  0  0  0  0
   -0.2970    0.0390   -3.0170 O   0  0  0  0  0  0  0  0  0  0  0  0
   -0.8430    0.7990   -0.7540 C   0  0  2  0  0  0  0  0  0  0  0  0
   -2.1650    1.3940   -1.2580 C   0  0  0  0  0  0  0  0  0  0  0  0
   -3.4370    0.5840   -0.9200 C   0  0  0  0  0  0  0  0  0  0  0  0
   -3.5180   -0.7160   -1.7260 C   0  0  0  0  0  0  0  0  0  0  0  0
   -3.6000    0.2930    0.5710 C   0  0  0  0  0  0  0  0  0  0  0  0
   -0.1590    1.5780    0.3040 N   0  0  0  0  0  0  0  0  0  0  0  0
    0.4140    0.9610    1.8010 P   0  0  1  0  0  5  0  0  0  0  0  0
   -0.6240    0.0720    2.4340 O   0  0  0  0  0  0  0  0  0  0  0  0
    1.7760    0.3900    1.4730 O   0  0  0  0  0  0  0  0  0  0  0  0
    0.7400    2.4290    2.8920 C   0  0  0  0  0  0  0  0  0  0  0  0
    0.2730    3.5840    2.1290 N   0  0  0  0  0  0  0  0  0  0  0  0
    0.5780    4.8140    2.6290 C   0  0  0  0  0  0  0  0  0  0  0  0
    0.5340    5.1490    3.8040 O   0  0  0  0  0  0  0  0  0  0  0  0
    0.9300    5.6270    1.6040 O   0  0  0  0  0  0  0  0  0  0  0  0
    0.9650    4.9560    0.3450 C   0  0  0  0  0  0  0  0  0  0  0  0
    2.0980    5.5360   -0.4670 C   0  0  0  0  0  0  0  0  0  0  0  0
    2.7280    4.7950   -1.4750 C   0  0  0  0  0  0  0  0  0  0  0  0
    3.7670    5.3590   -2.2210 C   0  0  0  0  0  0  0  0  0  0  0  0
    4.1830    6.6650   -1.9650 C   0  0  0  0  0  0  0  0  0  0  0  0
    3.5610    7.4100   -0.9640 C   0  0  0  0  0  0  0  0  0  0  0  0
    2.5230    6.8500   -0.2200 C   0  0  0  0  0  0  0  0  0  0  0  0
    3.7330   -0.3080   -1.7420 C   0  0  0  0  0  0  0  0  0  0  0  0
    3.4770   -1.4260   -1.2080 O   0  0  0  0  0  0  0  0  0  0  0  0
    4.8110    0.3660   -1.7280 O   0  0  0  0  0  0  0  0  0  0  0  0
    1.1897    3.0628   -3.3814 H   0  0  0  0  0  0  0  0  0  0  0  0
    1.6076    3.8671   -4.9322 H   0  0  0  0  0  0  0  0  0  0  0  0
    0.5725    2.3990   -4.9322 H   0  0  0  0  0  0  0  0  0  0  0  0
    2.4286    1.0837   -5.0902 H   0  0  0  0  0  0  0  0  0  0  0  0
    4.4443    3.2480   -4.7012 H   0  0  0  0  0  0  0  0  0  0  0  0
    4.2725    2.0364   -6.0162 H   0  0  0  0  0  0  0  0  0  0  0  0
    3.2497    3.5131   -6.0162 H   0  0  0  0  0  0  0  0  0  0  0  0
    4.2653    1.4938   -3.2211 H   0  0  0  0  0  0  0  0  0  0  0  0
    2.8747    2.4678   -2.4994 H   0  0  0  0  0  0  0  0  0  0  0  0
    2.1544   -0.2972   -3.3196 H   0  0  0  0  0  0  0  0  0  0  0  0
    1.7390    0.8020   -0.6910 H   0  0  0  0  0  0  0  0  0  0  0  0
   -1.1294   -0.1340   -0.2466 H   0  0  0  0  0  0  0  0  0  0  0  0
   -2.2749    2.3955   -0.8164 H   0  0  0  0  0  0  0  0  0  0  0  0
   -2.0937    1.3956   -2.3557 H   0  0  0  0  0  0  0  0  0  0  0  0
   -4.2748    1.2344   -1.2116 H   0  0  0  0  0  0  0  0  0  0  0  0
   -3.5713   -1.5719   -1.0370 H   0  0  0  0  0  0  0  0  0  0  0  0
   -4.4168   -0.6990   -2.3599 H   0  0  0  0  0  0  0  0  0  0  0  0
   -2.6240   -0.8107   -2.3599 H   0  0  0  0  0  0  0  0  0  0  0  0
   -3.1445    1.1062    1.1552 H   0  0  0  0  0  0  0  0  0  0  0  0
   -4.6700    0.2206    0.8156 H   0  0  0  0  0  0  0  0  0  0  0  0
   -3.1028   -0.6573    0.8156 H   0  0  0  0  0  0  0  0  0  0  0  0
   -0.6420    2.4520    0.5220 H   0  0  0  0  0  0  0  0  0  0  0  0
    0.1827    2.3394    3.8361 H   0  0  0  0  0  0  0  0  0  0  0  0
    1.8037    2.5151    3.1587 H   0  0  0  0  0  0  0  0  0  0  0  0
    0.5790    3.5090    1.1620 H   0  0  0  0  0  0  0  0  0  0  0  0
    1.1314    3.8799    0.5010 H   0  0  0  0  0  0  0  0  0  0  0  0
    0.0102    5.0909   -0.1843 H   0  0  0  0  0  0  0  0  0  0  0  0
    2.4036    3.7642   -1.6806 H   0  0  0  0  0  0  0  0  0  0  0  0
    4.2572    4.7715   -3.0113 H   0  0  0  0  0  0  0  0  0  0  0  0
    5.0013    7.1072   -2.5523 H   0  0  0  0  0  0  0  0  0  0  0  0
    3.8892    8.4401   -0.7610 H   0  0  0  0  0  0  0  0  0  0  0  0
    2.0337    7.4431    0.5666 H   0  0  0  0  0  0  0  0  0  0  0  0
  1  2  1  0
  2  3  1  0
  2  4  1  0
  4  5  1  0
  5  6  1  0
  6  7  1  0
  7  8  2  0
  7  9  1  0
  9 10  1  0
 10 11  1  0
 11 12  1  0
 11 13  1  0
  9 14  1  0
 14 15  1  0
 15 16  2  0
 15 17  1  6
 15 18  1  0
 18 19  1  0
 19 20  1  0
 20 21  2  0
 20 22  1  0
 22 23  1  0
 23 24  1  0
 24 25  2  0
 25 26  1  0
 26 27  2  0
 27 28  1  0
 28 29  2  0
  5 30  1  0
 30 31  2  0
 30 32  1  0
 29 24  1  0
  1 33  1  0
  1 34  1  0
  1 35  1  0
  2 36  1  0
  3 37  1  0
  3 38  1  0
  3 39  1  0
  4 40  1  0
  4 41  1  0
  5 42  1  6
  6 43  1  0
  9 44  1  1
 10 45  1  0
 10 46  1  0
 11 47  1  0
 12 48  1  0
 12 49  1  0
 12 50  1  0
 13 51  1  0
 13 52  1  0
 13 53  1  0
 14 54  1  0
 18 55  1  0
 18 56  1  0
 19 57  1  0
 23 58  1  0
 23 59  1  0
 25 60  1  0
 26 61  1  0
 27 62  1  0
 28 63  1  0
 29 64  1  0
M  CHG  2  17  -1  32  -1
M  END
>  <meeko>  (6) 
{"is_sidechain": [false], "free_energy": -7.465, "intermolecular_energy": -13.104, "internal_energy": -2.548}

$$$$
5tmn_ligand
     RDKit          3D

 64 64  0  0  0  0  0  0  0  0999 V2000
    2.9250    8.4480   -2.2840 C   0  0  0  0  0  0  0  0  0  0  0  0
    2.7300    6.9950   -1.8390 C   0  0  0  0  0  0  0  0  0  0  0  0
    4.0640    6.2520   -1.9360 C   0  0  0  0  0  0  0  0  0  0  0  0
    2.1490    6.9640   -0.4120 C   0  0  0  0  0  0  0  0  0  0  0  0
    1.6700    5.5870    0.0860 C   0  0  2  0  0  0  0  0  0  0  0  0
    0.9570    4.8480   -0.9750 N   0  0  0  0  0  0  0  0  0  0  0  0
    0.6630    3.5020   -0.9570 C   0  0  0  0  0  0  0  0  0  0  0  0
    1.0820    2.7360   -0.0930 O   0  0  0  0  0  0  0  0  0  0  0  0
   -0.1890    3.0430   -2.1630 C   0  0  2  0  0  0  0  0  0  0  0  0
   -1.6550    2.8280   -1.7630 C   0  0  0  0  0  0  0  0  0  0  0  0
   -2.0280    1.3940   -1.3240 C   0  0  0  0  0  0  0  0  0  0  0  0
   -2.2370    1.2970    0.1910 C   0  0  0  0  0  0  0  0  0  0  0  0
   -3.2380    0.8230   -2.0620 C   0  0  0  0  0  0  0  0  0  0  0  0
    0.4380    1.9210   -2.9000 N   0  0  0  0  0  0  0  0  0  0  0  0
    0.2910    1.6120   -4.5830 P   0  0  1  0  0  5  0  0  0  0  0  0
   -0.3320    2.7920   -5.2810 O   0  0  0  0  0  0  0  0  0  0  0  0
    1.6700    1.1500   -5.0000 O   0  0  0  0  0  0  0  0  0  0  0  0
   -0.8060    0.1220   -4.7570 C   0  0  0  0  0  0  0  0  0  0  0  0
    0.0770   -1.0260   -4.5710 N   0  0  0  0  0  0  0  0  0  0  0  0
    0.0500   -1.6310   -3.3510 C   0  0  0  0  0  0  0  0  0  0  0  0
   -0.0010   -1.0690   -2.2650 O   0  0  0  0  0  0  0  0  0  0  0  0
    0.1040   -2.9730   -3.5270 O   0  0  0  0  0  0  0  0  0  0  0  0
   -0.8750   -3.6770   -2.7640 C   0  0  0  0  0  0  0  0  0  0  0  0
   -2.1090   -3.8420   -3.6170 C   0  0  0  0  0  0  0  0  0  0  0  0
   -2.3240   -5.0000   -4.3760 C   0  0  0  0  0  0  0  0  0  0  0  0
   -3.4810   -5.1330   -5.1480 C   0  0  0  0  0  0  0  0  0  0  0  0
   -4.4310   -4.1120   -5.1660 C   0  0  0  0  0  0  0  0  0  0  0  0
   -4.2270   -2.9570   -4.4130 C   0  0  0  0  0  0  0  0  0  0  0  0
   -3.0730   -2.8230   -3.6410 C   0  0  0  0  0  0  0  0  0  0  0  0
    0.7150    5.8960    1.2970 C   0  0  0  0  0  0  0  0  0  0  0  0
   -0.3170    6.5810    1.0400 O   0  0  0  0  0  0  0  0  0  0  0  0
    1.1070    5.4100    2.4050 O   0  0  0  0  0  0  0  0  0  0  0  0
    3.0117    9.0943   -1.3981 H   0  0  0  0  0  0  0  0  0  0  0  0
    3.8418    8.5270   -2.8867 H   0  0  0  0  0  0  0  0  0  0  0  0
    2.0615    8.7659   -2.8867 H   0  0  0  0  0  0  0  0  0  0  0  0
    2.0127    6.4847   -2.4986 H   0  0  0  0  0  0  0  0  0  0  0  0
    4.4411    6.0420   -0.9242 H   0  0  0  0  0  0  0  0  0  0  0  0
    3.9179    5.3053   -2.4767 H   0  0  0  0  0  0  0  0  0  0  0  0
    4.7920    6.8746   -2.4767 H   0  0  0  0  0  0  0  0  0  0  0  0
    2.9284    7.3202    0.2777 H   0  0  0  0  0  0  0  0  0  0  0  0
    1.2523    7.6005   -0.4401 H   0  0  0  0  0  0  0  0  0  0  0  0
    2.5150    4.9474    0.3809 H   0  0  0  0  0  0  0  0  0  0  0  0
    0.4110    5.4810   -1.5590 H   0  0  0  0  0  0  0  0  0  0  0  0
   -0.2148    3.8586   -2.9006 H   0  0  0  0  0  0  0  0  0  0  0  0
   -1.8798    3.5064   -0.9268 H   0  0  0  0  0  0  0  0  0  0  0  0
   -2.2448    3.0261   -2.6702 H   0  0  0  0  0  0  0  0  0  0  0  0
   -1.1624    0.7753   -1.6032 H   0  0  0  0  0  0  0  0  0  0  0  0
   -1.3570    1.7054    0.7094 H   0  0  0  0  0  0  0  0  0  0  0  0
   -3.1301    1.8727    0.4755 H   0  0  0  0  0  0  0  0  0  0  0  0
   -2.3739    0.2433    0.4755 H   0  0  0  0  0  0  0  0  0  0  0  0
   -3.9813    0.4722   -1.3310 H   0  0  0  0  0  0  0  0  0  0  0  0
   -3.6852    1.6051   -2.6931 H   0  0  0  0  0  0  0  0  0  0  0  0
   -2.9186   -0.0194   -2.6931 H   0  0  0  0  0  0  0  0  0  0  0  0
    0.3070    1.0210   -2.4330 H   0  0  0  0  0  0  0  0  0  0  0  0
   -1.5940    0.1312   -3.9895 H   0  0  0  0  0  0  0  0  0  0  0  0
   -1.3141    0.0967   -5.7323 H   0  0  0  0  0  0  0  0  0  0  0  0
   -0.0800   -1.7090   -5.3080 H   0  0  0  0  0  0  0  0  0  0  0  0
   -0.4848   -4.6651   -2.4787 H   0  0  0  0  0  0  0  0  0  0  0  0
   -1.1180   -3.1171   -1.8488 H   0  0  0  0  0  0  0  0  0  0  0  0
   -1.5782   -5.8085   -4.3640 H   0  0  0  0  0  0  0  0  0  0  0  0
   -3.6428   -6.0443   -5.7424 H   0  0  0  0  0  0  0  0  0  0  0  0
   -5.3412   -4.2183   -5.7745 H   0  0  0  0  0  0  0  0  0  0  0  0
   -4.9758   -2.1514   -4.4275 H   0  0  0  0  0  0  0  0  0  0  0  0
   -2.9175   -1.9109   -3.0461 H   0  0  0  0  0  0  0  0  0  0  0  0
  1  2  1  0
  2  3  1  0
  2  4  1  0
  4  5  1  0
  5  6  1  0
  6  7  1  0
  7  8  2  0
  7  9  1  0
  9 10  1  0
 10 11  1  0
 11 12  1  0
 11 13  1  0
  9 14  1  0
 14 15  1  0
 15 16  2  0
 15 17  1  6
 15 18  1  0
 18 19  1  0
 19 20  1  0
 20 21  2  0
 20 22  1  0
 22 23  1  0
 23 24  1  0
 24 25  2  0
 25 26  1  0
 26 27  2  0
 27 28  1  0
 28 29  2  0
  5 30  1  0
 30 31  2  0
 30 32  1  0
 29 24  1  0
  1 33  1  0
  1 34  1  0
  1 35  1  0
  2 36  1  0
  3 37  1  0
  3 38  1  0
  3 39  1  0
  4 40  1  0
  4 41  1  0
  5 42  1  1
  6 43  1  0
  9 44  1  6
 10 45  1  0
 10 46  1  0
 11 47  1  0
 12 48  1  0
 12 49  1  0
 12 50  1  0
 13 51  1  0
 13 52  1  0
 13 53  1  0
 14 54  1  0
 18 55  1  0
 18 56  1  0
 19 57  1  0
 23 58  1  0
 23 59  1  0
 25 60  1  0
 26 61  1  0
 27 62  1  0
 28 63  1  0
 29 64  1  0
M  CHG  2  17  -1  32  -1
M  END
>  <meeko>  (7) 
{"is_sidechain": [false], "free_energy": -7.457, "intermolecular_energy": -13.813, "internal_energy": -1.825}

$$$$
5tmn_ligand
     RDKit          3D

 64 64  0  0  0  0  0  0  0  0999 V2000
    0.5730    3.6170   -1.8700 C   0  0  0  0  0  0  0  0  0  0  0  0
    1.7110    3.3300   -0.8860 C   0  0  0  0  0  0  0  0  0  0  0  0
    2.5230    4.6080   -0.6620 C   0  0  0  0  0  0  0  0  0  0  0  0
    1.1330    2.7700    0.4280 C   0  0  0  0  0  0  0  0  0  0  0  0
    1.1590    1.2370    0.5730 C   0  0  2  0  0  0  0  0  0  0  0  0
    0.0240    0.6100   -0.1340 N   0  0  0  0  0  0  0  0  0  0  0  0
   -0.0590   -0.7140   -0.5040 C   0  0  0  0  0  0  0  0  0  0  0  0
    0.8790   -1.5010   -0.3930 O   0  0  0  0  0  0  0  0  0  0  0  0
   -1.4190   -1.0940   -1.1330 C   0  0  2  0  0  0  0  0  0  0  0  0
   -2.5880   -0.6780   -0.2300 C   0  0  0  0  0  0  0  0  0  0  0  0
   -3.6390    0.2530   -0.8780 C   0  0  0  0  0  0  0  0  0  0  0  0
   -3.0040    1.2160   -1.8860 C   0  0  0  0  0  0  0  0  0  0  0  0
   -4.8040   -0.4950   -1.5230 C   0  0  0  0  0  0  0  0  0  0  0  0
   -1.4500   -2.4990   -1.6030 N   0  0  0  0  0  0  0  0  0  0  0  0
   -1.4910   -3.0150   -3.2400 P   0  0  1  0  0  5  0  0  0  0  0  0
   -0.1220   -3.4550   -3.6870 O   0  0  0  0  0  0  0  0  0  0  0  0
   -2.6390   -3.9990   -3.2930 O   0  0  0  0  0  0  0  0  0  0  0  0
   -2.0440   -1.5520   -4.2440 C   0  0  0  0  0  0  0  0  0  0  0  0
   -0.8130   -0.8830   -4.6550 N   0  0  0  0  0  0  0  0  0  0  0  0
   -0.8640    0.4730   -4.7800 C   0  0  0  0  0  0  0  0  0  0  0  0
   -1.7780    1.1210   -5.2700 O   0  0  0  0  0  0  0  0  0  0  0  0
    0.2790    1.0010   -4.2810 O   0  0  0  0  0  0  0  0  0  0  0  0
    1.2050    0.0100   -3.8360 C   0  0  0  0  0  0  0  0  0  0  0  0
    2.4710    0.7090   -3.4020 C   0  0  0  0  0  0  0  0  0  0  0  0
    3.2370    0.2340   -2.3290 C   0  0  0  0  0  0  0  0  0  0  0  0
    4.4110    0.8920   -1.9550 C   0  0  0  0  0  0  0  0  0  0  0  0
    4.8290    2.0280   -2.6490 C   0  0  0  0  0  0  0  0  0  0  0  0
    4.0730    2.5070   -3.7180 C   0  0  0  0  0  0  0  0  0  0  0  0
    2.9020    1.8500   -4.0950 C   0  0  0  0  0  0  0  0  0  0  0  0
    1.0770    0.9670    2.1200 C   0  0  0  0  0  0  0  0  0  0  0  0
    0.2140    1.6310    2.7630 O   0  0  0  0  0  0  0  0  0  0  0  0
    1.9060    0.0980    2.5400 O   0  0  0  0  0  0  0  0  0  0  0  0
   -0.3455    3.8486   -1.3109 H   0  0  0  0  0  0  0  0  0  0  0  0
    0.8432    4.4751   -2.5029 H   0  0  0  0  0  0  0  0  0  0  0  0
    0.4040    2.7334   -2.5029 H   0  0  0  0  0  0  0  0  0  0  0  0
    2.3899    2.5688   -1.2980 H   0  0  0  0  0  0  0  0  0  0  0  0
    2.6361    4.7860    0.4176 H   0  0  0  0  0  0  0  0  0  0  0  0
    3.5163    4.4965   -1.1213 H   0  0  0  0  0  0  0  0  0  0  0  0
    2.0001    5.4599   -1.1213 H   0  0  0  0  0  0  0  0  0  0  0  0
    1.7115    3.1974    1.2602 H   0  0  0  0  0  0  0  0  0  0  0  0
    0.0698    3.0520    0.4304 H   0  0  0  0  0  0  0  0  0  0  0  0
    2.0669    0.8043    0.1276 H   0  0  0  0  0  0  0  0  0  0  0  0
   -0.8270    1.1620   -0.0230 H   0  0  0  0  0  0  0  0  0  0  0  0
   -1.5509   -0.5080   -2.0545 H   0  0  0  0  0  0  0  0  0  0  0  0
   -3.1035   -1.5927    0.0980 H   0  0  0  0  0  0  0  0  0  0  0  0
   -2.1406   -0.0986    0.5910 H   0  0  0  0  0  0  0  0  0  0  0  0
   -4.0567    0.8368   -0.0445 H   0  0  0  0  0  0  0  0  0  0  0  0
   -2.4763    2.0162   -1.3463 H   0  0  0  0  0  0  0  0  0  0  0  0
   -2.2900    0.6672   -2.5177 H   0  0  0  0  0  0  0  0  0  0  0  0
   -3.7896    1.6561   -2.5177 H   0  0  0  0  0  0  0  0  0  0  0  0
   -5.4522   -0.9112   -0.7378 H   0  0  0  0  0  0  0  0  0  0  0  0
   -5.3847    0.1995   -2.1479 H   0  0  0  0  0  0  0  0  0  0  0  0
   -4.4142   -1.3120   -2.1479 H   0  0  0  0  0  0  0  0  0  0  0  0
   -2.1440   -3.0630   -1.1080 H   0  0  0  0  0  0  0  0  0  0  0  0
   -2.6161   -1.8818   -5.1237 H   0  0  0  0  0  0  0  0  0  0  0  0
   -2.7029   -0.8843   -3.6695 H   0  0  0  0  0  0  0  0  0  0  0  0
   -0.0480   -1.1530   -4.0430 H   0  0  0  0  0  0  0  0  0  0  0  0
    0.7772   -0.5457   -2.9886 H   0  0  0  0  0  0  0  0  0  0  0  0
    1.4218   -0.6996   -4.6480 H   0  0  0  0  0  0  0  0  0  0  0  0
    2.9122   -0.6613   -1.7786 H   0  0  0  0  0  0  0  0  0  0  0  0
    5.0073    0.5138   -1.1115 H   0  0  0  0  0  0  0  0  0  0  0  0
    5.7538    2.5450   -2.3531 H   0  0  0  0  0  0  0  0  0  0  0  0
    4.4004    3.4038   -4.2645 H   0  0  0  0  0  0  0  0  0  0  0  0
    2.3119    2.2294   -4.9422 H   0  0  0  0  0  0  0  0  0  0  0  0
  1  2  1  0
  2  3  1  0
  2  4  1  0
  4  5  1  0
  5  6  1  0
  6  7  1  0
  7  8  2  0
  7  9  1  0
  9 10  1  0
 10 11  1  0
 11 12  1  0
 11 13  1  0
  9 14  1  0
 14 15  1  0
 15 16  2  0
 15 17  1  1
 15 18  1  0
 18 19  1  0
 19 20  1  0
 20 21  2  0
 20 22  1  0
 22 23  1  0
 23 24  1  0
 24 25  2  0
 25 26  1  0
 26 27  2  0
 27 28  1  0
 28 29  2  0
  5 30  1  0
 30 31  2  0
 30 32  1  0
 29 24  1  0
  1 33  1  0
  1 34  1  0
  1 35  1  0
  2 36  1  0
  3 37  1  0
  3 38  1  0
  3 39  1  0
  4 40  1  0
  4 41  1  0
  5 42  1  6
  6 43  1  0
  9 44  1  6
 10 45  1  0
 10 46  1  0
 11 47  1  0
 12 48  1  0
 12 49  1  0
 12 50  1  0
 13 51  1  0
 13 52  1  0
 13 53  1  0
 14 54  1  0
 18 55  1  0
 18 56  1  0
 19 57  1  0
 23 58  1  0
 23 59  1  0
 25 60  1  0
 26 61  1  0
 27 62  1  0
 28 63  1  0
 29 64  1  0
M  CHG  2  17  -1  32  -1
M  END
>  <meeko>  (8) 
{"is_sidechain": [false], "free_energy": -7.41, "intermolecular_energy": -12.075, "internal_energy": -3.478}

$$$$
5tmn_ligand
     RDKit          3D

 64 64  0  0  0  0  0  0  0  0999 V2000
   -0.0100    2.8130   -1.0060 C   0  0  0  0  0  0  0  0  0  0  0  0
   -1.4710    2.7900   -1.4680 C   0  0  0  0  0  0  0  0  0  0  0  0
   -1.5190    2.7710   -2.9980 C   0  0  0  0  0  0  0  0  0  0  0  0
   -2.1920    1.5780   -0.8480 C   0  0  0  0  0  0  0  0  0  0  0  0
   -1.6690    0.1950   -1.2790 C   0  0  2  0  0  0  0  0  0  0  0  0
   -2.6530   -0.5180   -2.1180 N   0  0  0  0  0  0  0  0  0  0  0  0
   -2.4600   -0.9140   -3.4230 C   0  0  0  0  0  0  0  0  0  0  0  0
   -1.4700   -0.5980   -4.0790 O   0  0  0  0  0  0  0  0  0  0  0  0
   -3.6360   -1.7360   -3.9980 C   0  0  2  0  0  0  0  0  0  0  0  0
   -4.9870   -1.1960   -3.5100 C   0  0  0  0  0  0  0  0  0  0  0  0
   -5.6550   -0.1370   -4.4170 C   0  0  0  0  0  0  0  0  0  0  0  0
   -7.1390    0.0450   -4.0850 C   0  0  0  0  0  0  0  0  0  0  0  0
   -4.9420    1.2140   -4.4100 C   0  0  0  0  0  0  0  0  0  0  0  0
   -3.4390   -3.1950   -3.8320 N   0  0  0  0  0  0  0  0  0  0  0  0
   -2.9290   -4.2900   -5.0530 P   0  0  1  0  0  5  0  0  0  0  0  0
   -3.8950   -5.4390   -5.1640 O   0  0  0  0  0  0  0  0  0  0  0  0
   -2.6800   -3.4130   -6.2600 O   0  0  0  0  0  0  0  0  0  0  0  0
   -1.2560   -4.9160   -4.5400 C   0  0  0  0  0  0  0  0  0  0  0  0
   -0.4960   -3.7240   -4.1750 N   0  0  0  0  0  0  0  0  0  0  0  0
   -0.1830   -3.5750   -2.8580 C   0  0  0  0  0  0  0  0  0  0  0  0
   -0.9180   -3.8090   -1.9080 O   0  0  0  0  0  0  0  0  0  0  0  0
    1.0840   -3.1080   -2.7600 O   0  0  0  0  0  0  0  0  0  0  0  0
    1.3220   -2.3800   -1.5570 C   0  0  0  0  0  0  0  0  0  0  0  0
    2.1660   -1.1740   -1.8930 C   0  0  0  0  0  0  0  0  0  0  0  0
    3.4430   -0.9990   -1.3440 C   0  0  0  0  0  0  0  0  0  0  0  0
    4.2090    0.1200   -1.6810 C   0  0  0  0  0  0  0  0  0  0  0  0
    3.7060    1.0700   -2.5700 C   0  0  0  0  0  0  0  0  0  0  0  0
    2.4370    0.9030   -3.1230 C   0  0  0  0  0  0  0  0  0  0  0  0
    1.6720   -0.2140   -2.7890 C   0  0  0  0  0  0  0  0  0  0  0  0
   -1.4040   -0.5830    0.0620 C   0  0  0  0  0  0  0  0  0  0  0  0
   -0.3610   -0.2630    0.7020 O   0  0  0  0  0  0  0  0  0  0  0  0
   -2.2880   -1.4530    0.3410 O   0  0  0  0  0  0  0  0  0  0  0  0
    0.0269    2.8136    0.0934 H   0  0  0  0  0  0  0  0  0  0  0  0
    0.5100    1.9229   -1.3899 H   0  0  0  0  0  0  0  0  0  0  0  0
    0.4817    3.7190   -1.3899 H   0  0  0  0  0  0  0  0  0  0  0  0
   -1.9950    3.6951   -1.1269 H   0  0  0  0  0  0  0  0  0  0  0  0
   -2.4942    2.3850   -3.3295 H   0  0  0  0  0  0  0  0  0  0  0  0
   -1.3792    3.7923   -3.3819 H   0  0  0  0  0  0  0  0  0  0  0  0
   -0.7181    2.1221   -3.3819 H   0  0  0  0  0  0  0  0  0  0  0  0
   -2.0944    1.6501    0.2453 H   0  0  0  0  0  0  0  0  0  0  0  0
   -3.2298    1.6309   -1.2088 H   0  0  0  0  0  0  0  0  0  0  0  0
   -0.7596    0.2813   -1.8918 H   0  0  0  0  0  0  0  0  0  0  0  0
   -3.3560   -0.9840   -1.5430 H   0  0  0  0  0  0  0  0  0  0  0  0
   -3.6542   -1.5985   -5.0892 H   0  0  0  0  0  0  0  0  0  0  0  0
   -5.6779   -2.0471   -3.4194 H   0  0  0  0  0  0  0  0  0  0  0  0
   -4.7788   -0.6858   -2.5580 H   0  0  0  0  0  0  0  0  0  0  0  0
   -5.5664   -0.5388   -5.4371 H   0  0  0  0  0  0  0  0  0  0  0  0
   -7.2711    0.0612   -2.9931 H   0  0  0  0  0  0  0  0  0  0  0  0
   -7.4965    0.9937   -4.5117 H   0  0  0  0  0  0  0  0  0  0  0  0
   -7.7152   -0.7892   -4.5117 H   0  0  0  0  0  0  0  0  0  0  0  0
   -4.7731    1.5341   -3.3712 H   0  0  0  0  0  0  0  0  0  0  0  0
   -3.9754    1.1212   -4.9269 H   0  0  0  0  0  0  0  0  0  0  0  0
   -5.5641    1.9596   -4.9269 H   0  0  0  0  0  0  0  0  0  0  0  0
   -4.2220   -3.6450   -3.3540 H   0  0  0  0  0  0  0  0  0  0  0  0
   -1.3456   -5.5948   -3.6791 H   0  0  0  0  0  0  0  0  0  0  0  0
   -0.7662   -5.4855   -5.3436 H   0  0  0  0  0  0  0  0  0  0  0  0
    0.3410   -3.6550   -4.7480 H   0  0  0  0  0  0  0  0  0  0  0  0
    0.3648   -2.0551   -1.1231 H   0  0  0  0  0  0  0  0  0  0  0  0
    1.8426   -3.0156   -0.8256 H   0  0  0  0  0  0  0  0  0  0  0  0
    3.8447   -1.7464   -0.6440 H   0  0  0  0  0  0  0  0  0  0  0  0
    5.2101    0.2520   -1.2446 H   0  0  0  0  0  0  0  0  0  0  0  0
    4.3101    1.9504   -2.8346 H   0  0  0  0  0  0  0  0  0  0  0  0
    2.0392    1.6526   -3.8229 H   0  0  0  0  0  0  0  0  0  0  0  0
    0.6733   -0.3435   -3.2315 H   0  0  0  0  0  0  0  0  0  0  0  0
  1  2  1  0
  2  3  1  0
  2  4  1  0
  4  5  1  0
  5  6  1  0
  6  7  1  0
  7  8  2  0
  7  9  1  0
  9 10  1  0
 10 11  1  0
 11 12  1  0
 11 13  1  0
  9 14  1  0
 14 15  1  0
 15 16  2  0
 15 17  1  6
 15 18  1  0
 18 19  1  0
 19 20  1  0
 20 21  2  0
 20 22  1  0
 22 23  1  0
 23 24  1  0
 24 25  2  0
 25 26  1  0
 26 27  2  0
 27 28  1  0
 28 29  2  0
  5 30  1  0
 30 31  2  0
 30 32  1  0
 29 24  1  0
  1 33  1  0
  1 34  1  0
  1 35  1  0
  2 36  1  0
  3 37  1  0
  3 38  1  0
  3 39  1  0
  4 40  1  0
  4 41  1  0
  5 42  1  6
  6 43  1  0
  9 44  1  6
 10 45  1  0
 10 46  1  0
 11 47  1  0
 12 48  1  0
 12 49  1  0
 12 50  1  0
 13 51  1  0
 13 52  1  0
 13 53  1  0
 14 54  1  0
 18 55  1  0
 18 56  1  0
 19 57  1  0
 23 58  1  0
 23 59  1  0
 25 60  1  0
 26 61  1  0
 27 62  1  0
 28 63  1  0
 29 64  1  0
M  CHG  2  17  -1  32  -1
M  END
>  <meeko>  (9) 
{"is_sidechain": [false], "free_energy": -7.379, "intermolecular_energy": -12.493, "internal_energy": -3.003}

$$$$
