1p1n_ligand
     RDKit          3D

 29 29  0  0  0  0  0  0  0  0999 V2000
   -5.7390   11.0220   11.4610 C   0  0  0  0  0  0  0  0  0  0  0  0
   -4.9020   11.3760   10.4710 C   0  0  0  0  0  0  0  0  0  0  0  0
   -3.4120   11.3680   10.7050 C   0  0  0  0  0  0  0  0  0  0  0  0
   -5.3270   11.8160    9.0790 C   0  0  1  0  0  0  0  0  0  0  0  0
   -6.7210   11.4190    8.5590 C   0  0  0  0  0  0  0  0  0  0  0  0
   -7.1380   12.5170    7.6530 N   0  0  0  0  0  0  0  0  0  0  0  0
   -5.9410   13.4450    7.4600 C   0  0  2  0  0  0  0  0  0  0  0  0
   -5.1090   13.0260    6.2010 C   0  0  0  0  0  0  0  0  0  0  0  0
   -3.8610   12.9870    6.4520 O   0  0  0  0  0  0  0  0  0  0  0  0
   -5.7380   12.8270    5.1330 O   0  0  0  0  0  0  0  0  0  0  0  0
   -5.2290   13.3350    8.8090 C   0  0  1  0  0  0  0  0  0  0  0  0
   -5.8390   14.2490    9.9000 C   0  0  0  0  0  0  0  0  0  0  0  0
   -6.7330   15.4310    9.5070 C   0  0  0  0  0  0  0  0  0  0  0  0
   -6.1690   16.5520    9.4440 O   0  0  0  0  0  0  0  0  0  0  0  0
   -7.9570   15.1450    9.3300 O   0  0  0  0  0  0  0  0  0  0  0  0
   -6.8257   11.0277   11.2908 H   0  0  0  0  0  0  0  0  0  0  0  0
   -5.3374   10.7266   12.4415 H   0  0  0  0  0  0  0  0  0  0  0  0
   -3.2107   11.3669   11.7864 H   0  0  0  0  0  0  0  0  0  0  0  0
   -2.9742   10.4675   10.2496 H   0  0  0  0  0  0  0  0  0  0  0  0
   -2.9645   12.2638   10.2496 H   0  0  0  0  0  0  0  0  0  0  0  0
   -4.5703   11.2302    8.5365 H   0  0  0  0  0  0  0  0  0  0  0  0
   -6.6690   10.4673    8.0099 H   0  0  0  0  0  0  0  0  0  0  0  0
   -7.4367   11.2774    9.3822 H   0  0  0  0  0  0  0  0  0  0  0  0
   -7.4020   12.2160    6.7030 H   0  0  0  0  0  0  0  0  0  0  0  0
   -7.8770   13.1010    8.1220 H   0  0  0  0  0  0  0  0  0  0  0  0
   -6.1770   14.4952    7.2332 H   0  0  0  0  0  0  0  0  0  0  0  0
   -4.1898   13.6958    8.8122 H   0  0  0  0  0  0  0  0  0  0  0  0
   -6.4406   13.6015   10.5549 H   0  0  0  0  0  0  0  0  0  0  0  0
   -4.9565   14.7381   10.3382 H   0  0  0  0  0  0  0  0  0  0  0  0
  1  2  2  0
  2  3  1  0
  2  4  1  0
  4  5  1  0
  5  6  1  0
  6  7  1  0
  7  8  1  0
  8  9  2  0
  8 10  1  0
  7 11  1  0
 11 12  1  0
 12 13  1  0
 13 14  2  0
 13 15  1  0
 11  4  1  0
  1 16  1  0
  1 17  1  0
  3 18  1  0
  3 19  1  0
  3 20  1  0
  4 21  1  6
  5 22  1  0
  5 23  1  0
  6 24  1  0
  6 25  1  0
  7 26  1  6
 11 27  1  6
 12 28  1  0
 12 29  1  0
M  CHG  3   6   1  10  -1  15  -1
M  END
>  <meeko>  (1) 
{"is_sidechain": [false], "free_energy": -6.075, "intermolecular_energy": -7.495, "internal_energy": -0.392}

$$$$
1p1n_ligand
     RDKit          3D

 29 29  0  0  0  0  0  0  0  0999 V2000
   -7.7440   15.8150    9.1470 C   0  0  0  0  0  0  0  0  0  0  0  0
   -6.6900   15.2790    9.7860 C   0  0  0  0  0  0  0  0  0  0  0  0
   -5.6430   16.1750   10.3980 C   0  0  0  0  0  0  0  0  0  0  0  0
   -6.4300   13.7890    9.9490 C   0  0  1  0  0  0  0  0  0  0  0  0
   -7.6000   12.8000    9.7870 C   0  0  0  0  0  0  0  0  0  0  0  0
   -7.0010   11.5560    9.2470 N   0  0  0  0  0  0  0  0  0  0  0  0
   -5.4830   11.7120    9.2850 C   0  0  2  0  0  0  0  0  0  0  0  0
   -4.8980   11.1450   10.6230 C   0  0  0  0  0  0  0  0  0  0  0  0
   -3.6240   11.1440   10.6190 O   0  0  0  0  0  0  0  0  0  0  0  0
   -5.7160   10.7410   11.4850 O   0  0  0  0  0  0  0  0  0  0  0  0
   -5.3090   13.2130    9.0540 C   0  0  1  0  0  0  0  0  0  0  0  0
   -5.3730   13.6150    7.5600 C   0  0  0  0  0  0  0  0  0  0  0  0
   -4.4480   12.9420    6.5390 C   0  0  0  0  0  0  0  0  0  0  0  0
   -5.0110   12.4170    5.5460 O   0  0  0  0  0  0  0  0  0  0  0  0
   -3.2140   12.9580    6.8380 O   0  0  0  0  0  0  0  0  0  0  0  0
   -8.5075   15.1608    8.7007 H   0  0  0  0  0  0  0  0  0  0  0  0
   -7.8431   16.9078    9.0703 H   0  0  0  0  0  0  0  0  0  0  0  0
   -5.7082   16.1192   11.4946 H   0  0  0  0  0  0  0  0  0  0  0  0
   -4.6445   15.8473   10.0729 H   0  0  0  0  0  0  0  0  0  0  0  0
   -5.8125   17.2121   10.0729 H   0  0  0  0  0  0  0  0  0  0  0  0
   -6.1542   13.8363   11.0128 H   0  0  0  0  0  0  0  0  0  0  0  0
   -8.0758   12.6059   10.7596 H   0  0  0  0  0  0  0  0  0  0  0  0
   -8.3793   13.1982    9.1206 H   0  0  0  0  0  0  0  0  0  0  0  0
   -7.1990   10.7080    9.7980 H   0  0  0  0  0  0  0  0  0  0  0  0
   -7.2500   11.4570    8.2290 H   0  0  0  0  0  0  0  0  0  0  0  0
   -4.9209   11.1382    8.5335 H   0  0  0  0  0  0  0  0  0  0  0  0
   -4.3167   13.6072    9.3186 H   0  0  0  0  0  0  0  0  0  0  0  0
   -6.4038   13.4265    7.2255 H   0  0  0  0  0  0  0  0  0  0  0  0
   -5.0224   14.6576    7.5662 H   0  0  0  0  0  0  0  0  0  0  0  0
  1  2  2  0
  2  3  1  0
  2  4  1  0
  4  5  1  0
  5  6  1  0
  6  7  1  0
  7  8  1  0
  8  9  2  0
  8 10  1  0
  7 11  1  0
 11 12  1  0
 12 13  1  0
 13 14  2  0
 13 15  1  0
 11  4  1  0
  1 16  1  0
  1 17  1  0
  3 18  1  0
  3 19  1  0
  3 20  1  0
  4 21  1  1
  5 22  1  0
  5 23  1  0
  6 24  1  0
  6 25  1  0
  7 26  1  6
 11 27  1  1
 12 28  1  0
 12 29  1  0
M  CHG  3   6   1  10  -1  15  -1
M  END
>  <meeko>  (2) 
{"is_sidechain": [false], "free_energy": -6.038, "intermolecular_energy": -7.511, "internal_energy": -0.331}

$$$$
1p1n_ligand
     RDKit          3D

 29 29  0  0  0  0  0  0  0  0999 V2000
   -5.3140   13.1920    6.5010 C   0  0  0  0  0  0  0  0  0  0  0  0
   -4.4620   12.9550    7.5130 C   0  0  0  0  0  0  0  0  0  0  0  0
   -2.9740   13.0490    7.2840 C   0  0  0  0  0  0  0  0  0  0  0  0
   -4.8670   12.5720    8.9270 C   0  0  1  0  0  0  0  0  0  0  0  0
   -3.7830   12.1200    9.9240 C   0  0  0  0  0  0  0  0  0  0  0  0
   -4.2630   12.5480   11.2600 N   0  0  0  0  0  0  0  0  0  0  0  0
   -5.6960   13.0500   11.1040 C   0  0  2  0  0  0  0  0  0  0  0  0
   -6.7220   11.8940   11.3550 C   0  0  0  0  0  0  0  0  0  0  0  0
   -7.8290   12.1070   10.7610 O   0  0  0  0  0  0  0  0  0  0  0  0
   -6.3630   10.9570   12.1100 O   0  0  0  0  0  0  0  0  0  0  0  0
   -5.6770   13.6430    9.6950 C   0  0  1  0  0  0  0  0  0  0  0  0
   -5.1040   15.0800    9.6410 C   0  0  0  0  0  0  0  0  0  0  0  0
   -5.8460   16.2340   10.3260 C   0  0  0  0  0  0  0  0  0  0  0  0
   -6.7750   16.7610    9.6660 O   0  0  0  0  0  0  0  0  0  0  0  0
   -5.4060   16.5520   11.4740 O   0  0  0  0  0  0  0  0  0  0  0  0
   -6.3991   13.1234    6.6681 H   0  0  0  0  0  0  0  0  0  0  0  0
   -4.9263   13.4545    5.5056 H   0  0  0  0  0  0  0  0  0  0  0  0
   -2.4552   13.0818    8.2534 H   0  0  0  0  0  0  0  0  0  0  0  0
   -2.6342   12.1705    6.7158 H   0  0  0  0  0  0  0  0  0  0  0  0
   -2.7475   13.9632    6.7158 H   0  0  0  0  0  0  0  0  0  0  0  0
   -5.4677   11.6963    8.6400 H   0  0  0  0  0  0  0  0  0  0  0  0
   -3.6637   11.0270    9.8914 H   0  0  0  0  0  0  0  0  0  0  0  0
   -2.8031   12.5589    9.6849 H   0  0  0  0  0  0  0  0  0  0  0  0
   -4.3160   11.7940   11.9610 H   0  0  0  0  0  0  0  0  0  0  0  0
   -3.7060   13.3790   11.5860 H   0  0  0  0  0  0  0  0  0  0  0  0
   -6.0244   13.8034   11.8351 H   0  0  0  0  0  0  0  0  0  0  0  0
   -6.6705   13.8142    9.2551 H   0  0  0  0  0  0  0  0  0  0  0  0
   -4.1010   15.0377   10.0907 H   0  0  0  0  0  0  0  0  0  0  0  0
   -5.1733   15.3368    8.5736 H   0  0  0  0  0  0  0  0  0  0  0  0
  1  2  2  0
  2  3  1  0
  2  4  1  0
  4  5  1  0
  5  6  1  0
  6  7  1  0
  7  8  1  0
  8  9  2  0
  8 10  1  0
  7 11  1  0
 11 12  1  0
 12 13  1  0
 13 14  2  0
 13 15  1  0
 11  4  1  0
  1 16  1  0
  1 17  1  0
  3 18  1  0
  3 19  1  0
  3 20  1  0
  4 21  1  6
  5 22  1  0
  5 23  1  0
  6 24  1  0
  6 25  1  0
  7 26  1  1
 11 27  1  6
 12 28  1  0
 12 29  1  0
M  CHG  3   6   1  10  -1  15  -1
M  END
>  <meeko>  (3) 
{"is_sidechain": [false], "free_energy": -5.941, "intermolecular_energy": -7.271, "internal_energy": -0.452}

$$$$
1p1n_ligand
     RDKit          3D

 29 29  0  0  0  0  0  0  0  0999 V2000
   -6.0270   11.0980   11.7890 C   0  0  0  0  0  0  0  0  0  0  0  0
   -5.0470   11.8080   11.2030 C   0  0  0  0  0  0  0  0  0  0  0  0
   -3.6440   11.2580   11.1520 C   0  0  0  0  0  0  0  0  0  0  0  0
   -5.2190   13.1790   10.5690 C   0  0  1  0  0  0  0  0  0  0  0  0
   -3.9720   14.0360   10.2800 C   0  0  0  0  0  0  0  0  0  0  0  0
   -4.3060   14.8390    9.0800 N   0  0  0  0  0  0  0  0  0  0  0  0
   -5.7890   14.6370    8.7790 C   0  0  2  0  0  0  0  0  0  0  0  0
   -6.6550   15.7380    9.4800 C   0  0  0  0  0  0  0  0  0  0  0  0
   -7.8810   15.4010    9.5500 O   0  0  0  0  0  0  0  0  0  0  0  0
   -6.0720   16.7910    9.8370 O   0  0  0  0  0  0  0  0  0  0  0  0
   -6.0180   13.1990    9.2450 C   0  0  1  0  0  0  0  0  0  0  0  0
   -5.5990   12.1400    8.1950 C   0  0  0  0  0  0  0  0  0  0  0  0
   -5.2110   12.5710    6.7760 C   0  0  0  0  0  0  0  0  0  0  0  0
   -6.1340   12.5620    5.9250 O   0  0  0  0  0  0  0  0  0  0  0  0
   -3.9830   12.8510    6.6150 O   0  0  0  0  0  0  0  0  0  0  0  0
   -7.0504   11.4996   11.8260 H   0  0  0  0  0  0  0  0  0  0  0  0
   -5.8053   10.1156   12.2314 H   0  0  0  0  0  0  0  0  0  0  0  0
   -3.2702   11.1115   12.1761 H   0  0  0  0  0  0  0  0  0  0  0  0
   -3.6469   10.2945   10.6213 H   0  0  0  0  0  0  0  0  0  0  0  0
   -2.9913   11.9668   10.6213 H   0  0  0  0  0  0  0  0  0  0  0  0
   -5.7654   13.6265   11.4123 H   0  0  0  0  0  0  0  0  0  0  0  0
   -3.7532   14.6946   11.1334 H   0  0  0  0  0  0  0  0  0  0  0  0
   -3.0805   13.4129   10.1161 H   0  0  0  0  0  0  0  0  0  0  0  0
   -4.1910   15.8570    9.1970 H   0  0  0  0  0  0  0  0  0  0  0  0
   -3.7930   14.4570    8.2440 H   0  0  0  0  0  0  0  0  0  0  0  0
   -6.0869   14.7538    7.7266 H   0  0  0  0  0  0  0  0  0  0  0  0
   -7.0735   12.9241    9.3875 H   0  0  0  0  0  0  0  0  0  0  0  0
   -4.7318   11.6069    8.6120 H   0  0  0  0  0  0  0  0  0  0  0  0
   -6.5231   11.5644    8.0377 H   0  0  0  0  0  0  0  0  0  0  0  0
  1  2  2  0
  2  3  1  0
  2  4  1  0
  4  5  1  0
  5  6  1  0
  6  7  1  0
  7  8  1  0
  8  9  2  0
  8 10  1  0
  7 11  1  0
 11 12  1  0
 12 13  1  0
 13 14  2  0
 13 15  1  0
 11  4  1  0
  1 16  1  0
  1 17  1  0
  3 18  1  0
  3 19  1  0
  3 20  1  0
  4 21  1  1
  5 22  1  0
  5 23  1  0
  6 24  1  0
  6 25  1  0
  7 26  1  6
 11 27  1  1
 12 28  1  0
 12 29  1  0
M  CHG  3   6   1  10  -1  15  -1
M  END
>  <meeko>  (4) 
{"is_sidechain": [false], "free_energy": -5.762, "intermolecular_energy": -6.931, "internal_energy": -0.571}

$$$$
1p1n_ligand
     RDKit          3D

 29 29  0  0  0  0  0  0  0  0999 V2000
   -4.7790   15.0450   10.2240 C   0  0  0  0  0  0  0  0  0  0  0  0
   -4.2660   14.0550    9.4730 C   0  0  0  0  0  0  0  0  0  0  0  0
   -3.1010   13.2460    9.9860 C   0  0  0  0  0  0  0  0  0  0  0  0
   -4.7580   13.6600    8.0900 C   0  0  1  0  0  0  0  0  0  0  0  0
   -3.7930   12.9480    7.1240 C   0  0  0  0  0  0  0  0  0  0  0  0
   -4.6410   12.0630    6.2900 N   0  0  0  0  0  0  0  0  0  0  0  0
   -6.1010   12.3900    6.5940 C   0  0  2  0  0  0  0  0  0  0  0  0
   -6.6470   13.4720    5.6020 C   0  0  0  0  0  0  0  0  0  0  0  0
   -6.0570   13.4190    4.4740 O   0  0  0  0  0  0  0  0  0  0  0  0
   -7.5340   14.2520    6.0280 O   0  0  0  0  0  0  0  0  0  0  0  0
   -6.0390   12.7940    8.0670 C   0  0  1  0  0  0  0  0  0  0  0  0
   -6.0450   11.5850    9.0350 C   0  0  0  0  0  0  0  0  0  0  0  0
   -6.5570   11.7490   10.4710 C   0  0  0  0  0  0  0  0  0  0  0  0
   -5.8430   11.2440   11.3730 O   0  0  0  0  0  0  0  0  0  0  0  0
   -7.6730   12.3440   10.5800 O   0  0  0  0  0  0  0  0  0  0  0  0
   -5.6286   15.6352    9.8501 H   0  0  0  0  0  0  0  0  0  0  0  0
   -4.3491   15.2649   11.2124 H   0  0  0  0  0  0  0  0  0  0  0  0
   -3.1075   13.2505   11.0860 H   0  0  0  0  0  0  0  0  0  0  0  0
   -3.1852   12.2110    9.6231 H   0  0  0  0  0  0  0  0  0  0  0  0
   -2.1606   13.6864    9.6231 H   0  0  0  0  0  0  0  0  0  0  0  0
   -4.9221   14.6863    7.7298 H   0  0  0  0  0  0  0  0  0  0  0  0
   -3.2695   13.6824    6.4942 H   0  0  0  0  0  0  0  0  0  0  0  0
   -3.0224   12.3796    7.6654 H   0  0  0  0  0  0  0  0  0  0  0  0
   -4.5400   12.2010    5.2730 H   0  0  0  0  0  0  0  0  0  0  0  0
   -4.5070   11.0630    6.5870 H   0  0  0  0  0  0  0  0  0  0  0  0
   -6.8189   11.5693    6.4488 H   0  0  0  0  0  0  0  0  0  0  0  0
   -6.9217   13.3400    8.4315 H   0  0  0  0  0  0  0  0  0  0  0  0
   -6.6640   10.8064    8.5652 H   0  0  0  0  0  0  0  0  0  0  0  0
   -4.9752   11.3696    9.1735 H   0  0  0  0  0  0  0  0  0  0  0  0
  1  2  2  0
  2  3  1  0
  2  4  1  0
  4  5  1  0
  5  6  1  0
  6  7  1  0
  7  8  1  0
  8  9  2  0
  8 10  1  0
  7 11  1  0
 11 12  1  0
 12 13  1  0
 13 14  2  0
 13 15  1  0
 11  4  1  0
  1 16  1  0
  1 17  1  0
  3 18  1  0
  3 19  1  0
  3 20  1  0
  4 21  1  6
  5 22  1  0
  5 23  1  0
  6 24  1  0
  6 25  1  0
  7 26  1  1
 11 27  1  1
 12 28  1  0
 12 29  1  0
M  CHG  3   6   1  10  -1  15  -1
M  END
>  <meeko>  (5) 
{"is_sidechain": [false], "free_energy": -5.758, "intermolecular_energy": -7.094, "internal_energy": -0.403}

$$$$
1p1n_ligand
     RDKit          3D

 29 29  0  0  0  0  0  0  0  0999 V2000
   -4.1830   12.8340    6.4680 C   0  0  0  0  0  0  0  0  0  0  0  0
   -5.4440   13.2620    6.6530 C   0  0  0  0  0  0  0  0  0  0  0  0
   -6.5000   12.9680    5.6170 C   0  0  0  0  0  0  0  0  0  0  0  0
   -5.9300   14.0620    7.8510 C   0  0  1  0  0  0  0  0  0  0  0  0
   -7.4370   14.3410    8.0070 C   0  0  0  0  0  0  0  0  0  0  0  0
   -7.6830   14.4040    9.4680 N   0  0  0  0  0  0  0  0  0  0  0  0
   -6.3290   14.3810   10.1730 C   0  0  2  0  0  0  0  0  0  0  0  0
   -5.8090   15.8360   10.4270 C   0  0  0  0  0  0  0  0  0  0  0  0
   -4.5590   15.8540   10.6740 O   0  0  0  0  0  0  0  0  0  0  0  0
   -6.6530   16.7650   10.3960 O   0  0  0  0  0  0  0  0  0  0  0  0
   -5.4910   13.5180    9.2300 C   0  0  1  0  0  0  0  0  0  0  0  0
   -5.6960   11.9980    9.4450 C   0  0  0  0  0  0  0  0  0  0  0  0
   -5.0510   11.2940   10.6440 C   0  0  0  0  0  0  0  0  0  0  0  0
   -5.8050   11.0680   11.6240 O   0  0  0  0  0  0  0  0  0  0  0  0
   -3.8100   11.0540   10.5240 O   0  0  0  0  0  0  0  0  0  0  0  0
   -3.4129   13.0485    7.2237 H   0  0  0  0  0  0  0  0  0  0  0  0
   -3.9213   12.2693    5.5610 H   0  0  0  0  0  0  0  0  0  0  0  0
   -7.4430   12.7055    6.1189 H   0  0  0  0  0  0  0  0  0  0  0  0
   -6.6545   13.8573    4.9883 H   0  0  0  0  0  0  0  0  0  0  0  0
   -6.1727   12.1268    4.9883 H   0  0  0  0  0  0  0  0  0  0  0  0
   -5.4259   14.9999    7.5748 H   0  0  0  0  0  0  0  0  0  0  0  0
   -7.7015   15.2971    7.5317 H   0  0  0  0  0  0  0  0  0  0  0  0
   -8.0466   13.5623    7.5253 H   0  0  0  0  0  0  0  0  0  0  0  0
   -8.1410   15.2690    9.7910 H   0  0  0  0  0  0  0  0  0  0  0  0
   -8.1800   13.5310    9.7810 H   0  0  0  0  0  0  0  0  0  0  0  0
   -6.3218   13.9600   11.1892 H   0  0  0  0  0  0  0  0  0  0  0  0
   -4.4042   13.5912    9.3834 H   0  0  0  0  0  0  0  0  0  0  0  0
   -6.7805   11.8336    9.5274 H   0  0  0  0  0  0  0  0  0  0  0  0
   -5.1773   11.5513    8.5839 H   0  0  0  0  0  0  0  0  0  0  0  0
  1  2  2  0
  2  3  1  0
  2  4  1  0
  4  5  1  0
  5  6  1  0
  6  7  1  0
  7  8  1  0
  8  9  2  0
  8 10  1  0
  7 11  1  0
 11 12  1  0
 12 13  1  0
 13 14  2  0
 13 15  1  0
 11  4  1  0
  1 16  1  0
  1 17  1  0
  3 18  1  0
  3 19  1  0
  3 20  1  0
  4 21  1  6
  5 22  1  0
  5 23  1  0
  6 24  1  0
  6 25  1  0
  7 26  1  1
 11 27  1  1
 12 28  1  0
 12 29  1  0
M  CHG  3   6   1  10  -1  15  -1
M  END
>  <meeko>  (6) 
{"is_sidechain": [false], "free_energy": -5.685, "intermolecular_energy": -7.075, "internal_energy": -0.332}

$$$$
1p1n_ligand
     RDKit          3D

 29 29  0  0  0  0  0  0  0  0999 V2000
   -7.1010   13.9690    7.4050 C   0  0  0  0  0  0  0  0  0  0  0  0
   -5.8900   13.4590    7.1220 C   0  0  0  0  0  0  0  0  0  0  0  0
   -5.4670   13.2760    5.6860 C   0  0  0  0  0  0  0  0  0  0  0  0
   -4.8630   13.0160    8.1520 C   0  0  1  0  0  0  0  0  0  0  0  0
   -3.3690   13.0250    7.7750 C   0  0  0  0  0  0  0  0  0  0  0  0
   -2.6410   13.3080    9.0350 N   0  0  0  0  0  0  0  0  0  0  0  0
   -3.6480   13.2570   10.1810 C   0  0  2  0  0  0  0  0  0  0  0  0
   -3.7100   11.8220   10.8050 C   0  0  0  0  0  0  0  0  0  0  0  0
   -4.7760   11.6460   11.4800 O   0  0  0  0  0  0  0  0  0  0  0  0
   -2.7300   11.0630   10.6070 O   0  0  0  0  0  0  0  0  0  0  0  0
   -4.9260   13.7570    9.5070 C   0  0  1  0  0  0  0  0  0  0  0  0
   -5.0100   15.3010    9.4220 C   0  0  0  0  0  0  0  0  0  0  0  0
   -5.9600   16.0750   10.3440 C   0  0  0  0  0  0  0  0  0  0  0  0
   -6.9640   16.5910    9.7940 O   0  0  0  0  0  0  0  0  0  0  0  0
   -5.5970   16.1390   11.5590 O   0  0  0  0  0  0  0  0  0  0  0  0
   -7.4104   14.1028    8.4521 H   0  0  0  0  0  0  0  0  0  0  0  0
   -7.7826   14.2525    6.5895 H   0  0  0  0  0  0  0  0  0  0  0  0
   -4.4579   12.8394    5.6538 H   0  0  0  0  0  0  0  0  0  0  0  0
   -6.1739   12.6032    5.1784 H   0  0  0  0  0  0  0  0  0  0  0  0
   -5.4607   14.2519    5.1784 H   0  0  0  0  0  0  0  0  0  0  0  0
   -5.2037   11.9719    8.2131 H   0  0  0  0  0  0  0  0  0  0  0  0
   -3.0694   12.0472    7.3699 H   0  0  0  0  0  0  0  0  0  0  0  0
   -3.1493   13.7751    7.0010 H   0  0  0  0  0  0  0  0  0  0  0  0
   -1.9180   12.6150    9.2810 H   0  0  0  0  0  0  0  0  0  0  0  0
   -2.2790   14.2960    9.0200 H   0  0  0  0  0  0  0  0  0  0  0  0
   -3.4088   13.8732   11.0602 H   0  0  0  0  0  0  0  0  0  0  0  0
   -5.8525   13.5423   10.0598 H   0  0  0  0  0  0  0  0  0  0  0  0
   -3.9976   15.6841    9.6174 H   0  0  0  0  0  0  0  0  0  0  0  0
   -5.4357   15.4736    8.4225 H   0  0  0  0  0  0  0  0  0  0  0  0
  1  2  2  0
  2  3  1  0
  2  4  1  0
  4  5  1  0
  5  6  1  0
  6  7  1  0
  7  8  1  0
  8  9  2  0
  8 10  1  0
  7 11  1  0
 11 12  1  0
 12 13  1  0
 13 14  2  0
 13 15  1  0
 11  4  1  0
  1 16  1  0
  1 17  1  0
  3 18  1  0
  3 19  1  0
  3 20  1  0
  4 21  1  1
  5 22  1  0
  5 23  1  0
  6 24  1  0
  6 25  1  0
  7 26  1  1
 11 27  1  1
 12 28  1  0
 12 29  1  0
M  CHG  3   6   1  10  -1  15  -1
M  END
>  <meeko>  (7) 
{"is_sidechain": [false], "free_energy": -5.508, "intermolecular_energy": -7.026, "internal_energy": -0.163}

$$$$
1p1n_ligand
     RDKit          3D

 29 29  0  0  0  0  0  0  0  0999 V2000
   -6.7500   13.8870    6.5740 C   0  0  0  0  0  0  0  0  0  0  0  0
   -5.5460   13.3300    6.7890 C   0  0  0  0  0  0  0  0  0  0  0  0
   -4.8070   12.6690    5.6530 C   0  0  0  0  0  0  0  0  0  0  0  0
   -4.8280   13.2870    8.1290 C   0  0  1  0  0  0  0  0  0  0  0  0
   -4.8800   14.5210    9.0490 C   0  0  0  0  0  0  0  0  0  0  0  0
   -4.8180   13.9910   10.4330 N   0  0  0  0  0  0  0  0  0  0  0  0
   -4.5200   12.4960   10.3500 C   0  0  2  0  0  0  0  0  0  0  0  0
   -2.9770   12.2320   10.4220 C   0  0  0  0  0  0  0  0  0  0  0  0
   -2.7120   10.9860   10.4210 O   0  0  0  0  0  0  0  0  0  0  0  0
   -2.2230   13.2320   10.5070 O   0  0  0  0  0  0  0  0  0  0  0  0
   -5.2130   12.1030    9.0460 C   0  0  1  0  0  0  0  0  0  0  0  0
   -6.7320   11.8510    9.2110 C   0  0  0  0  0  0  0  0  0  0  0  0
   -7.5070   12.5220   10.3510 C   0  0  0  0  0  0  0  0  0  0  0  0
   -7.8450   13.7170   10.1600 O   0  0  0  0  0  0  0  0  0  0  0  0
   -7.6820   11.8010   11.3810 O   0  0  0  0  0  0  0  0  0  0  0  0
   -7.2889   14.3691    7.4029 H   0  0  0  0  0  0  0  0  0  0  0  0
   -7.1966   13.8608    5.5691 H   0  0  0  0  0  0  0  0  0  0  0  0
   -4.0449   11.9874    6.0587 H   0  0  0  0  0  0  0  0  0  0  0  0
   -5.5173   12.0993    5.0358 H   0  0  0  0  0  0  0  0  0  0  0  0
   -4.3197   13.4381    5.0358 H   0  0  0  0  0  0  0  0  0  0  0  0
   -3.8132   13.2012    7.7132 H   0  0  0  0  0  0  0  0  0  0  0  0
   -4.0233   15.1825    8.8526 H   0  0  0  0  0  0  0  0  0  0  0  0
   -5.7906   15.1149    8.8815 H   0  0  0  0  0  0  0  0  0  0  0  0
   -4.0630   14.3860   11.0130 H   0  0  0  0  0  0  0  0  0  0  0  0
   -5.7670   14.0660   10.8820 H   0  0  0  0  0  0  0  0  0  0  0  0
   -4.8921   11.8828   11.1840 H   0  0  0  0  0  0  0  0  0  0  0  0
   -4.8991   11.1332    8.6324 H   0  0  0  0  0  0  0  0  0  0  0  0
   -7.2094   12.1706    8.2729 H   0  0  0  0  0  0  0  0  0  0  0  0
   -6.7816   10.7830    9.4696 H   0  0  0  0  0  0  0  0  0  0  0  0
  1  2  2  0
  2  3  1  0
  2  4  1  0
  4  5  1  0
  5  6  1  0
  6  7  1  0
  7  8  1  0
  8  9  2  0
  8 10  1  0
  7 11  1  0
 11 12  1  0
 12 13  1  0
 13 14  2  0
 13 15  1  0
 11  4  1  0
  1 16  1  0
  1 17  1  0
  3 18  1  0
  3 19  1  0
  3 20  1  0
  4 21  1  6
  5 22  1  0
  5 23  1  0
  6 24  1  0
  6 25  1  0
  7 26  1  1
 11 27  1  6
 12 28  1  0
 12 29  1  0
M  CHG  3   6   1  10  -1  15  -1
M  END
>  <meeko>  (8) 
{"is_sidechain": [false], "free_energy": -5.443, "intermolecular_energy": -7.072, "internal_energy": -0.036}

$$$$
1p1n_ligand
     RDKit          3D

 29 29  0  0  0  0  0  0  0  0999 V2000
   -5.5420   15.7660   10.9010 C   0  0  0  0  0  0  0  0  0  0  0  0
   -6.1860   15.4120    9.7760 C   0  0  0  0  0  0  0  0  0  0  0  0
   -7.5270   16.0230    9.4520 C   0  0  0  0  0  0  0  0  0  0  0  0
   -5.6810   14.4030    8.7580 C   0  0  1  0  0  0  0  0  0  0  0  0
   -4.2160   13.9320    8.8290 C   0  0  0  0  0  0  0  0  0  0  0  0
   -4.2180   12.5380    8.3240 N   0  0  0  0  0  0  0  0  0  0  0  0
   -5.6070   12.2460    7.7590 C   0  0  2  0  0  0  0  0  0  0  0  0
   -5.6620   12.5630    6.2260 C   0  0  0  0  0  0  0  0  0  0  0  0
   -4.5140   12.4620    5.6820 O   0  0  0  0  0  0  0  0  0  0  0  0
   -6.7710   12.9000    5.7450 O   0  0  0  0  0  0  0  0  0  0  0  0
   -6.5040   13.0970    8.6580 C   0  0  1  0  0  0  0  0  0  0  0  0
   -6.8440   12.4170   10.0060 C   0  0  0  0  0  0  0  0  0  0  0  0
   -5.7250   11.8520   10.8900 C   0  0  0  0  0  0  0  0  0  0  0  0
   -5.2790   10.7250   10.5620 O   0  0  0  0  0  0  0  0  0  0  0  0
   -5.4050   12.5760   11.8820 O   0  0  0  0  0  0  0  0  0  0  0  0
   -4.5643   15.3212   11.1382 H   0  0  0  0  0  0  0  0  0  0  0  0
   -5.9925   16.5006   11.5847 H   0  0  0  0  0  0  0  0  0  0  0  0
   -8.0555   16.2638   10.3862 H   0  0  0  0  0  0  0  0  0  0  0  0
   -7.3792   16.9426    8.8668 H   0  0  0  0  0  0  0  0  0  0  0  0
   -8.1239   15.3080    8.8668 H   0  0  0  0  0  0  0  0  0  0  0  0
   -5.7976   15.0572    7.8814 H   0  0  0  0  0  0  0  0  0  0  0  0
   -3.5777   14.5677    8.1978 H   0  0  0  0  0  0  0  0  0  0  0  0
   -3.8193   13.9923    9.8532 H   0  0  0  0  0  0  0  0  0  0  0  0
   -3.5670   12.3610    7.5450 H   0  0  0  0  0  0  0  0  0  0  0  0
   -4.0940   11.8710    9.1280 H   0  0  0  0  0  0  0  0  0  0  0  0
   -5.9253   11.1933    7.7820 H   0  0  0  0  0  0  0  0  0  0  0  0
   -7.5175   13.2681    8.2662 H   0  0  0  0  0  0  0  0  0  0  0  0
   -7.3787   13.1639   10.6112 H   0  0  0  0  0  0  0  0  0  0  0  0
   -7.3991   11.5180    9.6998 H   0  0  0  0  0  0  0  0  0  0  0  0
  1  2  2  0
  2  3  1  0
  2  4  1  0
  4  5  1  0
  5  6  1  0
  6  7  1  0
  7  8  1  0
  8  9  2  0
  8 10  1  0
  7 11  1  0
 11 12  1  0
 12 13  1  0
 13 14  2  0
 13 15  1  0
 11  4  1  0
  1 16  1  0
  1 17  1  0
  3 18  1  0
  3 19  1  0
  3 20  1  0
  4 21  1  6
  5 22  1  0
  5 23  1  0
  6 24  1  0
  6 25  1  0
  7 26  1  6
 11 27  1  6
 12 28  1  0
 12 29  1  0
M  CHG  3   6   1  10  -1  15  -1
M  END
>  <meeko>  (9) 
{"is_sidechain": [false], "free_energy": -5.419, "intermolecular_energy": -6.955, "internal_energy": -0.124}

$$$$
