3uew_ligand
     RDKit          3D

 49 48  0  0  0  0  0  0  0  0999 V2000
    2.2500    4.0710   -4.1760 C   0  0  0  0  0  0  0  0  0  0  0  0
    1.9530    5.0420   -5.3080 C   0  0  0  0  0  0  0  0  0  0  0  0
    3.2090    5.5390   -6.0300 C   0  0  0  0  0  0  0  0  0  0  0  0
    4.4820    4.8100   -5.5980 C   0  0  0  0  0  0  0  0  0  0  0  0
    5.7530    5.6630   -5.6850 C   0  0  0  0  0  0  0  0  0  0  0  0
    6.5760    5.4500   -6.9620 C   0  0  0  0  0  0  0  0  0  0  0  0
    6.9840    3.9880   -7.1700 C   0  0  0  0  0  0  0  0  0  0  0  0
    6.5430    3.4220   -8.5240 C   0  0  0  0  0  0  0  0  0  0  0  0
    5.4680    4.2620   -9.2160 C   0  0  0  0  0  0  0  0  0  0  0  0
    4.7700    3.4680  -10.3230 C   0  0  0  0  0  0  0  0  0  0  0  0
    3.6730    2.5670   -9.7510 C   0  0  0  0  0  0  0  0  0  0  0  0
    3.0020    3.1410   -8.4970 C   0  0  0  0  0  0  0  0  0  0  0  0
    2.6500    2.0760   -7.4570 C   0  0  0  0  0  0  0  0  0  0  0  0
    3.7900    1.0940   -7.1580 C   0  0  0  0  0  0  0  0  0  0  0  0
    4.3250    1.1660   -5.7290 C   0  0  0  0  0  0  0  0  0  0  0  0
    3.7050    0.2200   -4.6960 C   0  0  0  0  0  0  0  0  0  0  0  0
    3.3850    0.7770   -3.6060 O   0  0  0  0  0  0  0  0  0  0  0  0
    3.5990   -0.9900   -5.0380 O   0  0  0  0  0  0  0  0  0  0  0  0
    2.0958    4.5751   -3.2106 H   0  0  0  0  0  0  0  0  0  0  0  0
    1.5757    3.2050   -4.2493 H   0  0  0  0  0  0  0  0  0  0  0  0
    3.2934    3.7304   -4.2493 H   0  0  0  0  0  0  0  0  0  0  0  0
    1.3071    4.5360   -6.0407 H   0  0  0  0  0  0  0  0  0  0  0  0
    1.4664    5.9216   -4.8613 H   0  0  0  0  0  0  0  0  0  0  0  0
    3.0718    5.3914   -7.1114 H   0  0  0  0  0  0  0  0  0  0  0  0
    3.3365    6.6002   -5.7700 H   0  0  0  0  0  0  0  0  0  0  0  0
    4.3560    4.4836   -4.5551 H   0  0  0  0  0  0  0  0  0  0  0  0
    4.6169    3.9687   -6.2937 H   0  0  0  0  0  0  0  0  0  0  0  0
    5.4598    6.7222   -5.6379 H   0  0  0  0  0  0  0  0  0  0  0  0
    6.3937    5.3562   -4.8451 H   0  0  0  0  0  0  0  0  0  0  0  0
    5.9753    5.7732   -7.8250 H   0  0  0  0  0  0  0  0  0  0  0  0
    7.4991    6.0399   -6.8626 H   0  0  0  0  0  0  0  0  0  0  0  0
    8.0797    3.9184   -7.1027 H   0  0  0  0  0  0  0  0  0  0  0  0
    6.4822    3.3958   -6.3905 H   0  0  0  0  0  0  0  0  0  0  0  0
    7.4223    3.3706   -9.1829 H   0  0  0  0  0  0  0  0  0  0  0  0
    6.1059    2.4308   -8.3333 H   0  0  0  0  0  0  0  0  0  0  0  0
    4.7203    4.5717   -8.4710 H   0  0  0  0  0  0  0  0  0  0  0  0
    5.9514    5.1398   -9.6697 H   0  0  0  0  0  0  0  0  0  0  0  0
    4.3196    4.1710  -11.0393 H   0  0  0  0  0  0  0  0  0  0  0  0
    5.5179    2.8330  -10.8205 H   0  0  0  0  0  0  0  0  0  0  0  0
    2.9028    2.4231  -10.5231 H   0  0  0  0  0  0  0  0  0  0  0  0
    4.1515    1.6210   -9.4577 H   0  0  0  0  0  0  0  0  0  0  0  0
    3.6879    3.8665   -8.0352 H   0  0  0  0  0  0  0  0  0  0  0  0
    2.0587    3.6076   -8.8172 H   0  0  0  0  0  0  0  0  0  0  0  0
    2.3769    2.5842   -6.5205 H   0  0  0  0  0  0  0  0  0  0  0  0
    1.8223    1.4844   -7.8753 H   0  0  0  0  0  0  0  0  0  0  0  0
    3.4207    0.0733   -7.3363 H   0  0  0  0  0  0  0  0  0  0  0  0
    4.6240    1.3695   -7.8202 H   0  0  0  0  0  0  0  0  0  0  0  0
    5.4029    0.9503   -5.7689 H   0  0  0  0  0  0  0  0  0  0  0  0
    4.0612    2.1754   -5.3803 H   0  0  0  0  0  0  0  0  0  0  0  0
  1  2  1  0
  2  3  1  0
  3  4  1  0
  4  5  1  0
  5  6  1  0
  6  7  1  0
  7  8  1  0
  8  9  1  0
  9 10  1  0
 10 11  1  0
 11 12  1  0
 12 13  1  0
 13 14  1  0
 14 15  1  0
 15 16  1  0
 16 17  2  0
 16 18  1  0
  1 19  1  0
  1 20  1  0
  1 21  1  0
  2 22  1  0
  2 23  1  0
  3 24  1  0
  3 25  1  0
  4 26  1  0
  4 27  1  0
  5 28  1  0
  5 29  1  0
  6 30  1  0
  6 31  1  0
  7 32  1  0
  7 33  1  0
  8 34  1  0
  8 35  1  0
  9 36  1  0
  9 37  1  0
 10 38  1  0
 10 39  1  0
 11 40  1  0
 11 41  1  0
 12 42  1  0
 12 43  1  0
 13 44  1  0
 13 45  1  0
 14 46  1  0
 14 47  1  0
 15 48  1  0
 15 49  1  0
M  CHG  1  18  -1
M  END
>  <meeko>  (1) 
{"is_sidechain": [false], "free_energy": -5.314, "intermolecular_energy": -9.664, "internal_energy": -2.354}

$$$$
3uew_ligand
     RDKit          3D

 49 48  0  0  0  0  0  0  0  0999 V2000
   -3.7460    2.3170   -7.0740 C   0  0  0  0  0  0  0  0  0  0  0  0
   -4.6140    1.0710   -6.9910 C   0  0  0  0  0  0  0  0  0  0  0  0
   -4.6780    0.4650   -5.5860 C   0  0  0  0  0  0  0  0  0  0  0  0
   -6.0490    0.6120   -4.9280 C   0  0  0  0  0  0  0  0  0  0  0  0
   -7.2180    0.1440   -5.8030 C   0  0  0  0  0  0  0  0  0  0  0  0
   -8.6060    0.5010   -5.2580 C   0  0  0  0  0  0  0  0  0  0  0  0
   -9.5360    1.0780   -6.3300 C   0  0  0  0  0  0  0  0  0  0  0  0
  -10.2150    2.3840   -5.9060 C   0  0  0  0  0  0  0  0  0  0  0  0
   -9.2740    3.3580   -5.1930 C   0  0  0  0  0  0  0  0  0  0  0  0
   -8.4950    4.2110   -6.1980 C   0  0  0  0  0  0  0  0  0  0  0  0
   -7.0050    3.8630   -6.1810 C   0  0  0  0  0  0  0  0  0  0  0  0
   -6.2080    4.6330   -5.1210 C   0  0  0  0  0  0  0  0  0  0  0  0
   -6.1280    3.9070   -3.7780 C   0  0  0  0  0  0  0  0  0  0  0  0
   -4.8310    4.1690   -3.0020 C   0  0  0  0  0  0  0  0  0  0  0  0
   -3.8940    2.9650   -2.9160 C   0  0  0  0  0  0  0  0  0  0  0  0
   -4.1620    1.9400   -1.8100 C   0  0  0  0  0  0  0  0  0  0  0  0
   -4.8100    2.3950   -0.8240 O   0  0  0  0  0  0  0  0  0  0  0  0
   -3.7010    0.7800   -1.9990 O   0  0  0  0  0  0  0  0  0  0  0  0
   -3.5044    2.6639   -6.0585 H   0  0  0  0  0  0  0  0  0  0  0  0
   -2.8159    2.0808   -7.6118 H   0  0  0  0  0  0  0  0  0  0  0  0
   -4.2899    3.1076   -7.6118 H   0  0  0  0  0  0  0  0  0  0  0  0
   -5.6350    1.3362   -7.3029 H   0  0  0  0  0  0  0  0  0  0  0  0
   -4.1603    0.3156   -7.6494 H   0  0  0  0  0  0  0  0  0  0  0  0
   -4.4371   -0.6060   -5.6561 H   0  0  0  0  0  0  0  0  0  0  0  0
   -3.9559    1.0115   -4.9616 H   0  0  0  0  0  0  0  0  0  0  0  0
   -6.0525    0.0193   -4.0013 H   0  0  0  0  0  0  0  0  0  0  0  0
   -6.1996    1.6864   -4.7464 H   0  0  0  0  0  0  0  0  0  0  0  0
   -7.1100    0.6057   -6.7956 H   0  0  0  0  0  0  0  0  0  0  0  0
   -7.1668   -0.9545   -5.8302 H   0  0  0  0  0  0  0  0  0  0  0  0
   -9.0665   -0.4093   -4.8466 H   0  0  0  0  0  0  0  0  0  0  0  0
   -8.4697    1.2743   -4.4876 H   0  0  0  0  0  0  0  0  0  0  0  0
   -8.9450    1.2707   -7.2375 H   0  0  0  0  0  0  0  0  0  0  0  0
  -10.3321    0.3386   -6.5020 H   0  0  0  0  0  0  0  0  0  0  0  0
  -10.6114    2.8782   -6.8052 H   0  0  0  0  0  0  0  0  0  0  0  0
  -11.0083    2.1190   -5.1915 H   0  0  0  0  0  0  0  0  0  0  0  0
   -9.8668    4.0196   -4.5442 H   0  0  0  0  0  0  0  0  0  0  0  0
   -8.5545    2.7754   -4.5990 H   0  0  0  0  0  0  0  0  0  0  0  0
   -8.8941    4.0308   -7.2071 H   0  0  0  0  0  0  0  0  0  0  0  0
   -8.6089    5.2690   -5.9192 H   0  0  0  0  0  0  0  0  0  0  0  0
   -6.9014    2.7864   -5.9803 H   0  0  0  0  0  0  0  0  0  0  0  0
   -6.5958    4.1464   -7.1620 H   0  0  0  0  0  0  0  0  0  0  0  0
   -5.1854    4.7863   -5.4963 H   0  0  0  0  0  0  0  0  0  0  0  0
   -6.7327    5.5839   -4.9463 H   0  0  0  0  0  0  0  0  0  0  0  0
   -6.9746    4.2348   -3.1569 H   0  0  0  0  0  0  0  0  0  0  0  0
   -6.1549    2.8294   -3.9973 H   0  0  0  0  0  0  0  0  0  0  0  0
   -4.2925    4.9895   -3.4987 H   0  0  0  0  0  0  0  0  0  0  0  0
   -5.1255    4.4126   -1.9705 H   0  0  0  0  0  0  0  0  0  0  0  0
   -3.9497    2.4344   -3.8779 H   0  0  0  0  0  0  0  0  0  0  0  0
   -2.9101    3.3916   -2.6713 H   0  0  0  0  0  0  0  0  0  0  0  0
  1  2  1  0
  2  3  1  0
  3  4  1  0
  4  5  1  0
  5  6  1  0
  6  7  1  0
  7  8  1  0
  8  9  1  0
  9 10  1  0
 10 11  1  0
 11 12  1  0
 12 13  1  0
 13 14  1  0
 14 15  1  0
 15 16  1  0
 16 17  2  0
 16 18  1  0
  1 19  1  0
  1 20  1  0
  1 21  1  0
  2 22  1  0
  2 23  1  0
  3 24  1  0
  3 25  1  0
  4 26  1  0
  4 27  1  0
  5 28  1  0
  5 29  1  0
  6 30  1  0
  6 31  1  0
  7 32  1  0
  7 33  1  0
  8 34  1  0
  8 35  1  0
  9 36  1  0
  9 37  1  0
 10 38  1  0
 10 39  1  0
 11 40  1  0
 11 41  1  0
 12 42  1  0
 12 43  1  0
 13 44  1  0
 13 45  1  0
 14 46  1  0
 14 47  1  0
 15 48  1  0
 15 49  1  0
M  CHG  1  18  -1
M  END
>  <meeko>  (2) 
{"is_sidechain": [false], "free_energy": -5.3, "intermolecular_energy": -9.823, "internal_energy": -2.168}

$$$$
3uew_ligand
     RDKit          3D

 49 48  0  0  0  0  0  0  0  0999 V2000
    2.1050    5.3250   -6.6340 C   0  0  0  0  0  0  0  0  0  0  0  0
    3.5140    5.3690   -6.0650 C   0  0  0  0  0  0  0  0  0  0  0  0
    3.8760    4.1330   -5.2360 C   0  0  0  0  0  0  0  0  0  0  0  0
    2.6530    3.3610   -4.7400 C   0  0  0  0  0  0  0  0  0  0  0  0
    2.8580    2.6650   -3.3890 C   0  0  0  0  0  0  0  0  0  0  0  0
    2.7880    1.1340   -3.4440 C   0  0  0  0  0  0  0  0  0  0  0  0
    3.9640    0.5110   -4.2040 C   0  0  0  0  0  0  0  0  0  0  0  0
    3.5430   -0.2110   -5.4880 C   0  0  0  0  0  0  0  0  0  0  0  0
    3.9240    0.5410   -6.7650 C   0  0  0  0  0  0  0  0  0  0  0  0
    2.6890    0.8590   -7.6110 C   0  0  0  0  0  0  0  0  0  0  0  0
    2.9660    2.0050   -8.5880 C   0  0  0  0  0  0  0  0  0  0  0  0
    4.3910    2.5630   -8.4870 C   0  0  0  0  0  0  0  0  0  0  0  0
    4.5980    3.8420   -9.2990 C   0  0  0  0  0  0  0  0  0  0  0  0
    6.0680    4.2470   -9.4640 C   0  0  0  0  0  0  0  0  0  0  0  0
    6.9680    3.8390   -8.2990 C   0  0  0  0  0  0  0  0  0  0  0  0
    7.0410    4.7870   -7.0980 C   0  0  0  0  0  0  0  0  0  0  0  0
    6.8430    6.0040   -7.3830 O   0  0  0  0  0  0  0  0  0  0  0  0
    7.3010    4.2590   -5.9820 O   0  0  0  0  0  0  0  0  0  0  0  0
    1.3772    5.3023   -5.8095 H   0  0  0  0  0  0  0  0  0  0  0  0
    1.9311    6.2182   -7.2521 H   0  0  0  0  0  0  0  0  0  0  0  0
    1.9872    4.4227   -7.2521 H   0  0  0  0  0  0  0  0  0  0  0  0
    4.2248    5.4483   -6.9007 H   0  0  0  0  0  0  0  0  0  0  0  0
    3.5643    6.2371   -5.3913 H   0  0  0  0  0  0  0  0  0  0  0  0
    4.4850    3.4608   -5.8583 H   0  0  0  0  0  0  0  0  0  0  0  0
    4.4233    4.4835   -4.3485 H   0  0  0  0  0  0  0  0  0  0  0  0
    1.8153    4.0671   -4.6413 H   0  0  0  0  0  0  0  0  0  0  0  0
    2.4565    2.5695   -5.4782 H   0  0  0  0  0  0  0  0  0  0  0  0
    3.8478    2.9498   -3.0027 H   0  0  0  0  0  0  0  0  0  0  0  0
    2.0320    2.9924   -2.7405 H   0  0  0  0  0  0  0  0  0  0  0  0
    2.7894    0.7452   -2.4150 H   0  0  0  0  0  0  0  0  0  0  0  0
    1.8670    0.8644   -3.9817 H   0  0  0  0  0  0  0  0  0  0  0  0
    4.6710    1.3109   -4.4693 H   0  0  0  0  0  0  0  0  0  0  0  0
    4.4175   -0.2411   -3.5417 H   0  0  0  0  0  0  0  0  0  0  0  0
    4.0283   -1.1980   -5.5074 H   0  0  0  0  0  0  0  0  0  0  0  0
    2.4456   -0.2855   -5.4720 H   0  0  0  0  0  0  0  0  0  0  0  0
    4.4232    1.4822   -6.4914 H   0  0  0  0  0  0  0  0  0  0  0  0
    4.5961   -0.0975   -7.3571 H   0  0  0  0  0  0  0  0  0  0  0  0
    2.4044   -0.0375   -8.1813 H   0  0  0  0  0  0  0  0  0  0  0  0
    1.8752    1.1653   -6.9372 H   0  0  0  0  0  0  0  0  0  0  0  0
    2.8084    1.6355   -9.6120 H   0  0  0  0  0  0  0  0  0  0  0  0
    2.2784    2.8239   -8.3300 H   0  0  0  0  0  0  0  0  0  0  0  0
    4.6066    2.7812   -7.4306 H   0  0  0  0  0  0  0  0  0  0  0  0
    5.0693    1.8016   -8.8994 H   0  0  0  0  0  0  0  0  0  0  0  0
    4.1671    3.6897  -10.2996 H   0  0  0  0  0  0  0  0  0  0  0  0
    4.1054    4.6538   -8.7438 H   0  0  0  0  0  0  0  0  0  0  0  0
    6.4545    3.7751  -10.3794 H   0  0  0  0  0  0  0  0  0  0  0  0
    6.0886    5.3459   -9.5075 H   0  0  0  0  0  0  0  0  0  0  0  0
    6.6096    2.8666   -7.9303 H   0  0  0  0  0  0  0  0  0  0  0  0
    7.9853    3.8367   -8.7173 H   0  0  0  0  0  0  0  0  0  0  0  0
  1  2  1  0
  2  3  1  0
  3  4  1  0
  4  5  1  0
  5  6  1  0
  6  7  1  0
  7  8  1  0
  8  9  1  0
  9 10  1  0
 10 11  1  0
 11 12  1  0
 12 13  1  0
 13 14  1  0
 14 15  1  0
 15 16  1  0
 16 17  2  0
 16 18  1  0
  1 19  1  0
  1 20  1  0
  1 21  1  0
  2 22  1  0
  2 23  1  0
  3 24  1  0
  3 25  1  0
  4 26  1  0
  4 27  1  0
  5 28  1  0
  5 29  1  0
  6 30  1  0
  6 31  1  0
  7 32  1  0
  7 33  1  0
  8 34  1  0
  8 35  1  0
  9 36  1  0
  9 37  1  0
 10 38  1  0
 10 39  1  0
 11 40  1  0
 11 41  1  0
 12 42  1  0
 12 43  1  0
 13 44  1  0
 13 45  1  0
 14 46  1  0
 14 47  1  0
 15 48  1  0
 15 49  1  0
M  CHG  1  18  -1
M  END
>  <meeko>  (3) 
{"is_sidechain": [false], "free_energy": -5.145, "intermolecular_energy": -9.436, "internal_energy": -2.273}

$$$$
3uew_ligand
     RDKit          3D

 49 48  0  0  0  0  0  0  0  0999 V2000
   -5.4710    6.1080   -7.2490 C   0  0  0  0  0  0  0  0  0  0  0  0
   -5.4020    4.9070   -6.3200 C   0  0  0  0  0  0  0  0  0  0  0  0
   -6.7780    4.3780   -5.9040 C   0  0  0  0  0  0  0  0  0  0  0  0
   -6.8020    3.8090   -4.4860 C   0  0  0  0  0  0  0  0  0  0  0  0
   -5.4900    3.9950   -3.7150 C   0  0  0  0  0  0  0  0  0  0  0  0
   -5.0250    2.7560   -2.9390 C   0  0  0  0  0  0  0  0  0  0  0  0
   -3.6960    2.1950   -3.4570 C   0  0  0  0  0  0  0  0  0  0  0  0
   -3.0240    3.0940   -4.5000 C   0  0  0  0  0  0  0  0  0  0  0  0
   -2.2370    2.3170   -5.5580 C   0  0  0  0  0  0  0  0  0  0  0  0
   -3.0000    1.0700   -6.0120 C   0  0  0  0  0  0  0  0  0  0  0  0
   -3.9210    1.3840   -7.1930 C   0  0  0  0  0  0  0  0  0  0  0  0
   -5.3960    1.0620   -6.9210 C   0  0  0  0  0  0  0  0  0  0  0  0
   -5.6130    0.2460   -5.6460 C   0  0  0  0  0  0  0  0  0  0  0  0
   -7.0660    0.2250   -5.1560 C   0  0  0  0  0  0  0  0  0  0  0  0
   -8.0740    0.8020   -6.1490 C   0  0  0  0  0  0  0  0  0  0  0  0
   -9.5160    0.9800   -5.6660 C   0  0  0  0  0  0  0  0  0  0  0  0
   -9.6330    1.1150   -4.4130 O   0  0  0  0  0  0  0  0  0  0  0  0
  -10.4110    0.9590   -6.5550 O   0  0  0  0  0  0  0  0  0  0  0  0
   -5.5240    7.0306   -6.6523 H   0  0  0  0  0  0  0  0  0  0  0  0
   -4.5728    6.1328   -7.8835 H   0  0  0  0  0  0  0  0  0  0  0  0
   -6.3661    6.0298   -7.8835 H   0  0  0  0  0  0  0  0  0  0  0  0
   -4.8592    4.0999   -6.8337 H   0  0  0  0  0  0  0  0  0  0  0  0
   -4.8903    5.2354   -5.4033 H   0  0  0  0  0  0  0  0  0  0  0  0
   -7.5019    5.2043   -5.9612 H   0  0  0  0  0  0  0  0  0  0  0  0
   -7.0327    3.5564   -6.5897 H   0  0  0  0  0  0  0  0  0  0  0  0
   -7.6057    4.3099   -3.9263 H   0  0  0  0  0  0  0  0  0  0  0  0
   -6.9629    2.7251   -4.5817 H   0  0  0  0  0  0  0  0  0  0  0  0
   -4.7036    4.2638   -4.4356 H   0  0  0  0  0  0  0  0  0  0  0  0
   -5.6761    4.7800   -2.9672 H   0  0  0  0  0  0  0  0  0  0  0  0
   -4.9023    3.0297   -1.8807 H   0  0  0  0  0  0  0  0  0  0  0  0
   -5.7886    1.9756   -3.0727 H   0  0  0  0  0  0  0  0  0  0  0  0
   -3.0109    2.0769   -2.6045 H   0  0  0  0  0  0  0  0  0  0  0  0
   -3.9165    1.2355   -3.9476 H   0  0  0  0  0  0  0  0  0  0  0  0
   -3.8033    3.6817   -5.0073 H   0  0  0  0  0  0  0  0  0  0  0  0
   -2.3048    3.7306   -3.9639 H   0  0  0  0  0  0  0  0  0  0  0  0
   -2.0651    2.9686   -6.4274 H   0  0  0  0  0  0  0  0  0  0  0  0
   -1.2812    1.9985   -5.1164 H   0  0  0  0  0  0  0  0  0  0  0  0
   -2.2775    0.2981   -6.3158 H   0  0  0  0  0  0  0  0  0  0  0  0
   -3.6174    0.7151   -5.1737 H   0  0  0  0  0  0  0  0  0  0  0  0
   -3.8357    2.4557   -7.4257 H   0  0  0  0  0  0  0  0  0  0  0  0
   -3.6003    0.7483   -8.0315 H   0  0  0  0  0  0  0  0  0  0  0  0
   -5.9483    2.0087   -6.8276 H   0  0  0  0  0  0  0  0  0  0  0  0
   -5.7565    0.4524   -7.7627 H   0  0  0  0  0  0  0  0  0  0  0  0
   -5.2993   -0.7901   -5.8413 H   0  0  0  0  0  0  0  0  0  0  0  0
   -5.0186    0.7280   -4.8558 H   0  0  0  0  0  0  0  0  0  0  0  0
   -7.3448   -0.8189   -4.9498 H   0  0  0  0  0  0  0  0  0  0  0  0
   -7.1054    0.8634   -4.2611 H   0  0  0  0  0  0  0  0  0  0  0  0
   -7.7046    1.7914   -6.4568 H   0  0  0  0  0  0  0  0  0  0  0  0
   -8.1369    0.0537   -6.9528 H   0  0  0  0  0  0  0  0  0  0  0  0
  1  2  1  0
  2  3  1  0
  3  4  1  0
  4  5  1  0
  5  6  1  0
  6  7  1  0
  7  8  1  0
  8  9  1  0
  9 10  1  0
 10 11  1  0
 11 12  1  0
 12 13  1  0
 13 14  1  0
 14 15  1  0
 15 16  1  0
 16 17  2  0
 16 18  1  0
  1 19  1  0
  1 20  1  0
  1 21  1  0
  2 22  1  0
  2 23  1  0
  3 24  1  0
  3 25  1  0
  4 26  1  0
  4 27  1  0
  5 28  1  0
  5 29  1  0
  6 30  1  0
  6 31  1  0
  7 32  1  0
  7 33  1  0
  8 34  1  0
  8 35  1  0
  9 36  1  0
  9 37  1  0
 10 38  1  0
 10 39  1  0
 11 40  1  0
 11 41  1  0
 12 42  1  0
 12 43  1  0
 13 44  1  0
 13 45  1  0
 14 46  1  0
 14 47  1  0
 15 48  1  0
 15 49  1  0
M  CHG  1  18  -1
M  END
>  <meeko>  (4) 
{"is_sidechain": [false], "free_energy": -5.065, "intermolecular_energy": -8.968, "internal_energy": -2.596}

$$$$
3uew_ligand
     RDKit          3D

 49 48  0  0  0  0  0  0  0  0999 V2000
   -8.8800    6.4010   -7.4990 C   0  0  0  0  0  0  0  0  0  0  0  0
   -8.2630    5.0410   -7.2170 C   0  0  0  0  0  0  0  0  0  0  0  0
   -9.1420    4.1420   -6.3420 C   0  0  0  0  0  0  0  0  0  0  0  0
   -8.7980    2.6580   -6.4660 C   0  0  0  0  0  0  0  0  0  0  0  0
   -9.0160    1.8550   -5.1780 C   0  0  0  0  0  0  0  0  0  0  0  0
   -7.8160    1.0010   -4.7480 C   0  0  0  0  0  0  0  0  0  0  0  0
   -7.0620    0.3950   -5.9350 C   0  0  0  0  0  0  0  0  0  0  0  0
   -5.5390    0.4930   -5.8000 C   0  0  0  0  0  0  0  0  0  0  0  0
   -4.8360    0.8980   -7.0970 C   0  0  0  0  0  0  0  0  0  0  0  0
   -4.0830    2.2210   -6.9300 C   0  0  0  0  0  0  0  0  0  0  0  0
   -5.0510    3.3820   -6.6880 C   0  0  0  0  0  0  0  0  0  0  0  0
   -4.7180    4.2060   -5.4380 C   0  0  0  0  0  0  0  0  0  0  0  0
   -5.8830    4.3100   -4.4530 C   0  0  0  0  0  0  0  0  0  0  0  0
   -5.5520    3.8190   -3.0390 C   0  0  0  0  0  0  0  0  0  0  0  0
   -5.0510    2.3770   -2.9740 C   0  0  0  0  0  0  0  0  0  0  0  0
   -4.2530    1.9630   -1.7330 C   0  0  0  0  0  0  0  0  0  0  0  0
   -4.3170    2.7860   -0.7750 O   0  0  0  0  0  0  0  0  0  0  0  0
   -3.6210    0.8740   -1.8120 O   0  0  0  0  0  0  0  0  0  0  0  0
   -9.1084    6.9043   -6.5480 H   0  0  0  0  0  0  0  0  0  0  0  0
   -8.1712    7.0126   -8.0766 H   0  0  0  0  0  0  0  0  0  0  0  0
   -9.8070    6.2704   -8.0766 H   0  0  0  0  0  0  0  0  0  0  0  0
   -8.0897    4.5314   -8.1763 H   0  0  0  0  0  0  0  0  0  0  0  0
   -7.3285    5.2175   -6.6642 H   0  0  0  0  0  0  0  0  0  0  0  0
   -9.0144    4.4438   -5.2919 H   0  0  0  0  0  0  0  0  0  0  0  0
  -10.1798    4.2665   -6.6849 H   0  0  0  0  0  0  0  0  0  0  0  0
   -9.4279    2.2222   -7.2555 H   0  0  0  0  0  0  0  0  0  0  0  0
   -7.7244    2.5996   -6.6983 H   0  0  0  0  0  0  0  0  0  0  0  0
   -9.2422    2.5624   -4.3666 H   0  0  0  0  0  0  0  0  0  0  0  0
   -9.8399    1.1554   -5.3820 H   0  0  0  0  0  0  0  0  0  0  0  0
   -7.1211    1.6340   -4.1766 H   0  0  0  0  0  0  0  0  0  0  0  0
   -8.2027    0.1685   -4.1419 H   0  0  0  0  0  0  0  0  0  0  0  0
   -7.3374   -0.6667   -6.0182 H   0  0  0  0  0  0  0  0  0  0  0  0
   -7.3472    0.9688   -6.8291 H   0  0  0  0  0  0  0  0  0  0  0  0
   -5.3053    1.2418   -5.0289 H   0  0  0  0  0  0  0  0  0  0  0  0
   -5.1728   -0.5093   -5.5329 H   0  0  0  0  0  0  0  0  0  0  0  0
   -4.1205    0.1111   -7.3779 H   0  0  0  0  0  0  0  0  0  0  0  0
   -5.5978    1.0277   -7.8798 H   0  0  0  0  0  0  0  0  0  0  0  0
   -3.3994    2.1390   -6.0721 H   0  0  0  0  0  0  0  0  0  0  0  0
   -3.5223    2.4219   -7.8548 H   0  0  0  0  0  0  0  0  0  0  0  0
   -5.0208    4.0485   -7.5626 H   0  0  0  0  0  0  0  0  0  0  0  0
   -6.0480    2.9445   -6.5309 H   0  0  0  0  0  0  0  0  0  0  0  0
   -3.8680    3.7330   -4.9245 H   0  0  0  0  0  0  0  0  0  0  0  0
   -4.4839    5.2269   -5.7741 H   0  0  0  0  0  0  0  0  0  0  0  0
   -6.1890    5.3647   -4.3898 H   0  0  0  0  0  0  0  0  0  0  0  0
   -6.6820    3.6584   -4.8364 H   0  0  0  0  0  0  0  0  0  0  0  0
   -4.7728    4.4733   -2.6209 H   0  0  0  0  0  0  0  0  0  0  0  0
   -6.4910    3.8518   -2.4669 H   0  0  0  0  0  0  0  0  0  0  0  0
   -5.9304    1.7191   -3.0354 H   0  0  0  0  0  0  0  0  0  0  0  0
   -4.3396    2.2885   -3.8083 H   0  0  0  0  0  0  0  0  0  0  0  0
  1  2  1  0
  2  3  1  0
  3  4  1  0
  4  5  1  0
  5  6  1  0
  6  7  1  0
  7  8  1  0
  8  9  1  0
  9 10  1  0
 10 11  1  0
 11 12  1  0
 12 13  1  0
 13 14  1  0
 14 15  1  0
 15 16  1  0
 16 17  2  0
 16 18  1  0
  1 19  1  0
  1 20  1  0
  1 21  1  0
  2 22  1  0
  2 23  1  0
  3 24  1  0
  3 25  1  0
  4 26  1  0
  4 27  1  0
  5 28  1  0
  5 29  1  0
  6 30  1  0
  6 31  1  0
  7 32  1  0
  7 33  1  0
  8 34  1  0
  8 35  1  0
  9 36  1  0
  9 37  1  0
 10 38  1  0
 10 39  1  0
 11 40  1  0
 11 41  1  0
 12 42  1  0
 12 43  1  0
 13 44  1  0
 13 45  1  0
 14 46  1  0
 14 47  1  0
 15 48  1  0
 15 49  1  0
M  CHG  1  18  -1
M  END
>  <meeko>  (5) 
{"is_sidechain": [false], "free_energy": -5.039, "intermolecular_energy": -9.367, "internal_energy": -2.149}

$$$$
3uew_ligand
     RDKit          3D

 49 48  0  0  0  0  0  0  0  0999 V2000
    3.3450    2.7420   -9.6960 C   0  0  0  0  0  0  0  0  0  0  0  0
    2.9470    1.7670   -8.5990 C   0  0  0  0  0  0  0  0  0  0  0  0
    4.0450    1.5430   -7.5550 C   0  0  0  0  0  0  0  0  0  0  0  0
    3.6170    0.6110   -6.4210 C   0  0  0  0  0  0  0  0  0  0  0  0
    4.0860    1.0590   -5.0320 C   0  0  0  0  0  0  0  0  0  0  0  0
    3.1150    0.7230   -3.8930 C   0  0  0  0  0  0  0  0  0  0  0  0
    2.7310    1.9480   -3.0580 C   0  0  0  0  0  0  0  0  0  0  0  0
    2.5690    3.2240   -3.8910 C   0  0  0  0  0  0  0  0  0  0  0  0
    1.2510    3.2840   -4.6650 C   0  0  0  0  0  0  0  0  0  0  0  0
    1.4420    3.9330   -6.0380 C   0  0  0  0  0  0  0  0  0  0  0  0
    2.2500    5.2280   -5.9320 C   0  0  0  0  0  0  0  0  0  0  0  0
    3.5470    5.2090   -6.7490 C   0  0  0  0  0  0  0  0  0  0  0  0
    4.7960    5.4880   -5.9110 C   0  0  0  0  0  0  0  0  0  0  0  0
    6.1140    5.3200   -6.6760 C   0  0  0  0  0  0  0  0  0  0  0  0
    5.9480    4.8500   -8.1210 C   0  0  0  0  0  0  0  0  0  0  0  0
    7.0960    5.1420   -9.0930 C   0  0  0  0  0  0  0  0  0  0  0  0
    6.9790    6.2320   -9.7240 O   0  0  0  0  0  0  0  0  0  0  0  0
    8.0040    4.2690   -9.1640 O   0  0  0  0  0  0  0  0  0  0  0  0
    3.7237    3.6698   -9.2423 H   0  0  0  0  0  0  0  0  0  0  0  0
    4.1311    2.2913  -10.3196 H   0  0  0  0  0  0  0  0  0  0  0  0
    2.4681    2.9702  -10.3196 H   0  0  0  0  0  0  0  0  0  0  0  0
    2.0561    2.1615   -8.0885 H   0  0  0  0  0  0  0  0  0  0  0  0
    2.7553    0.7971   -9.0812 H   0  0  0  0  0  0  0  0  0  0  0  0
    4.9201    1.1042   -8.0567 H   0  0  0  0  0  0  0  0  0  0  0  0
    4.2733    2.5208   -7.1058 H   0  0  0  0  0  0  0  0  0  0  0  0
    2.5183    0.5573   -6.4140 H   0  0  0  0  0  0  0  0  0  0  0  0
    4.0887   -0.3634   -6.6161 H   0  0  0  0  0  0  0  0  0  0  0  0
    5.0475    0.5687   -4.8195 H   0  0  0  0  0  0  0  0  0  0  0  0
    4.1603    2.1560   -5.0660 H   0  0  0  0  0  0  0  0  0  0  0  0
    2.2002    0.2928   -4.3267 H   0  0  0  0  0  0  0  0  0  0  0  0
    3.6232    0.0129   -3.2240 H   0  0  0  0  0  0  0  0  0  0  0  0
    1.7778    1.7394   -2.5503 H   0  0  0  0  0  0  0  0  0  0  0  0
    3.5502    2.1261   -2.3459 H   0  0  0  0  0  0  0  0  0  0  0  0
    2.6150    4.0899   -3.2141 H   0  0  0  0  0  0  0  0  0  0  0  0
    3.3808    3.2311   -4.6333 H   0  0  0  0  0  0  0  0  0  0  0  0
    0.8689    2.2616   -4.8019 H   0  0  0  0  0  0  0  0  0  0  0  0
    0.5375    3.8921   -4.0895 H   0  0  0  0  0  0  0  0  0  0  0  0
    1.9751    3.2306   -6.6955 H   0  0  0  0  0  0  0  0  0  0  0  0
    0.4508    4.1744   -6.4494 H   0  0  0  0  0  0  0  0  0  0  0  0
    1.6247    6.0587   -6.2910 H   0  0  0  0  0  0  0  0  0  0  0  0
    2.5348    5.3457   -4.8761 H   0  0  0  0  0  0  0  0  0  0  0  0
    3.6526    4.2172   -7.2129 H   0  0  0  0  0  0  0  0  0  0  0  0
    3.4716    6.0117   -7.4974 H   0  0  0  0  0  0  0  0  0  0  0  0
    4.7403    6.5228   -5.5421 H   0  0  0  0  0  0  0  0  0  0  0  0
    4.8045    4.7468   -5.0983 H   0  0  0  0  0  0  0  0  0  0  0  0
    6.6319    6.2904   -6.6869 H   0  0  0  0  0  0  0  0  0  0  0  0
    6.6833    4.5369   -6.1538 H   0  0  0  0  0  0  0  0  0  0  0  0
    5.8034    3.7598   -8.0990 H   0  0  0  0  0  0  0  0  0  0  0  0
    5.0964    5.4281   -8.5091 H   0  0  0  0  0  0  0  0  0  0  0  0
  1  2  1  0
  2  3  1  0
  3  4  1  0
  4  5  1  0
  5  6  1  0
  6  7  1  0
  7  8  1  0
  8  9  1  0
  9 10  1  0
 10 11  1  0
 11 12  1  0
 12 13  1  0
 13 14  1  0
 14 15  1  0
 15 16  1  0
 16 17  2  0
 16 18  1  0
  1 19  1  0
  1 20  1  0
  1 21  1  0
  2 22  1  0
  2 23  1  0
  3 24  1  0
  3 25  1  0
  4 26  1  0
  4 27  1  0
  5 28  1  0
  5 29  1  0
  6 30  1  0
  6 31  1  0
  7 32  1  0
  7 33  1  0
  8 34  1  0
  8 35  1  0
  9 36  1  0
  9 37  1  0
 10 38  1  0
 10 39  1  0
 11 40  1  0
 11 41  1  0
 12 42  1  0
 12 43  1  0
 13 44  1  0
 13 45  1  0
 14 46  1  0
 14 47  1  0
 15 48  1  0
 15 49  1  0
M  CHG  1  18  -1
M  END
>  <meeko>  (6) 
{"is_sidechain": [false], "free_energy": -5.026, "intermolecular_energy": -9.417, "internal_energy": -2.075}

$$$$
3uew_ligand
     RDKit          3D

 49 48  0  0  0  0  0  0  0  0999 V2000
   -3.7650    4.6260   -1.9090 C   0  0  0  0  0  0  0  0  0  0  0  0
   -3.9570    5.1700   -3.3150 C   0  0  0  0  0  0  0  0  0  0  0  0
   -5.2790    4.7430   -3.9600 C   0  0  0  0  0  0  0  0  0  0  0  0
   -5.3040    4.9470   -5.4750 C   0  0  0  0  0  0  0  0  0  0  0  0
   -6.3190    4.0620   -6.2080 C   0  0  0  0  0  0  0  0  0  0  0  0
   -7.6240    4.7710   -6.5920 C   0  0  0  0  0  0  0  0  0  0  0  0
   -8.8710    4.0190   -6.1180 C   0  0  0  0  0  0  0  0  0  0  0  0
   -8.6920    3.3450   -4.7540 C   0  0  0  0  0  0  0  0  0  0  0  0
   -9.3520    1.9680   -4.6620 C   0  0  0  0  0  0  0  0  0  0  0  0
   -8.3050    0.8580   -4.5330 C   0  0  0  0  0  0  0  0  0  0  0  0
   -7.7850    0.4250   -5.9050 C   0  0  0  0  0  0  0  0  0  0  0  0
   -6.2550    0.3950   -5.9980 C   0  0  0  0  0  0  0  0  0  0  0  0
   -5.5610    0.8380   -4.7090 C   0  0  0  0  0  0  0  0  0  0  0  0
   -4.0650    0.5070   -4.6580 C   0  0  0  0  0  0  0  0  0  0  0  0
   -3.1550    1.7240   -4.5030 C   0  0  0  0  0  0  0  0  0  0  0  0
   -2.4710    2.2590   -5.7650 C   0  0  0  0  0  0  0  0  0  0  0  0
   -1.2790    2.6440   -5.5880 O   0  0  0  0  0  0  0  0  0  0  0  0
   -3.1680    2.2690   -6.8170 O   0  0  0  0  0  0  0  0  0  0  0  0
   -4.0380    5.3995   -1.1761 H   0  0  0  0  0  0  0  0  0  0  0  0
   -4.4060    3.7434   -1.7666 H   0  0  0  0  0  0  0  0  0  0  0  0
   -2.7121    4.3413   -1.7666 H   0  0  0  0  0  0  0  0  0  0  0  0
   -3.9305    6.2688   -3.2699 H   0  0  0  0  0  0  0  0  0  0  0  0
   -3.1468    4.7583   -3.9347 H   0  0  0  0  0  0  0  0  0  0  0  0
   -5.4427    3.6761   -3.7482 H   0  0  0  0  0  0  0  0  0  0  0  0
   -6.0706    5.3756   -3.5321 H   0  0  0  0  0  0  0  0  0  0  0  0
   -5.5526    5.9991   -5.6780 H   0  0  0  0  0  0  0  0  0  0  0  0
   -4.3087    4.6663   -5.8498 H   0  0  0  0  0  0  0  0  0  0  0  0
   -5.8471    3.6892   -7.1291 H   0  0  0  0  0  0  0  0  0  0  0  0
   -6.5945    3.2587   -5.5089 H   0  0  0  0  0  0  0  0  0  0  0  0
   -7.6253    5.7736   -6.1395 H   0  0  0  0  0  0  0  0  0  0  0  0
   -7.6639    4.8182   -7.6903 H   0  0  0  0  0  0  0  0  0  0  0  0
   -9.7038    4.7342   -6.0471 H   0  0  0  0  0  0  0  0  0  0  0  0
   -9.0687    3.2227   -6.8507 H   0  0  0  0  0  0  0  0  0  0  0  0
   -7.6152    3.2284   -4.5620 H   0  0  0  0  0  0  0  0  0  0  0  0
   -9.1817    3.9887   -4.0085 H   0  0  0  0  0  0  0  0  0  0  0  0
  -10.0103    1.9441   -3.7811 H   0  0  0  0  0  0  0  0  0  0  0  0
   -9.9288    1.7966   -5.5829 H   0  0  0  0  0  0  0  0  0  0  0  0
   -7.4624    1.2280   -3.9305 H   0  0  0  0  0  0  0  0  0  0  0  0
   -8.7762   -0.0104   -4.0494 H   0  0  0  0  0  0  0  0  0  0  0  0
   -8.1666   -0.5842   -6.1193 H   0  0  0  0  0  0  0  0  0  0  0  0
   -8.1388    1.1686   -6.6343 H   0  0  0  0  0  0  0  0  0  0  0  0
   -5.9395   -0.6332   -6.2286 H   0  0  0  0  0  0  0  0  0  0  0  0
   -5.9628    1.1052   -6.7856 H   0  0  0  0  0  0  0  0  0  0  0  0
   -5.6773    1.9274   -4.6109 H   0  0  0  0  0  0  0  0  0  0  0  0
   -6.0366    0.2842   -3.8862 H   0  0  0  0  0  0  0  0  0  0  0  0
   -3.8900   -0.1645   -3.8045 H   0  0  0  0  0  0  0  0  0  0  0  0
   -3.8120    0.0465   -5.6244 H   0  0  0  0  0  0  0  0  0  0  0  0
   -3.7638    2.5401   -4.0866 H   0  0  0  0  0  0  0  0  0  0  0  0
   -2.3308    1.3786   -3.8616 H   0  0  0  0  0  0  0  0  0  0  0  0
  1  2  1  0
  2  3  1  0
  3  4  1  0
  4  5  1  0
  5  6  1  0
  6  7  1  0
  7  8  1  0
  8  9  1  0
  9 10  1  0
 10 11  1  0
 11 12  1  0
 12 13  1  0
 13 14  1  0
 14 15  1  0
 15 16  1  0
 16 17  2  0
 16 18  1  0
  1 19  1  0
  1 20  1  0
  1 21  1  0
  2 22  1  0
  2 23  1  0
  3 24  1  0
  3 25  1  0
  4 26  1  0
  4 27  1  0
  5 28  1  0
  5 29  1  0
  6 30  1  0
  6 31  1  0
  7 32  1  0
  7 33  1  0
  8 34  1  0
  8 35  1  0
  9 36  1  0
  9 37  1  0
 10 38  1  0
 10 39  1  0
 11 40  1  0
 11 41  1  0
 12 42  1  0
 12 43  1  0
 13 44  1  0
 13 45  1  0
 14 46  1  0
 14 47  1  0
 15 48  1  0
 15 49  1  0
M  CHG  1  18  -1
M  END
>  <meeko>  (7) 
{"is_sidechain": [false], "free_energy": -5.018, "intermolecular_energy": -9.296, "internal_energy": -2.183}

$$$$
3uew_ligand
     RDKit          3D

 49 48  0  0  0  0  0  0  0  0999 V2000
    3.8930    3.0730  -11.6240 C   0  0  0  0  0  0  0  0  0  0  0  0
    4.8790    4.2160  -11.8030 C   0  0  0  0  0  0  0  0  0  0  0  0
    5.6660    4.5490  -10.5320 C   0  0  0  0  0  0  0  0  0  0  0  0
    5.6040    3.4420   -9.4790 C   0  0  0  0  0  0  0  0  0  0  0  0
    6.3120    3.7900   -8.1630 C   0  0  0  0  0  0  0  0  0  0  0  0
    6.3990    5.2920   -7.8640 C   0  0  0  0  0  0  0  0  0  0  0  0
    5.4850    5.7230   -6.7120 C   0  0  0  0  0  0  0  0  0  0  0  0
    5.2150    4.6040   -5.7010 C   0  0  0  0  0  0  0  0  0  0  0  0
    3.8020    4.6370   -5.1170 C   0  0  0  0  0  0  0  0  0  0  0  0
    2.7970    5.1960   -6.1290 C   0  0  0  0  0  0  0  0  0  0  0  0
    1.8250    4.1130   -6.6010 C   0  0  0  0  0  0  0  0  0  0  0  0
    2.4260    3.1640   -7.6450 C   0  0  0  0  0  0  0  0  0  0  0  0
    2.5060    1.7130   -7.1700 C   0  0  0  0  0  0  0  0  0  0  0  0
    3.9370    1.1770   -7.0340 C   0  0  0  0  0  0  0  0  0  0  0  0
    4.4010    0.9780   -5.5930 C   0  0  0  0  0  0  0  0  0  0  0  0
    3.4860    0.1750   -4.6620 C   0  0  0  0  0  0  0  0  0  0  0  0
    3.4050   -1.0550   -4.9450 O   0  0  0  0  0  0  0  0  0  0  0  0
    2.9160    0.8240   -3.7420 O   0  0  0  0  0  0  0  0  0  0  0  0
    3.7349    2.8898  -10.5509 H   0  0  0  0  0  0  0  0  0  0  0  0
    2.9352    3.3377  -12.0958 H   0  0  0  0  0  0  0  0  0  0  0  0
    4.2953    2.1644  -12.0958 H   0  0  0  0  0  0  0  0  0  0  0  0
    5.5934    3.9391  -12.5923 H   0  0  0  0  0  0  0  0  0  0  0  0
    4.2938    5.1099  -12.0646 H   0  0  0  0  0  0  0  0  0  0  0  0
    6.7188    4.7132  -10.8054 H   0  0  0  0  0  0  0  0  0  0  0  0
    5.2095    5.4470  -10.0902 H   0  0  0  0  0  0  0  0  0  0  0  0
    4.5467    3.2340   -9.2581 H   0  0  0  0  0  0  0  0  0  0  0  0
    6.1284    2.5722   -9.9014 H   0  0  0  0  0  0  0  0  0  0  0  0
    5.7641    3.3073   -7.3403 H   0  0  0  0  0  0  0  0  0  0  0  0
    7.3470    3.4305   -8.2606 H   0  0  0  0  0  0  0  0  0  0  0  0
    7.4379    5.5378   -7.5990 H   0  0  0  0  0  0  0  0  0  0  0  0
    6.0696    5.8285   -8.7661 H   0  0  0  0  0  0  0  0  0  0  0  0
    5.9608    6.5628   -6.1844 H   0  0  0  0  0  0  0  0  0  0  0  0
    4.5171    6.0047   -7.1522 H   0  0  0  0  0  0  0  0  0  0  0  0
    5.3610    3.6371   -6.2047 H   0  0  0  0  0  0  0  0  0  0  0  0
    5.9143    4.7485   -4.8642 H   0  0  0  0  0  0  0  0  0  0  0  0
    3.5034    3.6146   -4.8422 H   0  0  0  0  0  0  0  0  0  0  0  0
    3.8059    5.2910   -4.2325 H   0  0  0  0  0  0  0  0  0  0  0  0
    2.2262    6.0087   -5.6561 H   0  0  0  0  0  0  0  0  0  0  0  0
    3.3530    5.5688   -7.0019 H   0  0  0  0  0  0  0  0  0  0  0  0
    1.5149    3.5193   -5.7285 H   0  0  0  0  0  0  0  0  0  0  0  0
    0.9775    4.6254   -7.0797 H   0  0  0  0  0  0  0  0  0  0  0  0
    1.8021    3.2009   -8.5502 H   0  0  0  0  0  0  0  0  0  0  0  0
    3.4555    3.5009   -7.8364 H   0  0  0  0  0  0  0  0  0  0  0  0
    2.0162    1.6435   -6.1875 H   0  0  0  0  0  0  0  0  0  0  0  0
    2.0090    1.1002   -7.9365 H   0  0  0  0  0  0  0  0  0  0  0  0
    3.9918    0.2072   -7.5502 H   0  0  0  0  0  0  0  0  0  0  0  0
    4.6000    1.9355   -7.4757 H   0  0  0  0  0  0  0  0  0  0  0  0
    5.3718    0.4618   -5.6273 H   0  0  0  0  0  0  0  0  0  0  0  0
    4.4226    1.9899   -5.1621 H   0  0  0  0  0  0  0  0  0  0  0  0
  1  2  1  0
  2  3  1  0
  3  4  1  0
  4  5  1  0
  5  6  1  0
  6  7  1  0
  7  8  1  0
  8  9  1  0
  9 10  1  0
 10 11  1  0
 11 12  1  0
 12 13  1  0
 13 14  1  0
 14 15  1  0
 15 16  1  0
 16 17  2  0
 16 18  1  0
  1 19  1  0
  1 20  1  0
  1 21  1  0
  2 22  1  0
  2 23  1  0
  3 24  1  0
  3 25  1  0
  4 26  1  0
  4 27  1  0
  5 28  1  0
  5 29  1  0
  6 30  1  0
  6 31  1  0
  7 32  1  0
  7 33  1  0
  8 34  1  0
  8 35  1  0
  9 36  1  0
  9 37  1  0
 10 38  1  0
 10 39  1  0
 11 40  1  0
 11 41  1  0
 12 42  1  0
 12 43  1  0
 13 44  1  0
 13 45  1  0
 14 46  1  0
 14 47  1  0
 15 48  1  0
 15 49  1  0
M  CHG  1  18  -1
M  END
>  <meeko>  (8) 
{"is_sidechain": [false], "free_energy": -5.005, "intermolecular_energy": -9.249, "internal_energy": -2.206}

$$$$
3uew_ligand
     RDKit          3D

 49 48  0  0  0  0  0  0  0  0999 V2000
   -5.2220    5.7140   -6.0550 C   0  0  0  0  0  0  0  0  0  0  0  0
   -6.1400    4.5790   -6.4810 C   0  0  0  0  0  0  0  0  0  0  0  0
   -7.1200    4.1450   -5.3860 C   0  0  0  0  0  0  0  0  0  0  0  0
   -8.4880    3.7320   -5.9310 C   0  0  0  0  0  0  0  0  0  0  0  0
   -9.3340    2.9180   -4.9450 C   0  0  0  0  0  0  0  0  0  0  0  0
   -9.5570    1.4560   -5.3520 C   0  0  0  0  0  0  0  0  0  0  0  0
   -8.5210    0.5050   -4.7430 C   0  0  0  0  0  0  0  0  0  0  0  0
   -7.4580    0.0440   -5.7460 C   0  0  0  0  0  0  0  0  0  0  0  0
   -6.0530    0.5570   -5.4250 C   0  0  0  0  0  0  0  0  0  0  0  0
   -5.3160    0.9870   -6.6970 C   0  0  0  0  0  0  0  0  0  0  0  0
   -3.7990    0.9380   -6.5010 C   0  0  0  0  0  0  0  0  0  0  0  0
   -3.1740    2.3080   -6.2130 C   0  0  0  0  0  0  0  0  0  0  0  0
   -2.7280    2.4770   -4.7600 C   0  0  0  0  0  0  0  0  0  0  0  0
   -3.6360    3.3930   -3.9300 C   0  0  0  0  0  0  0  0  0  0  0  0
   -4.6800    2.6540   -3.0930 C   0  0  0  0  0  0  0  0  0  0  0  0
   -4.2210    2.0620   -1.7570 C   0  0  0  0  0  0  0  0  0  0  0  0
   -4.2910    2.8630   -0.7810 O   0  0  0  0  0  0  0  0  0  0  0  0
   -3.8190    0.8660   -1.7830 O   0  0  0  0  0  0  0  0  0  0  0  0
   -5.1834    5.7618   -4.9567 H   0  0  0  0  0  0  0  0  0  0  0  0
   -4.2110    5.5358   -6.4501 H   0  0  0  0  0  0  0  0  0  0  0  0
   -5.6076    6.6654   -6.4501 H   0  0  0  0  0  0  0  0  0  0  0  0
   -6.7189    4.9087   -7.3563 H   0  0  0  0  0  0  0  0  0  0  0  0
   -5.5013    3.7124   -6.7071 H   0  0  0  0  0  0  0  0  0  0  0  0
   -6.6858    3.2901   -4.8470 H   0  0  0  0  0  0  0  0  0  0  0  0
   -7.2786    5.0114   -4.7271 H   0  0  0  0  0  0  0  0  0  0  0  0
   -9.0449    4.6435   -6.1937 H   0  0  0  0  0  0  0  0  0  0  0  0
   -8.3012    3.0836   -6.7997 H   0  0  0  0  0  0  0  0  0  0  0  0
   -8.8283    2.9291   -3.9682 H   0  0  0  0  0  0  0  0  0  0  0  0
  -10.3271    3.3905   -4.9216 H   0  0  0  0  0  0  0  0  0  0  0  0
  -10.5579    1.1466   -5.0166 H   0  0  0  0  0  0  0  0  0  0  0  0
   -9.4569    1.3980   -6.4459 H   0  0  0  0  0  0  0  0  0  0  0  0
   -8.0171    1.0225   -3.9134 H   0  0  0  0  0  0  0  0  0  0  0  0
   -9.0609   -0.3919   -4.4051 H   0  0  0  0  0  0  0  0  0  0  0  0
   -7.4351   -1.0558   -5.7482 H   0  0  0  0  0  0  0  0  0  0  0  0
   -7.7373    0.4574   -6.7264 H   0  0  0  0  0  0  0  0  0  0  0  0
   -6.1323    1.4198   -4.7473 H   0  0  0  0  0  0  0  0  0  0  0  0
   -5.4847   -0.2573   -4.9517 H   0  0  0  0  0  0  0  0  0  0  0  0
   -5.5937    0.3104   -7.5187 H   0  0  0  0  0  0  0  0  0  0  0  0
   -5.6035    2.0222   -6.9330 H   0  0  0  0  0  0  0  0  0  0  0  0
   -3.5788    0.2703   -5.6550 H   0  0  0  0  0  0  0  0  0  0  0  0
   -3.3630    0.5757   -7.4436 H   0  0  0  0  0  0  0  0  0  0  0  0
   -2.2968    2.4353   -6.8644 H   0  0  0  0  0  0  0  0  0  0  0  0
   -3.9477    3.0657   -6.4061 H   0  0  0  0  0  0  0  0  0  0  0  0
   -2.7117    1.4846   -4.2858 H   0  0  0  0  0  0  0  0  0  0  0  0
   -1.7359    2.9514   -4.7853 H   0  0  0  0  0  0  0  0  0  0  0  0
   -3.0025    3.9811   -3.2496 H   0  0  0  0  0  0  0  0  0  0  0  0
   -4.1909    4.0179   -4.6452 H   0  0  0  0  0  0  0  0  0  0  0  0
   -5.4928    3.3632   -2.8779 H   0  0  0  0  0  0  0  0  0  0  0  0
   -4.9657    1.7844   -3.7030 H   0  0  0  0  0  0  0  0  0  0  0  0
  1  2  1  0
  2  3  1  0
  3  4  1  0
  4  5  1  0
  5  6  1  0
  6  7  1  0
  7  8  1  0
  8  9  1  0
  9 10  1  0
 10 11  1  0
 11 12  1  0
 12 13  1  0
 13 14  1  0
 14 15  1  0
 15 16  1  0
 16 17  2  0
 16 18  1  0
  1 19  1  0
  1 20  1  0
  1 21  1  0
  2 22  1  0
  2 23  1  0
  3 24  1  0
  3 25  1  0
  4 26  1  0
  4 27  1  0
  5 28  1  0
  5 29  1  0
  6 30  1  0
  6 31  1  0
  7 32  1  0
  7 33  1  0
  8 34  1  0
  8 35  1  0
  9 36  1  0
  9 37  1  0
 10 38  1  0
 10 39  1  0
 11 40  1  0
 11 41  1  0
 12 42  1  0
 12 43  1  0
 13 44  1  0
 13 45  1  0
 14 46  1  0
 14 47  1  0
 15 48  1  0
 15 49  1  0
M  CHG  1  18  -1
M  END
>  <meeko>  (9) 
{"is_sidechain": [false], "free_energy": -4.997, "intermolecular_energy": -9.318, "internal_energy": -2.122}

$$$$
