3b5r_ligand
     RDKit          3D

 41 42  0  0  0  0  0  0  0  0999 V2000
    4.6250   -9.1250   -6.8010 C   0  0  0  0  0  0  0  0  0  0  0  0
    3.8470   -9.1340   -5.4860 C   0  0  2  0  0  0  0  0  0  0  0  0
    4.8070   -8.9510   -4.4260 O   0  0  0  0  0  0  0  0  0  0  0  0
    3.0770  -10.4500   -5.2770 C   0  0  0  0  0  0  0  0  0  0  0  0
    3.0330  -10.7260   -3.8700 O   0  0  0  0  0  0  0  0  0  0  0  0
    1.9230  -10.3090   -3.1880 C   0  0  0  0  0  0  0  0  0  0  0  0
    2.1590   -9.2940   -2.2540 C   0  0  0  0  0  0  0  0  0  0  0  0
    1.1140   -8.7690   -1.4870 C   0  0  0  0  0  0  0  0  0  0  0  0
   -0.1770   -9.2630   -1.6560 C   0  0  0  0  0  0  0  0  0  0  0  0
   -1.4630   -8.6170   -0.7130 Cl  0  0  0  0  0  0  0  0  0  0  0  0
   -0.4120  -10.2730   -2.5870 C   0  0  0  0  0  0  0  0  0  0  0  0
   -1.6480  -10.7610   -2.7660 F   0  0  0  0  0  0  0  0  0  0  0  0
    0.6280  -10.7990   -3.3540 C   0  0  0  0  0  0  0  0  0  0  0  0
    2.8430   -7.9600   -5.4740 C   0  0  0  0  0  0  0  0  0  0  0  0
    3.2100   -6.7890   -5.4660 O   0  0  0  0  0  0  0  0  0  0  0  0
    1.5350   -8.4130   -5.4180 N   0  0  0  0  0  0  0  0  0  0  0  0
    0.3540   -7.6600   -5.3280 C   0  0  0  0  0  0  0  0  0  0  0  0
   -0.4580   -7.6090   -6.4640 C   0  0  0  0  0  0  0  0  0  0  0  0
   -1.6520   -6.8840   -6.4540 C   0  0  0  0  0  0  0  0  0  0  0  0
   -2.0550   -6.1980   -5.3020 C   0  0  0  0  0  0  0  0  0  0  0  0
   -3.2900   -5.4640   -5.3370 C   0  0  0  0  0  0  0  0  0  0  0  0
   -4.2890   -4.8770   -5.3760 N   0  0  0  0  0  0  0  0  0  0  0  0
   -1.2530   -6.2420   -4.1490 C   0  0  0  0  0  0  0  0  0  0  0  0
   -1.6660   -5.5160   -2.8910 C   0  0  0  0  0  0  0  0  0  0  0  0
   -2.6400   -6.1540   -2.1860 F   0  0  0  0  0  0  0  0  0  0  0  0
   -0.6300   -5.3520   -2.0250 F   0  0  0  0  0  0  0  0  0  0  0  0
   -2.1520   -4.2720   -3.1480 F   0  0  0  0  0  0  0  0  0  0  0  0
   -0.0510   -6.9800   -4.1770 C   0  0  0  0  0  0  0  0  0  0  0  0
    5.7042   -9.1125   -6.5885 H   0  0  0  0  0  0  0  0  0  0  0  0
    4.3758  -10.0261   -7.3806 H   0  0  0  0  0  0  0  0  0  0  0  0
    4.3551   -8.2299   -7.3806 H   0  0  0  0  0  0  0  0  0  0  0  0
    4.2840   -8.9140   -3.5980 H   0  0  0  0  0  0  0  0  0  0  0  0
    2.0541  -10.3489   -5.6686 H   0  0  0  0  0  0  0  0  0  0  0  0
    3.5782  -11.2717   -5.8095 H   0  0  0  0  0  0  0  0  0  0  0  0
    3.1791   -8.9043   -2.1214 H   0  0  0  0  0  0  0  0  0  0  0  0
    1.3105   -7.9714   -0.7554 H   0  0  0  0  0  0  0  0  0  0  0  0
    0.4276  -11.5957   -4.0855 H   0  0  0  0  0  0  0  0  0  0  0  0
    1.4490   -9.4190   -5.5620 H   0  0  0  0  0  0  0  0  0  0  0  0
   -0.1540   -8.1451   -7.3752 H   0  0  0  0  0  0  0  0  0  0  0  0
   -2.2795   -6.8519   -7.3569 H   0  0  0  0  0  0  0  0  0  0  0  0
    0.5788   -7.0207   -3.2760 H   0  0  0  0  0  0  0  0  0  0  0  0
  1  2  1  0
  2  3  1  1
  2  4  1  0
  4  5  1  0
  5  6  1  0
  6  7  2  0
  7  8  1  0
  8  9  2  0
  9 10  1  0
  9 11  1  0
 11 12  1  0
 11 13  2  0
  2 14  1  0
 14 15  2  0
 14 16  1  0
 16 17  1  0
 17 18  2  0
 18 19  1  0
 19 20  2  0
 20 21  1  0
 21 22  3  0
 20 23  1  0
 23 24  1  0
 24 25  1  0
 24 26  1  0
 24 27  1  0
 23 28  2  0
 13  6  1  0
 28 17  1  0
  1 29  1  0
  1 30  1  0
  1 31  1  0
  3 32  1  0
  4 33  1  0
  4 34  1  0
  7 35  1  0
  8 36  1  0
 13 37  1  0
 16 38  1  0
 18 39  1  0
 19 40  1  0
 28 41  1  0
M  END
>  <meeko>  (1) 
{"is_sidechain": [false], "free_energy": -5.857, "intermolecular_energy": -8.083, "internal_energy": -0.785}

$$$$
3b5r_ligand
     RDKit          3D

 41 42  0  0  0  0  0  0  0  0999 V2000
    0.9740  -13.4030   -3.5560 C   0  0  0  0  0  0  0  0  0  0  0  0
    1.6290  -12.0830   -3.9550 C   0  0  2  0  0  0  0  0  0  0  0  0
    1.7210  -12.0740   -5.3940 O   0  0  0  0  0  0  0  0  0  0  0  0
    3.0300  -11.9200   -3.3380 C   0  0  0  0  0  0  0  0  0  0  0  0
    3.9060  -11.3920   -4.3440 O   0  0  0  0  0  0  0  0  0  0  0  0
    3.6630  -10.1160   -4.7720 C   0  0  0  0  0  0  0  0  0  0  0  0
    3.4370   -9.1910   -3.7460 C   0  0  0  0  0  0  0  0  0  0  0  0
    3.1790   -7.8470   -4.0370 C   0  0  0  0  0  0  0  0  0  0  0  0
    3.1470   -7.4260   -5.3640 C   0  0  0  0  0  0  0  0  0  0  0  0
    2.8300   -5.7730   -5.7230 Cl  0  0  0  0  0  0  0  0  0  0  0  0
    3.3730   -8.3470   -6.3850 C   0  0  0  0  0  0  0  0  0  0  0  0
    3.3490   -7.9610   -7.6690 F   0  0  0  0  0  0  0  0  0  0  0  0
    3.6310   -9.6880   -6.0980 C   0  0  0  0  0  0  0  0  0  0  0  0
    0.7420  -10.9070   -3.4930 C   0  0  0  0  0  0  0  0  0  0  0  0
    0.1910  -10.8980   -2.3960 O   0  0  0  0  0  0  0  0  0  0  0  0
    0.6240   -9.9420   -4.4810 N   0  0  0  0  0  0  0  0  0  0  0  0
   -0.1430   -8.7660   -4.4650 C   0  0  0  0  0  0  0  0  0  0  0  0
   -0.5960   -8.2830   -5.6950 C   0  0  0  0  0  0  0  0  0  0  0  0
   -1.3680   -7.1200   -5.7630 C   0  0  0  0  0  0  0  0  0  0  0  0
   -1.7010   -6.4220   -4.5970 C   0  0  0  0  0  0  0  0  0  0  0  0
   -2.4960   -5.2300   -4.7140 C   0  0  0  0  0  0  0  0  0  0  0  0
   -3.1390   -4.2710   -4.8210 N   0  0  0  0  0  0  0  0  0  0  0  0
   -1.2580   -6.8950   -3.3500 C   0  0  0  0  0  0  0  0  0  0  0  0
   -1.6070   -6.1650   -2.0760 C   0  0  0  0  0  0  0  0  0  0  0  0
   -2.9200   -5.8150   -1.9890 F   0  0  0  0  0  0  0  0  0  0  0  0
   -1.3480   -6.9080   -0.9670 F   0  0  0  0  0  0  0  0  0  0  0  0
   -0.9070   -5.0070   -1.9350 F   0  0  0  0  0  0  0  0  0  0  0  0
   -0.4800   -8.0710   -3.3010 C   0  0  0  0  0  0  0  0  0  0  0  0
    0.9372  -13.4772   -2.4591 H   0  0  0  0  0  0  0  0  0  0  0  0
   -0.0481  -13.4422   -3.9607 H   0  0  0  0  0  0  0  0  0  0  0  0
    1.5610  -14.2407   -3.9607 H   0  0  0  0  0  0  0  0  0  0  0  0
    0.9270  -11.5940   -5.7080 H   0  0  0  0  0  0  0  0  0  0  0  0
    2.9826  -11.2270   -2.4850 H   0  0  0  0  0  0  0  0  0  0  0  0
    3.4031  -12.8917   -2.9823 H   0  0  0  0  0  0  0  0  0  0  0  0
    3.4626   -9.5248   -2.6982 H   0  0  0  0  0  0  0  0  0  0  0  0
    3.0027   -7.1280   -3.2234 H   0  0  0  0  0  0  0  0  0  0  0  0
    3.8082  -10.4038   -6.9143 H   0  0  0  0  0  0  0  0  0  0  0  0
    1.2630  -10.0830   -5.2620 H   0  0  0  0  0  0  0  0  0  0  0  0
   -0.3426   -8.8233   -6.6190 H   0  0  0  0  0  0  0  0  0  0  0  0
   -1.7159   -6.7511   -6.7392 H   0  0  0  0  0  0  0  0  0  0  0  0
   -0.1322   -8.4477   -2.3278 H   0  0  0  0  0  0  0  0  0  0  0  0
  1  2  1  0
  2  3  1  6
  2  4  1  0
  4  5  1  0
  5  6  1  0
  6  7  2  0
  7  8  1  0
  8  9  2  0
  9 10  1  0
  9 11  1  0
 11 12  1  0
 11 13  2  0
  2 14  1  0
 14 15  2  0
 14 16  1  0
 16 17  1  0
 17 18  2  0
 18 19  1  0
 19 20  2  0
 20 21  1  0
 21 22  3  0
 20 23  1  0
 23 24  1  0
 24 25  1  0
 24 26  1  0
 24 27  1  0
 23 28  2  0
 13  6  1  0
 28 17  1  0
  1 29  1  0
  1 30  1  0
  1 31  1  0
  3 32  1  0
  4 33  1  0
  4 34  1  0
  7 35  1  0
  8 36  1  0
 13 37  1  0
 16 38  1  0
 18 39  1  0
 19 40  1  0
 28 41  1  0
M  END
>  <meeko>  (2) 
{"is_sidechain": [false], "free_energy": -4.578, "intermolecular_energy": -8.035, "internal_energy": 0.933}

$$$$
3b5r_ligand
     RDKit          3D

 41 42  0  0  0  0  0  0  0  0999 V2000
    2.6820  -10.2880   -0.9200 C   0  0  0  0  0  0  0  0  0  0  0  0
    1.6920  -11.2660   -1.5510 C   0  0  2  0  0  0  0  0  0  0  0  0
    1.2010  -12.1130   -0.4920 O   0  0  0  0  0  0  0  0  0  0  0  0
    2.3440  -12.1220   -2.6510 C   0  0  0  0  0  0  0  0  0  0  0  0
    1.8590  -11.6640   -3.9220 O   0  0  0  0  0  0  0  0  0  0  0  0
    2.4160  -10.5210   -4.4250 C   0  0  0  0  0  0  0  0  0  0  0  0
    1.6110   -9.8350   -5.3420 C   0  0  0  0  0  0  0  0  0  0  0  0
    2.0520   -8.6480   -5.9340 C   0  0  0  0  0  0  0  0  0  0  0  0
    3.3080   -8.1420   -5.6070 C   0  0  0  0  0  0  0  0  0  0  0  0
    3.8510   -6.6810   -6.3360 Cl  0  0  0  0  0  0  0  0  0  0  0  0
    4.1090   -8.8250   -4.6940 C   0  0  0  0  0  0  0  0  0  0  0  0
    5.3210   -8.3540   -4.3640 F   0  0  0  0  0  0  0  0  0  0  0  0
    3.6720  -10.0100   -4.1010 C   0  0  0  0  0  0  0  0  0  0  0  0
    0.5120  -10.4800   -2.1640 C   0  0  0  0  0  0  0  0  0  0  0  0
   -0.4870  -11.0420   -2.6020 O   0  0  0  0  0  0  0  0  0  0  0  0
    0.7700   -9.1190   -2.1920 N   0  0  0  0  0  0  0  0  0  0  0  0
   -0.0240   -8.0910   -2.7260 C   0  0  0  0  0  0  0  0  0  0  0  0
   -0.5010   -7.1250   -1.8360 C   0  0  0  0  0  0  0  0  0  0  0  0
   -1.2930   -6.0680   -2.2900 C   0  0  0  0  0  0  0  0  0  0  0  0
   -1.6210   -5.9600   -3.6470 C   0  0  0  0  0  0  0  0  0  0  0  0
   -2.4400   -4.8570   -4.0690 C   0  0  0  0  0  0  0  0  0  0  0  0
   -3.1000   -3.9630   -4.3980 N   0  0  0  0  0  0  0  0  0  0  0  0
   -1.1470   -6.9200   -4.5570 C   0  0  0  0  0  0  0  0  0  0  0  0
   -1.4800   -6.8250   -6.0260 C   0  0  0  0  0  0  0  0  0  0  0  0
   -0.6760   -5.9690   -6.7150 F   0  0  0  0  0  0  0  0  0  0  0  0
   -1.3730   -8.0240   -6.6590 F   0  0  0  0  0  0  0  0  0  0  0  0
   -2.7510   -6.3890   -6.2400 F   0  0  0  0  0  0  0  0  0  0  0  0
   -0.3470   -7.9800   -4.0800 C   0  0  0  0  0  0  0  0  0  0  0  0
    2.6149  -10.3543    0.1759 H   0  0  0  0  0  0  0  0  0  0  0  0
    3.7031  -10.5418   -1.2408 H   0  0  0  0  0  0  0  0  0  0  0  0
    2.4407   -9.2639   -1.2408 H   0  0  0  0  0  0  0  0  0  0  0  0
    1.6570  -12.9720   -0.6070 H   0  0  0  0  0  0  0  0  0  0  0  0
    3.4378  -12.0130   -2.6085 H   0  0  0  0  0  0  0  0  0  0  0  0
    2.0907  -13.1827   -2.5074 H   0  0  0  0  0  0  0  0  0  0  0  0
    0.6193  -10.2349   -5.5999 H   0  0  0  0  0  0  0  0  0  0  0  0
    1.4114   -8.1169   -6.6534 H   0  0  0  0  0  0  0  0  0  0  0  0
    4.3151  -10.5382   -3.3817 H   0  0  0  0  0  0  0  0  0  0  0  0
    1.6000   -8.8540   -1.6630 H   0  0  0  0  0  0  0  0  0  0  0  0
   -0.2503   -7.1978   -0.7674 H   0  0  0  0  0  0  0  0  0  0  0  0
   -1.6614   -5.3156   -1.5771 H   0  0  0  0  0  0  0  0  0  0  0  0
    0.0293   -8.7330   -4.7881 H   0  0  0  0  0  0  0  0  0  0  0  0
  1  2  1  0
  2  3  1  1
  2  4  1  0
  4  5  1  0
  5  6  1  0
  6  7  2  0
  7  8  1  0
  8  9  2  0
  9 10  1  0
  9 11  1  0
 11 12  1  0
 11 13  2  0
  2 14  1  0
 14 15  2  0
 14 16  1  0
 16 17  1  0
 17 18  2  0
 18 19  1  0
 19 20  2  0
 20 21  1  0
 21 22  3  0
 20 23  1  0
 23 24  1  0
 24 25  1  0
 24 26  1  0
 24 27  1  0
 23 28  2  0
 13  6  1  0
 28 17  1  0
  1 29  1  0
  1 30  1  0
  1 31  1  0
  3 32  1  0
  4 33  1  0
  4 34  1  0
  7 35  1  0
  8 36  1  0
 13 37  1  0
 16 38  1  0
 18 39  1  0
 19 40  1  0
 28 41  1  0
M  END
>  <meeko>  (3) 
{"is_sidechain": [false], "free_energy": -4.014, "intermolecular_energy": -7.4, "internal_energy": 1.076}

$$$$
3b5r_ligand
     RDKit          3D

 41 42  0  0  0  0  0  0  0  0999 V2000
   -1.7840   -4.0550   -4.7100 C   0  0  0  0  0  0  0  0  0  0  0  0
   -2.5330   -5.3870   -4.7090 C   0  0  2  0  0  0  0  0  0  0  0  0
   -3.6460   -5.2460   -5.6140 O   0  0  0  0  0  0  0  0  0  0  0  0
   -3.0380   -5.7680   -3.3060 C   0  0  0  0  0  0  0  0  0  0  0  0
   -1.9490   -5.6250   -2.3830 O   0  0  0  0  0  0  0  0  0  0  0  0
   -1.2080   -6.7430   -2.1190 C   0  0  0  0  0  0  0  0  0  0  0  0
    0.1110   -6.4890   -1.7250 C   0  0  0  0  0  0  0  0  0  0  0  0
    0.9830   -7.5390   -1.4200 C   0  0  0  0  0  0  0  0  0  0  0  0
    0.5330   -8.8530   -1.5100 C   0  0  0  0  0  0  0  0  0  0  0  0
    1.6050  -10.1460   -1.1340 Cl  0  0  0  0  0  0  0  0  0  0  0  0
   -0.7800   -9.1070   -1.9000 C   0  0  0  0  0  0  0  0  0  0  0  0
   -1.2340  -10.3660   -1.9910 F   0  0  0  0  0  0  0  0  0  0  0  0
   -1.6530   -8.0620   -2.2050 C   0  0  0  0  0  0  0  0  0  0  0  0
   -1.5970   -6.5030   -5.2220 C   0  0  0  0  0  0  0  0  0  0  0  0
   -2.0180   -7.4670   -5.8550 O   0  0  0  0  0  0  0  0  0  0  0  0
   -0.2860   -6.2880   -4.8260 N   0  0  0  0  0  0  0  0  0  0  0  0
    0.8350   -7.1050   -5.0400 C   0  0  0  0  0  0  0  0  0  0  0  0
    1.9890   -6.4880   -5.5300 C   0  0  0  0  0  0  0  0  0  0  0  0
    3.1490   -7.2320   -5.7650 C   0  0  0  0  0  0  0  0  0  0  0  0
    3.1720   -8.6080   -5.5090 C   0  0  0  0  0  0  0  0  0  0  0  0
    4.3850   -9.3340   -5.7670 C   0  0  0  0  0  0  0  0  0  0  0  0
    5.3700   -9.9080   -5.9770 N   0  0  0  0  0  0  0  0  0  0  0  0
    2.0210   -9.2440   -5.0120 C   0  0  0  0  0  0  0  0  0  0  0  0
    2.0200  -10.7250   -4.7230 C   0  0  0  0  0  0  0  0  0  0  0  0
    3.0780  -11.1370   -3.9720 F   0  0  0  0  0  0  0  0  0  0  0  0
    0.9100  -11.1180   -4.0430 F   0  0  0  0  0  0  0  0  0  0  0  0
    2.0600  -11.4740   -5.8580 F   0  0  0  0  0  0  0  0  0  0  0  0
    0.8600   -8.4770   -4.7800 C   0  0  0  0  0  0  0  0  0  0  0  0
   -1.6040   -3.7348   -3.6731 H   0  0  0  0  0  0  0  0  0  0  0  0
   -0.8216   -4.1759   -5.2288 H   0  0  0  0  0  0  0  0  0  0  0  0
   -2.3873   -3.2955   -5.2288 H   0  0  0  0  0  0  0  0  0  0  0  0
   -4.2210   -4.5570   -5.2220 H   0  0  0  0  0  0  0  0  0  0  0  0
   -3.8634   -5.1022   -3.0139 H   0  0  0  0  0  0  0  0  0  0  0  0
   -3.4047   -6.8051   -3.3030 H   0  0  0  0  0  0  0  0  0  0  0  0
    0.4662   -5.4503   -1.6544 H   0  0  0  0  0  0  0  0  0  0  0  0
    2.0174   -7.3278   -1.1111 H   0  0  0  0  0  0  0  0  0  0  0  0
   -2.6871   -8.2775   -2.5118 H   0  0  0  0  0  0  0  0  0  0  0  0
   -0.1340   -5.3660   -4.4190 H   0  0  0  0  0  0  0  0  0  0  0  0
    1.9847   -5.4068   -5.7327 H   0  0  0  0  0  0  0  0  0  0  0  0
    4.0491   -6.7331   -6.1534 H   0  0  0  0  0  0  0  0  0  0  0  0
   -0.0422   -8.9686   -4.3871 H   0  0  0  0  0  0  0  0  0  0  0  0
  1  2  1  0
  2  3  1  6
  2  4  1  0
  4  5  1  0
  5  6  1  0
  6  7  2  0
  7  8  1  0
  8  9  2  0
  9 10  1  0
  9 11  1  0
 11 12  1  0
 11 13  2  0
  2 14  1  0
 14 15  2  0
 14 16  1  0
 16 17  1  0
 17 18  2  0
 18 19  1  0
 19 20  2  0
 20 21  1  0
 21 22  3  0
 20 23  1  0
 23 24  1  0
 24 25  1  0
 24 26  1  0
 24 27  1  0
 23 28  2  0
 13  6  1  0
 28 17  1  0
  1 29  1  0
  1 30  1  0
  1 31  1  0
  3 32  1  0
  4 33  1  0
  4 34  1  0
  7 35  1  0
  8 36  1  0
 13 37  1  0
 16 38  1  0
 18 39  1  0
 19 40  1  0
 28 41  1  0
M  END
>  <meeko>  (4) 
{"is_sidechain": [false], "free_energy": -3.908, "intermolecular_energy": -5.715, "internal_energy": -0.463}

$$$$
3b5r_ligand
     RDKit          3D

 41 42  0  0  0  0  0  0  0  0999 V2000
   -2.1780   -3.9490   -4.7120 C   0  0  0  0  0  0  0  0  0  0  0  0
   -2.2160   -5.3430   -4.0880 C   0  0  2  0  0  0  0  0  0  0  0  0
   -3.5810   -5.8010   -4.1610 O   0  0  0  0  0  0  0  0  0  0  0  0
   -1.7400   -5.3360   -2.6240 C   0  0  0  0  0  0  0  0  0  0  0  0
   -2.2070   -6.5380   -1.9950 O   0  0  0  0  0  0  0  0  0  0  0  0
   -1.3000   -7.5480   -1.8320 C   0  0  0  0  0  0  0  0  0  0  0  0
   -1.7910   -8.8250   -2.1250 C   0  0  0  0  0  0  0  0  0  0  0  0
   -0.9720   -9.9530   -2.0050 C   0  0  0  0  0  0  0  0  0  0  0  0
    0.3490   -9.8010   -1.5900 C   0  0  0  0  0  0  0  0  0  0  0  0
    1.3570  -11.1870   -1.4430 Cl  0  0  0  0  0  0  0  0  0  0  0  0
    0.8380   -8.5290   -1.3000 C   0  0  0  0  0  0  0  0  0  0  0  0
    2.1070   -8.3610   -0.9010 F   0  0  0  0  0  0  0  0  0  0  0  0
    0.0230   -7.4020   -1.4180 C   0  0  0  0  0  0  0  0  0  0  0  0
   -1.3130   -6.2960   -4.9010 C   0  0  0  0  0  0  0  0  0  0  0  0
   -1.7310   -6.9160   -5.8740 O   0  0  0  0  0  0  0  0  0  0  0  0
   -0.0430   -6.3800   -4.3540 N   0  0  0  0  0  0  0  0  0  0  0  0
    1.0320   -7.1840   -4.7660 C   0  0  0  0  0  0  0  0  0  0  0  0
    2.1290   -6.5350   -5.3400 C   0  0  0  0  0  0  0  0  0  0  0  0
    3.2410   -7.2640   -5.7720 C   0  0  0  0  0  0  0  0  0  0  0  0
    3.2730   -8.6570   -5.6320 C   0  0  0  0  0  0  0  0  0  0  0  0
    4.4360   -9.3660   -6.0910 C   0  0  0  0  0  0  0  0  0  0  0  0
    5.3800   -9.9270   -6.4640 N   0  0  0  0  0  0  0  0  0  0  0  0
    2.1800   -9.3240   -5.0530 C   0  0  0  0  0  0  0  0  0  0  0  0
    2.1910  -10.8250   -4.8860 C   0  0  0  0  0  0  0  0  0  0  0  0
    2.2660  -11.5050   -6.0630 F   0  0  0  0  0  0  0  0  0  0  0  0
    3.2450  -11.2550   -4.1430 F   0  0  0  0  0  0  0  0  0  0  0  0
    1.0700  -11.2840   -4.2660 F   0  0  0  0  0  0  0  0  0  0  0  0
    1.0670   -8.5730   -4.6230 C   0  0  0  0  0  0  0  0  0  0  0  0
   -2.1573   -3.1910   -3.9151 H   0  0  0  0  0  0  0  0  0  0  0  0
   -1.2768   -3.8506   -5.3351 H   0  0  0  0  0  0  0  0  0  0  0  0
   -3.0725   -3.8017   -5.3351 H   0  0  0  0  0  0  0  0  0  0  0  0
   -4.1320   -5.0390   -3.8880 H   0  0  0  0  0  0  0  0  0  0  0  0
   -0.6411   -5.3006   -2.5899 H   0  0  0  0  0  0  0  0  0  0  0  0
   -2.1366   -4.4540   -2.0997 H   0  0  0  0  0  0  0  0  0  0  0  0
   -2.8340   -8.9436   -2.4538 H   0  0  0  0  0  0  0  0  0  0  0  0
   -1.3684  -10.9526   -2.2367 H   0  0  0  0  0  0  0  0  0  0  0  0
    0.4226   -6.4039   -1.1855 H   0  0  0  0  0  0  0  0  0  0  0  0
    0.1310   -5.6880   -3.6270 H   0  0  0  0  0  0  0  0  0  0  0  0
    2.1172   -5.4409   -5.4528 H   0  0  0  0  0  0  0  0  0  0  0  0
    4.0959   -6.7402   -6.2246 H   0  0  0  0  0  0  0  0  0  0  0  0
    0.2104   -9.0905   -4.1665 H   0  0  0  0  0  0  0  0  0  0  0  0
  1  2  1  0
  2  3  1  1
  2  4  1  0
  4  5  1  0
  5  6  1  0
  6  7  2  0
  7  8  1  0
  8  9  2  0
  9 10  1  0
  9 11  1  0
 11 12  1  0
 11 13  2  0
  2 14  1  0
 14 15  2  0
 14 16  1  0
 16 17  1  0
 17 18  2  0
 18 19  1  0
 19 20  2  0
 20 21  1  0
 21 22  3  0
 20 23  1  0
 23 24  1  0
 24 25  1  0
 24 26  1  0
 24 27  1  0
 23 28  2  0
 13  6  1  0
 28 17  1  0
  1 29  1  0
  1 30  1  0
  1 31  1  0
  3 32  1  0
  4 33  1  0
  4 34  1  0
  7 35  1  0
  8 36  1  0
 13 37  1  0
 16 38  1  0
 18 39  1  0
 19 40  1  0
 28 41  1  0
M  END
>  <meeko>  (5) 
{"is_sidechain": [false], "free_energy": -3.23, "intermolecular_energy": -4.559, "internal_energy": -0.683}

$$$$
3b5r_ligand
     RDKit          3D

 41 42  0  0  0  0  0  0  0  0999 V2000
   -3.1320   -6.2030   -5.6540 C   0  0  0  0  0  0  0  0  0  0  0  0
   -1.8000   -5.7170   -5.0860 C   0  0  2  0  0  0  0  0  0  0  0  0
   -1.9950   -4.3530   -4.6600 O   0  0  0  0  0  0  0  0  0  0  0  0
   -0.6670   -5.7860   -6.1260 C   0  0  0  0  0  0  0  0  0  0  0  0
    0.5640   -5.4460   -5.4710 O   0  0  0  0  0  0  0  0  0  0  0  0
    1.5270   -6.4140   -5.4160 C   0  0  0  0  0  0  0  0  0  0  0  0
    2.0420   -6.6520   -4.1370 C   0  0  0  0  0  0  0  0  0  0  0  0
    3.0320   -7.6190   -3.9310 C   0  0  0  0  0  0  0  0  0  0  0  0
    3.5100   -8.3530   -5.0140 C   0  0  0  0  0  0  0  0  0  0  0  0
    4.7280   -9.5420   -4.7610 Cl  0  0  0  0  0  0  0  0  0  0  0  0
    2.9970   -8.1170   -6.2870 C   0  0  0  0  0  0  0  0  0  0  0  0
    3.4430   -8.8140   -7.3420 F   0  0  0  0  0  0  0  0  0  0  0  0
    2.0090   -7.1530   -6.4960 C   0  0  0  0  0  0  0  0  0  0  0  0
   -1.4130   -6.5820   -3.8680 C   0  0  0  0  0  0  0  0  0  0  0  0
   -1.6210   -6.2150   -2.7150 O   0  0  0  0  0  0  0  0  0  0  0  0
   -0.7760   -7.7490   -4.2570 N   0  0  0  0  0  0  0  0  0  0  0  0
   -0.2220   -8.7530   -3.4470 C   0  0  0  0  0  0  0  0  0  0  0  0
   -0.2810   -8.5610   -2.0640 C   0  0  0  0  0  0  0  0  0  0  0  0
    0.2450   -9.5160   -1.1900 C   0  0  0  0  0  0  0  0  0  0  0  0
    0.8380  -10.6830   -1.6880 C   0  0  0  0  0  0  0  0  0  0  0  0
    1.3670  -11.6370   -0.7530 C   0  0  0  0  0  0  0  0  0  0  0  0
    1.7880  -12.4000    0.0120 N   0  0  0  0  0  0  0  0  0  0  0  0
    0.9020  -10.8940   -3.0760 C   0  0  0  0  0  0  0  0  0  0  0  0
    1.5310  -12.1450   -3.6400 C   0  0  0  0  0  0  0  0  0  0  0  0
    2.8030  -12.3620   -3.2040 F   0  0  0  0  0  0  0  0  0  0  0  0
    0.8330  -13.2660   -3.3150 F   0  0  0  0  0  0  0  0  0  0  0  0
    1.6060  -12.1190   -4.9980 F   0  0  0  0  0  0  0  0  0  0  0  0
    0.3660   -9.9190   -3.9430 C   0  0  0  0  0  0  0  0  0  0  0  0
   -3.8140   -6.4519   -4.8276 H   0  0  0  0  0  0  0  0  0  0  0  0
   -3.5785   -5.4098   -6.2717 H   0  0  0  0  0  0  0  0  0  0  0  0
   -2.9628   -7.0973   -6.2717 H   0  0  0  0  0  0  0  0  0  0  0  0
   -2.6870   -4.3880   -3.9670 H   0  0  0  0  0  0  0  0  0  0  0  0
   -0.6010   -6.8039   -6.5378 H   0  0  0  0  0  0  0  0  0  0  0  0
   -0.8649   -5.0854   -6.9506 H   0  0  0  0  0  0  0  0  0  0  0  0
    1.6638   -6.0715   -3.2826 H   0  0  0  0  0  0  0  0  0  0  0  0
    3.4299   -7.7983   -2.9213 H   0  0  0  0  0  0  0  0  0  0  0  0
    1.6129   -6.9773   -7.5071 H   0  0  0  0  0  0  0  0  0  0  0  0
   -0.8200   -7.9180   -5.2620 H   0  0  0  0  0  0  0  0  0  0  0  0
   -0.7458   -7.6497   -1.6597 H   0  0  0  0  0  0  0  0  0  0  0  0
    0.1930   -9.3501   -0.1038 H   0  0  0  0  0  0  0  0  0  0  0  0
    0.4119  -10.0799   -5.0302 H   0  0  0  0  0  0  0  0  0  0  0  0
  1  2  1  0
  2  3  1  1
  2  4  1  0
  4  5  1  0
  5  6  1  0
  6  7  2  0
  7  8  1  0
  8  9  2  0
  9 10  1  0
  9 11  1  0
 11 12  1  0
 11 13  2  0
  2 14  1  0
 14 15  2  0
 14 16  1  0
 16 17  1  0
 17 18  2  0
 18 19  1  0
 19 20  2  0
 20 21  1  0
 21 22  3  0
 20 23  1  0
 23 24  1  0
 24 25  1  0
 24 26  1  0
 24 27  1  0
 23 28  2  0
 13  6  1  0
 28 17  1  0
  1 29  1  0
  1 30  1  0
  1 31  1  0
  3 32  1  0
  4 33  1  0
  4 34  1  0
  7 35  1  0
  8 36  1  0
 13 37  1  0
 16 38  1  0
 18 39  1  0
 19 40  1  0
 28 41  1  0
M  END
>  <meeko>  (6) 
{"is_sidechain": [false], "free_energy": -2.944, "intermolecular_energy": -5.057, "internal_energy": 0.209}

$$$$
