
     RDKit          3D

 12 12  0  0  0  0  0  0  0  0999 V2000
   12.7840   -1.8800   -2.0620 C   0  0  0  0  0  0  0  0  0  0  0  0
   12.0700   -3.1830   -2.2750 C   0  0  0  0  0  0  0  0  0  0  0  0
   12.1950   -3.8160   -3.3030 O   0  0  0  0  0  0  0  0  0  0  0  0
   11.3050   -3.6290   -1.2590 N   0  0  0  0  0  0  0  0  0  0  0  0
   10.5590   -4.8050   -1.2400 C   0  0  0  0  0  0  0  0  0  0  0  0
   10.9460   -5.9880   -1.8650 C   0  0  0  0  0  0  0  0  0  0  0  0
   10.0700   -7.0240   -1.7090 C   0  0  0  0  0  0  0  0  0  0  0  0
    8.7290   -6.5380   -0.7470 S   0  0  0  0  0  0  0  0  0  0  0  0
    9.3510   -4.9330   -0.5790 C   0  0  0  0  0  0  0  0  0  0  0  0
    8.6030   -3.9030    0.1980 C   0  0  0  0  0  0  0  0  0  0  0  0
    7.5910   -4.2560    0.8170 O   0  0  0  0  0  0  0  0  0  0  0  0
    9.0080   -2.7460    0.1760 O   0  0  0  0  0  0  0  0  0  0  0  0
  2  1  1  0
  3  2  2  0
  4  2  1  0
  5  4  1  0
  6  5  1  0
  7  6  2  0
  8  7  1  0
  9  8  1  0
  9  5  2  0
 10  9  1  0
 11 10  2  0
 12 10  1  0
M  CHG  1  12  -1
M  END
$$$$
