
     RDKit          3D

 17 17  0  0  0  0  0  0  0  0999 V2000
    6.2840   -0.1290  -10.5060 O   0  0  0  0  0  0  0  0  0  0  0  0
    7.0760    0.8010  -10.4760 C   0  0  0  0  0  0  0  0  0  0  0  0
    8.0490    0.9290  -11.2190 O   0  0  0  0  0  0  0  0  0  0  0  0
    6.8470    1.9160   -9.4650 C   0  0  0  0  0  0  0  0  0  0  0  0
    5.8150    1.6180   -8.4110 C   0  0  0  0  0  0  0  0  0  0  0  0
    4.9260    2.4120   -8.1430 O   0  0  0  0  0  0  0  0  0  0  0  0
    5.9050    0.4280   -7.7610 N   0  0  0  0  0  0  0  0  0  0  0  0
    4.9540    0.0150   -6.7350 C   0  0  1  0  0  0  0  0  0  0  0  0
    4.3110   -1.3070   -7.1290 C   0  0  0  0  0  0  0  0  0  0  0  0
    2.9310   -1.0330   -8.2510 S   0  0  0  0  0  0  0  0  0  0  0  0
    5.6880   -0.1860   -5.4050 C   0  0  0  0  0  0  0  0  0  0  0  0
    6.0880    1.1330   -4.8020 C   0  0  0  0  0  0  0  0  0  0  0  0
    7.4160    1.5080   -4.8240 C   0  0  0  0  0  0  0  0  0  0  0  0
    7.7940    2.7380   -4.2890 C   0  0  0  0  0  0  0  0  0  0  0  0
    6.8380    3.5890   -3.7290 C   0  0  0  0  0  0  0  0  0  0  0  0
    5.4970    3.1920   -3.7020 C   0  0  0  0  0  0  0  0  0  0  0  0
    5.1270    1.9520   -4.2320 C   0  0  0  0  0  0  0  0  0  0  0  0
  2  1  2  0
  3  2  1  0
  4  2  1  0
  5  4  1  0
  6  5  2  0
  7  5  1  0
  8  7  1  0
  8  9  1  6
 10  9  1  0
 11  8  1  0
 12 11  1  0
 13 12  2  0
 14 13  1  0
 15 14  2  0
 16 15  1  0
 17 16  2  0
 17 12  1  0
M  CHG  1   3  -1
M  END
$$$$
