
     RDKit          3D

 16 18  0  0  0  0  0  0  0  0999 V2000
    9.9870   -1.5260  -15.7670 C   0  0  0  0  0  0  0  0  0  0  0  0
    9.5980   -0.8080  -14.5680 N   0  0  0  0  0  0  0  0  0  0  0  0
    8.3340   -0.7330  -14.1420 N   0  0  0  0  0  0  0  0  0  0  0  0
    8.3400    0.0120  -12.9970 C   0  0  0  0  0  0  0  0  0  0  0  0
    7.1590    0.3250  -12.2050 C   0  0  0  0  0  0  0  0  0  0  0  0
    7.2690    0.5980  -10.8210 C   0  0  0  0  0  0  0  0  0  0  0  0
    6.1430    0.8720  -10.0740 C   0  0  0  0  0  0  0  0  0  0  0  0
    4.9140    0.8870  -10.6730 C   0  0  0  0  0  0  0  0  0  0  0  0
    4.7830    0.6340  -12.0280 C   0  0  0  0  0  0  0  0  0  0  0  0
    5.8990    0.3510  -12.8020 C   0  0  0  0  0  0  0  0  0  0  0  0
    3.4810    0.7080  -12.3910 O   0  0  0  0  0  0  0  0  0  0  0  0
    2.7480    1.0190  -11.2170 C   0  0  0  0  0  0  0  0  0  0  0  0
    3.6780    1.1370  -10.1480 O   0  0  0  0  0  0  0  0  0  0  0  0
    9.6420    0.4130  -12.7070 C   0  0  0  0  0  0  0  0  0  0  0  0
   10.4200   -0.1130  -13.7230 C   0  0  0  0  0  0  0  0  0  0  0  0
   11.7660    0.0020  -13.8950 N   0  0  0  0  0  0  0  0  0  0  0  0
  2  1  1  0
  3  2  1  0
  4  3  2  0
  5  4  1  0
  6  5  2  0
  7  6  1  0
  8  7  2  0
  9  8  1  0
 10  9  2  0
 10  5  1  0
 11  9  1  0
 12 11  1  0
 13 12  1  0
 13  8  1  0
 14  4  1  0
 15 14  2  0
 15  2  1  0
 16 15  1  0
M  END
$$$$
