2yfe_ligand
     RDKit          3D

 48 49  0  0  0  0  0  0  0  0999 V2000
   -0.5750    9.6800   10.0370 C   0  0  0  0  0  0  0  0  0  0  0  0
    0.1390    8.6000   10.6370 O   0  0  0  0  0  0  0  0  0  0  0  0
   -0.4850    7.4070   10.3640 C   0  0  0  0  0  0  0  0  0  0  0  0
   -1.0820    7.2120    9.1180 C   0  0  0  0  0  0  0  0  0  0  0  0
   -1.7340    6.0050    8.7940 C   0  0  0  0  0  0  0  0  0  0  0  0
   -2.3600    5.9200    7.4160 C   0  0  0  0  0  0  0  0  0  0  0  0
   -1.4280    6.4570    6.3250 C   0  0  0  0  0  0  0  0  0  0  0  0
   -0.3810    5.4420    5.9280 C   0  0  0  0  0  0  0  0  0  0  0  0
    0.9100    5.8390    5.5580 C   0  0  0  0  0  0  0  0  0  0  0  0
    1.8600    4.8860    5.1840 C   0  0  0  0  0  0  0  0  0  0  0  0
    1.5250    3.5320    5.1720 C   0  0  0  0  0  0  0  0  0  0  0  0
    0.2410    3.1290    5.5350 C   0  0  0  0  0  0  0  0  0  0  0  0
   -0.7080    4.0800    5.9100 C   0  0  0  0  0  0  0  0  0  0  0  0
   -1.7620    4.9520    9.7440 C   0  0  0  0  0  0  0  0  0  0  0  0
   -2.4260    3.5990    9.4900 C   0  0  0  0  0  0  0  0  0  0  0  0
   -1.8440    2.7370    8.7650 O   0  0  0  0  0  0  0  0  0  0  0  0
   -3.5550    3.4230   10.0630 O   0  0  0  0  0  0  0  0  0  0  0  0
   -1.1270    5.1820   10.9960 C   0  0  0  0  0  0  0  0  0  0  0  0
   -1.1350    4.2120   11.9780 O   0  0  0  0  0  0  0  0  0  0  0  0
   -0.4690    6.3850   11.3150 C   0  0  0  0  0  0  0  0  0  0  0  0
    0.1980    6.5800   12.6580 C   0  0  0  0  0  0  0  0  0  0  0  0
    1.5690    5.9510   12.7200 C   0  0  0  0  0  0  0  0  0  0  0  0
    2.7460    6.5170   13.0520 C   0  0  0  0  0  0  0  0  0  0  0  0
    2.9360    7.9520   13.4570 C   0  0  0  0  0  0  0  0  0  0  0  0
    4.0120    5.7010   13.0420 C   0  0  0  0  0  0  0  0  0  0  0  0
   -0.9990   10.3213   10.8238 H   0  0  0  0  0  0  0  0  0  0  0  0
    0.1110   10.2709    9.4123 H   0  0  0  0  0  0  0  0  0  0  0  0
   -1.3874    9.2803    9.4123 H   0  0  0  0  0  0  0  0  0  0  0  0
   -1.0429    8.0188    8.3713 H   0  0  0  0  0  0  0  0  0  0  0  0
   -2.5932    4.8676    7.1968 H   0  0  0  0  0  0  0  0  0  0  0  0
   -3.2697    6.5384    7.4187 H   0  0  0  0  0  0  0  0  0  0  0  0
   -2.0280    6.7138    5.4395 H   0  0  0  0  0  0  0  0  0  0  0  0
   -0.9107    7.3420    6.7240 H   0  0  0  0  0  0  0  0  0  0  0  0
    1.1770    6.9061    5.5620 H   0  0  0  0  0  0  0  0  0  0  0  0
    2.8737    5.2036    4.8985 H   0  0  0  0  0  0  0  0  0  0  0  0
    2.2739    2.7825    4.8762 H   0  0  0  0  0  0  0  0  0  0  0  0
   -0.0238    2.0614    5.5257 H   0  0  0  0  0  0  0  0  0  0  0  0
   -1.7208    3.7580    6.1937 H   0  0  0  0  0  0  0  0  0  0  0  0
   -1.7780    4.5300   12.6700 H   0  0  0  0  0  0  0  0  0  0  0  0
    0.2959    7.6587   12.8498 H   0  0  0  0  0  0  0  0  0  0  0  0
   -0.4292    6.0893   13.4168 H   0  0  0  0  0  0  0  0  0  0  0  0
    1.6133    4.8836   12.4581 H   0  0  0  0  0  0  0  0  0  0  0  0
    2.9457    8.0250   14.5545 H   0  0  0  0  0  0  0  0  0  0  0  0
    3.8911    8.3227   13.0564 H   0  0  0  0  0  0  0  0  0  0  0  0
    2.1103    8.5585   13.0564 H   0  0  0  0  0  0  0  0  0  0  0  0
    4.3260    5.4986   14.0766 H   0  0  0  0  0  0  0  0  0  0  0  0
    3.8307    4.7493   12.5210 H   0  0  0  0  0  0  0  0  0  0  0  0
    4.8039    6.2591   12.5210 H   0  0  0  0  0  0  0  0  0  0  0  0
  1  2  1  0
  2  3  1  0
  3  4  2  0
  4  5  1  0
  5  6  1  0
  6  7  1  0
  7  8  1  0
  8  9  2  0
  9 10  1  0
 10 11  2  0
 11 12  1  0
 12 13  2  0
  5 14  2  0
 14 15  1  0
 15 16  2  0
 15 17  1  0
 14 18  1  0
 18 19  1  0
 18 20  2  0
 20 21  1  0
 21 22  1  0
 22 23  2  3
 23 24  1  0
 23 25  1  0
 20  3  1  0
 13  8  1  0
  1 26  1  0
  1 27  1  0
  1 28  1  0
  4 29  1  0
  6 30  1  0
  6 31  1  0
  7 32  1  0
  7 33  1  0
  9 34  1  0
 10 35  1  0
 11 36  1  0
 12 37  1  0
 13 38  1  0
 19 39  1  0
 21 40  1  0
 21 41  1  0
 22 42  1  0
 24 43  1  0
 24 44  1  0
 24 45  1  0
 25 46  1  0
 25 47  1  0
 25 48  1  0
M  CHG  1  17  -1
M  END
>  <meeko>  (1) 
{"is_sidechain": [false], "free_energy": -7.793, "intermolecular_energy": -11.21, "internal_energy": -1.572}

$$$$
2yfe_ligand
     RDKit          3D

 48 49  0  0  0  0  0  0  0  0999 V2000
   -3.0740    9.0970    6.1030 C   0  0  0  0  0  0  0  0  0  0  0  0
   -2.1020    8.5980    7.0220 O   0  0  0  0  0  0  0  0  0  0  0  0
   -1.4920    7.4800    6.5090 C   0  0  0  0  0  0  0  0  0  0  0  0
   -0.6880    7.5940    5.3740 C   0  0  0  0  0  0  0  0  0  0  0  0
   -0.0420    6.4730    4.8140 C   0  0  0  0  0  0  0  0  0  0  0  0
    0.7900    6.7210    3.5710 C   0  0  0  0  0  0  0  0  0  0  0  0
    0.3720    8.0020    2.8430 C   0  0  0  0  0  0  0  0  0  0  0  0
    1.4600    9.0500    2.8750 C   0  0  0  0  0  0  0  0  0  0  0  0
    1.1540   10.4150    2.8410 C   0  0  0  0  0  0  0  0  0  0  0  0
    2.1750   11.3680    2.8600 C   0  0  0  0  0  0  0  0  0  0  0  0
    3.5090   10.9620    2.9090 C   0  0  0  0  0  0  0  0  0  0  0  0
    3.8230    9.6050    2.9380 C   0  0  0  0  0  0  0  0  0  0  0  0
    2.8040    8.6520    2.9200 C   0  0  0  0  0  0  0  0  0  0  0  0
   -0.1890    5.2040    5.4290 C   0  0  0  0  0  0  0  0  0  0  0  0
    0.4790    3.9300    4.9140 C   0  0  0  0  0  0  0  0  0  0  0  0
    1.7030    3.7130    5.1640 O   0  0  0  0  0  0  0  0  0  0  0  0
   -0.2790    3.1370    4.2570 O   0  0  0  0  0  0  0  0  0  0  0  0
   -1.0020    5.1310    6.5940 C   0  0  0  0  0  0  0  0  0  0  0  0
   -1.2100    3.9250    7.2330 O   0  0  0  0  0  0  0  0  0  0  0  0
   -1.6400    6.2530    7.1580 C   0  0  0  0  0  0  0  0  0  0  0  0
   -2.4890    6.1260    8.4030 C   0  0  0  0  0  0  0  0  0  0  0  0
   -1.6700    5.8270    9.6350 C   0  0  0  0  0  0  0  0  0  0  0  0
   -0.9670    6.6750   10.4110 C   0  0  0  0  0  0  0  0  0  0  0  0
   -0.8630    8.1600   10.2010 C   0  0  0  0  0  0  0  0  0  0  0  0
   -0.2050    6.1620   11.6030 C   0  0  0  0  0  0  0  0  0  0  0  0
   -3.9175    9.5300    6.6607 H   0  0  0  0  0  0  0  0  0  0  0  0
   -2.6165    9.8717    5.4701 H   0  0  0  0  0  0  0  0  0  0  0  0
   -3.4369    8.2737    5.4701 H   0  0  0  0  0  0  0  0  0  0  0  0
   -0.5554    8.5805    4.9059 H   0  0  0  0  0  0  0  0  0  0  0  0
    1.8469    6.8081    3.8633 H   0  0  0  0  0  0  0  0  0  0  0  0
    0.6336    5.8755    2.8849 H   0  0  0  0  0  0  0  0  0  0  0  0
    0.1450    7.7572    1.7949 H   0  0  0  0  0  0  0  0  0  0  0  0
   -0.5109    8.4121    3.3552 H   0  0  0  0  0  0  0  0  0  0  0  0
    0.1037   10.7393    2.7991 H   0  0  0  0  0  0  0  0  0  0  0  0
    1.9272   12.4395    2.8363 H   0  0  0  0  0  0  0  0  0  0  0  0
    4.3125   11.7131    2.9247 H   0  0  0  0  0  0  0  0  0  0  0  0
    4.8747    9.2847    2.9751 H   0  0  0  0  0  0  0  0  0  0  0  0
    3.0565    7.5816    2.9412 H   0  0  0  0  0  0  0  0  0  0  0  0
   -2.1990    3.7960    7.2550 H   0  0  0  0  0  0  0  0  0  0  0  0
   -3.0287    7.0716    8.5595 H   0  0  0  0  0  0  0  0  0  0  0  0
   -3.1811    5.2848    8.2503 H   0  0  0  0  0  0  0  0  0  0  0  0
   -1.6433    4.7710    9.9417 H   0  0  0  0  0  0  0  0  0  0  0  0
   -0.8275    8.6667   11.1767 H   0  0  0  0  0  0  0  0  0  0  0  0
    0.0533    8.3872    9.6363 H   0  0  0  0  0  0  0  0  0  0  0  0
   -1.7386    8.5127    9.6363 H   0  0  0  0  0  0  0  0  0  0  0  0
   -0.7008    6.4958   12.5265 H   0  0  0  0  0  0  0  0  0  0  0  0
   -0.1802    5.0626   11.5769 H   0  0  0  0  0  0  0  0  0  0  0  0
    0.8230    6.5527   11.5769 H   0  0  0  0  0  0  0  0  0  0  0  0
  1  2  1  0
  2  3  1  0
  3  4  2  0
  4  5  1  0
  5  6  1  0
  6  7  1  0
  7  8  1  0
  8  9  2  0
  9 10  1  0
 10 11  2  0
 11 12  1  0
 12 13  2  0
  5 14  2  0
 14 15  1  0
 15 16  2  0
 15 17  1  0
 14 18  1  0
 18 19  1  0
 18 20  2  0
 20 21  1  0
 21 22  1  0
 22 23  2  3
 23 24  1  0
 23 25  1  0
 20  3  1  0
 13  8  1  0
  1 26  1  0
  1 27  1  0
  1 28  1  0
  4 29  1  0
  6 30  1  0
  6 31  1  0
  7 32  1  0
  7 33  1  0
  9 34  1  0
 10 35  1  0
 11 36  1  0
 12 37  1  0
 13 38  1  0
 19 39  1  0
 21 40  1  0
 21 41  1  0
 22 42  1  0
 24 43  1  0
 24 44  1  0
 24 45  1  0
 25 46  1  0
 25 47  1  0
 25 48  1  0
M  CHG  1  17  -1
M  END
>  <meeko>  (2) 
{"is_sidechain": [false], "free_energy": -7.707, "intermolecular_energy": -11.368, "internal_energy": -1.291}

$$$$
2yfe_ligand
     RDKit          3D

 48 49  0  0  0  0  0  0  0  0999 V2000
   -0.6450   10.4020   10.1470 C   0  0  0  0  0  0  0  0  0  0  0  0
    0.0470    9.3130   10.7560 O   0  0  0  0  0  0  0  0  0  0  0  0
   -0.5000    8.1180   10.3540 C   0  0  0  0  0  0  0  0  0  0  0  0
   -1.0630    8.0120    9.0820 C   0  0  0  0  0  0  0  0  0  0  0  0
   -1.6340    6.8050    8.6280 C   0  0  0  0  0  0  0  0  0  0  0  0
   -2.2310    6.8200    7.2350 C   0  0  0  0  0  0  0  0  0  0  0  0
   -1.6880    7.9750    6.3870 C   0  0  0  0  0  0  0  0  0  0  0  0
   -0.8850    7.4790    5.2060 C   0  0  0  0  0  0  0  0  0  0  0  0
   -0.7020    8.2740    4.0690 C   0  0  0  0  0  0  0  0  0  0  0  0
    0.0340    7.7930    2.9830 C   0  0  0  0  0  0  0  0  0  0  0  0
    0.5890    6.5140    3.0270 C   0  0  0  0  0  0  0  0  0  0  0  0
    0.4070    5.7140    4.1540 C   0  0  0  0  0  0  0  0  0  0  0  0
   -0.3270    6.1940    5.2390 C   0  0  0  0  0  0  0  0  0  0  0  0
   -1.6140    5.6650    9.4710 C   0  0  0  0  0  0  0  0  0  0  0  0
   -2.1910    4.3070    9.0710 C   0  0  0  0  0  0  0  0  0  0  0  0
   -1.7330    3.7010    8.0560 O   0  0  0  0  0  0  0  0  0  0  0  0
   -3.1160    3.8560    9.8300 O   0  0  0  0  0  0  0  0  0  0  0  0
   -1.0160    5.8080   10.7530 C   0  0  0  0  0  0  0  0  0  0  0  0
   -0.9810    4.7470   11.6360 O   0  0  0  0  0  0  0  0  0  0  0  0
   -0.4380    7.0110   11.2020 C   0  0  0  0  0  0  0  0  0  0  0  0
    0.1940    7.1110   12.5730 C   0  0  0  0  0  0  0  0  0  0  0  0
    1.6750    6.8210   12.5500 C   0  0  0  0  0  0  0  0  0  0  0  0
    2.3360    5.7530   13.0390 C   0  0  0  0  0  0  0  0  0  0  0  0
    1.6990    4.5780   13.7270 C   0  0  0  0  0  0  0  0  0  0  0  0
    3.8340    5.6640   12.9160 C   0  0  0  0  0  0  0  0  0  0  0  0
   -1.0603   11.0555   10.9284 H   0  0  0  0  0  0  0  0  0  0  0  0
    0.0539   10.9768    9.5216 H   0  0  0  0  0  0  0  0  0  0  0  0
   -1.4622   10.0134    9.5216 H   0  0  0  0  0  0  0  0  0  0  0  0
   -1.0615    8.8893    8.4184 H   0  0  0  0  0  0  0  0  0  0  0  0
   -1.9902    5.8698    6.7358 H   0  0  0  0  0  0  0  0  0  0  0  0
   -3.3182    6.9548    7.3341 H   0  0  0  0  0  0  0  0  0  0  0  0
   -2.5341    8.5721    6.0161 H   0  0  0  0  0  0  0  0  0  0  0  0
   -1.0232    8.5799    7.0211 H   0  0  0  0  0  0  0  0  0  0  0  0
   -1.1397    9.2824    4.0300 H   0  0  0  0  0  0  0  0  0  0  0  0
    0.1758    8.4234    2.0928 H   0  0  0  0  0  0  0  0  0  0  0  0
    1.1701    6.1368    2.1726 H   0  0  0  0  0  0  0  0  0  0  0  0
    0.8421    4.7043    4.1878 H   0  0  0  0  0  0  0  0  0  0  0  0
   -0.4687    5.5595    6.1263 H   0  0  0  0  0  0  0  0  0  0  0  0
   -1.7400    4.8930   12.2660 H   0  0  0  0  0  0  0  0  0  0  0  0
    0.0401    8.1296   12.9588 H   0  0  0  0  0  0  0  0  0  0  0  0
   -0.2838    6.3578   13.2167 H   0  0  0  0  0  0  0  0  0  0  0  0
    2.3009    7.5864   12.0679 H   0  0  0  0  0  0  0  0  0  0  0  0
    1.7698    4.7087   14.8169 H   0  0  0  0  0  0  0  0  0  0  0  0
    0.6409    4.5108   13.4338 H   0  0  0  0  0  0  0  0  0  0  0  0
    2.2201    3.6547   13.4338 H   0  0  0  0  0  0  0  0  0  0  0  0
    4.2834    5.6373   13.9197 H   0  0  0  0  0  0  0  0  0  0  0  0
    4.1032    4.7483   12.3692 H   0  0  0  0  0  0  0  0  0  0  0  0
    4.2098    6.5414   12.3692 H   0  0  0  0  0  0  0  0  0  0  0  0
  1  2  1  0
  2  3  1  0
  3  4  2  0
  4  5  1  0
  5  6  1  0
  6  7  1  0
  7  8  1  0
  8  9  2  0
  9 10  1  0
 10 11  2  0
 11 12  1  0
 12 13  2  0
  5 14  2  0
 14 15  1  0
 15 16  2  0
 15 17  1  0
 14 18  1  0
 18 19  1  0
 18 20  2  0
 20 21  1  0
 21 22  1  0
 22 23  2  3
 23 24  1  0
 23 25  1  0
 20  3  1  0
 13  8  1  0
  1 26  1  0
  1 27  1  0
  1 28  1  0
  4 29  1  0
  6 30  1  0
  6 31  1  0
  7 32  1  0
  7 33  1  0
  9 34  1  0
 10 35  1  0
 11 36  1  0
 12 37  1  0
 13 38  1  0
 19 39  1  0
 21 40  1  0
 21 41  1  0
 22 42  1  0
 24 43  1  0
 24 44  1  0
 24 45  1  0
 25 46  1  0
 25 47  1  0
 25 48  1  0
M  CHG  1  17  -1
M  END
>  <meeko>  (3) 
{"is_sidechain": [false], "free_energy": -7.689, "intermolecular_energy": -11.211, "internal_energy": -1.421}

$$$$
2yfe_ligand
     RDKit          3D

 48 49  0  0  0  0  0  0  0  0999 V2000
   -2.8380    8.4390    6.6650 C   0  0  0  0  0  0  0  0  0  0  0  0
   -1.8260    7.8550    7.4850 O   0  0  0  0  0  0  0  0  0  0  0  0
   -1.4150    6.6570    6.9530 C   0  0  0  0  0  0  0  0  0  0  0  0
   -0.7460    6.6410    5.7280 C   0  0  0  0  0  0  0  0  0  0  0  0
   -0.3060    5.4350    5.1450 C   0  0  0  0  0  0  0  0  0  0  0  0
    0.3920    5.5450    3.8040 C   0  0  0  0  0  0  0  0  0  0  0  0
    1.5720    6.5220    3.8470 C   0  0  0  0  0  0  0  0  0  0  0  0
    1.3530    7.7110    2.9400 C   0  0  0  0  0  0  0  0  0  0  0  0
    2.0870    8.8910    3.1020 C   0  0  0  0  0  0  0  0  0  0  0  0
    1.8630    9.9830    2.2590 C   0  0  0  0  0  0  0  0  0  0  0  0
    0.9000    9.9020    1.2530 C   0  0  0  0  0  0  0  0  0  0  0  0
    0.1610    8.7320    1.0880 C   0  0  0  0  0  0  0  0  0  0  0  0
    0.3860    7.6410    1.9280 C   0  0  0  0  0  0  0  0  0  0  0  0
   -0.5230    4.2110    5.8280 C   0  0  0  0  0  0  0  0  0  0  0  0
   -0.0730    2.8520    5.2940 C   0  0  0  0  0  0  0  0  0  0  0  0
   -0.6730    2.3320    4.3050 O   0  0  0  0  0  0  0  0  0  0  0  0
    0.9260    2.3270    5.8940 O   0  0  0  0  0  0  0  0  0  0  0  0
   -1.1920    4.2700    7.0820 C   0  0  0  0  0  0  0  0  0  0  0  0
   -1.4590    3.1170    7.7920 O   0  0  0  0  0  0  0  0  0  0  0  0
   -1.6240    5.4760    7.6670 C   0  0  0  0  0  0  0  0  0  0  0  0
   -2.3250    5.4880    9.0070 C   0  0  0  0  0  0  0  0  0  0  0  0
   -1.3640    5.3710   10.1650 C   0  0  0  0  0  0  0  0  0  0  0  0
   -0.7830    6.3510   10.8850 C   0  0  0  0  0  0  0  0  0  0  0  0
   -0.9960    7.8240   10.6770 C   0  0  0  0  0  0  0  0  0  0  0  0
    0.1610    6.0120   12.0070 C   0  0  0  0  0  0  0  0  0  0  0  0
   -3.6140    8.8868    7.3033 H   0  0  0  0  0  0  0  0  0  0  0  0
   -2.3910    9.2180    6.0299 H   0  0  0  0  0  0  0  0  0  0  0  0
   -3.2889    7.6622    6.0299 H   0  0  0  0  0  0  0  0  0  0  0  0
   -0.5578    7.5907    5.2057 H   0  0  0  0  0  0  0  0  0  0  0  0
    0.7647    4.5511    3.5155 H   0  0  0  0  0  0  0  0  0  0  0  0
   -0.3366    5.9256    3.0730 H   0  0  0  0  0  0  0  0  0  0  0  0
    1.6992    6.8807    4.8791 H   0  0  0  0  0  0  0  0  0  0  0  0
    2.4689    5.9886    3.4990 H   0  0  0  0  0  0  0  0  0  0  0  0
    2.8442    8.9596    3.8969 H   0  0  0  0  0  0  0  0  0  0  0  0
    2.4462   10.9066    2.3888 H   0  0  0  0  0  0  0  0  0  0  0  0
    0.7239   10.7618    0.5898 H   0  0  0  0  0  0  0  0  0  0  0  0
   -0.5995    8.6687    0.2957 H   0  0  0  0  0  0  0  0  0  0  0  0
   -0.1997    6.7194    1.7950 H   0  0  0  0  0  0  0  0  0  0  0  0
   -1.1030    2.3680    7.2380 H   0  0  0  0  0  0  0  0  0  0  0  0
   -2.8818    6.4316    9.1050 H   0  0  0  0  0  0  0  0  0  0  0  0
   -2.9953    4.6165    9.0405 H   0  0  0  0  0  0  0  0  0  0  0  0
   -1.1018    4.3448   10.4621 H   0  0  0  0  0  0  0  0  0  0  0  0
   -1.0685    8.3255   11.6534 H   0  0  0  0  0  0  0  0  0  0  0  0
   -0.1488    8.2409   10.1127 H   0  0  0  0  0  0  0  0  0  0  0  0
   -1.9266    7.9838   10.1127 H   0  0  0  0  0  0  0  0  0  0  0  0
   -0.3367    6.1907   12.9716 H   0  0  0  0  0  0  0  0  0  0  0  0
    0.4513    4.9535   11.9348 H   0  0  0  0  0  0  0  0  0  0  0  0
    1.0584    6.6440   11.9348 H   0  0  0  0  0  0  0  0  0  0  0  0
  1  2  1  0
  2  3  1  0
  3  4  2  0
  4  5  1  0
  5  6  1  0
  6  7  1  0
  7  8  1  0
  8  9  2  0
  9 10  1  0
 10 11  2  0
 11 12  1  0
 12 13  2  0
  5 14  2  0
 14 15  1  0
 15 16  2  0
 15 17  1  0
 14 18  1  0
 18 19  1  0
 18 20  2  0
 20 21  1  0
 21 22  1  0
 22 23  2  3
 23 24  1  0
 23 25  1  0
 20  3  1  0
 13  8  1  0
  1 26  1  0
  1 27  1  0
  1 28  1  0
  4 29  1  0
  6 30  1  0
  6 31  1  0
  7 32  1  0
  7 33  1  0
  9 34  1  0
 10 35  1  0
 11 36  1  0
 12 37  1  0
 13 38  1  0
 19 39  1  0
 21 40  1  0
 21 41  1  0
 22 42  1  0
 24 43  1  0
 24 44  1  0
 24 45  1  0
 25 46  1  0
 25 47  1  0
 25 48  1  0
M  CHG  1  17  -1
M  END
>  <meeko>  (4) 
{"is_sidechain": [false], "free_energy": -7.535, "intermolecular_energy": -11.053, "internal_energy": -1.359}

$$$$
2yfe_ligand
     RDKit          3D

 48 49  0  0  0  0  0  0  0  0999 V2000
   -1.4350   10.9140    9.8400 C   0  0  0  0  0  0  0  0  0  0  0  0
   -0.3450    9.9970    9.9340 O   0  0  0  0  0  0  0  0  0  0  0  0
   -0.7770    8.7180    9.6790 C   0  0  0  0  0  0  0  0  0  0  0  0
   -1.3110    8.4090    8.4280 C   0  0  0  0  0  0  0  0  0  0  0  0
   -1.7660    7.1090    8.1220 C   0  0  0  0  0  0  0  0  0  0  0  0
   -2.3420    6.9020    6.7350 C   0  0  0  0  0  0  0  0  0  0  0  0
   -1.8950    7.9920    5.7550 C   0  0  0  0  0  0  0  0  0  0  0  0
   -0.8230    7.4970    4.8120 C   0  0  0  0  0  0  0  0  0  0  0  0
   -0.1420    6.2980    5.0530 C   0  0  0  0  0  0  0  0  0  0  0  0
    0.8540    5.8630    4.1750 C   0  0  0  0  0  0  0  0  0  0  0  0
    1.1770    6.6260    3.0530 C   0  0  0  0  0  0  0  0  0  0  0  0
    0.5070    7.8240    2.8080 C   0  0  0  0  0  0  0  0  0  0  0  0
   -0.4880    8.2580    3.6840 C   0  0  0  0  0  0  0  0  0  0  0  0
   -1.6540    6.0850    9.0960 C   0  0  0  0  0  0  0  0  0  0  0  0
   -2.1010    4.6430    8.8620 C   0  0  0  0  0  0  0  0  0  0  0  0
   -1.6390    3.9890    7.8790 O   0  0  0  0  0  0  0  0  0  0  0  0
   -2.9270    4.1760    9.7200 O   0  0  0  0  0  0  0  0  0  0  0  0
   -1.0890    6.4350   10.3530 C   0  0  0  0  0  0  0  0  0  0  0  0
   -0.9710    5.4960   11.3580 O   0  0  0  0  0  0  0  0  0  0  0  0
   -0.6270    7.7310   10.6550 C   0  0  0  0  0  0  0  0  0  0  0  0
   -0.0250    8.0520   12.0040 C   0  0  0  0  0  0  0  0  0  0  0  0
   -0.9820    8.7980   12.9020 C   0  0  0  0  0  0  0  0  0  0  0  0
   -0.8470   10.0200   13.4550 C   0  0  0  0  0  0  0  0  0  0  0  0
    0.3340   10.9310   13.2680 C   0  0  0  0  0  0  0  0  0  0  0  0
   -1.9310   10.5800   14.3360 C   0  0  0  0  0  0  0  0  0  0  0  0
   -1.7672   11.1935   10.8507 H   0  0  0  0  0  0  0  0  0  0  0  0
   -1.1106   11.8148    9.2984 H   0  0  0  0  0  0  0  0  0  0  0  0
   -2.2670   10.4403    9.2984 H   0  0  0  0  0  0  0  0  0  0  0  0
   -1.3789    9.1964    7.6629 H   0  0  0  0  0  0  0  0  0  0  0  0
   -2.0084    5.9252    6.3549 H   0  0  0  0  0  0  0  0  0  0  0  0
   -3.4382    6.9472    6.8139 H   0  0  0  0  0  0  0  0  0  0  0  0
   -2.7644    8.3182    5.1653 H   0  0  0  0  0  0  0  0  0  0  0  0
   -1.4769    8.8250    6.3392 H   0  0  0  0  0  0  0  0  0  0  0  0
   -0.3923    5.6951    5.9383 H   0  0  0  0  0  0  0  0  0  0  0  0
    1.3836    4.9185    4.3687 H   0  0  0  0  0  0  0  0  0  0  0  0
    1.9604    6.2826    2.3613 H   0  0  0  0  0  0  0  0  0  0  0  0
    0.7630    8.4267    1.9241 H   0  0  0  0  0  0  0  0  0  0  0  0
   -1.0134    9.2043    3.4880 H   0  0  0  0  0  0  0  0  0  0  0  0
   -1.5950    4.7570   11.1140 H   0  0  0  0  0  0  0  0  0  0  0  0
    0.2593    7.1103   12.4964 H   0  0  0  0  0  0  0  0  0  0  0  0
    0.8478    8.6997   11.8346 H   0  0  0  0  0  0  0  0  0  0  0  0
   -1.9188    8.2719   13.1377 H   0  0  0  0  0  0  0  0  0  0  0  0
    0.7242   11.2320   14.2514 H   0  0  0  0  0  0  0  0  0  0  0  0
    1.1196   10.4027   12.7079 H   0  0  0  0  0  0  0  0  0  0  0  0
    0.0224   11.8250   12.7079 H   0  0  0  0  0  0  0  0  0  0  0  0
   -1.6557   10.4378   15.3915 H   0  0  0  0  0  0  0  0  0  0  0  0
   -2.0526   11.6537   14.1302 H   0  0  0  0  0  0  0  0  0  0  0  0
   -2.8770   10.0578   14.1302 H   0  0  0  0  0  0  0  0  0  0  0  0
  1  2  1  0
  2  3  1  0
  3  4  2  0
  4  5  1  0
  5  6  1  0
  6  7  1  0
  7  8  1  0
  8  9  2  0
  9 10  1  0
 10 11  2  0
 11 12  1  0
 12 13  2  0
  5 14  2  0
 14 15  1  0
 15 16  2  0
 15 17  1  0
 14 18  1  0
 18 19  1  0
 18 20  2  0
 20 21  1  0
 21 22  1  0
 22 23  2  3
 23 24  1  0
 23 25  1  0
 20  3  1  0
 13  8  1  0
  1 26  1  0
  1 27  1  0
  1 28  1  0
  4 29  1  0
  6 30  1  0
  6 31  1  0
  7 32  1  0
  7 33  1  0
  9 34  1  0
 10 35  1  0
 11 36  1  0
 12 37  1  0
 13 38  1  0
 19 39  1  0
 21 40  1  0
 21 41  1  0
 22 42  1  0
 24 43  1  0
 24 44  1  0
 24 45  1  0
 25 46  1  0
 25 47  1  0
 25 48  1  0
M  CHG  1  17  -1
M  END
>  <meeko>  (5) 
{"is_sidechain": [false], "free_energy": -7.407, "intermolecular_energy": -10.837, "internal_energy": -1.39}

$$$$
2yfe_ligand
     RDKit          3D

 48 49  0  0  0  0  0  0  0  0999 V2000
   -0.4980    8.4170    0.8640 C   0  0  0  0  0  0  0  0  0  0  0  0
   -0.0500    8.2130    2.2040 O   0  0  0  0  0  0  0  0  0  0  0  0
    1.1040    8.9220    2.4330 C   0  0  0  0  0  0  0  0  0  0  0  0
    1.0300   10.2870    2.7070 C   0  0  0  0  0  0  0  0  0  0  0  0
    2.1890   11.0540    2.9480 C   0  0  0  0  0  0  0  0  0  0  0  0
    1.9810   12.5310    3.2170 C   0  0  0  0  0  0  0  0  0  0  0  0
    0.5110   12.9420    3.0740 C   0  0  0  0  0  0  0  0  0  0  0  0
    0.2070   14.2170    3.8270 C   0  0  0  0  0  0  0  0  0  0  0  0
   -1.0950   14.5210    4.2410 C   0  0  0  0  0  0  0  0  0  0  0  0
   -1.3580   15.7090    4.9260 C   0  0  0  0  0  0  0  0  0  0  0  0
   -0.3230   16.6030    5.1980 C   0  0  0  0  0  0  0  0  0  0  0  0
    0.9760   16.3110    4.7850 C   0  0  0  0  0  0  0  0  0  0  0  0
    1.2400   15.1230    4.1010 C   0  0  0  0  0  0  0  0  0  0  0  0
    3.4580   10.4210    2.9400 C   0  0  0  0  0  0  0  0  0  0  0  0
    4.7720   11.1540    3.2050 C   0  0  0  0  0  0  0  0  0  0  0  0
    5.5830   11.3610    2.2530 O   0  0  0  0  0  0  0  0  0  0  0  0
    4.9560   11.5360    4.4120 O   0  0  0  0  0  0  0  0  0  0  0  0
    3.4910    9.0240    2.6740 C   0  0  0  0  0  0  0  0  0  0  0  0
    4.6910    8.3440    2.6270 O   0  0  0  0  0  0  0  0  0  0  0  0
    2.3320    8.2570    2.4420 C   0  0  0  0  0  0  0  0  0  0  0  0
    2.4180    6.7720    2.1710 C   0  0  0  0  0  0  0  0  0  0  0  0
    1.3430    5.9900    2.8860 C   0  0  0  0  0  0  0  0  0  0  0  0
    1.0960    5.9040    4.2080 C   0  0  0  0  0  0  0  0  0  0  0  0
    1.8700    6.6130    5.2840 C   0  0  0  0  0  0  0  0  0  0  0  0
   -0.0360    5.0510    4.7160 C   0  0  0  0  0  0  0  0  0  0  0  0
   -1.4990    8.8728    0.8774 H   0  0  0  0  0  0  0  0  0  0  0  0
    0.2021    9.0851    0.3410 H   0  0  0  0  0  0  0  0  0  0  0  0
   -0.5423    7.4503    0.3410 H   0  0  0  0  0  0  0  0  0  0  0  0
    0.0455   10.7769    2.7359 H   0  0  0  0  0  0  0  0  0  0  0  0
    2.3140   12.7553    4.2411 H   0  0  0  0  0  0  0  0  0  0  0  0
    2.5643   13.0958    2.4749 H   0  0  0  0  0  0  0  0  0  0  0  0
    0.2868   13.0962    2.0082 H   0  0  0  0  0  0  0  0  0  0  0  0
   -0.1104   12.1392    3.4975 H   0  0  0  0  0  0  0  0  0  0  0  0
   -1.9153   13.8204    4.0256 H   0  0  0  0  0  0  0  0  0  0  0  0
   -2.3830   15.9400    5.2515 H   0  0  0  0  0  0  0  0  0  0  0  0
   -0.5315   17.5382    5.7382 H   0  0  0  0  0  0  0  0  0  0  0  0
    1.7927   17.0164    4.9980 H   0  0  0  0  0  0  0  0  0  0  0  0
    2.2659   14.8967    3.7750 H   0  0  0  0  0  0  0  0  0  0  0  0
    4.4590    7.3770    2.6870 H   0  0  0  0  0  0  0  0  0  0  0  0
    2.3151    6.6045    1.0887 H   0  0  0  0  0  0  0  0  0  0  0  0
    3.3911    6.4202    2.5444 H   0  0  0  0  0  0  0  0  0  0  0  0
    0.6682    5.4105    2.2388 H   0  0  0  0  0  0  0  0  0  0  0  0
    1.5114    6.2845    6.2707 H   0  0  0  0  0  0  0  0  0  0  0  0
    2.9392    6.3744    5.1844 H   0  0  0  0  0  0  0  0  0  0  0  0
    1.7258    7.6990    5.1844 H   0  0  0  0  0  0  0  0  0  0  0  0
   -0.0322    5.0539    5.8160 H   0  0  0  0  0  0  0  0  0  0  0  0
   -0.9919    5.4553    4.3516 H   0  0  0  0  0  0  0  0  0  0  0  0
    0.0891    4.0207    4.3516 H   0  0  0  0  0  0  0  0  0  0  0  0
  1  2  1  0
  2  3  1  0
  3  4  2  0
  4  5  1  0
  5  6  1  0
  6  7  1  0
  7  8  1  0
  8  9  2  0
  9 10  1  0
 10 11  2  0
 11 12  1  0
 12 13  2  0
  5 14  2  0
 14 15  1  0
 15 16  2  0
 15 17  1  0
 14 18  1  0
 18 19  1  0
 18 20  2  0
 20 21  1  0
 21 22  1  0
 22 23  2  3
 23 24  1  0
 23 25  1  0
 20  3  1  0
 13  8  1  0
  1 26  1  0
  1 27  1  0
  1 28  1  0
  4 29  1  0
  6 30  1  0
  6 31  1  0
  7 32  1  0
  7 33  1  0
  9 34  1  0
 10 35  1  0
 11 36  1  0
 12 37  1  0
 13 38  1  0
 19 39  1  0
 21 40  1  0
 21 41  1  0
 22 42  1  0
 24 43  1  0
 24 44  1  0
 24 45  1  0
 25 46  1  0
 25 47  1  0
 25 48  1  0
M  CHG  1  17  -1
M  END
>  <meeko>  (6) 
{"is_sidechain": [false], "free_energy": -7.208, "intermolecular_energy": -11.579, "internal_energy": -0.362}

$$$$
2yfe_ligand
     RDKit          3D

 48 49  0  0  0  0  0  0  0  0999 V2000
   -0.3270    3.0870    4.8880 C   0  0  0  0  0  0  0  0  0  0  0  0
    0.5160    4.2010    5.1810 O   0  0  0  0  0  0  0  0  0  0  0  0
   -0.2420    5.2950    5.5210 C   0  0  0  0  0  0  0  0  0  0  0  0
   -0.9680    5.2860    6.7120 C   0  0  0  0  0  0  0  0  0  0  0  0
   -1.7590    6.3870    7.1010 C   0  0  0  0  0  0  0  0  0  0  0  0
   -2.5160    6.2500    8.4070 C   0  0  0  0  0  0  0  0  0  0  0  0
   -1.7180    5.4700    9.4580 C   0  0  0  0  0  0  0  0  0  0  0  0
   -0.9390    6.3890   10.3710 C   0  0  0  0  0  0  0  0  0  0  0  0
   -0.8480    7.7610   10.1120 C   0  0  0  0  0  0  0  0  0  0  0  0
   -0.1140    8.5920   10.9620 C   0  0  0  0  0  0  0  0  0  0  0  0
    0.5360    8.0560   12.0730 C   0  0  0  0  0  0  0  0  0  0  0  0
    0.4540    6.6900   12.3360 C   0  0  0  0  0  0  0  0  0  0  0  0
   -0.2800    5.8590   11.4880 C   0  0  0  0  0  0  0  0  0  0  0  0
   -1.7980    7.5420    6.2790 C   0  0  0  0  0  0  0  0  0  0  0  0
   -2.6080    8.7930    6.6150 C   0  0  0  0  0  0  0  0  0  0  0  0
   -2.2500    9.5380    7.5760 O   0  0  0  0  0  0  0  0  0  0  0  0
   -3.6170    9.0150    5.8620 O   0  0  0  0  0  0  0  0  0  0  0  0
   -1.0300    7.5200    5.0820 C   0  0  0  0  0  0  0  0  0  0  0  0
   -1.0380    8.5990    4.2210 O   0  0  0  0  0  0  0  0  0  0  0  0
   -0.2340    6.4230    4.6990 C   0  0  0  0  0  0  0  0  0  0  0  0
    0.5720    6.4510    3.4190 C   0  0  0  0  0  0  0  0  0  0  0  0
    1.7430    7.4000    3.4920 C   0  0  0  0  0  0  0  0  0  0  0  0
    2.0650    8.4130    2.6640 C   0  0  0  0  0  0  0  0  0  0  0  0
    1.2780    8.8270    1.4520 C   0  0  0  0  0  0  0  0  0  0  0  0
    3.2960    9.2410    2.9180 C   0  0  0  0  0  0  0  0  0  0  0  0
   -0.6720    2.6311    5.8277 H   0  0  0  0  0  0  0  0  0  0  0  0
   -1.1955    3.4277    4.3052 H   0  0  0  0  0  0  0  0  0  0  0  0
    0.2369    2.3437    4.3052 H   0  0  0  0  0  0  0  0  0  0  0  0
   -0.9226    4.4002    7.3626 H   0  0  0  0  0  0  0  0  0  0  0  0
   -2.7312    7.2549    8.7991 H   0  0  0  0  0  0  0  0  0  0  0  0
   -3.4428    5.6933    8.2041 H   0  0  0  0  0  0  0  0  0  0  0  0
   -2.4160    4.8743   10.0645 H   0  0  0  0  0  0  0  0  0  0  0  0
   -1.0000    4.8245    8.9309 H   0  0  0  0  0  0  0  0  0  0  0  0
   -1.3568    8.1874    9.2349 H   0  0  0  0  0  0  0  0  0  0  0  0
   -0.0488    9.6703   10.7545 H   0  0  0  0  0  0  0  0  0  0  0  0
    1.1134    8.7113   12.7417 H   0  0  0  0  0  0  0  0  0  0  0  0
    0.9676    6.2666   13.2118 H   0  0  0  0  0  0  0  0  0  0  0  0
   -0.3414    4.7810   11.6981 H   0  0  0  0  0  0  0  0  0  0  0  0
   -0.1610    9.0560    4.3510 H   0  0  0  0  0  0  0  0  0  0  0  0
    0.9513    5.4380    3.2191 H   0  0  0  0  0  0  0  0  0  0  0  0
   -0.0916    6.8014    2.6147 H   0  0  0  0  0  0  0  0  0  0  0  0
    2.4283    7.2431    4.3380 H   0  0  0  0  0  0  0  0  0  0  0  0
    0.3460    9.3173    1.7699 H   0  0  0  0  0  0  0  0  0  0  0  0
    1.8742    9.5282    0.8496 H   0  0  0  0  0  0  0  0  0  0  0  0
    1.0379    7.9385    0.8496 H   0  0  0  0  0  0  0  0  0  0  0  0
    3.4507    9.3450    4.0021 H   0  0  0  0  0  0  0  0  0  0  0  0
    4.1698    8.7463    2.4688 H   0  0  0  0  0  0  0  0  0  0  0  0
    3.1672   10.2368    2.4688 H   0  0  0  0  0  0  0  0  0  0  0  0
  1  2  1  0
  2  3  1  0
  3  4  2  0
  4  5  1  0
  5  6  1  0
  6  7  1  0
  7  8  1  0
  8  9  2  0
  9 10  1  0
 10 11  2  0
 11 12  1  0
 12 13  2  0
  5 14  2  0
 14 15  1  0
 15 16  2  0
 15 17  1  0
 14 18  1  0
 18 19  1  0
 18 20  2  0
 20 21  1  0
 21 22  1  0
 22 23  2  3
 23 24  1  0
 23 25  1  0
 20  3  1  0
 13  8  1  0
  1 26  1  0
  1 27  1  0
  1 28  1  0
  4 29  1  0
  6 30  1  0
  6 31  1  0
  7 32  1  0
  7 33  1  0
  9 34  1  0
 10 35  1  0
 11 36  1  0
 12 37  1  0
 13 38  1  0
 19 39  1  0
 21 40  1  0
 21 41  1  0
 22 42  1  0
 24 43  1  0
 24 44  1  0
 24 45  1  0
 25 46  1  0
 25 47  1  0
 25 48  1  0
M  CHG  1  17  -1
M  END
>  <meeko>  (7) 
{"is_sidechain": [false], "free_energy": -7.143, "intermolecular_energy": -10.545, "internal_energy": -1.303}

$$$$
2yfe_ligand
     RDKit          3D

 48 49  0  0  0  0  0  0  0  0999 V2000
   -2.8070    9.3760    6.0380 C   0  0  0  0  0  0  0  0  0  0  0  0
   -1.7400    9.2180    5.1030 O   0  0  0  0  0  0  0  0  0  0  0  0
   -1.2220    7.9490    5.1820 C   0  0  0  0  0  0  0  0  0  0  0  0
   -1.5550    7.1350    6.2650 C   0  0  0  0  0  0  0  0  0  0  0  0
   -1.0470    5.8250    6.3860 C   0  0  0  0  0  0  0  0  0  0  0  0
   -1.4670    5.0460    7.6170 C   0  0  0  0  0  0  0  0  0  0  0  0
   -2.2040    5.9250    8.6330 C   0  0  0  0  0  0  0  0  0  0  0  0
   -1.2860    6.4070    9.7330 C   0  0  0  0  0  0  0  0  0  0  0  0
   -0.7140    7.6840    9.6920 C   0  0  0  0  0  0  0  0  0  0  0  0
    0.1410    8.1070   10.7130 C   0  0  0  0  0  0  0  0  0  0  0  0
    0.4330    7.2540   11.7770 C   0  0  0  0  0  0  0  0  0  0  0  0
   -0.1280    5.9790   11.8230 C   0  0  0  0  0  0  0  0  0  0  0  0
   -0.9830    5.5570   10.8050 C   0  0  0  0  0  0  0  0  0  0  0  0
   -0.2000    5.3100    5.3720 C   0  0  0  0  0  0  0  0  0  0  0  0
    0.3910    3.9020    5.3980 C   0  0  0  0  0  0  0  0  0  0  0  0
   -0.3780    2.8940    5.4190 O   0  0  0  0  0  0  0  0  0  0  0  0
    1.6680    3.8390    5.3780 O   0  0  0  0  0  0  0  0  0  0  0  0
    0.1030    6.1640    4.2750 C   0  0  0  0  0  0  0  0  0  0  0  0
    0.9400    5.7390    3.2630 O   0  0  0  0  0  0  0  0  0  0  0  0
   -0.4120    7.4680    4.1510 C   0  0  0  0  0  0  0  0  0  0  0  0
   -0.0680    8.3350    2.9610 C   0  0  0  0  0  0  0  0  0  0  0  0
    1.1660    9.1730    3.1920 C   0  0  0  0  0  0  0  0  0  0  0  0
    2.3980    9.0300    2.6640 C   0  0  0  0  0  0  0  0  0  0  0  0
    2.8040    7.9650    1.6840 C   0  0  0  0  0  0  0  0  0  0  0  0
    3.5010    9.9830    3.0380 C   0  0  0  0  0  0  0  0  0  0  0  0
   -2.4091    9.3171    7.0618 H   0  0  0  0  0  0  0  0  0  0  0  0
   -3.2855   10.3548    5.8863 H   0  0  0  0  0  0  0  0  0  0  0  0
   -3.5486    8.5779    5.8863 H   0  0  0  0  0  0  0  0  0  0  0  0
   -2.2292    7.5239    7.0423 H   0  0  0  0  0  0  0  0  0  0  0  0
   -2.1329    4.2268    7.3080 H   0  0  0  0  0  0  0  0  0  0  0  0
   -0.5571    4.6607    8.1002 H   0  0  0  0  0  0  0  0  0  0  0  0
   -2.6219    6.7982    8.1106 H   0  0  0  0  0  0  0  0  0  0  0  0
   -2.9990    5.3200    9.0934 H   0  0  0  0  0  0  0  0  0  0  0  0
   -0.9387    8.3577    8.8520 H   0  0  0  0  0  0  0  0  0  0  0  0
    0.5840    9.1132   10.6775 H   0  0  0  0  0  0  0  0  0  0  0  0
    1.1064    7.5876   12.5803 H   0  0  0  0  0  0  0  0  0  0  0  0
    0.1034    5.3059   12.6617 H   0  0  0  0  0  0  0  0  0  0  0  0
   -1.4227    4.5495   10.8440 H   0  0  0  0  0  0  0  0  0  0  0  0
    1.4530    4.9710    3.6390 H   0  0  0  0  0  0  0  0  0  0  0  0
    0.1048    7.6857    2.0900 H   0  0  0  0  0  0  0  0  0  0  0  0
   -0.9110    9.0216    2.7937 H   0  0  0  0  0  0  0  0  0  0  0  0
    1.0430   10.0167    3.8870 H   0  0  0  0  0  0  0  0  0  0  0  0
    3.1439    7.0734    2.2313 H   0  0  0  0  0  0  0  0  0  0  0  0
    1.9434    7.7012    1.0518 H   0  0  0  0  0  0  0  0  0  0  0  0
    3.6218    8.3410    1.0518 H   0  0  0  0  0  0  0  0  0  0  0  0
    3.5747   10.0467    4.1337 H   0  0  0  0  0  0  0  0  0  0  0  0
    4.4545    9.6198    2.6268 H   0  0  0  0  0  0  0  0  0  0  0  0
    3.2801   10.9791    2.6268 H   0  0  0  0  0  0  0  0  0  0  0  0
  1  2  1  0
  2  3  1  0
  3  4  2  0
  4  5  1  0
  5  6  1  0
  6  7  1  0
  7  8  1  0
  8  9  2  0
  9 10  1  0
 10 11  2  0
 11 12  1  0
 12 13  2  0
  5 14  2  0
 14 15  1  0
 15 16  2  0
 15 17  1  0
 14 18  1  0
 18 19  1  0
 18 20  2  0
 20 21  1  0
 21 22  1  0
 22 23  2  3
 23 24  1  0
 23 25  1  0
 20  3  1  0
 13  8  1  0
  1 26  1  0
  1 27  1  0
  1 28  1  0
  4 29  1  0
  6 30  1  0
  6 31  1  0
  7 32  1  0
  7 33  1  0
  9 34  1  0
 10 35  1  0
 11 36  1  0
 12 37  1  0
 13 38  1  0
 19 39  1  0
 21 40  1  0
 21 41  1  0
 22 42  1  0
 24 43  1  0
 24 44  1  0
 24 45  1  0
 25 46  1  0
 25 47  1  0
 25 48  1  0
M  CHG  1  17  -1
M  END
>  <meeko>  (8) 
{"is_sidechain": [false], "free_energy": -7.118, "intermolecular_energy": -10.46, "internal_energy": -1.351}

$$$$
2yfe_ligand
     RDKit          3D

 48 49  0  0  0  0  0  0  0  0999 V2000
   -2.7940   10.9520    8.1610 C   0  0  0  0  0  0  0  0  0  0  0  0
   -1.8620   11.3550    9.1630 O   0  0  0  0  0  0  0  0  0  0  0  0
   -1.3050   10.2520    9.7660 C   0  0  0  0  0  0  0  0  0  0  0  0
   -1.4260    9.0020    9.1590 C   0  0  0  0  0  0  0  0  0  0  0  0
   -0.8710    7.8440    9.7410 C   0  0  0  0  0  0  0  0  0  0  0  0
   -1.0840    6.5410    8.9950 C   0  0  0  0  0  0  0  0  0  0  0  0
   -2.0240    6.7100    7.7970 C   0  0  0  0  0  0  0  0  0  0  0  0
   -1.2850    6.6100    6.4820 C   0  0  0  0  0  0  0  0  0  0  0  0
   -0.5750    5.4550    6.1350 C   0  0  0  0  0  0  0  0  0  0  0  0
    0.1110    5.3870    4.9210 C   0  0  0  0  0  0  0  0  0  0  0  0
    0.0950    6.4740    4.0470 C   0  0  0  0  0  0  0  0  0  0  0  0
   -0.6050    7.6300    4.3870 C   0  0  0  0  0  0  0  0  0  0  0  0
   -1.2920    7.6990    5.6000 C   0  0  0  0  0  0  0  0  0  0  0  0
   -0.1490    7.9530   10.9560 C   0  0  0  0  0  0  0  0  0  0  0  0
    0.5060    6.7660   11.6620 C   0  0  0  0  0  0  0  0  0  0  0  0
    1.7170    6.8390   12.0290 O   0  0  0  0  0  0  0  0  0  0  0  0
   -0.2510    5.7540   11.8540 O   0  0  0  0  0  0  0  0  0  0  0  0
   -0.0320    9.2470   11.5350 C   0  0  0  0  0  0  0  0  0  0  0  0
    0.6360    9.4260   12.7300 O   0  0  0  0  0  0  0  0  0  0  0  0
   -0.5800   10.4040   10.9490 C   0  0  0  0  0  0  0  0  0  0  0  0
   -0.4220   11.7610   11.5990 C   0  0  0  0  0  0  0  0  0  0  0  0
   -1.5300   12.0660   12.5770 C   0  0  0  0  0  0  0  0  0  0  0  0
   -1.6780   13.1370   13.3810 C   0  0  0  0  0  0  0  0  0  0  0  0
   -0.7300   14.3010   13.4600 C   0  0  0  0  0  0  0  0  0  0  0  0
   -2.8690   13.2430   14.2960 C   0  0  0  0  0  0  0  0  0  0  0  0
   -3.7022   10.5593    8.6416 H   0  0  0  0  0  0  0  0  0  0  0  0
   -3.0557   11.8173    7.5344 H   0  0  0  0  0  0  0  0  0  0  0  0
   -2.3428   10.1686    7.5344 H   0  0  0  0  0  0  0  0  0  0  0  0
   -1.9666    8.9178    8.2047 H   0  0  0  0  0  0  0  0  0  0  0  0
   -0.1112    6.1759    8.6339 H   0  0  0  0  0  0  0  0  0  0  0  0
   -1.5462    5.8244    9.6899 H   0  0  0  0  0  0  0  0  0  0  0  0
   -2.7921    5.9235    7.8340 H   0  0  0  0  0  0  0  0  0  0  0  0
   -2.4774    7.7103    7.8580 H   0  0  0  0  0  0  0  0  0  0  0  0
   -0.5574    4.5963    6.8223 H   0  0  0  0  0  0  0  0  0  0  0  0
    0.6648    4.4751    4.6534 H   0  0  0  0  0  0  0  0  0  0  0  0
    0.6346    6.4187    3.0900 H   0  0  0  0  0  0  0  0  0  0  0  0
   -0.6161    8.4884    3.6992 H   0  0  0  0  0  0  0  0  0  0  0  0
   -1.8423    8.6138    5.8653 H   0  0  0  0  0  0  0  0  0  0  0  0
    1.5960    9.5480   12.4890 H   0  0  0  0  0  0  0  0  0  0  0  0
    0.5383   11.7857   12.1350 H   0  0  0  0  0  0  0  0  0  0  0  0
   -0.4607   12.5193   10.8031 H   0  0  0  0  0  0  0  0  0  0  0  0
   -2.3263   11.3100   12.6425 H   0  0  0  0  0  0  0  0  0  0  0  0
   -0.5332   14.5427   14.5149 H   0  0  0  0  0  0  0  0  0  0  0  0
    0.2148   14.0389   12.9614 H   0  0  0  0  0  0  0  0  0  0  0  0
   -1.1780   15.1732   12.9614 H   0  0  0  0  0  0  0  0  0  0  0  0
   -2.5313   13.2129   15.3424 H   0  0  0  0  0  0  0  0  0  0  0  0
   -3.3933   14.1914   14.1070 H   0  0  0  0  0  0  0  0  0  0  0  0
   -3.5526   12.4021   14.1070 H   0  0  0  0  0  0  0  0  0  0  0  0
  1  2  1  0
  2  3  1  0
  3  4  2  0
  4  5  1  0
  5  6  1  0
  6  7  1  0
  7  8  1  0
  8  9  2  0
  9 10  1  0
 10 11  2  0
 11 12  1  0
 12 13  2  0
  5 14  2  0
 14 15  1  0
 15 16  2  0
 15 17  1  0
 14 18  1  0
 18 19  1  0
 18 20  2  0
 20 21  1  0
 21 22  1  0
 22 23  2  3
 23 24  1  0
 23 25  1  0
 20  3  1  0
 13  8  1  0
  1 26  1  0
  1 27  1  0
  1 28  1  0
  4 29  1  0
  6 30  1  0
  6 31  1  0
  7 32  1  0
  7 33  1  0
  9 34  1  0
 10 35  1  0
 11 36  1  0
 12 37  1  0
 13 38  1  0
 19 39  1  0
 21 40  1  0
 21 41  1  0
 22 42  1  0
 24 43  1  0
 24 44  1  0
 24 45  1  0
 25 46  1  0
 25 47  1  0
 25 48  1  0
M  CHG  1  17  -1
M  END
>  <meeko>  (9) 
{"is_sidechain": [false], "free_energy": -6.892, "intermolecular_energy": -10.375, "internal_energy": -1.111}

$$$$
