3ozs_ligand
     RDKit          3D

 50 52  0  0  0  0  0  0  0  0999 V2000
    4.5960   -1.5680    8.8540 O   0  0  0  0  0  0  0  0  0  0  0  0
    5.1460   -2.5160    8.3030 C   0  0  0  0  0  0  0  0  0  0  0  0
    6.3490   -2.4060    7.6490 N   0  0  0  0  0  0  0  0  0  0  0  0
    7.1330   -1.2040    7.7240 C   0  0  0  0  0  0  0  0  0  0  0  0
    8.5420   -1.5670    7.3790 C   0  0  0  0  0  0  0  0  0  0  0  0
    9.3240   -0.8630    6.5440 C   0  0  0  0  0  0  0  0  0  0  0  0
   10.7370   -1.2320    6.2020 C   0  0  1  0  0  0  0  0  0  0  0  0
   10.9240   -1.0130    4.7920 O   0  0  0  0  0  0  0  0  0  0  0  0
   12.2730   -0.5450    4.5900 C   0  0  1  0  0  0  0  0  0  0  0  0
   12.2470    0.7470    3.9180 N   0  0  0  0  0  0  0  0  0  0  0  0
   11.2220    1.2830    3.1950 C   0  0  0  0  0  0  0  0  0  0  0  0
   11.5110    2.4940    2.7770 N   0  0  0  0  0  0  0  0  0  0  0  0
   12.8020    2.7560    3.2130 C   0  0  0  0  0  0  0  0  0  0  0  0
   13.5070    4.0500    2.9130 C   0  0  0  0  0  0  0  0  0  0  0  0
   14.2220    3.9950    1.7600 F   0  0  0  0  0  0  0  0  0  0  0  0
   14.3610    4.4210    3.9010 F   0  0  0  0  0  0  0  0  0  0  0  0
   12.6220    5.0770    2.7640 F   0  0  0  0  0  0  0  0  0  0  0  0
   13.2680    1.6620    3.9270 C   0  0  0  0  0  0  0  0  0  0  0  0
   12.9640   -0.4880    5.9580 C   0  0  2  0  0  0  0  0  0  0  0  0
   13.6510   -1.7200    6.2560 O   0  0  0  0  0  0  0  0  0  0  0  0
   11.7820   -0.3620    6.9060 C   0  0  2  0  0  0  0  0  0  0  0  0
   12.1160   -0.8130    8.2140 O   0  0  0  0  0  0  0  0  0  0  0  0
    4.5020   -3.8660    8.3270 C   0  0  0  0  0  0  0  0  0  0  0  0
    5.3530   -4.9860    8.3150 C   0  0  0  0  0  0  0  0  0  0  0  0
    4.8160   -6.2820    8.3360 C   0  0  0  0  0  0  0  0  0  0  0  0
    5.7130   -7.4450    8.3260 N   0  0  0  0  0  0  0  0  0  0  0  0
    6.5490   -7.5230    7.4170 O   0  0  0  0  0  0  0  0  0  0  0  0
    5.5780   -8.2770    9.2330 O   0  0  0  0  0  0  0  0  0  0  0  0
    3.4290   -6.4880    8.3670 C   0  0  0  0  0  0  0  0  0  0  0  0
    2.5970   -5.3770    8.3760 C   0  0  0  0  0  0  0  0  0  0  0  0
    1.2330   -5.5020    8.4010 O   0  0  0  0  0  0  0  0  0  0  0  0
    3.1190   -4.0790    8.3550 C   0  0  0  0  0  0  0  0  0  0  0  0
    2.2220   -3.0390    8.3550 O   0  0  0  0  0  0  0  0  0  0  0  0
    6.8070   -3.2720    7.3730 H   0  0  0  0  0  0  0  0  0  0  0  0
    6.7505   -0.4604    7.0093 H   0  0  0  0  0  0  0  0  0  0  0  0
    7.0800   -0.7680    8.7325 H   0  0  0  0  0  0  0  0  0  0  0  0
    8.9665   -2.4711    7.8399 H   0  0  0  0  0  0  0  0  0  0  0  0
    8.9014    0.0413    6.0818 H   0  0  0  0  0  0  0  0  0  0  0  0
   10.8771   -2.2764    6.5176 H   0  0  0  0  0  0  0  0  0  0  0  0
   12.8440   -1.2261    3.9418 H   0  0  0  0  0  0  0  0  0  0  0  0
   10.2732    0.7662    2.9882 H   0  0  0  0  0  0  0  0  0  0  0  0
   14.2537    1.5513    4.4025 H   0  0  0  0  0  0  0  0  0  0  0  0
   13.7115    0.3166    6.0195 H   0  0  0  0  0  0  0  0  0  0  0  0
   14.5110   -1.7000    5.7970 H   0  0  0  0  0  0  0  0  0  0  0  0
   11.4319    0.6661    7.0805 H   0  0  0  0  0  0  0  0  0  0  0  0
   11.3290   -0.6250    8.7670 H   0  0  0  0  0  0  0  0  0  0  0  0
    6.4436   -4.8452    8.2891 H   0  0  0  0  0  0  0  0  0  0  0  0
    3.0107   -7.5052    8.3838 H   0  0  0  0  0  0  0  0  0  0  0  0
    0.8410   -4.8640    7.7770 H   0  0  0  0  0  0  0  0  0  0  0  0
    2.7680   -2.2260    8.2940 H   0  0  0  0  0  0  0  0  0  0  0  0
  1  2  2  0
  2  3  1  0
  3  4  1  0
  4  5  1  0
  5  6  2  0
  6  7  1  0
  7  8  1  0
  8  9  1  0
  9 10  1  0
 10 11  1  0
 11 12  2  0
 12 13  1  0
 13 14  1  0
 14 15  1  0
 14 16  1  0
 14 17  1  0
 13 18  2  0
  9 19  1  0
 19 20  1  0
 19 21  1  0
 21 22  1  0
  2 23  1  0
 23 24  2  0
 24 25  1  0
 25 26  1  0
 26 27  2  0
 26 28  1  0
 25 29  2  0
 29 30  1  0
 30 31  1  0
 30 32  2  0
 32 33  1  0
 21  7  1  0
 32 23  1  0
 18 10  1  0
  3 34  1  0
  4 35  1  0
  4 36  1  0
  5 37  1  0
  6 38  1  0
  7 39  1  6
  9 40  1  6
 11 41  1  0
 18 42  1  0
 19 43  1  6
 20 44  1  0
 21 45  1  1
 22 46  1  0
 24 47  1  0
 29 48  1  0
 31 49  1  0
 33 50  1  0
M  CHG  2  26   1  28  -1
M  END
>  <meeko>  (1) 
{"is_sidechain": [false], "free_energy": -8.951, "intermolecular_energy": -13.661, "internal_energy": -1.076}

$$$$
3ozs_ligand
     RDKit          3D

 50 52  0  0  0  0  0  0  0  0999 V2000
    6.1320   -2.7100    9.5900 O   0  0  0  0  0  0  0  0  0  0  0  0
    5.4160   -2.9130    8.6150 C   0  0  0  0  0  0  0  0  0  0  0  0
    5.2830   -2.0130    7.5850 N   0  0  0  0  0  0  0  0  0  0  0  0
    6.1200   -0.8470    7.4980 C   0  0  0  0  0  0  0  0  0  0  0  0
    7.4950   -1.3100    7.1340 C   0  0  0  0  0  0  0  0  0  0  0  0
    8.6270   -0.6970    7.5170 C   0  0  0  0  0  0  0  0  0  0  0  0
   10.0030   -1.1670    7.1490 C   0  0  1  0  0  0  0  0  0  0  0  0
   10.0860   -1.2160    5.7120 O   0  0  0  0  0  0  0  0  0  0  0  0
   11.4230   -0.8350    5.3300 C   0  0  1  0  0  0  0  0  0  0  0  0
   11.3670    0.3120    4.4350 N   0  0  0  0  0  0  0  0  0  0  0  0
   10.2590    0.8580    3.8580 C   0  0  0  0  0  0  0  0  0  0  0  0
   10.5610    1.9250    3.1530 N   0  0  0  0  0  0  0  0  0  0  0  0
   11.9380    2.0680    3.2380 C   0  0  0  0  0  0  0  0  0  0  0  0
   12.6780    3.1750    2.5380 C   0  0  0  0  0  0  0  0  0  0  0  0
   12.4890    3.1550    1.1930 F   0  0  0  0  0  0  0  0  0  0  0  0
   14.0170    3.1290    2.7590 F   0  0  0  0  0  0  0  0  0  0  0  0
   12.2590    4.4010    2.9640 F   0  0  0  0  0  0  0  0  0  0  0  0
   12.4480    1.0570    4.0390 C   0  0  0  0  0  0  0  0  0  0  0  0
   12.2170   -0.5490    6.6100 C   0  0  2  0  0  0  0  0  0  0  0  0
   12.9040   -1.7270    7.0820 O   0  0  0  0  0  0  0  0  0  0  0  0
   11.1140   -0.2150    7.6020 C   0  0  2  0  0  0  0  0  0  0  0  0
   11.5390   -0.4290    8.9440 O   0  0  0  0  0  0  0  0  0  0  0  0
    4.6390   -4.1870    8.5120 C   0  0  0  0  0  0  0  0  0  0  0  0
    5.3730   -5.3850    8.4530 C   0  0  0  0  0  0  0  0  0  0  0  0
    4.7070   -6.6170    8.3560 C   0  0  0  0  0  0  0  0  0  0  0  0
    5.4820   -7.8630    8.3000 N   0  0  0  0  0  0  0  0  0  0  0  0
    5.8490   -8.3660    9.3690 O   0  0  0  0  0  0  0  0  0  0  0  0
    5.7210   -8.3360    7.1800 O   0  0  0  0  0  0  0  0  0  0  0  0
    3.3070   -6.6790    8.3140 C   0  0  0  0  0  0  0  0  0  0  0  0
    2.5910   -5.4910    8.3690 C   0  0  0  0  0  0  0  0  0  0  0  0
    1.2230   -5.4750    8.3280 O   0  0  0  0  0  0  0  0  0  0  0  0
    3.2420   -4.2560    8.4660 C   0  0  0  0  0  0  0  0  0  0  0  0
    2.4550   -3.1310    8.5040 O   0  0  0  0  0  0  0  0  0  0  0  0
    4.8070   -2.3360    6.7450 H   0  0  0  0  0  0  0  0  0  0  0  0
    5.7359   -0.1652    6.7250 H   0  0  0  0  0  0  0  0  0  0  0  0
    6.1331   -0.3058    8.4555 H   0  0  0  0  0  0  0  0  0  0  0  0
    7.5850   -2.2123    6.5114 H   0  0  0  0  0  0  0  0  0  0  0  0
    8.5395    0.2059    8.1392 H   0  0  0  0  0  0  0  0  0  0  0  0
   10.1481   -2.1396    7.6420 H   0  0  0  0  0  0  0  0  0  0  0  0
   11.9312   -1.6406    4.7797 H   0  0  0  0  0  0  0  0  0  0  0  0
    9.2410    0.4562    3.9686 H   0  0  0  0  0  0  0  0  0  0  0  0
   13.5025    0.8877    4.3024 H   0  0  0  0  0  0  0  0  0  0  0  0
   12.9801    0.2301    6.4662 H   0  0  0  0  0  0  0  0  0  0  0  0
   13.4690   -1.4620    7.8310 H   0  0  0  0  0  0  0  0  0  0  0  0
   10.7969    0.8383    7.6080 H   0  0  0  0  0  0  0  0  0  0  0  0
   11.6350    0.4630    9.3360 H   0  0  0  0  0  0  0  0  0  0  0  0
    6.4722   -5.3567    8.4829 H   0  0  0  0  0  0  0  0  0  0  0  0
    2.7882   -7.6461    8.2392 H   0  0  0  0  0  0  0  0  0  0  0  0
    0.9130   -4.5510    8.3150 H   0  0  0  0  0  0  0  0  0  0  0  0
    2.7720   -2.6190    9.2790 H   0  0  0  0  0  0  0  0  0  0  0  0
  1  2  2  0
  2  3  1  0
  3  4  1  0
  4  5  1  0
  5  6  2  0
  6  7  1  0
  7  8  1  0
  8  9  1  0
  9 10  1  0
 10 11  1  0
 11 12  2  0
 12 13  1  0
 13 14  1  0
 14 15  1  0
 14 16  1  0
 14 17  1  0
 13 18  2  0
  9 19  1  0
 19 20  1  0
 19 21  1  0
 21 22  1  0
  2 23  1  0
 23 24  2  0
 24 25  1  0
 25 26  1  0
 26 27  2  0
 26 28  1  0
 25 29  2  0
 29 30  1  0
 30 31  1  0
 30 32  2  0
 32 33  1  0
 21  7  1  0
 32 23  1  0
 18 10  1  0
  3 34  1  0
  4 35  1  0
  4 36  1  0
  5 37  1  0
  6 38  1  0
  7 39  1  1
  9 40  1  6
 11 41  1  0
 18 42  1  0
 19 43  1  6
 20 44  1  0
 21 45  1  1
 22 46  1  0
 24 47  1  0
 29 48  1  0
 31 49  1  0
 33 50  1  0
M  CHG  2  26   1  28  -1
M  END
>  <meeko>  (2) 
{"is_sidechain": [false], "free_energy": -8.7, "intermolecular_energy": -13.336, "internal_energy": -1.016}

$$$$
3ozs_ligand
     RDKit          3D

 50 52  0  0  0  0  0  0  0  0999 V2000
    4.7420   -1.7940    8.2100 O   0  0  0  0  0  0  0  0  0  0  0  0
    5.3310   -2.8490    8.4230 C   0  0  0  0  0  0  0  0  0  0  0  0
    6.6760   -2.9130    8.6950 N   0  0  0  0  0  0  0  0  0  0  0  0
    7.4490   -1.7240    8.9270 C   0  0  0  0  0  0  0  0  0  0  0  0
    8.2430   -1.4580    7.6880 C   0  0  0  0  0  0  0  0  0  0  0  0
    9.5390   -1.1050    7.6800 C   0  0  0  0  0  0  0  0  0  0  0  0
   10.3300   -0.8400    6.4330 C   0  0  1  0  0  0  0  0  0  0  0  0
    9.4310   -0.9230    5.3110 O   0  0  0  0  0  0  0  0  0  0  0  0
    9.8460    0.0550    4.3360 C   0  0  1  0  0  0  0  0  0  0  0  0
    8.7440    0.9660    4.0600 N   0  0  0  0  0  0  0  0  0  0  0  0
    8.7130    1.9720    3.1390 C   0  0  0  0  0  0  0  0  0  0  0  0
    7.5390    2.5600    3.1100 N   0  0  0  0  0  0  0  0  0  0  0  0
    6.7700    1.9380    4.0830 C   0  0  0  0  0  0  0  0  0  0  0  0
    5.3520    2.3480    4.3730 C   0  0  0  0  0  0  0  0  0  0  0  0
    4.6600    2.6520    3.2450 F   0  0  0  0  0  0  0  0  0  0  0  0
    5.2780    3.4250    5.1960 F   0  0  0  0  0  0  0  0  0  0  0  0
    4.6590    1.3460    4.9870 F   0  0  0  0  0  0  0  0  0  0  0  0
    7.5220    0.9390    4.6820 C   0  0  0  0  0  0  0  0  0  0  0  0
   11.0850    0.7740    4.8850 C   0  0  2  0  0  0  0  0  0  0  0  0
   12.3020    0.1300    4.4580 O   0  0  0  0  0  0  0  0  0  0  0  0
   10.9380    0.5650    6.3830 C   0  0  2  0  0  0  0  0  0  0  0  0
   12.1920    0.6700    7.0480 O   0  0  0  0  0  0  0  0  0  0  0  0
    4.5780   -4.1410    8.3920 C   0  0  0  0  0  0  0  0  0  0  0  0
    5.3340   -5.3260    8.3440 C   0  0  0  0  0  0  0  0  0  0  0  0
    4.6910   -6.5730    8.3130 C   0  0  0  0  0  0  0  0  0  0  0  0
    5.4890   -7.8050    8.2660 N   0  0  0  0  0  0  0  0  0  0  0  0
    5.7350   -8.2940    7.1560 O   0  0  0  0  0  0  0  0  0  0  0  0
    5.8710   -8.2790    9.3450 O   0  0  0  0  0  0  0  0  0  0  0  0
    3.2920   -6.6640    8.3260 C   0  0  0  0  0  0  0  0  0  0  0  0
    2.5540   -5.4890    8.3710 C   0  0  0  0  0  0  0  0  0  0  0  0
    1.1840   -5.5020    8.3820 O   0  0  0  0  0  0  0  0  0  0  0  0
    3.1820   -4.2390    8.4020 C   0  0  0  0  0  0  0  0  0  0  0  0
    2.3730   -3.1300    8.4340 O   0  0  0  0  0  0  0  0  0  0  0  0
    7.0400   -3.8040    9.0250 H   0  0  0  0  0  0  0  0  0  0  0  0
    6.7805   -0.8755    9.1346 H   0  0  0  0  0  0  0  0  0  0  0  0
    8.1137   -1.8558    9.7935 H   0  0  0  0  0  0  0  0  0  0  0  0
    7.7319   -1.5580    6.7191 H   0  0  0  0  0  0  0  0  0  0  0  0
   10.0522   -1.0040    8.6477 H   0  0  0  0  0  0  0  0  0  0  0  0
   11.1454   -1.5781    6.4120 H   0  0  0  0  0  0  0  0  0  0  0  0
   10.1145   -0.4164    3.3791 H   0  0  0  0  0  0  0  0  0  0  0  0
    9.5636    2.2548    2.5014 H   0  0  0  0  0  0  0  0  0  0  0  0
    7.2039    0.2637    5.4899 H   0  0  0  0  0  0  0  0  0  0  0  0
   11.1449    1.8216    4.5550 H   0  0  0  0  0  0  0  0  0  0  0  0
   12.0720   -0.5060    3.7550 H   0  0  0  0  0  0  0  0  0  0  0  0
   10.3209    1.3151    6.8993 H   0  0  0  0  0  0  0  0  0  0  0  0
   12.1240    0.0880    7.8330 H   0  0  0  0  0  0  0  0  0  0  0  0
    6.4327   -5.2752    8.3307 H   0  0  0  0  0  0  0  0  0  0  0  0
    2.7911   -7.6430    8.3011 H   0  0  0  0  0  0  0  0  0  0  0  0
    0.8560   -5.5010    7.4640 H   0  0  0  0  0  0  0  0  0  0  0  0
    1.4570   -3.4750    8.3680 H   0  0  0  0  0  0  0  0  0  0  0  0
  1  2  2  0
  2  3  1  0
  3  4  1  0
  4  5  1  0
  5  6  2  0
  6  7  1  0
  7  8  1  0
  8  9  1  0
  9 10  1  0
 10 11  1  0
 11 12  2  0
 12 13  1  0
 13 14  1  0
 14 15  1  0
 14 16  1  0
 14 17  1  0
 13 18  2  0
  9 19  1  0
 19 20  1  0
 19 21  1  0
 21 22  1  0
  2 23  1  0
 23 24  2  0
 24 25  1  0
 25 26  1  0
 26 27  2  0
 26 28  1  0
 25 29  2  0
 29 30  1  0
 30 31  1  0
 30 32  2  0
 32 33  1  0
 21  7  1  0
 32 23  1  0
 18 10  1  0
  3 34  1  0
  4 35  1  0
  4 36  1  0
  5 37  1  0
  6 38  1  0
  7 39  1  6
  9 40  1  6
 11 41  1  0
 18 42  1  0
 19 43  1  1
 20 44  1  0
 21 45  1  1
 22 46  1  0
 24 47  1  0
 29 48  1  0
 31 49  1  0
 33 50  1  0
M  CHG  2  26   1  28  -1
M  END
>  <meeko>  (3) 
{"is_sidechain": [false], "free_energy": -8.528, "intermolecular_energy": -12.754, "internal_energy": -1.336}

$$$$
3ozs_ligand
     RDKit          3D

 50 52  0  0  0  0  0  0  0  0999 V2000
    9.6710    0.3690    3.9850 O   0  0  0  0  0  0  0  0  0  0  0  0
   10.5810    0.6830    4.7450 C   0  0  0  0  0  0  0  0  0  0  0  0
   10.8370    0.0190    5.9200 N   0  0  0  0  0  0  0  0  0  0  0  0
   10.1630   -1.2070    6.2480 C   0  0  0  0  0  0  0  0  0  0  0  0
    9.0530   -0.8680    7.1910 C   0  0  0  0  0  0  0  0  0  0  0  0
    7.7590   -1.1610    6.9760 C   0  0  0  0  0  0  0  0  0  0  0  0
    6.6510   -0.8190    7.9270 C   0  0  1  0  0  0  0  0  0  0  0  0
    5.4330   -1.3900    7.4120 O   0  0  0  0  0  0  0  0  0  0  0  0
    4.6360   -1.8210    8.5330 C   0  0  1  0  0  0  0  0  0  0  0  0
    4.3480   -3.2430    8.4100 N   0  0  0  0  0  0  0  0  0  0  0  0
    3.1330   -3.8270    8.2040 C   0  0  0  0  0  0  0  0  0  0  0  0
    3.2410   -5.1310    8.0810 N   0  0  0  0  0  0  0  0  0  0  0  0
    4.5860   -5.4250    8.2490 C   0  0  0  0  0  0  0  0  0  0  0  0
    5.1150   -6.8320    8.1980 C   0  0  0  0  0  0  0  0  0  0  0  0
    4.1770   -7.7230    7.7840 F   0  0  0  0  0  0  0  0  0  0  0  0
    5.5770   -7.2600    9.4010 F   0  0  0  0  0  0  0  0  0  0  0  0
    6.1570   -6.9410    7.3240 F   0  0  0  0  0  0  0  0  0  0  0  0
    5.2840   -4.2450    8.4580 C   0  0  0  0  0  0  0  0  0  0  0  0
    5.4020   -1.4810    9.8170 C   0  0  2  0  0  0  0  0  0  0  0  0
    5.0410   -0.1790   10.3200 O   0  0  0  0  0  0  0  0  0  0  0  0
    6.8380   -1.4170    9.3240 C   0  0  2  0  0  0  0  0  0  0  0  0
    7.6480   -0.6210   10.1830 O   0  0  0  0  0  0  0  0  0  0  0  0
   11.4700    1.8370    4.4050 C   0  0  0  0  0  0  0  0  0  0  0  0
   12.0270    2.5590    5.4750 C   0  0  0  0  0  0  0  0  0  0  0  0
   12.8700    3.6540    5.2270 C   0  0  0  0  0  0  0  0  0  0  0  0
   13.4500    4.3980    6.3530 N   0  0  0  0  0  0  0  0  0  0  0  0
   14.6620    4.6460    6.3200 O   0  0  0  0  0  0  0  0  0  0  0  0
   12.6860    4.7340    7.2680 O   0  0  0  0  0  0  0  0  0  0  0  0
   13.1710    4.0490    3.9170 C   0  0  0  0  0  0  0  0  0  0  0  0
   12.6140    3.3330    2.8660 C   0  0  0  0  0  0  0  0  0  0  0  0
   12.8600    3.6660    1.5600 O   0  0  0  0  0  0  0  0  0  0  0  0
   11.7720    2.2400    3.0990 C   0  0  0  0  0  0  0  0  0  0  0  0
   11.2570    1.5970    2.0000 O   0  0  0  0  0  0  0  0  0  0  0  0
   11.7090    0.2400    6.3960 H   0  0  0  0  0  0  0  0  0  0  0  0
    9.7545   -1.6672    5.3362 H   0  0  0  0  0  0  0  0  0  0  0  0
   10.8599   -1.9222    6.7092 H   0  0  0  0  0  0  0  0  0  0  0  0
    9.3128   -0.3440    8.1226 H   0  0  0  0  0  0  0  0  0  0  0  0
    7.4964   -1.6841    6.0447 H   0  0  0  0  0  0  0  0  0  0  0  0
    6.6344    0.2775    8.0126 H   0  0  0  0  0  0  0  0  0  0  0  0
    3.6657   -1.3035    8.5611 H   0  0  0  0  0  0  0  0  0  0  0  0
    2.1825   -3.2762    8.1479 H   0  0  0  0  0  0  0  0  0  0  0  0
    6.3653   -4.1350    8.6274 H   0  0  0  0  0  0  0  0  0  0  0  0
    5.2080   -2.2008   10.6258 H   0  0  0  0  0  0  0  0  0  0  0  0
    5.8440    0.2300   10.6920 H   0  0  0  0  0  0  0  0  0  0  0  0
    7.3674   -2.3811    9.3078 H   0  0  0  0  0  0  0  0  0  0  0  0
    8.2400   -0.1130    9.5910 H   0  0  0  0  0  0  0  0  0  0  0  0
   11.8014    2.2648    6.5107 H   0  0  0  0  0  0  0  0  0  0  0  0
   13.8331    4.9063    3.7256 H   0  0  0  0  0  0  0  0  0  0  0  0
   13.4550    3.0010    1.1670 H   0  0  0  0  0  0  0  0  0  0  0  0
   11.2060    2.2820    1.3000 H   0  0  0  0  0  0  0  0  0  0  0  0
  1  2  2  0
  2  3  1  0
  3  4  1  0
  4  5  1  0
  5  6  2  0
  6  7  1  0
  7  8  1  0
  8  9  1  0
  9 10  1  0
 10 11  1  0
 11 12  2  0
 12 13  1  0
 13 14  1  0
 14 15  1  0
 14 16  1  0
 14 17  1  0
 13 18  2  0
  9 19  1  0
 19 20  1  0
 19 21  1  0
 21 22  1  0
  2 23  1  0
 23 24  2  0
 24 25  1  0
 25 26  1  0
 26 27  2  0
 26 28  1  0
 25 29  2  0
 29 30  1  0
 30 31  1  0
 30 32  2  0
 32 33  1  0
 21  7  1  0
 32 23  1  0
 18 10  1  0
  3 34  1  0
  4 35  1  0
  4 36  1  0
  5 37  1  0
  6 38  1  0
  7 39  1  1
  9 40  1  1
 11 41  1  0
 18 42  1  0
 19 43  1  1
 20 44  1  0
 21 45  1  6
 22 46  1  0
 24 47  1  0
 29 48  1  0
 31 49  1  0
 33 50  1  0
M  CHG  2  26   1  28  -1
M  END
>  <meeko>  (4) 
{"is_sidechain": [false], "free_energy": -8.469, "intermolecular_energy": -13.071, "internal_energy": -0.93}

$$$$
3ozs_ligand
     RDKit          3D

 50 52  0  0  0  0  0  0  0  0999 V2000
    6.3150   -2.9240    8.0100 O   0  0  0  0  0  0  0  0  0  0  0  0
    5.0970   -2.9440    8.1540 C   0  0  0  0  0  0  0  0  0  0  0  0
    4.3260   -1.8070    8.1580 N   0  0  0  0  0  0  0  0  0  0  0  0
    4.8800   -0.5270    7.8120 C   0  0  0  0  0  0  0  0  0  0  0  0
    5.0720    0.2360    9.0830 C   0  0  0  0  0  0  0  0  0  0  0  0
    6.2130    0.2510    9.7930 C   0  0  0  0  0  0  0  0  0  0  0  0
    6.3990    1.0190   11.0680 C   0  0  1  0  0  0  0  0  0  0  0  0
    5.7450    0.2910   12.1240 O   0  0  0  0  0  0  0  0  0  0  0  0
    6.5260    0.4530   13.3260 C   0  0  1  0  0  0  0  0  0  0  0  0
    6.9220   -0.8540   13.8310 N   0  0  0  0  0  0  0  0  0  0  0  0
    8.1790   -1.2660   14.1640 C   0  0  0  0  0  0  0  0  0  0  0  0
    8.1720   -2.4890   14.6440 N   0  0  0  0  0  0  0  0  0  0  0  0
    6.8540   -2.9180   14.5920 C   0  0  0  0  0  0  0  0  0  0  0  0
    6.4350   -4.2900   15.0410 C   0  0  0  0  0  0  0  0  0  0  0  0
    6.8520   -5.2630   14.1900 F   0  0  0  0  0  0  0  0  0  0  0  0
    5.0880   -4.4110   15.1640 F   0  0  0  0  0  0  0  0  0  0  0  0
    6.9620   -4.5990   16.2610 F   0  0  0  0  0  0  0  0  0  0  0  0
    6.0670   -1.8970   14.0810 C   0  0  0  0  0  0  0  0  0  0  0  0
    7.7250    1.3480   12.9930 C   0  0  2  0  0  0  0  0  0  0  0  0
    7.4320    2.7390   13.2380 O   0  0  0  0  0  0  0  0  0  0  0  0
    7.8650    1.1500   11.4930 C   0  0  2  0  0  0  0  0  0  0  0  0
    8.5400    2.2450   10.8840 O   0  0  0  0  0  0  0  0  0  0  0  0
    4.3910   -4.2500    8.3350 C   0  0  0  0  0  0  0  0  0  0  0  0
    5.1870   -5.3940    8.5120 C   0  0  0  0  0  0  0  0  0  0  0  0
    4.5890   -6.6520    8.6880 C   0  0  0  0  0  0  0  0  0  0  0  0
    5.4300   -7.8410    8.8760 N   0  0  0  0  0  0  0  0  0  0  0  0
    6.4160   -7.9750    8.1400 O   0  0  0  0  0  0  0  0  0  0  0  0
    5.1010   -8.6380    9.7650 O   0  0  0  0  0  0  0  0  0  0  0  0
    3.1940   -6.7930    8.6870 C   0  0  0  0  0  0  0  0  0  0  0  0
    2.4150   -5.6580    8.5080 C   0  0  0  0  0  0  0  0  0  0  0  0
    1.0470   -5.7220    8.4920 O   0  0  0  0  0  0  0  0  0  0  0  0
    2.9990   -4.3990    8.3320 C   0  0  0  0  0  0  0  0  0  0  0  0
    2.1520   -3.3330    8.1510 O   0  0  0  0  0  0  0  0  0  0  0  0
    3.3170   -1.9320    8.1110 H   0  0  0  0  0  0  0  0  0  0  0  0
    5.8466   -0.6606    7.3042 H   0  0  0  0  0  0  0  0  0  0  0  0
    4.2077    0.0157    7.1313 H   0  0  0  0  0  0  0  0  0  0  0  0
    4.2233    0.8241    9.4623 H   0  0  0  0  0  0  0  0  0  0  0  0
    7.0632   -0.3363    9.4158 H   0  0  0  0  0  0  0  0  0  0  0  0
    5.9902    2.0253   10.8943 H   0  0  0  0  0  0  0  0  0  0  0  0
    5.9441    0.9365   14.1245 H   0  0  0  0  0  0  0  0  0  0  0  0
    9.0840   -0.6520   14.0456 H   0  0  0  0  0  0  0  0  0  0  0  0
    4.9804   -1.9190   13.9111 H   0  0  0  0  0  0  0  0  0  0  0  0
    8.6144    1.0990   13.5905 H   0  0  0  0  0  0  0  0  0  0  0  0
    6.5090    2.7990   13.5470 H   0  0  0  0  0  0  0  0  0  0  0  0
    8.4755    0.2853   11.1937 H   0  0  0  0  0  0  0  0  0  0  0  0
    9.4290    2.2680   11.2940 H   0  0  0  0  0  0  0  0  0  0  0  0
    6.2833   -5.3037    8.5127 H   0  0  0  0  0  0  0  0  0  0  0  0
    2.7278   -7.7798    8.8248 H   0  0  0  0  0  0  0  0  0  0  0  0
    0.7480   -6.3530    9.1700 H   0  0  0  0  0  0  0  0  0  0  0  0
    1.4920   -3.4000    8.8740 H   0  0  0  0  0  0  0  0  0  0  0  0
  1  2  2  0
  2  3  1  0
  3  4  1  0
  4  5  1  0
  5  6  2  0
  6  7  1  0
  7  8  1  0
  8  9  1  0
  9 10  1  0
 10 11  1  0
 11 12  2  0
 12 13  1  0
 13 14  1  0
 14 15  1  0
 14 16  1  0
 14 17  1  0
 13 18  2  0
  9 19  1  0
 19 20  1  0
 19 21  1  0
 21 22  1  0
  2 23  1  0
 23 24  2  0
 24 25  1  0
 25 26  1  0
 26 27  2  0
 26 28  1  0
 25 29  2  0
 29 30  1  0
 30 31  1  0
 30 32  2  0
 32 33  1  0
 21  7  1  0
 32 23  1  0
 18 10  1  0
  3 34  1  0
  4 35  1  0
  4 36  1  0
  5 37  1  0
  6 38  1  0
  7 39  1  6
  9 40  1  1
 11 41  1  0
 18 42  1  0
 19 43  1  1
 20 44  1  0
 21 45  1  1
 22 46  1  0
 24 47  1  0
 29 48  1  0
 31 49  1  0
 33 50  1  0
M  CHG  2  26   1  28  -1
M  END
>  <meeko>  (5) 
{"is_sidechain": [false], "free_energy": -8.408, "intermolecular_energy": -12.638, "internal_energy": -1.27}

$$$$
3ozs_ligand
     RDKit          3D

 50 52  0  0  0  0  0  0  0  0999 V2000
    4.6380   -1.9770    8.0720 O   0  0  0  0  0  0  0  0  0  0  0  0
    5.2440   -3.0420    8.1060 C   0  0  0  0  0  0  0  0  0  0  0  0
    6.6080   -3.1310    7.9650 N   0  0  0  0  0  0  0  0  0  0  0  0
    7.4360   -1.9560    7.9490 C   0  0  0  0  0  0  0  0  0  0  0  0
    7.5210   -1.4490    9.3520 C   0  0  0  0  0  0  0  0  0  0  0  0
    7.8090   -0.1790    9.6840 C   0  0  0  0  0  0  0  0  0  0  0  0
    7.8930    0.3230   11.0950 C   0  0  1  0  0  0  0  0  0  0  0  0
    9.1170    1.0700   11.2280 O   0  0  0  0  0  0  0  0  0  0  0  0
    8.8720    2.1690   12.1290 C   0  0  1  0  0  0  0  0  0  0  0  0
    9.1790    3.4260   11.4610 N   0  0  0  0  0  0  0  0  0  0  0  0
    8.6370    4.6520   11.7140 C   0  0  0  0  0  0  0  0  0  0  0  0
    9.1850    5.5830   10.9670 N   0  0  0  0  0  0  0  0  0  0  0  0
   10.1060    4.9350   10.1550 C   0  0  0  0  0  0  0  0  0  0  0  0
   10.9320    5.6660    9.1340 C   0  0  0  0  0  0  0  0  0  0  0  0
   11.7290    4.8310    8.4180 F   0  0  0  0  0  0  0  0  0  0  0  0
   11.7340    6.6110    9.6900 F   0  0  0  0  0  0  0  0  0  0  0  0
   10.1470    6.3140    8.2260 F   0  0  0  0  0  0  0  0  0  0  0  0
   10.1040    3.5830   10.4600 C   0  0  0  0  0  0  0  0  0  0  0  0
    7.4120    2.0850   12.5900 C   0  0  2  0  0  0  0  0  0  0  0  0
    7.2850    1.3230   13.8080 O   0  0  0  0  0  0  0  0  0  0  0  0
    6.7670    1.2920   11.4660 C   0  0  2  0  0  0  0  0  0  0  0  0
    5.5760    0.6450   11.9020 O   0  0  0  0  0  0  0  0  0  0  0  0
    4.4940   -4.3200    8.3090 C   0  0  0  0  0  0  0  0  0  0  0  0
    5.2520   -5.4920    8.4790 C   0  0  0  0  0  0  0  0  0  0  0  0
    4.6120   -6.7260    8.6740 C   0  0  0  0  0  0  0  0  0  0  0  0
    5.4130   -7.9440    8.8540 N   0  0  0  0  0  0  0  0  0  0  0  0
    6.4790   -8.0320    8.2320 O   0  0  0  0  0  0  0  0  0  0  0  0
    4.9710   -8.8090    9.6220 O   0  0  0  0  0  0  0  0  0  0  0  0
    3.2140   -6.8160    8.7010 C   0  0  0  0  0  0  0  0  0  0  0  0
    2.4730   -5.6550    8.5290 C   0  0  0  0  0  0  0  0  0  0  0  0
    1.1030   -5.6680    8.5400 O   0  0  0  0  0  0  0  0  0  0  0  0
    3.0980   -4.4180    8.3340 C   0  0  0  0  0  0  0  0  0  0  0  0
    2.2870   -3.3230    8.1620 O   0  0  0  0  0  0  0  0  0  0  0  0
    7.0380   -4.0280    8.1770 H   0  0  0  0  0  0  0  0  0  0  0  0
    8.4406   -2.2092    7.5794 H   0  0  0  0  0  0  0  0  0  0  0  0
    7.0096   -1.1899    7.2847 H   0  0  0  0  0  0  0  0  0  0  0  0
    7.3354   -2.1632   10.1678 H   0  0  0  0  0  0  0  0  0  0  0  0
    7.9948    0.5372    8.8700 H   0  0  0  0  0  0  0  0  0  0  0  0
    7.8298   -0.5590   11.7493 H   0  0  0  0  0  0  0  0  0  0  0  0
    9.5198    2.1165   13.0165 H   0  0  0  0  0  0  0  0  0  0  0  0
    7.8414    4.8375   12.4506 H   0  0  0  0  0  0  0  0  0  0  0  0
   10.7178    2.7974    9.9951 H   0  0  0  0  0  0  0  0  0  0  0  0
    6.9747    3.0753   12.7850 H   0  0  0  0  0  0  0  0  0  0  0  0
    6.3490    1.0690   13.9050 H   0  0  0  0  0  0  0  0  0  0  0  0
    6.4231    1.8931   10.6114 H   0  0  0  0  0  0  0  0  0  0  0  0
    4.8500    1.0530   11.3890 H   0  0  0  0  0  0  0  0  0  0  0  0
    6.3507   -5.4417    8.4591 H   0  0  0  0  0  0  0  0  0  0  0  0
    2.7153   -7.7843    8.8549 H   0  0  0  0  0  0  0  0  0  0  0  0
    0.7870   -6.4350    8.0290 H   0  0  0  0  0  0  0  0  0  0  0  0
    1.4230   -3.6840    7.8700 H   0  0  0  0  0  0  0  0  0  0  0  0
  1  2  2  0
  2  3  1  0
  3  4  1  0
  4  5  1  0
  5  6  2  0
  6  7  1  0
  7  8  1  0
  8  9  1  0
  9 10  1  0
 10 11  1  0
 11 12  2  0
 12 13  1  0
 13 14  1  0
 14 15  1  0
 14 16  1  0
 14 17  1  0
 13 18  2  0
  9 19  1  0
 19 20  1  0
 19 21  1  0
 21 22  1  0
  2 23  1  0
 23 24  2  0
 24 25  1  0
 25 26  1  0
 26 27  2  0
 26 28  1  0
 25 29  2  0
 29 30  1  0
 30 31  1  0
 30 32  2  0
 32 33  1  0
 21  7  1  0
 32 23  1  0
 18 10  1  0
  3 34  1  0
  4 35  1  0
  4 36  1  0
  5 37  1  0
  6 38  1  0
  7 39  1  1
  9 40  1  1
 11 41  1  0
 18 42  1  0
 19 43  1  1
 20 44  1  0
 21 45  1  6
 22 46  1  0
 24 47  1  0
 29 48  1  0
 31 49  1  0
 33 50  1  0
M  CHG  2  26   1  28  -1
M  END
>  <meeko>  (6) 
{"is_sidechain": [false], "free_energy": -8.301, "intermolecular_energy": -12.704, "internal_energy": -1.041}

$$$$
3ozs_ligand
     RDKit          3D

 50 52  0  0  0  0  0  0  0  0999 V2000
    6.1540   -2.7970    7.7530 O   0  0  0  0  0  0  0  0  0  0  0  0
    5.1040   -2.8880    8.3810 C   0  0  0  0  0  0  0  0  0  0  0  0
    4.5410   -1.8300    9.0530 N   0  0  0  0  0  0  0  0  0  0  0  0
    5.0560   -0.4960    8.9130 C   0  0  0  0  0  0  0  0  0  0  0  0
    6.1380   -0.3250    9.9300 C   0  0  0  0  0  0  0  0  0  0  0  0
    6.3310   -1.1440   10.9770 C   0  0  0  0  0  0  0  0  0  0  0  0
    7.4190   -0.9670   11.9940 C   0  0  1  0  0  0  0  0  0  0  0  0
    7.9580    0.3590   11.8410 O   0  0  0  0  0  0  0  0  0  0  0  0
    8.3110    0.8490   13.1500 C   0  0  1  0  0  0  0  0  0  0  0  0
    7.6010    2.0930   13.4140 N   0  0  0  0  0  0  0  0  0  0  0  0
    7.1540    3.0010   12.5000 C   0  0  0  0  0  0  0  0  0  0  0  0
    6.4990    3.9820   13.0770 N   0  0  0  0  0  0  0  0  0  0  0  0
    6.5460    3.7290   14.4410 C   0  0  0  0  0  0  0  0  0  0  0  0
    5.9180    4.6470   15.4530 C   0  0  0  0  0  0  0  0  0  0  0  0
    6.6170    5.8010   15.6090 F   0  0  0  0  0  0  0  0  0  0  0  0
    5.8060    4.0740   16.6790 F   0  0  0  0  0  0  0  0  0  0  0  0
    4.6570    5.0120   15.0810 F   0  0  0  0  0  0  0  0  0  0  0  0
    7.2380    2.5470   14.6560 C   0  0  0  0  0  0  0  0  0  0  0  0
    7.9840   -0.2480   14.1700 C   0  0  2  0  0  0  0  0  0  0  0  0
    9.1190   -1.1060   14.4070 O   0  0  0  0  0  0  0  0  0  0  0  0
    6.9230   -1.0550   13.4400 C   0  0  2  0  0  0  0  0  0  0  0  0
    6.8490   -2.3870   13.9390 O   0  0  0  0  0  0  0  0  0  0  0  0
    4.3800   -4.1960    8.4360 C   0  0  0  0  0  0  0  0  0  0  0  0
    5.1610   -5.3600    8.5460 C   0  0  0  0  0  0  0  0  0  0  0  0
    4.5470   -6.6210    8.6030 C   0  0  0  0  0  0  0  0  0  0  0  0
    5.3710   -7.8300    8.7230 N   0  0  0  0  0  0  0  0  0  0  0  0
    4.9150   -8.7800    9.3710 O   0  0  0  0  0  0  0  0  0  0  0  0
    6.4760   -7.8240    8.1630 O   0  0  0  0  0  0  0  0  0  0  0  0
    3.1510   -6.7450    8.5490 C   0  0  0  0  0  0  0  0  0  0  0  0
    2.3880   -5.5910    8.4370 C   0  0  0  0  0  0  0  0  0  0  0  0
    1.0210   -5.6380    8.3740 O   0  0  0  0  0  0  0  0  0  0  0  0
    2.9880   -4.3280    8.3790 C   0  0  0  0  0  0  0  0  0  0  0  0
    2.1570   -3.2420    8.2570 O   0  0  0  0  0  0  0  0  0  0  0  0
    3.5910   -1.9530    9.3990 H   0  0  0  0  0  0  0  0  0  0  0  0
    5.4651   -0.3552    7.9016 H   0  0  0  0  0  0  0  0  0  0  0  0
    4.2585    0.2460    9.0661 H   0  0  0  0  0  0  0  0  0  0  0  0
    6.8219    0.5286    9.8132 H   0  0  0  0  0  0  0  0  0  0  0  0
    5.6482   -1.9982   11.0960 H   0  0  0  0  0  0  0  0  0  0  0  0
    8.1480   -1.7724   11.8212 H   0  0  0  0  0  0  0  0  0  0  0  0
    9.3847    1.0775   13.2198 H   0  0  0  0  0  0  0  0  0  0  0  0
    7.3211    2.9216   11.4157 H   0  0  0  0  0  0  0  0  0  0  0  0
    7.4520    2.0710   15.6243 H   0  0  0  0  0  0  0  0  0  0  0  0
    7.6835    0.1602   15.1462 H   0  0  0  0  0  0  0  0  0  0  0  0
    9.3280   -1.5610   13.5710 H   0  0  0  0  0  0  0  0  0  0  0  0
    5.8934   -0.6870   13.5606 H   0  0  0  0  0  0  0  0  0  0  0  0
    7.5950   -2.4760   14.5670 H   0  0  0  0  0  0  0  0  0  0  0  0
    6.2575   -5.2822    8.5876 H   0  0  0  0  0  0  0  0  0  0  0  0
    2.6718   -7.7341    8.5944 H   0  0  0  0  0  0  0  0  0  0  0  0
    0.7180   -5.1160    7.6090 H   0  0  0  0  0  0  0  0  0  0  0  0
    2.7310   -2.4590    8.4000 H   0  0  0  0  0  0  0  0  0  0  0  0
  1  2  2  0
  2  3  1  0
  3  4  1  0
  4  5  1  0
  5  6  2  0
  6  7  1  0
  7  8  1  0
  8  9  1  0
  9 10  1  0
 10 11  1  0
 11 12  2  0
 12 13  1  0
 13 14  1  0
 14 15  1  0
 14 16  1  0
 14 17  1  0
 13 18  2  0
  9 19  1  0
 19 20  1  0
 19 21  1  0
 21 22  1  0
  2 23  1  0
 23 24  2  0
 24 25  1  0
 25 26  1  0
 26 27  2  0
 26 28  1  0
 25 29  2  0
 29 30  1  0
 30 31  1  0
 30 32  2  0
 32 33  1  0
 21  7  1  0
 32 23  1  0
 18 10  1  0
  3 34  1  0
  4 35  1  0
  4 36  1  0
  5 37  1  0
  6 38  1  0
  7 39  1  6
  9 40  1  6
 11 41  1  0
 18 42  1  0
 19 43  1  1
 20 44  1  0
 21 45  1  6
 22 46  1  0
 24 47  1  0
 29 48  1  0
 31 49  1  0
 33 50  1  0
M  CHG  2  26   1  28  -1
M  END
>  <meeko>  (7) 
{"is_sidechain": [false], "free_energy": -8.235, "intermolecular_energy": -12.522, "internal_energy": -1.122}

$$$$
3ozs_ligand
     RDKit          3D

 50 52  0  0  0  0  0  0  0  0999 V2000
    4.6880   -1.6520    7.6920 O   0  0  0  0  0  0  0  0  0  0  0  0
    5.0530   -2.5240    8.4740 C   0  0  0  0  0  0  0  0  0  0  0  0
    6.0230   -2.3180    9.4240 N   0  0  0  0  0  0  0  0  0  0  0  0
    6.5490   -1.0050    9.6820 C   0  0  0  0  0  0  0  0  0  0  0  0
    8.0090   -1.0370    9.3610 C   0  0  0  0  0  0  0  0  0  0  0  0
    8.8870   -0.0870    9.7230 C   0  0  0  0  0  0  0  0  0  0  0  0
   10.3510   -0.1250    9.3980 C   0  0  1  0  0  0  0  0  0  0  0  0
   10.5050   -0.7810    8.1260 O   0  0  0  0  0  0  0  0  0  0  0  0
   11.5980   -0.1490    7.4290 C   0  0  1  0  0  0  0  0  0  0  0  0
   11.1310    0.3600    6.1470 N   0  0  0  0  0  0  0  0  0  0  0  0
   11.8790    0.9360    5.1630 C   0  0  0  0  0  0  0  0  0  0  0  0
   11.1480    1.2260    4.1110 N   0  0  0  0  0  0  0  0  0  0  0  0
    9.8490    0.8580    4.4290 C   0  0  0  0  0  0  0  0  0  0  0  0
    8.7010    1.0520    3.4770 C   0  0  0  0  0  0  0  0  0  0  0  0
    7.9590   -0.0750    3.3240 F   0  0  0  0  0  0  0  0  0  0  0  0
    9.1080    1.4390    2.2410 F   0  0  0  0  0  0  0  0  0  0  0  0
    7.8440    2.0160    3.9190 F   0  0  0  0  0  0  0  0  0  0  0  0
    9.8330    0.3160    5.7050 C   0  0  0  0  0  0  0  0  0  0  0  0
   12.1610    0.9540    8.3340 C   0  0  2  0  0  0  0  0  0  0  0  0
   13.2370    0.4630    9.1600 O   0  0  0  0  0  0  0  0  0  0  0  0
   10.9760    1.2630    9.2340 C   0  0  2  0  0  0  0  0  0  0  0  0
   11.3940    1.8510   10.4620 O   0  0  0  0  0  0  0  0  0  0  0  0
    4.4320   -3.8840    8.4160 C   0  0  0  0  0  0  0  0  0  0  0  0
    5.3020   -4.9870    8.3660 C   0  0  0  0  0  0  0  0  0  0  0  0
    4.7860   -6.2920    8.3100 C   0  0  0  0  0  0  0  0  0  0  0  0
    5.7030   -7.4380    8.2620 N   0  0  0  0  0  0  0  0  0  0  0  0
    5.8410   -8.1130    9.2900 O   0  0  0  0  0  0  0  0  0  0  0  0
    6.2840   -7.6600    7.1910 O   0  0  0  0  0  0  0  0  0  0  0  0
    3.4030   -6.5200    8.3000 C   0  0  0  0  0  0  0  0  0  0  0  0
    2.5520   -5.4250    8.3460 C   0  0  0  0  0  0  0  0  0  0  0  0
    1.1900   -5.5730    8.3360 O   0  0  0  0  0  0  0  0  0  0  0  0
    3.0520   -4.1190    8.4020 C   0  0  0  0  0  0  0  0  0  0  0  0
    2.1380   -3.0960    8.4340 O   0  0  0  0  0  0  0  0  0  0  0  0
    6.1380   -3.0380   10.1330 H   0  0  0  0  0  0  0  0  0  0  0  0
    6.0405   -0.2648    9.0467 H   0  0  0  0  0  0  0  0  0  0  0  0
    6.3885   -0.7220   10.7328 H   0  0  0  0  0  0  0  0  0  0  0  0
    8.3898   -1.8965    8.7898 H   0  0  0  0  0  0  0  0  0  0  0  0
    8.5084    0.7735   10.2941 H   0  0  0  0  0  0  0  0  0  0  0  0
   10.8484   -0.6390   10.2337 H   0  0  0  0  0  0  0  0  0  0  0  0
   12.4049   -0.8639    7.2101 H   0  0  0  0  0  0  0  0  0  0  0  0
   12.9584    1.1329    5.2405 H   0  0  0  0  0  0  0  0  0  0  0  0
    8.9593   -0.0699    6.2507 H   0  0  0  0  0  0  0  0  0  0  0  0
   12.5596    1.8052    7.7626 H   0  0  0  0  0  0  0  0  0  0  0  0
   13.8010   -0.1070    8.6060 H   0  0  0  0  0  0  0  0  0  0  0  0
   10.2689    2.0041    8.8330 H   0  0  0  0  0  0  0  0  0  0  0  0
   11.9910    2.5850   10.2130 H   0  0  0  0  0  0  0  0  0  0  0  0
    6.3904   -4.8275    8.3707 H   0  0  0  0  0  0  0  0  0  0  0  0
    3.0016   -7.5432    8.2567 H   0  0  0  0  0  0  0  0  0  0  0  0
    0.7780   -4.7700    8.7040 H   0  0  0  0  0  0  0  0  0  0  0  0
    1.6790   -3.1310    7.5680 H   0  0  0  0  0  0  0  0  0  0  0  0
  1  2  2  0
  2  3  1  0
  3  4  1  0
  4  5  1  0
  5  6  2  0
  6  7  1  0
  7  8  1  0
  8  9  1  0
  9 10  1  0
 10 11  1  0
 11 12  2  0
 12 13  1  0
 13 14  1  0
 14 15  1  0
 14 16  1  0
 14 17  1  0
 13 18  2  0
  9 19  1  0
 19 20  1  0
 19 21  1  0
 21 22  1  0
  2 23  1  0
 23 24  2  0
 24 25  1  0
 25 26  1  0
 26 27  2  0
 26 28  1  0
 25 29  2  0
 29 30  1  0
 30 31  1  0
 30 32  2  0
 32 33  1  0
 21  7  1  0
 32 23  1  0
 18 10  1  0
  3 34  1  0
  4 35  1  0
  4 36  1  0
  5 37  1  0
  6 38  1  0
  7 39  1  1
  9 40  1  6
 11 41  1  0
 18 42  1  0
 19 43  1  6
 20 44  1  0
 21 45  1  6
 22 46  1  0
 24 47  1  0
 29 48  1  0
 31 49  1  0
 33 50  1  0
M  CHG  2  26   1  28  -1
M  END
>  <meeko>  (8) 
{"is_sidechain": [false], "free_energy": -8.196, "intermolecular_energy": -12.344, "internal_energy": -1.24}

$$$$
3ozs_ligand
     RDKit          3D

 50 52  0  0  0  0  0  0  0  0999 V2000
   11.4310   -1.0760    5.2150 O   0  0  0  0  0  0  0  0  0  0  0  0
   11.1920    0.0880    5.5210 C   0  0  0  0  0  0  0  0  0  0  0  0
   10.7950    0.4630    6.7810 N   0  0  0  0  0  0  0  0  0  0  0  0
   10.8070   -0.4670    7.8770 C   0  0  0  0  0  0  0  0  0  0  0  0
    9.5470   -0.2580    8.6540 C   0  0  0  0  0  0  0  0  0  0  0  0
    8.3740   -0.8500    8.3700 C   0  0  0  0  0  0  0  0  0  0  0  0
    7.1130   -0.6370    9.1550 C   0  0  1  0  0  0  0  0  0  0  0  0
    6.0030   -1.0170    8.3210 O   0  0  0  0  0  0  0  0  0  0  0  0
    4.9970   -1.6140    9.1650 C   0  0  1  0  0  0  0  0  0  0  0  0
    4.7060   -2.9630    8.6980 N   0  0  0  0  0  0  0  0  0  0  0  0
    5.5980   -3.9630    8.4480 C   0  0  0  0  0  0  0  0  0  0  0  0
    4.9900   -5.0730    8.0970 N   0  0  0  0  0  0  0  0  0  0  0  0
    3.6340   -4.7820    8.0790 C   0  0  0  0  0  0  0  0  0  0  0  0
    2.5960   -5.8020    7.7010 C   0  0  0  0  0  0  0  0  0  0  0  0
    3.0390   -7.0760    7.8630 F   0  0  0  0  0  0  0  0  0  0  0  0
    2.1870   -5.6780    6.4120 F   0  0  0  0  0  0  0  0  0  0  0  0
    1.4770   -5.6860    8.4720 F   0  0  0  0  0  0  0  0  0  0  0  0
    3.4510   -3.4590    8.4530 C   0  0  0  0  0  0  0  0  0  0  0  0
    5.5140   -1.5860   10.6080 C   0  0  2  0  0  0  0  0  0  0  0  0
    5.0940   -0.3910   11.2970 O   0  0  0  0  0  0  0  0  0  0  0  0
    7.0180   -1.5130   10.4070 C   0  0  2  0  0  0  0  0  0  0  0  0
    7.6690   -0.9560   11.5450 O   0  0  0  0  0  0  0  0  0  0  0  0
   11.3320    1.1700    4.4980 C   0  0  0  0  0  0  0  0  0  0  0  0
   12.6350    1.5790    4.1670 C   0  0  0  0  0  0  0  0  0  0  0  0
   12.8380    2.5900    3.2140 C   0  0  0  0  0  0  0  0  0  0  0  0
   14.2040    3.0080    2.8720 N   0  0  0  0  0  0  0  0  0  0  0  0
   14.3580    3.7260    1.8770 O   0  0  0  0  0  0  0  0  0  0  0  0
   15.1210    2.6140    3.6060 O   0  0  0  0  0  0  0  0  0  0  0  0
   11.7530    3.2110    2.5790 C   0  0  0  0  0  0  0  0  0  0  0  0
   10.4700    2.8030    2.9150 C   0  0  0  0  0  0  0  0  0  0  0  0
    9.3630    3.3670    2.3380 O   0  0  0  0  0  0  0  0  0  0  0  0
   10.2530    1.7960    3.8620 C   0  0  0  0  0  0  0  0  0  0  0  0
    8.9500    1.4640    4.1410 O   0  0  0  0  0  0  0  0  0  0  0  0
   10.7860    1.4600    6.9870 H   0  0  0  0  0  0  0  0  0  0  0  0
   10.8467   -1.4978    7.4951 H   0  0  0  0  0  0  0  0  0  0  0  0
   11.6883   -0.3045    8.5149 H   0  0  0  0  0  0  0  0  0  0  0  0
    9.5821    0.4255    9.5152 H   0  0  0  0  0  0  0  0  0  0  0  0
    8.3362   -1.5330    7.5086 H   0  0  0  0  0  0  0  0  0  0  0  0
    7.1053    0.4191    9.4625 H   0  0  0  0  0  0  0  0  0  0  0  0
    4.0508   -1.0544    9.1247 H   0  0  0  0  0  0  0  0  0  0  0  0
    6.6895   -3.8540    8.5299 H   0  0  0  0  0  0  0  0  0  0  0  0
    2.4963   -2.9190    8.5360 H   0  0  0  0  0  0  0  0  0  0  0  0
    5.1543   -2.4401   11.2006 H   0  0  0  0  0  0  0  0  0  0  0  0
    5.2400   -0.5300   12.2510 H   0  0  0  0  0  0  0  0  0  0  0  0
    7.5183   -2.4852   10.2865 H   0  0  0  0  0  0  0  0  0  0  0  0
    6.9860   -0.4300   12.0090 H   0  0  0  0  0  0  0  0  0  0  0  0
   13.4990    1.1055    4.6562 H   0  0  0  0  0  0  0  0  0  0  0  0
   11.9150    4.0025    1.8325 H   0  0  0  0  0  0  0  0  0  0  0  0
    9.2250    2.9740    1.4570 H   0  0  0  0  0  0  0  0  0  0  0  0
    8.9670    1.0890    5.0470 H   0  0  0  0  0  0  0  0  0  0  0  0
  1  2  2  0
  2  3  1  0
  3  4  1  0
  4  5  1  0
  5  6  2  0
  6  7  1  0
  7  8  1  0
  8  9  1  0
  9 10  1  0
 10 11  1  0
 11 12  2  0
 12 13  1  0
 13 14  1  0
 14 15  1  0
 14 16  1  0
 14 17  1  0
 13 18  2  0
  9 19  1  0
 19 20  1  0
 19 21  1  0
 21 22  1  0
  2 23  1  0
 23 24  2  0
 24 25  1  0
 25 26  1  0
 26 27  2  0
 26 28  1  0
 25 29  2  0
 29 30  1  0
 30 31  1  0
 30 32  2  0
 32 33  1  0
 21  7  1  0
 32 23  1  0
 18 10  1  0
  3 34  1  0
  4 35  1  0
  4 36  1  0
  5 37  1  0
  6 38  1  0
  7 39  1  1
  9 40  1  1
 11 41  1  0
 18 42  1  0
 19 43  1  1
 20 44  1  0
 21 45  1  6
 22 46  1  0
 24 47  1  0
 29 48  1  0
 31 49  1  0
 33 50  1  0
M  CHG  2  26   1  28  -1
M  END
>  <meeko>  (9) 
{"is_sidechain": [false], "free_energy": -8.014, "intermolecular_energy": -12.412, "internal_energy": -0.894}

$$$$
