
     RDKit          3D

 19 20  0  0  0  0  0  0  0  0999 V2000
   -2.0640   -2.4660   27.8700 N   0  0  0  0  0  0  0  0  0  0  0  0
   -2.3690   -3.6800   28.3910 C   0  0  0  0  0  0  0  0  0  0  0  0
   -3.1810   -3.7930   29.5250 C   0  0  0  0  0  0  0  0  0  0  0  0
   -3.4660   -5.0740   30.0220 C   0  0  0  0  0  0  0  0  0  0  0  0
   -2.9410   -6.1640   29.3580 N   0  0  0  0  0  0  0  0  0  0  0  0
   -3.2480   -7.5350   29.8310 C   0  0  2  0  0  0  0  0  0  0  0  0
   -4.6120   -7.8040   29.4880 O   0  0  0  0  0  0  0  0  0  0  0  0
   -4.9690   -9.1650   29.7750 C   0  0  2  0  0  0  0  0  0  0  0  0
   -6.4010   -9.3760   29.3270 C   0  0  0  0  0  0  0  0  0  0  0  0
   -7.3000   -8.7670   30.1940 O   0  0  0  0  0  0  0  0  0  0  0  0
   -4.8120   -9.4710   31.2670 C   0  0  1  0  0  0  0  0  0  0  0  0
   -5.0310  -10.8210   31.4720 O   0  0  0  0  0  0  0  0  0  0  0  0
   -3.4160   -9.1240   31.7190 C   0  0  2  0  0  0  0  0  0  0  0  0
   -3.3300   -9.2510   33.0810 F   0  0  0  0  0  0  0  0  0  0  0  0
   -3.0140   -7.7070   31.3320 C   0  0  1  0  0  0  0  0  0  0  0  0
   -1.6510   -7.5090   31.6150 O   0  0  0  0  0  0  0  0  0  0  0  0
   -2.1610   -6.0230   28.2280 C   0  0  0  0  0  0  0  0  0  0  0  0
   -1.7300   -7.0220   27.6430 O   0  0  0  0  0  0  0  0  0  0  0  0
   -1.8840   -4.7680   27.7760 N   0  0  0  0  0  0  0  0  0  0  0  0
  2  1  1  0
  3  2  1  0
  4  3  2  0
  5  4  1  0
  6  5  1  1
  7  6  1  0
  8  7  1  0
  8  9  1  1
 10  9  1  0
 11  8  1  0
 11 12  1  6
 13 11  1  0
 13 14  1  1
 15 13  1  0
 15  6  1  0
 15 16  1  6
 17  5  1  0
 18 17  2  0
 19 17  1  0
 19  2  2  0
M  CHG  1  19   1
M  END
$$$$
