3ui7_ligand
     RDKit          3D

 47 50  0  0  0  0  0  0  0  0999 V2000
   -2.4830    6.2370    6.1300 C   0  0  0  0  0  0  0  0  0  0  0  0
   -1.6490    6.9290    5.2040 O   0  0  0  0  0  0  0  0  0  0  0  0
   -1.8180    8.2820    5.1130 C   0  0  0  0  0  0  0  0  0  0  0  0
   -2.0120    9.1590    6.1640 C   0  0  0  0  0  0  0  0  0  0  0  0
   -2.1780   10.5340    5.9190 C   0  0  0  0  0  0  0  0  0  0  0  0
   -2.4060   11.4540    7.0970 C   0  0  0  0  0  0  0  0  0  0  0  0
   -2.1390   11.0560    4.6210 C   0  0  0  0  0  0  0  0  0  0  0  0
   -2.3120   12.3820    4.5080 N   0  0  0  0  0  0  0  0  0  0  0  0
   -2.3090   12.8590    3.2520 C   0  0  0  0  0  0  0  0  0  0  0  0
   -2.4840   14.1270    2.8980 N   0  0  0  0  0  0  0  0  0  0  0  0
   -2.4310   14.1050    1.5640 N   0  0  0  0  0  0  0  0  0  0  0  0
   -2.1790   12.8600    1.0250 C   0  0  0  0  0  0  0  0  0  0  0  0
   -2.1300   12.7060   -0.4500 C   0  0  0  0  0  0  0  0  0  0  0  0
   -2.0790   12.0200    2.1200 C   0  0  0  0  0  0  0  0  0  0  0  0
   -1.8260   10.6380    2.1580 C   0  0  0  0  0  0  0  0  0  0  0  0
   -1.4390    9.7630    1.0060 C   0  0  0  0  0  0  0  0  0  0  0  0
    0.0650    9.6070    0.8490 N   0  0  0  0  0  0  0  0  0  0  0  0
    0.4880    8.1640    0.5770 C   0  0  0  0  0  0  0  0  0  0  0  0
    0.8030    7.9720   -0.9080 C   0  0  0  0  0  0  0  0  0  0  0  0
    1.8760    8.8040   -1.3640 O   0  0  0  0  0  0  0  0  0  0  0  0
    2.0070   10.0500   -0.6710 C   0  0  0  0  0  0  0  0  0  0  0  0
    0.6670   10.5870   -0.1630 C   0  0  0  0  0  0  0  0  0  0  0  0
   -1.9110   10.1550    3.5120 C   0  0  0  0  0  0  0  0  0  0  0  0
   -1.7770    8.7810    3.8100 C   0  0  0  0  0  0  0  0  0  0  0  0
   -2.1790    6.4892    7.1566 H   0  0  0  0  0  0  0  0  0  0  0  0
   -3.5303    6.5351    5.9740 H   0  0  0  0  0  0  0  0  0  0  0  0
   -2.3833    5.1527    5.9740 H   0  0  0  0  0  0  0  0  0  0  0  0
   -2.0366    8.7798    7.1963 H   0  0  0  0  0  0  0  0  0  0  0  0
   -2.2669   10.8928    8.0328 H   0  0  0  0  0  0  0  0  0  0  0  0
   -1.6867   12.2853    7.0576 H   0  0  0  0  0  0  0  0  0  0  0  0
   -3.4302   11.8532    7.0576 H   0  0  0  0  0  0  0  0  0  0  0  0
   -2.5820   14.9820    1.0720 H   0  0  0  0  0  0  0  0  0  0  0  0
   -1.8053   11.6856   -0.7015 H   0  0  0  0  0  0  0  0  0  0  0  0
   -3.1300   12.8868   -0.8710 H   0  0  0  0  0  0  0  0  0  0  0  0
   -1.4183   13.4315   -0.8710 H   0  0  0  0  0  0  0  0  0  0  0  0
   -1.8792    8.7669    1.1607 H   0  0  0  0  0  0  0  0  0  0  0  0
   -1.8143   10.2440    0.0907 H   0  0  0  0  0  0  0  0  0  0  0  0
    0.4810    9.8550    1.7560 H   0  0  0  0  0  0  0  0  0  0  0  0
    1.3841    7.9308    1.1708 H   0  0  0  0  0  0  0  0  0  0  0  0
   -0.3362    7.4915    0.8570 H   0  0  0  0  0  0  0  0  0  0  0  0
    1.0795    6.9204   -1.0747 H   0  0  0  0  0  0  0  0  0  0  0  0
   -0.0965    8.2545   -1.4747 H   0  0  0  0  0  0  0  0  0  0  0  0
    2.6771    9.9055    0.1893 H   0  0  0  0  0  0  0  0  0  0  0  0
    2.4113   10.7850   -1.3826 H   0  0  0  0  0  0  0  0  0  0  0  0
    0.8244   11.5618    0.3218 H   0  0  0  0  0  0  0  0  0  0  0  0
   -0.0233   10.7022   -1.0117 H   0  0  0  0  0  0  0  0  0  0  0  0
   -1.6342    8.0737    2.9797 H   0  0  0  0  0  0  0  0  0  0  0  0
  1  2  1  0
  2  3  1  0
  3  4  1  0
  4  5  2  0
  5  6  1  0
  5  7  1  0
  7  8  2  0
  8  9  1  0
  9 10  2  0
 10 11  1  0
 11 12  1  0
 12 13  1  0
 12 14  2  0
 14 15  1  0
 15 16  1  0
 16 17  1  0
 17 18  1  0
 18 19  1  0
 19 20  1  0
 20 21  1  0
 21 22  1  0
 15 23  2  0
 23 24  1  0
 24  3  2  0
 23  7  1  0
 14  9  1  0
 22 17  1  0
  1 25  1  0
  1 26  1  0
  1 27  1  0
  4 28  1  0
  6 29  1  0
  6 30  1  0
  6 31  1  0
 11 32  1  0
 13 33  1  0
 13 34  1  0
 13 35  1  0
 16 36  1  0
 16 37  1  0
 17 38  1  0
 18 39  1  0
 18 40  1  0
 19 41  1  0
 19 42  1  0
 21 43  1  0
 21 44  1  0
 22 45  1  0
 22 46  1  0
 24 47  1  0
M  CHG  1  17   1
M  END
>  <meeko>  (1) 
{"is_sidechain": [false], "free_energy": -7.741, "intermolecular_energy": -9.099, "internal_energy": -0.521}

$$$$
3ui7_ligand
     RDKit          3D

 47 50  0  0  0  0  0  0  0  0999 V2000
   -4.3660   13.7610    4.1940 C   0  0  0  0  0  0  0  0  0  0  0  0
   -3.2090   13.5220    3.3970 O   0  0  0  0  0  0  0  0  0  0  0  0
   -2.6140   12.2980    3.5250 C   0  0  0  0  0  0  0  0  0  0  0  0
   -2.4960   11.5590    4.6880 C   0  0  0  0  0  0  0  0  0  0  0  0
   -1.8490   10.3090    4.6710 C   0  0  0  0  0  0  0  0  0  0  0  0
   -1.7260    9.5440    5.9690 C   0  0  0  0  0  0  0  0  0  0  0  0
   -1.3240    9.7730    3.4900 C   0  0  0  0  0  0  0  0  0  0  0  0
   -0.7280    8.5760    3.5950 N   0  0  0  0  0  0  0  0  0  0  0  0
   -0.1980    8.0930    2.4580 C   0  0  0  0  0  0  0  0  0  0  0  0
    0.4570    6.9450    2.3280 N   0  0  0  0  0  0  0  0  0  0  0  0
    0.8140    6.9170    1.0410 N   0  0  0  0  0  0  0  0  0  0  0  0
    0.3720    7.9960    0.3030 C   0  0  0  0  0  0  0  0  0  0  0  0
    0.7350    8.0900   -1.1310 C   0  0  0  0  0  0  0  0  0  0  0  0
   -0.3120    8.7820    1.2130 C   0  0  0  0  0  0  0  0  0  0  0  0
   -0.9750   10.0050    1.0080 C   0  0  0  0  0  0  0  0  0  0  0  0
   -1.2360   10.6760   -0.3050 C   0  0  0  0  0  0  0  0  0  0  0  0
   -0.4140   11.9380   -0.5090 N   0  0  0  0  0  0  0  0  0  0  0  0
    1.0000   11.6530   -1.0110 C   0  0  0  0  0  0  0  0  0  0  0  0
    1.0980   11.9300   -2.5130 C   0  0  0  0  0  0  0  0  0  0  0  0
    0.8150   13.2930   -2.8490 O   0  0  0  0  0  0  0  0  0  0  0  0
   -0.1060   13.9510   -1.9700 C   0  0  0  0  0  0  0  0  0  0  0  0
   -1.1300   12.9890   -1.3630 C   0  0  0  0  0  0  0  0  0  0  0  0
   -1.4640   10.5220    2.2600 C   0  0  0  0  0  0  0  0  0  0  0  0
   -2.0970   11.7820    2.3360 C   0  0  0  0  0  0  0  0  0  0  0  0
   -4.0957   13.7052    5.2588 H   0  0  0  0  0  0  0  0  0  0  0  0
   -4.7660   14.7607    3.9692 H   0  0  0  0  0  0  0  0  0  0  0  0
   -5.1294   13.0016    3.9692 H   0  0  0  0  0  0  0  0  0  0  0  0
   -2.9092   11.9494    5.6297 H   0  0  0  0  0  0  0  0  0  0  0  0
   -1.8375   10.2377    6.8154 H   0  0  0  0  0  0  0  0  0  0  0  0
   -2.5122    8.7763    6.0181 H   0  0  0  0  0  0  0  0  0  0  0  0
   -0.7387    9.0614    6.0181 H   0  0  0  0  0  0  0  0  0  0  0  0
    1.3710    6.1270    0.7240 H   0  0  0  0  0  0  0  0  0  0  0  0
    1.7961    8.3648   -1.2234 H   0  0  0  0  0  0  0  0  0  0  0  0
    0.5643    7.1180   -1.6169 H   0  0  0  0  0  0  0  0  0  0  0  0
    0.1140    8.8570   -1.6169 H   0  0  0  0  0  0  0  0  0  0  0  0
   -0.9959    9.9686   -1.1124 H   0  0  0  0  0  0  0  0  0  0  0  0
   -2.2954   10.9720   -0.3147 H   0  0  0  0  0  0  0  0  0  0  0  0
   -0.3010   12.3670    0.4190 H   0  0  0  0  0  0  0  0  0  0  0  0
    1.7118   12.2989   -0.4760 H   0  0  0  0  0  0  0  0  0  0  0  0
    1.2380   10.5950   -0.8267 H   0  0  0  0  0  0  0  0  0  0  0  0
    2.1180   11.6907   -2.8480 H   0  0  0  0  0  0  0  0  0  0  0  0
    0.3447   11.3039   -3.0135 H   0  0  0  0  0  0  0  0  0  0  0  0
    0.4614   14.4224   -1.1540 H   0  0  0  0  0  0  0  0  0  0  0  0
   -0.6584   14.6950   -2.5627 H   0  0  0  0  0  0  0  0  0  0  0  0
   -1.8328   13.5540   -0.7330 H   0  0  0  0  0  0  0  0  0  0  0  0
   -1.6790   12.4857   -2.1725 H   0  0  0  0  0  0  0  0  0  0  0  0
   -2.1864   12.3825    1.4187 H   0  0  0  0  0  0  0  0  0  0  0  0
  1  2  1  0
  2  3  1  0
  3  4  1  0
  4  5  2  0
  5  6  1  0
  5  7  1  0
  7  8  2  0
  8  9  1  0
  9 10  2  0
 10 11  1  0
 11 12  1  0
 12 13  1  0
 12 14  2  0
 14 15  1  0
 15 16  1  0
 16 17  1  0
 17 18  1  0
 18 19  1  0
 19 20  1  0
 20 21  1  0
 21 22  1  0
 15 23  2  0
 23 24  1  0
 24  3  2  0
 23  7  1  0
 14  9  1  0
 22 17  1  0
  1 25  1  0
  1 26  1  0
  1 27  1  0
  4 28  1  0
  6 29  1  0
  6 30  1  0
  6 31  1  0
 11 32  1  0
 13 33  1  0
 13 34  1  0
 13 35  1  0
 16 36  1  0
 16 37  1  0
 17 38  1  0
 18 39  1  0
 18 40  1  0
 19 41  1  0
 19 42  1  0
 21 43  1  0
 21 44  1  0
 22 45  1  0
 22 46  1  0
 24 47  1  0
M  CHG  1  17   1
M  END
>  <meeko>  (2) 
{"is_sidechain": [false], "free_energy": -7.529, "intermolecular_energy": -8.942, "internal_energy": -0.429}

$$$$
3ui7_ligand
     RDKit          3D

 47 50  0  0  0  0  0  0  0  0999 V2000
   -2.9380   10.9430    8.2180 C   0  0  0  0  0  0  0  0  0  0  0  0
   -2.4570   11.3250    6.9320 O   0  0  0  0  0  0  0  0  0  0  0  0
   -2.0420   10.3180    6.1050 C   0  0  0  0  0  0  0  0  0  0  0  0
   -2.1530    8.9600    6.3420 C   0  0  0  0  0  0  0  0  0  0  0  0
   -1.6740    8.0340    5.3980 C   0  0  0  0  0  0  0  0  0  0  0  0
   -1.7990    6.5600    5.7080 C   0  0  0  0  0  0  0  0  0  0  0  0
   -1.0880    8.4500    4.1970 C   0  0  0  0  0  0  0  0  0  0  0  0
   -0.6650    7.4780    3.3750 N   0  0  0  0  0  0  0  0  0  0  0  0
   -0.0730    7.8970    2.2430 C   0  0  0  0  0  0  0  0  0  0  0  0
    0.4410    7.1190    1.2970 N   0  0  0  0  0  0  0  0  0  0  0  0
    0.9380    7.9780    0.4030 N   0  0  0  0  0  0  0  0  0  0  0  0
    0.7250    9.3060    0.7090 C   0  0  0  0  0  0  0  0  0  0  0  0
    1.2600   10.3530   -0.1960 C   0  0  0  0  0  0  0  0  0  0  0  0
    0.0450    9.2810    1.9140 C   0  0  0  0  0  0  0  0  0  0  0  0
   -0.4290   10.3540    2.6880 C   0  0  0  0  0  0  0  0  0  0  0  0
   -0.4490   11.8010    2.3020 C   0  0  0  0  0  0  0  0  0  0  0  0
   -1.7240   12.2120    1.5830 N   0  0  0  0  0  0  0  0  0  0  0  0
   -2.5190   13.2730    2.3420 C   0  0  0  0  0  0  0  0  0  0  0  0
   -2.2990   14.6530    1.7180 C   0  0  0  0  0  0  0  0  0  0  0  0
   -2.7270   14.7230    0.3530 O   0  0  0  0  0  0  0  0  0  0  0  0
   -2.6330   13.4910   -0.3710 C   0  0  0  0  0  0  0  0  0  0  0  0
   -1.4880   12.6040    0.1200 C   0  0  0  0  0  0  0  0  0  0  0  0
   -0.9890    9.8670    3.9220 C   0  0  0  0  0  0  0  0  0  0  0  0
   -1.4610   10.7550    4.9140 C   0  0  0  0  0  0  0  0  0  0  0  0
   -2.3289   11.4267    8.9958 H   0  0  0  0  0  0  0  0  0  0  0  0
   -3.9867   11.2570    8.3254 H   0  0  0  0  0  0  0  0  0  0  0  0
   -2.8696    9.8504    8.3254 H   0  0  0  0  0  0  0  0  0  0  0  0
   -2.6179    8.6026    7.2727 H   0  0  0  0  0  0  0  0  0  0  0  0
   -1.8114    6.4144    6.7982 H   0  0  0  0  0  0  0  0  0  0  0  0
   -2.7332    6.1723    5.2757 H   0  0  0  0  0  0  0  0  0  0  0  0
   -0.9434    6.0205    5.2757 H   0  0  0  0  0  0  0  0  0  0  0  0
    1.4220    7.5900   -0.4030 H   0  0  0  0  0  0  0  0  0  0  0  0
    1.6800   11.1750    0.4022 H   0  0  0  0  0  0  0  0  0  0  0  0
    2.0481    9.9214   -0.8306 H   0  0  0  0  0  0  0  0  0  0  0  0
    0.4485   10.7388   -0.8306 H   0  0  0  0  0  0  0  0  0  0  0  0
   -0.3513   12.4075    3.2145 H   0  0  0  0  0  0  0  0  0  0  0  0
    0.3863   11.9648    1.6052 H   0  0  0  0  0  0  0  0  0  0  0  0
   -2.3250   11.3790    1.5520 H   0  0  0  0  0  0  0  0  0  0  0  0
   -3.5893   13.0228    2.3000 H   0  0  0  0  0  0  0  0  0  0  0  0
   -2.1766   13.2955    3.3871 H   0  0  0  0  0  0  0  0  0  0  0  0
   -2.8633   15.3957    2.3011 H   0  0  0  0  0  0  0  0  0  0  0  0
   -1.2177   14.8541    1.7352 H   0  0  0  0  0  0  0  0  0  0  0  0
   -3.5787   12.9414   -0.2547 H   0  0  0  0  0  0  0  0  0  0  0  0
   -2.4334   13.7387   -1.4240 H   0  0  0  0  0  0  0  0  0  0  0  0
   -1.4394   11.6953   -0.4980 H   0  0  0  0  0  0  0  0  0  0  0  0
   -0.5408   13.1577    0.0411 H   0  0  0  0  0  0  0  0  0  0  0  0
   -1.3665   11.8371    4.7402 H   0  0  0  0  0  0  0  0  0  0  0  0
  1  2  1  0
  2  3  1  0
  3  4  1  0
  4  5  2  0
  5  6  1  0
  5  7  1  0
  7  8  2  0
  8  9  1  0
  9 10  2  0
 10 11  1  0
 11 12  1  0
 12 13  1  0
 12 14  2  0
 14 15  1  0
 15 16  1  0
 16 17  1  0
 17 18  1  0
 18 19  1  0
 19 20  1  0
 20 21  1  0
 21 22  1  0
 15 23  2  0
 23 24  1  0
 24  3  2  0
 23  7  1  0
 14  9  1  0
 22 17  1  0
  1 25  1  0
  1 26  1  0
  1 27  1  0
  4 28  1  0
  6 29  1  0
  6 30  1  0
  6 31  1  0
 11 32  1  0
 13 33  1  0
 13 34  1  0
 13 35  1  0
 16 36  1  0
 16 37  1  0
 17 38  1  0
 18 39  1  0
 18 40  1  0
 19 41  1  0
 19 42  1  0
 21 43  1  0
 21 44  1  0
 22 45  1  0
 22 46  1  0
 24 47  1  0
M  CHG  1  17   1
M  END
>  <meeko>  (3) 
{"is_sidechain": [false], "free_energy": -7.371, "intermolecular_energy": -8.632, "internal_energy": -0.552}

$$$$
3ui7_ligand
     RDKit          3D

 47 50  0  0  0  0  0  0  0  0999 V2000
   -1.8650   12.3490    8.6680 C   0  0  0  0  0  0  0  0  0  0  0  0
   -2.7830   11.3700    8.1860 O   0  0  0  0  0  0  0  0  0  0  0  0
   -2.4700   10.7620    7.0020 C   0  0  0  0  0  0  0  0  0  0  0  0
   -2.1460    9.4300    6.8220 C   0  0  0  0  0  0  0  0  0  0  0  0
   -1.8400    8.9430    5.5380 C   0  0  0  0  0  0  0  0  0  0  0  0
   -1.4720    7.4840    5.3900 C   0  0  0  0  0  0  0  0  0  0  0  0
   -1.8670    9.7750    4.4130 C   0  0  0  0  0  0  0  0  0  0  0  0
   -1.5550    9.2010    3.2410 N   0  0  0  0  0  0  0  0  0  0  0  0
   -1.5510   10.0230    2.1790 C   0  0  0  0  0  0  0  0  0  0  0  0
   -1.2510    9.6830    0.9300 N   0  0  0  0  0  0  0  0  0  0  0  0
   -1.3530   10.8270    0.2480 N   0  0  0  0  0  0  0  0  0  0  0  0
   -1.7570   11.9080    1.0040 C   0  0  0  0  0  0  0  0  0  0  0  0
   -1.8750   13.2390    0.3600 C   0  0  0  0  0  0  0  0  0  0  0  0
   -1.9100   11.4010    2.2820 C   0  0  0  0  0  0  0  0  0  0  0  0
   -2.3100   12.0610    3.4570 C   0  0  0  0  0  0  0  0  0  0  0  0
   -2.8300   13.4610    3.5680 C   0  0  0  0  0  0  0  0  0  0  0  0
   -4.3450   13.5470    3.4850 N   0  0  0  0  0  0  0  0  0  0  0  0
   -4.9820   14.0820    4.7660 C   0  0  0  0  0  0  0  0  0  0  0  0
   -5.3750   15.5510    4.5930 C   0  0  0  0  0  0  0  0  0  0  0  0
   -6.3330   15.7540    3.5480 O   0  0  0  0  0  0  0  0  0  0  0  0
   -6.2570   14.8120    2.4720 C   0  0  0  0  0  0  0  0  0  0  0  0
   -4.8360   14.2940    2.2400 C   0  0  0  0  0  0  0  0  0  0  0  0
   -2.2300   11.1650    4.5810 C   0  0  0  0  0  0  0  0  0  0  0  0
   -2.5020   11.6100    5.8940 C   0  0  0  0  0  0  0  0  0  0  0  0
   -1.8687   12.3450    9.7680 H   0  0  0  0  0  0  0  0  0  0  0  0
   -0.8539   12.1142    8.3039 H   0  0  0  0  0  0  0  0  0  0  0  0
   -2.1642   13.3429    8.3039 H   0  0  0  0  0  0  0  0  0  0  0  0
   -2.1274    8.7488    7.6855 H   0  0  0  0  0  0  0  0  0  0  0  0
   -1.3579    7.0317    6.3862 H   0  0  0  0  0  0  0  0  0  0  0  0
   -2.2660    6.9597    4.8381 H   0  0  0  0  0  0  0  0  0  0  0  0
   -0.5243    7.3990    4.8381 H   0  0  0  0  0  0  0  0  0  0  0  0
   -1.1240   10.8050   -0.7430 H   0  0  0  0  0  0  0  0  0  0  0  0
   -1.9439   14.0165    1.1351 H   0  0  0  0  0  0  0  0  0  0  0  0
   -0.9897   13.4231   -0.2663 H   0  0  0  0  0  0  0  0  0  0  0  0
   -2.7789   13.2644   -0.2663 H   0  0  0  0  0  0  0  0  0  0  0  0
   -2.5089   13.8773    4.5342 H   0  0  0  0  0  0  0  0  0  0  0  0
   -2.4240   14.0281    2.7174 H   0  0  0  0  0  0  0  0  0  0  0  0
   -4.6880   12.5840    3.3820 H   0  0  0  0  0  0  0  0  0  0  0  0
   -5.8805   13.4913    4.9981 H   0  0  0  0  0  0  0  0  0  0  0  0
   -4.2543   14.0015    5.5870 H   0  0  0  0  0  0  0  0  0  0  0  0
   -5.8056   15.9125    5.5385 H   0  0  0  0  0  0  0  0  0  0  0  0
   -4.4654   16.1051    4.3181 H   0  0  0  0  0  0  0  0  0  0  0  0
   -6.9093   13.9576    2.7055 H   0  0  0  0  0  0  0  0  0  0  0  0
   -6.5762   15.3287    1.5549 H   0  0  0  0  0  0  0  0  0  0  0  0
   -4.8330   13.6096    1.3788 H   0  0  0  0  0  0  0  0  0  0  0  0
   -4.1678   15.1447    2.0403 H   0  0  0  0  0  0  0  0  0  0  0  0
   -2.7496   12.6704    6.0497 H   0  0  0  0  0  0  0  0  0  0  0  0
  1  2  1  0
  2  3  1  0
  3  4  1  0
  4  5  2  0
  5  6  1  0
  5  7  1  0
  7  8  2  0
  8  9  1  0
  9 10  2  0
 10 11  1  0
 11 12  1  0
 12 13  1  0
 12 14  2  0
 14 15  1  0
 15 16  1  0
 16 17  1  0
 17 18  1  0
 18 19  1  0
 19 20  1  0
 20 21  1  0
 21 22  1  0
 15 23  2  0
 23 24  1  0
 24  3  2  0
 23  7  1  0
 14  9  1  0
 22 17  1  0
  1 25  1  0
  1 26  1  0
  1 27  1  0
  4 28  1  0
  6 29  1  0
  6 30  1  0
  6 31  1  0
 11 32  1  0
 13 33  1  0
 13 34  1  0
 13 35  1  0
 16 36  1  0
 16 37  1  0
 17 38  1  0
 18 39  1  0
 18 40  1  0
 19 41  1  0
 19 42  1  0
 21 43  1  0
 21 44  1  0
 22 45  1  0
 22 46  1  0
 24 47  1  0
M  CHG  1  17   1
M  END
>  <meeko>  (4) 
{"is_sidechain": [false], "free_energy": -7.316, "intermolecular_energy": -8.546, "internal_energy": -0.574}

$$$$
3ui7_ligand
     RDKit          3D

 47 50  0  0  0  0  0  0  0  0999 V2000
   -2.5960   12.0910    4.0200 C   0  0  0  0  0  0  0  0  0  0  0  0
   -2.4640   12.1580    2.6030 O   0  0  0  0  0  0  0  0  0  0  0  0
   -1.7520   11.1570    2.0020 C   0  0  0  0  0  0  0  0  0  0  0  0
   -1.7940    9.8120    2.3230 C   0  0  0  0  0  0  0  0  0  0  0  0
   -0.9980    8.8910    1.6180 C   0  0  0  0  0  0  0  0  0  0  0  0
   -1.0600    7.4330    2.0140 C   0  0  0  0  0  0  0  0  0  0  0  0
   -0.1590    9.2970    0.5740 C   0  0  0  0  0  0  0  0  0  0  0  0
    0.5560    8.3310   -0.0240 N   0  0  0  0  0  0  0  0  0  0  0  0
    1.3820    8.7450   -1.0000 C   0  0  0  0  0  0  0  0  0  0  0  0
    2.1980    7.9740   -1.7100 N   0  0  0  0  0  0  0  0  0  0  0  0
    2.8290    8.8280   -2.5210 N   0  0  0  0  0  0  0  0  0  0  0  0
    2.4190   10.1400   -2.3980 C   0  0  0  0  0  0  0  0  0  0  0  0
    3.0720   11.1830   -3.2250 C   0  0  0  0  0  0  0  0  0  0  0  0
    1.4520   10.1110   -1.4090 C   0  0  0  0  0  0  0  0  0  0  0  0
    0.6920   11.1680   -0.8790 C   0  0  0  0  0  0  0  0  0  0  0  0
    0.6380   12.5770   -1.3850 C   0  0  0  0  0  0  0  0  0  0  0  0
    0.0470   12.6910   -2.7810 N   0  0  0  0  0  0  0  0  0  0  0  0
   -1.3030   11.9900   -2.9150 C   0  0  0  0  0  0  0  0  0  0  0  0
   -2.4410   13.0120   -2.8770 C   0  0  0  0  0  0  0  0  0  0  0  0
   -2.3710   13.9660   -3.9420 O   0  0  0  0  0  0  0  0  0  0  0  0
   -1.0470   14.2570   -4.4030 C   0  0  0  0  0  0  0  0  0  0  0  0
    0.0030   14.1330   -3.2970 C   0  0  0  0  0  0  0  0  0  0  0  0
   -0.1240   10.6960    0.2090 C   0  0  0  0  0  0  0  0  0  0  0  0
   -0.9220   11.5830    0.9650 C   0  0  0  0  0  0  0  0  0  0  0  0
   -1.7102   12.5406    4.4924 H   0  0  0  0  0  0  0  0  0  0  0  0
   -3.4964   12.6412    4.3308 H   0  0  0  0  0  0  0  0  0  0  0  0
   -2.6833   11.0394    4.3308 H   0  0  0  0  0  0  0  0  0  0  0  0
   -2.4519    9.4617    3.1320 H   0  0  0  0  0  0  0  0  0  0  0  0
   -1.0635    7.3508    3.1109 H   0  0  0  0  0  0  0  0  0  0  0  0
   -1.9781    6.9819    1.6096 H   0  0  0  0  0  0  0  0  0  0  0  0
   -0.1835    6.9056    1.6096 H   0  0  0  0  0  0  0  0  0  0  0  0
    3.5420    8.4500   -3.1390 H   0  0  0  0  0  0  0  0  0  0  0  0
    3.5405   11.9313   -2.5688 H   0  0  0  0  0  0  0  0  0  0  0  0
    3.8413   10.7192   -3.8599 H   0  0  0  0  0  0  0  0  0  0  0  0
    2.3187   11.6724   -3.8599 H   0  0  0  0  0  0  0  0  0  0  0  0
    0.0221   13.1726   -0.6951 H   0  0  0  0  0  0  0  0  0  0  0  0
    1.6734   12.9447   -1.4379 H   0  0  0  0  0  0  0  0  0  0  0  0
    0.6870   12.1920   -3.4120 H   0  0  0  0  0  0  0  0  0  0  0  0
   -1.3358   11.4464   -3.8708 H   0  0  0  0  0  0  0  0  0  0  0  0
   -1.4254   11.2884   -2.0766 H   0  0  0  0  0  0  0  0  0  0  0  0
   -3.3978   12.4743   -2.9502 H   0  0  0  0  0  0  0  0  0  0  0  0
   -2.3537   13.5671   -1.9314 H   0  0  0  0  0  0  0  0  0  0  0  0
   -0.7928   13.5542   -5.2102 H   0  0  0  0  0  0  0  0  0  0  0  0
   -1.0387   15.2994   -4.7542 H   0  0  0  0  0  0  0  0  0  0  0  0
    0.9898   14.4074   -3.6981 H   0  0  0  0  0  0  0  0  0  0  0  0
   -0.2613   14.8068   -2.4687 H   0  0  0  0  0  0  0  0  0  0  0  0
   -0.8874   12.6561    0.7256 H   0  0  0  0  0  0  0  0  0  0  0  0
  1  2  1  0
  2  3  1  0
  3  4  1  0
  4  5  2  0
  5  6  1  0
  5  7  1  0
  7  8  2  0
  8  9  1  0
  9 10  2  0
 10 11  1  0
 11 12  1  0
 12 13  1  0
 12 14  2  0
 14 15  1  0
 15 16  1  0
 16 17  1  0
 17 18  1  0
 18 19  1  0
 19 20  1  0
 20 21  1  0
 21 22  1  0
 15 23  2  0
 23 24  1  0
 24  3  2  0
 23  7  1  0
 14  9  1  0
 22 17  1  0
  1 25  1  0
  1 26  1  0
  1 27  1  0
  4 28  1  0
  6 29  1  0
  6 30  1  0
  6 31  1  0
 11 32  1  0
 13 33  1  0
 13 34  1  0
 13 35  1  0
 16 36  1  0
 16 37  1  0
 17 38  1  0
 18 39  1  0
 18 40  1  0
 19 41  1  0
 19 42  1  0
 21 43  1  0
 21 44  1  0
 22 45  1  0
 22 46  1  0
 24 47  1  0
M  CHG  1  17   1
M  END
>  <meeko>  (5) 
{"is_sidechain": [false], "free_energy": -7.293, "intermolecular_energy": -8.627, "internal_energy": -0.467}

$$$$
3ui7_ligand
     RDKit          3D

 47 50  0  0  0  0  0  0  0  0999 V2000
   -1.5850   12.0450    0.0800 C   0  0  0  0  0  0  0  0  0  0  0  0
   -1.7540   10.6300    0.0970 O   0  0  0  0  0  0  0  0  0  0  0  0
   -1.7140   10.0200    1.3190 C   0  0  0  0  0  0  0  0  0  0  0  0
   -1.3670    8.7050    1.5720 C   0  0  0  0  0  0  0  0  0  0  0  0
   -1.3760    8.2100    2.8880 C   0  0  0  0  0  0  0  0  0  0  0  0
   -1.0080    6.7610    3.1160 C   0  0  0  0  0  0  0  0  0  0  0  0
   -1.7190    9.0230    3.9740 C   0  0  0  0  0  0  0  0  0  0  0  0
   -1.6960    8.4420    5.1830 N   0  0  0  0  0  0  0  0  0  0  0  0
   -2.0620    9.2280    6.2090 C   0  0  0  0  0  0  0  0  0  0  0  0
   -2.1370    8.8640    7.4840 N   0  0  0  0  0  0  0  0  0  0  0  0
   -2.5720    9.9600    8.1120 N   0  0  0  0  0  0  0  0  0  0  0  0
   -2.7430   11.0560    7.2920 C   0  0  0  0  0  0  0  0  0  0  0  0
   -3.2530   12.3220    7.8720 C   0  0  0  0  0  0  0  0  0  0  0  0
   -2.4000   10.6040    6.0300 C   0  0  0  0  0  0  0  0  0  0  0  0
   -2.3860   11.3030    4.8100 C   0  0  0  0  0  0  0  0  0  0  0  0
   -2.5920   12.7730    4.6140 C   0  0  0  0  0  0  0  0  0  0  0  0
   -3.8810   13.1060    3.8800 N   0  0  0  0  0  0  0  0  0  0  0  0
   -4.9750   13.6310    4.8080 C   0  0  0  0  0  0  0  0  0  0  0  0
   -5.0870   15.1530    4.6920 C   0  0  0  0  0  0  0  0  0  0  0  0
   -5.4290   15.5890    3.3720 O   0  0  0  0  0  0  0  0  0  0  0  0
   -4.9670   14.7370    2.3180 C   0  0  0  0  0  0  0  0  0  0  0  0
   -3.6620   14.0190    2.6690 C   0  0  0  0  0  0  0  0  0  0  0  0
   -2.0590   10.4080    3.7300 C   0  0  0  0  0  0  0  0  0  0  0  0
   -2.0600   10.8480    2.3880 C   0  0  0  0  0  0  0  0  0  0  0  0
   -1.5401   12.4213    1.1126 H   0  0  0  0  0  0  0  0  0  0  0  0
   -0.6504   12.2964   -0.4429 H   0  0  0  0  0  0  0  0  0  0  0  0
   -2.4341   12.5094   -0.4429 H   0  0  0  0  0  0  0  0  0  0  0  0
   -1.0828    8.0438    0.7401 H   0  0  0  0  0  0  0  0  0  0  0  0
   -0.9573    6.5612    4.1965 H   0  0  0  0  0  0  0  0  0  0  0  0
   -1.7700    6.1128    2.6587 H   0  0  0  0  0  0  0  0  0  0  0  0
   -0.0290    6.5550    2.6587 H   0  0  0  0  0  0  0  0  0  0  0  0
   -2.7400    9.8940    9.1130 H   0  0  0  0  0  0  0  0  0  0  0  0
   -3.2275   12.2588    8.9699 H   0  0  0  0  0  0  0  0  0  0  0  0
   -2.6218   13.1587    7.5382 H   0  0  0  0  0  0  0  0  0  0  0  0
   -4.2880   12.4875    7.5382 H   0  0  0  0  0  0  0  0  0  0  0  0
   -2.6173   13.2569    5.6015 H   0  0  0  0  0  0  0  0  0  0  0  0
   -1.7600   13.1393    3.9947 H   0  0  0  0  0  0  0  0  0  0  0  0
   -4.2370   12.2210    3.4980 H   0  0  0  0  0  0  0  0  0  0  0  0
   -5.9363   13.1744    4.5298 H   0  0  0  0  0  0  0  0  0  0  0  0
   -4.7190   13.3698    5.8454 H   0  0  0  0  0  0  0  0  0  0  0  0
   -5.8636   15.5016    5.3887 H   0  0  0  0  0  0  0  0  0  0  0  0
   -4.1003   15.5752    4.9330 H   0  0  0  0  0  0  0  0  0  0  0  0
   -5.7397   13.9819    2.1115 H   0  0  0  0  0  0  0  0  0  0  0  0
   -4.7724   15.3701    1.4398 H   0  0  0  0  0  0  0  0  0  0  0  0
   -3.3356   13.4143    1.8101 H   0  0  0  0  0  0  0  0  0  0  0  0
   -2.8910   14.7651    2.9116 H   0  0  0  0  0  0  0  0  0  0  0  0
   -2.3460   11.8888    2.1760 H   0  0  0  0  0  0  0  0  0  0  0  0
  1  2  1  0
  2  3  1  0
  3  4  1  0
  4  5  2  0
  5  6  1  0
  5  7  1  0
  7  8  2  0
  8  9  1  0
  9 10  2  0
 10 11  1  0
 11 12  1  0
 12 13  1  0
 12 14  2  0
 14 15  1  0
 15 16  1  0
 16 17  1  0
 17 18  1  0
 18 19  1  0
 19 20  1  0
 20 21  1  0
 21 22  1  0
 15 23  2  0
 23 24  1  0
 24  3  2  0
 23  7  1  0
 14  9  1  0
 22 17  1  0
  1 25  1  0
  1 26  1  0
  1 27  1  0
  4 28  1  0
  6 29  1  0
  6 30  1  0
  6 31  1  0
 11 32  1  0
 13 33  1  0
 13 34  1  0
 13 35  1  0
 16 36  1  0
 16 37  1  0
 17 38  1  0
 18 39  1  0
 18 40  1  0
 19 41  1  0
 19 42  1  0
 21 43  1  0
 21 44  1  0
 22 45  1  0
 22 46  1  0
 24 47  1  0
M  CHG  1  17   1
M  END
>  <meeko>  (6) 
{"is_sidechain": [false], "free_energy": -7.105, "intermolecular_energy": -8.474, "internal_energy": -0.398}

$$$$
3ui7_ligand
     RDKit          3D

 47 50  0  0  0  0  0  0  0  0999 V2000
   -0.8840    6.7140    3.0690 C   0  0  0  0  0  0  0  0  0  0  0  0
   -1.0190    7.7510    4.0380 O   0  0  0  0  0  0  0  0  0  0  0  0
   -1.3590    8.9900    3.5720 C   0  0  0  0  0  0  0  0  0  0  0  0
   -1.9430   10.0110    4.2990 C   0  0  0  0  0  0  0  0  0  0  0  0
   -2.2440   11.2390    3.6820 C   0  0  0  0  0  0  0  0  0  0  0  0
   -2.8990   12.3200    4.5110 C   0  0  0  0  0  0  0  0  0  0  0  0
   -1.9530   11.4710    2.3330 C   0  0  0  0  0  0  0  0  0  0  0  0
   -2.2870   12.6780    1.8520 N   0  0  0  0  0  0  0  0  0  0  0  0
   -2.0340   12.8690    0.5470 C   0  0  0  0  0  0  0  0  0  0  0  0
   -2.3010   13.9700   -0.1470 N   0  0  0  0  0  0  0  0  0  0  0  0
   -1.9060   13.6760   -1.3900 N   0  0  0  0  0  0  0  0  0  0  0  0
   -1.3420   12.4250   -1.5280 C   0  0  0  0  0  0  0  0  0  0  0  0
   -0.8960   11.9750   -2.8690 C   0  0  0  0  0  0  0  0  0  0  0  0
   -1.4010   11.8750   -0.2600 C   0  0  0  0  0  0  0  0  0  0  0  0
   -0.9630   10.6140    0.1830 C   0  0  0  0  0  0  0  0  0  0  0  0
   -0.1690    9.6140   -0.6000 C   0  0  0  0  0  0  0  0  0  0  0  0
    1.3330    9.7820   -0.4400 N   0  0  0  0  0  0  0  0  0  0  0  0
    2.1150    9.3550   -1.6800 C   0  0  0  0  0  0  0  0  0  0  0  0
    2.5530   10.5820   -2.4830 C   0  0  0  0  0  0  0  0  0  0  0  0
    3.4120   11.4570   -1.7430 O   0  0  0  0  0  0  0  0  0  0  0  0
    3.1900   11.4620   -0.3280 C   0  0  0  0  0  0  0  0  0  0  0  0
    1.7320   11.1820    0.0410 C   0  0  0  0  0  0  0  0  0  0  0  0
   -1.3180   10.4220    1.5650 C   0  0  0  0  0  0  0  0  0  0  0  0
   -1.0620    9.2000    2.2250 C   0  0  0  0  0  0  0  0  0  0  0  0
   -0.7583    5.7483    3.5805 H   0  0  0  0  0  0  0  0  0  0  0  0
   -1.7854    6.6808    2.4394 H   0  0  0  0  0  0  0  0  0  0  0  0
   -0.0041    6.9127    2.4394 H   0  0  0  0  0  0  0  0  0  0  0  0
   -2.1732    9.8624    5.3643 H   0  0  0  0  0  0  0  0  0  0  0  0
   -2.7631   12.0958    5.5793 H   0  0  0  0  0  0  0  0  0  0  0  0
   -2.4371   13.2909    4.2785 H   0  0  0  0  0  0  0  0  0  0  0  0
   -3.9734   12.3600    4.2785 H   0  0  0  0  0  0  0  0  0  0  0  0
   -2.0560   14.3790   -2.1090 H   0  0  0  0  0  0  0  0  0  0  0  0
   -0.1257   11.1977   -2.7575 H   0  0  0  0  0  0  0  0  0  0  0  0
   -1.7537   11.5645   -3.4220 H   0  0  0  0  0  0  0  0  0  0  0  0
   -0.4779   12.8290   -3.4220 H   0  0  0  0  0  0  0  0  0  0  0  0
   -0.4458    8.6051   -0.2603 H   0  0  0  0  0  0  0  0  0  0  0  0
   -0.4034    9.7718   -1.6631 H   0  0  0  0  0  0  0  0  0  0  0  0
    1.6220    9.1410    0.3090 H   0  0  0  0  0  0  0  0  0  0  0  0
    3.0052    8.7881   -1.3698 H   0  0  0  0  0  0  0  0  0  0  0  0
    1.4685    8.7276   -2.3112 H   0  0  0  0  0  0  0  0  0  0  0  0
    3.0895   10.2405   -3.3805 H   0  0  0  0  0  0  0  0  0  0  0  0
    1.6459   11.1495   -2.7382 H   0  0  0  0  0  0  0  0  0  0  0  0
    3.8240   10.6888    0.1306 H   0  0  0  0  0  0  0  0  0  0  0  0
    3.4404   12.4663    0.0444 H   0  0  0  0  0  0  0  0  0  0  0  0
    1.6143   11.2400    1.1331 H   0  0  0  0  0  0  0  0  0  0  0  0
    1.0856   11.9294   -0.4422 H   0  0  0  0  0  0  0  0  0  0  0  0
   -0.6086    8.3777    1.6520 H   0  0  0  0  0  0  0  0  0  0  0  0
  1  2  1  0
  2  3  1  0
  3  4  1  0
  4  5  2  0
  5  6  1  0
  5  7  1  0
  7  8  2  0
  8  9  1  0
  9 10  2  0
 10 11  1  0
 11 12  1  0
 12 13  1  0
 12 14  2  0
 14 15  1  0
 15 16  1  0
 16 17  1  0
 17 18  1  0
 18 19  1  0
 19 20  1  0
 20 21  1  0
 21 22  1  0
 15 23  2  0
 23 24  1  0
 24  3  2  0
 23  7  1  0
 14  9  1  0
 22 17  1  0
  1 25  1  0
  1 26  1  0
  1 27  1  0
  4 28  1  0
  6 29  1  0
  6 30  1  0
  6 31  1  0
 11 32  1  0
 13 33  1  0
 13 34  1  0
 13 35  1  0
 16 36  1  0
 16 37  1  0
 17 38  1  0
 18 39  1  0
 18 40  1  0
 19 41  1  0
 19 42  1  0
 21 43  1  0
 21 44  1  0
 22 45  1  0
 22 46  1  0
 24 47  1  0
M  CHG  1  17   1
M  END
>  <meeko>  (7) 
{"is_sidechain": [false], "free_energy": -7.08, "intermolecular_energy": -8.509, "internal_energy": -0.333}

$$$$
3ui7_ligand
     RDKit          3D

 47 50  0  0  0  0  0  0  0  0999 V2000
    1.5370    6.1530   -2.2050 C   0  0  0  0  0  0  0  0  0  0  0  0
    1.7500    6.9610   -1.0510 O   0  0  0  0  0  0  0  0  0  0  0  0
    1.6220    8.3120   -1.2130 C   0  0  0  0  0  0  0  0  0  0  0  0
    2.2880    9.0970   -2.1370 C   0  0  0  0  0  0  0  0  0  0  0  0
    2.0580   10.4840   -2.1860 C   0  0  0  0  0  0  0  0  0  0  0  0
    2.8220   11.3060   -3.2000 C   0  0  0  0  0  0  0  0  0  0  0  0
    1.1510   11.1070   -1.3210 C   0  0  0  0  0  0  0  0  0  0  0  0
    1.0170   12.4350   -1.4560 N   0  0  0  0  0  0  0  0  0  0  0  0
    0.1690   13.0200   -0.5940 C   0  0  0  0  0  0  0  0  0  0  0  0
   -0.1040   14.3180   -0.5260 N   0  0  0  0  0  0  0  0  0  0  0  0
   -0.9630   14.4190    0.4920 N   0  0  0  0  0  0  0  0  0  0  0  0
   -1.3030   13.2140    1.0720 C   0  0  0  0  0  0  0  0  0  0  0  0
   -2.2250   13.2040    2.2340 C   0  0  0  0  0  0  0  0  0  0  0  0
   -0.5800   12.2710    0.3640 C   0  0  0  0  0  0  0  0  0  0  0  0
   -0.5440   10.8740    0.5260 C   0  0  0  0  0  0  0  0  0  0  0  0
   -1.4210   10.0510    1.4170 C   0  0  0  0  0  0  0  0  0  0  0  0
   -1.0370   10.1400    2.8850 N   0  0  0  0  0  0  0  0  0  0  0  0
   -2.1240    9.6080    3.8180 C   0  0  0  0  0  0  0  0  0  0  0  0
   -1.7640    8.2040    4.3100 C   0  0  0  0  0  0  0  0  0  0  0  0
   -0.5390    8.1690    5.0520 O   0  0  0  0  0  0  0  0  0  0  0  0
    0.4250    9.1560    4.6670 C   0  0  0  0  0  0  0  0  0  0  0  0
    0.3340    9.5240    3.1850 C   0  0  0  0  0  0  0  0  0  0  0  0
    0.4280   10.2960   -0.3660 C   0  0  0  0  0  0  0  0  0  0  0  0
    0.7140    8.9130   -0.3410 C   0  0  0  0  0  0  0  0  0  0  0  0
    1.2681    5.1328   -1.8937 H   0  0  0  0  0  0  0  0  0  0  0  0
    0.7208    6.5801   -2.8061 H   0  0  0  0  0  0  0  0  0  0  0  0
    2.4577    6.1222   -2.8061 H   0  0  0  0  0  0  0  0  0  0  0  0
    3.0003    8.6348   -2.8363 H   0  0  0  0  0  0  0  0  0  0  0  0
    3.4806   12.0146   -2.6763 H   0  0  0  0  0  0  0  0  0  0  0  0
    3.4284   10.6392   -3.8306 H   0  0  0  0  0  0  0  0  0  0  0  0
    2.1127   11.8621   -3.8306 H   0  0  0  0  0  0  0  0  0  0  0  0
   -1.2800   15.3500    0.7490 H   0  0  0  0  0  0  0  0  0  0  0  0
   -1.6405   13.2103    3.1659 H   0  0  0  0  0  0  0  0  0  0  0  0
   -2.8688   14.0952    2.1989 H   0  0  0  0  0  0  0  0  0  0  0  0
   -2.8493   12.2990    2.1989 H   0  0  0  0  0  0  0  0  0  0  0  0
   -2.4582   10.4000    1.3054 H   0  0  0  0  0  0  0  0  0  0  0  0
   -1.3026    9.0008    1.1118 H   0  0  0  0  0  0  0  0  0  0  0  0
   -0.9450   11.1400    3.1040 H   0  0  0  0  0  0  0  0  0  0  0  0
   -2.2212   10.2813    4.6825 H   0  0  0  0  0  0  0  0  0  0  0  0
   -3.0751    9.5604    3.2675 H   0  0  0  0  0  0  0  0  0  0  0  0
   -2.5761    7.8399    4.9564 H   0  0  0  0  0  0  0  0  0  0  0  0
   -1.6300    7.5681    3.4225 H   0  0  0  0  0  0  0  0  0  0  0  0
    0.2578   10.0635    5.2658 H   0  0  0  0  0  0  0  0  0  0  0  0
    1.4241    8.7307    4.8429 H   0  0  0  0  0  0  0  0  0  0  0  0
    1.1223   10.2512    2.9405 H   0  0  0  0  0  0  0  0  0  0  0  0
    0.4647    8.6165    2.5773 H   0  0  0  0  0  0  0  0  0  0  0  0
    0.1983    8.2824    0.3982 H   0  0  0  0  0  0  0  0  0  0  0  0
  1  2  1  0
  2  3  1  0
  3  4  1  0
  4  5  2  0
  5  6  1  0
  5  7  1  0
  7  8  2  0
  8  9  1  0
  9 10  2  0
 10 11  1  0
 11 12  1  0
 12 13  1  0
 12 14  2  0
 14 15  1  0
 15 16  1  0
 16 17  1  0
 17 18  1  0
 18 19  1  0
 19 20  1  0
 20 21  1  0
 21 22  1  0
 15 23  2  0
 23 24  1  0
 24  3  2  0
 23  7  1  0
 14  9  1  0
 22 17  1  0
  1 25  1  0
  1 26  1  0
  1 27  1  0
  4 28  1  0
  6 29  1  0
  6 30  1  0
  6 31  1  0
 11 32  1  0
 13 33  1  0
 13 34  1  0
 13 35  1  0
 16 36  1  0
 16 37  1  0
 17 38  1  0
 18 39  1  0
 18 40  1  0
 19 41  1  0
 19 42  1  0
 21 43  1  0
 21 44  1  0
 22 45  1  0
 22 46  1  0
 24 47  1  0
M  CHG  1  17   1
M  END
>  <meeko>  (8) 
{"is_sidechain": [false], "free_energy": -6.962, "intermolecular_energy": -8.271, "internal_energy": -0.433}

$$$$
3ui7_ligand
     RDKit          3D

 47 50  0  0  0  0  0  0  0  0999 V2000
   -2.1010   10.7950    5.9090 C   0  0  0  0  0  0  0  0  0  0  0  0
   -2.4560   11.0130    4.5460 O   0  0  0  0  0  0  0  0  0  0  0  0
   -1.9300   10.1490    3.6260 C   0  0  0  0  0  0  0  0  0  0  0  0
   -1.6100    8.8190    3.8350 C   0  0  0  0  0  0  0  0  0  0  0  0
   -1.0680    8.0490    2.7910 C   0  0  0  0  0  0  0  0  0  0  0  0
   -0.7150    6.6050    3.0700 C   0  0  0  0  0  0  0  0  0  0  0  0
   -0.8500    8.5890    1.5190 C   0  0  0  0  0  0  0  0  0  0  0  0
   -0.3260    7.7610    0.6030 N   0  0  0  0  0  0  0  0  0  0  0  0
   -0.0900    8.3070   -0.6010 C   0  0  0  0  0  0  0  0  0  0  0  0
    0.4430    7.6880   -1.6490 N   0  0  0  0  0  0  0  0  0  0  0  0
    0.5080    8.6350   -2.5900 N   0  0  0  0  0  0  0  0  0  0  0  0
   -0.0110    9.8540   -2.2070 C   0  0  0  0  0  0  0  0  0  0  0  0
    0.0360   10.9910   -3.1580 C   0  0  0  0  0  0  0  0  0  0  0  0
   -0.4270    9.6620   -0.9020 C   0  0  0  0  0  0  0  0  0  0  0  0
   -1.0360   10.5720   -0.0210 C   0  0  0  0  0  0  0  0  0  0  0  0
   -1.5320   11.9460   -0.3500 C   0  0  0  0  0  0  0  0  0  0  0  0
   -0.4470   13.0090   -0.2790 N   0  0  0  0  0  0  0  0  0  0  0  0
   -0.7230   14.2030   -1.1920 C   0  0  0  0  0  0  0  0  0  0  0  0
   -1.2560   15.3840   -0.3780 C   0  0  0  0  0  0  0  0  0  0  0  0
   -0.3320   15.8390    0.6180 O   0  0  0  0  0  0  0  0  0  0  0  0
    0.5300   14.8240    1.1460 C   0  0  0  0  0  0  0  0  0  0  0  0
   -0.1240   13.4410    1.1550 C   0  0  0  0  0  0  0  0  0  0  0  0
   -1.2040    9.9710    1.2770 C   0  0  0  0  0  0  0  0  0  0  0  0
   -1.7210   10.7080    2.3650 C   0  0  0  0  0  0  0  0  0  0  0  0
   -2.8548   11.2579    6.5628 H   0  0  0  0  0  0  0  0  0  0  0  0
   -2.0571    9.7141    6.1081 H   0  0  0  0  0  0  0  0  0  0  0  0
   -1.1171   11.2448    6.1081 H   0  0  0  0  0  0  0  0  0  0  0  0
   -1.7803    8.3627    4.8213 H   0  0  0  0  0  0  0  0  0  0  0  0
   -0.6749    6.4408    4.1569 H   0  0  0  0  0  0  0  0  0  0  0  0
   -1.4792    5.9487    2.6280 H   0  0  0  0  0  0  0  0  0  0  0  0
    0.2657    6.3753    2.6280 H   0  0  0  0  0  0  0  0  0  0  0  0
    0.9280    8.3840   -3.4810 H   0  0  0  0  0  0  0  0  0  0  0  0
    0.0751   11.9366   -2.5973 H   0  0  0  0  0  0  0  0  0  0  0  0
    0.9313   10.9028   -3.7910 H   0  0  0  0  0  0  0  0  0  0  0  0
   -0.8635   10.9770   -3.7910 H   0  0  0  0  0  0  0  0  0  0  0  0
   -1.9431   11.9340   -1.3702 H   0  0  0  0  0  0  0  0  0  0  0  0
   -2.2934   12.2063    0.4000 H   0  0  0  0  0  0  0  0  0  0  0  0
    0.4120   12.5750   -0.6380 H   0  0  0  0  0  0  0  0  0  0  0  0
    0.2103   14.4997   -1.6930 H   0  0  0  0  0  0  0  0  0  0  0  0
   -1.4773   13.9146   -1.9389 H   0  0  0  0  0  0  0  0  0  0  0  0
   -1.4686   16.2161   -1.0653 H   0  0  0  0  0  0  0  0  0  0  0  0
   -2.1615   15.0419    0.1445 H   0  0  0  0  0  0  0  0  0  0  0  0
    1.4399   14.7791    0.5295 H   0  0  0  0  0  0  0  0  0  0  0  0
    0.7582   15.0907    2.1885 H   0  0  0  0  0  0  0  0  0  0  0  0
    0.5658   12.7140    1.6086 H   0  0  0  0  0  0  0  0  0  0  0  0
   -1.0550   13.4839    1.7393 H   0  0  0  0  0  0  0  0  0  0  0  0
   -1.9696   11.7685    2.2116 H   0  0  0  0  0  0  0  0  0  0  0  0
  1  2  1  0
  2  3  1  0
  3  4  1  0
  4  5  2  0
  5  6  1  0
  5  7  1  0
  7  8  2  0
  8  9  1  0
  9 10  2  0
 10 11  1  0
 11 12  1  0
 12 13  1  0
 12 14  2  0
 14 15  1  0
 15 16  1  0
 16 17  1  0
 17 18  1  0
 18 19  1  0
 19 20  1  0
 20 21  1  0
 21 22  1  0
 15 23  2  0
 23 24  1  0
 24  3  2  0
 23  7  1  0
 14  9  1  0
 22 17  1  0
  1 25  1  0
  1 26  1  0
  1 27  1  0
  4 28  1  0
  6 29  1  0
  6 30  1  0
  6 31  1  0
 11 32  1  0
 13 33  1  0
 13 34  1  0
 13 35  1  0
 16 36  1  0
 16 37  1  0
 17 38  1  0
 18 39  1  0
 18 40  1  0
 19 41  1  0
 19 42  1  0
 21 43  1  0
 21 44  1  0
 22 45  1  0
 22 46  1  0
 24 47  1  0
M  CHG  1  17   1
M  END
>  <meeko>  (9) 
{"is_sidechain": [false], "free_energy": -6.95, "intermolecular_energy": -8.278, "internal_energy": -0.411}

$$$$
