
     RDKit          3D

 19 21  0  0  0  0  0  0  0  0999 V2000
   -1.9340   17.6950   -6.4300 N   0  0  0  0  0  0  0  0  0  0  0  0
   -2.2330   16.4280   -6.0620 C   0  0  0  0  0  0  0  0  0  0  0  0
   -1.2730   15.6820   -5.4170 N   0  0  0  0  0  0  0  0  0  0  0  0
   -1.5430   14.4230   -5.0370 C   0  0  0  0  0  0  0  0  0  0  0  0
   -2.7320   13.8200   -5.2270 N   0  0  0  0  0  0  0  0  0  0  0  0
   -3.7270   14.5300   -5.8590 C   0  0  0  0  0  0  0  0  0  0  0  0
   -5.0650   14.2280   -6.2150 C   0  0  0  0  0  0  0  0  0  0  0  0
   -5.8530   12.9600   -5.9710 C   0  0  2  0  0  0  0  0  0  0  0  0
   -7.0160   13.3430   -5.1790 O   0  0  0  0  0  0  0  0  0  0  0  0
   -6.8960   12.8610   -3.8430 C   0  0  2  0  0  0  0  0  0  0  0  0
   -6.2820   13.9430   -2.9290 C   0  0  0  0  0  0  0  0  0  0  0  0
   -5.9500   13.4310   -1.6750 O   0  0  0  0  0  0  0  0  0  0  0  0
   -6.0440   11.6100   -3.9730 C   0  0  1  0  0  0  0  0  0  0  0  0
   -6.8880   10.5000   -4.2060 O   0  0  0  0  0  0  0  0  0  0  0  0
   -5.1290   11.8730   -5.1930 C   0  0  1  0  0  0  0  0  0  0  0  0
   -4.9690   10.7280   -5.9950 O   0  0  0  0  0  0  0  0  0  0  0  0
   -5.5680   15.3030   -6.8370 N   0  0  0  0  0  0  0  0  0  0  0  0
   -4.6410   16.2830   -6.8940 N   0  0  0  0  0  0  0  0  0  0  0  0
   -3.5060   15.8430   -6.3020 C   0  0  0  0  0  0  0  0  0  0  0  0
  2  1  1  0
  3  2  2  0
  4  3  1  0
  5  4  2  0
  6  5  1  0
  7  6  1  0
  8  7  1  1
  9  8  1  0
 10  9  1  0
 10 11  1  1
 12 11  1  0
 13 10  1  0
 13 14  1  6
 15  8  1  0
 15 13  1  0
 15 16  1  6
 17  7  2  0
 18 17  1  0
 19 18  1  0
 19  6  2  0
 19  2  1  0
M  END
$$$$
