
     RDKit          3D

 31 35  0  0  0  0  0  0  0  0999 V2000
    4.3030   -7.1960   -3.6060 C   0  0  0  0  0  0  0  0  0  0  0  0
    5.6960   -7.0080   -3.5730 O   0  0  0  0  0  0  0  0  0  0  0  0
    6.2270   -5.8700   -4.1290 C   0  0  0  0  0  0  0  0  0  0  0  0
    5.4320   -4.8330   -4.5920 C   0  0  0  0  0  0  0  0  0  0  0  0
    6.0260   -3.7050   -5.1400 C   0  0  0  0  0  0  0  0  0  0  0  0
    7.4310   -3.6000   -5.2180 C   0  0  0  0  0  0  0  0  0  0  0  0
    8.0640   -2.3880   -5.8060 C   0  0  0  0  0  0  0  0  0  0  0  0
    7.3620   -1.5800   -6.7040 C   0  0  0  0  0  0  0  0  0  0  0  0
    7.9510   -0.4500   -7.2730 C   0  0  0  0  0  0  0  0  0  0  0  0
    9.2670   -0.1090   -6.9320 C   0  0  0  0  0  0  0  0  0  0  0  0
    9.9460   -0.9300   -6.0360 C   0  0  0  0  0  0  0  0  0  0  0  0
   11.1910   -0.8440   -5.5210 N   0  0  0  0  0  0  0  0  0  0  0  0
   11.2890   -1.8930   -4.7000 C   0  0  0  0  0  0  0  0  0  0  0  0
   12.4080   -2.1460   -3.9740 N   0  0  0  0  0  0  0  0  0  0  0  0
   12.7300   -3.2440   -3.1750 C   0  0  0  0  0  0  0  0  0  0  0  0
   11.8120   -4.2450   -2.8270 C   0  0  0  0  0  0  0  0  0  0  0  0
   12.2440   -5.3240   -2.0290 C   0  0  0  0  0  0  0  0  0  0  0  0
   13.5530   -5.4080   -1.5890 C   0  0  0  0  0  0  0  0  0  0  0  0
   14.0230   -6.5290   -0.8440 N   0  0  0  0  0  0  0  0  0  0  0  0
   14.6250   -6.2270    0.4550 C   0  0  0  0  0  0  0  0  0  0  0  0
   15.3620   -7.4580    0.9940 C   0  0  0  0  0  0  0  0  0  0  0  0
   14.4630   -8.6030    1.0450 N   0  0  0  0  0  0  0  0  0  0  0  0
   15.1650   -9.8000    1.5710 C   0  0  0  0  0  0  0  0  0  0  0  0
   13.9250   -8.9000   -0.2710 C   0  0  0  0  0  0  0  0  0  0  0  0
   13.1470   -7.7120   -0.7920 C   0  0  0  0  0  0  0  0  0  0  0  0
   14.4520   -4.4050   -1.9350 C   0  0  0  0  0  0  0  0  0  0  0  0
   14.0330   -3.3140   -2.7340 C   0  0  0  0  0  0  0  0  0  0  0  0
   10.2090   -2.6350   -4.6530 N   0  0  0  0  0  0  0  0  0  0  0  0
    9.3470   -2.0300   -5.4950 N   0  0  0  0  0  0  0  0  0  0  0  0
    8.2090   -4.6380   -4.7630 C   0  0  0  0  0  0  0  0  0  0  0  0
    7.6060   -5.7720   -4.2050 C   0  0  0  0  0  0  0  0  0  0  0  0
  2  1  1  0
  3  2  1  0
  4  3  2  0
  5  4  1  0
  6  5  2  0
  7  6  1  0
  8  7  2  0
  9  8  1  0
 10  9  2  0
 11 10  1  0
 12 11  2  0
 13 12  1  0
 14 13  1  0
 15 14  1  0
 16 15  2  0
 17 16  1  0
 18 17  2  0
 19 18  1  0
 20 19  1  0
 21 20  1  0
 22 21  1  0
 23 22  1  0
 24 22  1  0
 25 24  1  0
 25 19  1  0
 26 18  1  0
 27 26  2  0
 27 15  1  0
 28 13  2  0
 29 11  1  0
 29  7  1  0
 29 28  1  0
 30  6  1  0
 31  3  1  0
 31 30  2  0
M  CHG  1  22   1
M  END
$$$$
