
     RDKit          3D

 38 42  0  0  0  0  0  0  0  0999 V2000
   -5.7600   -9.1290    5.8630 C   0  0  0  0  0  0  0  0  0  0  0  0
   -5.8580   -8.5980    4.4590 C   0  0  0  0  0  0  0  0  0  0  0  0
   -5.3340   -9.3040    3.4340 N   0  0  0  0  0  0  0  0  0  0  0  0
   -5.4280   -8.8460    2.1750 C   0  0  0  0  0  0  0  0  0  0  0  0
   -6.0450   -7.7000    1.8390 N   0  0  0  0  0  0  0  0  0  0  0  0
   -6.5720   -6.9890    2.8470 C   0  0  0  0  0  0  0  0  0  0  0  0
   -6.5030   -7.3950    4.1840 C   0  0  0  0  0  0  0  0  0  0  0  0
   -7.1140   -6.4640    4.9520 N   0  0  0  0  0  0  0  0  0  0  0  0
   -7.5570   -5.5230    4.1300 C   0  0  0  0  0  0  0  0  0  0  0  0
   -7.2440   -5.8260    2.8490 N   0  0  0  0  0  0  0  0  0  0  0  0
   -7.5220   -5.0260    1.6780 C   0  0  2  0  0  0  0  0  0  0  0  0
   -6.7860   -3.8260    1.8690 O   0  0  0  0  0  0  0  0  0  0  0  0
   -7.5960   -2.7170    1.5480 C   0  0  2  0  0  0  0  0  0  0  0  0
   -7.9730   -2.0060    2.8210 C   0  0  0  0  0  0  0  0  0  0  0  0
   -7.3270   -0.9290    3.1730 C   0  0  0  0  0  0  0  0  0  0  0  0
   -7.7230   -0.2740    4.4750 C   0  0  0  0  0  0  0  0  0  0  0  0
   -7.4100    1.1320    4.4040 N   0  0  0  0  0  0  0  0  0  0  0  0
   -8.0600    2.0700    5.1180 C   0  0  0  0  0  0  0  0  0  0  0  0
   -8.9510    1.7510    5.9040 O   0  0  0  0  0  0  0  0  0  0  0  0
   -7.6740    3.4780    4.9050 C   0  0  0  0  0  0  0  0  0  0  0  0
   -8.4670    4.4550    5.4970 C   0  0  0  0  0  0  0  0  0  0  0  0
   -8.1790    5.8120    5.3330 C   0  0  0  0  0  0  0  0  0  0  0  0
   -9.0280    6.8170    5.9940 C   0  0  0  0  0  0  0  0  0  0  0  0
  -10.3870    6.5830    6.2250 C   0  0  0  0  0  0  0  0  0  0  0  0
  -11.1770    7.5310    6.8490 C   0  0  0  0  0  0  0  0  0  0  0  0
  -10.6350    8.7150    7.2590 C   0  0  0  0  0  0  0  0  0  0  0  0
  -11.4230    9.6340    7.8700 F   0  0  0  0  0  0  0  0  0  0  0  0
   -9.3070    8.9850    7.0660 C   0  0  0  0  0  0  0  0  0  0  0  0
   -8.5020    8.0390    6.4340 C   0  0  0  0  0  0  0  0  0  0  0  0
   -7.0860    6.1900    4.5550 C   0  0  0  0  0  0  0  0  0  0  0  0
   -6.2920    5.2320    3.9510 C   0  0  0  0  0  0  0  0  0  0  0  0
   -5.2210    5.5840    3.1920 O   0  0  0  0  0  0  0  0  0  0  0  0
   -6.5770    3.8730    4.1280 C   0  0  0  0  0  0  0  0  0  0  0  0
   -5.7710    2.9640    3.5350 O   0  0  0  0  0  0  0  0  0  0  0  0
   -8.8310   -3.2540    0.8430 C   0  0  1  0  0  0  0  0  0  0  0  0
   -8.5490   -3.3850   -0.5390 O   0  0  0  0  0  0  0  0  0  0  0  0
   -8.9840   -4.5970    1.5190 C   0  0  1  0  0  0  0  0  0  0  0  0
   -9.7270   -5.5130    0.7380 O   0  0  0  0  0  0  0  0  0  0  0  0
  2  1  1  0
  3  2  2  0
  4  3  1  0
  5  4  2  0
  6  5  1  0
  7  6  2  0
  7  2  1  0
  8  7  1  0
  9  8  2  0
 10  9  1  0
 10  6  1  0
 11 10  1  1
 12 11  1  0
 13 12  1  0
 13 14  1  1
 15 14  2  3
 16 15  1  0
 17 16  1  0
 18 17  1  0
 19 18  2  0
 20 18  1  0
 21 20  2  0
 22 21  1  0
 23 22  1  0
 24 23  2  0
 25 24  1  0
 26 25  2  0
 27 26  1  0
 28 26  1  0
 29 28  2  0
 29 23  1  0
 30 22  2  0
 31 30  1  0
 32 31  1  0
 33 31  2  0
 33 20  1  0
 34 33  1  0
 35 13  1  0
 35 36  1  6
 37 35  1  0
 37 11  1  0
 37 38  1  6
M  END
$$$$
