3b1m_ligand
     RDKit          3D

 65 69  0  0  0  0  0  0  0  0999 V2000
   -0.0880    7.9630    4.2100 C   0  0  0  0  0  0  0  0  0  0  0  0
    0.7530    7.4830    5.3840 C   0  0  0  0  0  0  0  0  0  0  0  0
    0.8780    5.9740    5.4150 C   0  0  0  0  0  0  0  0  0  0  0  0
    1.9040    5.3940    4.6560 C   0  0  0  0  0  0  0  0  0  0  0  0
    2.0920    4.0160    4.6420 C   0  0  0  0  0  0  0  0  0  0  0  0
    1.2690    3.1710    5.3910 C   0  0  0  0  0  0  0  0  0  0  0  0
    1.4970    1.7850    5.3730 C   0  0  0  0  0  0  0  0  0  0  0  0
    0.7030    0.9150    6.1170 C   0  0  0  0  0  0  0  0  0  0  0  0
   -0.3290    1.4240    6.8900 C   0  0  0  0  0  0  0  0  0  0  0  0
   -0.5680    2.8020    6.9130 C   0  0  0  0  0  0  0  0  0  0  0  0
    0.2140    3.7160    6.1650 C   0  0  0  0  0  0  0  0  0  0  0  0
    0.0040    5.1370    6.1540 C   0  0  0  0  0  0  0  0  0  0  0  0
   -1.1180    5.7390    6.9760 C   0  0  0  0  0  0  0  0  0  0  0  0
   -0.6050    6.7250    7.8960 N   0  0  0  0  0  0  0  0  0  0  0  0
   -0.6620    6.5290    9.2570 C   0  0  0  0  0  0  0  0  0  0  0  0
   -1.2740    5.5930    9.7590 O   0  0  0  0  0  0  0  0  0  0  0  0
    0.0680    7.5200   10.1030 C   0  0  0  0  0  0  0  0  0  0  0  0
    0.0400    8.9170    9.8800 C   0  0  0  0  0  0  0  0  0  0  0  0
   -0.7140    9.3650    8.8230 O   0  0  0  0  0  0  0  0  0  0  0  0
   -1.2870   10.6640    8.9000 C   0  0  0  0  0  0  0  0  0  0  0  0
    0.7590    9.7830   10.7350 C   0  0  0  0  0  0  0  0  0  0  0  0
    1.5150    9.2760   11.7930 C   0  0  0  0  0  0  0  0  0  0  0  0
    2.1660   10.1010   12.6550 O   0  0  0  0  0  0  0  0  0  0  0  0
    1.5740    7.9160   11.9940 C   0  0  0  0  0  0  0  0  0  0  0  0
    0.8410    7.0560   11.1620 C   0  0  0  0  0  0  0  0  0  0  0  0
    0.9870    5.7380   11.5500 O   0  0  0  0  0  0  0  0  0  0  0  0
    1.9480    5.7180   12.5510 C   0  0  0  0  0  0  0  0  0  0  0  0
    2.6930    4.6450   12.8360 C   0  0  0  0  0  0  0  0  0  0  0  0
    3.8990    4.8160   13.6150 C   0  0  0  0  0  0  0  0  0  0  0  0
    4.4020    3.6240   14.0860 O   0  0  0  0  0  0  0  0  0  0  0  0
    4.4930    6.0210   13.7590 C   0  0  0  0  0  0  0  0  0  0  0  0
    5.7840    6.1360   14.4930 C   0  0  0  0  0  0  0  0  0  0  0  0
    5.8420    6.9190   15.7780 C   0  0  0  0  0  0  0  0  0  0  0  0
    6.7930    5.5730   14.0520 O   0  0  0  0  0  0  0  0  0  0  0  0
    3.7880    7.2000   13.1450 C   0  0  0  0  0  0  0  0  0  0  0  0
    4.4420    8.1790   12.7860 O   0  0  0  0  0  0  0  0  0  0  0  0
    2.2590    7.1110   13.0590 C   0  0  1  0  0  0  0  0  0  0  0  0
    1.6310    7.3720   14.4340 C   0  0  0  0  0  0  0  0  0  0  0  0
   -0.9855    8.4752    4.5870 H   0  0  0  0  0  0  0  0  0  0  0  0
    0.5020    8.6604    3.5972 H   0  0  0  0  0  0  0  0  0  0  0  0
   -0.3884    7.1003    3.5972 H   0  0  0  0  0  0  0  0  0  0  0  0
    1.7588    7.9208    5.3024 H   0  0  0  0  0  0  0  0  0  0  0  0
    0.2538    7.8010    6.3112 H   0  0  0  0  0  0  0  0  0  0  0  0
    2.5700    6.0380    4.0630 H   0  0  0  0  0  0  0  0  0  0  0  0
    2.9001    3.5852    4.0326 H   0  0  0  0  0  0  0  0  0  0  0  0
    2.3163    1.3797    4.7611 H   0  0  0  0  0  0  0  0  0  0  0  0
    0.8936   -0.1681    6.0912 H   0  0  0  0  0  0  0  0  0  0  0  0
   -0.9588    0.7455    7.4842 H   0  0  0  0  0  0  0  0  0  0  0  0
   -1.3906    3.1887    7.5325 H   0  0  0  0  0  0  0  0  0  0  0  0
   -1.8430    6.2176    6.3013 H   0  0  0  0  0  0  0  0  0  0  0  0
   -1.6034    4.9373    7.5519 H   0  0  0  0  0  0  0  0  0  0  0  0
    0.0770    7.3880    7.5450 H   0  0  0  0  0  0  0  0  0  0  0  0
   -1.4121   10.9476    9.9554 H   0  0  0  0  0  0  0  0  0  0  0  0
   -0.6243   11.3872    8.4021 H   0  0  0  0  0  0  0  0  0  0  0  0
   -2.2678   10.6622    8.4021 H   0  0  0  0  0  0  0  0  0  0  0  0
    0.7223   10.8691   10.5645 H   0  0  0  0  0  0  0  0  0  0  0  0
    3.1190   10.0780   12.4690 H   0  0  0  0  0  0  0  0  0  0  0  0
    2.3930    3.6473   12.4832 H   0  0  0  0  0  0  0  0  0  0  0  0
    3.7760    2.9030   13.8430 H   0  0  0  0  0  0  0  0  0  0  0  0
    5.7907    6.2271   16.6316 H   0  0  0  0  0  0  0  0  0  0  0  0
    6.7845    7.4846   15.8205 H   0  0  0  0  0  0  0  0  0  0  0  0
    4.9931    7.6173   15.8205 H   0  0  0  0  0  0  0  0  0  0  0  0
    2.3393    7.0776   15.2224 H   0  0  0  0  0  0  0  0  0  0  0  0
    1.3964    8.4421   14.5328 H   0  0  0  0  0  0  0  0  0  0  0  0
    0.7070    6.7834   14.5328 H   0  0  0  0  0  0  0  0  0  0  0  0
  1  2  1  0
  2  3  1  0
  3  4  2  0
  4  5  1  0
  5  6  2  0
  6  7  1  0
  7  8  2  0
  8  9  1  0
  9 10  2  0
 10 11  1  0
 11 12  2  0
 12 13  1  0
 13 14  1  0
 14 15  1  0
 15 16  2  0
 15 17  1  0
 17 18  2  0
 18 19  1  0
 19 20  1  0
 18 21  1  0
 21 22  2  0
 22 23  1  0
 22 24  1  0
 24 25  2  0
 25 26  1  0
 26 27  1  0
 27 28  2  0
 28 29  1  0
 29 30  1  0
 29 31  2  0
 31 32  1  0
 32 33  1  0
 32 34  2  0
 31 35  1  0
 35 36  2  0
 35 37  1  0
 37 38  1  1
 12  3  1  0
 25 17  1  0
 37 27  1  0
 11  6  1  0
 37 24  1  0
  1 39  1  0
  1 40  1  0
  1 41  1  0
  2 42  1  0
  2 43  1  0
  4 44  1  0
  5 45  1  0
  7 46  1  0
  8 47  1  0
  9 48  1  0
 10 49  1  0
 13 50  1  0
 13 51  1  0
 14 52  1  0
 20 53  1  0
 20 54  1  0
 20 55  1  0
 21 56  1  0
 23 57  1  0
 28 58  1  0
 30 59  1  0
 33 60  1  0
 33 61  1  0
 33 62  1  0
 38 63  1  0
 38 64  1  0
 38 65  1  0
M  END
>  <meeko>  (1) 
{"is_sidechain": [false], "free_energy": -9.437, "intermolecular_energy": -13.298, "internal_energy": -1.095}

$$$$
3b1m_ligand
     RDKit          3D

 65 69  0  0  0  0  0  0  0  0999 V2000
   -0.2230    1.2420    6.6620 C   0  0  0  0  0  0  0  0  0  0  0  0
   -0.3390    2.6470    7.2360 C   0  0  0  0  0  0  0  0  0  0  0  0
    0.0870    3.7050    6.2390 C   0  0  0  0  0  0  0  0  0  0  0  0
    1.0230    3.3340    5.2640 C   0  0  0  0  0  0  0  0  0  0  0  0
    1.4570    4.2440    4.3050 C   0  0  0  0  0  0  0  0  0  0  0  0
    0.9640    5.5520    4.2830 C   0  0  0  0  0  0  0  0  0  0  0  0
    1.4040    6.4420    3.2890 C   0  0  0  0  0  0  0  0  0  0  0  0
    0.9250    7.7490    3.2300 C   0  0  0  0  0  0  0  0  0  0  0  0
   -0.0030    8.1790    4.1650 C   0  0  0  0  0  0  0  0  0  0  0  0
   -0.4470    7.3030    5.1610 C   0  0  0  0  0  0  0  0  0  0  0  0
    0.0230    5.9700    5.2570 C   0  0  0  0  0  0  0  0  0  0  0  0
   -0.4000    5.0360    6.2620 C   0  0  0  0  0  0  0  0  0  0  0  0
   -1.4060    5.4640    7.3120 C   0  0  0  0  0  0  0  0  0  0  0  0
   -0.8410    6.4680    8.1820 N   0  0  0  0  0  0  0  0  0  0  0  0
   -0.7030    6.2450    9.5330 C   0  0  0  0  0  0  0  0  0  0  0  0
   -1.1800    5.2610   10.0870 O   0  0  0  0  0  0  0  0  0  0  0  0
    0.0660    7.2700   10.3010 C   0  0  0  0  0  0  0  0  0  0  0  0
    0.0410    8.6540   10.0090 C   0  0  0  0  0  0  0  0  0  0  0  0
   -0.7480    9.0560    8.9580 O   0  0  0  0  0  0  0  0  0  0  0  0
   -1.1400   10.4220    8.8880 C   0  0  0  0  0  0  0  0  0  0  0  0
    0.7990    9.5540   10.7920 C   0  0  0  0  0  0  0  0  0  0  0  0
    1.5890    9.0940   11.8460 C   0  0  0  0  0  0  0  0  0  0  0  0
    2.2780    9.9540   12.6410 O   0  0  0  0  0  0  0  0  0  0  0  0
    1.6430    7.7440   12.1130 C   0  0  0  0  0  0  0  0  0  0  0  0
    0.8740    6.8520   11.3530 C   0  0  0  0  0  0  0  0  0  0  0  0
    1.0230    5.5540   11.8010 O   0  0  0  0  0  0  0  0  0  0  0  0
    2.0190    5.5740   12.7660 C   0  0  0  0  0  0  0  0  0  0  0  0
    2.7660    4.5080   13.0780 C   0  0  0  0  0  0  0  0  0  0  0  0
    4.0010    4.7060   13.8020 C   0  0  0  0  0  0  0  0  0  0  0  0
    4.5110    3.5340   14.3150 O   0  0  0  0  0  0  0  0  0  0  0  0
    4.6100    5.9110   13.8630 C   0  0  0  0  0  0  0  0  0  0  0  0
    5.9290    6.0490   14.5440 C   0  0  0  0  0  0  0  0  0  0  0  0
    6.0420    6.9030   15.7790 C   0  0  0  0  0  0  0  0  0  0  0  0
    6.9130    5.4480   14.0990 O   0  0  0  0  0  0  0  0  0  0  0  0
    3.8920    7.0650   13.2170 C   0  0  0  0  0  0  0  0  0  0  0  0
    4.5410    8.0170   12.7850 O   0  0  0  0  0  0  0  0  0  0  0  0
    2.3610    6.9870   13.1910 C   0  0  1  0  0  0  0  0  0  0  0  0
    1.7860    7.3230   14.5740 C   0  0  0  0  0  0  0  0  0  0  0  0
   -0.1629    0.5138    7.4843 H   0  0  0  0  0  0  0  0  0  0  0  0
   -1.1062    1.0245    6.0435 H   0  0  0  0  0  0  0  0  0  0  0  0
    0.6840    1.1723    6.0435 H   0  0  0  0  0  0  0  0  0  0  0  0
   -1.3858    2.8287    7.5210 H   0  0  0  0  0  0  0  0  0  0  0  0
    0.3284    2.7137    8.1078 H   0  0  0  0  0  0  0  0  0  0  0  0
    1.4204    2.3083    5.2568 H   0  0  0  0  0  0  0  0  0  0  0  0
    2.1975    3.9302    3.5546 H   0  0  0  0  0  0  0  0  0  0  0  0
    2.1390    6.1013    2.5449 H   0  0  0  0  0  0  0  0  0  0  0  0
    1.2809    8.4346    2.4469 H   0  0  0  0  0  0  0  0  0  0  0  0
   -0.3900    9.2079    4.1240 H   0  0  0  0  0  0  0  0  0  0  0  0
   -1.1853    7.6608    5.8937 H   0  0  0  0  0  0  0  0  0  0  0  0
   -2.2947    5.8776    6.8129 H   0  0  0  0  0  0  0  0  0  0  0  0
   -1.6806    4.5869    7.9164 H   0  0  0  0  0  0  0  0  0  0  0  0
   -0.2570    7.1820    7.7610 H   0  0  0  0  0  0  0  0  0  0  0  0
   -1.2551   10.8231    9.9058 H   0  0  0  0  0  0  0  0  0  0  0  0
   -0.3707   10.9972    8.3520 H   0  0  0  0  0  0  0  0  0  0  0  0
   -2.0973   10.5018    8.3520 H   0  0  0  0  0  0  0  0  0  0  0  0
    0.7657   10.6304   10.5676 H   0  0  0  0  0  0  0  0  0  0  0  0
    3.2210    9.7190   12.6320 H   0  0  0  0  0  0  0  0  0  0  0  0
    2.4448    3.4968   12.7878 H   0  0  0  0  0  0  0  0  0  0  0  0
    4.4790    2.8460   13.6110 H   0  0  0  0  0  0  0  0  0  0  0  0
    5.9579    6.2677   16.6731 H   0  0  0  0  0  0  0  0  0  0  0  0
    7.0157    7.4148   15.7831 H   0  0  0  0  0  0  0  0  0  0  0  0
    5.2349    7.6504   15.7831 H   0  0  0  0  0  0  0  0  0  0  0  0
    2.4554    6.9318   15.3543 H   0  0  0  0  0  0  0  0  0  0  0  0
    1.6984    8.4144   14.6794 H   0  0  0  0  0  0  0  0  0  0  0  0
    0.7921    6.8635   14.6794 H   0  0  0  0  0  0  0  0  0  0  0  0
  1  2  1  0
  2  3  1  0
  3  4  2  0
  4  5  1  0
  5  6  2  0
  6  7  1  0
  7  8  2  0
  8  9  1  0
  9 10  2  0
 10 11  1  0
 11 12  2  0
 12 13  1  0
 13 14  1  0
 14 15  1  0
 15 16  2  0
 15 17  1  0
 17 18  2  0
 18 19  1  0
 19 20  1  0
 18 21  1  0
 21 22  2  0
 22 23  1  0
 22 24  1  0
 24 25  2  0
 25 26  1  0
 26 27  1  0
 27 28  2  0
 28 29  1  0
 29 30  1  0
 29 31  2  0
 31 32  1  0
 32 33  1  0
 32 34  2  0
 31 35  1  0
 35 36  2  0
 35 37  1  0
 37 38  1  1
 12  3  1  0
 25 17  1  0
 37 27  1  0
 11  6  1  0
 37 24  1  0
  1 39  1  0
  1 40  1  0
  1 41  1  0
  2 42  1  0
  2 43  1  0
  4 44  1  0
  5 45  1  0
  7 46  1  0
  8 47  1  0
  9 48  1  0
 10 49  1  0
 13 50  1  0
 13 51  1  0
 14 52  1  0
 20 53  1  0
 20 54  1  0
 20 55  1  0
 21 56  1  0
 23 57  1  0
 28 58  1  0
 30 59  1  0
 33 60  1  0
 33 61  1  0
 33 62  1  0
 38 63  1  0
 38 64  1  0
 38 65  1  0
M  END
>  <meeko>  (2) 
{"is_sidechain": [false], "free_energy": -9.091, "intermolecular_energy": -12.85, "internal_energy": -1.057}

$$$$
3b1m_ligand
     RDKit          3D

 65 69  0  0  0  0  0  0  0  0999 V2000
   -1.4300    2.7390   10.2860 C   0  0  0  0  0  0  0  0  0  0  0  0
   -1.7510    4.1170    9.7250 C   0  0  0  0  0  0  0  0  0  0  0  0
   -1.1220    4.3380    8.3640 C   0  0  0  0  0  0  0  0  0  0  0  0
   -0.7290    3.2020    7.6420 C   0  0  0  0  0  0  0  0  0  0  0  0
   -0.1550    3.3200    6.3800 C   0  0  0  0  0  0  0  0  0  0  0  0
    0.0390    4.5740    5.7940 C   0  0  0  0  0  0  0  0  0  0  0  0
    0.6020    4.6600    4.5100 C   0  0  0  0  0  0  0  0  0  0  0  0
    0.7980    5.8920    3.8910 C   0  0  0  0  0  0  0  0  0  0  0  0
    0.4310    7.0550    4.5510 C   0  0  0  0  0  0  0  0  0  0  0  0
   -0.1270    6.9820    5.8310 C   0  0  0  0  0  0  0  0  0  0  0  0
   -0.3360    5.7480    6.4950 C   0  0  0  0  0  0  0  0  0  0  0  0
   -0.9010    5.6240    7.8090 C   0  0  0  0  0  0  0  0  0  0  0  0
   -1.3090    6.8670    8.5740 C   0  0  0  0  0  0  0  0  0  0  0  0
   -0.6510    6.9160    9.8570 N   0  0  0  0  0  0  0  0  0  0  0  0
    0.5470    7.5740   10.0200 C   0  0  0  0  0  0  0  0  0  0  0  0
    1.1830    8.0200    9.0710 O   0  0  0  0  0  0  0  0  0  0  0  0
    1.0390    7.7240   11.4220 C   0  0  0  0  0  0  0  0  0  0  0  0
    1.2100    6.6410   12.3150 C   0  0  0  0  0  0  0  0  0  0  0  0
    0.9040    5.3880   11.8430 O   0  0  0  0  0  0  0  0  0  0  0  0
    1.2420    4.2600   12.6410 C   0  0  0  0  0  0  0  0  0  0  0  0
    1.6850    6.8750   13.6260 C   0  0  0  0  0  0  0  0  0  0  0  0
    1.9760    8.1690   14.0600 C   0  0  0  0  0  0  0  0  0  0  0  0
    2.4860    8.4020   15.2980 O   0  0  0  0  0  0  0  0  0  0  0  0
    1.7800    9.2300   13.2050 C   0  0  0  0  0  0  0  0  0  0  0  0
    1.3310    8.9980   11.8970 C   0  0  0  0  0  0  0  0  0  0  0  0
    1.2440   10.1760   11.1800 O   0  0  0  0  0  0  0  0  0  0  0  0
    1.4900   11.2090   12.0730 C   0  0  0  0  0  0  0  0  0  0  0  0
    1.0420   12.4570   11.8990 C   0  0  0  0  0  0  0  0  0  0  0  0
    1.0180   13.3570   13.0290 C   0  0  0  0  0  0  0  0  0  0  0  0
    0.8260   14.6700   12.6600 O   0  0  0  0  0  0  0  0  0  0  0  0
    1.0820   12.9090   14.3030 C   0  0  0  0  0  0  0  0  0  0  0  0
    0.9630   13.8650   15.4390 C   0  0  0  0  0  0  0  0  0  0  0  0
    2.1900   14.5760   15.9460 C   0  0  0  0  0  0  0  0  0  0  0  0
   -0.1450   14.0810   15.9450 O   0  0  0  0  0  0  0  0  0  0  0  0
    1.2730   11.4280   14.4900 C   0  0  0  0  0  0  0  0  0  0  0  0
    0.8520   10.8870   15.5110 O   0  0  0  0  0  0  0  0  0  0  0  0
    2.0460   10.6960   13.3860 C   0  0  1  0  0  0  0  0  0  0  0  0
    3.5500   10.9700   13.5150 C   0  0  0  0  0  0  0  0  0  0  0  0
   -1.4394    2.7793   11.3852 H   0  0  0  0  0  0  0  0  0  0  0  0
   -2.1840    2.0171    9.9391 H   0  0  0  0  0  0  0  0  0  0  0  0
   -0.4346    2.4247    9.9391 H   0  0  0  0  0  0  0  0  0  0  0  0
   -2.8425    4.2168    9.6319 H   0  0  0  0  0  0  0  0  0  0  0  0
   -1.3394    4.8684   10.4149 H   0  0  0  0  0  0  0  0  0  0  0  0
   -0.8766    2.2036    8.0794 H   0  0  0  0  0  0  0  0  0  0  0  0
    0.1503    2.4140    5.8360 H   0  0  0  0  0  0  0  0  0  0  0  0
    0.8930    3.7385    3.9845 H   0  0  0  0  0  0  0  0  0  0  0  0
    1.2409    5.9422    2.8854 H   0  0  0  0  0  0  0  0  0  0  0  0
    0.5785    8.0326    4.0688 H   0  0  0  0  0  0  0  0  0  0  0  0
   -0.4134    7.9143    6.3397 H   0  0  0  0  0  0  0  0  0  0  0  0
   -1.0303    7.7573    7.9912 H   0  0  0  0  0  0  0  0  0  0  0  0
   -2.3968    6.8413    8.7355 H   0  0  0  0  0  0  0  0  0  0  0  0
   -1.2150    6.7560   10.6840 H   0  0  0  0  0  0  0  0  0  0  0  0
    1.1621    4.5266   13.7052 H   0  0  0  0  0  0  0  0  0  0  0  0
    0.5523    3.4328   12.4174 H   0  0  0  0  0  0  0  0  0  0  0  0
    2.2730    3.9484   12.4174 H   0  0  0  0  0  0  0  0  0  0  0  0
    1.8269    6.0269   14.3121 H   0  0  0  0  0  0  0  0  0  0  0  0
    1.7700    8.6590   15.9010 H   0  0  0  0  0  0  0  0  0  0  0  0
    0.6969   12.7933   10.9102 H   0  0  0  0  0  0  0  0  0  0  0  0
    1.2280   15.2490   13.3470 H   0  0  0  0  0  0  0  0  0  0  0  0
    2.1866   14.5741   17.0460 H   0  0  0  0  0  0  0  0  0  0  0  0
    3.0901   14.0595   15.5812 H   0  0  0  0  0  0  0  0  0  0  0  0
    2.1895   15.6137   15.5812 H   0  0  0  0  0  0  0  0  0  0  0  0
    3.8237   11.0199   14.5792 H   0  0  0  0  0  0  0  0  0  0  0  0
    4.1133   10.1597   13.0291 H   0  0  0  0  0  0  0  0  0  0  0  0
    3.7914   11.9269   13.0291 H   0  0  0  0  0  0  0  0  0  0  0  0
  1  2  1  0
  2  3  1  0
  3  4  2  0
  4  5  1  0
  5  6  2  0
  6  7  1  0
  7  8  2  0
  8  9  1  0
  9 10  2  0
 10 11  1  0
 11 12  2  0
 12 13  1  0
 13 14  1  0
 14 15  1  0
 15 16  2  0
 15 17  1  0
 17 18  2  0
 18 19  1  0
 19 20  1  0
 18 21  1  0
 21 22  2  0
 22 23  1  0
 22 24  1  0
 24 25  2  0
 25 26  1  0
 26 27  1  0
 27 28  2  0
 28 29  1  0
 29 30  1  0
 29 31  2  0
 31 32  1  0
 32 33  1  0
 32 34  2  0
 31 35  1  0
 35 36  2  0
 35 37  1  0
 37 38  1  6
 12  3  1  0
 25 17  1  0
 37 27  1  0
 11  6  1  0
 37 24  1  0
  1 39  1  0
  1 40  1  0
  1 41  1  0
  2 42  1  0
  2 43  1  0
  4 44  1  0
  5 45  1  0
  7 46  1  0
  8 47  1  0
  9 48  1  0
 10 49  1  0
 13 50  1  0
 13 51  1  0
 14 52  1  0
 20 53  1  0
 20 54  1  0
 20 55  1  0
 21 56  1  0
 23 57  1  0
 28 58  1  0
 30 59  1  0
 33 60  1  0
 33 61  1  0
 33 62  1  0
 38 63  1  0
 38 64  1  0
 38 65  1  0
M  END
>  <meeko>  (3) 
{"is_sidechain": [false], "free_energy": -9.045, "intermolecular_energy": -12.673, "internal_energy": -1.169}

$$$$
3b1m_ligand
     RDKit          3D

 65 69  0  0  0  0  0  0  0  0999 V2000
    1.7010    6.0920    4.9460 C   0  0  0  0  0  0  0  0  0  0  0  0
    0.1930    5.9360    5.0870 C   0  0  0  0  0  0  0  0  0  0  0  0
   -0.1770    4.9570    6.1820 C   0  0  0  0  0  0  0  0  0  0  0  0
    0.1790    3.6140    5.9960 C   0  0  0  0  0  0  0  0  0  0  0  0
   -0.1150    2.6560    6.9610 C   0  0  0  0  0  0  0  0  0  0  0  0
   -0.7650    3.0070    8.1470 C   0  0  0  0  0  0  0  0  0  0  0  0
   -1.0290    2.0210    9.1130 C   0  0  0  0  0  0  0  0  0  0  0  0
   -1.6650    2.3380   10.3110 C   0  0  0  0  0  0  0  0  0  0  0  0
   -2.0430    3.6500   10.5570 C   0  0  0  0  0  0  0  0  0  0  0  0
   -1.7880    4.6390    9.6030 C   0  0  0  0  0  0  0  0  0  0  0  0
   -1.1500    4.3530    8.3700 C   0  0  0  0  0  0  0  0  0  0  0  0
   -0.8720    5.3340    7.3590 C   0  0  0  0  0  0  0  0  0  0  0  0
   -1.2750    6.7790    7.5800 C   0  0  0  0  0  0  0  0  0  0  0  0
   -0.9040    7.2150    8.9040 N   0  0  0  0  0  0  0  0  0  0  0  0
    0.3190    7.8000    9.1460 C   0  0  0  0  0  0  0  0  0  0  0  0
    1.2020    7.8470    8.2960 O   0  0  0  0  0  0  0  0  0  0  0  0
    0.5190    8.3850   10.5050 C   0  0  0  0  0  0  0  0  0  0  0  0
   -0.1430    9.5480   10.9660 C   0  0  0  0  0  0  0  0  0  0  0  0
   -1.0190   10.1530   10.0990 O   0  0  0  0  0  0  0  0  0  0  0  0
   -0.6440   11.3930    9.5110 C   0  0  0  0  0  0  0  0  0  0  0  0
    0.1050   10.0300   12.2720 C   0  0  0  0  0  0  0  0  0  0  0  0
    1.0100    9.3810   13.1140 C   0  0  0  0  0  0  0  0  0  0  0  0
    1.2150    9.8010   14.3900 O   0  0  0  0  0  0  0  0  0  0  0  0
    1.6810    8.2690   12.6580 C   0  0  0  0  0  0  0  0  0  0  0  0
    1.4190    7.7750   11.3720 C   0  0  0  0  0  0  0  0  0  0  0  0
    2.1500    6.6300   11.1160 O   0  0  0  0  0  0  0  0  0  0  0  0
    3.0150    6.4580   12.1870 C   0  0  0  0  0  0  0  0  0  0  0  0
    4.1680    5.7840   12.1020 C   0  0  0  0  0  0  0  0  0  0  0  0
    5.1640    5.9690   13.1330 C   0  0  0  0  0  0  0  0  0  0  0  0
    6.1550    5.0140   13.0930 O   0  0  0  0  0  0  0  0  0  0  0  0
    5.1450    7.0350   13.9640 C   0  0  0  0  0  0  0  0  0  0  0  0
    6.2430    7.2330   14.9510 C   0  0  0  0  0  0  0  0  0  0  0  0
    7.2340    8.3500   14.7480 C   0  0  0  0  0  0  0  0  0  0  0  0
    6.3230    6.4920   15.9370 O   0  0  0  0  0  0  0  0  0  0  0  0
    3.9800    7.9780   13.8290 C   0  0  0  0  0  0  0  0  0  0  0  0
    4.1170    9.1600   14.1410 O   0  0  0  0  0  0  0  0  0  0  0  0
    2.6590    7.3640   13.3480 C   0  0  1  0  0  0  0  0  0  0  0  0
    1.9820    6.5910   14.4880 C   0  0  0  0  0  0  0  0  0  0  0  0
    2.1597    6.1394    5.9447 H   0  0  0  0  0  0  0  0  0  0  0  0
    2.1088    5.2312    4.3957 H   0  0  0  0  0  0  0  0  0  0  0  0
    1.9240    7.0180    4.3957 H   0  0  0  0  0  0  0  0  0  0  0  0
   -0.2446    6.9167    5.3249 H   0  0  0  0  0  0  0  0  0  0  0  0
   -0.1982    5.5454    4.1360 H   0  0  0  0  0  0  0  0  0  0  0  0
    0.6982    3.3134    5.0740 H   0  0  0  0  0  0  0  0  0  0  0  0
    0.1683    1.6073    6.7879 H   0  0  0  0  0  0  0  0  0  0  0  0
   -0.7281    0.9808    8.9197 H   0  0  0  0  0  0  0  0  0  0  0  0
   -1.8660    1.5542   11.0562 H   0  0  0  0  0  0  0  0  0  0  0  0
   -2.5426    3.9114   11.5015 H   0  0  0  0  0  0  0  0  0  0  0  0
   -2.0927    5.6742    9.8162 H   0  0  0  0  0  0  0  0  0  0  0  0
   -0.7696    7.4126    6.8363 H   0  0  0  0  0  0  0  0  0  0  0  0
   -2.3667    6.8620    7.4733 H   0  0  0  0  0  0  0  0  0  0  0  0
   -1.6480    7.3900    9.5700 H   0  0  0  0  0  0  0  0  0  0  0  0
   -0.4233   12.1229   10.3038 H   0  0  0  0  0  0  0  0  0  0  0  0
    0.2503   11.2475    8.8873 H   0  0  0  0  0  0  0  0  0  0  0  0
   -1.4691   11.7674    8.8873 H   0  0  0  0  0  0  0  0  0  0  0  0
   -0.4216   10.9274   12.6290 H   0  0  0  0  0  0  0  0  0  0  0  0
    0.4040   10.2130   14.7300 H   0  0  0  0  0  0  0  0  0  0  0  0
    4.3548    5.1001   11.2609 H   0  0  0  0  0  0  0  0  0  0  0  0
    6.8540    5.3150   12.4680 H   0  0  0  0  0  0  0  0  0  0  0  0
    7.5678    8.7263   15.7262 H   0  0  0  0  0  0  0  0  0  0  0  0
    8.1006    7.9735   14.1848 H   0  0  0  0  0  0  0  0  0  0  0  0
    6.7569    9.1656   14.1848 H   0  0  0  0  0  0  0  0  0  0  0  0
    2.3278    6.9858   15.4547 H   0  0  0  0  0  0  0  0  0  0  0  0
    0.8908    6.7083   14.4132 H   0  0  0  0  0  0  0  0  0  0  0  0
    2.2421    5.5248   14.4132 H   0  0  0  0  0  0  0  0  0  0  0  0
  1  2  1  0
  2  3  1  0
  3  4  2  0
  4  5  1  0
  5  6  2  0
  6  7  1  0
  7  8  2  0
  8  9  1  0
  9 10  2  0
 10 11  1  0
 11 12  2  0
 12 13  1  0
 13 14  1  0
 14 15  1  0
 15 16  2  0
 15 17  1  0
 17 18  2  0
 18 19  1  0
 19 20  1  0
 18 21  1  0
 21 22  2  0
 22 23  1  0
 22 24  1  0
 24 25  2  0
 25 26  1  0
 26 27  1  0
 27 28  2  0
 28 29  1  0
 29 30  1  0
 29 31  2  0
 31 32  1  0
 32 33  1  0
 32 34  2  0
 31 35  1  0
 35 36  2  0
 35 37  1  0
 37 38  1  1
 12  3  1  0
 25 17  1  0
 37 27  1  0
 11  6  1  0
 37 24  1  0
  1 39  1  0
  1 40  1  0
  1 41  1  0
  2 42  1  0
  2 43  1  0
  4 44  1  0
  5 45  1  0
  7 46  1  0
  8 47  1  0
  9 48  1  0
 10 49  1  0
 13 50  1  0
 13 51  1  0
 14 52  1  0
 20 53  1  0
 20 54  1  0
 20 55  1  0
 21 56  1  0
 23 57  1  0
 28 58  1  0
 30 59  1  0
 33 60  1  0
 33 61  1  0
 33 62  1  0
 38 63  1  0
 38 64  1  0
 38 65  1  0
M  END
>  <meeko>  (4) 
{"is_sidechain": [false], "free_energy": -8.763, "intermolecular_energy": -12.27, "internal_energy": -1.175}

$$$$
3b1m_ligand
     RDKit          3D

 65 69  0  0  0  0  0  0  0  0999 V2000
    1.2000    4.9630    4.6520 C   0  0  0  0  0  0  0  0  0  0  0  0
    0.4500    5.6020    3.4920 C   0  0  0  0  0  0  0  0  0  0  0  0
    1.0600    6.9270    3.0810 C   0  0  0  0  0  0  0  0  0  0  0  0
    2.2170    6.8880    2.2900 C   0  0  0  0  0  0  0  0  0  0  0  0
    2.8300    8.0620    1.8620 C   0  0  0  0  0  0  0  0  0  0  0  0
    2.3050    9.3110    2.2010 C   0  0  0  0  0  0  0  0  0  0  0  0
    2.9340   10.4780    1.7350 C   0  0  0  0  0  0  0  0  0  0  0  0
    2.4310   11.7400    2.0440 C   0  0  0  0  0  0  0  0  0  0  0  0
    1.2880   11.8470    2.8220 C   0  0  0  0  0  0  0  0  0  0  0  0
    0.6550   10.6940    3.2940 C   0  0  0  0  0  0  0  0  0  0  0  0
    1.1410    9.3940    3.0060 C   0  0  0  0  0  0  0  0  0  0  0  0
    0.5280    8.1820    3.4710 C   0  0  0  0  0  0  0  0  0  0  0  0
   -0.7170    8.2500    4.3330 C   0  0  0  0  0  0  0  0  0  0  0  0
   -0.4050    7.9370    5.7070 N   0  0  0  0  0  0  0  0  0  0  0  0
   -1.3990    7.7580    6.6420 C   0  0  0  0  0  0  0  0  0  0  0  0
   -2.5770    7.9960    6.3990 O   0  0  0  0  0  0  0  0  0  0  0  0
   -0.9710    7.2510    7.9790 C   0  0  0  0  0  0  0  0  0  0  0  0
   -1.0500    5.8920    8.3670 C   0  0  0  0  0  0  0  0  0  0  0  0
   -1.5470    5.0070    7.4420 O   0  0  0  0  0  0  0  0  0  0  0  0
   -0.9020    3.7480    7.2920 C   0  0  0  0  0  0  0  0  0  0  0  0
   -0.6180    5.4990    9.6540 C   0  0  0  0  0  0  0  0  0  0  0  0
   -0.1250    6.4390   10.5600 C   0  0  0  0  0  0  0  0  0  0  0  0
    0.3460    6.0670   11.7800 O   0  0  0  0  0  0  0  0  0  0  0  0
   -0.0770    7.7670   10.2000 C   0  0  0  0  0  0  0  0  0  0  0  0
   -0.4830    8.1560    8.9150 C   0  0  0  0  0  0  0  0  0  0  0  0
   -0.3150    9.5140    8.7260 O   0  0  0  0  0  0  0  0  0  0  0  0
    0.0600   10.0470    9.9510 C   0  0  0  0  0  0  0  0  0  0  0  0
   -0.1470   11.3240   10.2940 C   0  0  0  0  0  0  0  0  0  0  0  0
   -0.0740   11.6950   11.6890 C   0  0  0  0  0  0  0  0  0  0  0  0
   -0.0060   13.0580   11.8740 O   0  0  0  0  0  0  0  0  0  0  0  0
   -0.1660   10.7790   12.6790 C   0  0  0  0  0  0  0  0  0  0  0  0
   -0.1790   11.2170   14.1030 C   0  0  0  0  0  0  0  0  0  0  0  0
    0.9310   10.7830   15.0240 C   0  0  0  0  0  0  0  0  0  0  0  0
   -1.0890   11.9460   14.5130 O   0  0  0  0  0  0  0  0  0  0  0  0
   -0.2550    9.3370   12.2600 C   0  0  0  0  0  0  0  0  0  0  0  0
   -0.8260    8.5280   12.9900 O   0  0  0  0  0  0  0  0  0  0  0  0
    0.4370    8.9660   10.9420 C   0  0  1  0  0  0  0  0  0  0  0  0
    1.9560    8.8790   11.1430 C   0  0  0  0  0  0  0  0  0  0  0  0
    0.7790    5.3217    5.6029 H   0  0  0  0  0  0  0  0  0  0  0  0
    1.0990    3.8691    4.5958 H   0  0  0  0  0  0  0  0  0  0  0  0
    2.2640    5.2364    4.5958 H   0  0  0  0  0  0  0  0  0  0  0  0
    0.4767    4.9170    2.6318 H   0  0  0  0  0  0  0  0  0  0  0  0
   -0.5831    5.7911    3.8190 H   0  0  0  0  0  0  0  0  0  0  0  0
    2.6461    5.9164    2.0038 H   0  0  0  0  0  0  0  0  0  0  0  0
    3.7409    8.0053    1.2480 H   0  0  0  0  0  0  0  0  0  0  0  0
    3.8391   10.3937    1.1156 H   0  0  0  0  0  0  0  0  0  0  0  0
    2.9364   12.6442    1.6738 H   0  0  0  0  0  0  0  0  0  0  0  0
    0.8800   12.8386    3.0674 H   0  0  0  0  0  0  0  0  0  0  0  0
   -0.2506   10.7988    3.9095 H   0  0  0  0  0  0  0  0  0  0  0  0
   -1.1373    9.2652    4.2806 H   0  0  0  0  0  0  0  0  0  0  0  0
   -1.4455    7.5151    3.9599 H   0  0  0  0  0  0  0  0  0  0  0  0
    0.5040    7.5330    5.9040 H   0  0  0  0  0  0  0  0  0  0  0  0
   -0.6859    3.3262    8.2846 H   0  0  0  0  0  0  0  0  0  0  0  0
   -1.5600    3.0626    6.7377 H   0  0  0  0  0  0  0  0  0  0  0  0
    0.0387    3.8817    6.7377 H   0  0  0  0  0  0  0  0  0  0  0  0
   -0.6710    4.4395    9.9450 H   0  0  0  0  0  0  0  0  0  0  0  0
   -0.2950    5.4760   12.2080 H   0  0  0  0  0  0  0  0  0  0  0  0
   -0.3693   12.0796    9.5261 H   0  0  0  0  0  0  0  0  0  0  0  0
   -0.8860   13.3750   12.1810 H   0  0  0  0  0  0  0  0  0  0  0  0
    0.6106   10.9083   16.0688 H   0  0  0  0  0  0  0  0  0  0  0  0
    1.1695    9.7254   14.8379 H   0  0  0  0  0  0  0  0  0  0  0  0
    1.8236   11.3984   14.8379 H   0  0  0  0  0  0  0  0  0  0  0  0
    2.1833    8.8660   12.2192 H   0  0  0  0  0  0  0  0  0  0  0  0
    2.3354    7.9577   10.6769 H   0  0  0  0  0  0  0  0  0  0  0  0
    2.4381    9.7510   10.6769 H   0  0  0  0  0  0  0  0  0  0  0  0
  1  2  1  0
  2  3  1  0
  3  4  2  0
  4  5  1  0
  5  6  2  0
  6  7  1  0
  7  8  2  0
  8  9  1  0
  9 10  2  0
 10 11  1  0
 11 12  2  0
 12 13  1  0
 13 14  1  0
 14 15  1  0
 15 16  2  0
 15 17  1  0
 17 18  2  0
 18 19  1  0
 19 20  1  0
 18 21  1  0
 21 22  2  0
 22 23  1  0
 22 24  1  0
 24 25  2  0
 25 26  1  0
 26 27  1  0
 27 28  2  0
 28 29  1  0
 29 30  1  0
 29 31  2  0
 31 32  1  0
 32 33  1  0
 32 34  2  0
 31 35  1  0
 35 36  2  0
 35 37  1  0
 37 38  1  1
 12  3  1  0
 25 17  1  0
 37 27  1  0
 11  6  1  0
 37 24  1  0
  1 39  1  0
  1 40  1  0
  1 41  1  0
  2 42  1  0
  2 43  1  0
  4 44  1  0
  5 45  1  0
  7 46  1  0
  8 47  1  0
  9 48  1  0
 10 49  1  0
 13 50  1  0
 13 51  1  0
 14 52  1  0
 20 53  1  0
 20 54  1  0
 20 55  1  0
 21 56  1  0
 23 57  1  0
 28 58  1  0
 30 59  1  0
 33 60  1  0
 33 61  1  0
 33 62  1  0
 38 63  1  0
 38 64  1  0
 38 65  1  0
M  END
>  <meeko>  (5) 
{"is_sidechain": [false], "free_energy": -8.644, "intermolecular_energy": -11.713, "internal_energy": -1.563}

$$$$
3b1m_ligand
     RDKit          3D

 65 69  0  0  0  0  0  0  0  0999 V2000
   -1.7260    4.0560    9.9640 C   0  0  0  0  0  0  0  0  0  0  0  0
   -2.0360    5.2190    9.0330 C   0  0  0  0  0  0  0  0  0  0  0  0
   -1.1660    5.2030    7.7920 C   0  0  0  0  0  0  0  0  0  0  0  0
   -0.6670    3.9630    7.3700 C   0  0  0  0  0  0  0  0  0  0  0  0
    0.1300    3.8620    6.2340 C   0  0  0  0  0  0  0  0  0  0  0  0
    0.4460    4.9930    5.4760 C   0  0  0  0  0  0  0  0  0  0  0  0
    1.2340    4.8560    4.3210 C   0  0  0  0  0  0  0  0  0  0  0  0
    1.5590    5.9600    3.5360 C   0  0  0  0  0  0  0  0  0  0  0  0
    1.0950    7.2150    3.8980 C   0  0  0  0  0  0  0  0  0  0  0  0
    0.3120    7.3650    5.0470 C   0  0  0  0  0  0  0  0  0  0  0  0
   -0.0320    6.2660    5.8740 C   0  0  0  0  0  0  0  0  0  0  0  0
   -0.8290    6.3710    7.0640 C   0  0  0  0  0  0  0  0  0  0  0  0
   -1.3500    7.7250    7.5050 C   0  0  0  0  0  0  0  0  0  0  0  0
   -1.0260    7.9700    8.8890 N   0  0  0  0  0  0  0  0  0  0  0  0
    0.2580    8.2770    9.2770 C   0  0  0  0  0  0  0  0  0  0  0  0
    1.2080    8.2160    8.5050 O   0  0  0  0  0  0  0  0  0  0  0  0
    0.4410    8.6980   10.6990 C   0  0  0  0  0  0  0  0  0  0  0  0
   -0.2560    9.7750   11.2950 C   0  0  0  0  0  0  0  0  0  0  0  0
   -1.1500   10.4550   10.5040 O   0  0  0  0  0  0  0  0  0  0  0  0
   -0.6830   11.5720    9.7580 C   0  0  0  0  0  0  0  0  0  0  0  0
   -0.0220   10.1020   12.6500 C   0  0  0  0  0  0  0  0  0  0  0  0
    0.9020    9.3840   13.4100 C   0  0  0  0  0  0  0  0  0  0  0  0
    1.0940    9.6520   14.7290 O   0  0  0  0  0  0  0  0  0  0  0  0
    1.6070    8.3560   12.8250 C   0  0  0  0  0  0  0  0  0  0  0  0
    1.3600    8.0150   11.4870 C   0  0  0  0  0  0  0  0  0  0  0  0
    2.1240    6.9320   11.0970 O   0  0  0  0  0  0  0  0  0  0  0  0
    2.9950    6.6580   12.1420 C   0  0  0  0  0  0  0  0  0  0  0  0
    4.1680    6.0340   11.9800 C   0  0  0  0  0  0  0  0  0  0  0  0
    5.1580    6.1230   13.0290 C   0  0  0  0  0  0  0  0  0  0  0  0
    6.1780    5.2090   12.8770 O   0  0  0  0  0  0  0  0  0  0  0  0
    5.1070    7.0780   13.9840 C   0  0  0  0  0  0  0  0  0  0  0  0
    6.1990    7.1880   14.9920 C   0  0  0  0  0  0  0  0  0  0  0  0
    7.2360    8.2700   14.8490 C   0  0  0  0  0  0  0  0  0  0  0  0
    6.2340    6.4020   15.9450 O   0  0  0  0  0  0  0  0  0  0  0  0
    3.9130    7.9940   13.9600 C   0  0  0  0  0  0  0  0  0  0  0  0
    4.0140    9.1330   14.4140 O   0  0  0  0  0  0  0  0  0  0  0  0
    2.6110    7.4040   13.4030 C   0  0  1  0  0  0  0  0  0  0  0  0
    1.9590    6.4780   14.4390 C   0  0  0  0  0  0  0  0  0  0  0  0
   -1.8147    4.3889   11.0087 H   0  0  0  0  0  0  0  0  0  0  0  0
   -2.4374    3.2379    9.7782 H   0  0  0  0  0  0  0  0  0  0  0  0
   -0.7017    3.7005    9.7782 H   0  0  0  0  0  0  0  0  0  0  0  0
   -3.0909    5.1574    8.7275 H   0  0  0  0  0  0  0  0  0  0  0  0
   -1.8323    6.1527    9.5777 H   0  0  0  0  0  0  0  0  0  0  0  0
   -0.9089    3.0570    7.9450 H   0  0  0  0  0  0  0  0  0  0  0  0
    0.5167    2.8786    5.9283 H   0  0  0  0  0  0  0  0  0  0  0  0
    1.6006    3.8601    4.0316 H   0  0  0  0  0  0  0  0  0  0  0  0
    2.1791    5.8368    2.6358 H   0  0  0  0  0  0  0  0  0  0  0  0
    1.3424    8.0922    3.2821 H   0  0  0  0  0  0  0  0  0  0  0  0
   -0.0487    8.3682    5.3179 H   0  0  0  0  0  0  0  0  0  0  0  0
   -0.8921    8.5082    6.8829 H   0  0  0  0  0  0  0  0  0  0  0  0
   -2.4439    7.7374    7.3904 H   0  0  0  0  0  0  0  0  0  0  0  0
   -1.7810    8.2350    9.5110 H   0  0  0  0  0  0  0  0  0  0  0  0
   -0.3527   12.3619   10.4486 H   0  0  0  0  0  0  0  0  0  0  0  0
    0.1611   11.2626    9.1242 H   0  0  0  0  0  0  0  0  0  0  0  0
   -1.4962   11.9555    9.1242 H   0  0  0  0  0  0  0  0  0  0  0  0
   -0.5754   10.9332   13.1113 H   0  0  0  0  0  0  0  0  0  0  0  0
    0.3280   10.1360   15.0770 H   0  0  0  0  0  0  0  0  0  0  0  0
    4.3751    5.4626   11.0631 H   0  0  0  0  0  0  0  0  0  0  0  0
    6.9340    5.4890   13.4410 H   0  0  0  0  0  0  0  0  0  0  0  0
    7.5567    8.6046   15.8466 H   0  0  0  0  0  0  0  0  0  0  0  0
    8.1029    7.8765   14.2980 H   0  0  0  0  0  0  0  0  0  0  0  0
    6.8061    9.1194   14.2980 H   0  0  0  0  0  0  0  0  0  0  0  0
    2.2062    6.8292   15.4517 H   0  0  0  0  0  0  0  0  0  0  0  0
    0.8674    6.4877   14.3039 H   0  0  0  0  0  0  0  0  0  0  0  0
    2.3361    5.4535   14.3039 H   0  0  0  0  0  0  0  0  0  0  0  0
  1  2  1  0
  2  3  1  0
  3  4  2  0
  4  5  1  0
  5  6  2  0
  6  7  1  0
  7  8  2  0
  8  9  1  0
  9 10  2  0
 10 11  1  0
 11 12  2  0
 12 13  1  0
 13 14  1  0
 14 15  1  0
 15 16  2  0
 15 17  1  0
 17 18  2  0
 18 19  1  0
 19 20  1  0
 18 21  1  0
 21 22  2  0
 22 23  1  0
 22 24  1  0
 24 25  2  0
 25 26  1  0
 26 27  1  0
 27 28  2  0
 28 29  1  0
 29 30  1  0
 29 31  2  0
 31 32  1  0
 32 33  1  0
 32 34  2  0
 31 35  1  0
 35 36  2  0
 35 37  1  0
 37 38  1  1
 12  3  1  0
 25 17  1  0
 37 27  1  0
 11  6  1  0
 37 24  1  0
  1 39  1  0
  1 40  1  0
  1 41  1  0
  2 42  1  0
  2 43  1  0
  4 44  1  0
  5 45  1  0
  7 46  1  0
  8 47  1  0
  9 48  1  0
 10 49  1  0
 13 50  1  0
 13 51  1  0
 14 52  1  0
 20 53  1  0
 20 54  1  0
 20 55  1  0
 21 56  1  0
 23 57  1  0
 28 58  1  0
 30 59  1  0
 33 60  1  0
 33 61  1  0
 33 62  1  0
 38 63  1  0
 38 64  1  0
 38 65  1  0
M  END
>  <meeko>  (6) 
{"is_sidechain": [false], "free_energy": -8.636, "intermolecular_energy": -12.333, "internal_energy": -0.932}

$$$$
3b1m_ligand
     RDKit          3D

 65 69  0  0  0  0  0  0  0  0999 V2000
    1.3970    6.9050    5.7620 C   0  0  0  0  0  0  0  0  0  0  0  0
   -0.0770    6.5270    5.7560 C   0  0  0  0  0  0  0  0  0  0  0  0
   -0.3480    5.2770    6.5680 C   0  0  0  0  0  0  0  0  0  0  0  0
   -0.0800    4.0420    5.9620 C   0  0  0  0  0  0  0  0  0  0  0  0
   -0.2900    2.8490    6.6460 C   0  0  0  0  0  0  0  0  0  0  0  0
   -0.7660    2.8490    7.9600 C   0  0  0  0  0  0  0  0  0  0  0  0
   -0.9480    1.6290    8.6320 C   0  0  0  0  0  0  0  0  0  0  0  0
   -1.4090    1.5920    9.9460 C   0  0  0  0  0  0  0  0  0  0  0  0
   -1.6920    2.7800   10.6030 C   0  0  0  0  0  0  0  0  0  0  0  0
   -1.5180    4.0000    9.9440 C   0  0  0  0  0  0  0  0  0  0  0  0
   -1.0570    4.0760    8.6060 C   0  0  0  0  0  0  0  0  0  0  0  0
   -0.8670    5.3050    7.8870 C   0  0  0  0  0  0  0  0  0  0  0  0
   -1.1730    6.6280    8.5610 C   0  0  0  0  0  0  0  0  0  0  0  0
   -0.5070    6.7150    9.8390 N   0  0  0  0  0  0  0  0  0  0  0  0
    0.6270    7.4760   10.0020 C   0  0  0  0  0  0  0  0  0  0  0  0
    1.2100    7.9950    9.0550 O   0  0  0  0  0  0  0  0  0  0  0  0
    1.1190    7.6470   11.4020 C   0  0  0  0  0  0  0  0  0  0  0  0
    1.3440    6.5710   12.2930 C   0  0  0  0  0  0  0  0  0  0  0  0
    1.0950    5.3060   11.8190 O   0  0  0  0  0  0  0  0  0  0  0  0
    1.1890    4.2120   12.7240 C   0  0  0  0  0  0  0  0  0  0  0  0
    1.8140    6.8260   13.6010 C   0  0  0  0  0  0  0  0  0  0  0  0
    2.0470    8.1310   14.0360 C   0  0  0  0  0  0  0  0  0  0  0  0
    2.5520    8.3860   15.2720 O   0  0  0  0  0  0  0  0  0  0  0  0
    1.7980    9.1830   13.1840 C   0  0  0  0  0  0  0  0  0  0  0  0
    1.3540    8.9320   11.8780 C   0  0  0  0  0  0  0  0  0  0  0  0
    1.2080   10.1060   11.1630 O   0  0  0  0  0  0  0  0  0  0  0  0
    1.4100   11.1480   12.0570 C   0  0  0  0  0  0  0  0  0  0  0  0
    0.9030   12.3740   11.8870 C   0  0  0  0  0  0  0  0  0  0  0  0
    0.8430   13.2710   13.0190 C   0  0  0  0  0  0  0  0  0  0  0  0
    0.5880   14.5740   12.6530 O   0  0  0  0  0  0  0  0  0  0  0  0
    0.9340   12.8240   14.2920 C   0  0  0  0  0  0  0  0  0  0  0  0
    0.7760   13.7720   15.4300 C   0  0  0  0  0  0  0  0  0  0  0  0
    1.9750   14.5220   15.9460 C   0  0  0  0  0  0  0  0  0  0  0  0
   -0.3410   13.9470   15.9310 O   0  0  0  0  0  0  0  0  0  0  0  0
    1.1950   11.3530   14.4750 C   0  0  0  0  0  0  0  0  0  0  0  0
    0.8040   10.7910   15.4970 O   0  0  0  0  0  0  0  0  0  0  0  0
    1.9960   10.6590   13.3660 C   0  0  1  0  0  0  0  0  0  0  0  0
    3.4860   11.0030   13.4890 C   0  0  0  0  0  0  0  0  0  0  0  0
    1.7482    6.9951    6.8005 H   0  0  0  0  0  0  0  0  0  0  0  0
    1.9773    6.1266    5.2449 H   0  0  0  0  0  0  0  0  0  0  0  0
    1.5310    7.8666    5.2449 H   0  0  0  0  0  0  0  0  0  0  0  0
   -0.6582    7.3588    6.1806 H   0  0  0  0  0  0  0  0  0  0  0  0
   -0.3708    6.3253    4.7153 H   0  0  0  0  0  0  0  0  0  0  0  0
    0.3019    4.0157    4.9307 H   0  0  0  0  0  0  0  0  0  0  0  0
   -0.0785    1.8925    6.1457 H   0  0  0  0  0  0  0  0  0  0  0  0
   -0.7226    0.6865    8.1116 H   0  0  0  0  0  0  0  0  0  0  0  0
   -1.5474    0.6284   10.4582 H   0  0  0  0  0  0  0  0  0  0  0  0
   -2.0531    2.7621   11.6419 H   0  0  0  0  0  0  0  0  0  0  0  0
   -1.7464    4.9321   10.4816 H   0  0  0  0  0  0  0  0  0  0  0  0
   -0.8274    7.4500    7.9169 H   0  0  0  0  0  0  0  0  0  0  0  0
   -2.2587    6.7004    8.7220 H   0  0  0  0  0  0  0  0  0  0  0  0
   -1.0460    6.4900   10.6680 H   0  0  0  0  0  0  0  0  0  0  0  0
    1.1568    4.5873   13.7575 H   0  0  0  0  0  0  0  0  0  0  0  0
    0.3466    3.5246   12.5571 H   0  0  0  0  0  0  0  0  0  0  0  0
    2.1363    3.6784   12.5571 H   0  0  0  0  0  0  0  0  0  0  0  0
    1.9986    5.9846   14.2851 H   0  0  0  0  0  0  0  0  0  0  0  0
    2.2270    9.2460   15.5840 H   0  0  0  0  0  0  0  0  0  0  0  0
    0.5372   12.6949   10.9005 H   0  0  0  0  0  0  0  0  0  0  0  0
    1.1630   15.1660   13.1890 H   0  0  0  0  0  0  0  0  0  0  0  0
    1.9657   14.5162   17.0459 H   0  0  0  0  0  0  0  0  0  0  0  0
    2.8940   14.0375   15.5845 H   0  0  0  0  0  0  0  0  0  0  0  0
    1.9414   15.5604   15.5845 H   0  0  0  0  0  0  0  0  0  0  0  0
    3.7611   11.0665   14.5522 H   0  0  0  0  0  0  0  0  0  0  0  0
    4.0847   10.2194   13.0015 H   0  0  0  0  0  0  0  0  0  0  0  0
    3.6806   11.9697   13.0015 H   0  0  0  0  0  0  0  0  0  0  0  0
  1  2  1  0
  2  3  1  0
  3  4  2  0
  4  5  1  0
  5  6  2  0
  6  7  1  0
  7  8  2  0
  8  9  1  0
  9 10  2  0
 10 11  1  0
 11 12  2  0
 12 13  1  0
 13 14  1  0
 14 15  1  0
 15 16  2  0
 15 17  1  0
 17 18  2  0
 18 19  1  0
 19 20  1  0
 18 21  1  0
 21 22  2  0
 22 23  1  0
 22 24  1  0
 24 25  2  0
 25 26  1  0
 26 27  1  0
 27 28  2  0
 28 29  1  0
 29 30  1  0
 29 31  2  0
 31 32  1  0
 32 33  1  0
 32 34  2  0
 31 35  1  0
 35 36  2  0
 35 37  1  0
 37 38  1  6
 12  3  1  0
 25 17  1  0
 37 27  1  0
 11  6  1  0
 37 24  1  0
  1 39  1  0
  1 40  1  0
  1 41  1  0
  2 42  1  0
  2 43  1  0
  4 44  1  0
  5 45  1  0
  7 46  1  0
  8 47  1  0
  9 48  1  0
 10 49  1  0
 13 50  1  0
 13 51  1  0
 14 52  1  0
 20 53  1  0
 20 54  1  0
 20 55  1  0
 21 56  1  0
 23 57  1  0
 28 58  1  0
 30 59  1  0
 33 60  1  0
 33 61  1  0
 33 62  1  0
 38 63  1  0
 38 64  1  0
 38 65  1  0
M  END
>  <meeko>  (7) 
{"is_sidechain": [false], "free_energy": -8.532, "intermolecular_energy": -12.029, "internal_energy": -1.09}

$$$$
3b1m_ligand
     RDKit          3D

 65 69  0  0  0  0  0  0  0  0999 V2000
   -2.1120    8.2010    5.8020 C   0  0  0  0  0  0  0  0  0  0  0  0
   -0.6700    7.8830    6.1710 C   0  0  0  0  0  0  0  0  0  0  0  0
   -0.2930    6.4590    5.8180 C   0  0  0  0  0  0  0  0  0  0  0  0
    0.4710    6.2620    4.6600 C   0  0  0  0  0  0  0  0  0  0  0  0
    0.8690    4.9850    4.2730 C   0  0  0  0  0  0  0  0  0  0  0  0
    0.5240    3.8660    5.0350 C   0  0  0  0  0  0  0  0  0  0  0  0
    0.9580    2.5920    4.6310 C   0  0  0  0  0  0  0  0  0  0  0  0
    0.6430    1.4550    5.3720 C   0  0  0  0  0  0  0  0  0  0  0  0
   -0.1110    1.5820    6.5290 C   0  0  0  0  0  0  0  0  0  0  0  0
   -0.5510    2.8440    6.9400 C   0  0  0  0  0  0  0  0  0  0  0  0
   -0.2560    4.0210    6.2080 C   0  0  0  0  0  0  0  0  0  0  0  0
   -0.6890    5.3360    6.5880 C   0  0  0  0  0  0  0  0  0  0  0  0
   -1.5230    5.5230    7.8400 C   0  0  0  0  0  0  0  0  0  0  0  0
   -0.6960    5.4440    9.0200 N   0  0  0  0  0  0  0  0  0  0  0  0
   -1.0360    4.6280   10.0750 C   0  0  0  0  0  0  0  0  0  0  0  0
   -2.1150    4.0480   10.1340 O   0  0  0  0  0  0  0  0  0  0  0  0
   -0.0150    4.4780   11.1560 C   0  0  0  0  0  0  0  0  0  0  0  0
    0.2360    3.2640   11.8370 C   0  0  0  0  0  0  0  0  0  0  0  0
   -0.5100    2.1720   11.4620 O   0  0  0  0  0  0  0  0  0  0  0  0
    0.1090    0.8910   11.4740 C   0  0  0  0  0  0  0  0  0  0  0  0
    1.2250    3.2120   12.8450 C   0  0  0  0  0  0  0  0  0  0  0  0
    1.9520    4.3510   13.1920 C   0  0  0  0  0  0  0  0  0  0  0  0
    2.9440    4.3020   14.1200 O   0  0  0  0  0  0  0  0  0  0  0  0
    1.6880    5.5430   12.5560 C   0  0  0  0  0  0  0  0  0  0  0  0
    0.7240    5.5910   11.5390 C   0  0  0  0  0  0  0  0  0  0  0  0
    0.6380    6.8570   10.9900 O   0  0  0  0  0  0  0  0  0  0  0  0
    1.4440    7.6840   11.7590 C   0  0  0  0  0  0  0  0  0  0  0  0
    1.2630    9.0060   11.8550 C   0  0  0  0  0  0  0  0  0  0  0  0
    1.8910    9.7210   12.9440 C   0  0  0  0  0  0  0  0  0  0  0  0
    1.8780   11.0860   12.7620 O   0  0  0  0  0  0  0  0  0  0  0  0
    2.3420    9.0880   14.0500 C   0  0  0  0  0  0  0  0  0  0  0  0
    2.8990    9.8740   15.1860 C   0  0  0  0  0  0  0  0  0  0  0  0
    4.3320    9.6690   15.6010 C   0  0  0  0  0  0  0  0  0  0  0  0
    2.1870   10.7000   15.7680 O   0  0  0  0  0  0  0  0  0  0  0  0
    2.2440    7.5860   14.0570 C   0  0  0  0  0  0  0  0  0  0  0  0
    2.1420    6.9910   15.1290 O   0  0  0  0  0  0  0  0  0  0  0  0
    2.3330    6.8900   12.6930 C   0  0  1  0  0  0  0  0  0  0  0  0
    3.7880    6.8560   12.2060 C   0  0  0  0  0  0  0  0  0  0  0  0
   -2.7049    8.3318    6.7193 H   0  0  0  0  0  0  0  0  0  0  0  0
   -2.1432    9.1276    5.2100 H   0  0  0  0  0  0  0  0  0  0  0  0
   -2.5300    7.3735    5.2100 H   0  0  0  0  0  0  0  0  0  0  0  0
   -0.0049    8.5710    5.6285 H   0  0  0  0  0  0  0  0  0  0  0  0
   -0.5645    8.0018    7.2595 H   0  0  0  0  0  0  0  0  0  0  0  0
    0.7606    7.1288    4.0478 H   0  0  0  0  0  0  0  0  0  0  0  0
    1.4624    4.8556    3.3559 H   0  0  0  0  0  0  0  0  0  0  0  0
    1.5568    2.4907    3.7138 H   0  0  0  0  0  0  0  0  0  0  0  0
    0.9896    0.4645    5.0420 H   0  0  0  0  0  0  0  0  0  0  0  0
   -0.3627    0.6909    7.1228 H   0  0  0  0  0  0  0  0  0  0  0  0
   -1.1456    2.9259    7.8618 H   0  0  0  0  0  0  0  0  0  0  0  0
   -2.0100    6.5087    7.8056 H   0  0  0  0  0  0  0  0  0  0  0  0
   -2.2791    4.7252    7.8838 H   0  0  0  0  0  0  0  0  0  0  0  0
    0.2750    5.7240    8.9360 H   0  0  0  0  0  0  0  0  0  0  0  0
    0.2647    0.5687   12.5141 H   0  0  0  0  0  0  0  0  0  0  0  0
   -0.5383    0.1662   10.9586 H   0  0  0  0  0  0  0  0  0  0  0  0
    1.0791    0.9477   10.9586 H   0  0  0  0  0  0  0  0  0  0  0  0
    1.4241    2.2619   13.3623 H   0  0  0  0  0  0  0  0  0  0  0  0
    3.2890    5.1970   14.2740 H   0  0  0  0  0  0  0  0  0  0  0  0
    0.6464    9.5406   11.1175 H   0  0  0  0  0  0  0  0  0  0  0  0
    2.7180   11.4560   13.1180 H   0  0  0  0  0  0  0  0  0  0  0  0
    4.3980    9.6596   16.6990 H   0  0  0  0  0  0  0  0  0  0  0  0
    4.6952    8.7098   15.2036 H   0  0  0  0  0  0  0  0  0  0  0  0
    4.9496   10.4879   15.2036 H   0  0  0  0  0  0  0  0  0  0  0  0
    4.4646    6.8402   13.0731 H   0  0  0  0  0  0  0  0  0  0  0  0
    3.9501    5.9538   11.5979 H   0  0  0  0  0  0  0  0  0  0  0  0
    3.9921    7.7496   11.5979 H   0  0  0  0  0  0  0  0  0  0  0  0
  1  2  1  0
  2  3  1  0
  3  4  2  0
  4  5  1  0
  5  6  2  0
  6  7  1  0
  7  8  2  0
  8  9  1  0
  9 10  2  0
 10 11  1  0
 11 12  2  0
 12 13  1  0
 13 14  1  0
 14 15  1  0
 15 16  2  0
 15 17  1  0
 17 18  2  0
 18 19  1  0
 19 20  1  0
 18 21  1  0
 21 22  2  0
 22 23  1  0
 22 24  1  0
 24 25  2  0
 25 26  1  0
 26 27  1  0
 27 28  2  0
 28 29  1  0
 29 30  1  0
 29 31  2  0
 31 32  1  0
 32 33  1  0
 32 34  2  0
 31 35  1  0
 35 36  2  0
 35 37  1  0
 37 38  1  6
 12  3  1  0
 25 17  1  0
 37 27  1  0
 11  6  1  0
 37 24  1  0
  1 39  1  0
  1 40  1  0
  1 41  1  0
  2 42  1  0
  2 43  1  0
  4 44  1  0
  5 45  1  0
  7 46  1  0
  8 47  1  0
  9 48  1  0
 10 49  1  0
 13 50  1  0
 13 51  1  0
 14 52  1  0
 20 53  1  0
 20 54  1  0
 20 55  1  0
 21 56  1  0
 23 57  1  0
 28 58  1  0
 30 59  1  0
 33 60  1  0
 33 61  1  0
 33 62  1  0
 38 63  1  0
 38 64  1  0
 38 65  1  0
M  END
>  <meeko>  (8) 
{"is_sidechain": [false], "free_energy": -8.431, "intermolecular_energy": -11.694, "internal_energy": -1.282}

$$$$
3b1m_ligand
     RDKit          3D

 65 69  0  0  0  0  0  0  0  0999 V2000
   -0.4550   -1.6510    7.3040 C   0  0  0  0  0  0  0  0  0  0  0  0
   -1.1790   -0.3540    7.6380 C   0  0  0  0  0  0  0  0  0  0  0  0
   -0.7510    0.7840    6.7340 C   0  0  0  0  0  0  0  0  0  0  0  0
   -0.3700    0.4610    5.4250 C   0  0  0  0  0  0  0  0  0  0  0  0
    0.0250    1.4510    4.5300 C   0  0  0  0  0  0  0  0  0  0  0  0
    0.0420    2.7960    4.9090 C   0  0  0  0  0  0  0  0  0  0  0  0
    0.4240    3.7750    3.9770 C   0  0  0  0  0  0  0  0  0  0  0  0
    0.4410    5.1260    4.3170 C   0  0  0  0  0  0  0  0  0  0  0  0
    0.0740    5.5120    5.5970 C   0  0  0  0  0  0  0  0  0  0  0  0
   -0.3050    4.5470    6.5350 C   0  0  0  0  0  0  0  0  0  0  0  0
   -0.3290    3.1640    6.2270 C   0  0  0  0  0  0  0  0  0  0  0  0
   -0.7060    2.1370    7.1570 C   0  0  0  0  0  0  0  0  0  0  0  0
   -1.1060    2.5100    8.5710 C   0  0  0  0  0  0  0  0  0  0  0  0
   -0.5780    3.8050    8.9250 N   0  0  0  0  0  0  0  0  0  0  0  0
   -1.0180    4.4740   10.0440 C   0  0  0  0  0  0  0  0  0  0  0  0
   -1.9720    4.0820   10.7080 O   0  0  0  0  0  0  0  0  0  0  0  0
   -0.2690    5.7100   10.4190 C   0  0  0  0  0  0  0  0  0  0  0  0
   -0.4330    6.9560    9.7700 C   0  0  0  0  0  0  0  0  0  0  0  0
   -1.3430    7.0090    8.7420 O   0  0  0  0  0  0  0  0  0  0  0  0
   -1.2230    8.0530    7.7820 C   0  0  0  0  0  0  0  0  0  0  0  0
    0.3160    8.0770   10.1940 C   0  0  0  0  0  0  0  0  0  0  0  0
    1.2330    7.9700   11.2410 C   0  0  0  0  0  0  0  0  0  0  0  0
    1.9190    9.0520   11.6950 O   0  0  0  0  0  0  0  0  0  0  0  0
    1.4210    6.7510   11.8540 C   0  0  0  0  0  0  0  0  0  0  0  0
    0.6610    5.6440   11.4510 C   0  0  0  0  0  0  0  0  0  0  0  0
    0.9550    4.5300   12.2140 O   0  0  0  0  0  0  0  0  0  0  0  0
    2.0290    4.8700   13.0230 C   0  0  0  0  0  0  0  0  0  0  0  0
    2.8850    3.9730   13.5280 C   0  0  0  0  0  0  0  0  0  0  0  0
    4.1600    4.4300   14.0330 C   0  0  0  0  0  0  0  0  0  0  0  0
    4.8070    3.4740   14.7840 O   0  0  0  0  0  0  0  0  0  0  0  0
    4.6720    5.6360   13.7010 C   0  0  0  0  0  0  0  0  0  0  0  0
    6.0310    6.0270   14.1710 C   0  0  0  0  0  0  0  0  0  0  0  0
    6.1760    7.1180   15.1990 C   0  0  0  0  0  0  0  0  0  0  0  0
    7.0250    5.4420   13.7270 O   0  0  0  0  0  0  0  0  0  0  0  0
    3.8080    6.5260   12.8490 C   0  0  0  0  0  0  0  0  0  0  0  0
    4.3350    7.3550   12.1090 O   0  0  0  0  0  0  0  0  0  0  0  0
    2.2910    6.3620   13.0120 C   0  0  1  0  0  0  0  0  0  0  0  0
    1.8180    7.0350   14.3070 C   0  0  0  0  0  0  0  0  0  0  0  0
   -0.1697   -2.1620    8.2354 H   0  0  0  0  0  0  0  0  0  0  0  0
   -1.1203   -2.3018    6.7176 H   0  0  0  0  0  0  0  0  0  0  0  0
    0.4482   -1.4263    6.7176 H   0  0  0  0  0  0  0  0  0  0  0  0
   -2.2615   -0.5116    7.5223 H   0  0  0  0  0  0  0  0  0  0  0  0
   -0.9251   -0.0799    8.6726 H   0  0  0  0  0  0  0  0  0  0  0  0
   -0.3832   -0.5898    5.1001 H   0  0  0  0  0  0  0  0  0  0  0  0
    0.3280    1.1709    3.5103 H   0  0  0  0  0  0  0  0  0  0  0  0
    0.7148    3.4697    2.9610 H   0  0  0  0  0  0  0  0  0  0  0  0
    0.7432    5.8804    3.5757 H   0  0  0  0  0  0  0  0  0  0  0  0
    0.0810    6.5764    5.8743 H   0  0  0  0  0  0  0  0  0  0  0  0
   -0.5941    4.8720    7.5453 H   0  0  0  0  0  0  0  0  0  0  0  0
   -2.2035    2.5360    8.6409 H   0  0  0  0  0  0  0  0  0  0  0  0
   -0.6973    1.7598    9.2639 H   0  0  0  0  0  0  0  0  0  0  0  0
    0.3270    4.0650    8.5490 H   0  0  0  0  0  0  0  0  0  0  0  0
   -1.1122    9.0168    8.3004 H   0  0  0  0  0  0  0  0  0  0  0  0
   -0.3398    7.8719    7.1518 H   0  0  0  0  0  0  0  0  0  0  0  0
   -2.1243    8.0771    7.1518 H   0  0  0  0  0  0  0  0  0  0  0  0
    0.1746    9.0459    9.6927 H   0  0  0  0  0  0  0  0  0  0  0  0
    1.7380    9.8140   11.1210 H   0  0  0  0  0  0  0  0  0  0  0  0
    2.6223    2.9053   13.5582 H   0  0  0  0  0  0  0  0  0  0  0  0
    5.6950    3.8200   15.0310 H   0  0  0  0  0  0  0  0  0  0  0  0
    6.1180    6.6819   16.2072 H   0  0  0  0  0  0  0  0  0  0  0  0
    7.1483    7.6162   15.0703 H   0  0  0  0  0  0  0  0  0  0  0  0
    5.3676    7.8528   15.0703 H   0  0  0  0  0  0  0  0  0  0  0  0
    2.2083    6.4796   15.1726 H   0  0  0  0  0  0  0  0  0  0  0  0
    2.1881    8.0704   14.3385 H   0  0  0  0  0  0  0  0  0  0  0  0
    0.7185    7.0375   14.3385 H   0  0  0  0  0  0  0  0  0  0  0  0
  1  2  1  0
  2  3  1  0
  3  4  2  0
  4  5  1  0
  5  6  2  0
  6  7  1  0
  7  8  2  0
  8  9  1  0
  9 10  2  0
 10 11  1  0
 11 12  2  0
 12 13  1  0
 13 14  1  0
 14 15  1  0
 15 16  2  0
 15 17  1  0
 17 18  2  0
 18 19  1  0
 19 20  1  0
 18 21  1  0
 21 22  2  0
 22 23  1  0
 22 24  1  0
 24 25  2  0
 25 26  1  0
 26 27  1  0
 27 28  2  0
 28 29  1  0
 29 30  1  0
 29 31  2  0
 31 32  1  0
 32 33  1  0
 32 34  2  0
 31 35  1  0
 35 36  2  0
 35 37  1  0
 37 38  1  1
 12  3  1  0
 25 17  1  0
 37 27  1  0
 11  6  1  0
 37 24  1  0
  1 39  1  0
  1 40  1  0
  1 41  1  0
  2 42  1  0
  2 43  1  0
  4 44  1  0
  5 45  1  0
  7 46  1  0
  8 47  1  0
  9 48  1  0
 10 49  1  0
 13 50  1  0
 13 51  1  0
 14 52  1  0
 20 53  1  0
 20 54  1  0
 20 55  1  0
 21 56  1  0
 23 57  1  0
 28 58  1  0
 30 59  1  0
 33 60  1  0
 33 61  1  0
 33 62  1  0
 38 63  1  0
 38 64  1  0
 38 65  1  0
M  END
>  <meeko>  (9) 
{"is_sidechain": [false], "free_energy": -8.29, "intermolecular_energy": -12.127, "internal_energy": -0.65}

$$$$
