
     RDKit          3D

 20 19  0  0  0  0  0  0  0  0999 V2000
   -9.7290  -13.7850  -16.2180 C   0  0  0  0  0  0  0  0  0  0  0  0
   -8.4520  -13.4880  -15.4870 C   0  0  0  0  0  0  0  0  0  0  0  0
   -8.5040  -13.9670  -14.0900 C   0  0  0  0  0  0  0  0  0  0  0  0
   -7.1610  -14.0010  -13.4440 C   0  0  0  0  0  0  0  0  0  0  0  0
   -7.2940  -14.7600  -12.1840 C   0  0  0  0  0  0  0  0  0  0  0  0
   -5.9890  -14.9970  -11.4810 C   0  0  0  0  0  0  0  0  0  0  0  0
   -6.3050  -15.8170  -10.3010 C   0  0  0  0  0  0  0  0  0  0  0  0
   -5.1060  -16.1780   -9.5030 C   0  0  0  0  0  0  0  0  0  0  0  0
   -5.5000  -17.3110   -8.6250 C   0  0  0  0  0  0  0  0  0  0  0  0
   -4.6310  -17.4450   -7.4470 C   0  0  0  0  0  0  0  0  0  0  0  0
   -5.0500  -18.6600   -6.6660 C   0  0  0  0  0  0  0  0  0  0  0  0
   -4.6730  -18.5600   -5.2490 C   0  0  0  0  0  0  0  0  0  0  0  0
   -3.2230  -18.7680   -5.0320 C   0  0  0  0  0  0  0  0  0  0  0  0
   -2.8810  -20.2400   -4.9970 C   0  0  0  0  0  0  0  0  0  0  0  0
   -1.4140  -20.4240   -4.7080 C   0  0  0  0  0  0  0  0  0  0  0  0
   -1.1470  -21.8770   -4.4620 C   0  0  0  0  0  0  0  0  0  0  0  0
   -1.1620  -22.1730   -2.9860 C   0  0  0  0  0  0  0  0  0  0  0  0
   -0.9310  -23.6500   -2.7190 C   0  0  0  0  0  0  0  0  0  0  0  0
   -1.6550  -24.4490   -3.2870 O   0  0  0  0  0  0  0  0  0  0  0  0
   -0.0490  -23.9660   -1.9580 O   0  0  0  0  0  0  0  0  0  0  0  0
  2  1  1  0
  3  2  1  0
  4  3  1  0
  5  4  1  0
  6  5  1  0
  7  6  1  0
  8  7  1  0
  9  8  1  0
 10  9  1  0
 11 10  1  0
 12 11  1  0
 13 12  1  0
 14 13  1  0
 15 14  1  0
 16 15  1  0
 17 16  1  0
 18 17  1  0
 19 18  2  0
 20 18  1  0
M  CHG  1  20  -1
M  END
$$$$
