3ge7_ligand
     RDKit          3D

 54 57  0  0  0  0  0  0  0  0999 V2000
   -6.1690   16.3450   17.8500 C   0  0  0  0  0  0  0  0  0  0  0  0
   -6.0470   17.8000   17.8730 N   0  0  0  0  0  0  0  0  0  0  0  0
   -4.8660   18.4080   18.0400 C   0  0  0  0  0  0  0  0  0  0  0  0
   -4.6450   19.5910   18.5850 N   0  0  0  0  0  0  0  0  0  0  0  0
   -3.3040   19.8720   18.6330 C   0  0  0  0  0  0  0  0  0  0  0  0
   -2.6310   20.9620   19.1520 C   0  0  0  0  0  0  0  0  0  0  0  0
   -1.2320   20.9000   19.0550 C   0  0  0  0  0  0  0  0  0  0  0  0
   -0.4510   22.0110   19.6140 C   0  0  0  0  0  0  0  0  0  0  0  0
   -0.9610   22.9890   20.1180 O   0  0  0  0  0  0  0  0  0  0  0  0
    0.9390   21.8870   19.5380 N   0  0  0  0  0  0  0  0  0  0  0  0
    1.5910   20.8650   19.0070 C   0  0  0  0  0  0  0  0  0  0  0  0
    2.9280   20.8440   19.0170 N   0  0  0  0  0  0  0  0  0  0  0  0
    0.8980   19.8300   18.4440 N   0  0  0  0  0  0  0  0  0  0  0  0
   -0.5390   19.8180   18.4530 C   0  0  0  0  0  0  0  0  0  0  0  0
   -1.2540   18.7140   17.8800 C   0  0  0  0  0  0  0  0  0  0  0  0
   -0.6290   17.5380   17.1650 C   0  0  0  0  0  0  0  0  0  0  0  0
   -0.3170   17.8200   15.6810 C   0  0  0  0  0  0  0  0  0  0  0  0
    0.5890   16.7900   15.0720 N   0  0  0  0  0  0  0  0  0  0  0  0
    0.1100   16.1150   13.8160 C   0  0  0  0  0  0  0  0  0  0  0  0
   -0.0810   14.6230   14.0700 C   0  0  0  0  0  0  0  0  0  0  0  0
    1.2490   13.8820   14.1760 C   0  0  0  0  0  0  0  0  0  0  0  0
    0.8630   12.5470   14.7990 C   0  0  0  0  0  0  0  0  0  0  0  0
   -0.3420   12.8410   15.6910 C   0  0  0  0  0  0  0  0  0  0  0  0
   -0.7490   14.2850   15.4020 C   0  0  0  0  0  0  0  0  0  0  0  0
   -2.6590   18.7880   18.0260 C   0  0  0  0  0  0  0  0  0  0  0  0
   -3.6810   17.9170   17.6760 N   0  0  0  0  0  0  0  0  0  0  0  0
   -6.2010   15.9634   18.8812 H   0  0  0  0  0  0  0  0  0  0  0  0
   -7.0940   16.0628   17.3257 H   0  0  0  0  0  0  0  0  0  0  0  0
   -5.3039   15.9128   17.3257 H   0  0  0  0  0  0  0  0  0  0  0  0
   -6.8830   18.3550   17.7430 H   0  0  0  0  0  0  0  0  0  0  0  0
   -5.3830   20.1890   18.9480 H   0  0  0  0  0  0  0  0  0  0  0  0
   -3.1536   21.8159   19.6079 H   0  0  0  0  0  0  0  0  0  0  0  0
    1.4510   22.6630   19.9450 H   0  0  0  0  0  0  0  0  0  0  0  0
    3.5050   21.5140   19.5110 H   0  0  0  0  0  0  0  0  0  0  0  0
    3.4460   20.1440   18.4900 H   0  0  0  0  0  0  0  0  0  0  0  0
    1.4540   19.0630   18.0890 H   0  0  0  0  0  0  0  0  0  0  0  0
    0.3100   17.2782   17.6756 H   0  0  0  0  0  0  0  0  0  0  0  0
   -1.3585   16.7152   17.1932 H   0  0  0  0  0  0  0  0  0  0  0  0
   -1.2626   17.8327   15.1192 H   0  0  0  0  0  0  0  0  0  0  0  0
    0.2009   18.7891   15.6295 H   0  0  0  0  0  0  0  0  0  0  0  0
    0.8740   16.0660   15.7490 H   0  0  0  0  0  0  0  0  0  0  0  0
    1.4780   17.2600   14.8260 H   0  0  0  0  0  0  0  0  0  0  0  0
   -0.8480   16.5580   13.5063 H   0  0  0  0  0  0  0  0  0  0  0  0
    0.8579   16.2547   13.0215 H   0  0  0  0  0  0  0  0  0  0  0  0
   -0.7005   14.3226   13.2122 H   0  0  0  0  0  0  0  0  0  0  0  0
    1.6987   13.7370   13.1826 H   0  0  0  0  0  0  0  0  0  0  0  0
    1.9988   14.4295   14.7660 H   0  0  0  0  0  0  0  0  0  0  0  0
    0.5935   11.8222   14.0167 H   0  0  0  0  0  0  0  0  0  0  0  0
    1.6948   12.1098   15.3708 H   0  0  0  0  0  0  0  0  0  0  0  0
   -1.1693   12.1570   15.4508 H   0  0  0  0  0  0  0  0  0  0  0  0
   -0.0957   12.7007   16.7538 H   0  0  0  0  0  0  0  0  0  0  0  0
   -1.8426   14.3696   15.3189 H   0  0  0  0  0  0  0  0  0  0  0  0
   -0.4411   14.9706   16.2053 H   0  0  0  0  0  0  0  0  0  0  0  0
   -3.5950   16.9920   17.2760 H   0  0  0  0  0  0  0  0  0  0  0  0
  1  2  1  0
  2  3  1  0
  3  4  1  0
  4  5  1  0
  5  6  2  0
  6  7  1  0
  7  8  1  0
  8  9  2  0
  8 10  1  0
 10 11  1  0
 11 12  1  0
 11 13  2  0
 13 14  1  0
 14 15  1  0
 15 16  1  0
 16 17  1  0
 17 18  1  0
 18 19  1  0
 19 20  1  0
 20 21  1  0
 21 22  1  0
 22 23  1  0
 23 24  1  0
 15 25  2  0
 25 26  1  0
 26  3  2  0
 25  5  1  0
 14  7  2  0
 24 20  1  0
  1 27  1  0
  1 28  1  0
  1 29  1  0
  2 30  1  0
  4 31  1  0
  6 32  1  0
 10 33  1  0
 12 34  1  0
 12 35  1  0
 13 36  1  0
 16 37  1  0
 16 38  1  0
 17 39  1  0
 17 40  1  0
 18 41  1  0
 18 42  1  0
 19 43  1  0
 19 44  1  0
 20 45  1  0
 21 46  1  0
 21 47  1  0
 22 48  1  0
 22 49  1  0
 23 50  1  0
 23 51  1  0
 24 52  1  0
 24 53  1  0
 26 54  1  0
M  CHG  3  13   1  18   1  26   1
M  END
>  <meeko>  (1) 
{"is_sidechain": [false], "free_energy": -9.574, "intermolecular_energy": -13.212, "internal_energy": -0.623}

$$$$
3ge7_ligand
     RDKit          3D

 54 57  0  0  0  0  0  0  0  0999 V2000
   -0.9590   22.6490   19.8760 C   0  0  0  0  0  0  0  0  0  0  0  0
   -2.1230   22.1610   19.1390 N   0  0  0  0  0  0  0  0  0  0  0  0
   -2.3810   20.8540   19.0100 C   0  0  0  0  0  0  0  0  0  0  0  0
   -3.4020   20.1870   19.5180 N   0  0  0  0  0  0  0  0  0  0  0  0
   -3.3710   18.8700   19.1390 C   0  0  0  0  0  0  0  0  0  0  0  0
   -4.2510   17.8370   19.4020 C   0  0  0  0  0  0  0  0  0  0  0  0
   -3.9150   16.6050   18.8180 C   0  0  0  0  0  0  0  0  0  0  0  0
   -4.8230   15.4700   19.0300 C   0  0  0  0  0  0  0  0  0  0  0  0
   -5.8230   15.5430   19.7130 O   0  0  0  0  0  0  0  0  0  0  0  0
   -4.4760   14.2760   18.3930 N   0  0  0  0  0  0  0  0  0  0  0  0
   -3.4090   14.0940   17.6320 C   0  0  0  0  0  0  0  0  0  0  0  0
   -3.1950   12.9090   17.0500 N   0  0  0  0  0  0  0  0  0  0  0  0
   -2.5220   15.1160   17.4410 N   0  0  0  0  0  0  0  0  0  0  0  0
   -2.7520   16.4060   18.0310 C   0  0  0  0  0  0  0  0  0  0  0  0
   -1.8250   17.4780   17.8050 C   0  0  0  0  0  0  0  0  0  0  0  0
   -0.5280   17.3700   17.0340 C   0  0  0  0  0  0  0  0  0  0  0  0
   -0.5690   18.0820   15.6670 C   0  0  0  0  0  0  0  0  0  0  0  0
   -0.2660   17.1600   14.5220 N   0  0  0  0  0  0  0  0  0  0  0  0
   -1.1450   15.9490   14.3680 C   0  0  0  0  0  0  0  0  0  0  0  0
   -0.2960   14.7340   14.0130 C   0  0  0  0  0  0  0  0  0  0  0  0
    1.1770   15.0920   13.8350 C   0  0  0  0  0  0  0  0  0  0  0  0
    1.8800   13.7420   13.8780 C   0  0  0  0  0  0  0  0  0  0  0  0
    1.0320   12.8650   14.7990 C   0  0  0  0  0  0  0  0  0  0  0  0
   -0.2400   13.6580   15.0970 C   0  0  0  0  0  0  0  0  0  0  0  0
   -2.2100   18.7130   18.3740 C   0  0  0  0  0  0  0  0  0  0  0  0
   -1.6380   19.9770   18.3340 N   0  0  0  0  0  0  0  0  0  0  0  0
   -1.1493   22.5692   20.9565 H   0  0  0  0  0  0  0  0  0  0  0  0
   -0.0786   22.0442   19.6131 H   0  0  0  0  0  0  0  0  0  0  0  0
   -0.7731   23.7008   19.6131 H   0  0  0  0  0  0  0  0  0  0  0  0
   -2.7530   22.8390   18.7310 H   0  0  0  0  0  0  0  0  0  0  0  0
   -4.1280   20.6170   20.0850 H   0  0  0  0  0  0  0  0  0  0  0  0
   -5.1489   17.9703   20.0233 H   0  0  0  0  0  0  0  0  0  0  0  0
   -5.1300   13.5150   18.5470 H   0  0  0  0  0  0  0  0  0  0  0  0
   -3.2990   12.0160   17.5170 H   0  0  0  0  0  0  0  0  0  0  0  0
   -2.8830   12.8480   16.0830 H   0  0  0  0  0  0  0  0  0  0  0  0
   -1.7480   14.9230   16.8200 H   0  0  0  0  0  0  0  0  0  0  0  0
    0.2750   17.8187   17.6372 H   0  0  0  0  0  0  0  0  0  0  0  0
   -0.3532   16.3016   16.8393 H   0  0  0  0  0  0  0  0  0  0  0  0
   -1.5738   18.5052   15.5211 H   0  0  0  0  0  0  0  0  0  0  0  0
    0.2052   18.8633   15.6770 H   0  0  0  0  0  0  0  0  0  0  0  0
    0.7200   16.8580   14.5110 H   0  0  0  0  0  0  0  0  0  0  0  0
   -0.3670   17.7040   13.6470 H   0  0  0  0  0  0  0  0  0  0  0  0
   -1.6748   15.7602   15.3133 H   0  0  0  0  0  0  0  0  0  0  0  0
   -1.8731   16.1298   13.5635 H   0  0  0  0  0  0  0  0  0  0  0  0
   -0.7885   14.3711   13.0988 H   0  0  0  0  0  0  0  0  0  0  0  0
    1.3459   15.5925   12.8701 H   0  0  0  0  0  0  0  0  0  0  0  0
    1.5435   15.7899   14.6022 H   0  0  0  0  0  0  0  0  0  0  0  0
    1.9310   13.3036   12.8704 H   0  0  0  0  0  0  0  0  0  0  0  0
    2.9139   13.8334   14.2421 H   0  0  0  0  0  0  0  0  0  0  0  0
    0.7817   11.9180   14.2985 H   0  0  0  0  0  0  0  0  0  0  0  0
    1.5735   12.6166   15.7237 H   0  0  0  0  0  0  0  0  0  0  0  0
   -1.1243   13.0062   15.0413 H   0  0  0  0  0  0  0  0  0  0  0  0
   -0.2312   14.0897   16.1087 H   0  0  0  0  0  0  0  0  0  0  0  0
   -0.8210   20.2700   17.8150 H   0  0  0  0  0  0  0  0  0  0  0  0
  1  2  1  0
  2  3  1  0
  3  4  1  0
  4  5  1  0
  5  6  2  0
  6  7  1  0
  7  8  1  0
  8  9  2  0
  8 10  1  0
 10 11  1  0
 11 12  1  0
 11 13  2  0
 13 14  1  0
 14 15  1  0
 15 16  1  0
 16 17  1  0
 17 18  1  0
 18 19  1  0
 19 20  1  0
 20 21  1  0
 21 22  1  0
 22 23  1  0
 23 24  1  0
 15 25  2  0
 25 26  1  0
 26  3  2  0
 25  5  1  0
 14  7  2  0
 24 20  1  0
  1 27  1  0
  1 28  1  0
  1 29  1  0
  2 30  1  0
  4 31  1  0
  6 32  1  0
 10 33  1  0
 12 34  1  0
 12 35  1  0
 13 36  1  0
 16 37  1  0
 16 38  1  0
 17 39  1  0
 17 40  1  0
 18 41  1  0
 18 42  1  0
 19 43  1  0
 19 44  1  0
 20 45  1  0
 21 46  1  0
 21 47  1  0
 22 48  1  0
 22 49  1  0
 23 50  1  0
 23 51  1  0
 24 52  1  0
 24 53  1  0
 26 54  1  0
M  CHG  3  13   1  18   1  26   1
M  END
>  <meeko>  (2) 
{"is_sidechain": [false], "free_energy": -8.011, "intermolecular_energy": -10.831, "internal_energy": -0.848}

$$$$
3ge7_ligand
     RDKit          3D

 54 57  0  0  0  0  0  0  0  0999 V2000
   -9.9090   15.2980   16.7890 C   0  0  0  0  0  0  0  0  0  0  0  0
   -8.8030   15.3280   17.7430 N   0  0  0  0  0  0  0  0  0  0  0  0
   -7.5350   15.4980   17.3510 C   0  0  0  0  0  0  0  0  0  0  0  0
   -6.9690   15.0360   16.2500 N   0  0  0  0  0  0  0  0  0  0  0  0
   -5.6650   15.4490   16.1530 C   0  0  0  0  0  0  0  0  0  0  0  0
   -4.7270   15.2380   15.1610 C   0  0  0  0  0  0  0  0  0  0  0  0
   -3.4790   15.8440   15.3810 C   0  0  0  0  0  0  0  0  0  0  0  0
   -2.4440   15.6880   14.3520 C   0  0  0  0  0  0  0  0  0  0  0  0
   -2.6070   15.0310   13.3460 O   0  0  0  0  0  0  0  0  0  0  0  0
   -1.2340   16.3470   14.5890 N   0  0  0  0  0  0  0  0  0  0  0  0
   -0.9570   17.0830   15.6540 C   0  0  0  0  0  0  0  0  0  0  0  0
    0.2300   17.6900   15.7580 N   0  0  0  0  0  0  0  0  0  0  0  0
   -1.8830   17.2220   16.6490 N   0  0  0  0  0  0  0  0  0  0  0  0
   -3.1760   16.6040   16.5410 C   0  0  0  0  0  0  0  0  0  0  0  0
   -4.1470   16.7770   17.5820 C   0  0  0  0  0  0  0  0  0  0  0  0
   -3.9200   17.5140   18.8820 C   0  0  0  0  0  0  0  0  0  0  0  0
   -4.5770   18.9090   18.9170 C   0  0  0  0  0  0  0  0  0  0  0  0
   -3.8480   19.9150   18.0740 N   0  0  0  0  0  0  0  0  0  0  0  0
   -3.2550   21.1020   18.7850 C   0  0  0  0  0  0  0  0  0  0  0  0
   -1.8460   20.7680   19.2630 C   0  0  0  0  0  0  0  0  0  0  0  0
   -0.9830   20.1820   18.1480 C   0  0  0  0  0  0  0  0  0  0  0  0
    0.4320   20.2880   18.7010 C   0  0  0  0  0  0  0  0  0  0  0  0
    0.4320   21.5230   19.6010 C   0  0  0  0  0  0  0  0  0  0  0  0
   -1.0230   21.9760   19.7100 C   0  0  0  0  0  0  0  0  0  0  0  0
   -5.4030   16.1860   17.3140 C   0  0  0  0  0  0  0  0  0  0  0  0
   -6.6000   16.1760   18.0170 N   0  0  0  0  0  0  0  0  0  0  0  0
  -10.8636   15.2721   17.3350 H   0  0  0  0  0  0  0  0  0  0  0  0
   -9.8724   16.1975   16.1568 H   0  0  0  0  0  0  0  0  0  0  0  0
   -9.8237   14.4018   16.1568 H   0  0  0  0  0  0  0  0  0  0  0  0
   -9.0150   15.2310   18.7280 H   0  0  0  0  0  0  0  0  0  0  0  0
   -7.4600   14.4780   15.5580 H   0  0  0  0  0  0  0  0  0  0  0  0
   -4.9418   14.6389   14.2639 H   0  0  0  0  0  0  0  0  0  0  0  0
   -0.5440   16.2310   13.8540 H   0  0  0  0  0  0  0  0  0  0  0  0
    0.4070   18.5000   16.3400 H   0  0  0  0  0  0  0  0  0  0  0  0
    1.0320   17.3700   15.2200 H   0  0  0  0  0  0  0  0  0  0  0  0
   -1.6230   17.8270   17.4170 H   0  0  0  0  0  0  0  0  0  0  0  0
   -4.3372   16.9113   19.7022 H   0  0  0  0  0  0  0  0  0  0  0  0
   -2.8351   17.6629   18.9862 H   0  0  0  0  0  0  0  0  0  0  0  0
   -5.6089   18.8212   18.5463 H   0  0  0  0  0  0  0  0  0  0  0  0
   -4.5469   19.2640   19.9577 H   0  0  0  0  0  0  0  0  0  0  0  0
   -4.4180   20.2530   17.2840 H   0  0  0  0  0  0  0  0  0  0  0  0
   -3.0580   19.4280   17.6170 H   0  0  0  0  0  0  0  0  0  0  0  0
   -3.2131   21.9574   18.0947 H   0  0  0  0  0  0  0  0  0  0  0  0
   -3.8819   21.3556   19.6526 H   0  0  0  0  0  0  0  0  0  0  0  0
   -2.0448   20.0757   20.0944 H   0  0  0  0  0  0  0  0  0  0  0  0
   -1.2514   19.1332   17.9530 H   0  0  0  0  0  0  0  0  0  0  0  0
   -1.1086   20.7056   17.1888 H   0  0  0  0  0  0  0  0  0  0  0  0
    0.6849   19.3893   19.2828 H   0  0  0  0  0  0  0  0  0  0  0  0
    1.1774   20.3716   17.8964 H   0  0  0  0  0  0  0  0  0  0  0  0
    0.8271   21.2691   20.5957 H   0  0  0  0  0  0  0  0  0  0  0  0
    1.0680   22.3191   19.1864 H   0  0  0  0  0  0  0  0  0  0  0  0
   -1.2669   22.2479   20.7476 H   0  0  0  0  0  0  0  0  0  0  0  0
   -1.2266   22.8657   19.0960 H   0  0  0  0  0  0  0  0  0  0  0  0
   -6.8160   16.6650   18.8760 H   0  0  0  0  0  0  0  0  0  0  0  0
  1  2  1  0
  2  3  1  0
  3  4  1  0
  4  5  1  0
  5  6  2  0
  6  7  1  0
  7  8  1  0
  8  9  2  0
  8 10  1  0
 10 11  1  0
 11 12  1  0
 11 13  2  0
 13 14  1  0
 14 15  1  0
 15 16  1  0
 16 17  1  0
 17 18  1  0
 18 19  1  0
 19 20  1  0
 20 21  1  0
 21 22  1  0
 22 23  1  0
 23 24  1  0
 15 25  2  0
 25 26  1  0
 26  3  2  0
 25  5  1  0
 14  7  2  0
 24 20  1  0
  1 27  1  0
  1 28  1  0
  1 29  1  0
  2 30  1  0
  4 31  1  0
  6 32  1  0
 10 33  1  0
 12 34  1  0
 12 35  1  0
 13 36  1  0
 16 37  1  0
 16 38  1  0
 17 39  1  0
 17 40  1  0
 18 41  1  0
 18 42  1  0
 19 43  1  0
 19 44  1  0
 20 45  1  0
 21 46  1  0
 21 47  1  0
 22 48  1  0
 22 49  1  0
 23 50  1  0
 23 51  1  0
 24 52  1  0
 24 53  1  0
 26 54  1  0
M  CHG  3  13   1  18   1  26   1
M  END
>  <meeko>  (3) 
{"is_sidechain": [false], "free_energy": -7.876, "intermolecular_energy": -10.658, "internal_energy": -0.834}

$$$$
3ge7_ligand
     RDKit          3D

 54 57  0  0  0  0  0  0  0  0999 V2000
   -3.1910   12.3040   18.3130 C   0  0  0  0  0  0  0  0  0  0  0  0
   -3.9670   13.3990   17.7360 N   0  0  0  0  0  0  0  0  0  0  0  0
   -3.6520   14.6810   17.9550 C   0  0  0  0  0  0  0  0  0  0  0  0
   -4.4010   15.6010   18.5370 N   0  0  0  0  0  0  0  0  0  0  0  0
   -3.7340   16.7950   18.6340 C   0  0  0  0  0  0  0  0  0  0  0  0
   -4.1170   17.9950   19.2020 C   0  0  0  0  0  0  0  0  0  0  0  0
   -3.1530   19.0150   19.1470 C   0  0  0  0  0  0  0  0  0  0  0  0
   -3.4810   20.3090   19.7580 C   0  0  0  0  0  0  0  0  0  0  0  0
   -4.5550   20.5440   20.2710 O   0  0  0  0  0  0  0  0  0  0  0  0
   -2.4760   21.2800   19.7240 N   0  0  0  0  0  0  0  0  0  0  0  0
   -1.2760   21.1230   19.1870 C   0  0  0  0  0  0  0  0  0  0  0  0
   -0.3840   22.1180   19.2380 N   0  0  0  0  0  0  0  0  0  0  0  0
   -0.9480   19.9460   18.5770 N   0  0  0  0  0  0  0  0  0  0  0  0
   -1.8810   18.8530   18.5400 C   0  0  0  0  0  0  0  0  0  0  0  0
   -1.5150   17.6130   17.9170 C   0  0  0  0  0  0  0  0  0  0  0  0
   -0.2160   17.3440   17.1920 C   0  0  0  0  0  0  0  0  0  0  0  0
   -0.2470   17.7590   15.7070 C   0  0  0  0  0  0  0  0  0  0  0  0
    0.6660   16.9300   14.8520 N   0  0  0  0  0  0  0  0  0  0  0  0
    0.0640   16.2840   13.6340 C   0  0  0  0  0  0  0  0  0  0  0  0
    0.0800   14.7670   13.7900 C   0  0  0  0  0  0  0  0  0  0  0  0
    1.4680   14.2390   14.1420 C   0  0  0  0  0  0  0  0  0  0  0  0
    1.1980   12.8200   14.6240 C   0  0  0  0  0  0  0  0  0  0  0  0
   -0.1920   12.8580   15.2580 C   0  0  0  0  0  0  0  0  0  0  0  0
   -0.7720   14.2360   14.9430 C   0  0  0  0  0  0  0  0  0  0  0  0
   -2.4920   16.5970   18.0210 C   0  0  0  0  0  0  0  0  0  0  0  0
   -2.5040   15.2690   17.6170 N   0  0  0  0  0  0  0  0  0  0  0  0
   -3.2331   12.3634   19.4106 H   0  0  0  0  0  0  0  0  0  0  0  0
   -3.6106   11.3427   17.9814 H   0  0  0  0  0  0  0  0  0  0  0  0
   -2.1450   12.3814   17.9814 H   0  0  0  0  0  0  0  0  0  0  0  0
   -4.7540   13.1700   17.1420 H   0  0  0  0  0  0  0  0  0  0  0  0
   -5.3370   15.4210   18.8920 H   0  0  0  0  0  0  0  0  0  0  0  0
   -5.1048   18.1408   19.6636 H   0  0  0  0  0  0  0  0  0  0  0  0
   -2.7270   22.1580   20.1660 H   0  0  0  0  0  0  0  0  0  0  0  0
    0.2430   22.2830   20.0170 H   0  0  0  0  0  0  0  0  0  0  0  0
   -0.3080   22.7950   18.4820 H   0  0  0  0  0  0  0  0  0  0  0  0
   -0.0040   19.8780   18.2200 H   0  0  0  0  0  0  0  0  0  0  0  0
    0.5863   17.9045   17.6942 H   0  0  0  0  0  0  0  0  0  0  0  0
   -0.0456   16.2577   17.2225 H   0  0  0  0  0  0  0  0  0  0  0  0
   -1.2754   17.6485   15.3327 H   0  0  0  0  0  0  0  0  0  0  0  0
    0.0994   18.8013   15.6473 H   0  0  0  0  0  0  0  0  0  0  0  0
    1.1670   16.2100   15.3950 H   0  0  0  0  0  0  0  0  0  0  0  0
    1.4210   17.5480   14.5080 H   0  0  0  0  0  0  0  0  0  0  0  0
   -0.9741   16.6275   13.5143 H   0  0  0  0  0  0  0  0  0  0  0  0
    0.6524   16.5633   12.7476 H   0  0  0  0  0  0  0  0  0  0  0  0
   -0.2984   14.4332   12.8126 H   0  0  0  0  0  0  0  0  0  0  0  0
    2.1231   14.2359   13.2583 H   0  0  0  0  0  0  0  0  0  0  0  0
    1.9826   14.8557   14.8936 H   0  0  0  0  0  0  0  0  0  0  0  0
    1.2148   12.1174   13.7778 H   0  0  0  0  0  0  0  0  0  0  0  0
    1.9621   12.4811   15.3391 H   0  0  0  0  0  0  0  0  0  0  0  0
   -0.8280   12.0702   14.8280 H   0  0  0  0  0  0  0  0  0  0  0  0
   -0.1403   12.6855   16.3432 H   0  0  0  0  0  0  0  0  0  0  0  0
   -1.8258   14.1521   14.6389 H   0  0  0  0  0  0  0  0  0  0  0  0
   -0.7497   14.9043   15.8164 H   0  0  0  0  0  0  0  0  0  0  0  0
   -1.7490   14.7440   17.1960 H   0  0  0  0  0  0  0  0  0  0  0  0
  1  2  1  0
  2  3  1  0
  3  4  1  0
  4  5  1  0
  5  6  2  0
  6  7  1  0
  7  8  1  0
  8  9  2  0
  8 10  1  0
 10 11  1  0
 11 12  1  0
 11 13  2  0
 13 14  1  0
 14 15  1  0
 15 16  1  0
 16 17  1  0
 17 18  1  0
 18 19  1  0
 19 20  1  0
 20 21  1  0
 21 22  1  0
 22 23  1  0
 23 24  1  0
 15 25  2  0
 25 26  1  0
 26  3  2  0
 25  5  1  0
 14  7  2  0
 24 20  1  0
  1 27  1  0
  1 28  1  0
  1 29  1  0
  2 30  1  0
  4 31  1  0
  6 32  1  0
 10 33  1  0
 12 34  1  0
 12 35  1  0
 13 36  1  0
 16 37  1  0
 16 38  1  0
 17 39  1  0
 17 40  1  0
 18 41  1  0
 18 42  1  0
 19 43  1  0
 19 44  1  0
 20 45  1  0
 21 46  1  0
 21 47  1  0
 22 48  1  0
 22 49  1  0
 23 50  1  0
 23 51  1  0
 24 52  1  0
 24 53  1  0
 26 54  1  0
M  CHG  3  13   1  18   1  26   1
M  END
>  <meeko>  (4) 
{"is_sidechain": [false], "free_energy": -7.795, "intermolecular_energy": -10.634, "internal_energy": -0.745}

$$$$
3ge7_ligand
     RDKit          3D

 54 57  0  0  0  0  0  0  0  0999 V2000
    2.5320   21.1990   19.4100 C   0  0  0  0  0  0  0  0  0  0  0  0
    1.1230   21.5830   19.4520 N   0  0  0  0  0  0  0  0  0  0  0  0
    0.1470   20.7270   19.1280 C   0  0  0  0  0  0  0  0  0  0  0  0
   -1.1200   20.7790   19.5010 N   0  0  0  0  0  0  0  0  0  0  0  0
   -1.8440   19.7610   18.9380 C   0  0  0  0  0  0  0  0  0  0  0  0
   -3.1920   19.4640   19.0210 C   0  0  0  0  0  0  0  0  0  0  0  0
   -3.6020   18.3450   18.2770 C   0  0  0  0  0  0  0  0  0  0  0  0
   -5.0260   17.9890   18.2930 C   0  0  0  0  0  0  0  0  0  0  0  0
   -5.8500   18.5930   18.9470 O   0  0  0  0  0  0  0  0  0  0  0  0
   -5.3980   16.8990   17.5020 N   0  0  0  0  0  0  0  0  0  0  0  0
   -4.5780   16.1750   16.7580 C   0  0  0  0  0  0  0  0  0  0  0  0
   -5.0550   15.1680   16.0190 N   0  0  0  0  0  0  0  0  0  0  0  0
   -3.2400   16.4530   16.7460 N   0  0  0  0  0  0  0  0  0  0  0  0
   -2.7120   17.5510   17.5080 C   0  0  0  0  0  0  0  0  0  0  0  0
   -1.3080   17.8480   17.4680 C   0  0  0  0  0  0  0  0  0  0  0  0
   -0.2610   17.0430   16.7330 C   0  0  0  0  0  0  0  0  0  0  0  0
   -0.0770   17.4760   15.2640 C   0  0  0  0  0  0  0  0  0  0  0  0
   -0.8660   16.6330   14.3060 N   0  0  0  0  0  0  0  0  0  0  0  0
   -0.0870   15.7470   13.3720 C   0  0  0  0  0  0  0  0  0  0  0  0
   -0.1590   14.3000   13.8500 C   0  0  0  0  0  0  0  0  0  0  0  0
    1.1670   13.8200   14.4350 C   0  0  0  0  0  0  0  0  0  0  0  0
    0.7860   12.5490   15.1820 C   0  0  0  0  0  0  0  0  0  0  0  0
   -0.6490   12.7650   15.6600 C   0  0  0  0  0  0  0  0  0  0  0  0
   -1.1310   14.0590   15.0050 C   0  0  0  0  0  0  0  0  0  0  0  0
   -0.9340   19.0000   18.1960 C   0  0  0  0  0  0  0  0  0  0  0  0
    0.2840   19.6470   18.3580 N   0  0  0  0  0  0  0  0  0  0  0  0
    2.9144   21.0948   20.4361 H   0  0  0  0  0  0  0  0  0  0  0  0
    2.6351   20.2400   18.8811 H   0  0  0  0  0  0  0  0  0  0  0  0
    3.1074   21.9731   18.8811 H   0  0  0  0  0  0  0  0  0  0  0  0
    0.8890   22.5210   19.7510 H   0  0  0  0  0  0  0  0  0  0  0  0
   -1.4990   21.5070   20.1010 H   0  0  0  0  0  0  0  0  0  0  0  0
   -3.8918   20.0601   19.6251 H   0  0  0  0  0  0  0  0  0  0  0  0
   -6.3900   16.6860   17.5240 H   0  0  0  0  0  0  0  0  0  0  0  0
   -5.7790   15.2690   15.3170 H   0  0  0  0  0  0  0  0  0  0  0  0
   -4.7190   14.2160   16.1490 H   0  0  0  0  0  0  0  0  0  0  0  0
   -2.6740   15.8870   16.1290 H   0  0  0  0  0  0  0  0  0  0  0  0
    0.7001   17.1615   17.2547 H   0  0  0  0  0  0  0  0  0  0  0  0
   -0.6020   15.9972   16.7236 H   0  0  0  0  0  0  0  0  0  0  0  0
   -0.4028   18.5217   15.1624 H   0  0  0  0  0  0  0  0  0  0  0  0
    0.9871   17.3538   15.0136 H   0  0  0  0  0  0  0  0  0  0  0  0
   -1.5370   17.1880   13.7530 H   0  0  0  0  0  0  0  0  0  0  0  0
   -1.4690   16.0040   14.8650 H   0  0  0  0  0  0  0  0  0  0  0  0
   -0.5132   15.8188   12.3605 H   0  0  0  0  0  0  0  0  0  0  0  0
    0.9638   16.0718   13.3561 H   0  0  0  0  0  0  0  0  0  0  0  0
   -0.4689   13.7724   12.9359 H   0  0  0  0  0  0  0  0  0  0  0  0
    1.8936   13.6047   13.6377 H   0  0  0  0  0  0  0  0  0  0  0  0
    1.6467   14.5697   15.0814 H   0  0  0  0  0  0  0  0  0  0  0  0
    0.8399   11.6790   14.5111 H   0  0  0  0  0  0  0  0  0  0  0  0
    1.4684   12.3516   16.0219 H   0  0  0  0  0  0  0  0  0  0  0  0
   -1.2843   11.9221   15.3502 H   0  0  0  0  0  0  0  0  0  0  0  0
   -0.6987   12.8304   16.7569 H   0  0  0  0  0  0  0  0  0  0  0  0
   -2.1582   13.9432   14.6288 H   0  0  0  0  0  0  0  0  0  0  0  0
   -1.1494   14.9002   15.7135 H   0  0  0  0  0  0  0  0  0  0  0  0
    1.1650   19.4260   17.9130 H   0  0  0  0  0  0  0  0  0  0  0  0
  1  2  1  0
  2  3  1  0
  3  4  1  0
  4  5  1  0
  5  6  2  0
  6  7  1  0
  7  8  1  0
  8  9  2  0
  8 10  1  0
 10 11  1  0
 11 12  1  0
 11 13  2  0
 13 14  1  0
 14 15  1  0
 15 16  1  0
 16 17  1  0
 17 18  1  0
 18 19  1  0
 19 20  1  0
 20 21  1  0
 21 22  1  0
 22 23  1  0
 23 24  1  0
 15 25  2  0
 25 26  1  0
 26  3  2  0
 25  5  1  0
 14  7  2  0
 24 20  1  0
  1 27  1  0
  1 28  1  0
  1 29  1  0
  2 30  1  0
  4 31  1  0
  6 32  1  0
 10 33  1  0
 12 34  1  0
 12 35  1  0
 13 36  1  0
 16 37  1  0
 16 38  1  0
 17 39  1  0
 17 40  1  0
 18 41  1  0
 18 42  1  0
 19 43  1  0
 19 44  1  0
 20 45  1  0
 21 46  1  0
 21 47  1  0
 22 48  1  0
 22 49  1  0
 23 50  1  0
 23 51  1  0
 24 52  1  0
 24 53  1  0
 26 54  1  0
M  CHG  3  13   1  18   1  26   1
M  END
>  <meeko>  (5) 
{"is_sidechain": [false], "free_energy": -7.785, "intermolecular_energy": -10.504, "internal_energy": -0.863}

$$$$
3ge7_ligand
     RDKit          3D

 54 57  0  0  0  0  0  0  0  0999 V2000
    1.1410   14.3850   14.1290 C   0  0  0  0  0  0  0  0  0  0  0  0
    0.5400   15.6820   13.8270 N   0  0  0  0  0  0  0  0  0  0  0  0
   -0.0340   16.4330   14.7740 C   0  0  0  0  0  0  0  0  0  0  0  0
    0.4910   17.4720   15.3980 N   0  0  0  0  0  0  0  0  0  0  0  0
   -0.4050   18.0300   16.2730 C   0  0  0  0  0  0  0  0  0  0  0  0
   -0.2940   19.1400   17.0890 C   0  0  0  0  0  0  0  0  0  0  0  0
   -1.4400   19.4430   17.8420 C   0  0  0  0  0  0  0  0  0  0  0  0
   -1.4030   20.6280   18.7080 C   0  0  0  0  0  0  0  0  0  0  0  0
   -0.4200   21.3280   18.8280 O   0  0  0  0  0  0  0  0  0  0  0  0
   -2.5800   20.9200   19.4030 N   0  0  0  0  0  0  0  0  0  0  0  0
   -3.7010   20.2200   19.3430 C   0  0  0  0  0  0  0  0  0  0  0  0
   -4.7760   20.6140   20.0340 N   0  0  0  0  0  0  0  0  0  0  0  0
   -3.7620   19.0900   18.5760 N   0  0  0  0  0  0  0  0  0  0  0  0
   -2.6280   18.6690   17.8000 C   0  0  0  0  0  0  0  0  0  0  0  0
   -2.7120   17.4940   16.9800 C   0  0  0  0  0  0  0  0  0  0  0  0
   -3.9000   16.5630   16.8980 C   0  0  0  0  0  0  0  0  0  0  0  0
   -4.0370   15.6370   18.1240 C   0  0  0  0  0  0  0  0  0  0  0  0
   -3.5060   14.2560   17.8720 N   0  0  0  0  0  0  0  0  0  0  0  0
   -3.5240   13.7660   16.4490 C   0  0  0  0  0  0  0  0  0  0  0  0
   -2.2010   13.0810   16.1210 C   0  0  0  0  0  0  0  0  0  0  0  0
   -1.1310   13.3580   17.1730 C   0  0  0  0  0  0  0  0  0  0  0  0
   -0.0650   12.3110   16.8820 C   0  0  0  0  0  0  0  0  0  0  0  0
   -0.8160   11.1030   16.3240 C   0  0  0  0  0  0  0  0  0  0  0  0
   -2.2610   11.5540   16.1130 C   0  0  0  0  0  0  0  0  0  0  0  0
   -1.5560   17.2370   16.2070 C   0  0  0  0  0  0  0  0  0  0  0  0
   -1.2620   16.2620   15.2640 N   0  0  0  0  0  0  0  0  0  0  0  0
    1.2017   14.2540   15.2195 H   0  0  0  0  0  0  0  0  0  0  0  0
    0.5220   13.5846   13.6974 H   0  0  0  0  0  0  0  0  0  0  0  0
    2.1518   14.3399   13.6974 H   0  0  0  0  0  0  0  0  0  0  0  0
    0.5780   16.0180   12.8730 H   0  0  0  0  0  0  0  0  0  0  0  0
    1.4280   17.8220   15.2160 H   0  0  0  0  0  0  0  0  0  0  0  0
    0.6249   19.7421   17.1446 H   0  0  0  0  0  0  0  0  0  0  0  0
   -2.5280   21.7520   19.9820 H   0  0  0  0  0  0  0  0  0  0  0  0
   -4.7640   20.8580   21.0170 H   0  0  0  0  0  0  0  0  0  0  0  0
   -5.6930   20.6650   19.5950 H   0  0  0  0  0  0  0  0  0  0  0  0
   -4.6570   18.6220   18.5440 H   0  0  0  0  0  0  0  0  0  0  0  0
   -4.8137   17.1698   16.8153 H   0  0  0  0  0  0  0  0  0  0  0  0
   -3.7484   15.9189   16.0193 H   0  0  0  0  0  0  0  0  0  0  0  0
   -3.4803   16.0799   18.9630 H   0  0  0  0  0  0  0  0  0  0  0  0
   -5.1094   15.5433   18.3501 H   0  0  0  0  0  0  0  0  0  0  0  0
   -3.9540   13.5470   18.4720 H   0  0  0  0  0  0  0  0  0  0  0  0
   -2.5160   14.2410   18.1700 H   0  0  0  0  0  0  0  0  0  0  0  0
   -4.3482   13.0489   16.3202 H   0  0  0  0  0  0  0  0  0  0  0  0
   -3.6674   14.6213   15.7724 H   0  0  0  0  0  0  0  0  0  0  0  0
   -1.9737   13.4893   15.1252 H   0  0  0  0  0  0  0  0  0  0  0  0
   -0.7245   14.3741   17.0619 H   0  0  0  0  0  0  0  0  0  0  0  0
   -1.5172   13.3010   18.2014 H   0  0  0  0  0  0  0  0  0  0  0  0
    0.6545   12.6911   16.1418 H   0  0  0  0  0  0  0  0  0  0  0  0
    0.5081   12.0523   17.7846 H   0  0  0  0  0  0  0  0  0  0  0  0
   -0.3724   10.7874   15.3682 H   0  0  0  0  0  0  0  0  0  0  0  0
   -0.7617   10.2466   17.0121 H   0  0  0  0  0  0  0  0  0  0  0  0
   -2.6444   11.1867   15.1496 H   0  0  0  0  0  0  0  0  0  0  0  0
   -2.9349   11.1618   16.8889 H   0  0  0  0  0  0  0  0  0  0  0  0
   -1.8790   15.5480   14.9000 H   0  0  0  0  0  0  0  0  0  0  0  0
  1  2  1  0
  2  3  1  0
  3  4  1  0
  4  5  1  0
  5  6  2  0
  6  7  1  0
  7  8  1  0
  8  9  2  0
  8 10  1  0
 10 11  1  0
 11 12  1  0
 11 13  2  0
 13 14  1  0
 14 15  1  0
 15 16  1  0
 16 17  1  0
 17 18  1  0
 18 19  1  0
 19 20  1  0
 20 21  1  0
 21 22  1  0
 22 23  1  0
 23 24  1  0
 15 25  2  0
 25 26  1  0
 26  3  2  0
 25  5  1  0
 14  7  2  0
 24 20  1  0
  1 27  1  0
  1 28  1  0
  1 29  1  0
  2 30  1  0
  4 31  1  0
  6 32  1  0
 10 33  1  0
 12 34  1  0
 12 35  1  0
 13 36  1  0
 16 37  1  0
 16 38  1  0
 17 39  1  0
 17 40  1  0
 18 41  1  0
 18 42  1  0
 19 43  1  0
 19 44  1  0
 20 45  1  0
 21 46  1  0
 21 47  1  0
 22 48  1  0
 22 49  1  0
 23 50  1  0
 23 51  1  0
 24 52  1  0
 24 53  1  0
 26 54  1  0
M  CHG  3  13   1  18   1  26   1
M  END
>  <meeko>  (6) 
{"is_sidechain": [false], "free_energy": -7.432, "intermolecular_energy": -9.939, "internal_energy": -0.941}

$$$$
3ge7_ligand
     RDKit          3D

 54 57  0  0  0  0  0  0  0  0999 V2000
   -6.2690   13.1260   20.1870 C   0  0  0  0  0  0  0  0  0  0  0  0
   -5.5010   12.5930   19.0640 N   0  0  0  0  0  0  0  0  0  0  0  0
   -4.6090   13.3380   18.4000 C   0  0  0  0  0  0  0  0  0  0  0  0
   -3.8650   12.9700   17.3720 N   0  0  0  0  0  0  0  0  0  0  0  0
   -3.1000   14.0120   16.9160 C   0  0  0  0  0  0  0  0  0  0  0  0
   -2.2220   14.0830   15.8510 C   0  0  0  0  0  0  0  0  0  0  0  0
   -1.6250   15.3400   15.6540 C   0  0  0  0  0  0  0  0  0  0  0  0
   -0.7050   15.4970   14.5210 C   0  0  0  0  0  0  0  0  0  0  0  0
   -0.4120   14.5850   13.7770 O   0  0  0  0  0  0  0  0  0  0  0  0
   -0.1710   16.7750   14.3330 N   0  0  0  0  0  0  0  0  0  0  0  0
   -0.4250   17.8310   15.0890 C   0  0  0  0  0  0  0  0  0  0  0  0
    0.1260   19.0140   14.7940 N   0  0  0  0  0  0  0  0  0  0  0  0
   -1.2480   17.7150   16.1730 N   0  0  0  0  0  0  0  0  0  0  0  0
   -1.8740   16.4610   16.4870 C   0  0  0  0  0  0  0  0  0  0  0  0
   -2.7550   16.3570   17.6150 C   0  0  0  0  0  0  0  0  0  0  0  0
   -3.0510   17.4630   18.6030 C   0  0  0  0  0  0  0  0  0  0  0  0
   -4.1940   18.3950   18.1520 C   0  0  0  0  0  0  0  0  0  0  0  0
   -3.7150   19.7740   17.8010 N   0  0  0  0  0  0  0  0  0  0  0  0
   -3.2760   20.6560   18.9390 C   0  0  0  0  0  0  0  0  0  0  0  0
   -1.8380   21.1110   18.7160 C   0  0  0  0  0  0  0  0  0  0  0  0
   -1.3840   22.1210   19.7670 C   0  0  0  0  0  0  0  0  0  0  0  0
    0.1300   22.1430   19.6090 C   0  0  0  0  0  0  0  0  0  0  0  0
    0.5170   20.7370   19.1500 C   0  0  0  0  0  0  0  0  0  0  0  0
   -0.7920   20.0050   18.8540 C   0  0  0  0  0  0  0  0  0  0  0  0
   -3.3680   15.0910   17.7650 C   0  0  0  0  0  0  0  0  0  0  0  0
   -4.3070   14.6100   18.6660 N   0  0  0  0  0  0  0  0  0  0  0  0
   -5.8069   12.8053   21.1323 H   0  0  0  0  0  0  0  0  0  0  0  0
   -6.2770   14.2248   20.1371 H   0  0  0  0  0  0  0  0  0  0  0  0
   -7.3012   12.7491   20.1371 H   0  0  0  0  0  0  0  0  0  0  0  0
   -5.6440   11.6280   18.7980 H   0  0  0  0  0  0  0  0  0  0  0  0
   -3.8940   12.0400   16.9630 H   0  0  0  0  0  0  0  0  0  0  0  0
   -2.0063   13.2192   15.2050 H   0  0  0  0  0  0  0  0  0  0  0  0
    0.4500   16.8550   13.5340 H   0  0  0  0  0  0  0  0  0  0  0  0
   -0.3920   19.8810   14.7170 H   0  0  0  0  0  0  0  0  0  0  0  0
    1.1220   19.0960   14.6020 H   0  0  0  0  0  0  0  0  0  0  0  0
   -1.4300   18.5670   16.6860 H   0  0  0  0  0  0  0  0  0  0  0  0
   -3.3312   17.0068   19.5639 H   0  0  0  0  0  0  0  0  0  0  0  0
   -2.1427   18.0780   18.6849 H   0  0  0  0  0  0  0  0  0  0  0  0
   -4.6781   17.9552   17.2675 H   0  0  0  0  0  0  0  0  0  0  0  0
   -4.8948   18.4918   18.9943 H   0  0  0  0  0  0  0  0  0  0  0  0
   -4.3950   20.2920   17.2240 H   0  0  0  0  0  0  0  0  0  0  0  0
   -2.8930   19.6710   17.1810 H   0  0  0  0  0  0  0  0  0  0  0  0
   -3.9332   21.5364   18.9929 H   0  0  0  0  0  0  0  0  0  0  0  0
   -3.3356   20.0902   19.8804 H   0  0  0  0  0  0  0  0  0  0  0  0
   -1.8807   21.5101   17.6918 H   0  0  0  0  0  0  0  0  0  0  0  0
   -1.8143   23.1139   19.5697 H   0  0  0  0  0  0  0  0  0  0  0  0
   -1.7045   21.8533   20.7847 H   0  0  0  0  0  0  0  0  0  0  0  0
    0.4265   22.8878   18.8558 H   0  0  0  0  0  0  0  0  0  0  0  0
    0.6329   22.4169   20.5482 H   0  0  0  0  0  0  0  0  0  0  0  0
    1.1370   20.7899   18.2429 H   0  0  0  0  0  0  0  0  0  0  0  0
    1.1022   20.2127   19.9199 H   0  0  0  0  0  0  0  0  0  0  0  0
   -0.7112   19.4299   17.9198 H   0  0  0  0  0  0  0  0  0  0  0  0
   -1.0520   19.2852   19.6441 H   0  0  0  0  0  0  0  0  0  0  0  0
   -4.7900   15.1250   19.3900 H   0  0  0  0  0  0  0  0  0  0  0  0
  1  2  1  0
  2  3  1  0
  3  4  1  0
  4  5  1  0
  5  6  2  0
  6  7  1  0
  7  8  1  0
  8  9  2  0
  8 10  1  0
 10 11  1  0
 11 12  1  0
 11 13  2  0
 13 14  1  0
 14 15  1  0
 15 16  1  0
 16 17  1  0
 17 18  1  0
 18 19  1  0
 19 20  1  0
 20 21  1  0
 21 22  1  0
 22 23  1  0
 23 24  1  0
 15 25  2  0
 25 26  1  0
 26  3  2  0
 25  5  1  0
 14  7  2  0
 24 20  1  0
  1 27  1  0
  1 28  1  0
  1 29  1  0
  2 30  1  0
  4 31  1  0
  6 32  1  0
 10 33  1  0
 12 34  1  0
 12 35  1  0
 13 36  1  0
 16 37  1  0
 16 38  1  0
 17 39  1  0
 17 40  1  0
 18 41  1  0
 18 42  1  0
 19 43  1  0
 19 44  1  0
 20 45  1  0
 21 46  1  0
 21 47  1  0
 22 48  1  0
 22 49  1  0
 23 50  1  0
 23 51  1  0
 24 52  1  0
 24 53  1  0
 26 54  1  0
M  CHG  3  13   1  18   1  26   1
M  END
>  <meeko>  (7) 
{"is_sidechain": [false], "free_energy": -7.399, "intermolecular_energy": -10.108, "internal_energy": -0.726}

$$$$
3ge7_ligand
     RDKit          3D

 54 57  0  0  0  0  0  0  0  0999 V2000
    0.1900   13.3920   14.8240 C   0  0  0  0  0  0  0  0  0  0  0  0
    0.6180   14.7890   14.8650 N   0  0  0  0  0  0  0  0  0  0  0  0
    0.0300   15.6860   15.6650 C   0  0  0  0  0  0  0  0  0  0  0  0
    0.5100   16.8570   16.0440 N   0  0  0  0  0  0  0  0  0  0  0  0
   -0.3900   17.5310   16.8270 C   0  0  0  0  0  0  0  0  0  0  0  0
   -0.3210   18.7880   17.3980 C   0  0  0  0  0  0  0  0  0  0  0  0
   -1.4590   19.1770   18.1230 C   0  0  0  0  0  0  0  0  0  0  0  0
   -1.4670   20.5130   18.7310 C   0  0  0  0  0  0  0  0  0  0  0  0
   -0.5250   21.2750   18.6650 O   0  0  0  0  0  0  0  0  0  0  0  0
   -2.6370   20.8780   19.4040 N   0  0  0  0  0  0  0  0  0  0  0  0
   -3.7140   20.1210   19.5340 C   0  0  0  0  0  0  0  0  0  0  0  0
   -4.7890   20.5890   20.1780 N   0  0  0  0  0  0  0  0  0  0  0  0
   -3.7300   18.8570   19.0140 N   0  0  0  0  0  0  0  0  0  0  0  0
   -2.5980   18.3480   18.2900 C   0  0  0  0  0  0  0  0  0  0  0  0
   -2.6360   17.0280   17.7280 C   0  0  0  0  0  0  0  0  0  0  0  0
   -3.7670   16.0380   17.8870 C   0  0  0  0  0  0  0  0  0  0  0  0
   -4.7590   16.0480   16.7060 C   0  0  0  0  0  0  0  0  0  0  0  0
   -6.1880   16.1660   17.1480 N   0  0  0  0  0  0  0  0  0  0  0  0
   -6.9860   14.8930   17.2340 C   0  0  0  0  0  0  0  0  0  0  0  0
   -8.0330   14.8620   16.1260 C   0  0  0  0  0  0  0  0  0  0  0  0
   -8.3420   13.4410   15.6630 C   0  0  0  0  0  0  0  0  0  0  0  0
   -9.6360   13.5950   14.8770 C   0  0  0  0  0  0  0  0  0  0  0  0
  -10.3810   14.7580   15.5320 C   0  0  0  0  0  0  0  0  0  0  0  0
   -9.4120   15.3760   16.5400 C   0  0  0  0  0  0  0  0  0  0  0  0
   -1.4920   16.6810   16.9730 C   0  0  0  0  0  0  0  0  0  0  0  0
   -1.1690   15.5520   16.2330 N   0  0  0  0  0  0  0  0  0  0  0  0
    0.0741   13.0137   15.8504 H   0  0  0  0  0  0  0  0  0  0  0  0
   -0.7719   13.3186   14.2954 H   0  0  0  0  0  0  0  0  0  0  0  0
    0.9456   12.7924   14.2954 H   0  0  0  0  0  0  0  0  0  0  0  0
    1.3930   15.0720   14.2780 H   0  0  0  0  0  0  0  0  0  0  0  0
    1.4180   17.2110   15.7550 H   0  0  0  0  0  0  0  0  0  0  0  0
    0.5612   19.4364   17.2922 H   0  0  0  0  0  0  0  0  0  0  0  0
   -2.6170   21.8120   19.8000 H   0  0  0  0  0  0  0  0  0  0  0  0
   -5.2360   21.4740   19.9730 H   0  0  0  0  0  0  0  0  0  0  0  0
   -5.2070   20.0710   20.9480 H   0  0  0  0  0  0  0  0  0  0  0  0
   -4.5960   18.3450   19.1160 H   0  0  0  0  0  0  0  0  0  0  0  0
   -3.3378   15.0289   17.9735 H   0  0  0  0  0  0  0  0  0  0  0  0
   -4.3294   16.3286   18.7866 H   0  0  0  0  0  0  0  0  0  0  0  0
   -4.5210   16.9017   16.0543 H   0  0  0  0  0  0  0  0  0  0  0  0
   -4.6540   15.0892   16.1771 H   0  0  0  0  0  0  0  0  0  0  0  0
   -6.7180   16.8520   16.5890 H   0  0  0  0  0  0  0  0  0  0  0  0
   -6.1890   16.5720   18.1000 H   0  0  0  0  0  0  0  0  0  0  0  0
   -6.3114   14.0313   17.1228 H   0  0  0  0  0  0  0  0  0  0  0  0
   -7.4902   14.8465   18.2106 H   0  0  0  0  0  0  0  0  0  0  0  0
   -7.5703   15.4983   15.3573 H   0  0  0  0  0  0  0  0  0  0  0  0
   -7.5368   13.0528   15.0220 H   0  0  0  0  0  0  0  0  0  0  0  0
   -8.4302   12.7291   16.4969 H   0  0  0  0  0  0  0  0  0  0  0  0
   -9.4198   13.8230   13.8228 H   0  0  0  0  0  0  0  0  0  0  0  0
  -10.2325   12.6709   14.8912 H   0  0  0  0  0  0  0  0  0  0  0  0
  -10.6675   15.5018   14.7740 H   0  0  0  0  0  0  0  0  0  0  0  0
  -11.3037   14.4154   16.0232 H   0  0  0  0  0  0  0  0  0  0  0  0
   -9.4474   16.4742   16.4877 H   0  0  0  0  0  0  0  0  0  0  0  0
   -9.6620   15.1028   17.5758 H   0  0  0  0  0  0  0  0  0  0  0  0
   -1.7530   14.7470   16.0470 H   0  0  0  0  0  0  0  0  0  0  0  0
  1  2  1  0
  2  3  1  0
  3  4  1  0
  4  5  1  0
  5  6  2  0
  6  7  1  0
  7  8  1  0
  8  9  2  0
  8 10  1  0
 10 11  1  0
 11 12  1  0
 11 13  2  0
 13 14  1  0
 14 15  1  0
 15 16  1  0
 16 17  1  0
 17 18  1  0
 18 19  1  0
 19 20  1  0
 20 21  1  0
 21 22  1  0
 22 23  1  0
 23 24  1  0
 15 25  2  0
 25 26  1  0
 26  3  2  0
 25  5  1  0
 14  7  2  0
 24 20  1  0
  1 27  1  0
  1 28  1  0
  1 29  1  0
  2 30  1  0
  4 31  1  0
  6 32  1  0
 10 33  1  0
 12 34  1  0
 12 35  1  0
 13 36  1  0
 16 37  1  0
 16 38  1  0
 17 39  1  0
 17 40  1  0
 18 41  1  0
 18 42  1  0
 19 43  1  0
 19 44  1  0
 20 45  1  0
 21 46  1  0
 21 47  1  0
 22 48  1  0
 22 49  1  0
 23 50  1  0
 23 51  1  0
 24 52  1  0
 24 53  1  0
 26 54  1  0
M  CHG  3  13   1  18   1  26   1
M  END
>  <meeko>  (8) 
{"is_sidechain": [false], "free_energy": -7.338, "intermolecular_energy": -10.31, "internal_energy": -0.439}

$$$$
