4owm_ligand
     RDKit          3D

 16 16  0  0  0  0  0  0  0  0999 V2000
   -8.9630   23.3290   13.7180 N   0  0  0  0  0  0  0  0  0  0  0  0
   -9.1960   22.2030   12.8930 C   0  0  0  0  0  0  0  0  0  0  0  0
  -10.5150   21.7720   12.6690 C   0  0  0  0  0  0  0  0  0  0  0  0
  -11.5430   22.5150   13.1150 F   0  0  0  0  0  0  0  0  0  0  0  0
  -10.8010   20.5920   11.9860 C   0  0  0  0  0  0  0  0  0  0  0  0
   -9.7570   19.7970   11.5320 C   0  0  0  0  0  0  0  0  0  0  0  0
   -8.4380   20.1930   11.7620 C   0  0  0  0  0  0  0  0  0  0  0  0
   -8.1310   21.3910   12.4460 C   0  0  0  0  0  0  0  0  0  0  0  0
   -6.6770   21.7890   12.6200 C   0  0  0  0  0  0  0  0  0  0  0  0
   -6.0450   22.1600   11.5800 O   0  0  0  0  0  0  0  0  0  0  0  0
   -6.1980   21.7510   13.8030 O   0  0  0  0  0  0  0  0  0  0  0  0
   -8.9070   24.1680   13.1060 H   0  0  0  0  0  0  0  0  0  0  0  0
   -9.6580   23.4230   14.4460 H   0  0  0  0  0  0  0  0  0  0  0  0
  -11.8444   20.2928   11.8080 H   0  0  0  0  0  0  0  0  0  0  0  0
   -9.9678   18.8608   10.9943 H   0  0  0  0  0  0  0  0  0  0  0  0
   -7.6167   19.5562   11.4016 H   0  0  0  0  0  0  0  0  0  0  0  0
  1  2  1  0
  2  3  2  0
  3  4  1  0
  3  5  1  0
  5  6  2  0
  6  7  1  0
  7  8  2  0
  8  9  1  0
  9 10  2  0
  9 11  1  0
  8  2  1  0
  1 12  1  0
  1 13  1  0
  5 14  1  0
  6 15  1  0
  7 16  1  0
M  CHG  1  11  -1
M  END
>  <meeko>  (1) 
{"is_sidechain": [false], "free_energy": -5.725, "intermolecular_energy": -6.227, "internal_energy": -0.259}

$$$$
4owm_ligand
     RDKit          3D

 16 16  0  0  0  0  0  0  0  0999 V2000
  -10.7040   21.7760   14.1550 N   0  0  0  0  0  0  0  0  0  0  0  0
  -10.0430   21.8370   12.9050 C   0  0  0  0  0  0  0  0  0  0  0  0
   -9.1700   22.9060   12.6370 C   0  0  0  0  0  0  0  0  0  0  0  0
   -8.8580   23.7740   13.6160 F   0  0  0  0  0  0  0  0  0  0  0  0
   -8.6020   23.0980   11.3800 C   0  0  0  0  0  0  0  0  0  0  0  0
   -8.9220   22.2280   10.3460 C   0  0  0  0  0  0  0  0  0  0  0  0
   -9.8040   21.1710   10.5830 C   0  0  0  0  0  0  0  0  0  0  0  0
  -10.3830   20.9580   11.8540 C   0  0  0  0  0  0  0  0  0  0  0  0
  -11.2960   19.7620   12.0580 C   0  0  0  0  0  0  0  0  0  0  0  0
  -12.4860   19.9960   12.4410 O   0  0  0  0  0  0  0  0  0  0  0  0
  -10.8120   18.6090   11.8050 O   0  0  0  0  0  0  0  0  0  0  0  0
  -11.3440   22.5940   14.2190 H   0  0  0  0  0  0  0  0  0  0  0  0
  -11.1810   20.8960   14.2960 H   0  0  0  0  0  0  0  0  0  0  0  0
   -7.9056   23.9319   11.2076 H   0  0  0  0  0  0  0  0  0  0  0  0
   -8.4839   22.3702    9.3471 H   0  0  0  0  0  0  0  0  0  0  0  0
  -10.0542   20.4868    9.7588 H   0  0  0  0  0  0  0  0  0  0  0  0
  1  2  1  0
  2  3  2  0
  3  4  1  0
  3  5  1  0
  5  6  2  0
  6  7  1  0
  7  8  2  0
  8  9  1  0
  9 10  2  0
  9 11  1  0
  8  2  1  0
  1 12  1  0
  1 13  1  0
  5 14  1  0
  6 15  1  0
  7 16  1  0
M  CHG  1  11  -1
M  END
>  <meeko>  (2) 
{"is_sidechain": [false], "free_energy": -5.569, "intermolecular_energy": -6.046, "internal_energy": -0.27}

$$$$
4owm_ligand
     RDKit          3D

 16 16  0  0  0  0  0  0  0  0999 V2000
  -11.4280   21.8900   13.5980 N   0  0  0  0  0  0  0  0  0  0  0  0
  -10.8410   20.9790   12.6870 C   0  0  0  0  0  0  0  0  0  0  0  0
  -11.6010   19.8980   12.2070 C   0  0  0  0  0  0  0  0  0  0  0  0
  -12.9120   19.8240   12.4970 F   0  0  0  0  0  0  0  0  0  0  0  0
  -11.0410   18.8930   11.4240 C   0  0  0  0  0  0  0  0  0  0  0  0
   -9.6850   18.9360   11.1250 C   0  0  0  0  0  0  0  0  0  0  0  0
   -8.9050   19.9880   11.6100 C   0  0  0  0  0  0  0  0  0  0  0  0
   -9.4610   21.0210   12.3990 C   0  0  0  0  0  0  0  0  0  0  0  0
   -8.5690   22.1620   12.8540 C   0  0  0  0  0  0  0  0  0  0  0  0
   -7.3640   21.8800   13.1460 O   0  0  0  0  0  0  0  0  0  0  0  0
   -9.0850   23.3290   12.8840 O   0  0  0  0  0  0  0  0  0  0  0  0
  -10.8280   22.7390   13.6320 H   0  0  0  0  0  0  0  0  0  0  0  0
  -12.3890   22.1020   13.3670 H   0  0  0  0  0  0  0  0  0  0  0  0
  -11.6668   18.0715   11.0451 H   0  0  0  0  0  0  0  0  0  0  0  0
   -9.2285   18.1464   10.5101 H   0  0  0  0  0  0  0  0  0  0  0  0
   -7.8313   20.0135   11.3722 H   0  0  0  0  0  0  0  0  0  0  0  0
  1  2  1  0
  2  3  2  0
  3  4  1  0
  3  5  1  0
  5  6  2  0
  6  7  1  0
  7  8  2  0
  8  9  1  0
  9 10  2  0
  9 11  1  0
  8  2  1  0
  1 12  1  0
  1 13  1  0
  5 14  1  0
  6 15  1  0
  7 16  1  0
M  CHG  1  11  -1
M  END
>  <meeko>  (3) 
{"is_sidechain": [false], "free_energy": -5.518, "intermolecular_energy": -6.022, "internal_energy": -0.238}

$$$$
4owm_ligand
     RDKit          3D

 16 16  0  0  0  0  0  0  0  0999 V2000
   -7.4820   21.1630   13.5960 N   0  0  0  0  0  0  0  0  0  0  0  0
   -8.6990   21.0950   12.8760 C   0  0  0  0  0  0  0  0  0  0  0  0
   -9.7510   20.3060   13.3730 C   0  0  0  0  0  0  0  0  0  0  0  0
   -9.6480   19.7470   14.5910 F   0  0  0  0  0  0  0  0  0  0  0  0
  -10.9160   20.0860   12.6420 C   0  0  0  0  0  0  0  0  0  0  0  0
  -11.0410   20.6360   11.3730 C   0  0  0  0  0  0  0  0  0  0  0  0
   -9.9990   21.4050   10.8500 C   0  0  0  0  0  0  0  0  0  0  0  0
   -8.8130   21.6440   11.5810 C   0  0  0  0  0  0  0  0  0  0  0  0
   -7.7390   22.5300   10.9760 C   0  0  0  0  0  0  0  0  0  0  0  0
   -6.5630   22.0520   10.9010 O   0  0  0  0  0  0  0  0  0  0  0  0
   -8.0990   23.6820   10.5590 O   0  0  0  0  0  0  0  0  0  0  0  0
   -6.7040   21.2020   12.9070 H   0  0  0  0  0  0  0  0  0  0  0  0
   -7.4640   21.9350   14.2490 H   0  0  0  0  0  0  0  0  0  0  0  0
  -11.7308   19.4812   13.0666 H   0  0  0  0  0  0  0  0  0  0  0  0
  -11.9544   20.4672   10.7838 H   0  0  0  0  0  0  0  0  0  0  0  0
  -10.1040   21.8358    9.8433 H   0  0  0  0  0  0  0  0  0  0  0  0
  1  2  1  0
  2  3  2  0
  3  4  1  0
  3  5  1  0
  5  6  2  0
  6  7  1  0
  7  8  2  0
  8  9  1  0
  9 10  2  0
  9 11  1  0
  8  2  1  0
  1 12  1  0
  1 13  1  0
  5 14  1  0
  6 15  1  0
  7 16  1  0
M  CHG  1  11  -1
M  END
>  <meeko>  (4) 
{"is_sidechain": [false], "free_energy": -5.434, "intermolecular_energy": -5.903, "internal_energy": -0.266}

$$$$
4owm_ligand
     RDKit          3D

 16 16  0  0  0  0  0  0  0  0999 V2000
   -8.8500   18.3980   12.5800 N   0  0  0  0  0  0  0  0  0  0  0  0
   -8.9870   19.5220   11.7300 C   0  0  0  0  0  0  0  0  0  0  0  0
   -8.5350   20.7790   12.1700 C   0  0  0  0  0  0  0  0  0  0  0  0
   -7.8490   20.8740   13.3230 F   0  0  0  0  0  0  0  0  0  0  0  0
   -8.7680   21.9430   11.4420 C   0  0  0  0  0  0  0  0  0  0  0  0
   -9.4900   21.8750   10.2580 C   0  0  0  0  0  0  0  0  0  0  0  0
   -9.9680   20.6410    9.8120 C   0  0  0  0  0  0  0  0  0  0  0  0
   -9.7340   19.4490   10.5350 C   0  0  0  0  0  0  0  0  0  0  0  0
  -10.2380   18.1330    9.9710 C   0  0  0  0  0  0  0  0  0  0  0  0
   -9.9590   17.8740    8.7570 O   0  0  0  0  0  0  0  0  0  0  0  0
  -10.8820   17.3670   10.7630 O   0  0  0  0  0  0  0  0  0  0  0  0
   -7.8350   18.2330   12.7320 H   0  0  0  0  0  0  0  0  0  0  0  0
   -9.3620   18.5060   13.4450 H   0  0  0  0  0  0  0  0  0  0  0  0
   -8.3832   22.9085   11.8021 H   0  0  0  0  0  0  0  0  0  0  0  0
   -9.6843   22.7873    9.6750 H   0  0  0  0  0  0  0  0  0  0  0  0
  -10.5412   20.5954    8.8742 H   0  0  0  0  0  0  0  0  0  0  0  0
  1  2  1  0
  2  3  2  0
  3  4  1  0
  3  5  1  0
  5  6  2  0
  6  7  1  0
  7  8  2  0
  8  9  1  0
  9 10  2  0
  9 11  1  0
  8  2  1  0
  1 12  1  0
  1 13  1  0
  5 14  1  0
  6 15  1  0
  7 16  1  0
M  CHG  1  11  -1
M  END
>  <meeko>  (5) 
{"is_sidechain": [false], "free_energy": -5.422, "intermolecular_energy": -5.899, "internal_energy": -0.256}

$$$$
4owm_ligand
     RDKit          3D

 16 16  0  0  0  0  0  0  0  0999 V2000
   -9.1190   20.1460   14.2130 N   0  0  0  0  0  0  0  0  0  0  0  0
   -8.8750   20.6540   12.9150 C   0  0  0  0  0  0  0  0  0  0  0  0
   -7.7460   21.4600   12.6900 C   0  0  0  0  0  0  0  0  0  0  0  0
   -6.8350   21.6180   13.6660 F   0  0  0  0  0  0  0  0  0  0  0  0
   -7.5290   22.1030   11.4740 C   0  0  0  0  0  0  0  0  0  0  0  0
   -8.4640   21.9720   10.4550 C   0  0  0  0  0  0  0  0  0  0  0  0
   -9.6050   21.1940   10.6640 C   0  0  0  0  0  0  0  0  0  0  0  0
   -9.8360   20.5290   11.8890 C   0  0  0  0  0  0  0  0  0  0  0  0
  -11.0720   19.6590   12.0340 C   0  0  0  0  0  0  0  0  0  0  0  0
  -11.0850   18.5550   11.4020 O   0  0  0  0  0  0  0  0  0  0  0  0
  -11.9980   20.0840   12.8010 O   0  0  0  0  0  0  0  0  0  0  0  0
   -9.0420   19.1090   14.1710 H   0  0  0  0  0  0  0  0  0  0  0  0
   -8.5080   20.5540   14.9080 H   0  0  0  0  0  0  0  0  0  0  0  0
   -6.6243   22.7099   11.3216 H   0  0  0  0  0  0  0  0  0  0  0  0
   -8.3069   22.4773    9.4906 H   0  0  0  0  0  0  0  0  0  0  0  0
  -10.3428   21.0965    9.8540 H   0  0  0  0  0  0  0  0  0  0  0  0
  1  2  1  0
  2  3  2  0
  3  4  1  0
  3  5  1  0
  5  6  2  0
  6  7  1  0
  7  8  2  0
  8  9  1  0
  9 10  2  0
  9 11  1  0
  8  2  1  0
  1 12  1  0
  1 13  1  0
  5 14  1  0
  6 15  1  0
  7 16  1  0
M  CHG  1  11  -1
M  END
>  <meeko>  (6) 
{"is_sidechain": [false], "free_energy": -5.416, "intermolecular_energy": -5.896, "internal_energy": -0.253}

$$$$
4owm_ligand
     RDKit          3D

 16 16  0  0  0  0  0  0  0  0999 V2000
  -10.2690   17.1640   10.9810 N   0  0  0  0  0  0  0  0  0  0  0  0
  -10.2490   18.4180   10.3250 C   0  0  0  0  0  0  0  0  0  0  0  0
   -9.8230   18.4900    8.9870 C   0  0  0  0  0  0  0  0  0  0  0  0
   -9.5820   17.3590    8.3020 F   0  0  0  0  0  0  0  0  0  0  0  0
   -9.6460   19.7080    8.3350 C   0  0  0  0  0  0  0  0  0  0  0  0
   -9.8690   20.8920    9.0250 C   0  0  0  0  0  0  0  0  0  0  0  0
  -10.2720   20.8450   10.3610 C   0  0  0  0  0  0  0  0  0  0  0  0
  -10.4630   19.6180   11.0360 C   0  0  0  0  0  0  0  0  0  0  0  0
  -10.9490   19.6350   12.4740 C   0  0  0  0  0  0  0  0  0  0  0  0
  -12.1420   20.0250   12.6820 O   0  0  0  0  0  0  0  0  0  0  0  0
  -10.1360   19.2320   13.3710 O   0  0  0  0  0  0  0  0  0  0  0  0
   -9.8220   16.4670   10.3520 H   0  0  0  0  0  0  0  0  0  0  0  0
   -9.8370   17.1990   11.8950 H   0  0  0  0  0  0  0  0  0  0  0  0
   -9.3318   19.7317    7.2811 H   0  0  0  0  0  0  0  0  0  0  0  0
   -9.7291   21.8605    8.5225 H   0  0  0  0  0  0  0  0  0  0  0  0
  -10.4453   21.7870   10.9020 H   0  0  0  0  0  0  0  0  0  0  0  0
  1  2  1  0
  2  3  2  0
  3  4  1  0
  3  5  1  0
  5  6  2  0
  6  7  1  0
  7  8  2  0
  8  9  1  0
  9 10  2  0
  9 11  1  0
  8  2  1  0
  1 12  1  0
  1 13  1  0
  5 14  1  0
  6 15  1  0
  7 16  1  0
M  CHG  1  11  -1
M  END
>  <meeko>  (7) 
{"is_sidechain": [false], "free_energy": -5.365, "intermolecular_energy": -5.832, "internal_energy": -0.262}

$$$$
4owm_ligand
     RDKit          3D

 16 16  0  0  0  0  0  0  0  0999 V2000
  -10.8290   21.4420   10.0750 N   0  0  0  0  0  0  0  0  0  0  0  0
   -9.5750   21.6030   10.7110 C   0  0  0  0  0  0  0  0  0  0  0  0
   -8.4940   22.1300    9.9810 C   0  0  0  0  0  0  0  0  0  0  0  0
   -8.6970   22.6100    8.7420 F   0  0  0  0  0  0  0  0  0  0  0  0
   -7.2050   22.1800   10.5060 C   0  0  0  0  0  0  0  0  0  0  0  0
   -6.9640   21.6730   11.7770 C   0  0  0  0  0  0  0  0  0  0  0  0
   -8.0180   21.1250   12.5110 C   0  0  0  0  0  0  0  0  0  0  0  0
   -9.3340   21.0730   11.9960 C   0  0  0  0  0  0  0  0  0  0  0  0
  -10.4440   20.5100   12.8650 C   0  0  0  0  0  0  0  0  0  0  0  0
  -11.4530   21.2550   13.0780 O   0  0  0  0  0  0  0  0  0  0  0  0
  -10.2980   19.3180   13.2980 O   0  0  0  0  0  0  0  0  0  0  0  0
  -11.2970   20.6140   10.4960 H   0  0  0  0  0  0  0  0  0  0  0  0
  -11.3960   22.2780   10.1240 H   0  0  0  0  0  0  0  0  0  0  0  0
   -6.3840   22.6175    9.9190 H   0  0  0  0  0  0  0  0  0  0  0  0
   -5.9499   21.7031   12.2021 H   0  0  0  0  0  0  0  0  0  0  0  0
   -7.8195   20.7234   13.5157 H   0  0  0  0  0  0  0  0  0  0  0  0
  1  2  1  0
  2  3  2  0
  3  4  1  0
  3  5  1  0
  5  6  2  0
  6  7  1  0
  7  8  2  0
  8  9  1  0
  9 10  2  0
  9 11  1  0
  8  2  1  0
  1 12  1  0
  1 13  1  0
  5 14  1  0
  6 15  1  0
  7 16  1  0
M  CHG  1  11  -1
M  END
>  <meeko>  (8) 
{"is_sidechain": [false], "free_energy": -5.224, "intermolecular_energy": -5.668, "internal_energy": -0.272}

$$$$
4owm_ligand
     RDKit          3D

 16 16  0  0  0  0  0  0  0  0999 V2000
   -9.1900   19.2440   13.2690 N   0  0  0  0  0  0  0  0  0  0  0  0
   -9.3900   19.7600   11.9670 C   0  0  0  0  0  0  0  0  0  0  0  0
   -9.8620   18.9090   10.9520 C   0  0  0  0  0  0  0  0  0  0  0  0
  -10.2560   17.6610   11.2590 F   0  0  0  0  0  0  0  0  0  0  0  0
   -9.9440   19.3190    9.6240 C   0  0  0  0  0  0  0  0  0  0  0  0
   -9.5250   20.5970    9.2760 C   0  0  0  0  0  0  0  0  0  0  0  0
   -9.0320   21.4530   10.2640 C   0  0  0  0  0  0  0  0  0  0  0  0
   -8.9490   21.0540   11.6180 C   0  0  0  0  0  0  0  0  0  0  0  0
   -8.4500   22.0490   12.6500 C   0  0  0  0  0  0  0  0  0  0  0  0
   -9.1730   23.0720   12.8720 O   0  0  0  0  0  0  0  0  0  0  0  0
   -7.3530   21.7750   13.2420 O   0  0  0  0  0  0  0  0  0  0  0  0
   -8.1790   19.3360   13.4980 H   0  0  0  0  0  0  0  0  0  0  0  0
   -9.7870   19.6860   13.9550 H   0  0  0  0  0  0  0  0  0  0  0  0
  -10.3374   18.6364    8.8564 H   0  0  0  0  0  0  0  0  0  0  0  0
   -9.5810   20.9326    8.2299 H   0  0  0  0  0  0  0  0  0  0  0  0
   -8.7000   22.4629    9.9814 H   0  0  0  0  0  0  0  0  0  0  0  0
  1  2  1  0
  2  3  2  0
  3  4  1  0
  3  5  1  0
  5  6  2  0
  6  7  1  0
  7  8  2  0
  8  9  1  0
  9 10  2  0
  9 11  1  0
  8  2  1  0
  1 12  1  0
  1 13  1  0
  5 14  1  0
  6 15  1  0
  7 16  1  0
M  CHG  1  11  -1
M  END
>  <meeko>  (9) 
{"is_sidechain": [false], "free_energy": -5.176, "intermolecular_energy": -5.62, "internal_energy": -0.268}

$$$$
