
     RDKit          3D

 25 31  0  0  0  0  0  0  0  0999 V2000
   19.4220    6.6310   21.1530 O   0  0  0  0  0  0  0  0  0  0  0  0
   19.8180    6.8740   20.0170 C   0  0  0  0  0  0  0  0  0  0  0  0
   20.0710    8.3230   19.6180 C   0  0  0  0  0  0  0  0  0  0  0  0
   21.0100    8.5510   18.3790 C   0  0  2  0  0  0  0  0  0  0  0  0
   20.1720    9.2150   17.4490 O   0  0  0  0  0  0  0  0  0  0  0  0
   20.7840    9.7780   16.2400 C   0  0  0  0  0  0  0  0  0  0  0  0
   20.8340    8.7080   15.1420 C   0  0  0  0  0  0  0  0  0  0  0  0
   21.6310    7.5940   15.2400 C   0  0  0  0  0  0  0  0  0  0  0  0
   21.5650    6.5370   14.1250 C   0  0  0  0  0  0  0  0  0  0  0  0
   21.0750    5.2340   14.6480 N   0  0  0  0  0  0  0  0  0  0  0  0
   19.5970    5.2760   14.8710 C   0  0  0  0  0  0  0  0  0  0  0  0
   19.3110    4.5580   16.1390 C   0  0  0  0  0  0  0  0  0  0  0  0
   20.5490    4.8750   17.0000 C   0  0  2  0  0  0  0  0  0  0  0  0
   20.6850    3.9070   18.1550 C   0  0  0  0  0  0  0  0  0  0  0  0
   21.1050    2.5870   18.1610 C   0  0  0  0  0  0  0  0  0  0  0  0
   21.1400    1.8790   19.3730 C   0  0  0  0  0  0  0  0  0  0  0  0
   20.7400    2.4880   20.5600 C   0  0  0  0  0  0  0  0  0  0  0  0
   20.3140    3.8290   20.5360 C   0  0  0  0  0  0  0  0  0  0  0  0
   20.3080    4.5330   19.3380 C   0  0  0  0  0  0  0  0  0  0  0  0
   20.0130    5.8900   19.1070 N   0  0  0  0  0  0  0  0  0  0  0  0
   20.3380    6.2330   17.7060 C   0  0  1  0  0  0  0  0  0  0  0  0
   21.5610    7.1850   17.8290 C   0  0  1  0  0  0  0  0  0  0  0  0
   22.3910    7.1550   16.4990 C   0  0  1  0  0  0  0  0  0  0  0  0
   22.8830    5.6990   16.3160 C   0  0  0  0  0  0  0  0  0  0  0  0
   21.7010    4.8160   15.9700 C   0  0  2  0  0  0  0  0  0  0  0  0
  2  1  2  0
  3  2  1  0
  4  3  1  1
  5  4  1  0
  6  5  1  0
  7  6  1  0
  8  7  2  0
  9  8  1  0
 10  9  1  0
 11 10  1  0
 12 11  1  0
 13 12  1  6
 14 13  1  0
 15 14  2  0
 16 15  1  0
 17 16  2  0
 18 17  1  0
 19 18  2  0
 19 14  1  0
 20 19  1  0
 20  2  1  0
 21 13  1  0
 21 20  1  1
 22 21  1  0
 22  4  1  6
 23  8  1  0
 23 22  1  0
 23 24  1  6
 25 10  1  0
 25 13  1  0
 25 24  1  1
M  CHG  1  10   1
M  END
$$$$
