1o0h_ligand
     RDKit          3D

 39 41  0  0  0  0  0  0  0  0999 V2000
    1.9340    7.6040   -7.1640 N   0  0  0  0  0  0  0  0  0  0  0  0
    1.6830    6.7560   -6.0760 C   0  0  0  0  0  0  0  0  0  0  0  0
    2.6220    6.6920   -5.1030 N   0  0  0  0  0  0  0  0  0  0  0  0
    2.3710    5.9160   -4.0120 C   0  0  0  0  0  0  0  0  0  0  0  0
    1.2720    5.1800   -3.7930 N   0  0  0  0  0  0  0  0  0  0  0  0
    0.3720    5.2940   -4.7630 C   0  0  0  0  0  0  0  0  0  0  0  0
    0.4850    6.0380   -5.9200 C   0  0  0  0  0  0  0  0  0  0  0  0
   -0.6650    5.9270   -6.6890 N   0  0  0  0  0  0  0  0  0  0  0  0
   -1.4440    5.1230   -5.9880 C   0  0  0  0  0  0  0  0  0  0  0  0
   -0.8610    4.7190   -4.8110 N   0  0  0  0  0  0  0  0  0  0  0  0
   -1.4770    3.8950   -3.7950 C   0  0  2  0  0  0  0  0  0  0  0  0
   -2.5400    3.1130   -4.3960 O   0  0  0  0  0  0  0  0  0  0  0  0
   -3.6430    3.0960   -3.4400 C   0  0  2  0  0  0  0  0  0  0  0  0
   -4.8350    3.9400   -3.9040 C   0  0  0  0  0  0  0  0  0  0  0  0
   -5.9890    3.4510   -3.2400 O   0  0  0  0  0  0  0  0  0  0  0  0
   -7.3000    4.4170   -3.2030 P   0  0  1  0  0  5  0  0  0  0  0  0
   -6.9540    5.5690   -4.1460 O   0  0  0  0  0  0  0  0  0  0  0  0
   -8.4990    3.5810   -3.6320 O   0  0  0  0  0  0  0  0  0  0  0  0
   -7.3560    4.9450   -1.6990 O   0  0  0  0  0  0  0  0  0  0  0  0
   -7.7130    4.3690   -0.2360 P   0  0  0  0  0  0  0  0  0  0  0  0
   -8.1260    5.6050    0.5670 O   0  0  0  0  0  0  0  0  0  0  0  0
   -6.4390    3.7280    0.3060 O   0  0  0  0  0  0  0  0  0  0  0  0
   -8.8630    3.3810   -0.4040 O   0  0  0  0  0  0  0  0  0  0  0  0
   -3.0460    3.5640   -2.1100 C   0  0  1  0  0  0  0  0  0  0  0  0
   -2.3420    2.4540   -1.4890 O   0  0  0  0  0  0  0  0  0  0  0  0
   -2.0550    4.6180   -2.5800 C   0  0  1  0  0  0  0  0  0  0  0  0
   -1.0770    4.9460   -1.5840 O   0  0  0  0  0  0  0  0  0  0  0  0
    1.0660    8.0200   -7.4760 H   0  0  0  0  0  0  0  0  0  0  0  0
    2.6720    8.2370   -6.8760 H   0  0  0  0  0  0  0  0  0  0  0  0
    3.1473    5.8907   -3.2331 H   0  0  0  0  0  0  0  0  0  0  0  0
   -2.4484    4.8113   -6.3107 H   0  0  0  0  0  0  0  0  0  0  0  0
   -0.6480    3.2855   -3.4060 H   0  0  0  0  0  0  0  0  0  0  0  0
   -4.0701    2.0876   -3.3366 H   0  0  0  0  0  0  0  0  0  0  0  0
   -4.6712    4.9961   -3.6435 H   0  0  0  0  0  0  0  0  0  0  0  0
   -4.9574    3.8701   -4.9949 H   0  0  0  0  0  0  0  0  0  0  0  0
   -3.7766    3.9326   -1.3749 H   0  0  0  0  0  0  0  0  0  0  0  0
   -2.7800    1.6710   -1.8720 H   0  0  0  0  0  0  0  0  0  0  0  0
   -2.4860    5.6060   -2.7993 H   0  0  0  0  0  0  0  0  0  0  0  0
   -0.5920    5.6870   -1.9990 H   0  0  0  0  0  0  0  0  0  0  0  0
  1  2  1  0
  2  3  2  0
  3  4  1  0
  4  5  2  0
  5  6  1  0
  6  7  2  0
  7  8  1  0
  8  9  2  0
  9 10  1  0
 10 11  1  0
 11 12  1  0
 12 13  1  0
 13 14  1  0
 14 15  1  0
 15 16  1  0
 16 17  2  0
 16 18  1  6
 16 19  1  0
 19 20  1  0
 20 21  2  0
 20 22  1  0
 20 23  1  0
 13 24  1  0
 24 25  1  0
 24 26  1  0
 26 27  1  0
  7  2  1  0
 26 11  1  0
 10  6  1  0
  1 28  1  0
  1 29  1  0
  4 30  1  0
  9 31  1  0
 11 32  1  1
 13 33  1  1
 14 34  1  0
 14 35  1  0
 24 36  1  1
 25 37  1  0
 26 38  1  6
 27 39  1  0
M  CHG  3  18  -1  22  -1  23  -1
M  END
>  <meeko>  (1) 
{"is_sidechain": [false], "free_energy": -6.165, "intermolecular_energy": -8.869, "internal_energy": -0.952}

$$$$
1o0h_ligand
     RDKit          3D

 39 41  0  0  0  0  0  0  0  0999 V2000
   -9.4900    0.9960   -1.7510 N   0  0  0  0  0  0  0  0  0  0  0  0
   -8.5750    2.0550   -1.6740 C   0  0  0  0  0  0  0  0  0  0  0  0
   -8.8720    3.0790   -0.8400 N   0  0  0  0  0  0  0  0  0  0  0  0
   -7.9690    4.0910   -0.7100 C   0  0  0  0  0  0  0  0  0  0  0  0
   -6.7920    4.1950   -1.3430 N   0  0  0  0  0  0  0  0  0  0  0  0
   -6.5360    3.1570   -2.1310 C   0  0  0  0  0  0  0  0  0  0  0  0
   -7.3490    2.0650   -2.3600 C   0  0  0  0  0  0  0  0  0  0  0  0
   -6.7390    1.1730   -3.2310 N   0  0  0  0  0  0  0  0  0  0  0  0
   -5.5790    1.7400   -3.5110 C   0  0  0  0  0  0  0  0  0  0  0  0
   -5.4090    2.9390   -2.8630 N   0  0  0  0  0  0  0  0  0  0  0  0
   -4.2260    3.7700   -2.9060 C   0  0  2  0  0  0  0  0  0  0  0  0
   -4.2670    4.5960   -4.0960 O   0  0  0  0  0  0  0  0  0  0  0  0
   -2.9080    4.6380   -4.6280 C   0  0  2  0  0  0  0  0  0  0  0  0
   -2.7630    3.8420   -5.9300 C   0  0  0  0  0  0  0  0  0  0  0  0
   -1.4870    4.1400   -6.4730 O   0  0  0  0  0  0  0  0  0  0  0  0
   -1.3390    5.5180   -7.3300 P   0  0  1  0  0  5  0  0  0  0  0  0
   -0.9470    5.0580   -8.7330 O   0  0  0  0  0  0  0  0  0  0  0  0
   -2.6710    6.2530   -7.2490 O   0  0  0  0  0  0  0  0  0  0  0  0
   -0.1150    6.2760   -6.6450 O   0  0  0  0  0  0  0  0  0  0  0  0
    0.2670    6.8820   -5.2000 P   0  0  0  0  0  0  0  0  0  0  0  0
   -1.0550    7.4310   -4.6590 O   0  0  0  0  0  0  0  0  0  0  0  0
    1.2920    7.9850   -5.4450 O   0  0  0  0  0  0  0  0  0  0  0  0
    0.8040    5.7340   -4.3520 O   0  0  0  0  0  0  0  0  0  0  0  0
   -2.0060    4.1290   -3.5010 C   0  0  1  0  0  0  0  0  0  0  0  0
   -1.7860    5.2050   -2.5480 O   0  0  0  0  0  0  0  0  0  0  0  0
   -2.8790    3.0490   -2.8810 C   0  0  1  0  0  0  0  0  0  0  0  0
   -2.4500    2.6730   -1.5660 O   0  0  0  0  0  0  0  0  0  0  0  0
  -10.4200    1.3620   -1.9070 H   0  0  0  0  0  0  0  0  0  0  0  0
   -9.1280    0.3480   -2.4420 H   0  0  0  0  0  0  0  0  0  0  0  0
   -8.2320    4.9035   -0.0167 H   0  0  0  0  0  0  0  0  0  0  0  0
   -4.8319    1.3004   -4.1882 H   0  0  0  0  0  0  0  0  0  0  0  0
   -4.2687    4.3456   -1.9696 H   0  0  0  0  0  0  0  0  0  0  0  0
   -2.6216    5.6593   -4.9195 H   0  0  0  0  0  0  0  0  0  0  0  0
   -2.8401    2.7646   -5.7219 H   0  0  0  0  0  0  0  0  0  0  0  0
   -3.5585    4.1127   -6.6398 H   0  0  0  0  0  0  0  0  0  0  0  0
   -1.0152    3.7742   -3.8209 H   0  0  0  0  0  0  0  0  0  0  0  0
   -0.8310    5.3850   -2.6300 H   0  0  0  0  0  0  0  0  0  0  0  0
   -2.8703    2.0797   -3.4010 H   0  0  0  0  0  0  0  0  0  0  0  0
   -3.2870    2.6770   -1.0600 H   0  0  0  0  0  0  0  0  0  0  0  0
  1  2  1  0
  2  3  2  0
  3  4  1  0
  4  5  2  0
  5  6  1  0
  6  7  2  0
  7  8  1  0
  8  9  2  0
  9 10  1  0
 10 11  1  0
 11 12  1  0
 12 13  1  0
 13 14  1  0
 14 15  1  0
 15 16  1  0
 16 17  2  0
 16 18  1  6
 16 19  1  0
 19 20  1  0
 20 21  2  0
 20 22  1  0
 20 23  1  0
 13 24  1  0
 24 25  1  0
 24 26  1  0
 26 27  1  0
  7  2  1  0
 26 11  1  0
 10  6  1  0
  1 28  1  0
  1 29  1  0
  4 30  1  0
  9 31  1  0
 11 32  1  1
 13 33  1  6
 14 34  1  0
 14 35  1  0
 24 36  1  6
 25 37  1  0
 26 38  1  6
 27 39  1  0
M  CHG  3  18  -1  22  -1  23  -1
M  END
>  <meeko>  (2) 
{"is_sidechain": [false], "free_energy": -6.114, "intermolecular_energy": -8.621, "internal_energy": -1.125}

$$$$
1o0h_ligand
     RDKit          3D

 39 41  0  0  0  0  0  0  0  0999 V2000
   -8.6660    0.7780   -3.4520 N   0  0  0  0  0  0  0  0  0  0  0  0
   -7.8020    1.7510   -2.9310 C   0  0  0  0  0  0  0  0  0  0  0  0
   -8.1780    2.3770   -1.7910 N   0  0  0  0  0  0  0  0  0  0  0  0
   -7.3250    3.2860   -1.2400 C   0  0  0  0  0  0  0  0  0  0  0  0
   -6.1290    3.6490   -1.7210 N   0  0  0  0  0  0  0  0  0  0  0  0
   -5.7940    2.9930   -2.8260 C   0  0  0  0  0  0  0  0  0  0  0  0
   -6.5490    2.0500   -3.4940 C   0  0  0  0  0  0  0  0  0  0  0  0
   -5.8650    1.5680   -4.6010 N   0  0  0  0  0  0  0  0  0  0  0  0
   -4.7190    2.2250   -4.5820 C   0  0  0  0  0  0  0  0  0  0  0  0
   -4.6300    3.0950   -3.5220 N   0  0  0  0  0  0  0  0  0  0  0  0
   -3.4820    3.9080   -3.1840 C   0  0  2  0  0  0  0  0  0  0  0  0
   -3.2060    4.8210   -4.2760 O   0  0  0  0  0  0  0  0  0  0  0  0
   -1.7550    4.8800   -4.4190 C   0  0  2  0  0  0  0  0  0  0  0  0
   -1.2620    4.1800   -5.6910 C   0  0  0  0  0  0  0  0  0  0  0  0
   -2.4050    3.8120   -6.4470 O   0  0  0  0  0  0  0  0  0  0  0  0
   -2.4310    4.2350   -8.0200 P   0  0  1  0  0  5  0  0  0  0  0  0
   -1.3630    5.3200   -8.1440 O   0  0  0  0  0  0  0  0  0  0  0  0
   -2.1610    2.9780   -8.8370 O   0  0  0  0  0  0  0  0  0  0  0  0
   -3.8780    4.8720   -8.2300 O   0  0  0  0  0  0  0  0  0  0  0  0
   -4.8520    5.9160   -7.4800 P   0  0  0  0  0  0  0  0  0  0  0  0
   -3.8980    6.8970   -6.7940 O   0  0  0  0  0  0  0  0  0  0  0  0
   -5.6700    5.1090   -6.4760 O   0  0  0  0  0  0  0  0  0  0  0  0
   -5.7030    6.5930   -8.5490 O   0  0  0  0  0  0  0  0  0  0  0  0
   -1.1860    4.2770   -3.1330 C   0  0  1  0  0  0  0  0  0  0  0  0
   -1.2360    5.2760   -2.0780 O   0  0  0  0  0  0  0  0  0  0  0  0
   -2.1880    3.1670   -2.8530 C   0  0  1  0  0  0  0  0  0  0  0  0
   -2.1260    2.6880   -1.5020 O   0  0  0  0  0  0  0  0  0  0  0  0
   -8.3600    0.5150   -4.3790 H   0  0  0  0  0  0  0  0  0  0  0  0
   -8.7240    0.0400   -2.7590 H   0  0  0  0  0  0  0  0  0  0  0  0
   -7.6514    3.7696   -0.3075 H   0  0  0  0  0  0  0  0  0  0  0  0
   -3.9247    2.0906   -5.3310 H   0  0  0  0  0  0  0  0  0  0  0  0
   -3.7772    4.4129   -2.2524 H   0  0  0  0  0  0  0  0  0  0  0  0
   -1.4053    5.9152   -4.5455 H   0  0  0  0  0  0  0  0  0  0  0  0
   -0.6300    4.8649   -6.2754 H   0  0  0  0  0  0  0  0  0  0  0  0
   -0.6638    3.2925   -5.4371 H   0  0  0  0  0  0  0  0  0  0  0  0
   -0.1435    3.9327   -3.2008 H   0  0  0  0  0  0  0  0  0  0  0  0
   -2.1910    5.3720   -1.9060 H   0  0  0  0  0  0  0  0  0  0  0  0
   -2.0349    2.2387   -3.4230 H   0  0  0  0  0  0  0  0  0  0  0  0
   -3.0070    2.9280   -1.1520 H   0  0  0  0  0  0  0  0  0  0  0  0
  1  2  1  0
  2  3  2  0
  3  4  1  0
  4  5  2  0
  5  6  1  0
  6  7  2  0
  7  8  1  0
  8  9  2  0
  9 10  1  0
 10 11  1  0
 11 12  1  0
 12 13  1  0
 13 14  1  0
 14 15  1  0
 15 16  1  0
 16 17  2  0
 16 18  1  6
 16 19  1  0
 19 20  1  0
 20 21  2  0
 20 22  1  0
 20 23  1  0
 13 24  1  0
 24 25  1  0
 24 26  1  0
 26 27  1  0
  7  2  1  0
 26 11  1  0
 10  6  1  0
  1 28  1  0
  1 29  1  0
  4 30  1  0
  9 31  1  0
 11 32  1  1
 13 33  1  6
 14 34  1  0
 14 35  1  0
 24 36  1  6
 25 37  1  0
 26 38  1  6
 27 39  1  0
M  CHG  3  18  -1  22  -1  23  -1
M  END
>  <meeko>  (3) 
{"is_sidechain": [false], "free_energy": -6.096, "intermolecular_energy": -8.366, "internal_energy": -1.355}

$$$$
1o0h_ligand
     RDKit          3D

 39 41  0  0  0  0  0  0  0  0999 V2000
    1.8160    7.5540   -7.3090 N   0  0  0  0  0  0  0  0  0  0  0  0
    1.5850    6.7430   -6.1890 C   0  0  0  0  0  0  0  0  0  0  0  0
    2.5100    6.7590   -5.2020 N   0  0  0  0  0  0  0  0  0  0  0  0
    2.2760    6.0190   -4.0820 C   0  0  0  0  0  0  0  0  0  0  0  0
    1.2060    5.2470   -3.8470 N   0  0  0  0  0  0  0  0  0  0  0  0
    0.3160    5.2820   -4.8330 C   0  0  0  0  0  0  0  0  0  0  0  0
    0.4160    5.9810   -6.0190 C   0  0  0  0  0  0  0  0  0  0  0  0
   -0.7160    5.7890   -6.7980 N   0  0  0  0  0  0  0  0  0  0  0  0
   -1.4720    4.9830   -6.0740 C   0  0  0  0  0  0  0  0  0  0  0  0
   -0.8900    4.6540   -4.8730 N   0  0  0  0  0  0  0  0  0  0  0  0
   -1.4870    3.8470   -3.8310 C   0  0  2  0  0  0  0  0  0  0  0  0
   -2.5730    3.0690   -4.3940 O   0  0  0  0  0  0  0  0  0  0  0  0
   -3.6490    3.0740   -3.4090 C   0  0  2  0  0  0  0  0  0  0  0  0
   -4.8450    3.9250   -3.8500 C   0  0  0  0  0  0  0  0  0  0  0  0
   -5.6590    4.1430   -2.7080 O   0  0  0  0  0  0  0  0  0  0  0  0
   -7.2650    4.2770   -2.9460 P   0  0  1  0  0  5  0  0  0  0  0  0
   -7.8800    4.0220   -1.5700 O   0  0  0  0  0  0  0  0  0  0  0  0
   -7.5300    5.6650   -3.5150 O   0  0  0  0  0  0  0  0  0  0  0  0
   -7.6170    3.0720   -3.9300 O   0  0  0  0  0  0  0  0  0  0  0  0
   -7.8380    1.4770   -3.8450 P   0  0  0  0  0  0  0  0  0  0  0  0
   -6.6360    0.9700   -3.0440 O   0  0  0  0  0  0  0  0  0  0  0  0
   -7.8350    0.9570   -5.2790 O   0  0  0  0  0  0  0  0  0  0  0  0
   -9.1560    1.2380   -3.1170 O   0  0  0  0  0  0  0  0  0  0  0  0
   -3.0120    3.5510   -2.1010 C   0  0  1  0  0  0  0  0  0  0  0  0
   -2.3020    2.4410   -1.4870 O   0  0  0  0  0  0  0  0  0  0  0  0
   -2.0240    4.5900   -2.6100 C   0  0  1  0  0  0  0  0  0  0  0  0
   -1.0160    4.9190   -1.6440 O   0  0  0  0  0  0  0  0  0  0  0  0
    2.7500    7.9410   -7.2590 H   0  0  0  0  0  0  0  0  0  0  0  0
    1.5930    6.9940   -8.1250 H   0  0  0  0  0  0  0  0  0  0  0  0
    3.0410    6.0592   -3.2926 H   0  0  0  0  0  0  0  0  0  0  0  0
   -2.4576    4.6160   -6.3964 H   0  0  0  0  0  0  0  0  0  0  0  0
   -0.6544    3.2328   -3.4574 H   0  0  0  0  0  0  0  0  0  0  0  0
   -4.0827    2.0710   -3.2828 H   0  0  0  0  0  0  0  0  0  0  0  0
   -4.4936    4.8876   -4.2498 H   0  0  0  0  0  0  0  0  0  0  0  0
   -5.4147    3.4124   -4.6391 H   0  0  0  0  0  0  0  0  0  0  0  0
   -3.7187    3.9350   -1.3505 H   0  0  0  0  0  0  0  0  0  0  0  0
   -1.9240    1.9680   -2.2510 H   0  0  0  0  0  0  0  0  0  0  0  0
   -2.4505    5.5799   -2.8294 H   0  0  0  0  0  0  0  0  0  0  0  0
   -1.2200    4.3080   -0.9090 H   0  0  0  0  0  0  0  0  0  0  0  0
  1  2  1  0
  2  3  2  0
  3  4  1  0
  4  5  2  0
  5  6  1  0
  6  7  2  0
  7  8  1  0
  8  9  2  0
  9 10  1  0
 10 11  1  0
 11 12  1  0
 12 13  1  0
 13 14  1  0
 14 15  1  0
 15 16  1  0
 16 17  2  0
 16 18  1  6
 16 19  1  0
 19 20  1  0
 20 21  2  0
 20 22  1  0
 20 23  1  0
 13 24  1  0
 24 25  1  0
 24 26  1  0
 26 27  1  0
  7  2  1  0
 26 11  1  0
 10  6  1  0
  1 28  1  0
  1 29  1  0
  4 30  1  0
  9 31  1  0
 11 32  1  1
 13 33  1  1
 14 34  1  0
 14 35  1  0
 24 36  1  1
 25 37  1  0
 26 38  1  6
 27 39  1  0
M  CHG  3  18  -1  22  -1  23  -1
M  END
>  <meeko>  (4) 
{"is_sidechain": [false], "free_energy": -6.07, "intermolecular_energy": -8.547, "internal_energy": -1.135}

$$$$
1o0h_ligand
     RDKit          3D

 39 41  0  0  0  0  0  0  0  0999 V2000
   -6.1360    3.7210    0.2700 N   0  0  0  0  0  0  0  0  0  0  0  0
   -6.2840    3.7880   -1.1230 C   0  0  0  0  0  0  0  0  0  0  0  0
   -7.5360    3.9500   -1.6110 N   0  0  0  0  0  0  0  0  0  0  0  0
   -7.6940    4.0720   -2.9590 C   0  0  0  0  0  0  0  0  0  0  0  0
   -6.7230    4.0370   -3.8810 N   0  0  0  0  0  0  0  0  0  0  0  0
   -5.5120    3.9000   -3.3530 C   0  0  0  0  0  0  0  0  0  0  0  0
   -5.1990    3.7670   -2.0150 C   0  0  0  0  0  0  0  0  0  0  0  0
   -3.8260    3.6630   -1.8400 N   0  0  0  0  0  0  0  0  0  0  0  0
   -3.3400    3.7330   -3.0670 C   0  0  0  0  0  0  0  0  0  0  0  0
   -4.3230    3.8830   -4.0140 N   0  0  0  0  0  0  0  0  0  0  0  0
   -4.1150    4.0570   -5.4360 C   0  0  2  0  0  0  0  0  0  0  0  0
   -2.7930    3.5790   -5.7860 O   0  0  0  0  0  0  0  0  0  0  0  0
   -2.2510    4.5160   -6.7640 C   0  0  2  0  0  0  0  0  0  0  0  0
   -1.1180    5.3750   -6.1890 C   0  0  0  0  0  0  0  0  0  0  0  0
   -0.5400    4.6530   -5.1130 O   0  0  0  0  0  0  0  0  0  0  0  0
   -0.0490    5.5080   -3.8150 P   0  0  1  0  0  5  0  0  0  0  0  0
   -1.1530    6.5420   -3.5970 O   0  0  0  0  0  0  0  0  0  0  0  0
    0.1400    4.5270   -2.6650 O   0  0  0  0  0  0  0  0  0  0  0  0
    1.2850    6.2320   -4.3040 O   0  0  0  0  0  0  0  0  0  0  0  0
    2.8690    5.9340   -4.3430 P   0  0  0  0  0  0  0  0  0  0  0  0
    2.9970    4.5000   -3.8230 O   0  0  0  0  0  0  0  0  0  0  0  0
    3.5280    6.9460   -3.4110 O   0  0  0  0  0  0  0  0  0  0  0  0
    3.3210    6.0630   -5.7930 O   0  0  0  0  0  0  0  0  0  0  0  0
   -3.4450    5.3370   -7.2580 C   0  0  1  0  0  0  0  0  0  0  0  0
   -4.1780    4.5590   -8.2440 O   0  0  0  0  0  0  0  0  0  0  0  0
   -4.2630    5.4760   -5.9830 C   0  0  1  0  0  0  0  0  0  0  0  0
   -5.6210    5.8610   -6.2320 O   0  0  0  0  0  0  0  0  0  0  0  0
   -5.5070    4.4520    0.5790 H   0  0  0  0  0  0  0  0  0  0  0  0
   -7.0710    3.7210    0.6620 H   0  0  0  0  0  0  0  0  0  0  0  0
   -8.7211    4.2133   -3.3265 H   0  0  0  0  0  0  0  0  0  0  0  0
   -2.2671    3.6773   -3.3034 H   0  0  0  0  0  0  0  0  0  0  0  0
   -4.9278    3.4782   -5.8989 H   0  0  0  0  0  0  0  0  0  0  0  0
   -1.7721    3.9891   -7.6025 H   0  0  0  0  0  0  0  0  0  0  0  0
   -0.3605    5.5652   -6.9636 H   0  0  0  0  0  0  0  0  0  0  0  0
   -1.5045    6.3446   -5.8419 H   0  0  0  0  0  0  0  0  0  0  0  0
   -3.1886    6.2965   -7.7308 H   0  0  0  0  0  0  0  0  0  0  0  0
   -5.0460    4.4240   -7.8200 H   0  0  0  0  0  0  0  0  0  0  0  0
   -3.9334    6.2677   -5.2941 H   0  0  0  0  0  0  0  0  0  0  0  0
   -5.5390    6.4220   -7.0280 H   0  0  0  0  0  0  0  0  0  0  0  0
  1  2  1  0
  2  3  2  0
  3  4  1  0
  4  5  2  0
  5  6  1  0
  6  7  2  0
  7  8  1  0
  8  9  2  0
  9 10  1  0
 10 11  1  0
 11 12  1  0
 12 13  1  0
 13 14  1  0
 14 15  1  0
 15 16  1  0
 16 17  2  0
 16 18  1  1
 16 19  1  0
 19 20  1  0
 20 21  2  0
 20 22  1  0
 20 23  1  0
 13 24  1  0
 24 25  1  0
 24 26  1  0
 26 27  1  0
  7  2  1  0
 26 11  1  0
 10  6  1  0
  1 28  1  0
  1 29  1  0
  4 30  1  0
  9 31  1  0
 11 32  1  6
 13 33  1  6
 14 34  1  0
 14 35  1  0
 24 36  1  6
 25 37  1  0
 26 38  1  1
 27 39  1  0
M  CHG  3  18  -1  22  -1  23  -1
M  END
>  <meeko>  (5) 
{"is_sidechain": [false], "free_energy": -5.998, "intermolecular_energy": -8.387, "internal_energy": -1.193}

$$$$
1o0h_ligand
     RDKit          3D

 39 41  0  0  0  0  0  0  0  0999 V2000
   -9.3030    0.9430   -2.3320 N   0  0  0  0  0  0  0  0  0  0  0  0
   -8.3800    1.9680   -2.0800 C   0  0  0  0  0  0  0  0  0  0  0  0
   -8.6670    2.8380   -1.0840 N   0  0  0  0  0  0  0  0  0  0  0  0
   -7.7570    3.8080   -0.7880 C   0  0  0  0  0  0  0  0  0  0  0  0
   -6.5810    4.0090   -1.3980 N   0  0  0  0  0  0  0  0  0  0  0  0
   -6.3340    3.1180   -2.3520 C   0  0  0  0  0  0  0  0  0  0  0  0
   -7.1550    2.0870   -2.7590 C   0  0  0  0  0  0  0  0  0  0  0  0
   -6.5540    1.3510   -3.7710 N   0  0  0  0  0  0  0  0  0  0  0  0
   -5.3900    1.9490   -3.9550 C   0  0  0  0  0  0  0  0  0  0  0  0
   -5.2110    3.0200   -3.1140 N   0  0  0  0  0  0  0  0  0  0  0  0
   -4.0210    3.8380   -3.0200 C   0  0  2  0  0  0  0  0  0  0  0  0
   -3.9320    4.6850   -4.1930 O   0  0  0  0  0  0  0  0  0  0  0  0
   -2.5250    4.7210   -4.5810 C   0  0  2  0  0  0  0  0  0  0  0  0
   -2.2540    3.9450   -5.8750 C   0  0  0  0  0  0  0  0  0  0  0  0
   -1.2670    4.6600   -6.6020 O   0  0  0  0  0  0  0  0  0  0  0  0
   -1.7840    5.7060   -7.7390 P   0  0  1  0  0  5  0  0  0  0  0  0
   -3.3070    5.5980   -7.6970 O   0  0  0  0  0  0  0  0  0  0  0  0
   -1.2320    7.0800   -7.3820 O   0  0  0  0  0  0  0  0  0  0  0  0
   -1.2340    5.0990   -9.1080 O   0  0  0  0  0  0  0  0  0  0  0  0
   -1.6780    3.9960  -10.1970 P   0  0  0  0  0  0  0  0  0  0  0  0
   -2.8620    4.6370  -10.9250 O   0  0  0  0  0  0  0  0  0  0  0  0
   -2.0860    2.7500   -9.4170 O   0  0  0  0  0  0  0  0  0  0  0  0
   -0.4890    3.7670  -11.1240 O   0  0  0  0  0  0  0  0  0  0  0  0
   -1.7490    4.1840   -3.3760 C   0  0  1  0  0  0  0  0  0  0  0  0
   -1.6190    5.2410   -2.3870 O   0  0  0  0  0  0  0  0  0  0  0  0
   -2.6920    3.1020   -2.8690 C   0  0  1  0  0  0  0  0  0  0  0  0
   -2.4040    2.7000   -1.5230 O   0  0  0  0  0  0  0  0  0  0  0  0
  -10.0570    0.9940   -1.6590 H   0  0  0  0  0  0  0  0  0  0  0  0
   -9.5540    1.0130   -3.3120 H   0  0  0  0  0  0  0  0  0  0  0  0
   -8.0131    4.4939    0.0329 H   0  0  0  0  0  0  0  0  0  0  0  0
   -4.6472    1.6251   -4.6989 H   0  0  0  0  0  0  0  0  0  0  0  0
   -4.1535    4.3980   -2.0825 H   0  0  0  0  0  0  0  0  0  0  0  0
   -2.2003    5.7437   -4.8234 H   0  0  0  0  0  0  0  0  0  0  0  0
   -1.8879    2.9352   -5.6378 H   0  0  0  0  0  0  0  0  0  0  0  0
   -3.1755    3.8454   -6.4674 H   0  0  0  0  0  0  0  0  0  0  0  0
   -0.7334    3.8243   -3.5976 H   0  0  0  0  0  0  0  0  0  0  0  0
   -0.8660    4.9460   -1.8420 H   0  0  0  0  0  0  0  0  0  0  0  0
   -2.6392    2.1414   -3.4023 H   0  0  0  0  0  0  0  0  0  0  0  0
   -1.6520    3.2780   -1.2850 H   0  0  0  0  0  0  0  0  0  0  0  0
  1  2  1  0
  2  3  2  0
  3  4  1  0
  4  5  2  0
  5  6  1  0
  6  7  2  0
  7  8  1  0
  8  9  2  0
  9 10  1  0
 10 11  1  0
 11 12  1  0
 12 13  1  0
 13 14  1  0
 14 15  1  0
 15 16  1  0
 16 17  2  0
 16 18  1  1
 16 19  1  0
 19 20  1  0
 20 21  2  0
 20 22  1  0
 20 23  1  0
 13 24  1  0
 24 25  1  0
 24 26  1  0
 26 27  1  0
  7  2  1  0
 26 11  1  0
 10  6  1  0
  1 28  1  0
  1 29  1  0
  4 30  1  0
  9 31  1  0
 11 32  1  1
 13 33  1  6
 14 34  1  0
 14 35  1  0
 24 36  1  6
 25 37  1  0
 26 38  1  6
 27 39  1  0
M  CHG  3  18  -1  22  -1  23  -1
M  END
>  <meeko>  (6) 
{"is_sidechain": [false], "free_energy": -5.872, "intermolecular_energy": -8.538, "internal_energy": -0.86}

$$$$
1o0h_ligand
     RDKit          3D

 39 41  0  0  0  0  0  0  0  0999 V2000
   -7.6090    2.9150   -0.8830 N   0  0  0  0  0  0  0  0  0  0  0  0
   -6.9260    2.5830   -2.0610 C   0  0  0  0  0  0  0  0  0  0  0  0
   -7.5890    1.8470   -2.9830 N   0  0  0  0  0  0  0  0  0  0  0  0
   -6.9600    1.5620   -4.1580 C   0  0  0  0  0  0  0  0  0  0  0  0
   -5.7200    1.9290   -4.5070 N   0  0  0  0  0  0  0  0  0  0  0  0
   -5.1190    2.6680   -3.5810 C   0  0  0  0  0  0  0  0  0  0  0  0
   -5.6280    3.0360   -2.3520 C   0  0  0  0  0  0  0  0  0  0  0  0
   -4.7180    3.8240   -1.6610 N   0  0  0  0  0  0  0  0  0  0  0  0
   -3.6840    3.9150   -2.4790 C   0  0  0  0  0  0  0  0  0  0  0  0
   -3.8850    3.2350   -3.6560 N   0  0  0  0  0  0  0  0  0  0  0  0
   -2.9750    3.1950   -4.7800 C   0  0  2  0  0  0  0  0  0  0  0  0
   -1.6510    3.5860   -4.3360 O   0  0  0  0  0  0  0  0  0  0  0  0
   -1.0840    4.4230   -5.3880 C   0  0  2  0  0  0  0  0  0  0  0  0
   -0.9870    5.8970   -4.9770 C   0  0  0  0  0  0  0  0  0  0  0  0
    0.1630    6.0380   -4.1600 O   0  0  0  0  0  0  0  0  0  0  0  0
    1.5090    6.6370   -4.8560 P   0  0  1  0  0  5  0  0  0  0  0  0
    1.1660    6.7250   -6.3420 O   0  0  0  0  0  0  0  0  0  0  0  0
    1.8130    7.9740   -4.1920 O   0  0  0  0  0  0  0  0  0  0  0  0
    2.6090    5.5070   -4.6190 O   0  0  0  0  0  0  0  0  0  0  0  0
    4.2160    5.3830   -4.5770 P   0  0  0  0  0  0  0  0  0  0  0  0
    4.6720    6.6320   -3.8180 O   0  0  0  0  0  0  0  0  0  0  0  0
    4.6930    5.3830   -6.0260 O   0  0  0  0  0  0  0  0  0  0  0  0
    4.5550    4.1000   -3.8270 O   0  0  0  0  0  0  0  0  0  0  0  0
   -1.9610    4.1910   -6.6210 C   0  0  1  0  0  0  0  0  0  0  0  0
   -1.5720    2.9400   -7.2510 O   0  0  0  0  0  0  0  0  0  0  0  0
   -3.3380    4.0550   -5.9890 C   0  0  1  0  0  0  0  0  0  0  0  0
   -4.2950    3.4450   -6.8650 O   0  0  0  0  0  0  0  0  0  0  0  0
   -6.9920    3.4290   -0.2670 H   0  0  0  0  0  0  0  0  0  0  0  0
   -8.4680    3.3750   -1.1640 H   0  0  0  0  0  0  0  0  0  0  0  0
   -7.5271    0.9718   -4.8929 H   0  0  0  0  0  0  0  0  0  0  0  0
   -2.7654    4.4726   -2.2440 H   0  0  0  0  0  0  0  0  0  0  0  0
   -3.0310    2.1546   -5.1326 H   0  0  0  0  0  0  0  0  0  0  0  0
   -0.0403    4.1487   -5.6013 H   0  0  0  0  0  0  0  0  0  0  0  0
   -0.8921    6.5305   -5.8712 H   0  0  0  0  0  0  0  0  0  0  0  0
   -1.8901    6.2066   -4.4306 H   0  0  0  0  0  0  0  0  0  0  0  0
   -1.8976    4.9728   -7.3922 H   0  0  0  0  0  0  0  0  0  0  0  0
   -0.8000    3.1930   -7.7910 H   0  0  0  0  0  0  0  0  0  0  0  0
   -3.8389    5.0025   -5.7414 H   0  0  0  0  0  0  0  0  0  0  0  0
   -4.6140    4.2040   -7.3920 H   0  0  0  0  0  0  0  0  0  0  0  0
  1  2  1  0
  2  3  2  0
  3  4  1  0
  4  5  2  0
  5  6  1  0
  6  7  2  0
  7  8  1  0
  8  9  2  0
  9 10  1  0
 10 11  1  0
 11 12  1  0
 12 13  1  0
 13 14  1  0
 14 15  1  0
 15 16  1  0
 16 17  2  0
 16 18  1  1
 16 19  1  0
 19 20  1  0
 20 21  2  0
 20 22  1  0
 20 23  1  0
 13 24  1  0
 24 25  1  0
 24 26  1  0
 26 27  1  0
  7  2  1  0
 26 11  1  0
 10  6  1  0
  1 28  1  0
  1 29  1  0
  4 30  1  0
  9 31  1  0
 11 32  1  6
 13 33  1  6
 14 34  1  0
 14 35  1  0
 24 36  1  6
 25 37  1  0
 26 38  1  1
 27 39  1  0
M  CHG  3  18  -1  22  -1  23  -1
M  END
>  <meeko>  (7) 
{"is_sidechain": [false], "free_energy": -5.847, "intermolecular_energy": -8.507, "internal_energy": -0.856}

$$$$
1o0h_ligand
     RDKit          3D

 39 41  0  0  0  0  0  0  0  0999 V2000
   -6.1250    3.7360    0.2880 N   0  0  0  0  0  0  0  0  0  0  0  0
   -6.2890    3.8800   -1.0970 C   0  0  0  0  0  0  0  0  0  0  0  0
   -7.5150    4.2330   -1.5480 N   0  0  0  0  0  0  0  0  0  0  0  0
   -7.6800    4.4300   -2.8860 C   0  0  0  0  0  0  0  0  0  0  0  0
   -6.7410    4.3000   -3.8330 N   0  0  0  0  0  0  0  0  0  0  0  0
   -5.5510    3.9750   -3.3390 C   0  0  0  0  0  0  0  0  0  0  0  0
   -5.2350    3.7450   -2.0160 C   0  0  0  0  0  0  0  0  0  0  0  0
   -3.8860    3.4460   -1.8790 N   0  0  0  0  0  0  0  0  0  0  0  0
   -3.4180    3.4990   -3.1140 C   0  0  0  0  0  0  0  0  0  0  0  0
   -4.3890    3.8220   -4.0300 N   0  0  0  0  0  0  0  0  0  0  0  0
   -4.1870    4.0240   -5.4490 C   0  0  2  0  0  0  0  0  0  0  0  0
   -2.9020    3.4710   -5.8300 O   0  0  0  0  0  0  0  0  0  0  0  0
   -2.3110    4.4000   -6.7880 C   0  0  2  0  0  0  0  0  0  0  0  0
   -1.1190    5.1670   -6.2030 C   0  0  0  0  0  0  0  0  0  0  0  0
   -0.8940    4.6720   -4.8930 O   0  0  0  0  0  0  0  0  0  0  0  0
   -0.2260    5.6910   -3.8110 P   0  0  1  0  0  5  0  0  0  0  0  0
   -0.5090    5.0490   -2.4530 O   0  0  0  0  0  0  0  0  0  0  0  0
    1.2510    5.8230   -4.1570 O   0  0  0  0  0  0  0  0  0  0  0  0
   -1.0720    7.0340   -3.9630 O   0  0  0  0  0  0  0  0  0  0  0  0
   -0.8070    8.6240   -3.9970 P   0  0  0  0  0  0  0  0  0  0  0  0
    0.7120    8.7580   -3.8650 O   0  0  0  0  0  0  0  0  0  0  0  0
   -1.5440    9.2160   -2.7990 O   0  0  0  0  0  0  0  0  0  0  0  0
   -1.3160    9.1420   -5.3380 O   0  0  0  0  0  0  0  0  0  0  0  0
   -3.4550    5.3100   -7.2430 C   0  0  1  0  0  0  0  0  0  0  0  0
   -4.2480    4.6100   -8.2400 O   0  0  0  0  0  0  0  0  0  0  0  0
   -4.2480    5.4640   -5.9530 C   0  0  1  0  0  0  0  0  0  0  0  0
   -5.5820    5.9430   -6.1740 O   0  0  0  0  0  0  0  0  0  0  0  0
   -7.0190    3.8470    0.7480 H   0  0  0  0  0  0  0  0  0  0  0  0
   -5.6370    2.8590    0.4330 H   0  0  0  0  0  0  0  0  0  0  0  0
   -8.6847    4.7254   -3.2226 H   0  0  0  0  0  0  0  0  0  0  0  0
   -2.3679    3.3059   -3.3786 H   0  0  0  0  0  0  0  0  0  0  0  0
   -5.0415    3.5136   -5.9174 H   0  0  0  0  0  0  0  0  0  0  0  0
   -1.8761    3.8686   -7.6473 H   0  0  0  0  0  0  0  0  0  0  0  0
   -0.2261    5.0039   -6.8244 H   0  0  0  0  0  0  0  0  0  0  0  0
   -1.3279    6.2467   -6.1783 H   0  0  0  0  0  0  0  0  0  0  0  0
   -3.1424    6.2642   -7.6922 H   0  0  0  0  0  0  0  0  0  0  0  0
   -4.4450    5.3040   -8.8960 H   0  0  0  0  0  0  0  0  0  0  0  0
   -3.8595    6.2119   -5.2460 H   0  0  0  0  0  0  0  0  0  0  0  0
   -6.0710    5.1200   -6.3760 H   0  0  0  0  0  0  0  0  0  0  0  0
  1  2  1  0
  2  3  2  0
  3  4  1  0
  4  5  2  0
  5  6  1  0
  6  7  2  0
  7  8  1  0
  8  9  2  0
  9 10  1  0
 10 11  1  0
 11 12  1  0
 12 13  1  0
 13 14  1  0
 14 15  1  0
 15 16  1  0
 16 17  2  0
 16 18  1  6
 16 19  1  0
 19 20  1  0
 20 21  2  0
 20 22  1  0
 20 23  1  0
 13 24  1  0
 24 25  1  0
 24 26  1  0
 26 27  1  0
  7  2  1  0
 26 11  1  0
 10  6  1  0
  1 28  1  0
  1 29  1  0
  4 30  1  0
  9 31  1  0
 11 32  1  6
 13 33  1  6
 14 34  1  0
 14 35  1  0
 24 36  1  6
 25 37  1  0
 26 38  1  1
 27 39  1  0
M  CHG  3  18  -1  22  -1  23  -1
M  END
>  <meeko>  (8) 
{"is_sidechain": [false], "free_energy": -5.736, "intermolecular_energy": -8.098, "internal_energy": -1.105}

$$$$
1o0h_ligand
     RDKit          3D

 39 41  0  0  0  0  0  0  0  0999 V2000
    3.9690    2.5850   -3.8320 N   0  0  0  0  0  0  0  0  0  0  0  0
    3.6730    3.9530   -3.9130 C   0  0  0  0  0  0  0  0  0  0  0  0
    4.7100    4.8110   -4.0570 N   0  0  0  0  0  0  0  0  0  0  0  0
    4.4380    6.1390   -4.1920 C   0  0  0  0  0  0  0  0  0  0  0  0
    3.2250    6.7080   -4.1860 N   0  0  0  0  0  0  0  0  0  0  0  0
    2.2390    5.8250   -4.0650 C   0  0  0  0  0  0  0  0  0  0  0  0
    2.3610    4.4580   -3.9210 C   0  0  0  0  0  0  0  0  0  0  0  0
    1.1110    3.8610   -3.8410 N   0  0  0  0  0  0  0  0  0  0  0  0
    0.2650    4.8710   -3.9350 C   0  0  0  0  0  0  0  0  0  0  0  0
    0.9030    6.0790   -4.0780 N   0  0  0  0  0  0  0  0  0  0  0  0
    0.2620    7.3610   -4.2720 C   0  0  2  0  0  0  0  0  0  0  0  0
   -1.1540    7.2350   -3.9880 O   0  0  0  0  0  0  0  0  0  0  0  0
   -1.8580    8.0300   -4.9890 C   0  0  2  0  0  0  0  0  0  0  0  0
   -2.6100    7.1630   -6.0050 C   0  0  0  0  0  0  0  0  0  0  0  0
   -3.0940    6.0210   -5.3160 O   0  0  0  0  0  0  0  0  0  0  0  0
   -2.9880    4.5840   -6.0770 P   0  0  1  0  0  5  0  0  0  0  0  0
   -4.2030    4.5490   -7.0030 O   0  0  0  0  0  0  0  0  0  0  0  0
   -1.6430    4.5420   -6.7900 O   0  0  0  0  0  0  0  0  0  0  0  0
   -3.1610    3.5100   -4.9120 O   0  0  0  0  0  0  0  0  0  0  0  0
   -4.3150    3.0050   -3.9040 P   0  0  0  0  0  0  0  0  0  0  0  0
   -3.5720    2.6970   -2.6020 O   0  0  0  0  0  0  0  0  0  0  0  0
   -4.9260    1.7550   -4.5290 O   0  0  0  0  0  0  0  0  0  0  0  0
   -5.3100    4.1500   -3.7420 O   0  0  0  0  0  0  0  0  0  0  0  0
   -0.7960    8.9300   -5.6250 C   0  0  1  0  0  0  0  0  0  0  0  0
   -0.5410   10.0580   -4.7440 O   0  0  0  0  0  0  0  0  0  0  0  0
    0.4090    8.0010   -5.6510 C   0  0  1  0  0  0  0  0  0  0  0  0
    1.6470    8.7010   -5.8350 O   0  0  0  0  0  0  0  0  0  0  0  0
    3.2600    2.0560   -4.3240 H   0  0  0  0  0  0  0  0  0  0  0  0
    4.9270    2.4760   -4.1460 H   0  0  0  0  0  0  0  0  0  0  0  0
    5.2998    6.8109   -4.3185 H   0  0  0  0  0  0  0  0  0  0  0  0
   -0.8286    4.7574   -3.9024 H   0  0  0  0  0  0  0  0  0  0  0  0
    0.7911    8.0316   -3.5789 H   0  0  0  0  0  0  0  0  0  0  0  0
   -2.6544    8.6367   -4.5332 H   0  0  0  0  0  0  0  0  0  0  0  0
   -3.4514    7.7288   -6.4316 H   0  0  0  0  0  0  0  0  0  0  0  0
   -1.9440    6.8653   -6.8282 H   0  0  0  0  0  0  0  0  0  0  0  0
   -1.0636    9.3438   -6.6084 H   0  0  0  0  0  0  0  0  0  0  0  0
   -1.3460   10.0990   -4.1950 H   0  0  0  0  0  0  0  0  0  0  0  0
    0.4351    7.2847   -6.4854 H   0  0  0  0  0  0  0  0  0  0  0  0
    2.1640    8.4240   -5.0520 H   0  0  0  0  0  0  0  0  0  0  0  0
  1  2  1  0
  2  3  2  0
  3  4  1  0
  4  5  2  0
  5  6  1  0
  6  7  2  0
  7  8  1  0
  8  9  2  0
  9 10  1  0
 10 11  1  0
 11 12  1  0
 12 13  1  0
 13 14  1  0
 14 15  1  0
 15 16  1  0
 16 17  2  0
 16 18  1  6
 16 19  1  0
 19 20  1  0
 20 21  2  0
 20 22  1  0
 20 23  1  0
 13 24  1  0
 24 25  1  0
 24 26  1  0
 26 27  1  0
  7  2  1  0
 26 11  1  0
 10  6  1  0
  1 28  1  0
  1 29  1  0
  4 30  1  0
  9 31  1  0
 11 32  1  1
 13 33  1  1
 14 34  1  0
 14 35  1  0
 24 36  1  6
 25 37  1  0
 26 38  1  6
 27 39  1  0
M  CHG  3  18  -1  22  -1  23  -1
M  END
>  <meeko>  (9) 
{"is_sidechain": [false], "free_energy": -5.701, "intermolecular_energy": -7.876, "internal_energy": -1.276}

$$$$
