2xnb_ligand
     RDKit          3D

 50 53  0  0  0  0  0  0  0  0999 V2000
    6.3610  -13.8840   -1.8630 C   0  0  0  0  0  0  0  0  0  0  0  0
    5.9270  -13.4670   -0.4920 C   0  0  0  0  0  0  0  0  0  0  0  0
    4.6640  -13.3410   -0.0420 C   0  0  0  0  0  0  0  0  0  0  0  0
    3.4050  -13.5080   -0.7790 C   0  0  0  0  0  0  0  0  0  0  0  0
    3.3690  -14.0750   -2.0340 C   0  0  0  0  0  0  0  0  0  0  0  0
    2.1260  -14.1810   -2.6030 C   0  0  0  0  0  0  0  0  0  0  0  0
    0.9980  -13.7690   -2.0000 N   0  0  0  0  0  0  0  0  0  0  0  0
    1.1120  -13.2300   -0.7800 C   0  0  0  0  0  0  0  0  0  0  0  0
    0.0060  -12.7850   -0.0590 N   0  0  0  0  0  0  0  0  0  0  0  0
   -0.1760  -12.3020    1.2370 C   0  0  0  0  0  0  0  0  0  0  0  0
    0.5520  -11.2500    1.7900 C   0  0  0  0  0  0  0  0  0  0  0  0
    0.3150  -10.8090    3.1010 C   0  0  0  0  0  0  0  0  0  0  0  0
   -0.6630  -11.3960    3.9150 C   0  0  0  0  0  0  0  0  0  0  0  0
   -0.8620  -10.9110    5.2210 N   0  0  0  0  0  0  0  0  0  0  0  0
   -2.0230  -10.0280    5.4480 C   0  0  0  0  0  0  0  0  0  0  0  0
   -2.2630   -9.8470    6.9600 C   0  0  0  0  0  0  0  0  0  0  0  0
   -1.0050   -9.3580    7.6360 N   0  0  0  0  0  0  0  0  0  0  0  0
    0.1680  -10.2750    7.3870 C   0  0  0  0  0  0  0  0  0  0  0  0
    0.3930  -10.4710    5.8750 C   0  0  0  0  0  0  0  0  0  0  0  0
   -1.3760  -12.4670    3.3670 C   0  0  0  0  0  0  0  0  0  0  0  0
   -1.1390  -12.9060    2.0550 C   0  0  0  0  0  0  0  0  0  0  0  0
    2.2880  -13.0800   -0.1500 N   0  0  0  0  0  0  0  0  0  0  0  0
    4.6140  -12.8510    1.6300 S   0  0  0  0  0  0  0  0  0  0  0  0
    6.3750  -12.8140    1.7230 C   0  0  0  0  0  0  0  0  0  0  0  0
    6.9890  -12.5160    2.7330 O   0  0  0  0  0  0  0  0  0  0  0  0
    6.8790  -13.1780    0.4820 N   0  0  0  0  0  0  0  0  0  0  0  0
    8.3070  -13.2360    0.2560 C   0  0  0  0  0  0  0  0  0  0  0  0
    7.1520  -14.6441   -1.7819 H   0  0  0  0  0  0  0  0  0  0  0  0
    5.5026  -14.3048   -2.4072 H   0  0  0  0  0  0  0  0  0  0  0  0
    6.7472  -13.0095   -2.4072 H   0  0  0  0  0  0  0  0  0  0  0  0
    4.2789  -14.4205   -2.5466 H   0  0  0  0  0  0  0  0  0  0  0  0
    2.0481  -14.6267   -3.6057 H   0  0  0  0  0  0  0  0  0  0  0  0
   -0.7930  -12.7740   -0.6760 H   0  0  0  0  0  0  0  0  0  0  0  0
    1.3277  -10.7556    1.1869 H   0  0  0  0  0  0  0  0  0  0  0  0
    0.9145   -9.9782    3.5014 H   0  0  0  0  0  0  0  0  0  0  0  0
   -1.8288   -9.0467    4.9904 H   0  0  0  0  0  0  0  0  0  0  0  0
   -2.9156  -10.4827    4.9936 H   0  0  0  0  0  0  0  0  0  0  0  0
   -3.0668   -9.1121    7.1143 H   0  0  0  0  0  0  0  0  0  0  0  0
   -2.5492  -10.8159    7.3951 H   0  0  0  0  0  0  0  0  0  0  0  0
   -1.1680   -9.2770    8.6470 H   0  0  0  0  0  0  0  0  0  0  0  0
   -0.7770   -8.4150    7.2930 H   0  0  0  0  0  0  0  0  0  0  0  0
    1.0720   -9.8345    7.8327 H   0  0  0  0  0  0  0  0  0  0  0  0
   -0.0439  -11.2532    7.8434 H   0  0  0  0  0  0  0  0  0  0  0  0
    0.7196   -9.5193    5.4304 H   0  0  0  0  0  0  0  0  0  0  0  0
    1.1638  -11.2413    5.7248 H   0  0  0  0  0  0  0  0  0  0  0  0
   -2.1377  -12.9755    3.9763 H   0  0  0  0  0  0  0  0  0  0  0  0
   -1.7258  -13.7476    1.6584 H   0  0  0  0  0  0  0  0  0  0  0  0
    8.8307  -13.2573    1.2231 H   0  0  0  0  0  0  0  0  0  0  0  0
    8.5515  -14.1448   -0.3135 H   0  0  0  0  0  0  0  0  0  0  0  0
    8.6244  -12.3500   -0.3135 H   0  0  0  0  0  0  0  0  0  0  0  0
  1  2  1  0
  2  3  2  0
  3  4  1  0
  4  5  2  0
  5  6  1  0
  6  7  2  0
  7  8  1  0
  8  9  1  0
  9 10  1  0
 10 11  2  0
 11 12  1  0
 12 13  2  0
 13 14  1  0
 14 15  1  0
 15 16  1  0
 16 17  1  0
 17 18  1  0
 18 19  1  0
 13 20  1  0
 20 21  2  0
  8 22  2  0
  3 23  1  0
 23 24  1  0
 24 25  2  0
 24 26  1  0
 26 27  1  0
 26  2  1  0
 22  4  1  0
 21 10  1  0
 19 14  1  0
  1 28  1  0
  1 29  1  0
  1 30  1  0
  5 31  1  0
  6 32  1  0
  9 33  1  0
 11 34  1  0
 12 35  1  0
 15 36  1  0
 15 37  1  0
 16 38  1  0
 16 39  1  0
 17 40  1  0
 17 41  1  0
 18 42  1  0
 18 43  1  0
 19 44  1  0
 19 45  1  0
 20 46  1  0
 21 47  1  0
 27 48  1  0
 27 49  1  0
 27 50  1  0
M  CHG  1  17   1
M  END
>  <meeko>  (1) 
{"is_sidechain": [false], "free_energy": -8.554, "intermolecular_energy": -10.555, "internal_energy": 0.041}

$$$$
2xnb_ligand
     RDKit          3D

 50 53  0  0  0  0  0  0  0  0999 V2000
    1.7080  -10.6800    0.3570 C   0  0  0  0  0  0  0  0  0  0  0  0
    2.1110  -11.6530    1.4210 C   0  0  0  0  0  0  0  0  0  0  0  0
    2.9870  -12.6700    1.3020 C   0  0  0  0  0  0  0  0  0  0  0  0
    3.7090  -13.1260    0.1080 C   0  0  0  0  0  0  0  0  0  0  0  0
    3.0470  -13.5850   -1.0090 C   0  0  0  0  0  0  0  0  0  0  0  0
    3.8430  -13.9680   -2.0570 C   0  0  0  0  0  0  0  0  0  0  0  0
    5.1860  -13.9080   -2.0270 N   0  0  0  0  0  0  0  0  0  0  0  0
    5.7580  -13.4470   -0.9080 C   0  0  0  0  0  0  0  0  0  0  0  0
    7.1400  -13.3290   -0.7770 N   0  0  0  0  0  0  0  0  0  0  0  0
    8.0550  -13.6940    0.2120 C   0  0  0  0  0  0  0  0  0  0  0  0
    8.2290  -13.0040    1.4100 C   0  0  0  0  0  0  0  0  0  0  0  0
    9.1650  -13.4280    2.3670 C   0  0  0  0  0  0  0  0  0  0  0  0
    9.9650  -14.5620    2.1690 C   0  0  0  0  0  0  0  0  0  0  0  0
   10.8840  -14.9450    3.1630 N   0  0  0  0  0  0  0  0  0  0  0  0
   10.3840  -15.8000    4.2580 C   0  0  0  0  0  0  0  0  0  0  0  0
   11.5660  -16.3680    5.0670 C   0  0  0  0  0  0  0  0  0  0  0  0
   12.4580  -15.2480    5.5500 N   0  0  0  0  0  0  0  0  0  0  0  0
   12.9530  -14.3870    4.4130 C   0  0  0  0  0  0  0  0  0  0  0  0
   11.7710  -13.8380    3.5920 C   0  0  0  0  0  0  0  0  0  0  0  0
    9.8050  -15.2390    0.9560 C   0  0  0  0  0  0  0  0  0  0  0  0
    8.8670  -14.8150    0.0010 C   0  0  0  0  0  0  0  0  0  0  0  0
    5.0580  -13.0580    0.1690 N   0  0  0  0  0  0  0  0  0  0  0  0
    3.1770  -13.5420    2.7990 S   0  0  0  0  0  0  0  0  0  0  0  0
    2.0230  -12.4890    3.6170 C   0  0  0  0  0  0  0  0  0  0  0  0
    1.7140  -12.6130    4.7910 O   0  0  0  0  0  0  0  0  0  0  0  0
    1.5750  -11.5480    2.7020 N   0  0  0  0  0  0  0  0  0  0  0  0
    0.6110  -10.5420    3.0920 C   0  0  0  0  0  0  0  0  0  0  0  0
    1.3272   -9.7607    0.8260 H   0  0  0  0  0  0  0  0  0  0  0  0
    2.5801  -10.4385   -0.2684 H   0  0  0  0  0  0  0  0  0  0  0  0
    0.9205  -11.1259   -0.2684 H   0  0  0  0  0  0  0  0  0  0  0  0
    1.9495  -13.6407   -1.0570 H   0  0  0  0  0  0  0  0  0  0  0  0
    3.3581  -14.3440   -2.9700 H   0  0  0  0  0  0  0  0  0  0  0  0
    7.5110  -12.9470   -1.6340 H   0  0  0  0  0  0  0  0  0  0  0  0
    7.6210  -12.1094    1.6100 H   0  0  0  0  0  0  0  0  0  0  0  0
    9.2736  -12.8538    3.2989 H   0  0  0  0  0  0  0  0  0  0  0  0
    9.7420  -15.2026    4.9221 H   0  0  0  0  0  0  0  0  0  0  0  0
    9.8068  -16.6329    3.8301 H   0  0  0  0  0  0  0  0  0  0  0  0
   11.1787  -16.9230    5.9342 H   0  0  0  0  0  0  0  0  0  0  0  0
   12.1519  -17.0386    4.4212 H   0  0  0  0  0  0  0  0  0  0  0  0
   13.2600  -15.6430    6.0560 H   0  0  0  0  0  0  0  0  0  0  0  0
   11.9400  -14.6630    6.2180 H   0  0  0  0  0  0  0  0  0  0  0  0
   13.5304  -13.5450    4.8224 H   0  0  0  0  0  0  0  0  0  0  0  0
   13.5866  -14.9998    3.7550 H   0  0  0  0  0  0  0  0  0  0  0  0
   11.1970  -13.1319    4.2100 H   0  0  0  0  0  0  0  0  0  0  0  0
   12.1620  -13.3268    2.6999 H   0  0  0  0  0  0  0  0  0  0  0  0
   10.4267  -16.1218    0.7456 H   0  0  0  0  0  0  0  0  0  0  0  0
    8.7674  -15.3788   -0.9383 H   0  0  0  0  0  0  0  0  0  0  0  0
    0.5601  -10.4889    4.1895 H   0  0  0  0  0  0  0  0  0  0  0  0
    0.9185   -9.5647    2.6915 H   0  0  0  0  0  0  0  0  0  0  0  0
   -0.3785  -10.8075    2.6915 H   0  0  0  0  0  0  0  0  0  0  0  0
  1  2  1  0
  2  3  2  0
  3  4  1  0
  4  5  2  0
  5  6  1  0
  6  7  2  0
  7  8  1  0
  8  9  1  0
  9 10  1  0
 10 11  2  0
 11 12  1  0
 12 13  2  0
 13 14  1  0
 14 15  1  0
 15 16  1  0
 16 17  1  0
 17 18  1  0
 18 19  1  0
 13 20  1  0
 20 21  2  0
  8 22  2  0
  3 23  1  0
 23 24  1  0
 24 25  2  0
 24 26  1  0
 26 27  1  0
 26  2  1  0
 22  4  1  0
 21 10  1  0
 19 14  1  0
  1 28  1  0
  1 29  1  0
  1 30  1  0
  5 31  1  0
  6 32  1  0
  9 33  1  0
 11 34  1  0
 12 35  1  0
 15 36  1  0
 15 37  1  0
 16 38  1  0
 16 39  1  0
 17 40  1  0
 17 41  1  0
 18 42  1  0
 18 43  1  0
 19 44  1  0
 19 45  1  0
 20 46  1  0
 21 47  1  0
 27 48  1  0
 27 49  1  0
 27 50  1  0
M  CHG  1  17   1
M  END
>  <meeko>  (2) 
{"is_sidechain": [false], "free_energy": -8.525, "intermolecular_energy": -9.968, "internal_energy": -0.51}

$$$$
2xnb_ligand
     RDKit          3D

 50 53  0  0  0  0  0  0  0  0999 V2000
    1.9510  -10.5120    1.6040 C   0  0  0  0  0  0  0  0  0  0  0  0
    0.6910  -11.2120    2.0080 C   0  0  0  0  0  0  0  0  0  0  0  0
   -0.0300  -12.0790    1.2710 C   0  0  0  0  0  0  0  0  0  0  0  0
    0.1860  -12.5040   -0.1180 C   0  0  0  0  0  0  0  0  0  0  0  0
   -0.7960  -12.3770   -1.0760 C   0  0  0  0  0  0  0  0  0  0  0  0
   -0.4570  -12.8010   -2.3340 C   0  0  0  0  0  0  0  0  0  0  0  0
    0.7480  -13.3100   -2.6450 N   0  0  0  0  0  0  0  0  0  0  0  0
    1.6510  -13.4000   -1.6620 C   0  0  0  0  0  0  0  0  0  0  0  0
    2.9340  -13.8970   -1.8770 N   0  0  0  0  0  0  0  0  0  0  0  0
    4.1180  -13.8820   -1.1370 C   0  0  0  0  0  0  0  0  0  0  0  0
    5.3930  -13.8780   -1.7000 C   0  0  0  0  0  0  0  0  0  0  0  0
    6.5440  -13.8570   -0.8970 C   0  0  0  0  0  0  0  0  0  0  0  0
    6.4710  -13.8340    0.5020 C   0  0  0  0  0  0  0  0  0  0  0  0
    7.6570  -13.8090    1.2580 N   0  0  0  0  0  0  0  0  0  0  0  0
    8.0720  -12.5130    1.8300 C   0  0  0  0  0  0  0  0  0  0  0  0
    9.1950  -12.7250    2.8640 C   0  0  0  0  0  0  0  0  0  0  0  0
   10.3390  -13.4920    2.2450 N   0  0  0  0  0  0  0  0  0  0  0  0
    9.8910  -14.8120    1.6650 C   0  0  0  0  0  0  0  0  0  0  0  0
    8.7530  -14.5990    0.6480 C   0  0  0  0  0  0  0  0  0  0  0  0
    5.1910  -13.8620    1.0650 C   0  0  0  0  0  0  0  0  0  0  0  0
    4.0410  -13.8820    0.2610 C   0  0  0  0  0  0  0  0  0  0  0  0
    1.4050  -13.0160   -0.3990 N   0  0  0  0  0  0  0  0  0  0  0  0
   -1.4180  -12.6760    2.1400 S   0  0  0  0  0  0  0  0  0  0  0  0
   -1.0070  -11.7110    3.5580 C   0  0  0  0  0  0  0  0  0  0  0  0
   -1.6660  -11.7090    4.5840 O   0  0  0  0  0  0  0  0  0  0  0  0
    0.1540  -11.0060    3.2770 N   0  0  0  0  0  0  0  0  0  0  0  0
    0.7360  -10.1220    4.2640 C   0  0  0  0  0  0  0  0  0  0  0  0
    2.5043  -10.2046    2.5037 H   0  0  0  0  0  0  0  0  0  0  0  0
    2.5735  -11.1936    1.0057 H   0  0  0  0  0  0  0  0  0  0  0  0
    1.7011   -9.6234    1.0057 H   0  0  0  0  0  0  0  0  0  0  0  0
   -1.7883  -11.9619   -0.8457 H   0  0  0  0  0  0  0  0  0  0  0  0
   -1.2103  -12.7208   -3.1315 H   0  0  0  0  0  0  0  0  0  0  0  0
    2.9320  -14.4240   -2.7380 H   0  0  0  0  0  0  0  0  0  0  0  0
    5.4993  -13.8916   -2.7948 H   0  0  0  0  0  0  0  0  0  0  0  0
    7.5322  -13.8586   -1.3801 H   0  0  0  0  0  0  0  0  0  0  0  0
    8.4383  -11.8603    1.0239 H   0  0  0  0  0  0  0  0  0  0  0  0
    7.2088  -12.0462    2.3270 H   0  0  0  0  0  0  0  0  0  0  0  0
    9.5593  -11.7464    3.2100 H   0  0  0  0  0  0  0  0  0  0  0  0
    8.7962  -13.3001    3.7127 H   0  0  0  0  0  0  0  0  0  0  0  0
   11.0640  -13.6580    2.9540 H   0  0  0  0  0  0  0  0  0  0  0  0
   10.7700  -12.9240    1.5040 H   0  0  0  0  0  0  0  0  0  0  0  0
   10.7420  -15.2925    1.1600 H   0  0  0  0  0  0  0  0  0  0  0  0
    9.5226  -15.4512    2.4809 H   0  0  0  0  0  0  0  0  0  0  0  0
    9.1449  -14.0599   -0.2271 H   0  0  0  0  0  0  0  0  0  0  0  0
    8.3591  -15.5795    0.3422 H   0  0  0  0  0  0  0  0  0  0  0  0
    5.0836  -13.8685    2.1597 H   0  0  0  0  0  0  0  0  0  0  0  0
    3.0520  -13.8981    0.7423 H   0  0  0  0  0  0  0  0  0  0  0  0
    0.4945  -10.4888    5.2725 H   0  0  0  0  0  0  0  0  0  0  0  0
    1.8281  -10.0965    4.1348 H   0  0  0  0  0  0  0  0  0  0  0  0
    0.3278   -9.1088    4.1348 H   0  0  0  0  0  0  0  0  0  0  0  0
  1  2  1  0
  2  3  2  0
  3  4  1  0
  4  5  2  0
  5  6  1  0
  6  7  2  0
  7  8  1  0
  8  9  1  0
  9 10  1  0
 10 11  2  0
 11 12  1  0
 12 13  2  0
 13 14  1  0
 14 15  1  0
 15 16  1  0
 16 17  1  0
 17 18  1  0
 18 19  1  0
 13 20  1  0
 20 21  2  0
  8 22  2  0
  3 23  1  0
 23 24  1  0
 24 25  2  0
 24 26  1  0
 26 27  1  0
 26  2  1  0
 22  4  1  0
 21 10  1  0
 19 14  1  0
  1 28  1  0
  1 29  1  0
  1 30  1  0
  5 31  1  0
  6 32  1  0
  9 33  1  0
 11 34  1  0
 12 35  1  0
 15 36  1  0
 15 37  1  0
 16 38  1  0
 16 39  1  0
 17 40  1  0
 17 41  1  0
 18 42  1  0
 18 43  1  0
 19 44  1  0
 19 45  1  0
 20 46  1  0
 21 47  1  0
 27 48  1  0
 27 49  1  0
 27 50  1  0
M  CHG  1  17   1
M  END
>  <meeko>  (3) 
{"is_sidechain": [false], "free_energy": -8.404, "intermolecular_energy": -10.281, "internal_energy": -0.048}

$$$$
2xnb_ligand
     RDKit          3D

 50 53  0  0  0  0  0  0  0  0999 V2000
    3.7530  -12.6050    0.6180 C   0  0  0  0  0  0  0  0  0  0  0  0
    4.2360  -13.2010   -0.6670 C   0  0  0  0  0  0  0  0  0  0  0  0
    3.5460  -13.3210   -1.8180 C   0  0  0  0  0  0  0  0  0  0  0  0
    2.1470  -12.9730   -2.0900 C   0  0  0  0  0  0  0  0  0  0  0  0
    1.7050  -12.6860   -3.3630 C   0  0  0  0  0  0  0  0  0  0  0  0
    0.3720  -12.3890   -3.4780 C   0  0  0  0  0  0  0  0  0  0  0  0
   -0.4750  -12.3720   -2.4340 N   0  0  0  0  0  0  0  0  0  0  0  0
    0.0260  -12.6640   -1.2280 C   0  0  0  0  0  0  0  0  0  0  0  0
   -0.7660  -12.6900   -0.0820 N   0  0  0  0  0  0  0  0  0  0  0  0
   -0.5880  -12.2500    1.2310 C   0  0  0  0  0  0  0  0  0  0  0  0
    0.3650  -11.3100    1.6180 C   0  0  0  0  0  0  0  0  0  0  0  0
    0.4890  -10.9060    2.9570 C   0  0  0  0  0  0  0  0  0  0  0  0
   -0.3380  -11.4200    3.9650 C   0  0  0  0  0  0  0  0  0  0  0  0
   -0.1740  -10.9760    5.2900 N   0  0  0  0  0  0  0  0  0  0  0  0
   -1.2350  -10.1210    5.8570 C   0  0  0  0  0  0  0  0  0  0  0  0
   -1.0520   -9.9890    7.3810 C   0  0  0  0  0  0  0  0  0  0  0  0
    0.3400   -9.4970    7.7010 N   0  0  0  0  0  0  0  0  0  0  0  0
    1.4070  -10.3860    7.1090 C   0  0  0  0  0  0  0  0  0  0  0  0
    1.2090  -10.5340    5.5880 C   0  0  0  0  0  0  0  0  0  0  0  0
   -1.2770  -12.3810    3.5780 C   0  0  0  0  0  0  0  0  0  0  0  0
   -1.4010  -12.7830    2.2380 C   0  0  0  0  0  0  0  0  0  0  0  0
    1.3190  -12.9590   -1.0210 N   0  0  0  0  0  0  0  0  0  0  0  0
    4.5020  -14.0580   -3.0760 S   0  0  0  0  0  0  0  0  0  0  0  0
    5.8910  -14.2100   -2.0000 C   0  0  0  0  0  0  0  0  0  0  0  0
    6.9570  -14.6930   -2.3420 O   0  0  0  0  0  0  0  0  0  0  0  0
    5.5370  -13.6900   -0.7630 N   0  0  0  0  0  0  0  0  0  0  0  0
    6.4840  -13.6790    0.3300 C   0  0  0  0  0  0  0  0  0  0  0  0
    4.1953  -13.1508    1.4644 H   0  0  0  0  0  0  0  0  0  0  0  0
    4.0521  -11.5476    0.6670 H   0  0  0  0  0  0  0  0  0  0  0  0
    2.6566  -12.6785    0.6670 H   0  0  0  0  0  0  0  0  0  0  0  0
    2.3793  -12.6947   -4.2320 H   0  0  0  0  0  0  0  0  0  0  0  0
   -0.0254  -12.1523   -4.4760 H   0  0  0  0  0  0  0  0  0  0  0  0
   -1.6710  -13.0620   -0.3280 H   0  0  0  0  0  0  0  0  0  0  0  0
    1.0333  -10.8759    0.8597 H   0  0  0  0  0  0  0  0  0  0  0  0
    1.2573  -10.1648    3.2224 H   0  0  0  0  0  0  0  0  0  0  0  0
   -1.1828   -9.1233    5.3967 H   0  0  0  0  0  0  0  0  0  0  0  0
   -2.2140  -10.5782    5.6506 H   0  0  0  0  0  0  0  0  0  0  0  0
   -1.7892   -9.2736    7.7744 H   0  0  0  0  0  0  0  0  0  0  0  0
   -1.1988  -10.9751    7.8459 H   0  0  0  0  0  0  0  0  0  0  0  0
    0.4610   -9.4480    8.7200 H   0  0  0  0  0  0  0  0  0  0  0  0
    0.4560   -8.5410    7.3400 H   0  0  0  0  0  0  0  0  0  0  0  0
    2.3950   -9.9431    7.3033 H   0  0  0  0  0  0  0  0  0  0  0  0
    1.3371  -11.3806    7.5736 H   0  0  0  0  0  0  0  0  0  0  0  0
    1.3927   -9.5644    5.1021 H   0  0  0  0  0  0  0  0  0  0  0  0
    1.9151  -11.2863    5.2067 H   0  0  0  0  0  0  0  0  0  0  0  0
   -1.9319  -12.8313    4.3385 H   0  0  0  0  0  0  0  0  0  0  0  0
   -2.1571  -13.5367    1.9729 H   0  0  0  0  0  0  0  0  0  0  0  0
    5.9404  -13.6853    1.2862 H   0  0  0  0  0  0  0  0  0  0  0  0
    7.1264  -14.5697    0.2675 H   0  0  0  0  0  0  0  0  0  0  0  0
    7.1055  -12.7736    0.2675 H   0  0  0  0  0  0  0  0  0  0  0  0
  1  2  1  0
  2  3  2  0
  3  4  1  0
  4  5  2  0
  5  6  1  0
  6  7  2  0
  7  8  1  0
  8  9  1  0
  9 10  1  0
 10 11  2  0
 11 12  1  0
 12 13  2  0
 13 14  1  0
 14 15  1  0
 15 16  1  0
 16 17  1  0
 17 18  1  0
 18 19  1  0
 13 20  1  0
 20 21  2  0
  8 22  2  0
  3 23  1  0
 23 24  1  0
 24 25  2  0
 24 26  1  0
 26 27  1  0
 26  2  1  0
 22  4  1  0
 21 10  1  0
 19 14  1  0
  1 28  1  0
  1 29  1  0
  1 30  1  0
  5 31  1  0
  6 32  1  0
  9 33  1  0
 11 34  1  0
 12 35  1  0
 15 36  1  0
 15 37  1  0
 16 38  1  0
 16 39  1  0
 17 40  1  0
 17 41  1  0
 18 42  1  0
 18 43  1  0
 19 44  1  0
 19 45  1  0
 20 46  1  0
 21 47  1  0
 27 48  1  0
 27 49  1  0
 27 50  1  0
M  CHG  1  17   1
M  END
>  <meeko>  (4) 
{"is_sidechain": [false], "free_energy": -8.354, "intermolecular_energy": -10.079, "internal_energy": -0.187}

$$$$
2xnb_ligand
     RDKit          3D

 50 53  0  0  0  0  0  0  0  0999 V2000
    1.6010  -12.6960    0.8910 C   0  0  0  0  0  0  0  0  0  0  0  0
    2.5370  -13.1400   -0.1920 C   0  0  0  0  0  0  0  0  0  0  0  0
    3.8770  -13.2490   -0.1120 C   0  0  0  0  0  0  0  0  0  0  0  0
    4.7620  -12.9040    1.0060 C   0  0  0  0  0  0  0  0  0  0  0  0
    6.0050  -13.4810    1.1530 C   0  0  0  0  0  0  0  0  0  0  0  0
    6.7330  -13.0590    2.2340 C   0  0  0  0  0  0  0  0  0  0  0  0
    6.2910  -12.1410    3.1120 N   0  0  0  0  0  0  0  0  0  0  0  0
    5.0750  -11.6230    2.9020 C   0  0  0  0  0  0  0  0  0  0  0  0
    4.5270  -10.6540    3.7400 N   0  0  0  0  0  0  0  0  0  0  0  0
    3.2750  -10.4790    4.3320 C   0  0  0  0  0  0  0  0  0  0  0  0
    2.0880  -10.3250    3.6190 C   0  0  0  0  0  0  0  0  0  0  0  0
    0.8590  -10.1570    4.2760 C   0  0  0  0  0  0  0  0  0  0  0  0
    0.7630  -10.1400    5.6750 C   0  0  0  0  0  0  0  0  0  0  0  0
   -0.4950   -9.9730    6.2820 N   0  0  0  0  0  0  0  0  0  0  0  0
   -0.6600  -10.4860    7.6560 C   0  0  0  0  0  0  0  0  0  0  0  0
   -1.9710   -9.9520    8.2670 C   0  0  0  0  0  0  0  0  0  0  0  0
   -3.1400  -10.2790    7.3670 N   0  0  0  0  0  0  0  0  0  0  0  0
   -2.9460   -9.7470    5.9680 C   0  0  0  0  0  0  0  0  0  0  0  0
   -1.6250  -10.2640    5.3670 C   0  0  0  0  0  0  0  0  0  0  0  0
    1.9590  -10.2700    6.3880 C   0  0  0  0  0  0  0  0  0  0  0  0
    3.1870  -10.4400    5.7290 C   0  0  0  0  0  0  0  0  0  0  0  0
    4.2900  -11.9820    1.8740 N   0  0  0  0  0  0  0  0  0  0  0  0
    4.5720  -13.8250   -1.6040 S   0  0  0  0  0  0  0  0  0  0  0  0
    2.9830  -13.9180   -2.3660 C   0  0  0  0  0  0  0  0  0  0  0  0
    2.8090  -14.2910   -3.5140 O   0  0  0  0  0  0  0  0  0  0  0  0
    2.0360  -13.5110   -1.4370 N   0  0  0  0  0  0  0  0  0  0  0  0
    0.6320  -13.4840   -1.7820 C   0  0  0  0  0  0  0  0  0  0  0  0
    2.0491  -12.9086    1.8728 H   0  0  0  0  0  0  0  0  0  0  0  0
    1.4184  -11.6153    0.7975 H   0  0  0  0  0  0  0  0  0  0  0  0
    0.6485  -13.2383    0.7975 H   0  0  0  0  0  0  0  0  0  0  0  0
    6.3882  -14.2326    0.4471 H   0  0  0  0  0  0  0  0  0  0  0  0
    7.7311  -13.4936    2.3922 H   0  0  0  0  0  0  0  0  0  0  0  0
    5.2540   -9.9990    3.9890 H   0  0  0  0  0  0  0  0  0  0  0  0
    2.1145  -10.3353    2.5194 H   0  0  0  0  0  0  0  0  0  0  0  0
   -0.0551  -10.0352    3.6763 H   0  0  0  0  0  0  0  0  0  0  0  0
   -0.6908  -11.5853    7.6327 H   0  0  0  0  0  0  0  0  0  0  0  0
    0.1875  -10.1483    8.2706 H   0  0  0  0  0  0  0  0  0  0  0  0
   -2.1290  -10.4178    9.2509 H   0  0  0  0  0  0  0  0  0  0  0  0
   -1.8968   -8.8598    8.3749 H   0  0  0  0  0  0  0  0  0  0  0  0
   -4.0010   -9.8870    7.7680 H   0  0  0  0  0  0  0  0  0  0  0  0
   -3.2660  -11.2990    7.3280 H   0  0  0  0  0  0  0  0  0  0  0  0
   -3.7838  -10.0777    5.3365 H   0  0  0  0  0  0  0  0  0  0  0  0
   -2.9096   -8.6484    6.0093 H   0  0  0  0  0  0  0  0  0  0  0  0
   -1.6970  -11.3508    5.2134 H   0  0  0  0  0  0  0  0  0  0  0  0
   -1.4469   -9.7588    4.4063 H   0  0  0  0  0  0  0  0  0  0  0  0
    1.9372  -10.2384    7.4873 H   0  0  0  0  0  0  0  0  0  0  0  0
    4.1047  -10.5454    6.3262 H   0  0  0  0  0  0  0  0  0  0  0  0
    0.0286  -13.4724   -0.8623 H   0  0  0  0  0  0  0  0  0  0  0  0
    0.4169  -12.5816   -2.3731 H   0  0  0  0  0  0  0  0  0  0  0  0
    0.3824  -14.3775   -2.3731 H   0  0  0  0  0  0  0  0  0  0  0  0
  1  2  1  0
  2  3  2  0
  3  4  1  0
  4  5  2  0
  5  6  1  0
  6  7  2  0
  7  8  1  0
  8  9  1  0
  9 10  1  0
 10 11  2  0
 11 12  1  0
 12 13  2  0
 13 14  1  0
 14 15  1  0
 15 16  1  0
 16 17  1  0
 17 18  1  0
 18 19  1  0
 13 20  1  0
 20 21  2  0
  8 22  2  0
  3 23  1  0
 23 24  1  0
 24 25  2  0
 24 26  1  0
 26 27  1  0
 26  2  1  0
 22  4  1  0
 21 10  1  0
 19 14  1  0
  1 28  1  0
  1 29  1  0
  1 30  1  0
  5 31  1  0
  6 32  1  0
  9 33  1  0
 11 34  1  0
 12 35  1  0
 15 36  1  0
 15 37  1  0
 16 38  1  0
 16 39  1  0
 17 40  1  0
 17 41  1  0
 18 42  1  0
 18 43  1  0
 19 44  1  0
 19 45  1  0
 20 46  1  0
 21 47  1  0
 27 48  1  0
 27 49  1  0
 27 50  1  0
M  CHG  1  17   1
M  END
>  <meeko>  (5) 
{"is_sidechain": [false], "free_energy": -8.353, "intermolecular_energy": -10.089, "internal_energy": -0.176}

$$$$
2xnb_ligand
     RDKit          3D

 50 53  0  0  0  0  0  0  0  0999 V2000
    2.9340  -11.5160    0.7670 C   0  0  0  0  0  0  0  0  0  0  0  0
    3.3910  -12.5050   -0.2600 C   0  0  0  0  0  0  0  0  0  0  0  0
    4.5910  -13.1130   -0.3250 C   0  0  0  0  0  0  0  0  0  0  0  0
    5.7660  -12.9200    0.5330 C   0  0  0  0  0  0  0  0  0  0  0  0
    7.0470  -12.9440    0.0260 C   0  0  0  0  0  0  0  0  0  0  0  0
    8.0510  -12.7380    0.9350 C   0  0  0  0  0  0  0  0  0  0  0  0
    7.8320  -12.5210    2.2440 N   0  0  0  0  0  0  0  0  0  0  0  0
    6.5610  -12.5090    2.6620 C   0  0  0  0  0  0  0  0  0  0  0  0
    6.2210  -12.2770    3.9930 N   0  0  0  0  0  0  0  0  0  0  0  0
    5.0650  -11.8300    4.6360 C   0  0  0  0  0  0  0  0  0  0  0  0
    4.2840  -10.7660    4.1890 C   0  0  0  0  0  0  0  0  0  0  0  0
    3.1280  -10.3690    4.8810 C   0  0  0  0  0  0  0  0  0  0  0  0
    2.7010  -11.0220    6.0450 C   0  0  0  0  0  0  0  0  0  0  0  0
    1.5320  -10.5850    6.6960 N   0  0  0  0  0  0  0  0  0  0  0  0
    0.3270  -10.3860    5.8670 C   0  0  0  0  0  0  0  0  0  0  0  0
   -0.9120  -10.2150    6.7680 C   0  0  0  0  0  0  0  0  0  0  0  0
   -0.6870   -9.1010    7.7630 N   0  0  0  0  0  0  0  0  0  0  0  0
    0.5520   -9.3260    8.5960 C   0  0  0  0  0  0  0  0  0  0  0  0
    1.7860   -9.5190    7.6930 C   0  0  0  0  0  0  0  0  0  0  0  0
    3.4990  -12.0740    6.5050 C   0  0  0  0  0  0  0  0  0  0  0  0
    4.6540  -12.4710    5.8110 C   0  0  0  0  0  0  0  0  0  0  0  0
    5.5150  -12.7090    1.8440 N   0  0  0  0  0  0  0  0  0  0  0  0
    4.6920  -14.2110   -1.6760 S   0  0  0  0  0  0  0  0  0  0  0  0
    3.0440  -13.8280   -2.1740 C   0  0  0  0  0  0  0  0  0  0  0  0
    2.5000  -14.3310   -3.1420 O   0  0  0  0  0  0  0  0  0  0  0  0
    2.5290  -12.8990   -1.2810 N   0  0  0  0  0  0  0  0  0  0  0  0
    1.1830  -12.3940   -1.4380 C   0  0  0  0  0  0  0  0  0  0  0  0
    3.1205  -11.9196    1.7732 H   0  0  0  0  0  0  0  0  0  0  0  0
    3.4882  -10.5742    0.6412 H   0  0  0  0  0  0  0  0  0  0  0  0
    1.8576  -11.3277    0.6412 H   0  0  0  0  0  0  0  0  0  0  0  0
    7.2506  -13.1176   -1.0410 H   0  0  0  0  0  0  0  0  0  0  0  0
    9.0905  -12.7508    0.5754 H   0  0  0  0  0  0  0  0  0  0  0  0
    6.9910  -12.5720    4.5760 H   0  0  0  0  0  0  0  0  0  0  0  0
    4.5785  -10.2266    3.2767 H   0  0  0  0  0  0  0  0  0  0  0  0
    2.5410   -9.5211    4.4982 H   0  0  0  0  0  0  0  0  0  0  0  0
    0.4549   -9.4850    5.2491 H   0  0  0  0  0  0  0  0  0  0  0  0
    0.1846  -11.2649    5.2211 H   0  0  0  0  0  0  0  0  0  0  0  0
   -1.7844   -9.9728    6.1432 H   0  0  0  0  0  0  0  0  0  0  0  0
   -1.0889  -11.1529    7.3149 H   0  0  0  0  0  0  0  0  0  0  0  0
   -1.5050   -9.0220    8.3800 H   0  0  0  0  0  0  0  0  0  0  0  0
   -0.6010   -8.2070    7.2620 H   0  0  0  0  0  0  0  0  0  0  0  0
    0.7132   -8.4539    9.2467 H   0  0  0  0  0  0  0  0  0  0  0  0
    0.4114  -10.2329    9.2024 H   0  0  0  0  0  0  0  0  0  0  0  0
    2.0032   -8.5765    7.1691 H   0  0  0  0  0  0  0  0  0  0  0  0
    2.6440   -9.8098    8.3170 H   0  0  0  0  0  0  0  0  0  0  0  0
    3.2168  -12.6010    7.4284 H   0  0  0  0  0  0  0  0  0  0  0  0
    5.2516  -13.3080    6.2012 H   0  0  0  0  0  0  0  0  0  0  0  0
    0.7363  -12.2264   -0.4468 H   0  0  0  0  0  0  0  0  0  0  0  0
    1.2099  -11.4448   -1.9933 H   0  0  0  0  0  0  0  0  0  0  0  0
    0.5789  -13.1266   -1.9933 H   0  0  0  0  0  0  0  0  0  0  0  0
  1  2  1  0
  2  3  2  0
  3  4  1  0
  4  5  2  0
  5  6  1  0
  6  7  2  0
  7  8  1  0
  8  9  1  0
  9 10  1  0
 10 11  2  0
 11 12  1  0
 12 13  2  0
 13 14  1  0
 14 15  1  0
 15 16  1  0
 16 17  1  0
 17 18  1  0
 18 19  1  0
 13 20  1  0
 20 21  2  0
  8 22  2  0
  3 23  1  0
 23 24  1  0
 24 25  2  0
 24 26  1  0
 26 27  1  0
 26  2  1  0
 22  4  1  0
 21 10  1  0
 19 14  1  0
  1 28  1  0
  1 29  1  0
  1 30  1  0
  5 31  1  0
  6 32  1  0
  9 33  1  0
 11 34  1  0
 12 35  1  0
 15 36  1  0
 15 37  1  0
 16 38  1  0
 16 39  1  0
 17 40  1  0
 17 41  1  0
 18 42  1  0
 18 43  1  0
 19 44  1  0
 19 45  1  0
 20 46  1  0
 21 47  1  0
 27 48  1  0
 27 49  1  0
 27 50  1  0
M  CHG  1  17   1
M  END
>  <meeko>  (6) 
{"is_sidechain": [false], "free_energy": -8.153, "intermolecular_energy": -9.687, "internal_energy": -0.333}

$$$$
2xnb_ligand
     RDKit          3D

 50 53  0  0  0  0  0  0  0  0999 V2000
    4.4320  -12.5070    1.1900 C   0  0  0  0  0  0  0  0  0  0  0  0
    4.4980  -13.1380   -0.1670 C   0  0  0  0  0  0  0  0  0  0  0  0
    3.4660  -13.3920   -0.9950 C   0  0  0  0  0  0  0  0  0  0  0  0
    2.0310  -13.1870   -0.7650 C   0  0  0  0  0  0  0  0  0  0  0  0
    1.1010  -13.3840   -1.7620 C   0  0  0  0  0  0  0  0  0  0  0  0
   -0.2050  -13.1690   -1.4080 C   0  0  0  0  0  0  0  0  0  0  0  0
   -0.5860  -12.7930   -0.1740 N   0  0  0  0  0  0  0  0  0  0  0  0
    0.3740  -12.6250    0.7430 C   0  0  0  0  0  0  0  0  0  0  0  0
    0.0900  -12.2520    2.0540 N   0  0  0  0  0  0  0  0  0  0  0  0
    0.8740  -11.9160    3.1590 C   0  0  0  0  0  0  0  0  0  0  0  0
    1.4270  -12.8450    4.0380 C   0  0  0  0  0  0  0  0  0  0  0  0
    2.2120  -12.4400    5.1290 C   0  0  0  0  0  0  0  0  0  0  0  0
    2.4810  -11.0890    5.3870 C   0  0  0  0  0  0  0  0  0  0  0  0
    3.2780  -10.7390    6.4920 N   0  0  0  0  0  0  0  0  0  0  0  0
    2.6380   -9.9640    7.5730 C   0  0  0  0  0  0  0  0  0  0  0  0
    3.5480   -9.9390    8.8170 C   0  0  0  0  0  0  0  0  0  0  0  0
    4.9200   -9.4260    8.4530 N   0  0  0  0  0  0  0  0  0  0  0  0
    5.5520  -10.2320    7.3440 C   0  0  0  0  0  0  0  0  0  0  0  0
    4.6320  -10.2730    6.1090 C   0  0  0  0  0  0  0  0  0  0  0  0
    1.9050  -10.1570    4.5180 C   0  0  0  0  0  0  0  0  0  0  0  0
    1.1220  -10.5640    3.4260 C   0  0  0  0  0  0  0  0  0  0  0  0
    1.6790  -12.8050    0.4830 N   0  0  0  0  0  0  0  0  0  0  0  0
    3.9950  -14.1180   -2.4900 S   0  0  0  0  0  0  0  0  0  0  0  0
    5.6810  -14.0770   -1.9700 C   0  0  0  0  0  0  0  0  0  0  0  0
    6.6050  -14.4840   -2.6530 O   0  0  0  0  0  0  0  0  0  0  0  0
    5.7270  -13.5140   -0.7030 N   0  0  0  0  0  0  0  0  0  0  0  0
    6.9890  -13.3500   -0.0160 C   0  0  0  0  0  0  0  0  0  0  0  0
    4.5136  -13.2869    1.9614 H   0  0  0  0  0  0  0  0  0  0  0  0
    5.2603  -11.7919    1.3025 H   0  0  0  0  0  0  0  0  0  0  0  0
    3.4737  -11.9788    1.3025 H   0  0  0  0  0  0  0  0  0  0  0  0
    1.3886  -13.6941   -2.7775 H   0  0  0  0  0  0  0  0  0  0  0  0
   -0.9826  -13.3113   -2.1729 H   0  0  0  0  0  0  0  0  0  0  0  0
   -0.9110  -12.1620    2.1510 H   0  0  0  0  0  0  0  0  0  0  0  0
    1.2448  -13.9173    3.8737 H   0  0  0  0  0  0  0  0  0  0  0  0
    2.6280  -13.2052    5.8009 H   0  0  0  0  0  0  0  0  0  0  0  0
    2.4643   -8.9339    7.2285 H   0  0  0  0  0  0  0  0  0  0  0  0
    1.6805  -10.4368    7.8368 H   0  0  0  0  0  0  0  0  0  0  0  0
    3.1044   -9.2799    9.5778 H   0  0  0  0  0  0  0  0  0  0  0  0
    3.6418  -10.9613    9.2120 H   0  0  0  0  0  0  0  0  0  0  0  0
    5.5270   -9.4480    9.2820 H   0  0  0  0  0  0  0  0  0  0  0  0
    4.8500   -8.4420    8.1590 H   0  0  0  0  0  0  0  0  0  0  0  0
    6.5113   -9.7719    7.0646 H   0  0  0  0  0  0  0  0  0  0  0  0
    5.7117  -11.2603    7.7006 H   0  0  0  0  0  0  0  0  0  0  0  0
    4.5598   -9.2642    5.6765 H   0  0  0  0  0  0  0  0  0  0  0  0
    5.0549  -10.9700    5.3705 H   0  0  0  0  0  0  0  0  0  0  0  0
    2.0687   -9.0835    4.6935 H   0  0  0  0  0  0  0  0  0  0  0  0
    0.6916   -9.7999    2.7620 H   0  0  0  0  0  0  0  0  0  0  0  0
    6.8204  -13.3719    1.0708 H   0  0  0  0  0  0  0  0  0  0  0  0
    7.6690  -14.1673   -0.2981 H   0  0  0  0  0  0  0  0  0  0  0  0
    7.4375  -12.3860   -0.2981 H   0  0  0  0  0  0  0  0  0  0  0  0
  1  2  1  0
  2  3  2  0
  3  4  1  0
  4  5  2  0
  5  6  1  0
  6  7  2  0
  7  8  1  0
  8  9  1  0
  9 10  1  0
 10 11  2  0
 11 12  1  0
 12 13  2  0
 13 14  1  0
 14 15  1  0
 15 16  1  0
 16 17  1  0
 17 18  1  0
 18 19  1  0
 13 20  1  0
 20 21  2  0
  8 22  2  0
  3 23  1  0
 23 24  1  0
 24 25  2  0
 24 26  1  0
 26 27  1  0
 26  2  1  0
 22  4  1  0
 21 10  1  0
 19 14  1  0
  1 28  1  0
  1 29  1  0
  1 30  1  0
  5 31  1  0
  6 32  1  0
  9 33  1  0
 11 34  1  0
 12 35  1  0
 15 36  1  0
 15 37  1  0
 16 38  1  0
 16 39  1  0
 17 40  1  0
 17 41  1  0
 18 42  1  0
 18 43  1  0
 19 44  1  0
 19 45  1  0
 20 46  1  0
 21 47  1  0
 27 48  1  0
 27 49  1  0
 27 50  1  0
M  CHG  1  17   1
M  END
>  <meeko>  (7) 
{"is_sidechain": [false], "free_energy": -8.143, "intermolecular_energy": -9.693, "internal_energy": -0.313}

$$$$
2xnb_ligand
     RDKit          3D

 50 53  0  0  0  0  0  0  0  0999 V2000
    0.8090  -12.9300   -2.5390 C   0  0  0  0  0  0  0  0  0  0  0  0
    2.0430  -13.2080   -1.7370 C   0  0  0  0  0  0  0  0  0  0  0  0
    2.1860  -13.0990   -0.4020 C   0  0  0  0  0  0  0  0  0  0  0  0
    1.2150  -12.6210    0.5900 C   0  0  0  0  0  0  0  0  0  0  0  0
   -0.0530  -13.1500    0.6770 C   0  0  0  0  0  0  0  0  0  0  0  0
   -0.8530  -12.6210    1.6570 C   0  0  0  0  0  0  0  0  0  0  0  0
   -0.4520  -11.6500    2.4950 N   0  0  0  0  0  0  0  0  0  0  0  0
    0.7960  -11.1880    2.3520 C   0  0  0  0  0  0  0  0  0  0  0  0
    1.3170  -10.1940    3.1770 N   0  0  0  0  0  0  0  0  0  0  0  0
    2.0490  -10.2040    4.3650 C   0  0  0  0  0  0  0  0  0  0  0  0
    1.5050   -9.9460    5.6220 C   0  0  0  0  0  0  0  0  0  0  0  0
    2.2970   -9.9780    6.7800 C   0  0  0  0  0  0  0  0  0  0  0  0
    3.6670  -10.2740    6.7340 C   0  0  0  0  0  0  0  0  0  0  0  0
    4.4120  -10.2970    7.9260 N   0  0  0  0  0  0  0  0  0  0  0  0
    5.8070   -9.8160    7.8660 C   0  0  0  0  0  0  0  0  0  0  0  0
    6.3620   -9.6210    9.2900 C   0  0  0  0  0  0  0  0  0  0  0  0
    6.2080  -10.8920   10.0910 N   0  0  0  0  0  0  0  0  0  0  0  0
    4.7750  -11.3650   10.1370 C   0  0  0  0  0  0  0  0  0  0  0  0
    4.2150  -11.5380    8.7120 C   0  0  0  0  0  0  0  0  0  0  0  0
    4.2150  -10.5090    5.4690 C   0  0  0  0  0  0  0  0  0  0  0  0
    3.4220  -10.4780    4.3110 C   0  0  0  0  0  0  0  0  0  0  0  0
    1.6450  -11.6410    1.4160 N   0  0  0  0  0  0  0  0  0  0  0  0
    3.7890  -13.5440    0.1190 S   0  0  0  0  0  0  0  0  0  0  0  0
    4.2850  -13.8900   -1.5380 C   0  0  0  0  0  0  0  0  0  0  0  0
    5.4010  -14.2790   -1.8380 O   0  0  0  0  0  0  0  0  0  0  0  0
    3.2020  -13.6480   -2.3710 N   0  0  0  0  0  0  0  0  0  0  0  0
    3.3130  -13.8480   -3.7990 C   0  0  0  0  0  0  0  0  0  0  0  0
   -0.0349  -12.7399   -1.8595 H   0  0  0  0  0  0  0  0  0  0  0  0
    0.9752  -12.0468   -3.1733 H   0  0  0  0  0  0  0  0  0  0  0  0
    0.5804  -13.7992   -3.1733 H   0  0  0  0  0  0  0  0  0  0  0  0
   -0.4022  -13.9463    0.0033 H   0  0  0  0  0  0  0  0  0  0  0  0
   -1.8759  -13.0116    1.7627 H   0  0  0  0  0  0  0  0  0  0  0  0
    1.1540   -9.2980    2.7410 H   0  0  0  0  0  0  0  0  0  0  0  0
    0.4335   -9.7126    5.7081 H   0  0  0  0  0  0  0  0  0  0  0  0
    1.8294   -9.7646    7.7525 H   0  0  0  0  0  0  0  0  0  0  0  0
    6.4238  -10.5547    7.3332 H   0  0  0  0  0  0  0  0  0  0  0  0
    5.8331   -8.8532    7.3346 H   0  0  0  0  0  0  0  0  0  0  0  0
    7.4280   -9.3562    9.2309 H   0  0  0  0  0  0  0  0  0  0  0  0
    5.8006   -8.8153    9.7857 H   0  0  0  0  0  0  0  0  0  0  0  0
    6.5490  -10.7370   11.0490 H   0  0  0  0  0  0  0  0  0  0  0  0
    6.7960  -11.6290    9.6800 H   0  0  0  0  0  0  0  0  0  0  0  0
    4.7296  -12.3301   10.6629 H   0  0  0  0  0  0  0  0  0  0  0  0
    4.1705  -10.6141   10.6668 H   0  0  0  0  0  0  0  0  0  0  0  0
    4.7379  -12.3686    8.2153 H   0  0  0  0  0  0  0  0  0  0  0  0
    3.1382  -11.7535    8.7752 H   0  0  0  0  0  0  0  0  0  0  0  0
    5.2903  -10.7227    5.3795 H   0  0  0  0  0  0  0  0  0  0  0  0
    3.8910  -10.6740    3.3355 H   0  0  0  0  0  0  0  0  0  0  0  0
    3.8381  -14.7941   -3.9970 H   0  0  0  0  0  0  0  0  0  0  0  0
    2.3074  -13.8869   -4.2431 H   0  0  0  0  0  0  0  0  0  0  0  0
    3.8780  -13.0152   -4.2431 H   0  0  0  0  0  0  0  0  0  0  0  0
  1  2  1  0
  2  3  2  0
  3  4  1  0
  4  5  2  0
  5  6  1  0
  6  7  2  0
  7  8  1  0
  8  9  1  0
  9 10  1  0
 10 11  2  0
 11 12  1  0
 12 13  2  0
 13 14  1  0
 14 15  1  0
 15 16  1  0
 16 17  1  0
 17 18  1  0
 18 19  1  0
 13 20  1  0
 20 21  2  0
  8 22  2  0
  3 23  1  0
 23 24  1  0
 24 25  2  0
 24 26  1  0
 26 27  1  0
 26  2  1  0
 22  4  1  0
 21 10  1  0
 19 14  1  0
  1 28  1  0
  1 29  1  0
  1 30  1  0
  5 31  1  0
  6 32  1  0
  9 33  1  0
 11 34  1  0
 12 35  1  0
 15 36  1  0
 15 37  1  0
 16 38  1  0
 16 39  1  0
 17 40  1  0
 17 41  1  0
 18 42  1  0
 18 43  1  0
 19 44  1  0
 19 45  1  0
 20 46  1  0
 21 47  1  0
 27 48  1  0
 27 49  1  0
 27 50  1  0
M  CHG  1  17   1
M  END
>  <meeko>  (8) 
{"is_sidechain": [false], "free_energy": -8.091, "intermolecular_energy": -9.487, "internal_energy": -0.456}

$$$$
2xnb_ligand
     RDKit          3D

 50 53  0  0  0  0  0  0  0  0999 V2000
   -5.4750   -8.9440    3.8210 C   0  0  0  0  0  0  0  0  0  0  0  0
   -4.7630   -9.0210    5.1370 C   0  0  0  0  0  0  0  0  0  0  0  0
   -3.7620   -9.8580    5.4710 C   0  0  0  0  0  0  0  0  0  0  0  0
   -3.1640  -10.9390    4.6770 C   0  0  0  0  0  0  0  0  0  0  0  0
   -3.9360  -11.8180    3.9500 C   0  0  0  0  0  0  0  0  0  0  0  0
   -3.2490  -12.7710    3.2450 C   0  0  0  0  0  0  0  0  0  0  0  0
   -1.9080  -12.8650    3.2400 N   0  0  0  0  0  0  0  0  0  0  0  0
   -1.2250  -11.9740    3.9680 C   0  0  0  0  0  0  0  0  0  0  0  0
    0.1670  -11.9720    4.0220 N   0  0  0  0  0  0  0  0  0  0  0  0
    1.1730  -12.3290    3.1230 C   0  0  0  0  0  0  0  0  0  0  0  0
    1.1270  -12.0720    1.7540 C   0  0  0  0  0  0  0  0  0  0  0  0
    2.1770  -12.4550    0.9050 C   0  0  0  0  0  0  0  0  0  0  0  0
    3.3200  -13.1070    1.3870 C   0  0  0  0  0  0  0  0  0  0  0  0
    4.3450  -13.4640    0.4910 N   0  0  0  0  0  0  0  0  0  0  0  0
    5.6670  -12.8380    0.6860 C   0  0  0  0  0  0  0  0  0  0  0  0
    6.7270  -13.5610   -0.1670 C   0  0  0  0  0  0  0  0  0  0  0  0
    6.2980  -13.6000   -1.6150 N   0  0  0  0  0  0  0  0  0  0  0  0
    4.9430  -14.2420   -1.7880 C   0  0  0  0  0  0  0  0  0  0  0  0
    3.8880  -13.5310   -0.9180 C   0  0  0  0  0  0  0  0  0  0  0  0
    3.3530  -13.3860    2.7570 C   0  0  0  0  0  0  0  0  0  0  0  0
    2.3040  -13.0010    3.6060 C   0  0  0  0  0  0  0  0  0  0  0  0
   -1.8140  -11.0120    4.6960 N   0  0  0  0  0  0  0  0  0  0  0  0
   -3.2080   -9.5920    7.1020 S   0  0  0  0  0  0  0  0  0  0  0  0
   -4.3810   -8.2960    7.3420 C   0  0  0  0  0  0  0  0  0  0  0  0
   -4.4840   -7.6660    8.3800 O   0  0  0  0  0  0  0  0  0  0  0  0
   -5.1080   -8.1520    6.1690 N   0  0  0  0  0  0  0  0  0  0  0  0
   -6.1520   -7.1560    6.0680 C   0  0  0  0  0  0  0  0  0  0  0  0
   -6.5549   -8.8272    3.9947 H   0  0  0  0  0  0  0  0  0  0  0  0
   -5.0999   -8.0812    3.2511 H   0  0  0  0  0  0  0  0  0  0  0  0
   -5.2930   -9.8671    3.2511 H   0  0  0  0  0  0  0  0  0  0  0  0
   -5.0343  -11.7586    3.9363 H   0  0  0  0  0  0  0  0  0  0  0  0
   -3.8247  -13.4970    2.6522 H   0  0  0  0  0  0  0  0  0  0  0  0
    0.4530  -11.5560    4.8960 H   0  0  0  0  0  0  0  0  0  0  0  0
    0.2508  -11.5591    1.3307 H   0  0  0  0  0  0  0  0  0  0  0  0
    2.1005  -12.2370   -0.1705 H   0  0  0  0  0  0  0  0  0  0  0  0
    5.6169  -11.7812    0.3850 H   0  0  0  0  0  0  0  0  0  0  0  0
    5.9473  -12.9124    1.7471 H   0  0  0  0  0  0  0  0  0  0  0  0
    7.6844  -13.0253   -0.0866 H   0  0  0  0  0  0  0  0  0  0  0  0
    6.8395  -14.5917    0.2005 H   0  0  0  0  0  0  0  0  0  0  0  0
    6.9950  -14.1160   -2.1660 H   0  0  0  0  0  0  0  0  0  0  0  0
    6.2700  -12.6420   -1.9890 H   0  0  0  0  0  0  0  0  0  0  0  0
    4.6441  -14.1753   -2.8445 H   0  0  0  0  0  0  0  0  0  0  0  0
    5.0080  -15.2946   -1.4753 H   0  0  0  0  0  0  0  0  0  0  0  0
    3.7319  -12.5106   -1.2980 H   0  0  0  0  0  0  0  0  0  0  0  0
    2.9460  -14.0973   -0.9626 H   0  0  0  0  0  0  0  0  0  0  0  0
    4.2189  -13.9181    3.1777 H   0  0  0  0  0  0  0  0  0  0  0  0
    2.3713  -13.2329    4.6792 H   0  0  0  0  0  0  0  0  0  0  0  0
   -6.4690   -6.8535    7.0770 H   0  0  0  0  0  0  0  0  0  0  0  0
   -5.7705   -6.2787    5.5251 H   0  0  0  0  0  0  0  0  0  0  0  0
   -7.0104   -7.5784    5.5251 H   0  0  0  0  0  0  0  0  0  0  0  0
  1  2  1  0
  2  3  2  0
  3  4  1  0
  4  5  2  0
  5  6  1  0
  6  7  2  0
  7  8  1  0
  8  9  1  0
  9 10  1  0
 10 11  2  0
 11 12  1  0
 12 13  2  0
 13 14  1  0
 14 15  1  0
 15 16  1  0
 16 17  1  0
 17 18  1  0
 18 19  1  0
 13 20  1  0
 20 21  2  0
  8 22  2  0
  3 23  1  0
 23 24  1  0
 24 25  2  0
 24 26  1  0
 26 27  1  0
 26  2  1  0
 22  4  1  0
 21 10  1  0
 19 14  1  0
  1 28  1  0
  1 29  1  0
  1 30  1  0
  5 31  1  0
  6 32  1  0
  9 33  1  0
 11 34  1  0
 12 35  1  0
 15 36  1  0
 15 37  1  0
 16 38  1  0
 16 39  1  0
 17 40  1  0
 17 41  1  0
 18 42  1  0
 18 43  1  0
 19 44  1  0
 19 45  1  0
 20 46  1  0
 21 47  1  0
 27 48  1  0
 27 49  1  0
 27 50  1  0
M  CHG  1  17   1
M  END
>  <meeko>  (9) 
{"is_sidechain": [false], "free_energy": -8.082, "intermolecular_energy": -9.62, "internal_energy": -0.311}

$$$$
