3e5a_ligand
     RDKit          3D

 63 67  0  0  0  0  0  0  0  0999 V2000
   -7.8490   17.9760   21.1800 C   0  0  0  0  0  0  0  0  0  0  0  0
   -7.7790   17.4230   19.8040 C   0  0  0  0  0  0  0  0  0  0  0  0
   -8.8460   17.1380   18.9170 C   0  0  0  0  0  0  0  0  0  0  0  0
   -8.2480   16.6860   17.7620 C   0  0  0  0  0  0  0  0  0  0  0  0
   -8.7920   16.2860   16.5850 N   0  0  0  0  0  0  0  0  0  0  0  0
   -8.8030   16.9900   15.3720 C   0  0  0  0  0  0  0  0  0  0  0  0
   -7.9370   18.0590   15.0720 C   0  0  0  0  0  0  0  0  0  0  0  0
   -8.0140   18.6980   13.8420 C   0  0  0  0  0  0  0  0  0  0  0  0
   -7.1570   19.7560   13.4890 N   0  0  0  0  0  0  0  0  0  0  0  0
   -7.5220   21.0580   14.1260 C   0  0  0  0  0  0  0  0  0  0  0  0
   -6.7510   22.2630   13.5330 C   0  0  0  0  0  0  0  0  0  0  0  0
   -5.5390   21.8090   12.7320 N   0  0  0  0  0  0  0  0  0  0  0  0
   -4.6540   22.9560   12.3480 C   0  0  0  0  0  0  0  0  0  0  0  0
   -4.8080   20.6990   13.4510 C   0  0  0  0  0  0  0  0  0  0  0  0
   -5.7040   19.4350   13.5190 C   0  0  0  0  0  0  0  0  0  0  0  0
   -8.9050   18.2670   12.9430 N   0  0  0  0  0  0  0  0  0  0  0  0
   -9.7230   17.2400   13.2570 C   0  0  0  0  0  0  0  0  0  0  0  0
  -10.9180   16.6710   12.0660 S   0  0  0  0  0  0  0  0  0  0  0  0
  -10.3500   17.5080   10.5930 C   0  0  0  0  0  0  0  0  0  0  0  0
  -10.8100   18.7930   10.2910 C   0  0  0  0  0  0  0  0  0  0  0  0
  -10.5410   19.3610    9.0400 C   0  0  0  0  0  0  0  0  0  0  0  0
   -9.8530   18.6240    8.0740 C   0  0  0  0  0  0  0  0  0  0  0  0
   -9.7480   19.1470    6.7740 N   0  0  0  0  0  0  0  0  0  0  0  0
  -10.2630   18.5390    5.6470 C   0  0  0  0  0  0  0  0  0  0  0  0
  -10.9960   17.5540    5.6250 O   0  0  0  0  0  0  0  0  0  0  0  0
   -9.9590   19.2650    4.3870 C   0  0  0  0  0  0  0  0  0  0  0  0
  -11.0680   19.9860    3.6580 C   0  0  0  0  0  0  0  0  0  0  0  0
  -10.4520   18.7590    3.0520 C   0  0  0  0  0  0  0  0  0  0  0  0
   -9.3000   17.3900    8.4170 C   0  0  0  0  0  0  0  0  0  0  0  0
   -9.5240   16.8440    9.6800 C   0  0  0  0  0  0  0  0  0  0  0  0
   -9.6840   16.6240   14.4350 N   0  0  0  0  0  0  0  0  0  0  0  0
   -6.9140   16.5890   18.0720 N   0  0  0  0  0  0  0  0  0  0  0  0
   -6.5970   17.1350   19.2490 N   0  0  0  0  0  0  0  0  0  0  0  0
   -7.7456   17.1590   21.9092 H   0  0  0  0  0  0  0  0  0  0  0  0
   -7.0356   18.7022   21.3252 H   0  0  0  0  0  0  0  0  0  0  0  0
   -8.8177   18.4766   21.3252 H   0  0  0  0  0  0  0  0  0  0  0  0
   -9.9228   17.2532   19.1098 H   0  0  0  0  0  0  0  0  0  0  0  0
   -9.4210   15.4860   16.6430 H   0  0  0  0  0  0  0  0  0  0  0  0
   -7.1964   18.3891   15.8153 H   0  0  0  0  0  0  0  0  0  0  0  0
   -8.5994   21.2275   13.9832 H   0  0  0  0  0  0  0  0  0  0  0  0
   -7.2529   20.9887   15.1903 H   0  0  0  0  0  0  0  0  0  0  0  0
   -7.4247   22.8286   12.8725 H   0  0  0  0  0  0  0  0  0  0  0  0
   -6.3999   22.8916   14.3646 H   0  0  0  0  0  0  0  0  0  0  0  0
   -5.9220   21.4000   11.8680 H   0  0  0  0  0  0  0  0  0  0  0  0
   -4.2752   23.4470   13.2565 H   0  0  0  0  0  0  0  0  0  0  0  0
   -3.8076   22.5828   11.7528 H   0  0  0  0  0  0  0  0  0  0  0  0
   -5.2297   23.6801   11.7528 H   0  0  0  0  0  0  0  0  0  0  0  0
   -3.8816   20.4607   12.9079 H   0  0  0  0  0  0  0  0  0  0  0  0
   -4.5660   21.0269   14.4727 H   0  0  0  0  0  0  0  0  0  0  0  0
   -5.4686   18.7906   12.6592 H   0  0  0  0  0  0  0  0  0  0  0  0
   -5.4955   18.9321   14.4749 H   0  0  0  0  0  0  0  0  0  0  0  0
  -11.3849   19.3595   11.0384 H   0  0  0  0  0  0  0  0  0  0  0  0
  -10.8712   20.3866    8.8184 H   0  0  0  0  0  0  0  0  0  0  0  0
   -9.4430   20.1090    6.6730 H   0  0  0  0  0  0  0  0  0  0  0  0
   -8.9723   19.5351    4.7913 H   0  0  0  0  0  0  0  0  0  0  0  0
  -12.0961   19.9495    4.0475 H   0  0  0  0  0  0  0  0  0  0  0  0
  -11.2316   21.0202    3.3208 H   0  0  0  0  0  0  0  0  0  0  0  0
  -11.0290   17.8241    2.9978 H   0  0  0  0  0  0  0  0  0  0  0  0
   -9.9781   18.5233    2.0877 H   0  0  0  0  0  0  0  0  0  0  0  0
   -8.6838   16.8448    7.6869 H   0  0  0  0  0  0  0  0  0  0  0  0
   -9.0511   15.8908    9.9587 H   0  0  0  0  0  0  0  0  0  0  0  0
  -10.3260   15.8530   14.5810 H   0  0  0  0  0  0  0  0  0  0  0  0
   -6.1660   16.1690   17.5350 H   0  0  0  0  0  0  0  0  0  0  0  0
  1  2  1  0
  2  3  1  0
  3  4  2  0
  4  5  1  0
  5  6  1  0
  6  7  2  0
  7  8  1  0
  8  9  1  0
  9 10  1  0
 10 11  1  0
 11 12  1  0
 12 13  1  0
 12 14  1  0
 14 15  1  0
  8 16  2  0
 16 17  1  0
 17 18  1  0
 18 19  1  0
 19 20  2  0
 20 21  1  0
 21 22  2  0
 22 23  1  0
 23 24  1  0
 24 25  2  0
 24 26  1  0
 26 27  1  0
 27 28  1  0
 22 29  1  0
 29 30  2  0
 17 31  2  0
  4 32  1  0
 32 33  1  0
 33  2  2  0
 31  6  1  0
 15  9  1  0
 30 19  1  0
 28 26  1  0
  1 34  1  0
  1 35  1  0
  1 36  1  0
  3 37  1  0
  5 38  1  0
  7 39  1  0
 10 40  1  0
 10 41  1  0
 11 42  1  0
 11 43  1  0
 12 44  1  0
 13 45  1  0
 13 46  1  0
 13 47  1  0
 14 48  1  0
 14 49  1  0
 15 50  1  0
 15 51  1  0
 20 52  1  0
 21 53  1  0
 23 54  1  0
 26 55  1  0
 27 56  1  0
 27 57  1  0
 28 58  1  0
 28 59  1  0
 29 60  1  0
 30 61  1  0
 31 62  1  0
 32 63  1  0
M  CHG  2  12   1  31   1
M  END
>  <meeko>  (1) 
{"is_sidechain": [false], "free_energy": -9.045, "intermolecular_energy": -12.746, "internal_energy": -0.711}

$$$$
3e5a_ligand
     RDKit          3D

 63 67  0  0  0  0  0  0  0  0999 V2000
   -1.2770   20.5220   13.0850 C   0  0  0  0  0  0  0  0  0  0  0  0
   -2.6370   19.9330   12.9960 C   0  0  0  0  0  0  0  0  0  0  0  0
   -3.8510   20.5750   12.6500 C   0  0  0  0  0  0  0  0  0  0  0  0
   -4.8060   19.5840   12.6750 C   0  0  0  0  0  0  0  0  0  0  0  0
   -6.1370   19.6350   12.4120 N   0  0  0  0  0  0  0  0  0  0  0  0
   -7.1600   18.9360   13.0700 C   0  0  0  0  0  0  0  0  0  0  0  0
   -7.2340   18.7750   14.4670 C   0  0  0  0  0  0  0  0  0  0  0  0
   -8.2870   18.0700   15.0340 C   0  0  0  0  0  0  0  0  0  0  0  0
   -8.4160   17.9000   16.4240 N   0  0  0  0  0  0  0  0  0  0  0  0
   -7.9570   16.5620   16.9080 C   0  0  0  0  0  0  0  0  0  0  0  0
   -8.3450   16.2820   18.3800 C   0  0  0  0  0  0  0  0  0  0  0  0
   -8.7470   17.5590   19.1040 N   0  0  0  0  0  0  0  0  0  0  0  0
   -8.9000   17.3480   20.5790 C   0  0  0  0  0  0  0  0  0  0  0  0
   -7.8100   18.6910   18.7520 C   0  0  0  0  0  0  0  0  0  0  0  0
   -7.9580   19.0510   17.2500 C   0  0  0  0  0  0  0  0  0  0  0  0
   -9.2350   17.5690   14.2360 N   0  0  0  0  0  0  0  0  0  0  0  0
   -9.1390   17.7390   12.9000 C   0  0  0  0  0  0  0  0  0  0  0  0
  -10.3960   17.0630   11.8340 S   0  0  0  0  0  0  0  0  0  0  0  0
   -9.9650   17.8300   10.2780 C   0  0  0  0  0  0  0  0  0  0  0  0
  -10.4610   19.0970    9.9560 C   0  0  0  0  0  0  0  0  0  0  0  0
  -10.3070   19.6040    8.6600 C   0  0  0  0  0  0  0  0  0  0  0  0
   -9.6990   18.8230    7.6740 C   0  0  0  0  0  0  0  0  0  0  0  0
   -9.7120   19.2820    6.3470 N   0  0  0  0  0  0  0  0  0  0  0  0
  -10.4130   18.6790    5.3220 C   0  0  0  0  0  0  0  0  0  0  0  0
  -11.2250   17.7650    5.4380 O   0  0  0  0  0  0  0  0  0  0  0  0
  -10.2070   19.3240    4.0000 C   0  0  0  0  0  0  0  0  0  0  0  0
  -11.3960   19.8760    3.2480 C   0  0  0  0  0  0  0  0  0  0  0  0
  -10.6810   18.6650    2.7250 C   0  0  0  0  0  0  0  0  0  0  0  0
   -9.1080   17.6100    8.0270 C   0  0  0  0  0  0  0  0  0  0  0  0
   -9.2170   17.1250    9.3300 C   0  0  0  0  0  0  0  0  0  0  0  0
   -8.1310   18.3920   12.3290 N   0  0  0  0  0  0  0  0  0  0  0  0
   -4.1540   18.4800   13.1650 N   0  0  0  0  0  0  0  0  0  0  0  0
   -2.8310   18.6350   13.2530 N   0  0  0  0  0  0  0  0  0  0  0  0
   -0.9982   20.6427   14.1422 H   0  0  0  0  0  0  0  0  0  0  0  0
   -0.5557   19.8556   12.5894 H   0  0  0  0  0  0  0  0  0  0  0  0
   -1.2696   21.5040   12.5894 H   0  0  0  0  0  0  0  0  0  0  0  0
   -3.9992   21.6387   12.4120 H   0  0  0  0  0  0  0  0  0  0  0  0
   -6.3920   20.0730   11.5270 H   0  0  0  0  0  0  0  0  0  0  0  0
   -6.4551   19.2092   15.1110 H   0  0  0  0  0  0  0  0  0  0  0  0
   -8.4096   15.7861   16.2731 H   0  0  0  0  0  0  0  0  0  0  0  0
   -6.8585   16.5522   16.8512 H   0  0  0  0  0  0  0  0  0  0  0  0
   -9.1908   15.5790   18.3991 H   0  0  0  0  0  0  0  0  0  0  0  0
   -7.4698   15.8560   18.8923 H   0  0  0  0  0  0  0  0  0  0  0  0
   -9.6700   17.8090   18.7210 H   0  0  0  0  0  0  0  0  0  0  0  0
   -8.3379   18.1231   21.1205 H   0  0  0  0  0  0  0  0  0  0  0  0
   -9.9643   17.4102   20.8498 H   0  0  0  0  0  0  0  0  0  0  0  0
   -8.5101   16.3557   20.8498 H   0  0  0  0  0  0  0  0  0  0  0  0
   -8.0555   19.5714   19.3640 H   0  0  0  0  0  0  0  0  0  0  0  0
   -6.7740   18.3783   18.9492 H   0  0  0  0  0  0  0  0  0  0  0  0
   -8.6906   19.8660   17.1543 H   0  0  0  0  0  0  0  0  0  0  0  0
   -6.9656   19.3495   16.8813 H   0  0  0  0  0  0  0  0  0  0  0  0
  -10.9734   19.6968   10.7226 H   0  0  0  0  0  0  0  0  0  0  0  0
  -10.6643   20.6159    8.4185 H   0  0  0  0  0  0  0  0  0  0  0  0
   -9.3410   20.2070    6.1610 H   0  0  0  0  0  0  0  0  0  0  0  0
   -9.2417   19.7174    4.3514 H   0  0  0  0  0  0  0  0  0  0  0  0
  -12.4070   19.7774    3.6701 H   0  0  0  0  0  0  0  0  0  0  0  0
  -11.6641   20.8588    2.8331 H   0  0  0  0  0  0  0  0  0  0  0  0
  -11.1684   17.6796    2.7642 H   0  0  0  0  0  0  0  0  0  0  0  0
  -10.2091   18.3945    1.7689 H   0  0  0  0  0  0  0  0  0  0  0  0
   -8.5527   17.0325    7.2733 H   0  0  0  0  0  0  0  0  0  0  0  0
   -8.7146   16.1879    9.6120 H   0  0  0  0  0  0  0  0  0  0  0  0
   -8.1460   18.4830   11.3190 H   0  0  0  0  0  0  0  0  0  0  0  0
   -4.5420   17.5910   13.4570 H   0  0  0  0  0  0  0  0  0  0  0  0
  1  2  1  0
  2  3  1  0
  3  4  2  0
  4  5  1  0
  5  6  1  0
  6  7  2  0
  7  8  1  0
  8  9  1  0
  9 10  1  0
 10 11  1  0
 11 12  1  0
 12 13  1  0
 12 14  1  0
 14 15  1  0
  8 16  2  0
 16 17  1  0
 17 18  1  0
 18 19  1  0
 19 20  2  0
 20 21  1  0
 21 22  2  0
 22 23  1  0
 23 24  1  0
 24 25  2  0
 24 26  1  0
 26 27  1  0
 27 28  1  0
 22 29  1  0
 29 30  2  0
 17 31  2  0
  4 32  1  0
 32 33  1  0
 33  2  2  0
 31  6  1  0
 15  9  1  0
 30 19  1  0
 28 26  1  0
  1 34  1  0
  1 35  1  0
  1 36  1  0
  3 37  1  0
  5 38  1  0
  7 39  1  0
 10 40  1  0
 10 41  1  0
 11 42  1  0
 11 43  1  0
 12 44  1  0
 13 45  1  0
 13 46  1  0
 13 47  1  0
 14 48  1  0
 14 49  1  0
 15 50  1  0
 15 51  1  0
 20 52  1  0
 21 53  1  0
 23 54  1  0
 26 55  1  0
 27 56  1  0
 27 57  1  0
 28 58  1  0
 28 59  1  0
 29 60  1  0
 30 61  1  0
 31 62  1  0
 32 63  1  0
M  CHG  2  12   1  31   1
M  END
>  <meeko>  (2) 
{"is_sidechain": [false], "free_energy": -8.971, "intermolecular_energy": -12.774, "internal_energy": -0.579}

$$$$
3e5a_ligand
     RDKit          3D

 63 67  0  0  0  0  0  0  0  0999 V2000
   -7.1090   17.4930   20.4790 C   0  0  0  0  0  0  0  0  0  0  0  0
   -7.7180   17.1630   19.1670 C   0  0  0  0  0  0  0  0  0  0  0  0
   -7.8300   17.9860   18.0190 C   0  0  0  0  0  0  0  0  0  0  0  0
   -8.4320   17.1980   17.0640 C   0  0  0  0  0  0  0  0  0  0  0  0
   -8.7660   17.4710   15.7770 N   0  0  0  0  0  0  0  0  0  0  0  0
   -8.1280   18.3670   14.9060 C   0  0  0  0  0  0  0  0  0  0  0  0
   -6.7300   18.4890   14.7840 C   0  0  0  0  0  0  0  0  0  0  0  0
   -6.1830   19.4010   13.8920 C   0  0  0  0  0  0  0  0  0  0  0  0
   -4.7950   19.5440   13.7200 N   0  0  0  0  0  0  0  0  0  0  0  0
   -4.3980   20.8570   13.1250 C   0  0  0  0  0  0  0  0  0  0  0  0
   -2.9130   20.9050   12.6920 C   0  0  0  0  0  0  0  0  0  0  0  0
   -2.1120   19.7710   13.3190 N   0  0  0  0  0  0  0  0  0  0  0  0
   -0.6380   19.9340   13.1030 C   0  0  0  0  0  0  0  0  0  0  0  0
   -2.4910   19.5890   14.7700 C   0  0  0  0  0  0  0  0  0  0  0  0
   -3.9620   19.1080   14.8740 C   0  0  0  0  0  0  0  0  0  0  0  0
   -7.0020   20.1400   13.1380 N   0  0  0  0  0  0  0  0  0  0  0  0
   -8.3380   20.0020   13.2750 C   0  0  0  0  0  0  0  0  0  0  0  0
   -9.4320   20.9930   12.2790 S   0  0  0  0  0  0  0  0  0  0  0  0
   -9.8080   19.8530   10.9550 C   0  0  0  0  0  0  0  0  0  0  0  0
   -9.3660   18.5290   11.0190 C   0  0  0  0  0  0  0  0  0  0  0  0
   -9.4690   17.6970    9.8970 C   0  0  0  0  0  0  0  0  0  0  0  0
   -9.9690   18.2060    8.6970 C   0  0  0  0  0  0  0  0  0  0  0  0
   -9.9010   17.4070    7.5440 N   0  0  0  0  0  0  0  0  0  0  0  0
   -8.8700   17.4510    6.6270 C   0  0  0  0  0  0  0  0  0  0  0  0
   -7.8160   18.0700    6.7490 O   0  0  0  0  0  0  0  0  0  0  0  0
   -9.0700   16.5510    5.4620 C   0  0  0  0  0  0  0  0  0  0  0  0
   -9.5480   17.1280    4.1500 C   0  0  0  0  0  0  0  0  0  0  0  0
  -10.4540   16.2340    4.9450 C   0  0  0  0  0  0  0  0  0  0  0  0
  -10.5120   19.4910    8.6690 C   0  0  0  0  0  0  0  0  0  0  0  0
  -10.4570   20.3040    9.8010 C   0  0  0  0  0  0  0  0  0  0  0  0
   -8.8890   19.1520   14.1370 N   0  0  0  0  0  0  0  0  0  0  0  0
   -8.7680   16.0420   17.7230 N   0  0  0  0  0  0  0  0  0  0  0  0
   -8.2470   15.9540   18.9500 N   0  0  0  0  0  0  0  0  0  0  0  0
   -7.7648   17.1376   21.2874 H   0  0  0  0  0  0  0  0  0  0  0  0
   -6.1274   17.0034   20.5612 H   0  0  0  0  0  0  0  0  0  0  0  0
   -6.9832   18.5827   20.5612 H   0  0  0  0  0  0  0  0  0  0  0  0
   -7.5052   19.0316   17.9134 H   0  0  0  0  0  0  0  0  0  0  0  0
   -9.6840   17.1390   15.4830 H   0  0  0  0  0  0  0  0  0  0  0  0
   -6.0693   17.8592   15.3979 H   0  0  0  0  0  0  0  0  0  0  0  0
   -5.0261   21.0450   12.2418 H   0  0  0  0  0  0  0  0  0  0  0  0
   -4.5375   21.6237   13.9014 H   0  0  0  0  0  0  0  0  0  0  0  0
   -2.8570   20.8192   11.5968 H   0  0  0  0  0  0  0  0  0  0  0  0
   -2.4848   21.8594   13.0323 H   0  0  0  0  0  0  0  0  0  0  0  0
   -2.4140   18.9200   12.8250 H   0  0  0  0  0  0  0  0  0  0  0  0
   -0.1288   19.9903   14.0764 H   0  0  0  0  0  0  0  0  0  0  0  0
   -0.2529   19.0730   12.5370 H   0  0  0  0  0  0  0  0  0  0  0  0
   -0.4504   20.8584   12.5370 H   0  0  0  0  0  0  0  0  0  0  0  0
   -1.8289   18.8400   15.2289 H   0  0  0  0  0  0  0  0  0  0  0  0
   -2.3856   20.5496   15.2955 H   0  0  0  0  0  0  0  0  0  0  0  0
   -3.9700   18.0089   14.9177 H   0  0  0  0  0  0  0  0  0  0  0  0
   -4.3933   19.5559   15.7814 H   0  0  0  0  0  0  0  0  0  0  0  0
   -8.9359   18.1390   11.9533 H   0  0  0  0  0  0  0  0  0  0  0  0
   -9.1565   16.6443    9.9612 H   0  0  0  0  0  0  0  0  0  0  0  0
  -10.5430   16.6250    7.4690 H   0  0  0  0  0  0  0  0  0  0  0  0
   -8.2144   15.9447    5.7943 H   0  0  0  0  0  0  0  0  0  0  0  0
   -9.7684   18.2027    4.0703 H   0  0  0  0  0  0  0  0  0  0  0  0
   -9.1682   17.1285    3.1177 H   0  0  0  0  0  0  0  0  0  0  0  0
  -11.3377   16.6542    5.4474 H   0  0  0  0  0  0  0  0  0  0  0  0
  -11.0117   15.3093    4.7354 H   0  0  0  0  0  0  0  0  0  0  0  0
  -10.9859   19.8648    7.7494 H   0  0  0  0  0  0  0  0  0  0  0  0
  -10.9240   21.2998    9.7862 H   0  0  0  0  0  0  0  0  0  0  0  0
   -9.9010   19.1040   14.1640 H   0  0  0  0  0  0  0  0  0  0  0  0
   -9.3430   15.2720   17.4030 H   0  0  0  0  0  0  0  0  0  0  0  0
  1  2  1  0
  2  3  1  0
  3  4  2  0
  4  5  1  0
  5  6  1  0
  6  7  2  0
  7  8  1  0
  8  9  1  0
  9 10  1  0
 10 11  1  0
 11 12  1  0
 12 13  1  0
 12 14  1  0
 14 15  1  0
  8 16  2  0
 16 17  1  0
 17 18  1  0
 18 19  1  0
 19 20  2  0
 20 21  1  0
 21 22  2  0
 22 23  1  0
 23 24  1  0
 24 25  2  0
 24 26  1  0
 26 27  1  0
 27 28  1  0
 22 29  1  0
 29 30  2  0
 17 31  2  0
  4 32  1  0
 32 33  1  0
 33  2  2  0
 31  6  1  0
 15  9  1  0
 30 19  1  0
 28 26  1  0
  1 34  1  0
  1 35  1  0
  1 36  1  0
  3 37  1  0
  5 38  1  0
  7 39  1  0
 10 40  1  0
 10 41  1  0
 11 42  1  0
 11 43  1  0
 12 44  1  0
 13 45  1  0
 13 46  1  0
 13 47  1  0
 14 48  1  0
 14 49  1  0
 15 50  1  0
 15 51  1  0
 20 52  1  0
 21 53  1  0
 23 54  1  0
 26 55  1  0
 27 56  1  0
 27 57  1  0
 28 58  1  0
 28 59  1  0
 29 60  1  0
 30 61  1  0
 31 62  1  0
 32 63  1  0
M  CHG  2  12   1  31   1
M  END
>  <meeko>  (3) 
{"is_sidechain": [false], "free_energy": -8.899, "intermolecular_energy": -12.458, "internal_energy": -0.794}

$$$$
3e5a_ligand
     RDKit          3D

 63 67  0  0  0  0  0  0  0  0999 V2000
   -0.1140   19.5460   14.0450 C   0  0  0  0  0  0  0  0  0  0  0  0
   -1.3880   19.9340   13.3900 C   0  0  0  0  0  0  0  0  0  0  0  0
   -2.6120   19.2220   13.3590 C   0  0  0  0  0  0  0  0  0  0  0  0
   -3.4850   20.0290   12.6650 C   0  0  0  0  0  0  0  0  0  0  0  0
   -4.7930   19.8490   12.3500 N   0  0  0  0  0  0  0  0  0  0  0  0
   -5.8430   19.5410   13.2290 C   0  0  0  0  0  0  0  0  0  0  0  0
   -5.6610   19.1490   14.5690 C   0  0  0  0  0  0  0  0  0  0  0  0
   -6.7600   18.8670   15.3690 C   0  0  0  0  0  0  0  0  0  0  0  0
   -6.6300   18.4910   16.7190 N   0  0  0  0  0  0  0  0  0  0  0  0
   -6.1960   19.6090   17.6110 C   0  0  0  0  0  0  0  0  0  0  0  0
   -5.7970   19.1350   19.0300 C   0  0  0  0  0  0  0  0  0  0  0  0
   -6.3040   17.7270   19.3100 N   0  0  0  0  0  0  0  0  0  0  0  0
   -6.1340   17.3420   20.7480 C   0  0  0  0  0  0  0  0  0  0  0  0
   -7.7180   17.5580   18.8060 C   0  0  0  0  0  0  0  0  0  0  0  0
   -7.7420   17.6610   17.2580 C   0  0  0  0  0  0  0  0  0  0  0  0
   -7.9860   18.9970   14.8550 N   0  0  0  0  0  0  0  0  0  0  0  0
   -8.1310   19.3760   13.5670 C   0  0  0  0  0  0  0  0  0  0  0  0
   -9.7640   19.5400   12.8760 S   0  0  0  0  0  0  0  0  0  0  0  0
   -9.5370   18.7580   11.2850 C   0  0  0  0  0  0  0  0  0  0  0  0
   -9.2810   19.5330   10.1500 C   0  0  0  0  0  0  0  0  0  0  0  0
   -9.3190   18.9500    8.8770 C   0  0  0  0  0  0  0  0  0  0  0  0
   -9.6600   17.6030    8.7380 C   0  0  0  0  0  0  0  0  0  0  0  0
   -9.8610   17.0880    7.4460 N   0  0  0  0  0  0  0  0  0  0  0  0
   -8.8450   16.7010    6.5970 C   0  0  0  0  0  0  0  0  0  0  0  0
   -7.6540   16.6130    6.8830 O   0  0  0  0  0  0  0  0  0  0  0  0
   -9.3220   16.2520    5.2640 C   0  0  0  0  0  0  0  0  0  0  0  0
   -9.6180   17.2790    4.1950 C   0  0  0  0  0  0  0  0  0  0  0  0
  -10.7430   16.5020    4.8140 C   0  0  0  0  0  0  0  0  0  0  0  0
   -9.8050   16.8100    9.8760 C   0  0  0  0  0  0  0  0  0  0  0  0
   -9.7170   17.3790   11.1470 C   0  0  0  0  0  0  0  0  0  0  0  0
   -7.0960   19.6320   12.7720 N   0  0  0  0  0  0  0  0  0  0  0  0
   -2.7140   21.0700   12.2090 N   0  0  0  0  0  0  0  0  0  0  0  0
   -1.4840   21.0930   12.7290 N   0  0  0  0  0  0  0  0  0  0  0  0
   -0.2371   19.5835   15.1374 H   0  0  0  0  0  0  0  0  0  0  0  0
    0.1580   18.5243   13.7415 H   0  0  0  0  0  0  0  0  0  0  0  0
    0.6813   20.2426   13.7415 H   0  0  0  0  0  0  0  0  0  0  0  0
   -2.8206   18.2345   13.7964 H   0  0  0  0  0  0  0  0  0  0  0  0
   -4.9930   19.7340   11.3570 H   0  0  0  0  0  0  0  0  0  0  0  0
   -4.6453   19.0660   14.9831 H   0  0  0  0  0  0  0  0  0  0  0  0
   -5.3292   20.1068   17.1517 H   0  0  0  0  0  0  0  0  0  0  0  0
   -7.0520   20.2908   17.7219 H   0  0  0  0  0  0  0  0  0  0  0  0
   -4.7003   19.1436   19.1147 H   0  0  0  0  0  0  0  0  0  0  0  0
   -6.2513   19.8180   19.7629 H   0  0  0  0  0  0  0  0  0  0  0  0
   -5.7110   17.1070   18.7420 H   0  0  0  0  0  0  0  0  0  0  0  0
   -6.4944   18.1583   21.3912 H   0  0  0  0  0  0  0  0  0  0  0  0
   -6.7130   16.4297   20.9543 H   0  0  0  0  0  0  0  0  0  0  0  0
   -5.0698   17.1553   20.9543 H   0  0  0  0  0  0  0  0  0  0  0  0
   -8.0991   16.5726   19.1120 H   0  0  0  0  0  0  0  0  0  0  0  0
   -8.3516   18.3500   19.2318 H   0  0  0  0  0  0  0  0  0  0  0  0
   -7.6609   16.6481   16.8368 H   0  0  0  0  0  0  0  0  0  0  0  0
   -8.6869   18.1465   16.9724 H   0  0  0  0  0  0  0  0  0  0  0  0
   -9.0492   20.6030   10.2569 H   0  0  0  0  0  0  0  0  0  0  0  0
   -9.0806   19.5524    7.9880 H   0  0  0  0  0  0  0  0  0  0  0  0
  -10.8010   16.8100    7.1880 H   0  0  0  0  0  0  0  0  0  0  0  0
   -8.6868   15.3578    5.3477 H   0  0  0  0  0  0  0  0  0  0  0  0
   -9.5036   18.3505    4.4159 H   0  0  0  0  0  0  0  0  0  0  0  0
   -9.2678   17.4526    3.1668 H   0  0  0  0  0  0  0  0  0  0  0  0
  -11.4522   17.0047    5.4880 H   0  0  0  0  0  0  0  0  0  0  0  0
  -11.5568   15.8717    4.4262 H   0  0  0  0  0  0  0  0  0  0  0  0
   -9.9896   15.7307    9.7711 H   0  0  0  0  0  0  0  0  0  0  0  0
   -9.7893   16.7419   12.0408 H   0  0  0  0  0  0  0  0  0  0  0  0
   -7.2970   19.9230   11.8220 H   0  0  0  0  0  0  0  0  0  0  0  0
   -2.9570   21.7990   11.5500 H   0  0  0  0  0  0  0  0  0  0  0  0
  1  2  1  0
  2  3  1  0
  3  4  2  0
  4  5  1  0
  5  6  1  0
  6  7  2  0
  7  8  1  0
  8  9  1  0
  9 10  1  0
 10 11  1  0
 11 12  1  0
 12 13  1  0
 12 14  1  0
 14 15  1  0
  8 16  2  0
 16 17  1  0
 17 18  1  0
 18 19  1  0
 19 20  2  0
 20 21  1  0
 21 22  2  0
 22 23  1  0
 23 24  1  0
 24 25  2  0
 24 26  1  0
 26 27  1  0
 27 28  1  0
 22 29  1  0
 29 30  2  0
 17 31  2  0
  4 32  1  0
 32 33  1  0
 33  2  2  0
 31  6  1  0
 15  9  1  0
 30 19  1  0
 28 26  1  0
  1 34  1  0
  1 35  1  0
  1 36  1  0
  3 37  1  0
  5 38  1  0
  7 39  1  0
 10 40  1  0
 10 41  1  0
 11 42  1  0
 11 43  1  0
 12 44  1  0
 13 45  1  0
 13 46  1  0
 13 47  1  0
 14 48  1  0
 14 49  1  0
 15 50  1  0
 15 51  1  0
 20 52  1  0
 21 53  1  0
 23 54  1  0
 26 55  1  0
 27 56  1  0
 27 57  1  0
 28 58  1  0
 28 59  1  0
 29 60  1  0
 30 61  1  0
 31 62  1  0
 32 63  1  0
M  CHG  2  12   1  31   1
M  END
>  <meeko>  (4) 
{"is_sidechain": [false], "free_energy": -8.815, "intermolecular_energy": -12.435, "internal_energy": -0.699}

$$$$
3e5a_ligand
     RDKit          3D

 63 67  0  0  0  0  0  0  0  0999 V2000
   -2.0840   20.8410   12.6680 C   0  0  0  0  0  0  0  0  0  0  0  0
   -3.3700   20.1210   12.8380 C   0  0  0  0  0  0  0  0  0  0  0  0
   -4.6680   20.6670   13.0000 C   0  0  0  0  0  0  0  0  0  0  0  0
   -5.5120   19.5820   13.0720 C   0  0  0  0  0  0  0  0  0  0  0  0
   -6.8610   19.5230   13.2130 N   0  0  0  0  0  0  0  0  0  0  0  0
   -7.5920   18.6380   14.0210 C   0  0  0  0  0  0  0  0  0  0  0  0
   -7.4640   18.5580   15.4210 C   0  0  0  0  0  0  0  0  0  0  0  0
   -8.2320   17.6540   16.1420 C   0  0  0  0  0  0  0  0  0  0  0  0
   -8.1540   17.5520   17.5430 N   0  0  0  0  0  0  0  0  0  0  0  0
   -8.3720   16.1630   18.0530 C   0  0  0  0  0  0  0  0  0  0  0  0
   -8.5520   16.1020   19.5900 C   0  0  0  0  0  0  0  0  0  0  0  0
   -8.0820   17.3860   20.2580 N   0  0  0  0  0  0  0  0  0  0  0  0
   -8.0290   17.2600   21.7510 C   0  0  0  0  0  0  0  0  0  0  0  0
   -6.7830   17.8610   19.6490 C   0  0  0  0  0  0  0  0  0  0  0  0
   -7.0140   18.2730   18.1710 C   0  0  0  0  0  0  0  0  0  0  0  0
   -9.1070   16.8830   15.4900 N   0  0  0  0  0  0  0  0  0  0  0  0
   -9.2100   16.9810   14.1480 C   0  0  0  0  0  0  0  0  0  0  0  0
  -10.3680   15.9470   13.2750 S   0  0  0  0  0  0  0  0  0  0  0  0
  -10.4960   16.8210   11.7220 C   0  0  0  0  0  0  0  0  0  0  0  0
   -9.9050   16.2980   10.5680 C   0  0  0  0  0  0  0  0  0  0  0  0
   -9.8160   17.0760    9.4070 C   0  0  0  0  0  0  0  0  0  0  0  0
  -10.2740   18.3950    9.4170 C   0  0  0  0  0  0  0  0  0  0  0  0
  -10.0170   19.2070    8.3000 N   0  0  0  0  0  0  0  0  0  0  0  0
  -10.0950   18.7770    6.9910 C   0  0  0  0  0  0  0  0  0  0  0  0
  -10.5310   17.6950    6.6070 O   0  0  0  0  0  0  0  0  0  0  0  0
   -9.7100   19.8140    6.0000 C   0  0  0  0  0  0  0  0  0  0  0  0
  -10.7880   20.5640    5.2510 C   0  0  0  0  0  0  0  0  0  0  0  0
   -9.9080   19.5950    4.5180 C   0  0  0  0  0  0  0  0  0  0  0  0
  -10.9620   18.8740   10.5320 C   0  0  0  0  0  0  0  0  0  0  0  0
  -11.0970   18.0820   11.6710 C   0  0  0  0  0  0  0  0  0  0  0  0
   -8.4720   17.8230   13.4290 N   0  0  0  0  0  0  0  0  0  0  0  0
   -4.6810   18.4900   13.0990 N   0  0  0  0  0  0  0  0  0  0  0  0
   -3.4030   18.7840   12.8420 N   0  0  0  0  0  0  0  0  0  0  0  0
   -1.6625   21.0770   13.6562 H   0  0  0  0  0  0  0  0  0  0  0  0
   -1.3793   20.2062   12.1109 H   0  0  0  0  0  0  0  0  0  0  0  0
   -2.2568   21.7736   12.1109 H   0  0  0  0  0  0  0  0  0  0  0  0
   -4.9423   21.7308   13.0562 H   0  0  0  0  0  0  0  0  0  0  0  0
   -7.3970   20.0400   12.5180 H   0  0  0  0  0  0  0  0  0  0  0  0
   -6.7532   19.2139   15.9450 H   0  0  0  0  0  0  0  0  0  0  0  0
   -9.2757   15.7534   17.5781 H   0  0  0  0  0  0  0  0  0  0  0  0
   -7.4747   15.5774   17.8041 H   0  0  0  0  0  0  0  0  0  0  0  0
   -9.6169   15.9488   19.8194 H   0  0  0  0  0  0  0  0  0  0  0  0
   -7.9447   15.2700   19.9758 H   0  0  0  0  0  0  0  0  0  0  0  0
   -8.7940   18.0910   20.0240 H   0  0  0  0  0  0  0  0  0  0  0  0
   -8.4165   18.1812   22.2107 H   0  0  0  0  0  0  0  0  0  0  0  0
   -8.6437   16.4050   22.0689 H   0  0  0  0  0  0  0  0  0  0  0  0
   -6.9879   17.1014   22.0689 H   0  0  0  0  0  0  0  0  0  0  0  0
   -6.4095   18.7270   20.2152 H   0  0  0  0  0  0  0  0  0  0  0  0
   -6.0450   17.0462   19.6874 H   0  0  0  0  0  0  0  0  0  0  0  0
   -7.2187   19.3532   18.1351 H   0  0  0  0  0  0  0  0  0  0  0  0
   -6.1059   18.0109   17.6083 H   0  0  0  0  0  0  0  0  0  0  0  0
   -9.5086   15.2719   10.5720 H   0  0  0  0  0  0  0  0  0  0  0  0
   -9.3861   16.6488    8.4890 H   0  0  0  0  0  0  0  0  0  0  0  0
   -9.9500   20.2080    8.4470 H   0  0  0  0  0  0  0  0  0  0  0  0
   -8.8501   20.0845    6.6304 H   0  0  0  0  0  0  0  0  0  0  0  0
  -11.8470   20.3220    5.4240 H   0  0  0  0  0  0  0  0  0  0  0  0
  -11.0503   21.6246    5.1232 H   0  0  0  0  0  0  0  0  0  0  0  0
  -10.3227   18.6434    4.1540 H   0  0  0  0  0  0  0  0  0  0  0  0
   -9.2596   19.6528    3.6313 H   0  0  0  0  0  0  0  0  0  0  0  0
  -11.4005   19.8826   10.5122 H   0  0  0  0  0  0  0  0  0  0  0  0
  -11.6769   18.4496   12.5304 H   0  0  0  0  0  0  0  0  0  0  0  0
   -8.6240   17.8400   12.4280 H   0  0  0  0  0  0  0  0  0  0  0  0
   -4.9100   17.5210   13.2830 H   0  0  0  0  0  0  0  0  0  0  0  0
  1  2  1  0
  2  3  1  0
  3  4  2  0
  4  5  1  0
  5  6  1  0
  6  7  2  0
  7  8  1  0
  8  9  1  0
  9 10  1  0
 10 11  1  0
 11 12  1  0
 12 13  1  0
 12 14  1  0
 14 15  1  0
  8 16  2  0
 16 17  1  0
 17 18  1  0
 18 19  1  0
 19 20  2  0
 20 21  1  0
 21 22  2  0
 22 23  1  0
 23 24  1  0
 24 25  2  0
 24 26  1  0
 26 27  1  0
 27 28  1  0
 22 29  1  0
 29 30  2  0
 17 31  2  0
  4 32  1  0
 32 33  1  0
 33  2  2  0
 31  6  1  0
 15  9  1  0
 30 19  1  0
 28 26  1  0
  1 34  1  0
  1 35  1  0
  1 36  1  0
  3 37  1  0
  5 38  1  0
  7 39  1  0
 10 40  1  0
 10 41  1  0
 11 42  1  0
 11 43  1  0
 12 44  1  0
 13 45  1  0
 13 46  1  0
 13 47  1  0
 14 48  1  0
 14 49  1  0
 15 50  1  0
 15 51  1  0
 20 52  1  0
 21 53  1  0
 23 54  1  0
 26 55  1  0
 27 56  1  0
 27 57  1  0
 28 58  1  0
 28 59  1  0
 29 60  1  0
 30 61  1  0
 31 62  1  0
 32 63  1  0
M  CHG  2  12   1  31   1
M  END
>  <meeko>  (5) 
{"is_sidechain": [false], "free_energy": -8.739, "intermolecular_energy": -12.581, "internal_energy": -0.444}

$$$$
3e5a_ligand
     RDKit          3D

 63 67  0  0  0  0  0  0  0  0999 V2000
  -10.9210   16.1830   10.9230 C   0  0  0  0  0  0  0  0  0  0  0  0
  -10.5060   15.7380   12.2770 C   0  0  0  0  0  0  0  0  0  0  0  0
   -9.9010   16.5020   13.3050 C   0  0  0  0  0  0  0  0  0  0  0  0
   -9.7600   15.6360   14.3660 C   0  0  0  0  0  0  0  0  0  0  0  0
   -9.2540   15.8390   15.6090 N   0  0  0  0  0  0  0  0  0  0  0  0
   -8.5430   16.9600   16.0640 C   0  0  0  0  0  0  0  0  0  0  0  0
   -7.7160   16.9610   17.2030 C   0  0  0  0  0  0  0  0  0  0  0  0
   -7.0450   18.1170   17.5780 C   0  0  0  0  0  0  0  0  0  0  0  0
   -6.1920   18.1620   18.6950 N   0  0  0  0  0  0  0  0  0  0  0  0
   -5.5510   19.4960   18.9060 C   0  0  0  0  0  0  0  0  0  0  0  0
   -4.4200   19.4680   19.9610 C   0  0  0  0  0  0  0  0  0  0  0  0
   -4.4810   18.2070   20.8120 N   0  0  0  0  0  0  0  0  0  0  0  0
   -3.5470   18.2690   21.9820 C   0  0  0  0  0  0  0  0  0  0  0  0
   -5.9080   17.8920   21.1970 C   0  0  0  0  0  0  0  0  0  0  0  0
   -6.7270   17.5280   19.9310 C   0  0  0  0  0  0  0  0  0  0  0  0
   -7.1790   19.2160   16.8300 N   0  0  0  0  0  0  0  0  0  0  0  0
   -7.9790   19.1860   15.7420 C   0  0  0  0  0  0  0  0  0  0  0  0
   -8.1680   20.6520   14.7490 S   0  0  0  0  0  0  0  0  0  0  0  0
   -8.4950   19.9330   13.1460 C   0  0  0  0  0  0  0  0  0  0  0  0
   -7.4820   19.2630   12.4540 C   0  0  0  0  0  0  0  0  0  0  0  0
   -7.6690   18.8910   11.1170 C   0  0  0  0  0  0  0  0  0  0  0  0
   -8.8520   19.2330   10.4580 C   0  0  0  0  0  0  0  0  0  0  0  0
   -8.9450   19.0050    9.0760 N   0  0  0  0  0  0  0  0  0  0  0  0
   -8.6250   17.8120    8.4620 C   0  0  0  0  0  0  0  0  0  0  0  0
   -8.3580   16.7530    9.0260 O   0  0  0  0  0  0  0  0  0  0  0  0
   -8.7480   17.8510    6.9820 C   0  0  0  0  0  0  0  0  0  0  0  0
   -9.9510   17.2220    6.3180 C   0  0  0  0  0  0  0  0  0  0  0  0
   -8.5960   16.6000    6.1480 C   0  0  0  0  0  0  0  0  0  0  0  0
   -9.9010   19.8010   11.1820 C   0  0  0  0  0  0  0  0  0  0  0  0
   -9.7350   20.1260   12.5280 C   0  0  0  0  0  0  0  0  0  0  0  0
   -8.6500   18.0990   15.3720 N   0  0  0  0  0  0  0  0  0  0  0  0
  -10.1380   14.4120   13.8730 N   0  0  0  0  0  0  0  0  0  0  0  0
  -10.6970   14.4720   12.6620 N   0  0  0  0  0  0  0  0  0  0  0  0
  -11.6687   16.9847   11.0137 H   0  0  0  0  0  0  0  0  0  0  0  0
  -10.0441   16.5596   10.3760 H   0  0  0  0  0  0  0  0  0  0  0  0
  -11.3578   15.3345   10.3760 H   0  0  0  0  0  0  0  0  0  0  0  0
   -9.6067   17.5611   13.2643 H   0  0  0  0  0  0  0  0  0  0  0  0
   -9.2200   15.0150   16.2080 H   0  0  0  0  0  0  0  0  0  0  0  0
   -7.6010   16.0429   17.7979 H   0  0  0  0  0  0  0  0  0  0  0  0
   -5.1283   19.8361   17.9491 H   0  0  0  0  0  0  0  0  0  0  0  0
   -6.3295   20.1777   19.2791 H   0  0  0  0  0  0  0  0  0  0  0  0
   -3.4492   19.5043   19.4451 H   0  0  0  0  0  0  0  0  0  0  0  0
   -4.5446   20.3374   20.6233 H   0  0  0  0  0  0  0  0  0  0  0  0
   -4.1670   17.4470   20.1940 H   0  0  0  0  0  0  0  0  0  0  0  0
   -4.1265   18.2305   22.9162 H   0  0  0  0  0  0  0  0  0  0  0  0
   -2.8549   17.4148   21.9444 H   0  0  0  0  0  0  0  0  0  0  0  0
   -2.9739   19.2072   21.9444 H   0  0  0  0  0  0  0  0  0  0  0  0
   -5.9185   17.0421   21.8953 H   0  0  0  0  0  0  0  0  0  0  0  0
   -6.3568   18.7735   21.6782 H   0  0  0  0  0  0  0  0  0  0  0  0
   -6.7078   16.4357   19.8022 H   0  0  0  0  0  0  0  0  0  0  0  0
   -7.7501   17.9038   20.0794 H   0  0  0  0  0  0  0  0  0  0  0  0
   -6.5349   19.0272   12.9613 H   0  0  0  0  0  0  0  0  0  0  0  0
   -6.8853   18.3302   10.5865 H   0  0  0  0  0  0  0  0  0  0  0  0
   -9.4480   19.6840    8.5150 H   0  0  0  0  0  0  0  0  0  0  0  0
   -8.2701   18.8418    6.9781 H   0  0  0  0  0  0  0  0  0  0  0  0
  -10.7144   16.7175    6.9286 H   0  0  0  0  0  0  0  0  0  0  0  0
  -10.7337   17.5778    5.6318 H   0  0  0  0  0  0  0  0  0  0  0  0
   -8.3673   15.6401    6.6341 H   0  0  0  0  0  0  0  0  0  0  0  0
   -7.9764   16.3121    5.2859 H   0  0  0  0  0  0  0  0  0  0  0  0
  -10.8648   19.9936   10.6880 H   0  0  0  0  0  0  0  0  0  0  0  0
  -10.5790   20.5340   13.1036 H   0  0  0  0  0  0  0  0  0  0  0  0
   -9.2160   18.1630   14.5340 H   0  0  0  0  0  0  0  0  0  0  0  0
  -10.0480   13.4990   14.3020 H   0  0  0  0  0  0  0  0  0  0  0  0
  1  2  1  0
  2  3  1  0
  3  4  2  0
  4  5  1  0
  5  6  1  0
  6  7  2  0
  7  8  1  0
  8  9  1  0
  9 10  1  0
 10 11  1  0
 11 12  1  0
 12 13  1  0
 12 14  1  0
 14 15  1  0
  8 16  2  0
 16 17  1  0
 17 18  1  0
 18 19  1  0
 19 20  2  0
 20 21  1  0
 21 22  2  0
 22 23  1  0
 23 24  1  0
 24 25  2  0
 24 26  1  0
 26 27  1  0
 27 28  1  0
 22 29  1  0
 29 30  2  0
 17 31  2  0
  4 32  1  0
 32 33  1  0
 33  2  2  0
 31  6  1  0
 15  9  1  0
 30 19  1  0
 28 26  1  0
  1 34  1  0
  1 35  1  0
  1 36  1  0
  3 37  1  0
  5 38  1  0
  7 39  1  0
 10 40  1  0
 10 41  1  0
 11 42  1  0
 11 43  1  0
 12 44  1  0
 13 45  1  0
 13 46  1  0
 13 47  1  0
 14 48  1  0
 14 49  1  0
 15 50  1  0
 15 51  1  0
 20 52  1  0
 21 53  1  0
 23 54  1  0
 26 55  1  0
 27 56  1  0
 27 57  1  0
 28 58  1  0
 28 59  1  0
 29 60  1  0
 30 61  1  0
 31 62  1  0
 32 63  1  0
M  CHG  2  12   1  31   1
M  END
>  <meeko>  (6) 
{"is_sidechain": [false], "free_energy": -8.736, "intermolecular_energy": -12.296, "internal_energy": -0.725}

$$$$
3e5a_ligand
     RDKit          3D

 63 67  0  0  0  0  0  0  0  0999 V2000
  -10.9130   14.8670   11.8420 C   0  0  0  0  0  0  0  0  0  0  0  0
  -10.2020   15.7430   12.8060 C   0  0  0  0  0  0  0  0  0  0  0  0
   -9.7900   17.0880   12.6320 C   0  0  0  0  0  0  0  0  0  0  0  0
   -9.2170   17.4500   13.8310 C   0  0  0  0  0  0  0  0  0  0  0  0
   -8.6680   18.6270   14.2250 N   0  0  0  0  0  0  0  0  0  0  0  0
   -7.3730   18.8360   14.7220 C   0  0  0  0  0  0  0  0  0  0  0  0
   -7.0880   19.2300   16.0430 C   0  0  0  0  0  0  0  0  0  0  0  0
   -5.7730   19.4100   16.4510 C   0  0  0  0  0  0  0  0  0  0  0  0
   -5.4380   19.7830   17.7650 N   0  0  0  0  0  0  0  0  0  0  0  0
   -6.0250   18.8880   18.8080 C   0  0  0  0  0  0  0  0  0  0  0  0
   -5.8800   19.4500   20.2430 C   0  0  0  0  0  0  0  0  0  0  0  0
   -4.8470   20.5670   20.3030 N   0  0  0  0  0  0  0  0  0  0  0  0
   -4.5240   20.9630   21.7120 C   0  0  0  0  0  0  0  0  0  0  0  0
   -3.6280   20.2120   19.4830 C   0  0  0  0  0  0  0  0  0  0  0  0
   -4.0080   20.1350   17.9810 C   0  0  0  0  0  0  0  0  0  0  0  0
   -4.7870   19.1800   15.5780 N   0  0  0  0  0  0  0  0  0  0  0  0
   -5.0890   18.8030   14.3170 C   0  0  0  0  0  0  0  0  0  0  0  0
   -3.7780   18.5060   13.1490 S   0  0  0  0  0  0  0  0  0  0  0  0
   -3.2210   20.1750   12.8370 C   0  0  0  0  0  0  0  0  0  0  0  0
   -4.1260   21.1520   12.4110 C   0  0  0  0  0  0  0  0  0  0  0  0
   -3.6620   22.3930   11.9590 C   0  0  0  0  0  0  0  0  0  0  0  0
   -2.2900   22.6390   11.8880 C   0  0  0  0  0  0  0  0  0  0  0  0
   -1.8460   23.8210   11.2710 N   0  0  0  0  0  0  0  0  0  0  0  0
   -2.5640   24.9980   11.2400 C   0  0  0  0  0  0  0  0  0  0  0  0
   -3.6040   25.2310   11.8520 O   0  0  0  0  0  0  0  0  0  0  0  0
   -1.9010   26.0800   10.4670 C   0  0  0  0  0  0  0  0  0  0  0  0
   -0.6830   26.7650   11.0420 C   0  0  0  0  0  0  0  0  0  0  0  0
   -1.9730   27.5210   10.9160 C   0  0  0  0  0  0  0  0  0  0  0  0
   -1.3970   21.7070   12.4180 C   0  0  0  0  0  0  0  0  0  0  0  0
   -1.8610   20.4900   12.9150 C   0  0  0  0  0  0  0  0  0  0  0  0
   -6.3400   18.6430   13.8940 N   0  0  0  0  0  0  0  0  0  0  0  0
   -9.1860   16.2940   14.5700 N   0  0  0  0  0  0  0  0  0  0  0  0
   -9.8750   15.2890   14.0210 N   0  0  0  0  0  0  0  0  0  0  0  0
  -11.5132   14.1275   12.3923 H   0  0  0  0  0  0  0  0  0  0  0  0
  -11.5738   15.4781   11.2096 H   0  0  0  0  0  0  0  0  0  0  0  0
  -10.1790   14.3461   11.2096 H   0  0  0  0  0  0  0  0  0  0  0  0
   -9.9036   17.7098   11.7318 H   0  0  0  0  0  0  0  0  0  0  0  0
   -9.3260   19.3950   14.3560 H   0  0  0  0  0  0  0  0  0  0  0  0
   -7.9101   19.3959   16.7548 H   0  0  0  0  0  0  0  0  0  0  0  0
   -7.0950   18.7531   18.5915 H   0  0  0  0  0  0  0  0  0  0  0  0
   -5.4739   17.9367   18.7714 H   0  0  0  0  0  0  0  0  0  0  0  0
   -6.8526   19.8445   20.5724 H   0  0  0  0  0  0  0  0  0  0  0  0
   -5.5451   18.6345   20.9009 H   0  0  0  0  0  0  0  0  0  0  0  0
   -5.2910   21.3720   19.8400 H   0  0  0  0  0  0  0  0  0  0  0  0
   -5.0612   20.3044   22.4103 H   0  0  0  0  0  0  0  0  0  0  0  0
   -3.4409   20.8699   21.8799 H   0  0  0  0  0  0  0  0  0  0  0  0
   -4.8329   22.0053   21.8799 H   0  0  0  0  0  0  0  0  0  0  0  0
   -2.8556   20.9822   19.6251 H   0  0  0  0  0  0  0  0  0  0  0  0
   -3.2426   19.2351   19.8102 H   0  0  0  0  0  0  0  0  0  0  0  0
   -3.8133   21.1139   17.5186 H   0  0  0  0  0  0  0  0  0  0  0  0
   -3.3989   19.3402   17.5257 H   0  0  0  0  0  0  0  0  0  0  0  0
   -5.2061   20.9448   12.4311 H   0  0  0  0  0  0  0  0  0  0  0  0
   -4.3777   23.1731   11.6602 H   0  0  0  0  0  0  0  0  0  0  0  0
   -0.8720   23.8740   10.9930 H   0  0  0  0  0  0  0  0  0  0  0  0
   -2.1442   25.5511    9.5337 H   0  0  0  0  0  0  0  0  0  0  0  0
   -0.3093   26.4780   12.0360 H   0  0  0  0  0  0  0  0  0  0  0  0
    0.3496   26.9288   10.7001 H   0  0  0  0  0  0  0  0  0  0  0  0
   -2.5438   27.7876   11.8177 H   0  0  0  0  0  0  0  0  0  0  0  0
   -2.2755   28.4673   10.4437 H   0  0  0  0  0  0  0  0  0  0  0  0
   -0.3209   21.9338   12.4438 H   0  0  0  0  0  0  0  0  0  0  0  0
   -1.1568   19.7771   13.3688 H   0  0  0  0  0  0  0  0  0  0  0  0
   -6.4750   18.3440   12.9350 H   0  0  0  0  0  0  0  0  0  0  0  0
   -8.7210   16.1150   15.4510 H   0  0  0  0  0  0  0  0  0  0  0  0
  1  2  1  0
  2  3  1  0
  3  4  2  0
  4  5  1  0
  5  6  1  0
  6  7  2  0
  7  8  1  0
  8  9  1  0
  9 10  1  0
 10 11  1  0
 11 12  1  0
 12 13  1  0
 12 14  1  0
 14 15  1  0
  8 16  2  0
 16 17  1  0
 17 18  1  0
 18 19  1  0
 19 20  2  0
 20 21  1  0
 21 22  2  0
 22 23  1  0
 23 24  1  0
 24 25  2  0
 24 26  1  0
 26 27  1  0
 27 28  1  0
 22 29  1  0
 29 30  2  0
 17 31  2  0
  4 32  1  0
 32 33  1  0
 33  2  2  0
 31  6  1  0
 15  9  1  0
 30 19  1  0
 28 26  1  0
  1 34  1  0
  1 35  1  0
  1 36  1  0
  3 37  1  0
  5 38  1  0
  7 39  1  0
 10 40  1  0
 10 41  1  0
 11 42  1  0
 11 43  1  0
 12 44  1  0
 13 45  1  0
 13 46  1  0
 13 47  1  0
 14 48  1  0
 14 49  1  0
 15 50  1  0
 15 51  1  0
 20 52  1  0
 21 53  1  0
 23 54  1  0
 26 55  1  0
 27 56  1  0
 27 57  1  0
 28 58  1  0
 28 59  1  0
 29 60  1  0
 30 61  1  0
 31 62  1  0
 32 63  1  0
M  CHG  2  12   1  31   1
M  END
>  <meeko>  (7) 
{"is_sidechain": [false], "free_energy": -8.693, "intermolecular_energy": -12.558, "internal_energy": -0.403}

$$$$
3e5a_ligand
     RDKit          3D

 63 67  0  0  0  0  0  0  0  0999 V2000
  -11.0090   14.8260   11.4630 C   0  0  0  0  0  0  0  0  0  0  0  0
  -10.3810   15.3750   12.6900 C   0  0  0  0  0  0  0  0  0  0  0  0
   -9.8650   16.6770   12.9060 C   0  0  0  0  0  0  0  0  0  0  0  0
   -9.4370   16.6860   14.2150 C   0  0  0  0  0  0  0  0  0  0  0  0
   -8.8740   17.6770   14.9510 N   0  0  0  0  0  0  0  0  0  0  0  0
   -8.1240   18.7640   14.4780 C   0  0  0  0  0  0  0  0  0  0  0  0
   -6.7240   18.7510   14.3270 C   0  0  0  0  0  0  0  0  0  0  0  0
   -6.0620   19.8730   13.8470 C   0  0  0  0  0  0  0  0  0  0  0  0
   -4.6680   19.9010   13.6590 N   0  0  0  0  0  0  0  0  0  0  0  0
   -4.1730   21.1700   13.0430 C   0  0  0  0  0  0  0  0  0  0  0  0
   -2.6940   21.0920   12.5950 C   0  0  0  0  0  0  0  0  0  0  0  0
   -1.9810   19.9050   13.2280 N   0  0  0  0  0  0  0  0  0  0  0  0
   -0.5020   19.9440   12.9950 C   0  0  0  0  0  0  0  0  0  0  0  0
   -2.3570   19.7710   14.6850 C   0  0  0  0  0  0  0  0  0  0  0  0
   -3.8610   19.4130   14.8110 C   0  0  0  0  0  0  0  0  0  0  0  0
   -6.7760   20.9520   13.5110 N   0  0  0  0  0  0  0  0  0  0  0  0
   -8.1170   20.9360   13.6660 C   0  0  0  0  0  0  0  0  0  0  0  0
   -9.0700   22.3760   13.2290 S   0  0  0  0  0  0  0  0  0  0  0  0
   -9.9210   21.7870   11.7720 C   0  0  0  0  0  0  0  0  0  0  0  0
   -9.7810   20.4580   11.3620 C   0  0  0  0  0  0  0  0  0  0  0  0
  -10.2650   20.0500   10.1140 C   0  0  0  0  0  0  0  0  0  0  0  0
  -10.8470   20.9850    9.2540 C   0  0  0  0  0  0  0  0  0  0  0  0
  -11.1660   20.5900    7.9440 N   0  0  0  0  0  0  0  0  0  0  0  0
  -10.2420   20.4440    6.9300 C   0  0  0  0  0  0  0  0  0  0  0  0
   -9.0200   20.4930    7.0470 O   0  0  0  0  0  0  0  0  0  0  0  0
  -10.8460   20.0810    5.6220 C   0  0  0  0  0  0  0  0  0  0  0  0
  -10.9540   18.6250    5.2310 C   0  0  0  0  0  0  0  0  0  0  0  0
  -10.0050   19.5260    4.4960 C   0  0  0  0  0  0  0  0  0  0  0  0
  -11.0860   22.2810    9.7100 C   0  0  0  0  0  0  0  0  0  0  0  0
  -10.6490   22.6760   10.9750 C   0  0  0  0  0  0  0  0  0  0  0  0
   -8.7740   19.8830   14.1430 N   0  0  0  0  0  0  0  0  0  0  0  0
   -9.5810   15.3890   14.6400 N   0  0  0  0  0  0  0  0  0  0  0  0
  -10.2510   14.6150   13.7830 N   0  0  0  0  0  0  0  0  0  0  0  0
  -11.8099   14.1258   11.7428 H   0  0  0  0  0  0  0  0  0  0  0  0
  -11.4325   15.6488   10.8682 H   0  0  0  0  0  0  0  0  0  0  0  0
  -10.2502   14.2964   10.8682 H   0  0  0  0  0  0  0  0  0  0  0  0
   -9.8166   17.5041   12.1824 H   0  0  0  0  0  0  0  0  0  0  0  0
   -8.8280   17.5050   15.9550 H   0  0  0  0  0  0  0  0  0  0  0  0
   -6.1528   17.8486   14.5903 H   0  0  0  0  0  0  0  0  0  0  0  0
   -4.7934   21.3973   12.1636 H   0  0  0  0  0  0  0  0  0  0  0  0
   -4.2418   21.9551   13.8103 H   0  0  0  0  0  0  0  0  0  0  0  0
   -2.6571   20.9889   11.5005 H   0  0  0  0  0  0  0  0  0  0  0  0
   -2.1863   22.0124   12.9191 H   0  0  0  0  0  0  0  0  0  0  0  0
   -2.3570   19.0750   12.7480 H   0  0  0  0  0  0  0  0  0  0  0  0
    0.0214   19.9578   13.9624 H   0  0  0  0  0  0  0  0  0  0  0  0
   -0.1969   19.0536   12.4257 H   0  0  0  0  0  0  0  0  0  0  0  0
   -0.2442   20.8493   12.4257 H   0  0  0  0  0  0  0  0  0  0  0  0
   -1.7529   18.9757   15.1460 H   0  0  0  0  0  0  0  0  0  0  0  0
   -2.1677   20.7258   15.1973 H   0  0  0  0  0  0  0  0  0  0  0  0
   -3.9582   18.3189   14.8700 H   0  0  0  0  0  0  0  0  0  0  0  0
   -4.2443   19.9058   15.7167 H   0  0  0  0  0  0  0  0  0  0  0  0
   -9.2883   19.7299   12.0231 H   0  0  0  0  0  0  0  0  0  0  0  0
  -10.1875   18.9955    9.8106 H   0  0  0  0  0  0  0  0  0  0  0  0
  -12.0920   20.2120    7.7740 H   0  0  0  0  0  0  0  0  0  0  0  0
  -11.5412   20.9280    5.7183 H   0  0  0  0  0  0  0  0  0  0  0  0
  -10.5634   17.8456    5.9018 H   0  0  0  0  0  0  0  0  0  0  0  0
  -11.7785   17.9592    4.9361 H   0  0  0  0  0  0  0  0  0  0  0  0
   -8.9196   19.4061    4.6286 H   0  0  0  0  0  0  0  0  0  0  0  0
   -9.8476   19.7924    3.4404 H   0  0  0  0  0  0  0  0  0  0  0  0
  -11.6221   22.9961    9.0688 H   0  0  0  0  0  0  0  0  0  0  0  0
  -10.8771   23.6864   11.3452 H   0  0  0  0  0  0  0  0  0  0  0  0
   -9.7830   19.9540   14.2130 H   0  0  0  0  0  0  0  0  0  0  0  0
   -9.2520   14.9620   15.4980 H   0  0  0  0  0  0  0  0  0  0  0  0
  1  2  1  0
  2  3  1  0
  3  4  2  0
  4  5  1  0
  5  6  1  0
  6  7  2  0
  7  8  1  0
  8  9  1  0
  9 10  1  0
 10 11  1  0
 11 12  1  0
 12 13  1  0
 12 14  1  0
 14 15  1  0
  8 16  2  0
 16 17  1  0
 17 18  1  0
 18 19  1  0
 19 20  2  0
 20 21  1  0
 21 22  2  0
 22 23  1  0
 23 24  1  0
 24 25  2  0
 24 26  1  0
 26 27  1  0
 27 28  1  0
 22 29  1  0
 29 30  2  0
 17 31  2  0
  4 32  1  0
 32 33  1  0
 33  2  2  0
 31  6  1  0
 15  9  1  0
 30 19  1  0
 28 26  1  0
  1 34  1  0
  1 35  1  0
  1 36  1  0
  3 37  1  0
  5 38  1  0
  7 39  1  0
 10 40  1  0
 10 41  1  0
 11 42  1  0
 11 43  1  0
 12 44  1  0
 13 45  1  0
 13 46  1  0
 13 47  1  0
 14 48  1  0
 14 49  1  0
 15 50  1  0
 15 51  1  0
 20 52  1  0
 21 53  1  0
 23 54  1  0
 26 55  1  0
 27 56  1  0
 27 57  1  0
 28 58  1  0
 28 59  1  0
 29 60  1  0
 30 61  1  0
 31 62  1  0
 32 63  1  0
M  CHG  2  12   1  31   1
M  END
>  <meeko>  (8) 
{"is_sidechain": [false], "free_energy": -8.588, "intermolecular_energy": -12.019, "internal_energy": -0.794}

$$$$
3e5a_ligand
     RDKit          3D

 63 67  0  0  0  0  0  0  0  0999 V2000
   -0.2420   19.6000   14.0240 C   0  0  0  0  0  0  0  0  0  0  0  0
   -1.6610   19.4650   13.6090 C   0  0  0  0  0  0  0  0  0  0  0  0
   -2.6320   20.4850   13.4570 C   0  0  0  0  0  0  0  0  0  0  0  0
   -3.7680   19.8430   13.0170 C   0  0  0  0  0  0  0  0  0  0  0  0
   -4.9910   20.3360   12.6980 N   0  0  0  0  0  0  0  0  0  0  0  0
   -6.1980   20.1180   13.3790 C   0  0  0  0  0  0  0  0  0  0  0  0
   -6.2860   19.5660   14.6710 C   0  0  0  0  0  0  0  0  0  0  0  0
   -7.5250   19.3890   15.2730 C   0  0  0  0  0  0  0  0  0  0  0  0
   -7.6630   18.8610   16.5690 N   0  0  0  0  0  0  0  0  0  0  0  0
   -8.1360   17.4430   16.5900 C   0  0  0  0  0  0  0  0  0  0  0  0
   -8.5400   16.9570   18.0020 C   0  0  0  0  0  0  0  0  0  0  0  0
   -8.0020   17.8810   19.0860 N   0  0  0  0  0  0  0  0  0  0  0  0
   -8.1800   17.3070   20.4580 C   0  0  0  0  0  0  0  0  0  0  0  0
   -6.5780   18.2860   18.7840 C   0  0  0  0  0  0  0  0  0  0  0  0
   -6.5380   19.1540   17.4990 C   0  0  0  0  0  0  0  0  0  0  0  0
   -8.6240   19.7730   14.6170 N   0  0  0  0  0  0  0  0  0  0  0  0
   -8.5100   20.3000   13.3790 C   0  0  0  0  0  0  0  0  0  0  0  0
   -9.9740   20.8020   12.4980 S   0  0  0  0  0  0  0  0  0  0  0  0
  -10.0150   19.5850   11.1910 C   0  0  0  0  0  0  0  0  0  0  0  0
   -9.9500   18.2220   11.4940 C   0  0  0  0  0  0  0  0  0  0  0  0
   -9.7640   17.2810   10.4750 C   0  0  0  0  0  0  0  0  0  0  0  0
   -9.5930   17.7080    9.1560 C   0  0  0  0  0  0  0  0  0  0  0  0
   -9.2350   16.7630    8.1810 N   0  0  0  0  0  0  0  0  0  0  0  0
   -8.0530   16.7880    7.4700 C   0  0  0  0  0  0  0  0  0  0  0  0
   -7.0980   17.5320    7.6760 O   0  0  0  0  0  0  0  0  0  0  0  0
   -7.9470   15.7110    6.4520 C   0  0  0  0  0  0  0  0  0  0  0  0
   -7.5200   14.3250    6.8760 C   0  0  0  0  0  0  0  0  0  0  0  0
   -6.6050   15.1610    6.0290 C   0  0  0  0  0  0  0  0  0  0  0  0
   -9.7700   19.0560    8.8430 C   0  0  0  0  0  0  0  0  0  0  0  0
  -10.0060   19.9890    9.8520 C   0  0  0  0  0  0  0  0  0  0  0  0
   -7.3390   20.4610   12.7710 N   0  0  0  0  0  0  0  0  0  0  0  0
   -3.4610   18.5070   13.0750 N   0  0  0  0  0  0  0  0  0  0  0  0
   -2.1690   18.2640   13.3150 N   0  0  0  0  0  0  0  0  0  0  0  0
   -0.1801   19.6059   15.1222 H   0  0  0  0  0  0  0  0  0  0  0  0
    0.3378   18.7530   13.6286 H   0  0  0  0  0  0  0  0  0  0  0  0
    0.1677   20.5412   13.6286 H   0  0  0  0  0  0  0  0  0  0  0  0
   -2.5056   21.5606   13.6494 H   0  0  0  0  0  0  0  0  0  0  0  0
   -5.0710   20.7400   11.7650 H   0  0  0  0  0  0  0  0  0  0  0  0
   -5.3702   19.2738   15.2057 H   0  0  0  0  0  0  0  0  0  0  0  0
   -9.0093   17.3558   15.9269 H   0  0  0  0  0  0  0  0  0  0  0  0
   -7.2985   16.8137   16.2545 H   0  0  0  0  0  0  0  0  0  0  0  0
   -9.6375   16.9281   18.0695 H   0  0  0  0  0  0  0  0  0  0  0  0
   -8.1112   15.9561   18.1580 H   0  0  0  0  0  0  0  0  0  0  0  0
   -8.5720   18.7360   19.0220 H   0  0  0  0  0  0  0  0  0  0  0  0
   -7.9422   18.0738   21.2100 H   0  0  0  0  0  0  0  0  0  0  0  0
   -9.2221   16.9788   20.5858 H   0  0  0  0  0  0  0  0  0  0  0  0
   -7.5064   16.4468   20.5858 H   0  0  0  0  0  0  0  0  0  0  0  0
   -6.1766   18.8655   19.6284 H   0  0  0  0  0  0  0  0  0  0  0  0
   -5.9691   17.3829   18.6305 H   0  0  0  0  0  0  0  0  0  0  0  0
   -6.5889   20.2138   17.7892 H   0  0  0  0  0  0  0  0  0  0  0  0
   -5.6021   18.9199   16.9705 H   0  0  0  0  0  0  0  0  0  0  0  0
  -10.0454   17.8877   12.5376 H   0  0  0  0  0  0  0  0  0  0  0  0
   -9.7525   16.2070   10.7123 H   0  0  0  0  0  0  0  0  0  0  0  0
   -9.7840   15.9110    8.1220 H   0  0  0  0  0  0  0  0  0  0  0  0
   -8.8046   16.1450    5.9171 H   0  0  0  0  0  0  0  0  0  0  0  0
   -7.2661   14.1259    7.9276 H   0  0  0  0  0  0  0  0  0  0  0  0
   -7.9543   13.3181    6.7894 H   0  0  0  0  0  0  0  0  0  0  0  0
   -5.6813   15.5738    6.4606 H   0  0  0  0  0  0  0  0  0  0  0  0
   -6.0926   15.0189    5.0661 H   0  0  0  0  0  0  0  0  0  0  0  0
   -9.7231   19.3847    7.7943 H   0  0  0  0  0  0  0  0  0  0  0  0
  -10.1852   21.0434    9.5948 H   0  0  0  0  0  0  0  0  0  0  0  0
   -7.3450   20.8780   11.8470 H   0  0  0  0  0  0  0  0  0  0  0  0
   -4.0730   17.7090   12.9610 H   0  0  0  0  0  0  0  0  0  0  0  0
  1  2  1  0
  2  3  1  0
  3  4  2  0
  4  5  1  0
  5  6  1  0
  6  7  2  0
  7  8  1  0
  8  9  1  0
  9 10  1  0
 10 11  1  0
 11 12  1  0
 12 13  1  0
 12 14  1  0
 14 15  1  0
  8 16  2  0
 16 17  1  0
 17 18  1  0
 18 19  1  0
 19 20  2  0
 20 21  1  0
 21 22  2  0
 22 23  1  0
 23 24  1  0
 24 25  2  0
 24 26  1  0
 26 27  1  0
 27 28  1  0
 22 29  1  0
 29 30  2  0
 17 31  2  0
  4 32  1  0
 32 33  1  0
 33  2  2  0
 31  6  1  0
 15  9  1  0
 30 19  1  0
 28 26  1  0
  1 34  1  0
  1 35  1  0
  1 36  1  0
  3 37  1  0
  5 38  1  0
  7 39  1  0
 10 40  1  0
 10 41  1  0
 11 42  1  0
 11 43  1  0
 12 44  1  0
 13 45  1  0
 13 46  1  0
 13 47  1  0
 14 48  1  0
 14 49  1  0
 15 50  1  0
 15 51  1  0
 20 52  1  0
 21 53  1  0
 23 54  1  0
 26 55  1  0
 27 56  1  0
 27 57  1  0
 28 58  1  0
 28 59  1  0
 29 60  1  0
 30 61  1  0
 31 62  1  0
 32 63  1  0
M  CHG  2  12   1  31   1
M  END
>  <meeko>  (9) 
{"is_sidechain": [false], "free_energy": -8.543, "intermolecular_energy": -11.83, "internal_energy": -0.919}

$$$$
