3jvr_ligand
     RDKit          3D

 36 38  0  0  0  0  0  0  0  0999 V2000
   -3.4270    9.2900    9.4590 C   0  0  0  0  0  0  0  0  0  0  0  0
   -2.9420    8.0230   10.1530 C   0  0  2  0  0  0  0  0  0  0  0  0
   -2.3250    7.1910    9.1490 O   0  0  0  0  0  0  0  0  0  0  0  0
   -1.0830    6.7290    9.4410 C   0  0  0  0  0  0  0  0  0  0  0  0
   -0.0500    7.3050    9.1320 O   0  0  0  0  0  0  0  0  0  0  0  0
   -1.2190    5.5600   10.1320 N   0  0  0  0  0  0  0  0  0  0  0  0
   -0.2140    4.7230   10.6450 C   0  0  0  0  0  0  0  0  0  0  0  0
   -0.3090    3.3580   10.3510 C   0  0  0  0  0  0  0  0  0  0  0  0
    0.6520    2.4590   10.8260 C   0  0  0  0  0  0  0  0  0  0  0  0
    1.7190    2.9170   11.5990 C   0  0  0  0  0  0  0  0  0  0  0  0
    2.8690    1.7530   12.1530 Cl  0  0  0  0  0  0  0  0  0  0  0  0
    1.8210    4.2790   11.8970 C   0  0  0  0  0  0  0  0  0  0  0  0
    3.1150    4.9190   12.8480 Cl  0  0  0  0  0  0  0  0  0  0  0  0
    0.8570    5.1780   11.4190 C   0  0  0  0  0  0  0  0  0  0  0  0
   -4.0740    7.2540   10.7660 C   0  0  0  0  0  0  0  0  0  0  0  0
   -4.0380    6.0570   11.3210 N   0  0  0  0  0  0  0  0  0  0  0  0
   -5.3240    5.7960   11.7270 C   0  0  0  0  0  0  0  0  0  0  0  0
   -5.8500    4.6690   12.3740 C   0  0  0  0  0  0  0  0  0  0  0  0
   -7.2150    4.6530   12.6920 C   0  0  0  0  0  0  0  0  0  0  0  0
   -8.0370    5.7350   12.3710 C   0  0  0  0  0  0  0  0  0  0  0  0
   -7.5300    6.8690   11.7250 C   0  0  0  0  0  0  0  0  0  0  0  0
   -6.1680    6.8580   11.4180 C   0  0  0  0  0  0  0  0  0  0  0  0
   -5.3500    7.7690   10.8070 N   0  0  0  0  0  0  0  0  0  0  0  0
   -3.7125   10.0360   10.2153 H   0  0  0  0  0  0  0  0  0  0  0  0
   -2.6205    9.6954    8.8304 H   0  0  0  0  0  0  0  0  0  0  0  0
   -4.2981    9.0532    8.8304 H   0  0  0  0  0  0  0  0  0  0  0  0
   -2.2440    8.3022   10.9560 H   0  0  0  0  0  0  0  0  0  0  0  0
   -2.1840    5.3040   10.2940 H   0  0  0  0  0  0  0  0  0  0  0  0
   -1.1466    2.9887    9.7411 H   0  0  0  0  0  0  0  0  0  0  0  0
    0.5659    1.3882   10.5893 H   0  0  0  0  0  0  0  0  0  0  0  0
    0.9443    6.2489   11.6549 H   0  0  0  0  0  0  0  0  0  0  0  0
   -5.2047    3.8148   12.6269 H   0  0  0  0  0  0  0  0  0  0  0  0
   -7.6440    3.7771   13.2008 H   0  0  0  0  0  0  0  0  0  0  0  0
   -9.1051    5.6957   12.6310 H   0  0  0  0  0  0  0  0  0  0  0  0
   -8.1723    7.7254   11.4721 H   0  0  0  0  0  0  0  0  0  0  0  0
   -5.6130    8.6900   10.4770 H   0  0  0  0  0  0  0  0  0  0  0  0
  1  2  1  0
  2  3  1  0
  3  4  1  0
  4  5  2  0
  4  6  1  0
  6  7  1  0
  7  8  2  0
  8  9  1  0
  9 10  2  0
 10 11  1  0
 10 12  1  0
 12 13  1  0
 12 14  2  0
  2 15  1  0
 15 16  2  0
 16 17  1  0
 17 18  2  0
 18 19  1  0
 19 20  2  0
 20 21  1  0
 21 22  2  0
 22 23  1  0
 14  7  1  0
 23 15  1  0
 22 17  1  0
  1 24  1  0
  1 25  1  0
  1 26  1  0
  2 27  1  1
  6 28  1  0
  8 29  1  0
  9 30  1  0
 14 31  1  0
 18 32  1  0
 19 33  1  0
 20 34  1  0
 21 35  1  0
 23 36  1  0
M  END
>  <meeko>  (1) 
{"is_sidechain": [false], "free_energy": -8.062, "intermolecular_energy": -9.947, "internal_energy": -0.597}

$$$$
3jvr_ligand
     RDKit          3D

 36 38  0  0  0  0  0  0  0  0999 V2000
   -3.0780    8.9160    9.8200 C   0  0  0  0  0  0  0  0  0  0  0  0
   -2.7180    7.5490   10.3900 C   0  0  2  0  0  0  0  0  0  0  0  0
   -2.1440    6.7730    9.3180 O   0  0  0  0  0  0  0  0  0  0  0  0
   -0.8810    6.3210    9.5210 C   0  0  0  0  0  0  0  0  0  0  0  0
    0.1200    6.8790    9.0970 O   0  0  0  0  0  0  0  0  0  0  0  0
   -0.9560    5.1830   10.2720 N   0  0  0  0  0  0  0  0  0  0  0  0
    0.0910    4.3670   10.7330 C   0  0  0  0  0  0  0  0  0  0  0  0
    1.1130    4.9900   11.4580 C   0  0  0  0  0  0  0  0  0  0  0  0
    2.1910    4.2480   11.9500 C   0  0  0  0  0  0  0  0  0  0  0  0
    2.2580    2.8730   11.7240 C   0  0  0  0  0  0  0  0  0  0  0  0
    3.6160    2.0170   12.3600 Cl  0  0  0  0  0  0  0  0  0  0  0  0
    1.2400    2.2430   11.0010 C   0  0  0  0  0  0  0  0  0  0  0  0
    1.2530    0.5440   10.6820 Cl  0  0  0  0  0  0  0  0  0  0  0  0
    0.1600    2.9900   10.5090 C   0  0  0  0  0  0  0  0  0  0  0  0
   -3.9250    6.8210   10.9010 C   0  0  0  0  0  0  0  0  0  0  0  0
   -4.0070    5.5680   11.3080 N   0  0  0  0  0  0  0  0  0  0  0  0
   -5.3180    5.3810   11.6740 C   0  0  0  0  0  0  0  0  0  0  0  0
   -5.9550    4.2380   12.1780 C   0  0  0  0  0  0  0  0  0  0  0  0
   -7.3200    4.3110   12.4850 C   0  0  0  0  0  0  0  0  0  0  0  0
   -8.0350    5.4950   12.2930 C   0  0  0  0  0  0  0  0  0  0  0  0
   -7.4160    6.6470   11.7900 C   0  0  0  0  0  0  0  0  0  0  0  0
   -6.0560    6.5450   11.4910 C   0  0  0  0  0  0  0  0  0  0  0  0
   -5.1490    7.4430   10.9970 N   0  0  0  0  0  0  0  0  0  0  0  0
   -3.2634    9.6199   10.6447 H   0  0  0  0  0  0  0  0  0  0  0  0
   -2.2467    9.2861    9.2020 H   0  0  0  0  0  0  0  0  0  0  0  0
   -3.9838    8.8286    9.2020 H   0  0  0  0  0  0  0  0  0  0  0  0
   -2.0216    7.6861   11.2304 H   0  0  0  0  0  0  0  0  0  0  0  0
   -1.9030    4.9380   10.5280 H   0  0  0  0  0  0  0  0  0  0  0  0
    1.0678    6.0735   11.6425 H   0  0  0  0  0  0  0  0  0  0  0  0
    2.9888    4.7500   12.5171 H   0  0  0  0  0  0  0  0  0  0  0  0
   -0.6384    2.4881    9.9427 H   0  0  0  0  0  0  0  0  0  0  0  0
   -5.3947    3.3036   12.3292 H   0  0  0  0  0  0  0  0  0  0  0  0
   -7.8352    3.4241   12.8825 H   0  0  0  0  0  0  0  0  0  0  0  0
   -9.1061    5.5239   12.5417 H   0  0  0  0  0  0  0  0  0  0  0  0
   -7.9728    7.5835   11.6385 H   0  0  0  0  0  0  0  0  0  0  0  0
   -5.3220    8.4170   10.7790 H   0  0  0  0  0  0  0  0  0  0  0  0
  1  2  1  0
  2  3  1  0
  3  4  1  0
  4  5  2  0
  4  6  1  0
  6  7  1  0
  7  8  2  0
  8  9  1  0
  9 10  2  0
 10 11  1  0
 10 12  1  0
 12 13  1  0
 12 14  2  0
  2 15  1  0
 15 16  2  0
 16 17  1  0
 17 18  2  0
 18 19  1  0
 19 20  2  0
 20 21  1  0
 21 22  2  0
 22 23  1  0
 14  7  1  0
 23 15  1  0
 22 17  1  0
  1 24  1  0
  1 25  1  0
  1 26  1  0
  2 27  1  1
  6 28  1  0
  8 29  1  0
  9 30  1  0
 14 31  1  0
 18 32  1  0
 19 33  1  0
 20 34  1  0
 21 35  1  0
 23 36  1  0
M  END
>  <meeko>  (2) 
{"is_sidechain": [false], "free_energy": -7.946, "intermolecular_energy": -9.828, "internal_energy": -0.573}

$$$$
3jvr_ligand
     RDKit          3D

 36 38  0  0  0  0  0  0  0  0999 V2000
   -2.8790    8.4850    9.6540 C   0  0  0  0  0  0  0  0  0  0  0  0
   -2.6480    7.2580   10.5290 C   0  0  2  0  0  0  0  0  0  0  0  0
   -2.0030    6.2620    9.7100 O   0  0  0  0  0  0  0  0  0  0  0  0
   -0.8910    5.6890   10.2370 C   0  0  0  0  0  0  0  0  0  0  0  0
    0.2140    6.2100   10.2300 O   0  0  0  0  0  0  0  0  0  0  0  0
   -1.2480    4.4810   10.7630 N   0  0  0  0  0  0  0  0  0  0  0  0
   -0.4380    3.5350   11.4140 C   0  0  0  0  0  0  0  0  0  0  0  0
   -0.5410    3.4590   12.8080 C   0  0  0  0  0  0  0  0  0  0  0  0
    0.2320    2.5450   13.5310 C   0  0  0  0  0  0  0  0  0  0  0  0
    1.1160    1.6950   12.8660 C   0  0  0  0  0  0  0  0  0  0  0  0
    2.0410    0.5900   13.8180 Cl  0  0  0  0  0  0  0  0  0  0  0  0
    1.2240    1.7640   11.4740 C   0  0  0  0  0  0  0  0  0  0  0  0
    2.2970    0.7420   10.5810 Cl  0  0  0  0  0  0  0  0  0  0  0  0
    0.4470    2.6810   10.7520 C   0  0  0  0  0  0  0  0  0  0  0  0
   -3.9370    6.6840   11.0360 C   0  0  0  0  0  0  0  0  0  0  0  0
   -4.1390    5.5020   11.5870 N   0  0  0  0  0  0  0  0  0  0  0  0
   -5.4810    5.4510   11.8770 C   0  0  0  0  0  0  0  0  0  0  0  0
   -6.2340    4.4280   12.4710 C   0  0  0  0  0  0  0  0  0  0  0  0
   -7.6060    4.6300   12.6670 C   0  0  0  0  0  0  0  0  0  0  0  0
   -8.2150    5.8260   12.2800 C   0  0  0  0  0  0  0  0  0  0  0  0
   -7.4810    6.8590   11.6850 C   0  0  0  0  0  0  0  0  0  0  0  0
   -6.1160    6.6300   11.5000 C   0  0  0  0  0  0  0  0  0  0  0  0
   -5.1140    7.3940   10.9670 N   0  0  0  0  0  0  0  0  0  0  0  0
   -3.0447    9.3650   10.2929 H   0  0  0  0  0  0  0  0  0  0  0  0
   -1.9969    8.6538    9.0189 H   0  0  0  0  0  0  0  0  0  0  0  0
   -3.7621    8.3215    9.0189 H   0  0  0  0  0  0  0  0  0  0  0  0
   -2.0387    7.5485   11.3975 H   0  0  0  0  0  0  0  0  0  0  0  0
   -2.2360    4.2830   10.6720 H   0  0  0  0  0  0  0  0  0  0  0  0
   -1.2367    4.1247   13.3398 H   0  0  0  0  0  0  0  0  0  0  0  0
    0.1428    2.4962   14.6263 H   0  0  0  0  0  0  0  0  0  0  0  0
    0.5350    2.7282    9.6565 H   0  0  0  0  0  0  0  0  0  0  0  0
   -5.7565    3.4854   12.7770 H   0  0  0  0  0  0  0  0  0  0  0  0
   -8.2112    3.8374   13.1312 H   0  0  0  0  0  0  0  0  0  0  0  0
   -9.2942    5.9590   12.4463 H   0  0  0  0  0  0  0  0  0  0  0  0
   -7.9554    7.8030   11.3788 H   0  0  0  0  0  0  0  0  0  0  0  0
   -5.1980    8.3420   10.6190 H   0  0  0  0  0  0  0  0  0  0  0  0
  1  2  1  0
  2  3  1  0
  3  4  1  0
  4  5  2  0
  4  6  1  0
  6  7  1  0
  7  8  2  0
  8  9  1  0
  9 10  2  0
 10 11  1  0
 10 12  1  0
 12 13  1  0
 12 14  2  0
  2 15  1  0
 15 16  2  0
 16 17  1  0
 17 18  2  0
 18 19  1  0
 19 20  2  0
 20 21  1  0
 21 22  2  0
 22 23  1  0
 14  7  1  0
 23 15  1  0
 22 17  1  0
  1 24  1  0
  1 25  1  0
  1 26  1  0
  2 27  1  1
  6 28  1  0
  8 29  1  0
  9 30  1  0
 14 31  1  0
 18 32  1  0
 19 33  1  0
 20 34  1  0
 21 35  1  0
 23 36  1  0
M  END
>  <meeko>  (3) 
{"is_sidechain": [false], "free_energy": -7.886, "intermolecular_energy": -9.563, "internal_energy": -0.764}

$$$$
3jvr_ligand
     RDKit          3D

 36 38  0  0  0  0  0  0  0  0999 V2000
   -2.8830    8.8440    9.8400 C   0  0  0  0  0  0  0  0  0  0  0  0
   -2.7500    7.4660   10.4770 C   0  0  2  0  0  0  0  0  0  0  0  0
   -2.2390    6.5730    9.4660 O   0  0  0  0  0  0  0  0  0  0  0  0
   -0.9510    6.1740    9.6210 C   0  0  0  0  0  0  0  0  0  0  0  0
    0.0030    6.7320    9.0990 O   0  0  0  0  0  0  0  0  0  0  0  0
   -0.9410    5.0900   10.4500 N   0  0  0  0  0  0  0  0  0  0  0  0
    0.1590    4.3400   10.8990 C   0  0  0  0  0  0  0  0  0  0  0  0
    1.1890    5.0400   11.5390 C   0  0  0  0  0  0  0  0  0  0  0  0
    2.3190    4.3670   12.0140 C   0  0  0  0  0  0  0  0  0  0  0  0
    2.4310    2.9860   11.8540 C   0  0  0  0  0  0  0  0  0  0  0  0
    3.8520    2.2180   12.4640 Cl  0  0  0  0  0  0  0  0  0  0  0  0
    1.4070    2.2800   11.2160 C   0  0  0  0  0  0  0  0  0  0  0  0
    1.4750    0.5680   10.9830 Cl  0  0  0  0  0  0  0  0  0  0  0  0
    0.2750    2.9570   10.7420 C   0  0  0  0  0  0  0  0  0  0  0  0
   -4.0720    6.9370   10.9440 C   0  0  0  0  0  0  0  0  0  0  0  0
   -5.2250    7.5740   11.0130 N   0  0  0  0  0  0  0  0  0  0  0  0
   -6.1270    6.6610   11.5040 C   0  0  0  0  0  0  0  0  0  0  0  0
   -7.4960    6.8060   11.7740 C   0  0  0  0  0  0  0  0  0  0  0  0
   -8.2030    5.7040   12.2700 C   0  0  0  0  0  0  0  0  0  0  0  0
   -7.5610    4.4840   12.4940 C   0  0  0  0  0  0  0  0  0  0  0  0
   -6.1950    4.3190   12.2310 C   0  0  0  0  0  0  0  0  0  0  0  0
   -5.5150    5.4350   11.7390 C   0  0  0  0  0  0  0  0  0  0  0  0
   -4.2100    5.6370   11.3780 N   0  0  0  0  0  0  0  0  0  0  0  0
   -2.9566    9.6071   10.6289 H   0  0  0  0  0  0  0  0  0  0  0  0
   -2.0002    9.0461    9.2157 H   0  0  0  0  0  0  0  0  0  0  0  0
   -3.7882    8.8735    9.2157 H   0  0  0  0  0  0  0  0  0  0  0  0
   -2.0847    7.5394   11.3499 H   0  0  0  0  0  0  0  0  0  0  0  0
   -1.8620    4.8340   10.7810 H   0  0  0  0  0  0  0  0  0  0  0  0
    1.1086    6.1293   11.6693 H   0  0  0  0  0  0  0  0  0  0  0  0
    3.1215    4.9281   12.5151 H   0  0  0  0  0  0  0  0  0  0  0  0
   -0.5280    2.3950   10.2427 H   0  0  0  0  0  0  0  0  0  0  0  0
   -8.0037    7.7661   11.5995 H   0  0  0  0  0  0  0  0  0  0  0  0
   -9.2773    5.8002   12.4859 H   0  0  0  0  0  0  0  0  0  0  0  0
   -8.1403    3.6347   12.8852 H   0  0  0  0  0  0  0  0  0  0  0  0
   -5.6845    3.3600   12.4031 H   0  0  0  0  0  0  0  0  0  0  0  0
   -3.4700    4.9460   11.3790 H   0  0  0  0  0  0  0  0  0  0  0  0
  1  2  1  0
  2  3  1  0
  3  4  1  0
  4  5  2  0
  4  6  1  0
  6  7  1  0
  7  8  2  0
  8  9  1  0
  9 10  2  0
 10 11  1  0
 10 12  1  0
 12 13  1  0
 12 14  2  0
  2 15  1  0
 15 16  2  0
 16 17  1  0
 17 18  2  0
 18 19  1  0
 19 20  2  0
 20 21  1  0
 21 22  2  0
 22 23  1  0
 14  7  1  0
 23 15  1  0
 22 17  1  0
  1 24  1  0
  1 25  1  0
  1 26  1  0
  2 27  1  1
  6 28  1  0
  8 29  1  0
  9 30  1  0
 14 31  1  0
 18 32  1  0
 19 33  1  0
 20 34  1  0
 21 35  1  0
 23 36  1  0
M  END
>  <meeko>  (4) 
{"is_sidechain": [false], "free_energy": -7.78, "intermolecular_energy": -9.759, "internal_energy": -0.437}

$$$$
3jvr_ligand
     RDKit          3D

 36 38  0  0  0  0  0  0  0  0999 V2000
    0.1160    7.8960    8.7830 C   0  0  0  0  0  0  0  0  0  0  0  0
   -1.1430    7.1730    9.2450 C   0  0  2  0  0  0  0  0  0  0  0  0
   -1.7790    8.0070   10.2360 O   0  0  0  0  0  0  0  0  0  0  0  0
   -3.1350    7.9670   10.2640 C   0  0  0  0  0  0  0  0  0  0  0  0
   -3.8530    8.7480    9.6570 O   0  0  0  0  0  0  0  0  0  0  0  0
   -3.5100    6.9200   11.0550 N   0  0  0  0  0  0  0  0  0  0  0  0
   -4.8070    6.4860   11.3770 C   0  0  0  0  0  0  0  0  0  0  0  0
   -5.8290    7.4420   11.3290 C   0  0  0  0  0  0  0  0  0  0  0  0
   -7.1470    7.0910   11.6370 C   0  0  0  0  0  0  0  0  0  0  0  0
   -7.4580    5.7790   11.9960 C   0  0  0  0  0  0  0  0  0  0  0  0
   -9.1050    5.4140   12.3630 Cl  0  0  0  0  0  0  0  0  0  0  0  0
   -6.4430    4.8190   12.0460 C   0  0  0  0  0  0  0  0  0  0  0  0
   -6.7520    3.1740   12.4800 Cl  0  0  0  0  0  0  0  0  0  0  0  0
   -5.1230    5.1730   11.7360 C   0  0  0  0  0  0  0  0  0  0  0  0
   -0.8270    5.8520    9.8790 C   0  0  0  0  0  0  0  0  0  0  0  0
   -1.6070    4.7920    9.9830 N   0  0  0  0  0  0  0  0  0  0  0  0
   -0.8620    3.8450   10.6430 C   0  0  0  0  0  0  0  0  0  0  0  0
   -1.2000    2.5360   11.0160 C   0  0  0  0  0  0  0  0  0  0  0  0
   -0.2440    1.7590   11.6830 C   0  0  0  0  0  0  0  0  0  0  0  0
    1.0210    2.2760   11.9730 C   0  0  0  0  0  0  0  0  0  0  0  0
    1.3780    3.5800   11.6090 C   0  0  0  0  0  0  0  0  0  0  0  0
    0.4040    4.3320   10.9470 C   0  0  0  0  0  0  0  0  0  0  0  0
    0.4000    5.6090   10.4540 N   0  0  0  0  0  0  0  0  0  0  0  0
    0.6917    8.2266    9.6601 H   0  0  0  0  0  0  0  0  0  0  0  0
    0.7299    7.2128    8.1777 H   0  0  0  0  0  0  0  0  0  0  0  0
   -0.1646    8.7706    8.1777 H   0  0  0  0  0  0  0  0  0  0  0  0
   -1.7877    6.9879    8.3732 H   0  0  0  0  0  0  0  0  0  0  0  0
   -2.7250    6.3980   11.4230 H   0  0  0  0  0  0  0  0  0  0  0  0
   -5.5929    8.4785   11.0464 H   0  0  0  0  0  0  0  0  0  0  0  0
   -7.9409    7.8513   11.5962 H   0  0  0  0  0  0  0  0  0  0  0  0
   -4.3299    4.4118   11.7755 H   0  0  0  0  0  0  0  0  0  0  0  0
   -2.1959    2.1275   10.7894 H   0  0  0  0  0  0  0  0  0  0  0  0
   -0.4923    0.7299   11.9818 H   0  0  0  0  0  0  0  0  0  0  0  0
    1.7526    1.6448   12.4988 H   0  0  0  0  0  0  0  0  0  0  0  0
    2.3735    3.9911   11.8326 H   0  0  0  0  0  0  0  0  0  0  0  0
    1.1750    6.2610   10.4610 H   0  0  0  0  0  0  0  0  0  0  0  0
  1  2  1  0
  2  3  1  0
  3  4  1  0
  4  5  2  0
  4  6  1  0
  6  7  1  0
  7  8  2  0
  8  9  1  0
  9 10  2  0
 10 11  1  0
 10 12  1  0
 12 13  1  0
 12 14  2  0
  2 15  1  0
 15 16  2  0
 16 17  1  0
 17 18  2  0
 18 19  1  0
 19 20  2  0
 20 21  1  0
 21 22  2  0
 22 23  1  0
 14  7  1  0
 23 15  1  0
 22 17  1  0
  1 24  1  0
  1 25  1  0
  1 26  1  0
  2 27  1  6
  6 28  1  0
  8 29  1  0
  9 30  1  0
 14 31  1  0
 18 32  1  0
 19 33  1  0
 20 34  1  0
 21 35  1  0
 23 36  1  0
M  END
>  <meeko>  (5) 
{"is_sidechain": [false], "free_energy": -7.742, "intermolecular_energy": -9.938, "internal_energy": -0.212}

$$$$
3jvr_ligand
     RDKit          3D

 36 38  0  0  0  0  0  0  0  0999 V2000
   -0.1130    6.5710    9.1160 C   0  0  0  0  0  0  0  0  0  0  0  0
   -0.8360    5.5370    9.9720 C   0  0  2  0  0  0  0  0  0  0  0  0
   -1.9260    6.2130   10.6330 O   0  0  0  0  0  0  0  0  0  0  0  0
   -3.0810    5.5100   10.7440 C   0  0  0  0  0  0  0  0  0  0  0  0
   -3.2140    4.3530   10.3730 O   0  0  0  0  0  0  0  0  0  0  0  0
   -4.0090    6.3140   11.3400 N   0  0  0  0  0  0  0  0  0  0  0  0
   -5.3440    6.0200   11.6630 C   0  0  0  0  0  0  0  0  0  0  0  0
   -6.3030    6.9950   11.3610 C   0  0  0  0  0  0  0  0  0  0  0  0
   -7.6530    6.7800   11.6520 C   0  0  0  0  0  0  0  0  0  0  0  0
   -8.0610    5.5860   12.2480 C   0  0  0  0  0  0  0  0  0  0  0  0
   -9.7430    5.3850   12.5800 Cl  0  0  0  0  0  0  0  0  0  0  0  0
   -7.1100    4.6080   12.5520 C   0  0  0  0  0  0  0  0  0  0  0  0
   -7.5390    3.1030   13.2900 Cl  0  0  0  0  0  0  0  0  0  0  0  0
   -5.7560    4.8260   12.2590 C   0  0  0  0  0  0  0  0  0  0  0  0
    0.0610    4.9560   11.0230 C   0  0  0  0  0  0  0  0  0  0  0  0
    1.3440    5.1940   11.2210 N   0  0  0  0  0  0  0  0  0  0  0  0
    1.7050    4.4230   12.2980 C   0  0  0  0  0  0  0  0  0  0  0  0
    2.9490    4.2920   12.9330 C   0  0  0  0  0  0  0  0  0  0  0  0
    3.0540    3.4310   14.0340 C   0  0  0  0  0  0  0  0  0  0  0  0
    1.9440    2.7180   14.4920 C   0  0  0  0  0  0  0  0  0  0  0  0
    0.6940    2.8350   13.8720 C   0  0  0  0  0  0  0  0  0  0  0  0
    0.6190    3.6970   12.7760 C   0  0  0  0  0  0  0  0  0  0  0  0
   -0.4110    4.0520   11.9480 N   0  0  0  0  0  0  0  0  0  0  0  0
    0.3945    7.2968    9.7684 H   0  0  0  0  0  0  0  0  0  0  0  0
    0.6301    6.0664    8.4810 H   0  0  0  0  0  0  0  0  0  0  0  0
   -0.8420    7.0957    8.4810 H   0  0  0  0  0  0  0  0  0  0  0  0
   -1.1791    4.7160    9.3253 H   0  0  0  0  0  0  0  0  0  0  0  0
   -3.6460    7.2260   11.5850 H   0  0  0  0  0  0  0  0  0  0  0  0
   -5.9908    7.9389   10.8903 H   0  0  0  0  0  0  0  0  0  0  0  0
   -8.3961    7.5543   11.4105 H   0  0  0  0  0  0  0  0  0  0  0  0
   -5.0133    4.0513   12.5003 H   0  0  0  0  0  0  0  0  0  0  0  0
    3.8242    4.8535   12.5742 H   0  0  0  0  0  0  0  0  0  0  0  0
    4.0221    3.3155   14.5433 H   0  0  0  0  0  0  0  0  0  0  0  0
    2.0541    2.0498   15.3588 H   0  0  0  0  0  0  0  0  0  0  0  0
   -0.1836    2.2767   14.2298 H   0  0  0  0  0  0  0  0  0  0  0  0
   -1.3750    3.7470   12.0180 H   0  0  0  0  0  0  0  0  0  0  0  0
  1  2  1  0
  2  3  1  0
  3  4  1  0
  4  5  2  0
  4  6  1  0
  6  7  1  0
  7  8  2  0
  8  9  1  0
  9 10  2  0
 10 11  1  0
 10 12  1  0
 12 13  1  0
 12 14  2  0
  2 15  1  0
 15 16  2  0
 16 17  1  0
 17 18  2  0
 18 19  1  0
 19 20  2  0
 20 21  1  0
 21 22  2  0
 22 23  1  0
 14  7  1  0
 23 15  1  0
 22 17  1  0
  1 24  1  0
  1 25  1  0
  1 26  1  0
  2 27  1  6
  6 28  1  0
  8 29  1  0
  9 30  1  0
 14 31  1  0
 18 32  1  0
 19 33  1  0
 20 34  1  0
 21 35  1  0
 23 36  1  0
M  END
>  <meeko>  (6) 
{"is_sidechain": [false], "free_energy": -7.701, "intermolecular_energy": -9.746, "internal_energy": -0.353}

$$$$
3jvr_ligand
     RDKit          3D

 36 38  0  0  0  0  0  0  0  0999 V2000
   -0.2180    3.4260   10.5360 C   0  0  0  0  0  0  0  0  0  0  0  0
   -1.2720    4.1950   11.3230 C   0  0  2  0  0  0  0  0  0  0  0  0
   -2.4190    3.3300   11.4630 O   0  0  0  0  0  0  0  0  0  0  0  0
   -3.4220    3.7970   12.2480 C   0  0  0  0  0  0  0  0  0  0  0  0
   -3.2510    4.2830   13.3570 O   0  0  0  0  0  0  0  0  0  0  0  0
   -4.5970    3.6350   11.5730 N   0  0  0  0  0  0  0  0  0  0  0  0
   -5.8980    3.9740   11.9830 C   0  0  0  0  0  0  0  0  0  0  0  0
   -6.2950    5.3050   11.8090 C   0  0  0  0  0  0  0  0  0  0  0  0
   -7.5740    5.7220   12.1930 C   0  0  0  0  0  0  0  0  0  0  0  0
   -8.4690    4.8110   12.7550 C   0  0  0  0  0  0  0  0  0  0  0  0
  -10.0310    5.3930   13.2070 Cl  0  0  0  0  0  0  0  0  0  0  0  0
   -8.0790    3.4800   12.9320 C   0  0  0  0  0  0  0  0  0  0  0  0
   -9.1340    2.2960   13.6200 Cl  0  0  0  0  0  0  0  0  0  0  0  0
   -6.7980    3.0650   12.5450 C   0  0  0  0  0  0  0  0  0  0  0  0
   -1.7090    5.4370   10.6070 C   0  0  0  0  0  0  0  0  0  0  0  0
   -1.2460    5.9280    9.4720 N   0  0  0  0  0  0  0  0  0  0  0  0
   -1.9660    7.0750    9.2410 C   0  0  0  0  0  0  0  0  0  0  0  0
   -1.8860    7.9860    8.1780 C   0  0  0  0  0  0  0  0  0  0  0  0
   -2.7500    9.0890    8.1730 C   0  0  0  0  0  0  0  0  0  0  0  0
   -3.6730    9.2790    9.2040 C   0  0  0  0  0  0  0  0  0  0  0  0
   -3.7680    8.3810   10.2730 C   0  0  0  0  0  0  0  0  0  0  0  0
   -2.8930    7.2920   10.2540 C   0  0  0  0  0  0  0  0  0  0  0  0
   -2.7070    6.2400   11.1100 N   0  0  0  0  0  0  0  0  0  0  0  0
    0.4684    2.9252   11.2347 H   0  0  0  0  0  0  0  0  0  0  0  0
   -0.7101    2.6732    9.9026 H   0  0  0  0  0  0  0  0  0  0  0  0
    0.3486    4.1244    9.9026 H   0  0  0  0  0  0  0  0  0  0  0  0
   -0.8458    4.4924   12.2925 H   0  0  0  0  0  0  0  0  0  0  0  0
   -4.4740    3.2360   10.6520 H   0  0  0  0  0  0  0  0  0  0  0  0
   -5.5953    6.0293   11.3665 H   0  0  0  0  0  0  0  0  0  0  0  0
   -7.8748    6.7706   12.0515 H   0  0  0  0  0  0  0  0  0  0  0  0
   -6.4986    2.0158   12.6846 H   0  0  0  0  0  0  0  0  0  0  0  0
   -1.1600    7.8378    7.3650 H   0  0  0  0  0  0  0  0  0  0  0  0
   -2.7008    9.8140    7.3472 H   0  0  0  0  0  0  0  0  0  0  0  0
   -4.3397   10.1535    9.1750 H   0  0  0  0  0  0  0  0  0  0  0  0
   -4.4943    8.5251   11.0865 H   0  0  0  0  0  0  0  0  0  0  0  0
   -3.2390    6.0450   11.9500 H   0  0  0  0  0  0  0  0  0  0  0  0
  1  2  1  0
  2  3  1  0
  3  4  1  0
  4  5  2  0
  4  6  1  0
  6  7  1  0
  7  8  2  0
  8  9  1  0
  9 10  2  0
 10 11  1  0
 10 12  1  0
 12 13  1  0
 12 14  2  0
  2 15  1  0
 15 16  2  0
 16 17  1  0
 17 18  2  0
 18 19  1  0
 19 20  2  0
 20 21  1  0
 21 22  2  0
 22 23  1  0
 14  7  1  0
 23 15  1  0
 22 17  1  0
  1 24  1  0
  1 25  1  0
  1 26  1  0
  2 27  1  1
  6 28  1  0
  8 29  1  0
  9 30  1  0
 14 31  1  0
 18 32  1  0
 19 33  1  0
 20 34  1  0
 21 35  1  0
 23 36  1  0
M  END
>  <meeko>  (7) 
{"is_sidechain": [false], "free_energy": -7.67, "intermolecular_energy": -9.91, "internal_energy": -0.15}

$$$$
3jvr_ligand
     RDKit          3D

 36 38  0  0  0  0  0  0  0  0999 V2000
   -0.1370    6.4870    9.3570 C   0  0  0  0  0  0  0  0  0  0  0  0
   -0.6660    5.5070   10.3970 C   0  0  2  0  0  0  0  0  0  0  0  0
   -0.5210    4.1800    9.8500 O   0  0  0  0  0  0  0  0  0  0  0  0
    0.1130    3.2770   10.6410 C   0  0  0  0  0  0  0  0  0  0  0  0
    0.9820    3.5690   11.4500 O   0  0  0  0  0  0  0  0  0  0  0  0
   -0.4070    2.0430   10.3740 N   0  0  0  0  0  0  0  0  0  0  0  0
   -0.0670    0.8070   10.9470 C   0  0  0  0  0  0  0  0  0  0  0  0
    1.1630    0.2490   10.5780 C   0  0  0  0  0  0  0  0  0  0  0  0
    1.5750   -0.9800   11.1040 C   0  0  0  0  0  0  0  0  0  0  0  0
    0.7600   -1.6640   12.0060 C   0  0  0  0  0  0  0  0  0  0  0  0
    1.3290   -3.1760   12.6170 Cl  0  0  0  0  0  0  0  0  0  0  0  0
   -0.4690   -1.1140   12.3800 C   0  0  0  0  0  0  0  0  0  0  0  0
   -1.5310   -1.9030   13.4940 Cl  0  0  0  0  0  0  0  0  0  0  0  0
   -0.8790    0.1190   11.8520 C   0  0  0  0  0  0  0  0  0  0  0  0
   -2.1180    5.7350   10.6920 C   0  0  0  0  0  0  0  0  0  0  0  0
   -3.0200    4.8500   11.0710 N   0  0  0  0  0  0  0  0  0  0  0  0
   -4.1940    5.5490   11.2090 C   0  0  0  0  0  0  0  0  0  0  0  0
   -5.4670    5.1020   11.5910 C   0  0  0  0  0  0  0  0  0  0  0  0
   -6.5120    6.0320   11.6630 C   0  0  0  0  0  0  0  0  0  0  0  0
   -6.2940    7.3780   11.3610 C   0  0  0  0  0  0  0  0  0  0  0  0
   -5.0310    7.8440   10.9770 C   0  0  0  0  0  0  0  0  0  0  0  0
   -4.0080    6.8950   10.9110 C   0  0  0  0  0  0  0  0  0  0  0  0
   -2.6830    6.9860   10.5840 N   0  0  0  0  0  0  0  0  0  0  0  0
    0.3265    7.3457    9.8647 H   0  0  0  0  0  0  0  0  0  0  0  0
    0.6125    5.9848    8.7278 H   0  0  0  0  0  0  0  0  0  0  0  0
   -0.9682    6.8380    8.7278 H   0  0  0  0  0  0  0  0  0  0  0  0
   -0.1028    5.6417   11.3322 H   0  0  0  0  0  0  0  0  0  0  0  0
   -1.1440    2.0640    9.6820 H   0  0  0  0  0  0  0  0  0  0  0  0
    1.8117    0.7823    9.8675 H   0  0  0  0  0  0  0  0  0  0  0  0
    2.5435   -1.4078   10.8057 H   0  0  0  0  0  0  0  0  0  0  0  0
   -1.8466    0.5473   12.1526 H   0  0  0  0  0  0  0  0  0  0  0  0
   -5.6415    4.0424   11.8293 H   0  0  0  0  0  0  0  0  0  0  0  0
   -7.5168    5.6980   11.9611 H   0  0  0  0  0  0  0  0  0  0  0  0
   -7.1325    8.0870   11.4262 H   0  0  0  0  0  0  0  0  0  0  0  0
   -4.8532    8.9032   10.7394 H   0  0  0  0  0  0  0  0  0  0  0  0
   -2.1770    7.8310   10.3460 H   0  0  0  0  0  0  0  0  0  0  0  0
  1  2  1  0
  2  3  1  0
  3  4  1  0
  4  5  2  0
  4  6  1  0
  6  7  1  0
  7  8  2  0
  8  9  1  0
  9 10  2  0
 10 11  1  0
 10 12  1  0
 12 13  1  0
 12 14  2  0
  2 15  1  0
 15 16  2  0
 16 17  1  0
 17 18  2  0
 18 19  1  0
 19 20  2  0
 20 21  1  0
 21 22  2  0
 22 23  1  0
 14  7  1  0
 23 15  1  0
 22 17  1  0
  1 24  1  0
  1 25  1  0
  1 26  1  0
  2 27  1  1
  6 28  1  0
  8 29  1  0
  9 30  1  0
 14 31  1  0
 18 32  1  0
 19 33  1  0
 20 34  1  0
 21 35  1  0
 23 36  1  0
M  END
>  <meeko>  (8) 
{"is_sidechain": [false], "free_energy": -7.549, "intermolecular_energy": -9.387, "internal_energy": -0.524}

$$$$
3jvr_ligand
     RDKit          3D

 36 38  0  0  0  0  0  0  0  0999 V2000
   -1.0450    7.5410    9.5020 C   0  0  0  0  0  0  0  0  0  0  0  0
   -1.4730    6.4760   10.5040 C   0  0  2  0  0  0  0  0  0  0  0  0
   -1.1680    5.1910    9.9240 O   0  0  0  0  0  0  0  0  0  0  0  0
   -0.5840    4.2890   10.7520 C   0  0  0  0  0  0  0  0  0  0  0  0
   -1.0310    3.1710   10.9670 O   0  0  0  0  0  0  0  0  0  0  0  0
    0.5540    4.8500   11.2530 N   0  0  0  0  0  0  0  0  0  0  0  0
    1.4850    4.2940   12.1470 C   0  0  0  0  0  0  0  0  0  0  0  0
    1.0150    3.9340   13.4150 C   0  0  0  0  0  0  0  0  0  0  0  0
    1.8780    3.3750   14.3630 C   0  0  0  0  0  0  0  0  0  0  0  0
    3.2220    3.1690   14.0510 C   0  0  0  0  0  0  0  0  0  0  0  0
    4.2340    2.4750   15.2670 Cl  0  0  0  0  0  0  0  0  0  0  0  0
    3.7000    3.5260   12.7860 C   0  0  0  0  0  0  0  0  0  0  0  0
    5.3510    3.2990   12.3270 Cl  0  0  0  0  0  0  0  0  0  0  0  0
    2.8310    4.0850   11.8380 C   0  0  0  0  0  0  0  0  0  0  0  0
   -2.9460    6.5280   10.7790 C   0  0  0  0  0  0  0  0  0  0  0  0
   -3.7610    7.5580   10.6560 N   0  0  0  0  0  0  0  0  0  0  0  0
   -5.0010    7.0980   11.0270 C   0  0  0  0  0  0  0  0  0  0  0  0
   -6.2300    7.7720   11.0820 C   0  0  0  0  0  0  0  0  0  0  0  0
   -7.3670    7.0650   11.4940 C   0  0  0  0  0  0  0  0  0  0  0  0
   -7.2810    5.7150   11.8440 C   0  0  0  0  0  0  0  0  0  0  0  0
   -6.0640    5.0250   11.7960 C   0  0  0  0  0  0  0  0  0  0  0  0
   -4.9470    5.7550   11.3840 C   0  0  0  0  0  0  0  0  0  0  0  0
   -3.6310    5.4180   11.2210 N   0  0  0  0  0  0  0  0  0  0  0  0
   -0.6877    8.4301   10.0421 H   0  0  0  0  0  0  0  0  0  0  0  0
   -0.2358    7.1460    8.8702 H   0  0  0  0  0  0  0  0  0  0  0  0
   -1.9025    7.8158    8.8702 H   0  0  0  0  0  0  0  0  0  0  0  0
   -0.9426    6.6461   11.4525 H   0  0  0  0  0  0  0  0  0  0  0  0
    0.7280    5.7810   10.8980 H   0  0  0  0  0  0  0  0  0  0  0  0
   -0.0436    4.0922   13.6686 H   0  0  0  0  0  0  0  0  0  0  0  0
    1.4963    3.0972   15.3565 H   0  0  0  0  0  0  0  0  0  0  0  0
    3.2121    4.3609   10.8437 H   0  0  0  0  0  0  0  0  0  0  0  0
   -6.2996    8.8348   10.8070 H   0  0  0  0  0  0  0  0  0  0  0  0
   -8.3386    7.5785   11.5425 H   0  0  0  0  0  0  0  0  0  0  0  0
   -8.1891    5.1831   12.1641 H   0  0  0  0  0  0  0  0  0  0  0  0
   -5.9912    3.9619   12.0689 H   0  0  0  0  0  0  0  0  0  0  0  0
   -3.2230    4.5000   11.3520 H   0  0  0  0  0  0  0  0  0  0  0  0
  1  2  1  0
  2  3  1  0
  3  4  1  0
  4  5  2  0
  4  6  1  0
  6  7  1  0
  7  8  2  0
  8  9  1  0
  9 10  2  0
 10 11  1  0
 10 12  1  0
 12 13  1  0
 12 14  2  0
  2 15  1  0
 15 16  2  0
 16 17  1  0
 17 18  2  0
 18 19  1  0
 19 20  2  0
 20 21  1  0
 21 22  2  0
 22 23  1  0
 14  7  1  0
 23 15  1  0
 22 17  1  0
  1 24  1  0
  1 25  1  0
  1 26  1  0
  2 27  1  1
  6 28  1  0
  8 29  1  0
  9 30  1  0
 14 31  1  0
 18 32  1  0
 19 33  1  0
 20 34  1  0
 21 35  1  0
 23 36  1  0
M  END
>  <meeko>  (9) 
{"is_sidechain": [false], "free_energy": -7.473, "intermolecular_energy": -9.412, "internal_energy": -0.406}

$$$$
