3fcq_ligand
     RDKit          3D

 23 23  0  0  0  0  0  0  0  0999 V2000
    9.6350   -0.7310    9.2140 C   0  0  0  0  0  0  0  0  0  0  0  0
    8.7140   -1.6000   10.0190 C   0  0  0  0  0  0  0  0  0  0  0  0
    8.2350   -1.2640   11.0980 O   0  0  0  0  0  0  0  0  0  0  0  0
    8.6370   -2.8510    9.4190 O   0  0  0  0  0  0  0  0  0  0  0  0
    7.3700   -3.4320    9.5440 C   0  0  0  0  0  0  0  0  0  0  0  0
    7.1910   -4.4290   10.5250 C   0  0  0  0  0  0  0  0  0  0  0  0
    8.2970   -4.7990   11.4700 C   0  0  0  0  0  0  0  0  0  0  0  0
    5.9410   -5.0480   10.6350 C   0  0  0  0  0  0  0  0  0  0  0  0
    4.9080   -4.7100    9.7620 C   0  0  0  0  0  0  0  0  0  0  0  0
    5.1160   -3.7460    8.7740 C   0  0  0  0  0  0  0  0  0  0  0  0
    6.3520   -3.0850    8.6360 C   0  0  0  0  0  0  0  0  0  0  0  0
    6.5220   -2.0580    7.5310 C   0  0  0  0  0  0  0  0  0  0  0  0
    5.9900   -0.9170    7.7230 O   0  0  0  0  0  0  0  0  0  0  0  0
    7.1800   -2.3850    6.4920 O   0  0  0  0  0  0  0  0  0  0  0  0
   10.2647   -0.1368    9.8925 H   0  0  0  0  0  0  0  0  0  0  0  0
   10.2741   -1.3628    8.5797 H   0  0  0  0  0  0  0  0  0  0  0  0
    9.0413   -0.0563    8.5797 H   0  0  0  0  0  0  0  0  0  0  0  0
    7.9480   -4.6822   12.5066 H   0  0  0  0  0  0  0  0  0  0  0  0
    8.5918   -5.8447   11.2980 H   0  0  0  0  0  0  0  0  0  0  0  0
    9.1617   -4.1412   11.2980 H   0  0  0  0  0  0  0  0  0  0  0  0
    5.7725   -5.8055   11.4146 H   0  0  0  0  0  0  0  0  0  0  0  0
    3.9288   -5.2030    9.8517 H   0  0  0  0  0  0  0  0  0  0  0  0
    4.2944   -3.4965    8.0864 H   0  0  0  0  0  0  0  0  0  0  0  0
  1  2  1  0
  2  3  2  0
  2  4  1  0
  4  5  1  0
  5  6  2  0
  6  7  1  0
  6  8  1  0
  8  9  2  0
  9 10  1  0
 10 11  2  0
 11 12  1  0
 12 13  2  0
 12 14  1  0
 11  5  1  0
  1 15  1  0
  1 16  1  0
  1 17  1  0
  7 18  1  0
  7 19  1  0
  7 20  1  0
  8 21  1  0
  9 22  1  0
 10 23  1  0
M  CHG  1  14  -1
M  END
>  <meeko>  (1) 
{"is_sidechain": [false], "free_energy": -5.436, "intermolecular_energy": -6.39, "internal_energy": -0.267}

$$$$
3fcq_ligand
     RDKit          3D

 23 23  0  0  0  0  0  0  0  0999 V2000
   11.8500    3.4980    0.9190 C   0  0  0  0  0  0  0  0  0  0  0  0
   10.8950    2.3410    0.8940 C   0  0  0  0  0  0  0  0  0  0  0  0
   11.2010    1.2180    0.5030 O   0  0  0  0  0  0  0  0  0  0  0  0
    9.6260    2.7970    1.2300 O   0  0  0  0  0  0  0  0  0  0  0  0
    8.6260    2.2620    0.4100 C   0  0  0  0  0  0  0  0  0  0  0  0
    8.1970    3.0240   -0.6960 C   0  0  0  0  0  0  0  0  0  0  0  0
    8.8500    4.3300   -1.0420 C   0  0  0  0  0  0  0  0  0  0  0  0
    7.1690    2.5200   -1.5020 C   0  0  0  0  0  0  0  0  0  0  0  0
    6.5590    1.3070   -1.1880 C   0  0  0  0  0  0  0  0  0  0  0  0
    6.9740    0.5850   -0.0680 C   0  0  0  0  0  0  0  0  0  0  0  0
    8.0140    1.0450    0.7630 C   0  0  0  0  0  0  0  0  0  0  0  0
    8.4090    0.2220    1.9760 C   0  0  0  0  0  0  0  0  0  0  0  0
    8.5720   -1.0270    1.7930 O   0  0  0  0  0  0  0  0  0  0  0  0
    8.5590    0.8170    3.0910 O   0  0  0  0  0  0  0  0  0  0  0  0
   12.0724    3.7674    1.9621 H   0  0  0  0  0  0  0  0  0  0  0  0
   12.7815    3.2157    0.4066 H   0  0  0  0  0  0  0  0  0  0  0  0
   11.3962    4.3591    0.4066 H   0  0  0  0  0  0  0  0  0  0  0  0
    9.1165    4.8630   -0.1174 H   0  0  0  0  0  0  0  0  0  0  0  0
    9.7594    4.1405   -1.6311 H   0  0  0  0  0  0  0  0  0  0  0  0
    8.1528    4.9438   -1.6311 H   0  0  0  0  0  0  0  0  0  0  0  0
    6.8412    3.0843   -2.3875 H   0  0  0  0  0  0  0  0  0  0  0  0
    5.7497    0.9182   -1.8235 H   0  0  0  0  0  0  0  0  0  0  0  0
    6.4767   -0.3665    0.1716 H   0  0  0  0  0  0  0  0  0  0  0  0
  1  2  1  0
  2  3  2  0
  2  4  1  0
  4  5  1  0
  5  6  2  0
  6  7  1  0
  6  8  1  0
  8  9  2  0
  9 10  1  0
 10 11  2  0
 11 12  1  0
 12 13  2  0
 12 14  1  0
 11  5  1  0
  1 15  1  0
  1 16  1  0
  1 17  1  0
  7 18  1  0
  7 19  1  0
  7 20  1  0
  8 21  1  0
  9 22  1  0
 10 23  1  0
M  CHG  1  14  -1
M  END
>  <meeko>  (2) 
{"is_sidechain": [false], "free_energy": -5.277, "intermolecular_energy": -6.594, "internal_energy": 0.124}

$$$$
3fcq_ligand
     RDKit          3D

 23 23  0  0  0  0  0  0  0  0999 V2000
    6.5210   -5.4830   13.7860 C   0  0  0  0  0  0  0  0  0  0  0  0
    6.8030   -4.4350   12.7500 C   0  0  0  0  0  0  0  0  0  0  0  0
    6.5390   -3.2460   12.8990 O   0  0  0  0  0  0  0  0  0  0  0  0
    7.2510   -5.0570   11.5910 O   0  0  0  0  0  0  0  0  0  0  0  0
    6.7780   -4.4380   10.4290 C   0  0  0  0  0  0  0  0  0  0  0  0
    7.6200   -3.5090    9.7830 C   0  0  0  0  0  0  0  0  0  0  0  0
    9.0160   -3.2520   10.2720 C   0  0  0  0  0  0  0  0  0  0  0  0
    7.1470   -2.8520    8.6410 C   0  0  0  0  0  0  0  0  0  0  0  0
    5.8530   -3.0870    8.1800 C   0  0  0  0  0  0  0  0  0  0  0  0
    5.0220   -3.9830    8.8540 C   0  0  0  0  0  0  0  0  0  0  0  0
    5.4600   -4.6790    9.9980 C   0  0  0  0  0  0  0  0  0  0  0  0
    4.5050   -5.6290   10.6970 C   0  0  0  0  0  0  0  0  0  0  0  0
    3.5570   -5.1000   11.3630 O   0  0  0  0  0  0  0  0  0  0  0  0
    4.6950   -6.8810   10.5750 O   0  0  0  0  0  0  0  0  0  0  0  0
    6.6382   -5.0476   14.7893 H   0  0  0  0  0  0  0  0  0  0  0  0
    5.4918   -5.8515   13.6641 H   0  0  0  0  0  0  0  0  0  0  0  0
    7.2263   -6.3182   13.6641 H   0  0  0  0  0  0  0  0  0  0  0  0
    9.0247   -3.2504   11.3720 H   0  0  0  0  0  0  0  0  0  0  0  0
    9.6857   -4.0420    9.9012 H   0  0  0  0  0  0  0  0  0  0  0  0
    9.3604   -2.2754    9.9012 H   0  0  0  0  0  0  0  0  0  0  0  0
    7.7996   -2.1471    8.1051 H   0  0  0  0  0  0  0  0  0  0  0  0
    5.4861   -2.5655    7.2836 H   0  0  0  0  0  0  0  0  0  0  0  0
    4.0000   -4.1499    8.4830 H   0  0  0  0  0  0  0  0  0  0  0  0
  1  2  1  0
  2  3  2  0
  2  4  1  0
  4  5  1  0
  5  6  2  0
  6  7  1  0
  6  8  1  0
  8  9  2  0
  9 10  1  0
 10 11  2  0
 11 12  1  0
 12 13  2  0
 12 14  1  0
 11  5  1  0
  1 15  1  0
  1 16  1  0
  1 17  1  0
  7 18  1  0
  7 19  1  0
  7 20  1  0
  8 21  1  0
  9 22  1  0
 10 23  1  0
M  CHG  1  14  -1
M  END
>  <meeko>  (3) 
{"is_sidechain": [false], "free_energy": -5.139, "intermolecular_energy": -6.113, "internal_energy": -0.194}

$$$$
3fcq_ligand
     RDKit          3D

 23 23  0  0  0  0  0  0  0  0999 V2000
    3.0370   -4.8530   10.0080 C   0  0  0  0  0  0  0  0  0  0  0  0
    4.2470   -4.3590    9.2720 C   0  0  0  0  0  0  0  0  0  0  0  0
    4.7430   -4.9440    8.3140 O   0  0  0  0  0  0  0  0  0  0  0  0
    4.7640   -3.2580    9.9420 O   0  0  0  0  0  0  0  0  0  0  0  0
    6.1630   -3.2470    9.9660 C   0  0  0  0  0  0  0  0  0  0  0  0
    6.8370   -2.5170    8.9650 C   0  0  0  0  0  0  0  0  0  0  0  0
    6.0850   -1.7020    7.9550 C   0  0  0  0  0  0  0  0  0  0  0  0
    8.2370   -2.5280    8.9530 C   0  0  0  0  0  0  0  0  0  0  0  0
    8.9440   -3.2800    9.8880 C   0  0  0  0  0  0  0  0  0  0  0  0
    8.2570   -4.0250   10.8490 C   0  0  0  0  0  0  0  0  0  0  0  0
    6.8500   -4.0320   10.9100 C   0  0  0  0  0  0  0  0  0  0  0  0
    6.1600   -4.8750   11.9680 C   0  0  0  0  0  0  0  0  0  0  0  0
    5.7310   -4.2620   12.9980 O   0  0  0  0  0  0  0  0  0  0  0  0
    6.0450   -6.1260   11.7680 O   0  0  0  0  0  0  0  0  0  0  0  0
    3.2123   -4.7814   11.0916 H   0  0  0  0  0  0  0  0  0  0  0  0
    2.1662   -4.2384    9.7361 H   0  0  0  0  0  0  0  0  0  0  0  0
    2.8451   -5.9015    9.7361 H   0  0  0  0  0  0  0  0  0  0  0  0
    5.4276   -0.9895    8.4748 H   0  0  0  0  0  0  0  0  0  0  0  0
    6.7980   -1.1503    7.3247 H   0  0  0  0  0  0  0  0  0  0  0  0
    5.4779   -2.3684    7.3247 H   0  0  0  0  0  0  0  0  0  0  0  0
    8.7818   -1.9391    8.2005 H   0  0  0  0  0  0  0  0  0  0  0  0
   10.0438   -3.2872    9.8696 H   0  0  0  0  0  0  0  0  0  0  0  0
    8.8287   -4.6207   11.5758 H   0  0  0  0  0  0  0  0  0  0  0  0
  1  2  1  0
  2  3  2  0
  2  4  1  0
  4  5  1  0
  5  6  2  0
  6  7  1  0
  6  8  1  0
  8  9  2  0
  9 10  1  0
 10 11  2  0
 11 12  1  0
 12 13  2  0
 12 14  1  0
 11  5  1  0
  1 15  1  0
  1 16  1  0
  1 17  1  0
  7 18  1  0
  7 19  1  0
  7 20  1  0
  8 21  1  0
  9 22  1  0
 10 23  1  0
M  CHG  1  14  -1
M  END
>  <meeko>  (4) 
{"is_sidechain": [false], "free_energy": -5.097, "intermolecular_energy": -6.065, "internal_energy": -0.192}

$$$$
3fcq_ligand
     RDKit          3D

 23 23  0  0  0  0  0  0  0  0999 V2000
    5.5370    1.6780   -1.0610 C   0  0  0  0  0  0  0  0  0  0  0  0
    6.9760    1.3860   -0.7500 C   0  0  0  0  0  0  0  0  0  0  0  0
    7.6700    0.6180   -1.4100 O   0  0  0  0  0  0  0  0  0  0  0  0
    7.3090    1.9960    0.4520 O   0  0  0  0  0  0  0  0  0  0  0  0
    8.6890    2.1670    0.6080 C   0  0  0  0  0  0  0  0  0  0  0  0
    9.3060    3.2360   -0.0740 C   0  0  0  0  0  0  0  0  0  0  0  0
    8.5010    4.2180   -0.8730 C   0  0  0  0  0  0  0  0  0  0  0  0
   10.6920    3.3960    0.0410 C   0  0  0  0  0  0  0  0  0  0  0  0
   11.4470    2.4900    0.7820 C   0  0  0  0  0  0  0  0  0  0  0  0
   10.8220    1.4170    1.4200 C   0  0  0  0  0  0  0  0  0  0  0  0
    9.4290    1.2240    1.3470 C   0  0  0  0  0  0  0  0  0  0  0  0
    8.8100    0.0290    2.0490 C   0  0  0  0  0  0  0  0  0  0  0  0
    8.5800    0.1530    3.2950 O   0  0  0  0  0  0  0  0  0  0  0  0
    8.5520   -1.0120    1.3640 O   0  0  0  0  0  0  0  0  0  0  0  0
    4.9749    1.7921   -0.1224 H   0  0  0  0  0  0  0  0  0  0  0  0
    5.4694    2.6082   -1.6443 H   0  0  0  0  0  0  0  0  0  0  0  0
    5.1121    0.8478   -1.6443 H   0  0  0  0  0  0  0  0  0  0  0  0
    7.9541    4.8852   -0.1905 H   0  0  0  0  0  0  0  0  0  0  0  0
    9.1739    4.8138   -1.5072 H   0  0  0  0  0  0  0  0  0  0  0  0
    7.7847    3.6750   -1.5072 H   0  0  0  0  0  0  0  0  0  0  0  0
   11.1878    4.2424   -0.4569 H   0  0  0  0  0  0  0  0  0  0  0  0
   12.5362    2.6200    0.8646 H   0  0  0  0  0  0  0  0  0  0  0  0
   11.4328    0.7046    1.9940 H   0  0  0  0  0  0  0  0  0  0  0  0
  1  2  1  0
  2  3  2  0
  2  4  1  0
  4  5  1  0
  5  6  2  0
  6  7  1  0
  6  8  1  0
  8  9  2  0
  9 10  1  0
 10 11  2  0
 11 12  1  0
 12 13  2  0
 12 14  1  0
 11  5  1  0
  1 15  1  0
  1 16  1  0
  1 17  1  0
  7 18  1  0
  7 19  1  0
  7 20  1  0
  8 21  1  0
  9 22  1  0
 10 23  1  0
M  CHG  1  14  -1
M  END
>  <meeko>  (5) 
{"is_sidechain": [false], "free_energy": -5.03, "intermolecular_energy": -6.059, "internal_energy": -0.119}

$$$$
3fcq_ligand
     RDKit          3D

 23 23  0  0  0  0  0  0  0  0999 V2000
   13.5610   -0.9820    1.5640 C   0  0  0  0  0  0  0  0  0  0  0  0
   12.2250   -0.5020    1.0770 C   0  0  0  0  0  0  0  0  0  0  0  0
   11.7410   -0.8270   -0.0030 O   0  0  0  0  0  0  0  0  0  0  0  0
   11.7400    0.4530    1.9610 O   0  0  0  0  0  0  0  0  0  0  0  0
   10.8430    1.3420    1.3590 C   0  0  0  0  0  0  0  0  0  0  0  0
   11.3670    2.4990    0.7470 C   0  0  0  0  0  0  0  0  0  0  0  0
   12.8470    2.7340    0.6630 C   0  0  0  0  0  0  0  0  0  0  0  0
   10.4790    3.4170    0.1750 C   0  0  0  0  0  0  0  0  0  0  0  0
    9.1040    3.2060    0.2460 C   0  0  0  0  0  0  0  0  0  0  0  0
    8.6030    2.0710    0.8880 C   0  0  0  0  0  0  0  0  0  0  0  0
    9.4580    1.1120    1.4640 C   0  0  0  0  0  0  0  0  0  0  0  0
    8.8540   -0.0920    2.1620 C   0  0  0  0  0  0  0  0  0  0  0  0
    8.5280   -1.0780    1.4250 O   0  0  0  0  0  0  0  0  0  0  0  0
    8.7130   -0.0550    3.4260 O   0  0  0  0  0  0  0  0  0  0  0  0
   13.5707   -0.9855    2.6640 H   0  0  0  0  0  0  0  0  0  0  0  0
   13.7421   -2.0014    1.1925 H   0  0  0  0  0  0  0  0  0  0  0  0
   14.3494   -0.3109    1.1925 H   0  0  0  0  0  0  0  0  0  0  0  0
   13.2659    2.8005    1.6779 H   0  0  0  0  0  0  0  0  0  0  0  0
   13.3207    1.8998    0.1247 H   0  0  0  0  0  0  0  0  0  0  0  0
   13.0391    3.6739    0.1247 H   0  0  0  0  0  0  0  0  0  0  0  0
   10.8693    4.3107   -0.3338 H   0  0  0  0  0  0  0  0  0  0  0  0
    8.4123    3.9335   -0.2037 H   0  0  0  0  0  0  0  0  0  0  0  0
    7.5145    1.9229    0.9449 H   0  0  0  0  0  0  0  0  0  0  0  0
  1  2  1  0
  2  3  2  0
  2  4  1  0
  4  5  1  0
  5  6  2  0
  6  7  1  0
  6  8  1  0
  8  9  2  0
  9 10  1  0
 10 11  2  0
 11 12  1  0
 12 13  2  0
 12 14  1  0
 11  5  1  0
  1 15  1  0
  1 16  1  0
  1 17  1  0
  7 18  1  0
  7 19  1  0
  7 20  1  0
  8 21  1  0
  9 22  1  0
 10 23  1  0
M  CHG  1  14  -1
M  END
>  <meeko>  (6) 
{"is_sidechain": [false], "free_energy": -5.009, "intermolecular_energy": -5.934, "internal_energy": -0.22}

$$$$
3fcq_ligand
     RDKit          3D

 23 23  0  0  0  0  0  0  0  0999 V2000
    3.3650   -4.8490   11.8860 C   0  0  0  0  0  0  0  0  0  0  0  0
    4.7870   -4.4380   12.1340 C   0  0  0  0  0  0  0  0  0  0  0  0
    5.1020   -3.4200   12.7430 O   0  0  0  0  0  0  0  0  0  0  0  0
    5.6310   -5.3000   11.4450 O   0  0  0  0  0  0  0  0  0  0  0  0
    6.7440   -4.6470   10.9030 C   0  0  0  0  0  0  0  0  0  0  0  0
    7.9630   -4.7180   11.6080 C   0  0  0  0  0  0  0  0  0  0  0  0
    8.0930   -5.5400   12.8570 C   0  0  0  0  0  0  0  0  0  0  0  0
    9.0750   -4.0380   11.0990 C   0  0  0  0  0  0  0  0  0  0  0  0
    8.9630   -3.2740    9.9390 C   0  0  0  0  0  0  0  0  0  0  0  0
    7.7380   -3.1870    9.2750 C   0  0  0  0  0  0  0  0  0  0  0  0
    6.5960   -3.8670    9.7410 C   0  0  0  0  0  0  0  0  0  0  0  0
    5.2880   -3.7200    8.9840 C   0  0  0  0  0  0  0  0  0  0  0  0
    4.8150   -2.5420    8.8800 O   0  0  0  0  0  0  0  0  0  0  0  0
    4.7480   -4.7640    8.4970 O   0  0  0  0  0  0  0  0  0  0  0  0
    2.8530   -4.9970   12.8482 H   0  0  0  0  0  0  0  0  0  0  0  0
    2.8505   -4.0628   11.3140 H   0  0  0  0  0  0  0  0  0  0  0  0
    3.3493   -5.7884   11.3140 H   0  0  0  0  0  0  0  0  0  0  0  0
    7.9899   -4.8884   13.7372 H   0  0  0  0  0  0  0  0  0  0  0  0
    7.3051   -6.3073   12.8746 H   0  0  0  0  0  0  0  0  0  0  0  0
    9.0793   -6.0268   12.8746 H   0  0  0  0  0  0  0  0  0  0  0  0
   10.0428   -4.1069   11.6173 H   0  0  0  0  0  0  0  0  0  0  0  0
    9.8403   -2.7391    9.5463 H   0  0  0  0  0  0  0  0  0  0  0  0
    7.6629   -2.5724    8.3658 H   0  0  0  0  0  0  0  0  0  0  0  0
  1  2  1  0
  2  3  2  0
  2  4  1  0
  4  5  1  0
  5  6  2  0
  6  7  1  0
  6  8  1  0
  8  9  2  0
  9 10  1  0
 10 11  2  0
 11 12  1  0
 12 13  2  0
 12 14  1  0
 11  5  1  0
  1 15  1  0
  1 16  1  0
  1 17  1  0
  7 18  1  0
  7 19  1  0
  7 20  1  0
  8 21  1  0
  9 22  1  0
 10 23  1  0
M  CHG  1  14  -1
M  END
>  <meeko>  (7) 
{"is_sidechain": [false], "free_energy": -4.976, "intermolecular_energy": -6.007, "internal_energy": -0.107}

$$$$
3fcq_ligand
     RDKit          3D

 23 23  0  0  0  0  0  0  0  0999 V2000
    3.8910   -5.0560   12.8830 C   0  0  0  0  0  0  0  0  0  0  0  0
    4.9870   -4.1990   12.3200 C   0  0  0  0  0  0  0  0  0  0  0  0
    5.1140   -3.0060   12.5750 O   0  0  0  0  0  0  0  0  0  0  0  0
    5.6980   -4.9370   11.3820 O   0  0  0  0  0  0  0  0  0  0  0  0
    6.2110   -4.1460   10.3480 C   0  0  0  0  0  0  0  0  0  0  0  0
    5.3850   -3.8930    9.2340 C   0  0  0  0  0  0  0  0  0  0  0  0
    3.9660   -4.3800    9.1900 C   0  0  0  0  0  0  0  0  0  0  0  0
    5.8980   -3.1360    8.1750 C   0  0  0  0  0  0  0  0  0  0  0  0
    7.2130   -2.6780    8.2080 C   0  0  0  0  0  0  0  0  0  0  0  0
    8.0270   -2.9700    9.3040 C   0  0  0  0  0  0  0  0  0  0  0  0
    7.5500   -3.7150   10.4000 C   0  0  0  0  0  0  0  0  0  0  0  0
    8.4880   -4.0130   11.5550 C   0  0  0  0  0  0  0  0  0  0  0  0
    8.6250   -3.1010   12.4330 O   0  0  0  0  0  0  0  0  0  0  0  0
    9.0730   -5.1430   11.5870 O   0  0  0  0  0  0  0  0  0  0  0  0
    3.9297   -5.0257   13.9819 H   0  0  0  0  0  0  0  0  0  0  0  0
    2.9168   -4.6777   12.5399 H   0  0  0  0  0  0  0  0  0  0  0  0
    4.0233   -6.0927   12.5399 H   0  0  0  0  0  0  0  0  0  0  0  0
    3.5906   -4.5088   10.2159 H   0  0  0  0  0  0  0  0  0  0  0  0
    3.3422   -3.6445    8.6609 H   0  0  0  0  0  0  0  0  0  0  0  0
    3.9253   -5.3435    8.6609 H   0  0  0  0  0  0  0  0  0  0  0  0
    5.2589   -2.9011    7.3111 H   0  0  0  0  0  0  0  0  0  0  0  0
    7.6103   -2.0861    7.3703 H   0  0  0  0  0  0  0  0  0  0  0  0
    9.0662   -2.6095    9.3118 H   0  0  0  0  0  0  0  0  0  0  0  0
  1  2  1  0
  2  3  2  0
  2  4  1  0
  4  5  1  0
  5  6  2  0
  6  7  1  0
  6  8  1  0
  8  9  2  0
  9 10  1  0
 10 11  2  0
 11 12  1  0
 12 13  2  0
 12 14  1  0
 11  5  1  0
  1 15  1  0
  1 16  1  0
  1 17  1  0
  7 18  1  0
  7 19  1  0
  7 20  1  0
  8 21  1  0
  9 22  1  0
 10 23  1  0
M  CHG  1  14  -1
M  END
>  <meeko>  (8) 
{"is_sidechain": [false], "free_energy": -4.897, "intermolecular_energy": -5.797, "internal_energy": -0.225}

$$$$
3fcq_ligand
     RDKit          3D

 23 23  0  0  0  0  0  0  0  0999 V2000
   10.1200   -0.6170    8.8480 C   0  0  0  0  0  0  0  0  0  0  0  0
    9.0380   -1.3270    9.6080 C   0  0  0  0  0  0  0  0  0  0  0  0
    8.4050   -0.8140   10.5260 O   0  0  0  0  0  0  0  0  0  0  0  0
    8.9980   -2.6550    9.2010 O   0  0  0  0  0  0  0  0  0  0  0  0
    7.7320   -3.2290    9.3530 C   0  0  0  0  0  0  0  0  0  0  0  0
    6.7590   -2.9630    8.3680 C   0  0  0  0  0  0  0  0  0  0  0  0
    7.0900   -2.1600    7.1440 C   0  0  0  0  0  0  0  0  0  0  0  0
    5.4760   -3.4990    8.5270 C   0  0  0  0  0  0  0  0  0  0  0  0
    5.1600   -4.2470    9.6590 C   0  0  0  0  0  0  0  0  0  0  0  0
    6.1270   -4.4690   10.6410 C   0  0  0  0  0  0  0  0  0  0  0  0
    7.4360   -3.9640   10.5170 C   0  0  0  0  0  0  0  0  0  0  0  0
    8.4380   -4.2260   11.6270 C   0  0  0  0  0  0  0  0  0  0  0  0
    9.1980   -5.2370   11.4850 O   0  0  0  0  0  0  0  0  0  0  0  0
    8.4670   -3.4310   12.6190 O   0  0  0  0  0  0  0  0  0  0  0  0
   10.8234   -0.1554    9.5566 H   0  0  0  0  0  0  0  0  0  0  0  0
   10.6575   -1.3385    8.2152 H   0  0  0  0  0  0  0  0  0  0  0  0
    9.6721    0.1633    8.2152 H   0  0  0  0  0  0  0  0  0  0  0  0
    7.4932   -1.1819    7.4451 H   0  0  0  0  0  0  0  0  0  0  0  0
    7.8401   -2.6971    6.5449 H   0  0  0  0  0  0  0  0  0  0  0  0
    6.1793   -2.0125    6.5449 H   0  0  0  0  0  0  0  0  0  0  0  0
    4.7126   -3.3287    7.7536 H   0  0  0  0  0  0  0  0  0  0  0  0
    4.1486   -4.6626    9.7790 H   0  0  0  0  0  0  0  0  0  0  0  0
    5.8600   -5.0530   11.5341 H   0  0  0  0  0  0  0  0  0  0  0  0
  1  2  1  0
  2  3  2  0
  2  4  1  0
  4  5  1  0
  5  6  2  0
  6  7  1  0
  6  8  1  0
  8  9  2  0
  9 10  1  0
 10 11  2  0
 11 12  1  0
 12 13  2  0
 12 14  1  0
 11  5  1  0
  1 15  1  0
  1 16  1  0
  1 17  1  0
  7 18  1  0
  7 19  1  0
  7 20  1  0
  8 21  1  0
  9 22  1  0
 10 23  1  0
M  CHG  1  14  -1
M  END
>  <meeko>  (9) 
{"is_sidechain": [false], "free_energy": -4.834, "intermolecular_energy": -5.789, "internal_energy": -0.159}

$$$$
