
     RDKit          3D

 22 23  0  0  0  0  0  0  0  0999 V2000
  -11.1650  -10.2280  -26.0710 O   0  0  0  0  0  0  0  0  0  0  0  0
  -10.1440  -10.3190  -26.6790 C   0  0  0  0  0  0  0  0  0  0  0  0
  -10.0770  -10.2170  -27.8990 O   0  0  0  0  0  0  0  0  0  0  0  0
   -8.8290  -10.5800  -25.9390 C   0  0  2  0  0  0  0  0  0  0  0  0
   -7.8280   -9.7400  -26.5330 O   0  0  0  0  0  0  0  0  0  0  0  0
   -8.3980  -12.0140  -26.0680 C   0  0  0  0  0  0  0  0  0  0  0  0
   -7.8150  -12.7010  -25.0300 C   0  0  0  0  0  0  0  0  0  0  0  0
   -7.4510  -14.0870  -25.2490 C   0  0  0  0  0  0  0  0  0  0  0  0
   -7.2000  -14.9110  -24.1910 C   0  0  0  0  0  0  0  0  0  0  0  0
   -6.9230  -16.3590  -24.4560 C   0  0  0  0  0  0  0  0  0  0  0  0
   -7.0150  -17.0520  -23.2130 O   0  0  0  0  0  0  0  0  0  0  0  0
   -7.0460  -18.4360  -23.1680 C   0  0  0  0  0  0  0  0  0  0  0  0
   -6.5600  -19.1850  -24.1970 C   0  0  0  0  0  0  0  0  0  0  0  0
   -6.6280  -20.5620  -24.1450 C   0  0  0  0  0  0  0  0  0  0  0  0
   -7.1860  -21.1790  -23.0490 C   0  0  0  0  0  0  0  0  0  0  0  0
   -7.6620  -20.4220  -21.9980 C   0  0  0  0  0  0  0  0  0  0  0  0
   -7.5900  -19.0490  -22.0580 C   0  0  0  0  0  0  0  0  0  0  0  0
   -7.6100  -12.0900  -23.6750 C   0  0  1  0  0  0  0  0  0  0  0  0
   -6.3320  -12.3710  -23.1430 O   0  0  0  0  0  0  0  0  0  0  0  0
   -7.7600  -10.5770  -23.6850 C   0  0  2  0  0  0  0  0  0  0  0  0
   -7.8940  -10.1240  -22.3410 O   0  0  0  0  0  0  0  0  0  0  0  0
   -8.9590  -10.1260  -24.4770 C   0  0  0  0  0  0  0  0  0  0  0  0
  2  1  2  0
  3  2  1  0
  4  2  1  0
  4  5  1  6
  6  4  1  0
  7  6  2  0
  8  7  1  0
  9  8  2  3
 10  9  1  0
 11 10  1  0
 12 11  1  0
 13 12  2  0
 14 13  1  0
 15 14  2  0
 16 15  1  0
 17 16  2  0
 17 12  1  0
 18  7  1  0
 18 19  1  6
 20 18  1  0
 20 21  1  1
 22 20  1  0
 22  4  1  0
M  CHG  1   3  -1
M  END
$$$$
