
     RDKit          3D

 38 42  0  0  0  0  0  0  0  0999 V2000
  -17.8750   -8.7230   11.4970 C   0  0  0  0  0  0  0  0  0  0  0  0
  -16.7060   -7.8430   11.5710 N   0  0  0  0  0  0  0  0  0  0  0  0
  -16.4940   -7.3410   12.9530 C   0  0  0  0  0  0  0  0  0  0  0  0
  -15.5470   -8.5690   11.1300 C   0  0  0  0  0  0  0  0  0  0  0  0
  -15.2510   -8.4860    9.6740 C   0  0  0  0  0  0  0  0  0  0  0  0
  -16.1050   -8.4390    8.6480 N   0  0  0  0  0  0  0  0  0  0  0  0
  -15.4020   -8.3460    7.4620 C   0  0  0  0  0  0  0  0  0  0  0  0
  -14.0640   -8.3580    7.7990 C   0  0  0  0  0  0  0  0  0  0  0  0
  -13.9980   -8.4390    9.1770 N   0  0  0  0  0  0  0  0  0  0  0  0
  -12.8130   -8.5070    9.9640 C   0  0  0  0  0  0  0  0  0  0  0  0
  -12.1500   -7.3340   10.3240 C   0  0  0  0  0  0  0  0  0  0  0  0
  -10.9780   -7.3990   11.1180 C   0  0  0  0  0  0  0  0  0  0  0  0
  -10.4740   -8.6610   11.5300 C   0  0  0  0  0  0  0  0  0  0  0  0
   -9.2810   -8.7890   12.3230 N   0  0  0  0  0  0  0  0  0  0  0  0
   -8.1490   -8.0670   12.1230 C   0  0  0  0  0  0  0  0  0  0  0  0
   -8.0340   -7.2500   11.2310 O   0  0  0  0  0  0  0  0  0  0  0  0
   -7.0150   -8.3890   13.0420 C   0  0  0  0  0  0  0  0  0  0  0  0
   -7.0660   -8.8610   14.3330 C   0  0  0  0  0  0  0  0  0  0  0  0
   -5.7390   -9.0110   14.7250 C   0  0  0  0  0  0  0  0  0  0  0  0
   -5.2390   -9.5490   16.0280 C   0  0  1  0  0  0  0  0  0  0  0  0
   -6.2050  -10.1790   16.6990 F   0  0  0  0  0  0  0  0  0  0  0  0
   -4.2380  -10.4110   15.8210 F   0  0  0  0  0  0  0  0  0  0  0  0
   -4.7710   -8.5480   16.7900 F   0  0  0  0  0  0  0  0  0  0  0  0
   -4.9340   -8.6050   13.7700 N   0  0  0  0  0  0  0  0  0  0  0  0
   -5.6820   -8.2400   12.7500 N   0  0  0  0  0  0  0  0  0  0  0  0
   -5.1280   -7.8410   11.5180 C   0  0  0  0  0  0  0  0  0  0  0  0
   -5.1030   -6.4850   11.0950 C   0  0  0  0  0  0  0  0  0  0  0  0
   -4.5590   -6.1570    9.8390 C   0  0  0  0  0  0  0  0  0  0  0  0
   -4.0390   -7.1920    9.0210 C   0  0  0  0  0  0  0  0  0  0  0  0
   -3.4630   -7.1630    7.7770 O   0  0  0  0  0  0  0  0  0  0  0  0
   -3.1410   -8.4590    7.4390 N   0  0  0  0  0  0  0  0  0  0  0  0
   -3.4770   -9.2930    8.4310 C   0  0  0  0  0  0  0  0  0  0  0  0
   -3.2900  -10.6330    8.4430 N   0  0  0  0  0  0  0  0  0  0  0  0
   -4.0630   -8.5300    9.4670 C   0  0  0  0  0  0  0  0  0  0  0  0
   -4.6220   -8.8700   10.7200 C   0  0  0  0  0  0  0  0  0  0  0  0
  -11.1680   -9.8300   11.1710 C   0  0  0  0  0  0  0  0  0  0  0  0
  -10.7140  -11.0340   11.5860 F   0  0  0  0  0  0  0  0  0  0  0  0
  -12.3330   -9.7550   10.3810 C   0  0  0  0  0  0  0  0  0  0  0  0
  2  1  1  0
  3  2  1  0
  4  2  1  0
  5  4  1  0
  6  5  2  0
  7  6  1  0
  8  7  2  0
  9  8  1  0
  9  5  1  0
 10  9  1  0
 11 10  2  0
 12 11  1  0
 13 12  2  0
 14 13  1  0
 15 14  1  0
 16 15  2  0
 17 15  1  0
 18 17  2  0
 19 18  1  0
 20 19  1  0
 20 21  1  1
 22 20  1  0
 23 20  1  0
 24 19  2  0
 25 17  1  0
 25 24  1  0
 26 25  1  0
 27 26  2  0
 28 27  1  0
 29 28  2  0
 30 29  1  0
 31 30  1  0
 32 31  2  0
 33 32  1  0
 34 32  1  0
 34 29  1  0
 35 34  2  0
 35 26  1  0
 36 13  1  0
 37 36  1  0
 38 10  1  0
 38 36  2  0
M  CHG  2   2   1  31   1
M  END
$$$$
