2zda_ligand
     RDKit          3D

 58 60  0  0  0  0  0  0  0  0999 V2000
    7.6200    5.0380    9.5700 N   0  0  0  0  0  0  0  0  0  0  0  0
    7.2090    4.3330    8.5380 C   0  0  0  0  0  0  0  0  0  0  0  0
    6.1080    4.6530    7.8920 N   0  0  0  0  0  0  0  0  0  0  0  0
    7.9960    3.1710    8.0920 C   0  0  0  0  0  0  0  0  0  0  0  0
    7.9900    2.7710    6.7470 C   0  0  0  0  0  0  0  0  0  0  0  0
    8.7570    1.6810    6.3190 C   0  0  0  0  0  0  0  0  0  0  0  0
    9.5540    0.9710    7.2250 C   0  0  0  0  0  0  0  0  0  0  0  0
   10.4040   -0.1890    6.7680 C   0  0  0  0  0  0  0  0  0  0  0  0
   11.3910    0.2350    5.7970 N   0  0  0  0  0  0  0  0  0  0  0  0
   12.5480    0.8740    6.1740 C   0  0  0  0  0  0  0  0  0  0  0  0
   12.7870    1.1600    7.3530 O   0  0  0  0  0  0  0  0  0  0  0  0
   13.4750    1.3520    5.0270 C   0  0  2  0  0  0  0  0  0  0  0  0
   13.2950    0.5620    3.7230 C   0  0  0  0  0  0  0  0  0  0  0  0
   14.3000   -0.5700    3.8560 C   0  0  0  0  0  0  0  0  0  0  0  0
   15.4820    0.1210    4.5060 C   0  0  0  0  0  0  0  0  0  0  0  0
   14.8970    1.1400    5.3760 N   0  0  0  0  0  0  0  0  0  0  0  0
   15.7490    1.8370    6.2000 C   0  0  0  0  0  0  0  0  0  0  0  0
   16.5760    1.2260    6.8910 O   0  0  0  0  0  0  0  0  0  0  0  0
   15.6130    3.3490    6.4980 C   0  0  2  0  0  0  0  0  0  0  0  0
   14.8350    3.5180    7.7770 N   0  0  0  0  0  0  0  0  0  0  0  0
   15.0860    4.3050    5.4280 C   0  0  0  0  0  0  0  0  0  0  0  0
   16.0080    4.6240    4.2730 C   0  0  0  0  0  0  0  0  0  0  0  0
   15.7910    5.8140    3.5570 C   0  0  0  0  0  0  0  0  0  0  0  0
   16.6150    6.1690    2.4880 C   0  0  0  0  0  0  0  0  0  0  0  0
   17.6780    5.3470    2.1270 C   0  0  0  0  0  0  0  0  0  0  0  0
   17.9220    4.1780    2.8430 C   0  0  0  0  0  0  0  0  0  0  0  0
   17.1010    3.8210    3.9160 C   0  0  0  0  0  0  0  0  0  0  0  0
    9.5470    1.3550    8.5720 C   0  0  0  0  0  0  0  0  0  0  0  0
    8.7790    2.4440    9.0010 C   0  0  0  0  0  0  0  0  0  0  0  0
    8.4560    4.7650   10.0760 H   0  0  0  0  0  0  0  0  0  0  0  0
    7.1180    5.8470    9.9100 H   0  0  0  0  0  0  0  0  0  0  0  0
    5.8190    4.1180    7.0790 H   0  0  0  0  0  0  0  0  0  0  0  0
    5.5330    5.4430    8.1510 H   0  0  0  0  0  0  0  0  0  0  0  0
    7.3747    3.3210    6.0197 H   0  0  0  0  0  0  0  0  0  0  0  0
    8.7333    1.3796    5.2614 H   0  0  0  0  0  0  0  0  0  0  0  0
   10.9196   -0.6208    7.6385 H   0  0  0  0  0  0  0  0  0  0  0  0
    9.7489   -0.9356    6.2953 H   0  0  0  0  0  0  0  0  0  0  0  0
   11.1050    0.2400    4.8250 H   0  0  0  0  0  0  0  0  0  0  0  0
   13.2058    2.4095    4.8887 H   0  0  0  0  0  0  0  0  0  0  0  0
   12.2704    0.1709    3.6379 H   0  0  0  0  0  0  0  0  0  0  0  0
   13.4549    1.1750    2.8237 H   0  0  0  0  0  0  0  0  0  0  0  0
   13.9096   -1.3762    4.4945 H   0  0  0  0  0  0  0  0  0  0  0  0
   14.5452   -1.0554    2.8999 H   0  0  0  0  0  0  0  0  0  0  0  0
   16.0727   -0.5963    5.0946 H   0  0  0  0  0  0  0  0  0  0  0  0
   16.1644    0.5573    3.7617 H   0  0  0  0  0  0  0  0  0  0  0  0
   16.6621    3.6743    6.5572 H   0  0  0  0  0  0  0  0  0  0  0  0
   13.9800    2.9570    7.8200 H   0  0  0  0  0  0  0  0  0  0  0  0
   14.5830    4.5090    7.8950 H   0  0  0  0  0  0  0  0  0  0  0  0
   15.4380    3.2780    8.5920 H   0  0  0  0  0  0  0  0  0  0  0  0
   14.1713    3.8607    5.0085 H   0  0  0  0  0  0  0  0  0  0  0  0
   14.9419    5.2629    5.9492 H   0  0  0  0  0  0  0  0  0  0  0  0
   14.9597    6.4750    3.8434 H   0  0  0  0  0  0  0  0  0  0  0  0
   16.4242    7.0982    1.9311 H   0  0  0  0  0  0  0  0  0  0  0  0
   18.3233    5.6197    1.2790 H   0  0  0  0  0  0  0  0  0  0  0  0
   18.7664    3.5314    2.5622 H   0  0  0  0  0  0  0  0  0  0  0  0
   17.3135    2.9037    4.4846 H   0  0  0  0  0  0  0  0  0  0  0  0
   10.1515    0.7948    9.3006 H   0  0  0  0  0  0  0  0  0  0  0  0
    8.7896    2.7328   10.0624 H   0  0  0  0  0  0  0  0  0  0  0  0
  1  2  1  0
  2  3  2  0
  2  4  1  0
  4  5  2  0
  5  6  1  0
  6  7  2  0
  7  8  1  0
  8  9  1  0
  9 10  1  0
 10 11  2  0
 10 12  1  0
 12 13  1  0
 13 14  1  0
 14 15  1  0
 15 16  1  0
 16 17  1  0
 17 18  2  0
 17 19  1  0
 19 20  1  0
 19 21  1  0
 21 22  1  0
 22 23  2  0
 23 24  1  0
 24 25  2  0
 25 26  1  0
 26 27  2  0
  7 28  1  0
 28 29  2  0
 29  4  1  0
 16 12  1  0
 27 22  1  0
  1 30  1  0
  1 31  1  0
  3 32  1  0
  3 33  1  0
  5 34  1  0
  6 35  1  0
  8 36  1  0
  8 37  1  0
  9 38  1  0
 12 39  1  6
 13 40  1  0
 13 41  1  0
 14 42  1  0
 14 43  1  0
 15 44  1  0
 15 45  1  0
 19 46  1  1
 20 47  1  0
 20 48  1  0
 20 49  1  0
 21 50  1  0
 21 51  1  0
 23 52  1  0
 24 53  1  0
 25 54  1  0
 26 55  1  0
 27 56  1  0
 28 57  1  0
 29 58  1  0
M  CHG  2   3   1  20   1
M  END
>  <meeko>  (1) 
{"is_sidechain": [false], "free_energy": -9.156, "intermolecular_energy": -13.706, "internal_energy": -1.014}

$$$$
2zda_ligand
     RDKit          3D

 58 60  0  0  0  0  0  0  0  0999 V2000
   15.5010    6.6680    2.4920 N   0  0  0  0  0  0  0  0  0  0  0  0
   16.4610    5.8550    2.8780 C   0  0  0  0  0  0  0  0  0  0  0  0
   17.6790    5.9630    2.3900 N   0  0  0  0  0  0  0  0  0  0  0  0
   16.1720    4.8110    3.8750 C   0  0  0  0  0  0  0  0  0  0  0  0
   16.9660    3.6560    3.9570 C   0  0  0  0  0  0  0  0  0  0  0  0
   16.7070    2.6750    4.9210 C   0  0  0  0  0  0  0  0  0  0  0  0
   15.6530    2.8290    5.8300 C   0  0  0  0  0  0  0  0  0  0  0  0
   15.3820    1.7880    6.8880 C   0  0  0  0  0  0  0  0  0  0  0  0
   14.3130    2.2060    7.7710 N   0  0  0  0  0  0  0  0  0  0  0  0
   13.7160    1.3320    8.6480 C   0  0  0  0  0  0  0  0  0  0  0  0
   14.0280    0.1370    8.6990 O   0  0  0  0  0  0  0  0  0  0  0  0
   12.5260    1.8880    9.4710 C   0  0  2  0  0  0  0  0  0  0  0  0
   12.4840    1.3680   10.9160 C   0  0  0  0  0  0  0  0  0  0  0  0
   11.6280    0.1170   10.8150 C   0  0  0  0  0  0  0  0  0  0  0  0
   10.5620    0.5340    9.8210 C   0  0  0  0  0  0  0  0  0  0  0  0
   11.2360    1.4460    8.8990 N   0  0  0  0  0  0  0  0  0  0  0  0
   10.5280    1.8780    7.8010 C   0  0  0  0  0  0  0  0  0  0  0  0
    9.5700    2.6490    7.9510 O   0  0  0  0  0  0  0  0  0  0  0  0
   10.7070    1.3000    6.3780 C   0  0  2  0  0  0  0  0  0  0  0  0
    9.3480    1.1560    5.7440 N   0  0  0  0  0  0  0  0  0  0  0  0
   11.5310    0.0320    6.1560 C   0  0  0  0  0  0  0  0  0  0  0  0
   12.6110    0.0870    5.1000 C   0  0  0  0  0  0  0  0  0  0  0  0
   13.4850   -1.0080    4.9840 C   0  0  0  0  0  0  0  0  0  0  0  0
   14.4950   -1.0210    4.0200 C   0  0  0  0  0  0  0  0  0  0  0  0
   14.6390    0.0530    3.1490 C   0  0  0  0  0  0  0  0  0  0  0  0
   13.7650    1.1340    3.2340 C   0  0  0  0  0  0  0  0  0  0  0  0
   12.7510    1.1490    4.1960 C   0  0  0  0  0  0  0  0  0  0  0  0
   14.8460    3.9700    5.7380 C   0  0  0  0  0  0  0  0  0  0  0  0
   15.1040    4.9510    4.7730 C   0  0  0  0  0  0  0  0  0  0  0  0
   14.5600    6.5570    2.8560 H   0  0  0  0  0  0  0  0  0  0  0  0
   15.6500    7.4040    1.8150 H   0  0  0  0  0  0  0  0  0  0  0  0
   18.4170    5.3490    2.7180 H   0  0  0  0  0  0  0  0  0  0  0  0
   17.9330    6.6650    1.7080 H   0  0  0  0  0  0  0  0  0  0  0  0
   17.8019    3.5204    3.2550 H   0  0  0  0  0  0  0  0  0  0  0  0
   17.3373    1.7746    4.9650 H   0  0  0  0  0  0  0  0  0  0  0  0
   15.0957    0.8452    6.3990 H   0  0  0  0  0  0  0  0  0  0  0  0
   16.2953    1.6525    7.4859 H   0  0  0  0  0  0  0  0  0  0  0  0
   13.8760    3.0980    7.5720 H   0  0  0  0  0  0  0  0  0  0  0  0
   12.6704    2.9782    9.4460 H   0  0  0  0  0  0  0  0  0  0  0  0
   13.4945    1.1255   11.2766 H   0  0  0  0  0  0  0  0  0  0  0  0
   12.0838    2.1061   11.6267 H   0  0  0  0  0  0  0  0  0  0  0  0
   12.2119   -0.7358   10.4385 H   0  0  0  0  0  0  0  0  0  0  0  0
   11.2224   -0.2182   11.7810 H   0  0  0  0  0  0  0  0  0  0  0  0
   10.1730   -0.3423    9.2818 H   0  0  0  0  0  0  0  0  0  0  0  0
    9.7016    1.0092   10.3149 H   0  0  0  0  0  0  0  0  0  0  0  0
   11.3559    2.0474    5.8980 H   0  0  0  0  0  0  0  0  0  0  0  0
    9.3750    1.0200    4.7300 H   0  0  0  0  0  0  0  0  0  0  0  0
    8.7860    1.9950    5.9480 H   0  0  0  0  0  0  0  0  0  0  0  0
    8.8380    0.3590    6.1790 H   0  0  0  0  0  0  0  0  0  0  0  0
   12.0146   -0.2201    7.1113 H   0  0  0  0  0  0  0  0  0  0  0  0
   10.8111   -0.7135    5.7872 H   0  0  0  0  0  0  0  0  0  0  0  0
   13.3716   -1.8666    5.6622 H   0  0  0  0  0  0  0  0  0  0  0  0
   15.1769   -1.8812    3.9497 H   0  0  0  0  0  0  0  0  0  0  0  0
   15.4403    0.0490    2.3954 H   0  0  0  0  0  0  0  0  0  0  0  0
   13.8733    1.9807    2.5402 H   0  0  0  0  0  0  0  0  0  0  0  0
   12.0572    2.0013    4.2440 H   0  0  0  0  0  0  0  0  0  0  0  0
   14.0011    4.0966    6.4308 H   0  0  0  0  0  0  0  0  0  0  0  0
   14.4614    5.8421    4.7186 H   0  0  0  0  0  0  0  0  0  0  0  0
  1  2  1  0
  2  3  2  0
  2  4  1  0
  4  5  2  0
  5  6  1  0
  6  7  2  0
  7  8  1  0
  8  9  1  0
  9 10  1  0
 10 11  2  0
 10 12  1  0
 12 13  1  0
 13 14  1  0
 14 15  1  0
 15 16  1  0
 16 17  1  0
 17 18  2  0
 17 19  1  0
 19 20  1  0
 19 21  1  0
 21 22  1  0
 22 23  2  0
 23 24  1  0
 24 25  2  0
 25 26  1  0
 26 27  2  0
  7 28  1  0
 28 29  2  0
 29  4  1  0
 16 12  1  0
 27 22  1  0
  1 30  1  0
  1 31  1  0
  3 32  1  0
  3 33  1  0
  5 34  1  0
  6 35  1  0
  8 36  1  0
  8 37  1  0
  9 38  1  0
 12 39  1  1
 13 40  1  0
 13 41  1  0
 14 42  1  0
 14 43  1  0
 15 44  1  0
 15 45  1  0
 19 46  1  6
 20 47  1  0
 20 48  1  0
 20 49  1  0
 21 50  1  0
 21 51  1  0
 23 52  1  0
 24 53  1  0
 25 54  1  0
 26 55  1  0
 27 56  1  0
 28 57  1  0
 29 58  1  0
M  CHG  2   3   1  20   1
M  END
>  <meeko>  (2) 
{"is_sidechain": [false], "free_energy": -8.986, "intermolecular_energy": -12.02, "internal_energy": -2.446}

$$$$
2zda_ligand
     RDKit          3D

 58 60  0  0  0  0  0  0  0  0999 V2000
   20.0100    4.8950    1.9000 N   0  0  0  0  0  0  0  0  0  0  0  0
   18.7590    4.6490    1.5780 C   0  0  0  0  0  0  0  0  0  0  0  0
   18.4030    4.4680    0.3240 N   0  0  0  0  0  0  0  0  0  0  0  0
   17.7380    4.5680    2.6370 C   0  0  0  0  0  0  0  0  0  0  0  0
   16.8070    5.6020    2.8180 C   0  0  0  0  0  0  0  0  0  0  0  0
   15.8210    5.5140    3.8080 C   0  0  0  0  0  0  0  0  0  0  0  0
   15.7400    4.3880    4.6350 C   0  0  0  0  0  0  0  0  0  0  0  0
   14.6670    4.2730    5.6890 C   0  0  0  0  0  0  0  0  0  0  0  0
   14.1730    2.9150    5.7880 N   0  0  0  0  0  0  0  0  0  0  0  0
   14.2440    2.2030    6.9610 C   0  0  0  0  0  0  0  0  0  0  0  0
   14.7710    2.6660    7.9800 O   0  0  0  0  0  0  0  0  0  0  0  0
   13.7600    0.7320    6.9050 C   0  0  2  0  0  0  0  0  0  0  0  0
   13.9420    0.0780    5.5270 C   0  0  0  0  0  0  0  0  0  0  0  0
   12.6300    0.3750    4.8210 C   0  0  0  0  0  0  0  0  0  0  0  0
   11.6170    0.2020    5.9350 C   0  0  0  0  0  0  0  0  0  0  0  0
   12.3030    0.6460    7.1470 N   0  0  0  0  0  0  0  0  0  0  0  0
   11.5640    0.7240    8.3040 C   0  0  0  0  0  0  0  0  0  0  0  0
   11.1110   -0.3100    8.8160 O   0  0  0  0  0  0  0  0  0  0  0  0
   11.0630    2.0520    8.9190 C   0  0  2  0  0  0  0  0  0  0  0  0
   12.0120    2.4620   10.0150 N   0  0  0  0  0  0  0  0  0  0  0  0
    9.6160    2.1880    9.3940 C   0  0  0  0  0  0  0  0  0  0  0  0
    8.6280    2.8030    8.4290 C   0  0  0  0  0  0  0  0  0  0  0  0
    7.9260    3.9500    8.8380 C   0  0  0  0  0  0  0  0  0  0  0  0
    7.0080    4.5700    7.9880 C   0  0  0  0  0  0  0  0  0  0  0  0
    6.7900    4.0620    6.7120 C   0  0  0  0  0  0  0  0  0  0  0  0
    7.4970    2.9430    6.2830 C   0  0  0  0  0  0  0  0  0  0  0  0
    8.4180    2.3210    7.1300 C   0  0  0  0  0  0  0  0  0  0  0  0
   16.6820    3.3630    4.4710 C   0  0  0  0  0  0  0  0  0  0  0  0
   17.6680    3.4510    3.4820 C   0  0  0  0  0  0  0  0  0  0  0  0
   20.2670    5.0590    2.8680 H   0  0  0  0  0  0  0  0  0  0  0  0
   20.7480    4.9550    1.2110 H   0  0  0  0  0  0  0  0  0  0  0  0
   17.4390    4.2500    0.0920 H   0  0  0  0  0  0  0  0  0  0  0  0
   19.0630    4.5080   -0.4420 H   0  0  0  0  0  0  0  0  0  0  0  0
   16.8524    6.4927    2.1741 H   0  0  0  0  0  0  0  0  0  0  0  0
   15.1033    6.3376    3.9370 H   0  0  0  0  0  0  0  0  0  0  0  0
   15.0850    4.5744    6.6608 H   0  0  0  0  0  0  0  0  0  0  0  0
   13.8299    4.9283    5.4066 H   0  0  0  0  0  0  0  0  0  0  0  0
   13.9730    2.4350    4.9180 H   0  0  0  0  0  0  0  0  0  0  0  0
   14.3664    0.2225    7.6683 H   0  0  0  0  0  0  0  0  0  0  0  0
   14.7896    0.5258    4.9875 H   0  0  0  0  0  0  0  0  0  0  0  0
   14.1633   -0.9978    5.5878 H   0  0  0  0  0  0  0  0  0  0  0  0
   12.6145    1.4009    4.4243 H   0  0  0  0  0  0  0  0  0  0  0  0
   12.4422   -0.2711    3.9508 H   0  0  0  0  0  0  0  0  0  0  0  0
   10.7269    0.8202    5.7468 H   0  0  0  0  0  0  0  0  0  0  0  0
   11.2684   -0.8381    6.0167 H   0  0  0  0  0  0  0  0  0  0  0  0
   11.0529    2.7267    8.0502 H   0  0  0  0  0  0  0  0  0  0  0  0
   11.5540    2.9020   10.8180 H   0  0  0  0  0  0  0  0  0  0  0  0
   12.7090    3.1170    9.6340 H   0  0  0  0  0  0  0  0  0  0  0  0
   12.5500    1.6330   10.3440 H   0  0  0  0  0  0  0  0  0  0  0  0
    9.2528    1.1798    9.6421 H   0  0  0  0  0  0  0  0  0  0  0  0
    9.6597    2.8888   10.2408 H   0  0  0  0  0  0  0  0  0  0  0  0
    8.1022    4.3649    9.8414 H   0  0  0  0  0  0  0  0  0  0  0  0
    6.4575    5.4598    8.3275 H   0  0  0  0  0  0  0  0  0  0  0  0
    6.0608    4.5434    6.0438 H   0  0  0  0  0  0  0  0  0  0  0  0
    7.3299    2.5456    5.2710 H   0  0  0  0  0  0  0  0  0  0  0  0
    8.9825    1.4464    6.7744 H   0  0  0  0  0  0  0  0  0  0  0  0
   16.6458    2.4804    5.1265 H   0  0  0  0  0  0  0  0  0  0  0  0
   18.3963    2.6349    3.3661 H   0  0  0  0  0  0  0  0  0  0  0  0
  1  2  1  0
  2  3  2  0
  2  4  1  0
  4  5  2  0
  5  6  1  0
  6  7  2  0
  7  8  1  0
  8  9  1  0
  9 10  1  0
 10 11  2  0
 10 12  1  0
 12 13  1  0
 13 14  1  0
 14 15  1  0
 15 16  1  0
 16 17  1  0
 17 18  2  0
 17 19  1  0
 19 20  1  0
 19 21  1  0
 21 22  1  0
 22 23  2  0
 23 24  1  0
 24 25  2  0
 25 26  1  0
 26 27  2  0
  7 28  1  0
 28 29  2  0
 29  4  1  0
 16 12  1  0
 27 22  1  0
  1 30  1  0
  1 31  1  0
  3 32  1  0
  3 33  1  0
  5 34  1  0
  6 35  1  0
  8 36  1  0
  8 37  1  0
  9 38  1  0
 12 39  1  1
 13 40  1  0
 13 41  1  0
 14 42  1  0
 14 43  1  0
 15 44  1  0
 15 45  1  0
 19 46  1  6
 20 47  1  0
 20 48  1  0
 20 49  1  0
 21 50  1  0
 21 51  1  0
 23 52  1  0
 24 53  1  0
 25 54  1  0
 26 55  1  0
 27 56  1  0
 28 57  1  0
 29 58  1  0
M  CHG  2   3   1  20   1
M  END
>  <meeko>  (3) 
{"is_sidechain": [false], "free_energy": -8.615, "intermolecular_energy": -12.97, "internal_energy": -0.941}

$$$$
2zda_ligand
     RDKit          3D

 58 60  0  0  0  0  0  0  0  0999 V2000
    7.7780    5.3410    9.3650 N   0  0  0  0  0  0  0  0  0  0  0  0
    7.3110    4.4540    8.5130 C   0  0  0  0  0  0  0  0  0  0  0  0
    6.1590    4.6400    7.9030 N   0  0  0  0  0  0  0  0  0  0  0  0
    8.0890    3.2370    8.2300 C   0  0  0  0  0  0  0  0  0  0  0  0
    8.7760    2.5680    9.2540 C   0  0  0  0  0  0  0  0  0  0  0  0
    9.4950    1.3970    8.9910 C   0  0  0  0  0  0  0  0  0  0  0  0
    9.5390    0.8630    7.6970 C   0  0  0  0  0  0  0  0  0  0  0  0
   10.2910   -0.4120    7.4070 C   0  0  0  0  0  0  0  0  0  0  0  0
   11.7100   -0.1600    7.2590 N   0  0  0  0  0  0  0  0  0  0  0  0
   12.5960   -0.3920    8.2840 C   0  0  0  0  0  0  0  0  0  0  0  0
   12.2270   -0.7840    9.3960 O   0  0  0  0  0  0  0  0  0  0  0  0
   14.0720    0.0030    8.0200 C   0  0  2  0  0  0  0  0  0  0  0  0
   14.9460   -0.0140    9.2820 C   0  0  0  0  0  0  0  0  0  0  0  0
   14.8240    1.4050    9.8130 C   0  0  0  0  0  0  0  0  0  0  0  0
   14.8380    2.2280    8.5410 C   0  0  0  0  0  0  0  0  0  0  0  0
   14.1670    1.3990    7.5420 N   0  0  0  0  0  0  0  0  0  0  0  0
   13.9170    1.9620    6.3120 C   0  0  0  0  0  0  0  0  0  0  0  0
   12.7670    2.3160    6.0190 O   0  0  0  0  0  0  0  0  0  0  0  0
   14.9450    1.9990    5.1570 C   0  0  2  0  0  0  0  0  0  0  0  0
   15.2650    0.5830    4.7540 N   0  0  0  0  0  0  0  0  0  0  0  0
   16.2310    2.8150    5.2900 C   0  0  0  0  0  0  0  0  0  0  0  0
   16.4030    3.9900    4.3550 C   0  0  0  0  0  0  0  0  0  0  0  0
   17.4710    3.9620    3.4410 C   0  0  0  0  0  0  0  0  0  0  0  0
   17.6750    5.0120    2.5440 C   0  0  0  0  0  0  0  0  0  0  0  0
   16.8080    6.0990    2.5370 C   0  0  0  0  0  0  0  0  0  0  0  0
   15.7300    6.1290    3.4180 C   0  0  0  0  0  0  0  0  0  0  0  0
   15.5210    5.0780    4.3150 C   0  0  0  0  0  0  0  0  0  0  0  0
    8.8710    1.5390    6.6670 C   0  0  0  0  0  0  0  0  0  0  0  0
    8.1530    2.7120    6.9300 C   0  0  0  0  0  0  0  0  0  0  0  0
    8.6550    5.1720    9.8480 H   0  0  0  0  0  0  0  0  0  0  0  0
    7.2850    6.1940    9.5880 H   0  0  0  0  0  0  0  0  0  0  0  0
    5.8230    3.9630    7.2260 H   0  0  0  0  0  0  0  0  0  0  0  0
    5.5860    5.4600    8.0570 H   0  0  0  0  0  0  0  0  0  0  0  0
    8.7490    2.9696   10.2777 H   0  0  0  0  0  0  0  0  0  0  0  0
   10.0306    0.8912    9.8079 H   0  0  0  0  0  0  0  0  0  0  0  0
   10.1362   -1.1168    8.2372 H   0  0  0  0  0  0  0  0  0  0  0  0
    9.9116   -0.8341    6.4647 H   0  0  0  0  0  0  0  0  0  0  0  0
   11.9970    0.3900    6.4580 H   0  0  0  0  0  0  0  0  0  0  0  0
   14.4206   -0.7398    7.2874 H   0  0  0  0  0  0  0  0  0  0  0  0
   14.5667   -0.7423   10.0139 H   0  0  0  0  0  0  0  0  0  0  0  0
   15.9862   -0.3095    9.0805 H   0  0  0  0  0  0  0  0  0  0  0  0
   13.8838    1.5436   10.3668 H   0  0  0  0  0  0  0  0  0  0  0  0
   15.6175    1.6791   10.5237 H   0  0  0  0  0  0  0  0  0  0  0  0
   14.2940    3.1729    8.6867 H   0  0  0  0  0  0  0  0  0  0  0  0
   15.8602    2.4950    8.2348 H   0  0  0  0  0  0  0  0  0  0  0  0
   14.4172    2.5827    4.3884 H   0  0  0  0  0  0  0  0  0  0  0  0
   15.3450   -0.0650    5.5420 H   0  0  0  0  0  0  0  0  0  0  0  0
   16.1490    0.5700    4.2270 H   0  0  0  0  0  0  0  0  0  0  0  0
   14.5370    0.2290    4.0980 H   0  0  0  0  0  0  0  0  0  0  0  0
   16.2726    3.2019    6.3189 H   0  0  0  0  0  0  0  0  0  0  0  0
   17.0383    2.1179    5.0211 H   0  0  0  0  0  0  0  0  0  0  0  0
   18.1553    3.1008    3.4326 H   0  0  0  0  0  0  0  0  0  0  0  0
   18.5218    4.9794    1.8426 H   0  0  0  0  0  0  0  0  0  0  0  0
   16.9730    6.9322    1.8381 H   0  0  0  0  0  0  0  0  0  0  0  0
   15.0390    6.9848    3.4078 H   0  0  0  0  0  0  0  0  0  0  0  0
   14.6570    5.1051    4.9952 H   0  0  0  0  0  0  0  0  0  0  0  0
    8.9112    1.1439    5.6412 H   0  0  0  0  0  0  0  0  0  0  0  0
    7.6335    3.2276    6.1088 H   0  0  0  0  0  0  0  0  0  0  0  0
  1  2  1  0
  2  3  2  0
  2  4  1  0
  4  5  2  0
  5  6  1  0
  6  7  2  0
  7  8  1  0
  8  9  1  0
  9 10  1  0
 10 11  2  0
 10 12  1  0
 12 13  1  0
 13 14  1  0
 14 15  1  0
 15 16  1  0
 16 17  1  0
 17 18  2  0
 17 19  1  0
 19 20  1  0
 19 21  1  0
 21 22  1  0
 22 23  2  0
 23 24  1  0
 24 25  2  0
 25 26  1  0
 26 27  2  0
  7 28  1  0
 28 29  2  0
 29  4  1  0
 16 12  1  0
 27 22  1  0
  1 30  1  0
  1 31  1  0
  3 32  1  0
  3 33  1  0
  5 34  1  0
  6 35  1  0
  8 36  1  0
  8 37  1  0
  9 38  1  0
 12 39  1  6
 13 40  1  0
 13 41  1  0
 14 42  1  0
 14 43  1  0
 15 44  1  0
 15 45  1  0
 19 46  1  6
 20 47  1  0
 20 48  1  0
 20 49  1  0
 21 50  1  0
 21 51  1  0
 23 52  1  0
 24 53  1  0
 25 54  1  0
 26 55  1  0
 27 56  1  0
 28 57  1  0
 29 58  1  0
M  CHG  2   3   1  20   1
M  END
>  <meeko>  (4) 
{"is_sidechain": [false], "free_energy": -8.534, "intermolecular_energy": -12.779, "internal_energy": -1.01}

$$$$
2zda_ligand
     RDKit          3D

 58 60  0  0  0  0  0  0  0  0999 V2000
    6.0240    4.8930    8.0480 N   0  0  0  0  0  0  0  0  0  0  0  0
    7.1890    4.5310    8.5410 C   0  0  0  0  0  0  0  0  0  0  0  0
    7.6970    5.1360    9.5940 N   0  0  0  0  0  0  0  0  0  0  0  0
    7.9350    3.4290    7.9110 C   0  0  0  0  0  0  0  0  0  0  0  0
    7.5660    2.9420    6.6470 C   0  0  0  0  0  0  0  0  0  0  0  0
    8.2900    1.9120    6.0360 C   0  0  0  0  0  0  0  0  0  0  0  0
    9.4040    1.3490    6.6720 C   0  0  0  0  0  0  0  0  0  0  0  0
   10.2050    0.2550    6.0120 C   0  0  0  0  0  0  0  0  0  0  0  0
   11.2530    0.8040    5.1770 N   0  0  0  0  0  0  0  0  0  0  0  0
   12.4660    0.1750    5.0320 C   0  0  0  0  0  0  0  0  0  0  0  0
   12.7430   -0.8670    5.6370 O   0  0  0  0  0  0  0  0  0  0  0  0
   13.5290    0.9150    4.1800 C   0  0  2  0  0  0  0  0  0  0  0  0
   14.3040   -0.0070    3.2280 C   0  0  0  0  0  0  0  0  0  0  0  0
   15.5000   -0.4440    4.0580 C   0  0  0  0  0  0  0  0  0  0  0  0
   15.8550    0.8250    4.8060 C   0  0  0  0  0  0  0  0  0  0  0  0
   14.5800    1.5000    5.0410 N   0  0  0  0  0  0  0  0  0  0  0  0
   14.5930    2.6280    5.8280 C   0  0  0  0  0  0  0  0  0  0  0  0
   14.9380    3.7140    5.3420 O   0  0  0  0  0  0  0  0  0  0  0  0
   14.4080    2.6090    7.3630 C   0  0  2  0  0  0  0  0  0  0  0  0
   15.3100    3.6530    7.9690 N   0  0  0  0  0  0  0  0  0  0  0  0
   14.5210    1.2970    8.1400 C   0  0  0  0  0  0  0  0  0  0  0  0
   13.4090    0.9710    9.1100 C   0  0  0  0  0  0  0  0  0  0  0  0
   13.0270    1.9540   10.0400 C   0  0  0  0  0  0  0  0  0  0  0  0
   11.9990    1.7170   10.9540 C   0  0  0  0  0  0  0  0  0  0  0  0
   11.3270    0.5000   10.9430 C   0  0  0  0  0  0  0  0  0  0  0  0
   11.6750   -0.4740   10.0120 C   0  0  0  0  0  0  0  0  0  0  0  0
   12.7020   -0.2390    9.0930 C   0  0  0  0  0  0  0  0  0  0  0  0
    9.7620    1.8190    7.9430 C   0  0  0  0  0  0  0  0  0  0  0  0
    9.0370    2.8490    8.5540 C   0  0  0  0  0  0  0  0  0  0  0  0
    5.6550    4.4360    7.2200 H   0  0  0  0  0  0  0  0  0  0  0  0
    5.4710    5.6390    8.4480 H   0  0  0  0  0  0  0  0  0  0  0  0
    8.5830    4.8280    9.9820 H   0  0  0  0  0  0  0  0  0  0  0  0
    7.2260    5.8950   10.0690 H   0  0  0  0  0  0  0  0  0  0  0  0
    6.6969    3.3755    6.1304 H   0  0  0  0  0  0  0  0  0  0  0  0
    7.9816    1.5411    5.0474 H   0  0  0  0  0  0  0  0  0  0  0  0
   10.6596   -0.3760    6.7899 H   0  0  0  0  0  0  0  0  0  0  0  0
    9.5290   -0.3375    5.3780 H   0  0  0  0  0  0  0  0  0  0  0  0
   11.1450    1.7670    4.8790 H   0  0  0  0  0  0  0  0  0  0  0  0
   12.9487    1.6627    3.6195 H   0  0  0  0  0  0  0  0  0  0  0  0
   13.6922   -0.8723    2.9330 H   0  0  0  0  0  0  0  0  0  0  0  0
   14.5908    0.4884    2.2887 H   0  0  0  0  0  0  0  0  0  0  0  0
   15.2289   -1.2530    4.7522 H   0  0  0  0  0  0  0  0  0  0  0  0
   16.3286   -0.8480    3.4579 H   0  0  0  0  0  0  0  0  0  0  0  0
   16.3465    0.5856    5.7605 H   0  0  0  0  0  0  0  0  0  0  0  0
   16.5555    1.4550    4.2381 H   0  0  0  0  0  0  0  0  0  0  0  0
   13.3335    2.8165    7.4748 H   0  0  0  0  0  0  0  0  0  0  0  0
   15.3570    3.6190    8.9910 H   0  0  0  0  0  0  0  0  0  0  0  0
   14.9860    4.5890    7.6860 H   0  0  0  0  0  0  0  0  0  0  0  0
   16.2720    3.5560    7.5820 H   0  0  0  0  0  0  0  0  0  0  0  0
   14.5690    0.4801    7.4049 H   0  0  0  0  0  0  0  0  0  0  0  0
   15.4179    1.4144    8.7659 H   0  0  0  0  0  0  0  0  0  0  0  0
   13.5458    2.9239   10.0474 H   0  0  0  0  0  0  0  0  0  0  0  0
   11.7207    2.4927   11.6826 H   0  0  0  0  0  0  0  0  0  0  0  0
   10.5225    0.3075   11.6681 H   0  0  0  0  0  0  0  0  0  0  0  0
   11.1389   -1.4344    9.9991 H   0  0  0  0  0  0  0  0  0  0  0  0
   12.9571   -1.0098    8.3508 H   0  0  0  0  0  0  0  0  0  0  0  0
   10.6215    1.3740    8.4658 H   0  0  0  0  0  0  0  0  0  0  0  0
    9.3357    3.2072    9.5502 H   0  0  0  0  0  0  0  0  0  0  0  0
  1  2  1  0
  2  3  2  0
  2  4  1  0
  4  5  2  0
  5  6  1  0
  6  7  2  0
  7  8  1  0
  8  9  1  0
  9 10  1  0
 10 11  2  0
 10 12  1  0
 12 13  1  0
 13 14  1  0
 14 15  1  0
 15 16  1  0
 16 17  1  0
 17 18  2  0
 17 19  1  0
 19 20  1  0
 19 21  1  0
 21 22  1  0
 22 23  2  0
 23 24  1  0
 24 25  2  0
 25 26  1  0
 26 27  2  0
  7 28  1  0
 28 29  2  0
 29  4  1  0
 16 12  1  0
 27 22  1  0
  1 30  1  0
  1 31  1  0
  3 32  1  0
  3 33  1  0
  5 34  1  0
  6 35  1  0
  8 36  1  0
  8 37  1  0
  9 38  1  0
 12 39  1  6
 13 40  1  0
 13 41  1  0
 14 42  1  0
 14 43  1  0
 15 44  1  0
 15 45  1  0
 19 46  1  6
 20 47  1  0
 20 48  1  0
 20 49  1  0
 21 50  1  0
 21 51  1  0
 23 52  1  0
 24 53  1  0
 25 54  1  0
 26 55  1  0
 27 56  1  0
 28 57  1  0
 29 58  1  0
M  CHG  2   3   1  20   1
M  END
>  <meeko>  (5) 
{"is_sidechain": [false], "free_energy": -8.532, "intermolecular_energy": -11.791, "internal_energy": -1.995}

$$$$
2zda_ligand
     RDKit          3D

 58 60  0  0  0  0  0  0  0  0999 V2000
   12.3600    0.8720   12.8950 N   0  0  0  0  0  0  0  0  0  0  0  0
   11.5930   -0.0360   12.3310 C   0  0  0  0  0  0  0  0  0  0  0  0
   11.1440   -1.0660   13.0170 N   0  0  0  0  0  0  0  0  0  0  0  0
   11.2240    0.1020   10.9120 C   0  0  0  0  0  0  0  0  0  0  0  0
   10.1720    0.9440   10.5220 C   0  0  0  0  0  0  0  0  0  0  0  0
    9.8370    1.0960    9.1710 C   0  0  0  0  0  0  0  0  0  0  0  0
   10.5520    0.4140    8.1790 C   0  0  0  0  0  0  0  0  0  0  0  0
   10.2150    0.5900    6.7190 C   0  0  0  0  0  0  0  0  0  0  0  0
   11.3090    1.2110    6.0000 N   0  0  0  0  0  0  0  0  0  0  0  0
   12.1390    0.4850    5.1790 C   0  0  0  0  0  0  0  0  0  0  0  0
   12.0250   -0.7390    5.0450 O   0  0  0  0  0  0  0  0  0  0  0  0
   13.3210    1.2570    4.5400 C   0  0  2  0  0  0  0  0  0  0  0  0
   13.9510    0.5320    3.3430 C   0  0  0  0  0  0  0  0  0  0  0  0
   15.0470   -0.3090    3.9780 C   0  0  0  0  0  0  0  0  0  0  0  0
   15.5920    0.6200    5.0430 C   0  0  0  0  0  0  0  0  0  0  0  0
   14.4400    1.3960    5.4980 N   0  0  0  0  0  0  0  0  0  0  0  0
   14.6230    2.2360    6.5720 C   0  0  0  0  0  0  0  0  0  0  0  0
   14.0160    2.0230    7.6310 O   0  0  0  0  0  0  0  0  0  0  0  0
   15.3850    3.5800    6.4940 C   0  0  2  0  0  0  0  0  0  0  0  0
   15.4660    4.1660    7.8800 N   0  0  0  0  0  0  0  0  0  0  0  0
   14.9620    4.6520    5.4900 C   0  0  0  0  0  0  0  0  0  0  0  0
   15.8850    4.9030    4.3200 C   0  0  0  0  0  0  0  0  0  0  0  0
   16.8400    3.9210    4.0030 C   0  0  0  0  0  0  0  0  0  0  0  0
   17.7130    4.0900    2.9260 C   0  0  0  0  0  0  0  0  0  0  0  0
   17.6360    5.2360    2.1420 C   0  0  0  0  0  0  0  0  0  0  0  0
   16.6790    6.2060    2.4270 C   0  0  0  0  0  0  0  0  0  0  0  0
   15.8010    6.0390    3.5020 C   0  0  0  0  0  0  0  0  0  0  0  0
   11.5910   -0.4430    8.5670 C   0  0  0  0  0  0  0  0  0  0  0  0
   11.9240   -0.5960    9.9170 C   0  0  0  0  0  0  0  0  0  0  0  0
   12.7210    1.6470   12.3480 H   0  0  0  0  0  0  0  0  0  0  0  0
   12.6360    0.8240   13.8660 H   0  0  0  0  0  0  0  0  0  0  0  0
   10.5290   -1.7440   12.5780 H   0  0  0  0  0  0  0  0  0  0  0  0
   11.3620   -1.2080   13.9940 H   0  0  0  0  0  0  0  0  0  0  0  0
    9.6029    1.4919   11.2874 H   0  0  0  0  0  0  0  0  0  0  0  0
    9.0049    1.7569    8.8865 H   0  0  0  0  0  0  0  0  0  0  0  0
   10.0089   -0.3959    6.2769 H   0  0  0  0  0  0  0  0  0  0  0  0
    9.3325    1.2420    6.6413 H   0  0  0  0  0  0  0  0  0  0  0  0
   11.5730    2.1460    6.2870 H   0  0  0  0  0  0  0  0  0  0  0  0
   12.8788    2.2165    4.2337 H   0  0  0  0  0  0  0  0  0  0  0  0
   13.2116   -0.1040    2.8343 H   0  0  0  0  0  0  0  0  0  0  0  0
   14.3296    1.2213    2.5739 H   0  0  0  0  0  0  0  0  0  0  0  0
   14.6368   -1.2276    4.4229 H   0  0  0  0  0  0  0  0  0  0  0  0
   15.8084   -0.6527    3.2623 H   0  0  0  0  0  0  0  0  0  0  0  0
   16.0220    0.0432    5.8751 H   0  0  0  0  0  0  0  0  0  0  0  0
   16.3955    1.2639    4.6560 H   0  0  0  0  0  0  0  0  0  0  0  0
   16.3545    3.2800    6.0696 H   0  0  0  0  0  0  0  0  0  0  0  0
   16.2600    4.7980    8.0180 H   0  0  0  0  0  0  0  0  0  0  0  0
   15.5300    3.4040    8.5700 H   0  0  0  0  0  0  0  0  0  0  0  0
   14.5850    4.6770    8.1000 H   0  0  0  0  0  0  0  0  0  0  0  0
   13.9837    4.3568    5.0827 H   0  0  0  0  0  0  0  0  0  0  0  0
   14.9641    5.5925    6.0606 H   0  0  0  0  0  0  0  0  0  0  0  0
   16.9004    3.0068    4.6118 H   0  0  0  0  0  0  0  0  0  0  0  0
   18.4614    3.3167    2.6979 H   0  0  0  0  0  0  0  0  0  0  0  0
   18.3291    5.3756    1.2993 H   0  0  0  0  0  0  0  0  0  0  0  0
   16.6133    7.1092    1.8026 H   0  0  0  0  0  0  0  0  0  0  0  0
   15.0384    6.8046    3.7078 H   0  0  0  0  0  0  0  0  0  0  0  0
   12.1505   -1.0012    7.8019 H   0  0  0  0  0  0  0  0  0  0  0  0
   12.7442   -1.2715   10.2015 H   0  0  0  0  0  0  0  0  0  0  0  0
  1  2  1  0
  2  3  2  0
  2  4  1  0
  4  5  2  0
  5  6  1  0
  6  7  2  0
  7  8  1  0
  8  9  1  0
  9 10  1  0
 10 11  2  0
 10 12  1  0
 12 13  1  0
 13 14  1  0
 14 15  1  0
 15 16  1  0
 16 17  1  0
 17 18  2  0
 17 19  1  0
 19 20  1  0
 19 21  1  0
 21 22  1  0
 22 23  2  0
 23 24  1  0
 24 25  2  0
 25 26  1  0
 26 27  2  0
  7 28  1  0
 28 29  2  0
 29  4  1  0
 16 12  1  0
 27 22  1  0
  1 30  1  0
  1 31  1  0
  3 32  1  0
  3 33  1  0
  5 34  1  0
  6 35  1  0
  8 36  1  0
  8 37  1  0
  9 38  1  0
 12 39  1  6
 13 40  1  0
 13 41  1  0
 14 42  1  0
 14 43  1  0
 15 44  1  0
 15 45  1  0
 19 46  1  6
 20 47  1  0
 20 48  1  0
 20 49  1  0
 21 50  1  0
 21 51  1  0
 23 52  1  0
 24 53  1  0
 25 54  1  0
 26 55  1  0
 27 56  1  0
 28 57  1  0
 29 58  1  0
M  CHG  2   3   1  20   1
M  END
>  <meeko>  (6) 
{"is_sidechain": [false], "free_energy": -8.346, "intermolecular_energy": -12.163, "internal_energy": -1.344}

$$$$
2zda_ligand
     RDKit          3D

 58 60  0  0  0  0  0  0  0  0999 V2000
   19.7910    3.3070    1.7290 N   0  0  0  0  0  0  0  0  0  0  0  0
   18.7290    4.0520    1.5120 C   0  0  0  0  0  0  0  0  0  0  0  0
   18.4750    4.5400    0.3160 N   0  0  0  0  0  0  0  0  0  0  0  0
   17.8050    4.3420    2.6210 C   0  0  0  0  0  0  0  0  0  0  0  0
   17.8190    3.5660    3.7900 C   0  0  0  0  0  0  0  0  0  0  0  0
   16.9580    3.8560    4.8550 C   0  0  0  0  0  0  0  0  0  0  0  0
   16.0680    4.9340    4.7780 C   0  0  0  0  0  0  0  0  0  0  0  0
   15.1530    5.2700    5.9290 C   0  0  0  0  0  0  0  0  0  0  0  0
   15.1900    4.2380    6.9450 N   0  0  0  0  0  0  0  0  0  0  0  0
   15.7650    4.4550    8.1750 C   0  0  0  0  0  0  0  0  0  0  0  0
   16.3170    5.5230    8.4630 O   0  0  0  0  0  0  0  0  0  0  0  0
   15.8140    3.2400    9.1360 C   0  0  2  0  0  0  0  0  0  0  0  0
   17.2050    2.5990    9.2440 C   0  0  0  0  0  0  0  0  0  0  0  0
   17.1900    1.5400    8.1540 C   0  0  0  0  0  0  0  0  0  0  0  0
   15.7780    0.9980    8.2500 C   0  0  0  0  0  0  0  0  0  0  0  0
   14.9560    2.1410    8.6410 N   0  0  0  0  0  0  0  0  0  0  0  0
   13.5920    1.9630    8.6720 C   0  0  0  0  0  0  0  0  0  0  0  0
   13.0270    1.7170    9.7470 O   0  0  0  0  0  0  0  0  0  0  0  0
   12.7120    1.8350    7.4070 C   0  0  2  0  0  0  0  0  0  0  0  0
   11.3660    2.4470    7.6950 N   0  0  0  0  0  0  0  0  0  0  0  0
   12.5410    0.4820    6.7160 C   0  0  0  0  0  0  0  0  0  0  0  0
   13.3720    0.2290    5.4790 C   0  0  0  0  0  0  0  0  0  0  0  0
   14.1220    1.2940    4.9520 C   0  0  0  0  0  0  0  0  0  0  0  0
   14.9170    1.1200    3.8180 C   0  0  0  0  0  0  0  0  0  0  0  0
   14.9870   -0.1250    3.2020 C   0  0  0  0  0  0  0  0  0  0  0  0
   14.2710   -1.1970    3.7280 C   0  0  0  0  0  0  0  0  0  0  0  0
   13.4760   -1.0270    4.8650 C   0  0  0  0  0  0  0  0  0  0  0  0
   16.0360    5.6990    3.6040 C   0  0  0  0  0  0  0  0  0  0  0  0
   16.8960    5.4070    2.5390 C   0  0  0  0  0  0  0  0  0  0  0  0
   19.9890    2.9590    2.6620 H   0  0  0  0  0  0  0  0  0  0  0  0
   20.4520    3.0750    1.0000 H   0  0  0  0  0  0  0  0  0  0  0  0
   17.6370    5.0900    0.1550 H   0  0  0  0  0  0  0  0  0  0  0  0
   19.0730    4.3690   -0.4810 H   0  0  0  0  0  0  0  0  0  0  0  0
   18.5157    2.7186    3.8706 H   0  0  0  0  0  0  0  0  0  0  0  0
   16.9809    3.2315    5.7602 H   0  0  0  0  0  0  0  0  0  0  0  0
   15.4719    6.2239    6.3744 H   0  0  0  0  0  0  0  0  0  0  0  0
   14.1245    5.3458    5.5462 H   0  0  0  0  0  0  0  0  0  0  0  0
   14.9750    3.2940    6.6480 H   0  0  0  0  0  0  0  0  0  0  0  0
   15.4918    3.6519   10.1037 H   0  0  0  0  0  0  0  0  0  0  0  0
   17.9958    3.3413    9.0608 H   0  0  0  0  0  0  0  0  0  0  0  0
   17.4110    2.1852   10.2422 H   0  0  0  0  0  0  0  0  0  0  0  0
   17.3803    1.9831    7.1654 H   0  0  0  0  0  0  0  0  0  0  0  0
   17.9665    0.7706    8.2766 H   0  0  0  0  0  0  0  0  0  0  0  0
   15.4500    0.6012    7.2779 H   0  0  0  0  0  0  0  0  0  0  0  0
   15.7027    0.1709    8.9713 H   0  0  0  0  0  0  0  0  0  0  0  0
   13.3038    2.3720    6.6511 H   0  0  0  0  0  0  0  0  0  0  0  0
   11.4140    3.3520    8.1690 H   0  0  0  0  0  0  0  0  0  0  0  0
   10.8150    1.8000    8.2770 H   0  0  0  0  0  0  0  0  0  0  0  0
   10.8310    2.5570    6.8080 H   0  0  0  0  0  0  0  0  0  0  0  0
   12.7927   -0.2984    7.4492 H   0  0  0  0  0  0  0  0  0  0  0  0
   11.4987    0.4724    6.3646 H   0  0  0  0  0  0  0  0  0  0  0  0
   14.0820    2.2790    5.4401 H   0  0  0  0  0  0  0  0  0  0  0  0
   15.4882    1.9676    3.4115 H   0  0  0  0  0  0  0  0  0  0  0  0
   15.6056   -0.2622    2.3028 H   0  0  0  0  0  0  0  0  0  0  0  0
   14.3313   -2.1838    3.2458 H   0  0  0  0  0  0  0  0  0  0  0  0
   12.9279   -1.8851    5.2811 H   0  0  0  0  0  0  0  0  0  0  0  0
   15.3283    6.5368    3.5188 H   0  0  0  0  0  0  0  0  0  0  0  0
   16.8585    6.0202    1.6266 H   0  0  0  0  0  0  0  0  0  0  0  0
  1  2  1  0
  2  3  2  0
  2  4  1  0
  4  5  2  0
  5  6  1  0
  6  7  2  0
  7  8  1  0
  8  9  1  0
  9 10  1  0
 10 11  2  0
 10 12  1  0
 12 13  1  0
 13 14  1  0
 14 15  1  0
 15 16  1  0
 16 17  1  0
 17 18  2  0
 17 19  1  0
 19 20  1  0
 19 21  1  0
 21 22  1  0
 22 23  2  0
 23 24  1  0
 24 25  2  0
 25 26  1  0
 26 27  2  0
  7 28  1  0
 28 29  2  0
 29  4  1  0
 16 12  1  0
 27 22  1  0
  1 30  1  0
  1 31  1  0
  3 32  1  0
  3 33  1  0
  5 34  1  0
  6 35  1  0
  8 36  1  0
  8 37  1  0
  9 38  1  0
 12 39  1  1
 13 40  1  0
 13 41  1  0
 14 42  1  0
 14 43  1  0
 15 44  1  0
 15 45  1  0
 19 46  1  6
 20 47  1  0
 20 48  1  0
 20 49  1  0
 21 50  1  0
 21 51  1  0
 23 52  1  0
 24 53  1  0
 25 54  1  0
 26 55  1  0
 27 56  1  0
 28 57  1  0
 29 58  1  0
M  CHG  2   3   1  20   1
M  END
>  <meeko>  (7) 
{"is_sidechain": [false], "free_energy": -8.265, "intermolecular_energy": -11.581, "internal_energy": -1.805}

$$$$
2zda_ligand
     RDKit          3D

 58 60  0  0  0  0  0  0  0  0999 V2000
    6.6930    4.5970    5.0310 N   0  0  0  0  0  0  0  0  0  0  0  0
    6.3790    4.4150    6.2960 C   0  0  0  0  0  0  0  0  0  0  0  0
    5.2990    4.9610    6.8120 N   0  0  0  0  0  0  0  0  0  0  0  0
    7.2450    3.5820    7.1470 C   0  0  0  0  0  0  0  0  0  0  0  0
    7.7240    2.3440    6.6920 C   0  0  0  0  0  0  0  0  0  0  0  0
    8.5670    1.5630    7.4910 C   0  0  0  0  0  0  0  0  0  0  0  0
    8.9560    2.0060    8.7610 C   0  0  0  0  0  0  0  0  0  0  0  0
    9.8840    1.1830    9.6200 C   0  0  0  0  0  0  0  0  0  0  0  0
   11.0380    0.7370    8.8660 N   0  0  0  0  0  0  0  0  0  0  0  0
   12.1380    0.1920    9.4840 C   0  0  0  0  0  0  0  0  0  0  0  0
   12.2200    0.0930   10.7130 O   0  0  0  0  0  0  0  0  0  0  0  0
   13.3370   -0.1620    8.5670 C   0  0  2  0  0  0  0  0  0  0  0  0
   14.6700   -0.2800    9.3190 C   0  0  0  0  0  0  0  0  0  0  0  0
   15.2360    1.1290    9.2530 C   0  0  0  0  0  0  0  0  0  0  0  0
   14.8610    1.5630    7.8510 C   0  0  0  0  0  0  0  0  0  0  0  0
   13.5810    0.9110    7.5790 N   0  0  0  0  0  0  0  0  0  0  0  0
   12.9340    1.2410    6.4110 C   0  0  0  0  0  0  0  0  0  0  0  0
   12.2840    2.2940    6.3440 O   0  0  0  0  0  0  0  0  0  0  0  0
   12.7770    0.2780    5.2120 C   0  0  2  0  0  0  0  0  0  0  0  0
   11.3460    0.3260    4.7410 N   0  0  0  0  0  0  0  0  0  0  0  0
   13.2510   -1.1720    5.3160 C   0  0  0  0  0  0  0  0  0  0  0  0
   12.1900   -2.2330    5.4980 C   0  0  0  0  0  0  0  0  0  0  0  0
   12.2770   -3.4000    4.7190 C   0  0  0  0  0  0  0  0  0  0  0  0
   11.3330   -4.4210    4.8500 C   0  0  0  0  0  0  0  0  0  0  0  0
   10.2990   -4.2980    5.7700 C   0  0  0  0  0  0  0  0  0  0  0  0
   10.2140   -3.1600    6.5670 C   0  0  0  0  0  0  0  0  0  0  0  0
   11.1580   -2.1370    6.4410 C   0  0  0  0  0  0  0  0  0  0  0  0
    8.4630    3.2320    9.2270 C   0  0  0  0  0  0  0  0  0  0  0  0
    7.6190    4.0120    8.4290 C   0  0  0  0  0  0  0  0  0  0  0  0
    7.5430    4.1920    4.6520 H   0  0  0  0  0  0  0  0  0  0  0  0
    6.1290    5.1550    4.4050 H   0  0  0  0  0  0  0  0  0  0  0  0
    5.0520    4.7890    7.7820 H   0  0  0  0  0  0  0  0  0  0  0  0
    4.6670    5.5380    6.2720 H   0  0  0  0  0  0  0  0  0  0  0  0
    7.4332    1.9827    5.6946 H   0  0  0  0  0  0  0  0  0  0  0  0
    8.9270    0.5928    7.1180 H   0  0  0  0  0  0  0  0  0  0  0  0
   10.2243    1.7946   10.4686 H   0  0  0  0  0  0  0  0  0  0  0  0
    9.3364    0.2975    9.9751 H   0  0  0  0  0  0  0  0  0  0  0  0
   11.0970    1.0350    7.9000 H   0  0  0  0  0  0  0  0  0  0  0  0
   13.0520   -1.1231    8.1141 H   0  0  0  0  0  0  0  0  0  0  0  0
   14.5078   -0.5908   10.3616 H   0  0  0  0  0  0  0  0  0  0  0  0
   15.3429   -1.0344    8.8855 H   0  0  0  0  0  0  0  0  0  0  0  0
   14.7725    1.7801   10.0088 H   0  0  0  0  0  0  0  0  0  0  0  0
   16.3161    1.1794    9.4553 H   0  0  0  0  0  0  0  0  0  0  0  0
   14.7554    2.6568    7.8008 H   0  0  0  0  0  0  0  0  0  0  0  0
   15.6294    1.2850    7.1146 H   0  0  0  0  0  0  0  0  0  0  0  0
   13.5066    0.6761    4.4915 H   0  0  0  0  0  0  0  0  0  0  0  0
   10.8420    1.1690    5.0320 H   0  0  0  0  0  0  0  0  0  0  0  0
   10.8420   -0.4970    5.0980 H   0  0  0  0  0  0  0  0  0  0  0  0
   11.3130    0.2540    3.7030 H   0  0  0  0  0  0  0  0  0  0  0  0
   13.8002   -1.4079    4.3926 H   0  0  0  0  0  0  0  0  0  0  0  0
   13.8510   -1.2093    6.2372 H   0  0  0  0  0  0  0  0  0  0  0  0
   13.0993   -3.5105    3.9968 H   0  0  0  0  0  0  0  0  0  0  0  0
   11.4081   -5.3228    4.2246 H   0  0  0  0  0  0  0  0  0  0  0  0
    9.5499   -5.0975    5.8682 H   0  0  0  0  0  0  0  0  0  0  0  0
    9.3994   -3.0653    7.3001 H   0  0  0  0  0  0  0  0  0  0  0  0
   11.0903   -1.2494    7.0873 H   0  0  0  0  0  0  0  0  0  0  0  0
    8.7424    3.5849   10.2307 H   0  0  0  0  0  0  0  0  0  0  0  0
    7.2445    4.9731    8.8110 H   0  0  0  0  0  0  0  0  0  0  0  0
  1  2  1  0
  2  3  2  0
  2  4  1  0
  4  5  2  0
  5  6  1  0
  6  7  2  0
  7  8  1  0
  8  9  1  0
  9 10  1  0
 10 11  2  0
 10 12  1  0
 12 13  1  0
 13 14  1  0
 14 15  1  0
 15 16  1  0
 16 17  1  0
 17 18  2  0
 17 19  1  0
 19 20  1  0
 19 21  1  0
 21 22  1  0
 22 23  2  0
 23 24  1  0
 24 25  2  0
 25 26  1  0
 26 27  2  0
  7 28  1  0
 28 29  2  0
 29  4  1  0
 16 12  1  0
 27 22  1  0
  1 30  1  0
  1 31  1  0
  3 32  1  0
  3 33  1  0
  5 34  1  0
  6 35  1  0
  8 36  1  0
  8 37  1  0
  9 38  1  0
 12 39  1  6
 13 40  1  0
 13 41  1  0
 14 42  1  0
 14 43  1  0
 15 44  1  0
 15 45  1  0
 19 46  1  6
 20 47  1  0
 20 48  1  0
 20 49  1  0
 21 50  1  0
 21 51  1  0
 23 52  1  0
 24 53  1  0
 25 54  1  0
 26 55  1  0
 27 56  1  0
 28 57  1  0
 29 58  1  0
M  CHG  2   3   1  20   1
M  END
>  <meeko>  (8) 
{"is_sidechain": [false], "free_energy": -8.21, "intermolecular_energy": -12.413, "internal_energy": -0.891}

$$$$
2zda_ligand
     RDKit          3D

 58 60  0  0  0  0  0  0  0  0999 V2000
    6.4520    4.7550    8.4090 N   0  0  0  0  0  0  0  0  0  0  0  0
    6.9300    4.1500    7.3430 C   0  0  0  0  0  0  0  0  0  0  0  0
    6.6160    4.5590    6.1320 N   0  0  0  0  0  0  0  0  0  0  0  0
    7.8340    2.9990    7.5050 C   0  0  0  0  0  0  0  0  0  0  0  0
    8.2320    2.2360    6.3960 C   0  0  0  0  0  0  0  0  0  0  0  0
    9.1120    1.1580    6.5460 C   0  0  0  0  0  0  0  0  0  0  0  0
    9.6190    0.8220    7.8070 C   0  0  0  0  0  0  0  0  0  0  0  0
   10.5860   -0.3240    7.9750 C   0  0  0  0  0  0  0  0  0  0  0  0
   11.4630   -0.1070    9.1070 N   0  0  0  0  0  0  0  0  0  0  0  0
   12.6510   -0.7840    9.2420 C   0  0  0  0  0  0  0  0  0  0  0  0
   13.0140   -1.6430    8.4300 O   0  0  0  0  0  0  0  0  0  0  0  0
   13.4500   -0.5220   10.5440 C   0  0  2  0  0  0  0  0  0  0  0  0
   12.5770   -0.0430   11.7130 C   0  0  0  0  0  0  0  0  0  0  0  0
   12.6040    1.4700   11.5760 C   0  0  0  0  0  0  0  0  0  0  0  0
   14.0400    1.7320   11.1660 C   0  0  0  0  0  0  0  0  0  0  0  0
   14.4220    0.5770   10.3550 N   0  0  0  0  0  0  0  0  0  0  0  0
   15.6480    0.6150    9.7330 C   0  0  0  0  0  0  0  0  0  0  0  0
   16.6740    0.3560   10.3770 O   0  0  0  0  0  0  0  0  0  0  0  0
   15.8740    1.1730    8.3080 C   0  0  2  0  0  0  0  0  0  0  0  0
   17.1490    1.9760    8.3040 N   0  0  0  0  0  0  0  0  0  0  0  0
   14.7620    1.9400    7.5920 C   0  0  0  0  0  0  0  0  0  0  0  0
   14.3500    1.4420    6.2260 C   0  0  0  0  0  0  0  0  0  0  0  0
   15.3550    1.2070    5.2720 C   0  0  0  0  0  0  0  0  0  0  0  0
   15.0380    0.7360    3.9960 C   0  0  0  0  0  0  0  0  0  0  0  0
   13.7140    0.4800    3.6600 C   0  0  0  0  0  0  0  0  0  0  0  0
   12.7090    0.6820    4.6010 C   0  0  0  0  0  0  0  0  0  0  0  0
   13.0230    1.1510    5.8800 C   0  0  0  0  0  0  0  0  0  0  0  0
    9.2080    1.5690    8.9190 C   0  0  0  0  0  0  0  0  0  0  0  0
    8.3270    2.6460    8.7700 C   0  0  0  0  0  0  0  0  0  0  0  0
    6.6800    4.4130    9.3370 H   0  0  0  0  0  0  0  0  0  0  0  0
    5.8320    5.5520    8.3510 H   0  0  0  0  0  0  0  0  0  0  0  0
    7.0150    4.1020    5.3180 H   0  0  0  0  0  0  0  0  0  0  0  0
    6.0040    5.3470    5.9640 H   0  0  0  0  0  0  0  0  0  0  0  0
    7.8475    2.4884    5.3968 H   0  0  0  0  0  0  0  0  0  0  0  0
    9.4080    0.5694    5.6651 H   0  0  0  0  0  0  0  0  0  0  0  0
   10.0180   -1.2525    8.1339 H   0  0  0  0  0  0  0  0  0  0  0  0
   11.2015   -0.3968    7.0662 H   0  0  0  0  0  0  0  0  0  0  0  0
   11.0750    0.3940    9.8980 H   0  0  0  0  0  0  0  0  0  0  0  0
   13.9174   -1.4917   10.7701 H   0  0  0  0  0  0  0  0  0  0  0  0
   11.5507   -0.4282   11.6215 H   0  0  0  0  0  0  0  0  0  0  0  0
   12.9398   -0.3921   12.6910 H   0  0  0  0  0  0  0  0  0  0  0  0
   11.9003    1.8126   10.8031 H   0  0  0  0  0  0  0  0  0  0  0  0
   12.3037    2.0005   12.4916 H   0  0  0  0  0  0  0  0  0  0  0  0
   14.1103    2.6580   10.5764 H   0  0  0  0  0  0  0  0  0  0  0  0
   14.7000    1.8604   12.0366 H   0  0  0  0  0  0  0  0  0  0  0  0
   15.9110    0.2589    7.6973 H   0  0  0  0  0  0  0  0  0  0  0  0
   17.9980    1.4070    8.3250 H   0  0  0  0  0  0  0  0  0  0  0  0
   17.1560    2.6080    9.1170 H   0  0  0  0  0  0  0  0  0  0  0  0
   17.1750    2.5930    7.4640 H   0  0  0  0  0  0  0  0  0  0  0  0
   13.8716    1.9115    8.2373 H   0  0  0  0  0  0  0  0  0  0  0  0
   15.1772    2.9432    7.4153 H   0  0  0  0  0  0  0  0  0  0  0  0
   16.4063    1.3968    5.5341 H   0  0  0  0  0  0  0  0  0  0  0  0
   15.8357    0.5678    3.2575 H   0  0  0  0  0  0  0  0  0  0  0  0
   13.4610    0.1185    2.6524 H   0  0  0  0  0  0  0  0  0  0  0  0
   11.6621    0.4716    4.3371 H   0  0  0  0  0  0  0  0  0  0  0  0
   12.2224    1.2928    6.6209 H   0  0  0  0  0  0  0  0  0  0  0  0
    9.5818    1.3061    9.9196 H   0  0  0  0  0  0  0  0  0  0  0  0
    8.0177    3.2221    9.6545 H   0  0  0  0  0  0  0  0  0  0  0  0
  1  2  1  0
  2  3  2  0
  2  4  1  0
  4  5  2  0
  5  6  1  0
  6  7  2  0
  7  8  1  0
  8  9  1  0
  9 10  1  0
 10 11  2  0
 10 12  1  0
 12 13  1  0
 13 14  1  0
 14 15  1  0
 15 16  1  0
 16 17  1  0
 17 18  2  0
 17 19  1  0
 19 20  1  0
 19 21  1  0
 21 22  1  0
 22 23  2  0
 23 24  1  0
 24 25  2  0
 25 26  1  0
 26 27  2  0
  7 28  1  0
 28 29  2  0
 29  4  1  0
 16 12  1  0
 27 22  1  0
  1 30  1  0
  1 31  1  0
  3 32  1  0
  3 33  1  0
  5 34  1  0
  6 35  1  0
  8 36  1  0
  8 37  1  0
  9 38  1  0
 12 39  1  1
 13 40  1  0
 13 41  1  0
 14 42  1  0
 14 43  1  0
 15 44  1  0
 15 45  1  0
 19 46  1  6
 20 47  1  0
 20 48  1  0
 20 49  1  0
 21 50  1  0
 21 51  1  0
 23 52  1  0
 24 53  1  0
 25 54  1  0
 26 55  1  0
 27 56  1  0
 28 57  1  0
 29 58  1  0
M  CHG  2   3   1  20   1
M  END
>  <meeko>  (9) 
{"is_sidechain": [false], "free_energy": -8.127, "intermolecular_energy": -11.701, "internal_energy": -1.478}

$$$$
