4qac_ligand
     RDKit          3D

 43 45  0  0  0  0  0  0  0  0999 V2000
  -31.6480  -12.0350   11.1830 C   0  0  0  0  0  0  0  0  0  0  0  0
  -30.4060  -12.1300   10.3010 C   0  0  0  0  0  0  0  0  0  0  0  0
  -30.5720  -11.3190    9.0150 C   0  0  0  0  0  0  0  0  0  0  0  0
  -29.3520  -11.4770    8.1020 C   0  0  0  0  0  0  0  0  0  0  0  0
  -28.0890  -11.4900    8.8590 N   0  0  0  0  0  0  0  0  0  0  0  0
  -26.9670  -11.0930    8.1030 C   0  0  0  0  0  0  0  0  0  0  0  0
  -25.7170  -11.0490    8.6960 C   0  0  0  0  0  0  0  0  0  0  0  0
  -24.6470  -10.6400    7.9230 C   0  0  0  0  0  0  0  0  0  0  0  0
  -23.2660  -10.5470    8.4440 C   0  0  0  0  0  0  0  0  0  0  0  0
  -22.3360   -9.6200    7.9410 C   0  0  0  0  0  0  0  0  0  0  0  0
  -21.0310   -9.5480    8.4460 C   0  0  0  0  0  0  0  0  0  0  0  0
  -20.6170  -10.3970    9.4810 C   0  0  0  0  0  0  0  0  0  0  0  0
  -19.2050  -10.3330   10.0090 C   0  0  0  0  0  0  0  0  0  0  0  0
  -18.6280  -11.5610   10.1380 F   0  0  0  0  0  0  0  0  0  0  0  0
  -18.3660   -9.6100    9.2160 F   0  0  0  0  0  0  0  0  0  0  0  0
  -19.1400   -9.7610   11.2430 F   0  0  0  0  0  0  0  0  0  0  0  0
  -21.5310  -11.3250    9.9900 C   0  0  0  0  0  0  0  0  0  0  0  0
  -22.8330  -11.3920    9.4830 C   0  0  0  0  0  0  0  0  0  0  0  0
  -24.8100  -10.2800    6.6340 N   0  0  0  0  0  0  0  0  0  0  0  0
  -26.0420  -10.3570    6.1370 C   0  0  0  0  0  0  0  0  0  0  0  0
  -26.2220   -9.9730    4.8230 N   0  0  0  0  0  0  0  0  0  0  0  0
  -27.1250  -10.7270    6.8210 N   0  0  0  0  0  0  0  0  0  0  0  0
  -28.1440  -10.9120   10.2040 C   0  0  0  0  0  0  0  0  0  0  0  0
  -29.1450  -11.6910   11.0650 C   0  0  0  0  0  0  0  0  0  0  0  0
  -31.3488  -12.0579   12.2413 H   0  0  0  0  0  0  0  0  0  0  0  0
  -32.1767  -11.0938   10.9717 H   0  0  0  0  0  0  0  0  0  0  0  0
  -32.3137  -12.8849   10.9717 H   0  0  0  0  0  0  0  0  0  0  0  0
  -30.2826  -13.1863   10.0199 H   0  0  0  0  0  0  0  0  0  0  0  0
  -31.4677  -11.6704    8.4818 H   0  0  0  0  0  0  0  0  0  0  0  0
  -30.6731  -10.2568    9.2824 H   0  0  0  0  0  0  0  0  0  0  0  0
  -29.4434  -12.4236    7.5491 H   0  0  0  0  0  0  0  0  0  0  0  0
  -29.3275  -10.6152    7.4188 H   0  0  0  0  0  0  0  0  0  0  0  0
  -25.5796  -11.3310    9.7503 H   0  0  0  0  0  0  0  0  0  0  0  0
  -22.6394   -8.9369    7.1340 H   0  0  0  0  0  0  0  0  0  0  0  0
  -20.3242   -8.8174    8.0256 H   0  0  0  0  0  0  0  0  0  0  0  0
  -21.2236  -12.0079   10.7957 H   0  0  0  0  0  0  0  0  0  0  0  0
  -23.5364  -12.1237    9.9071 H   0  0  0  0  0  0  0  0  0  0  0  0
  -26.1910   -8.9660    4.7610 H   0  0  0  0  0  0  0  0  0  0  0  0
  -25.5930  -10.4960    4.2300 H   0  0  0  0  0  0  0  0  0  0  0  0
  -27.1468  -10.9655   10.6652 H   0  0  0  0  0  0  0  0  0  0  0  0
  -28.4653   -9.8622   10.1347 H   0  0  0  0  0  0  0  0  0  0  0  0
  -28.6436  -12.5897   11.4535 H   0  0  0  0  0  0  0  0  0  0  0  0
  -29.4740  -11.0146   11.8676 H   0  0  0  0  0  0  0  0  0  0  0  0
  1  2  1  0
  2  3  1  0
  3  4  1  0
  4  5  1  0
  5  6  1  0
  6  7  2  0
  7  8  1  0
  8  9  1  0
  9 10  2  0
 10 11  1  0
 11 12  2  0
 12 13  1  0
 13 14  1  0
 13 15  1  0
 13 16  1  0
 12 17  1  0
 17 18  2  0
  8 19  2  0
 19 20  1  0
 20 21  1  0
 20 22  2  0
  5 23  1  0
 23 24  1  0
 24  2  1  0
 22  6  1  0
 18  9  1  0
  1 25  1  0
  1 26  1  0
  1 27  1  0
  2 28  1  0
  3 29  1  0
  3 30  1  0
  4 31  1  0
  4 32  1  0
  7 33  1  0
 10 34  1  0
 11 35  1  0
 17 36  1  0
 18 37  1  0
 21 38  1  0
 21 39  1  0
 23 40  1  0
 23 41  1  0
 24 42  1  0
 24 43  1  0
M  END
>  <meeko>  (1) 
{"is_sidechain": [false], "free_energy": -5.89, "intermolecular_energy": -7.095, "internal_energy": -0.699}

$$$$
4qac_ligand
     RDKit          3D

 43 45  0  0  0  0  0  0  0  0999 V2000
  -35.8460  -10.9390    3.6910 C   0  0  0  0  0  0  0  0  0  0  0  0
  -34.3910  -10.9550    4.1500 C   0  0  0  0  0  0  0  0  0  0  0  0
  -34.2650  -10.5530    5.6200 C   0  0  0  0  0  0  0  0  0  0  0  0
  -32.7970  -10.5020    6.0540 C   0  0  0  0  0  0  0  0  0  0  0  0
  -32.0060  -11.6010    5.4750 N   0  0  0  0  0  0  0  0  0  0  0  0
  -30.8560  -11.9300    6.2200 C   0  0  0  0  0  0  0  0  0  0  0  0
  -29.7200  -11.1450    6.1160 C   0  0  0  0  0  0  0  0  0  0  0  0
  -28.6090  -11.5130    6.8520 C   0  0  0  0  0  0  0  0  0  0  0  0
  -27.3380  -10.7570    6.8220 C   0  0  0  0  0  0  0  0  0  0  0  0
  -26.9500   -9.9870    5.7120 C   0  0  0  0  0  0  0  0  0  0  0  0
  -25.7410   -9.2790    5.7000 C   0  0  0  0  0  0  0  0  0  0  0  0
  -24.8840   -9.3100    6.8070 C   0  0  0  0  0  0  0  0  0  0  0  0
  -23.5720   -8.5650    6.7860 C   0  0  0  0  0  0  0  0  0  0  0  0
  -23.6790   -7.2830    7.2350 F   0  0  0  0  0  0  0  0  0  0  0  0
  -22.6090   -9.1490    7.5550 F   0  0  0  0  0  0  0  0  0  0  0  0
  -23.0470   -8.4770    5.5330 F   0  0  0  0  0  0  0  0  0  0  0  0
  -25.2560  -10.0730    7.9200 C   0  0  0  0  0  0  0  0  0  0  0  0
  -26.4650  -10.7780    7.9260 C   0  0  0  0  0  0  0  0  0  0  0  0
  -28.6190  -12.6070    7.6380 N   0  0  0  0  0  0  0  0  0  0  0  0
  -29.7520  -13.3050    7.6870 C   0  0  0  0  0  0  0  0  0  0  0  0
  -29.7650  -14.4380    8.4760 N   0  0  0  0  0  0  0  0  0  0  0  0
  -30.8580  -13.0240    6.9980 N   0  0  0  0  0  0  0  0  0  0  0  0
  -32.7710  -12.7600    5.0060 C   0  0  0  0  0  0  0  0  0  0  0  0
  -33.7430  -12.3290    3.9020 C   0  0  0  0  0  0  0  0  0  0  0  0
  -36.5076  -10.9317    4.5697 H   0  0  0  0  0  0  0  0  0  0  0  0
  -36.0298  -10.0388    3.0862 H   0  0  0  0  0  0  0  0  0  0  0  0
  -36.0496  -11.8350    3.0862 H   0  0  0  0  0  0  0  0  0  0  0  0
  -33.8492  -10.2098    3.5491 H   0  0  0  0  0  0  0  0  0  0  0  0
  -34.7159   -9.5596    5.7607 H   0  0  0  0  0  0  0  0  0  0  0  0
  -34.7847  -11.3039    6.2333 H   0  0  0  0  0  0  0  0  0  0  0  0
  -32.3645   -9.5446    5.7280 H   0  0  0  0  0  0  0  0  0  0  0  0
  -32.7653  -10.6042    7.1488 H   0  0  0  0  0  0  0  0  0  0  0  0
  -29.7021  -10.2563    5.4680 H   0  0  0  0  0  0  0  0  0  0  0  0
  -27.6101   -9.9392    4.8334 H   0  0  0  0  0  0  0  0  0  0  0  0
  -25.4622   -8.6928    4.8119 H   0  0  0  0  0  0  0  0  0  0  0  0
  -24.5931  -10.1188    8.7966 H   0  0  0  0  0  0  0  0  0  0  0  0
  -26.7399  -11.3633    8.8159 H   0  0  0  0  0  0  0  0  0  0  0  0
  -30.3220  -14.2660    9.3000 H   0  0  0  0  0  0  0  0  0  0  0  0
  -30.0040  -15.2400    7.9100 H   0  0  0  0  0  0  0  0  0  0  0  0
  -32.0794  -13.5173    4.6083 H   0  0  0  0  0  0  0  0  0  0  0  0
  -33.3408  -13.1830    5.8465 H   0  0  0  0  0  0  0  0  0  0  0  0
  -33.1917  -12.2864    2.9511 H   0  0  0  0  0  0  0  0  0  0  0  0
  -34.5564  -13.0693    3.8828 H   0  0  0  0  0  0  0  0  0  0  0  0
  1  2  1  0
  2  3  1  0
  3  4  1  0
  4  5  1  0
  5  6  1  0
  6  7  2  0
  7  8  1  0
  8  9  1  0
  9 10  2  0
 10 11  1  0
 11 12  2  0
 12 13  1  0
 13 14  1  0
 13 15  1  0
 13 16  1  0
 12 17  1  0
 17 18  2  0
  8 19  2  0
 19 20  1  0
 20 21  1  0
 20 22  2  0
  5 23  1  0
 23 24  1  0
 24  2  1  0
 22  6  1  0
 18  9  1  0
  1 25  1  0
  1 26  1  0
  1 27  1  0
  2 28  1  0
  3 29  1  0
  3 30  1  0
  4 31  1  0
  4 32  1  0
  7 33  1  0
 10 34  1  0
 11 35  1  0
 17 36  1  0
 18 37  1  0
 21 38  1  0
 21 39  1  0
 23 40  1  0
 23 41  1  0
 24 42  1  0
 24 43  1  0
M  END
>  <meeko>  (2) 
{"is_sidechain": [false], "free_energy": -5.835, "intermolecular_energy": -7.072, "internal_energy": -0.657}

$$$$
4qac_ligand
     RDKit          3D

 43 45  0  0  0  0  0  0  0  0999 V2000
  -20.0590  -12.1680   10.2770 C   0  0  0  0  0  0  0  0  0  0  0  0
  -21.4410  -11.7080    9.8230 C   0  0  0  0  0  0  0  0  0  0  0  0
  -21.3680  -10.3740    9.0790 C   0  0  0  0  0  0  0  0  0  0  0  0
  -22.7660   -9.8830    8.6890 C   0  0  0  0  0  0  0  0  0  0  0  0
  -23.6360  -10.9820    8.2370 N   0  0  0  0  0  0  0  0  0  0  0  0
  -24.6810  -10.5690    7.3870 C   0  0  0  0  0  0  0  0  0  0  0  0
  -25.9560  -11.0810    7.5640 C   0  0  0  0  0  0  0  0  0  0  0  0
  -26.9480  -10.6600    6.6970 C   0  0  0  0  0  0  0  0  0  0  0  0
  -28.3460  -11.1380    6.7820 C   0  0  0  0  0  0  0  0  0  0  0  0
  -28.7980  -11.9490    7.8380 C   0  0  0  0  0  0  0  0  0  0  0  0
  -30.1250  -12.3930    7.9020 C   0  0  0  0  0  0  0  0  0  0  0  0
  -31.0480  -12.0310    6.9120 C   0  0  0  0  0  0  0  0  0  0  0  0
  -32.4710  -12.5280    6.9690 C   0  0  0  0  0  0  0  0  0  0  0  0
  -33.3030  -11.6890    7.6480 F   0  0  0  0  0  0  0  0  0  0  0  0
  -33.0340  -12.6910    5.7380 F   0  0  0  0  0  0  0  0  0  0  0  0
  -32.5730  -13.7350    7.5890 F   0  0  0  0  0  0  0  0  0  0  0  0
  -30.6130  -11.2260    5.8540 C   0  0  0  0  0  0  0  0  0  0  0  0
  -29.2850  -10.7840    5.7970 C   0  0  0  0  0  0  0  0  0  0  0  0
  -26.6880   -9.7900    5.7020 N   0  0  0  0  0  0  0  0  0  0  0  0
  -25.4390   -9.3410    5.6040 C   0  0  0  0  0  0  0  0  0  0  0  0
  -25.1590   -8.4630    4.5750 N   0  0  0  0  0  0  0  0  0  0  0  0
  -24.4260   -9.7080    6.3890 N   0  0  0  0  0  0  0  0  0  0  0  0
  -22.9500  -12.2010    7.8000 C   0  0  0  0  0  0  0  0  0  0  0  0
  -22.1280  -12.7790    8.9580 C   0  0  0  0  0  0  0  0  0  0  0  0
  -20.0197  -12.1811   11.3762 H   0  0  0  0  0  0  0  0  0  0  0  0
  -19.8641  -13.1795    9.8911 H   0  0  0  0  0  0  0  0  0  0  0  0
  -19.2968  -11.4751    9.8911 H   0  0  0  0  0  0  0  0  0  0  0  0
  -22.0506  -11.5574   10.7261 H   0  0  0  0  0  0  0  0  0  0  0  0
  -20.8928   -9.6252    9.7297 H   0  0  0  0  0  0  0  0  0  0  0  0
  -20.7793  -10.5176    8.1610 H   0  0  0  0  0  0  0  0  0  0  0  0
  -23.2289   -9.4014    9.5630 H   0  0  0  0  0  0  0  0  0  0  0  0
  -22.6545   -9.1755    7.8541 H   0  0  0  0  0  0  0  0  0  0  0  0
  -26.1725  -11.7994    8.3684 H   0  0  0  0  0  0  0  0  0  0  0  0
  -28.0941  -12.2412    8.6312 H   0  0  0  0  0  0  0  0  0  0  0  0
  -30.4456  -13.0322    8.7378 H   0  0  0  0  0  0  0  0  0  0  0  0
  -31.3189  -10.9380    5.0610 H   0  0  0  0  0  0  0  0  0  0  0  0
  -28.9687  -10.1437    4.9604 H   0  0  0  0  0  0  0  0  0  0  0  0
  -25.5770   -8.8030    3.7220 H   0  0  0  0  0  0  0  0  0  0  0  0
  -25.3870   -7.5220    4.8630 H   0  0  0  0  0  0  0  0  0  0  0  0
  -23.6948  -12.9425    7.4753 H   0  0  0  0  0  0  0  0  0  0  0  0
  -22.2780  -11.9591    6.9634 H   0  0  0  0  0  0  0  0  0  0  0  0
  -22.7994  -13.3668    9.6012 H   0  0  0  0  0  0  0  0  0  0  0  0
  -21.3311  -13.3923    8.5122 H   0  0  0  0  0  0  0  0  0  0  0  0
  1  2  1  0
  2  3  1  0
  3  4  1  0
  4  5  1  0
  5  6  1  0
  6  7  2  0
  7  8  1  0
  8  9  1  0
  9 10  2  0
 10 11  1  0
 11 12  2  0
 12 13  1  0
 13 14  1  0
 13 15  1  0
 13 16  1  0
 12 17  1  0
 17 18  2  0
  8 19  2  0
 19 20  1  0
 20 21  1  0
 20 22  2  0
  5 23  1  0
 23 24  1  0
 24  2  1  0
 22  6  1  0
 18  9  1  0
  1 25  1  0
  1 26  1  0
  1 27  1  0
  2 28  1  0
  3 29  1  0
  3 30  1  0
  4 31  1  0
  4 32  1  0
  7 33  1  0
 10 34  1  0
 11 35  1  0
 17 36  1  0
 18 37  1  0
 21 38  1  0
 21 39  1  0
 23 40  1  0
 23 41  1  0
 24 42  1  0
 24 43  1  0
M  END
>  <meeko>  (3) 
{"is_sidechain": [false], "free_energy": -5.77, "intermolecular_energy": -6.978, "internal_energy": -0.672}

$$$$
4qac_ligand
     RDKit          3D

 43 45  0  0  0  0  0  0  0  0999 V2000
  -33.8370  -13.5670    3.1710 C   0  0  0  0  0  0  0  0  0  0  0  0
  -33.0400  -13.6210    4.4710 C   0  0  0  0  0  0  0  0  0  0  0  0
  -31.6970  -14.3240    4.2740 C   0  0  0  0  0  0  0  0  0  0  0  0
  -30.9350  -14.4390    5.5980 C   0  0  0  0  0  0  0  0  0  0  0  0
  -31.0660  -13.2260    6.4220 N   0  0  0  0  0  0  0  0  0  0  0  0
  -30.0110  -13.0410    7.3380 C   0  0  0  0  0  0  0  0  0  0  0  0
  -29.0170  -12.1160    7.0660 C   0  0  0  0  0  0  0  0  0  0  0  0
  -27.9930  -11.9780    7.9840 C   0  0  0  0  0  0  0  0  0  0  0  0
  -26.8740  -11.0260    7.8040 C   0  0  0  0  0  0  0  0  0  0  0  0
  -26.6280  -10.3820    6.5790 C   0  0  0  0  0  0  0  0  0  0  0  0
  -25.5620   -9.4850    6.4260 C   0  0  0  0  0  0  0  0  0  0  0  0
  -24.7130   -9.1950    7.5010 C   0  0  0  0  0  0  0  0  0  0  0  0
  -23.5520   -8.2460    7.3300 C   0  0  0  0  0  0  0  0  0  0  0  0
  -23.9330   -6.9380    7.3000 F   0  0  0  0  0  0  0  0  0  0  0  0
  -22.6290   -8.3410    8.3280 F   0  0  0  0  0  0  0  0  0  0  0  0
  -22.8730   -8.4630    6.1700 F   0  0  0  0  0  0  0  0  0  0  0  0
  -24.9440   -9.8290    8.7270 C   0  0  0  0  0  0  0  0  0  0  0  0
  -26.0110  -10.7240    8.8730 C   0  0  0  0  0  0  0  0  0  0  0  0
  -27.9480  -12.7260    9.1030 N   0  0  0  0  0  0  0  0  0  0  0  0
  -28.9440  -13.5890    9.2930 C   0  0  0  0  0  0  0  0  0  0  0  0
  -28.8960  -14.3730   10.4290 N   0  0  0  0  0  0  0  0  0  0  0  0
  -29.9570  -13.7900    8.4510 N   0  0  0  0  0  0  0  0  0  0  0  0
  -31.4650  -12.0090    5.7100 C   0  0  0  0  0  0  0  0  0  0  0  0
  -32.8380  -12.2130    5.0600 C   0  0  0  0  0  0  0  0  0  0  0  0
  -34.9101  -13.4943    3.4016 H   0  0  0  0  0  0  0  0  0  0  0  0
  -33.5270  -12.6878    2.5871 H   0  0  0  0  0  0  0  0  0  0  0  0
  -33.6485  -14.4800    2.5871 H   0  0  0  0  0  0  0  0  0  0  0  0
  -33.6265  -14.2107    5.1909 H   0  0  0  0  0  0  0  0  0  0  0  0
  -31.8750  -15.3328    3.8732 H   0  0  0  0  0  0  0  0  0  0  0  0
  -31.0916  -13.7306    3.5730 H   0  0  0  0  0  0  0  0  0  0  0  0
  -31.3326  -15.2953    6.1624 H   0  0  0  0  0  0  0  0  0  0  0  0
  -29.8689  -14.5745    5.3635 H   0  0  0  0  0  0  0  0  0  0  0  0
  -29.0416  -11.5101    6.1482 H   0  0  0  0  0  0  0  0  0  0  0  0
  -27.2864  -10.5865    5.7219 H   0  0  0  0  0  0  0  0  0  0  0  0
  -25.3906   -9.0040    5.4517 H   0  0  0  0  0  0  0  0  0  0  0  0
  -24.2830   -9.6229    9.5817 H   0  0  0  0  0  0  0  0  0  0  0  0
  -26.1786  -11.2033    9.8488 H   0  0  0  0  0  0  0  0  0  0  0  0
  -28.6430  -15.3170   10.1740 H   0  0  0  0  0  0  0  0  0  0  0  0
  -28.3360  -13.9140   11.1330 H   0  0  0  0  0  0  0  0  0  0  0  0
  -31.5185  -11.1712    6.4208 H   0  0  0  0  0  0  0  0  0  0  0  0
  -30.7233  -11.7861    4.9288 H   0  0  0  0  0  0  0  0  0  0  0  0
  -33.6122  -12.0409    5.8222 H   0  0  0  0  0  0  0  0  0  0  0  0
  -32.9071  -11.5015    4.2240 H   0  0  0  0  0  0  0  0  0  0  0  0
  1  2  1  0
  2  3  1  0
  3  4  1  0
  4  5  1  0
  5  6  1  0
  6  7  2  0
  7  8  1  0
  8  9  1  0
  9 10  2  0
 10 11  1  0
 11 12  2  0
 12 13  1  0
 13 14  1  0
 13 15  1  0
 13 16  1  0
 12 17  1  0
 17 18  2  0
  8 19  2  0
 19 20  1  0
 20 21  1  0
 20 22  2  0
  5 23  1  0
 23 24  1  0
 24  2  1  0
 22  6  1  0
 18  9  1  0
  1 25  1  0
  1 26  1  0
  1 27  1  0
  2 28  1  0
  3 29  1  0
  3 30  1  0
  4 31  1  0
  4 32  1  0
  7 33  1  0
 10 34  1  0
 11 35  1  0
 17 36  1  0
 18 37  1  0
 21 38  1  0
 21 39  1  0
 23 40  1  0
 23 41  1  0
 24 42  1  0
 24 43  1  0
M  END
>  <meeko>  (4) 
{"is_sidechain": [false], "free_energy": -5.76, "intermolecular_energy": -6.938, "internal_energy": -0.699}

$$$$
4qac_ligand
     RDKit          3D

 43 45  0  0  0  0  0  0  0  0999 V2000
  -34.0110  -11.7630    4.1350 C   0  0  0  0  0  0  0  0  0  0  0  0
  -33.3000  -12.1620    5.4250 C   0  0  0  0  0  0  0  0  0  0  0  0
  -31.9900  -12.8950    5.1360 C   0  0  0  0  0  0  0  0  0  0  0  0
  -31.3180  -13.3560    6.4340 C   0  0  0  0  0  0  0  0  0  0  0  0
  -31.4300  -12.3520    7.5050 N   0  0  0  0  0  0  0  0  0  0  0  0
  -30.4240  -12.4500    8.4870 C   0  0  0  0  0  0  0  0  0  0  0  0
  -29.3330  -11.5990    8.4430 C   0  0  0  0  0  0  0  0  0  0  0  0
  -28.3620  -11.7410    9.4170 C   0  0  0  0  0  0  0  0  0  0  0  0
  -27.1490  -10.8950    9.4730 C   0  0  0  0  0  0  0  0  0  0  0  0
  -26.4020  -10.5790    8.3250 C   0  0  0  0  0  0  0  0  0  0  0  0
  -25.2550   -9.7780    8.3970 C   0  0  0  0  0  0  0  0  0  0  0  0
  -24.8230   -9.2560    9.6230 C   0  0  0  0  0  0  0  0  0  0  0  0
  -23.5760   -8.4120    9.7040 C   0  0  0  0  0  0  0  0  0  0  0  0
  -23.1240   -8.0090    8.4830 F   0  0  0  0  0  0  0  0  0  0  0  0
  -23.7440   -7.2720   10.4320 F   0  0  0  0  0  0  0  0  0  0  0  0
  -22.5380   -9.0750   10.2830 F   0  0  0  0  0  0  0  0  0  0  0  0
  -25.5560   -9.5630   10.7750 C   0  0  0  0  0  0  0  0  0  0  0  0
  -26.7010  -10.3630   10.6970 C   0  0  0  0  0  0  0  0  0  0  0  0
  -28.4600  -12.6830   10.3750 N   0  0  0  0  0  0  0  0  0  0  0  0
  -29.5430  -13.4570   10.3500 C   0  0  0  0  0  0  0  0  0  0  0  0
  -29.6440  -14.4380   11.3180 N   0  0  0  0  0  0  0  0  0  0  0  0
  -30.5140  -13.3930    9.4390 N   0  0  0  0  0  0  0  0  0  0  0  0
  -31.7140  -10.9820    7.0690 C   0  0  0  0  0  0  0  0  0  0  0  0
  -33.0540  -10.9390    6.3260 C   0  0  0  0  0  0  0  0  0  0  0  0
  -34.9464  -11.2381    4.3791 H   0  0  0  0  0  0  0  0  0  0  0  0
  -33.3600  -11.0984    3.5480 H   0  0  0  0  0  0  0  0  0  0  0  0
  -34.2391  -12.6649    3.5480 H   0  0  0  0  0  0  0  0  0  0  0  0
  -33.9621  -12.8552    5.9645 H   0  0  0  0  0  0  0  0  0  0  0  0
  -32.2008  -13.7737    4.5088 H   0  0  0  0  0  0  0  0  0  0  0  0
  -31.3099  -12.2037    4.6168 H   0  0  0  0  0  0  0  0  0  0  0  0
  -31.7975  -14.2873    6.7698 H   0  0  0  0  0  0  0  0  0  0  0  0
  -30.2489  -13.5091    6.2250 H   0  0  0  0  0  0  0  0  0  0  0  0
  -29.2415  -10.8340    7.6579 H   0  0  0  0  0  0  0  0  0  0  0  0
  -26.7252  -10.9692    7.3486 H   0  0  0  0  0  0  0  0  0  0  0  0
  -24.6875   -9.5566    7.4810 H   0  0  0  0  0  0  0  0  0  0  0  0
  -25.2291   -9.1720   11.7498 H   0  0  0  0  0  0  0  0  0  0  0  0
  -27.2656  -10.5819   11.6153 H   0  0  0  0  0  0  0  0  0  0  0  0
  -30.0730  -15.2600   10.9170 H   0  0  0  0  0  0  0  0  0  0  0  0
  -28.7510  -14.5530   11.7760 H   0  0  0  0  0  0  0  0  0  0  0  0
  -31.7627  -10.3221    7.9478 H   0  0  0  0  0  0  0  0  0  0  0  0
  -30.9142  -10.6433    6.3940 H   0  0  0  0  0  0  0  0  0  0  0  0
  -33.8624  -10.8874    7.0702 H   0  0  0  0  0  0  0  0  0  0  0  0
  -33.0306  -10.0558    5.6707 H   0  0  0  0  0  0  0  0  0  0  0  0
  1  2  1  0
  2  3  1  0
  3  4  1  0
  4  5  1  0
  5  6  1  0
  6  7  2  0
  7  8  1  0
  8  9  1  0
  9 10  2  0
 10 11  1  0
 11 12  2  0
 12 13  1  0
 13 14  1  0
 13 15  1  0
 13 16  1  0
 12 17  1  0
 17 18  2  0
  8 19  2  0
 19 20  1  0
 20 21  1  0
 20 22  2  0
  5 23  1  0
 23 24  1  0
 24  2  1  0
 22  6  1  0
 18  9  1  0
  1 25  1  0
  1 26  1  0
  1 27  1  0
  2 28  1  0
  3 29  1  0
  3 30  1  0
  4 31  1  0
  4 32  1  0
  7 33  1  0
 10 34  1  0
 11 35  1  0
 17 36  1  0
 18 37  1  0
 21 38  1  0
 21 39  1  0
 23 40  1  0
 23 41  1  0
 24 42  1  0
 24 43  1  0
M  END
>  <meeko>  (5) 
{"is_sidechain": [false], "free_energy": -5.544, "intermolecular_energy": -6.696, "internal_energy": -0.681}

$$$$
4qac_ligand
     RDKit          3D

 43 45  0  0  0  0  0  0  0  0999 V2000
  -22.5620   -7.9960    7.1590 C   0  0  0  0  0  0  0  0  0  0  0  0
  -23.9610   -8.6040    7.2070 C   0  0  0  0  0  0  0  0  0  0  0  0
  -24.0380   -9.8920    6.3860 C   0  0  0  0  0  0  0  0  0  0  0  0
  -25.4610  -10.4580    6.3790 C   0  0  0  0  0  0  0  0  0  0  0  0
  -26.1170  -10.3290    7.6920 N   0  0  0  0  0  0  0  0  0  0  0  0
  -27.1470  -11.2660    7.9090 C   0  0  0  0  0  0  0  0  0  0  0  0
  -28.1670  -11.3960    6.9810 C   0  0  0  0  0  0  0  0  0  0  0  0
  -29.1650  -12.3170    7.2420 C   0  0  0  0  0  0  0  0  0  0  0  0
  -30.3080  -12.5430    6.3300 C   0  0  0  0  0  0  0  0  0  0  0  0
  -30.4040  -13.6870    5.5180 C   0  0  0  0  0  0  0  0  0  0  0  0
  -31.4930  -13.8850    4.6590 C   0  0  0  0  0  0  0  0  0  0  0  0
  -32.5300  -12.9460    4.5930 C   0  0  0  0  0  0  0  0  0  0  0  0
  -33.6920  -13.1480    3.6520 C   0  0  0  0  0  0  0  0  0  0  0  0
  -34.0650  -12.0050    3.0110 F   0  0  0  0  0  0  0  0  0  0  0  0
  -33.4380  -14.0580    2.6710 F   0  0  0  0  0  0  0  0  0  0  0  0
  -34.8070  -13.5940    4.2950 F   0  0  0  0  0  0  0  0  0  0  0  0
  -32.4490  -11.8020    5.3950 C   0  0  0  0  0  0  0  0  0  0  0  0
  -31.3590  -11.6100    6.2510 C   0  0  0  0  0  0  0  0  0  0  0  0
  -29.1600  -13.0580    8.3660 N   0  0  0  0  0  0  0  0  0  0  0  0
  -28.1420  -12.8780    9.2040 C   0  0  0  0  0  0  0  0  0  0  0  0
  -28.1380  -13.6200   10.3680 N   0  0  0  0  0  0  0  0  0  0  0  0
  -27.1510  -12.0020    9.0320 N   0  0  0  0  0  0  0  0  0  0  0  0
  -25.2230  -10.1410    8.8370 C   0  0  0  0  0  0  0  0  0  0  0  0
  -24.4110   -8.8540    8.6570 C   0  0  0  0  0  0  0  0  0  0  0  0
  -22.1960   -7.8369    8.1840 H   0  0  0  0  0  0  0  0  0  0  0  0
  -21.8829   -8.6801    6.6292 H   0  0  0  0  0  0  0  0  0  0  0  0
  -22.5988   -7.0327    6.6292 H   0  0  0  0  0  0  0  0  0  0  0  0
  -24.6511   -7.8750    6.7572 H   0  0  0  0  0  0  0  0  0  0  0  0
  -23.7318   -9.6773    5.3515 H   0  0  0  0  0  0  0  0  0  0  0  0
  -23.3684  -10.6366    6.8412 H   0  0  0  0  0  0  0  0  0  0  0  0
  -26.0554   -9.9131    5.6308 H   0  0  0  0  0  0  0  0  0  0  0  0
  -25.3975  -11.5291    6.1366 H   0  0  0  0  0  0  0  0  0  0  0  0
  -28.1827  -10.7861    6.0657 H   0  0  0  0  0  0  0  0  0  0  0  0
  -29.6063  -14.4434    5.5581 H   0  0  0  0  0  0  0  0  0  0  0  0
  -31.5339  -14.7867    4.0303 H   0  0  0  0  0  0  0  0  0  0  0  0
  -33.2486  -11.0478    5.3521 H   0  0  0  0  0  0  0  0  0  0  0  0
  -31.3225  -10.7070    6.8781 H   0  0  0  0  0  0  0  0  0  0  0  0
  -27.9750  -13.0090   11.1550 H   0  0  0  0  0  0  0  0  0  0  0  0
  -28.9580  -14.2080   10.3960 H   0  0  0  0  0  0  0  0  0  0  0  0
  -25.8198  -10.0702    9.7583 H   0  0  0  0  0  0  0  0  0  0  0  0
  -24.5356  -10.9971    8.9050 H   0  0  0  0  0  0  0  0  0  0  0  0
  -25.0308   -8.0044    8.9796 H   0  0  0  0  0  0  0  0  0  0  0  0
  -23.4990   -8.9621    9.2624 H   0  0  0  0  0  0  0  0  0  0  0  0
  1  2  1  0
  2  3  1  0
  3  4  1  0
  4  5  1  0
  5  6  1  0
  6  7  2  0
  7  8  1  0
  8  9  1  0
  9 10  2  0
 10 11  1  0
 11 12  2  0
 12 13  1  0
 13 14  1  0
 13 15  1  0
 13 16  1  0
 12 17  1  0
 17 18  2  0
  8 19  2  0
 19 20  1  0
 20 21  1  0
 20 22  2  0
  5 23  1  0
 23 24  1  0
 24  2  1  0
 22  6  1  0
 18  9  1  0
  1 25  1  0
  1 26  1  0
  1 27  1  0
  2 28  1  0
  3 29  1  0
  3 30  1  0
  4 31  1  0
  4 32  1  0
  7 33  1  0
 10 34  1  0
 11 35  1  0
 17 36  1  0
 18 37  1  0
 21 38  1  0
 21 39  1  0
 23 40  1  0
 23 41  1  0
 24 42  1  0
 24 43  1  0
M  END
>  <meeko>  (6) 
{"is_sidechain": [false], "free_energy": -5.513, "intermolecular_energy": -6.692, "internal_energy": -0.648}

$$$$
4qac_ligand
     RDKit          3D

 43 45  0  0  0  0  0  0  0  0999 V2000
  -19.1700  -10.3190    9.9700 C   0  0  0  0  0  0  0  0  0  0  0  0
  -20.6660  -10.6110    9.9100 C   0  0  0  0  0  0  0  0  0  0  0  0
  -21.3110   -9.9670    8.6820 C   0  0  0  0  0  0  0  0  0  0  0  0
  -22.8250  -10.2030    8.6660 C   0  0  0  0  0  0  0  0  0  0  0  0
  -23.1810  -11.5600    9.1130 N   0  0  0  0  0  0  0  0  0  0  0  0
  -24.4240  -12.0130    8.6270 C   0  0  0  0  0  0  0  0  0  0  0  0
  -25.5970  -11.4570    9.1080 C   0  0  0  0  0  0  0  0  0  0  0  0
  -26.7940  -11.9420    8.6150 C   0  0  0  0  0  0  0  0  0  0  0  0
  -28.1110  -11.4320    9.0540 C   0  0  0  0  0  0  0  0  0  0  0  0
  -29.2480  -11.4830    8.2290 C   0  0  0  0  0  0  0  0  0  0  0  0
  -30.4870  -10.9940    8.6610 C   0  0  0  0  0  0  0  0  0  0  0  0
  -30.6320  -10.4460    9.9420 C   0  0  0  0  0  0  0  0  0  0  0  0
  -31.9610   -9.8990   10.3990 C   0  0  0  0  0  0  0  0  0  0  0  0
  -32.7880  -10.8580   10.9040 F   0  0  0  0  0  0  0  0  0  0  0  0
  -31.8480   -8.9550   11.3760 F   0  0  0  0  0  0  0  0  0  0  0  0
  -32.6540   -9.3080    9.3870 F   0  0  0  0  0  0  0  0  0  0  0  0
  -29.5090  -10.3870   10.7750 C   0  0  0  0  0  0  0  0  0  0  0  0
  -28.2740  -10.8780   10.3380 C   0  0  0  0  0  0  0  0  0  0  0  0
  -26.8270  -12.9330    7.7030 N   0  0  0  0  0  0  0  0  0  0  0  0
  -25.6550  -13.4100    7.2870 C   0  0  0  0  0  0  0  0  0  0  0  0
  -25.6800  -14.4390    6.3660 N   0  0  0  0  0  0  0  0  0  0  0  0
  -24.4630  -13.0070    7.7240 N   0  0  0  0  0  0  0  0  0  0  0  0
  -22.1090  -12.5570    9.0470 C   0  0  0  0  0  0  0  0  0  0  0  0
  -20.9410  -12.1250    9.9400 C   0  0  0  0  0  0  0  0  0  0  0  0
  -18.8504  -10.2566   11.0207 H   0  0  0  0  0  0  0  0  0  0  0  0
  -18.6183  -11.1264    9.4663 H   0  0  0  0  0  0  0  0  0  0  0  0
  -18.9624   -9.3634    9.4663 H   0  0  0  0  0  0  0  0  0  0  0  0
  -21.1235  -10.1645   10.8052 H   0  0  0  0  0  0  0  0  0  0  0  0
  -21.1164   -8.8845    8.7001 H   0  0  0  0  0  0  0  0  0  0  0  0
  -20.8769  -10.4230    7.7800 H   0  0  0  0  0  0  0  0  0  0  0  0
  -23.3045   -9.4727    9.3344 H   0  0  0  0  0  0  0  0  0  0  0  0
  -23.1741  -10.0864    7.6294 H   0  0  0  0  0  0  0  0  0  0  0  0
  -25.5772  -10.6539    9.8594 H   0  0  0  0  0  0  0  0  0  0  0  0
  -29.1626  -11.9167    7.2217 H   0  0  0  0  0  0  0  0  0  0  0  0
  -31.3554  -11.0407    7.9875 H   0  0  0  0  0  0  0  0  0  0  0  0
  -29.5980   -9.9512   11.7811 H   0  0  0  0  0  0  0  0  0  0  0  0
  -27.4082  -10.8300   11.0149 H   0  0  0  0  0  0  0  0  0  0  0  0
  -26.2180  -14.1550    5.5600 H   0  0  0  0  0  0  0  0  0  0  0  0
  -24.7390  -14.7710    6.2060 H   0  0  0  0  0  0  0  0  0  0  0  0
  -22.4924  -13.5285    9.3922 H   0  0  0  0  0  0  0  0  0  0  0  0
  -21.7583  -12.6442    8.0081 H   0  0  0  0  0  0  0  0  0  0  0  0
  -21.1698  -12.4159   10.9759 H   0  0  0  0  0  0  0  0  0  0  0  0
  -20.0396  -12.6231    9.5534 H   0  0  0  0  0  0  0  0  0  0  0  0
  1  2  1  0
  2  3  1  0
  3  4  1  0
  4  5  1  0
  5  6  1  0
  6  7  2  0
  7  8  1  0
  8  9  1  0
  9 10  2  0
 10 11  1  0
 11 12  2  0
 12 13  1  0
 13 14  1  0
 13 15  1  0
 13 16  1  0
 12 17  1  0
 17 18  2  0
  8 19  2  0
 19 20  1  0
 20 21  1  0
 20 22  2  0
  5 23  1  0
 23 24  1  0
 24  2  1  0
 22  6  1  0
 18  9  1  0
  1 25  1  0
  1 26  1  0
  1 27  1  0
  2 28  1  0
  3 29  1  0
  3 30  1  0
  4 31  1  0
  4 32  1  0
  7 33  1  0
 10 34  1  0
 11 35  1  0
 17 36  1  0
 18 37  1  0
 21 38  1  0
 21 39  1  0
 23 40  1  0
 23 41  1  0
 24 42  1  0
 24 43  1  0
M  END
>  <meeko>  (7) 
{"is_sidechain": [false], "free_energy": -5.473, "intermolecular_energy": -6.626, "internal_energy": -0.665}

$$$$
4qac_ligand
     RDKit          3D

 43 45  0  0  0  0  0  0  0  0999 V2000
  -30.2270    7.9900    3.5030 C   0  0  0  0  0  0  0  0  0  0  0  0
  -31.3630    7.3740    2.6920 C   0  0  0  0  0  0  0  0  0  0  0  0
  -30.9660    7.1920    1.2260 C   0  0  0  0  0  0  0  0  0  0  0  0
  -32.1340    6.6390    0.4030 C   0  0  0  0  0  0  0  0  0  0  0  0
  -32.8980    5.6160    1.1370 N   0  0  0  0  0  0  0  0  0  0  0  0
  -33.5940    4.7170    0.3050 C   0  0  0  0  0  0  0  0  0  0  0  0
  -33.7630    5.0110   -1.0380 C   0  0  0  0  0  0  0  0  0  0  0  0
  -34.4660    4.1090   -1.8150 C   0  0  0  0  0  0  0  0  0  0  0  0
  -34.7150    4.3140   -3.2590 C   0  0  0  0  0  0  0  0  0  0  0  0
  -35.9200    3.9290   -3.8730 C   0  0  0  0  0  0  0  0  0  0  0  0
  -36.1380    4.1290   -5.2430 C   0  0  0  0  0  0  0  0  0  0  0  0
  -35.1580    4.7320   -6.0420 C   0  0  0  0  0  0  0  0  0  0  0  0
  -35.3840    4.9270   -7.5200 C   0  0  0  0  0  0  0  0  0  0  0  0
  -34.3060    4.5750   -8.2760 F   0  0  0  0  0  0  0  0  0  0  0  0
  -36.4310    4.2010   -8.0050 F   0  0  0  0  0  0  0  0  0  0  0  0
  -35.6510    6.2250   -7.8360 F   0  0  0  0  0  0  0  0  0  0  0  0
  -33.9530    5.1190   -5.4450 C   0  0  0  0  0  0  0  0  0  0  0  0
  -33.7410    4.9170   -4.0760 C   0  0  0  0  0  0  0  0  0  0  0  0
  -34.9850    2.9840   -1.2870 N   0  0  0  0  0  0  0  0  0  0  0  0
  -34.7730    2.7720    0.0100 C   0  0  0  0  0  0  0  0  0  0  0  0
  -35.3180    1.6300    0.5640 N   0  0  0  0  0  0  0  0  0  0  0  0
  -34.1210    3.5980    0.8270 N   0  0  0  0  0  0  0  0  0  0  0  0
  -32.2000    4.9810    2.2590 C   0  0  0  0  0  0  0  0  0  0  0  0
  -31.8230    6.0380    3.3020 C   0  0  0  0  0  0  0  0  0  0  0  0
  -30.4386    7.8753    4.5763 H   0  0  0  0  0  0  0  0  0  0  0  0
  -29.2835    7.4799    3.2587 H   0  0  0  0  0  0  0  0  0  0  0  0
  -30.1398    9.0590    3.2587 H   0  0  0  0  0  0  0  0  0  0  0  0
  -32.2102    8.0747    2.7286 H   0  0  0  0  0  0  0  0  0  0  0  0
  -30.6639    8.1653    0.8121 H   0  0  0  0  0  0  0  0  0  0  0  0
  -30.1330    6.4753    1.1759 H   0  0  0  0  0  0  0  0  0  0  0  0
  -32.8094    7.4681    0.1453 H   0  0  0  0  0  0  0  0  0  0  0  0
  -31.7172    6.1663   -0.4986 H   0  0  0  0  0  0  0  0  0  0  0  0
  -33.3507    5.9335   -1.4728 H   0  0  0  0  0  0  0  0  0  0  0  0
  -36.7083    3.4609   -3.2652 H   0  0  0  0  0  0  0  0  0  0  0  0
  -37.0883    3.8092   -5.6954 H   0  0  0  0  0  0  0  0  0  0  0  0
  -33.1663    5.5855   -6.0561 H   0  0  0  0  0  0  0  0  0  0  0  0
  -32.7890    5.2378   -3.6278 H   0  0  0  0  0  0  0  0  0  0  0  0
  -34.7830    1.3640    1.3780 H   0  0  0  0  0  0  0  0  0  0  0  0
  -36.3140    1.7520    0.6800 H   0  0  0  0  0  0  0  0  0  0  0  0
  -32.8586    4.2309    2.7211 H   0  0  0  0  0  0  0  0  0  0  0  0
  -31.2856    4.4943    1.8888 H   0  0  0  0  0  0  0  0  0  0  0  0
  -32.7019    6.2298    3.9351 H   0  0  0  0  0  0  0  0  0  0  0  0
  -30.9731    5.6364    3.8733 H   0  0  0  0  0  0  0  0  0  0  0  0
  1  2  1  0
  2  3  1  0
  3  4  1  0
  4  5  1  0
  5  6  1  0
  6  7  2  0
  7  8  1  0
  8  9  1  0
  9 10  2  0
 10 11  1  0
 11 12  2  0
 12 13  1  0
 13 14  1  0
 13 15  1  0
 13 16  1  0
 12 17  1  0
 17 18  2  0
  8 19  2  0
 19 20  1  0
 20 21  1  0
 20 22  2  0
  5 23  1  0
 23 24  1  0
 24  2  1  0
 22  6  1  0
 18  9  1  0
  1 25  1  0
  1 26  1  0
  1 27  1  0
  2 28  1  0
  3 29  1  0
  3 30  1  0
  4 31  1  0
  4 32  1  0
  7 33  1  0
 10 34  1  0
 11 35  1  0
 17 36  1  0
 18 37  1  0
 21 38  1  0
 21 39  1  0
 23 40  1  0
 23 41  1  0
 24 42  1  0
 24 43  1  0
M  END
>  <meeko>  (8) 
{"is_sidechain": [false], "free_energy": -5.386, "intermolecular_energy": -6.487, "internal_energy": -0.7}

$$$$
4qac_ligand
     RDKit          3D

 43 45  0  0  0  0  0  0  0  0999 V2000
  -36.9340   -7.6100    6.7230 C   0  0  0  0  0  0  0  0  0  0  0  0
  -36.0330   -8.8250    6.5220 C   0  0  0  0  0  0  0  0  0  0  0  0
  -35.3340   -8.7830    5.1630 C   0  0  0  0  0  0  0  0  0  0  0  0
  -34.4880  -10.0410    4.9380 C   0  0  0  0  0  0  0  0  0  0  0  0
  -33.7890  -10.4670    6.1620 N   0  0  0  0  0  0  0  0  0  0  0  0
  -32.6290  -11.2300    5.9200 C   0  0  0  0  0  0  0  0  0  0  0  0
  -31.3880  -10.7300    6.2760 C   0  0  0  0  0  0  0  0  0  0  0  0
  -30.2760  -11.5060    6.0070 C   0  0  0  0  0  0  0  0  0  0  0  0
  -28.8980  -11.0780    6.3360 C   0  0  0  0  0  0  0  0  0  0  0  0
  -28.2490  -11.4840    7.5150 C   0  0  0  0  0  0  0  0  0  0  0  0
  -26.9440  -11.0690    7.8120 C   0  0  0  0  0  0  0  0  0  0  0  0
  -26.2410  -10.2390    6.9290 C   0  0  0  0  0  0  0  0  0  0  0  0
  -24.8440   -9.7740    7.2580 C   0  0  0  0  0  0  0  0  0  0  0  0
  -24.2620  -10.4980    8.2560 F   0  0  0  0  0  0  0  0  0  0  0  0
  -23.9890   -9.8470    6.1990 F   0  0  0  0  0  0  0  0  0  0  0  0
  -24.8150   -8.4780    7.6730 F   0  0  0  0  0  0  0  0  0  0  0  0
  -26.8740   -9.8260    5.7510 C   0  0  0  0  0  0  0  0  0  0  0  0
  -28.1770  -10.2450    5.4610 C   0  0  0  0  0  0  0  0  0  0  0  0
  -30.3860  -12.7060    5.4050 N   0  0  0  0  0  0  0  0  0  0  0  0
  -31.6150  -13.1170    5.1000 C   0  0  0  0  0  0  0  0  0  0  0  0
  -31.7370  -14.3380    4.4660 N   0  0  0  0  0  0  0  0  0  0  0  0
  -32.7330  -12.4240    5.3140 N   0  0  0  0  0  0  0  0  0  0  0  0
  -33.6290   -9.4410    7.1970 C   0  0  0  0  0  0  0  0  0  0  0  0
  -35.0060   -8.9510    7.6600 C   0  0  0  0  0  0  0  0  0  0  0  0
  -37.0691   -7.4278    7.7994 H   0  0  0  0  0  0  0  0  0  0  0  0
  -36.4698   -6.7282    6.2573 H   0  0  0  0  0  0  0  0  0  0  0  0
  -37.9126   -7.7982    6.2573 H   0  0  0  0  0  0  0  0  0  0  0  0
  -36.6759   -9.7173    6.5428 H   0  0  0  0  0  0  0  0  0  0  0  0
  -36.0936   -8.7145    4.3704 H   0  0  0  0  0  0  0  0  0  0  0  0
  -34.6697   -7.9066    5.1390 H   0  0  0  0  0  0  0  0  0  0  0  0
  -35.1470  -10.8561    4.6044 H   0  0  0  0  0  0  0  0  0  0  0  0
  -33.7273   -9.8054    4.1791 H   0  0  0  0  0  0  0  0  0  0  0  0
  -31.2899   -9.7460    6.7578 H   0  0  0  0  0  0  0  0  0  0  0  0
  -28.7775  -12.1423    8.2203 H   0  0  0  0  0  0  0  0  0  0  0  0
  -26.4671  -11.3979    8.7471 H   0  0  0  0  0  0  0  0  0  0  0  0
  -26.3432   -9.1672    5.0480 H   0  0  0  0  0  0  0  0  0  0  0  0
  -28.6500   -9.9145    4.5245 H   0  0  0  0  0  0  0  0  0  0  0  0
  -31.7100  -14.2010    3.4670 H   0  0  0  0  0  0  0  0  0  0  0  0
  -31.0790  -14.9930    4.8650 H   0  0  0  0  0  0  0  0  0  0  0  0
  -33.0863   -9.8677    8.0534 H   0  0  0  0  0  0  0  0  0  0  0  0
  -33.0621   -8.5937    6.7838 H   0  0  0  0  0  0  0  0  0  0  0  0
  -35.3961   -9.6627    8.4025 H   0  0  0  0  0  0  0  0  0  0  0  0
  -34.8645   -7.9434    8.0779 H   0  0  0  0  0  0  0  0  0  0  0  0
  1  2  1  0
  2  3  1  0
  3  4  1  0
  4  5  1  0
  5  6  1  0
  6  7  2  0
  7  8  1  0
  8  9  1  0
  9 10  2  0
 10 11  1  0
 11 12  2  0
 12 13  1  0
 13 14  1  0
 13 15  1  0
 13 16  1  0
 12 17  1  0
 17 18  2  0
  8 19  2  0
 19 20  1  0
 20 21  1  0
 20 22  2  0
  5 23  1  0
 23 24  1  0
 24  2  1  0
 22  6  1  0
 18  9  1  0
  1 25  1  0
  1 26  1  0
  1 27  1  0
  2 28  1  0
  3 29  1  0
  3 30  1  0
  4 31  1  0
  4 32  1  0
  7 33  1  0
 10 34  1  0
 11 35  1  0
 17 36  1  0
 18 37  1  0
 21 38  1  0
 21 39  1  0
 23 40  1  0
 23 41  1  0
 24 42  1  0
 24 43  1  0
M  END
>  <meeko>  (9) 
{"is_sidechain": [false], "free_energy": -5.016, "intermolecular_energy": -6.073, "internal_energy": -0.668}

$$$$
