
     RDKit          3D

 14 13  0  0  0  0  0  0  0  0999 V2000
   19.8840   -1.6770   -5.7700 C   0  0  0  0  0  0  0  0  0  0  0  0
   19.5150   -0.7700   -4.6170 C   0  0  0  0  0  0  0  0  0  0  0  0
   19.5530   -1.4980   -3.3280 C   0  0  0  0  0  0  0  0  0  0  0  0
   19.1420   -0.6400   -2.1820 C   0  0  0  0  0  0  0  0  0  0  0  0
   19.1650   -1.4160   -0.8960 C   0  0  0  0  0  0  0  0  0  0  0  0
   18.7450   -0.5690    0.2830 C   0  0  0  0  0  0  0  0  0  0  0  0
   18.9100   -1.3150    1.5790 C   0  0  0  0  0  0  0  0  0  0  0  0
   18.5040   -0.4590    2.7500 C   0  0  0  0  0  0  0  0  0  0  0  0
   18.8410   -1.1110    4.0680 C   0  0  0  0  0  0  0  0  0  0  0  0
   18.5890   -0.1630    5.2160 C   0  0  0  0  0  0  0  0  0  0  0  0
   19.0760   -0.7560    6.5040 C   0  0  0  0  0  0  0  0  0  0  0  0
   18.9790    0.2300    7.6530 C   0  0  0  0  0  0  0  0  0  0  0  0
   17.9020    0.7450    7.9030 O   0  0  0  0  0  0  0  0  0  0  0  0
   20.0040    0.4690    8.2770 O   0  0  0  0  0  0  0  0  0  0  0  0
  2  1  1  0
  3  2  1  0
  4  3  1  0
  5  4  1  0
  6  5  1  0
  7  6  1  0
  8  7  1  0
  9  8  1  0
 10  9  1  0
 11 10  1  0
 12 11  1  0
 13 12  2  0
 14 12  1  0
M  CHG  1  14  -1
M  END
$$$$
