
     RDKit          3D

 15 16  0  0  0  0  0  0  0  0999 V2000
    5.5090   11.7880  -10.0810 N   0  0  0  0  0  0  0  0  0  0  0  0
    5.8000   13.2040   -9.7360 C   0  0  1  0  0  0  0  0  0  0  0  0
    5.9750   14.0820  -10.9710 C   0  0  0  0  0  0  0  0  0  0  0  0
    6.8920   13.5260  -11.9740 C   0  0  0  0  0  0  0  0  0  0  0  0
    6.5770   13.3180  -13.2970 C   0  0  0  0  0  0  0  0  0  0  0  0
    7.6410   12.7920  -13.9230 N   0  0  0  0  0  0  0  0  0  0  0  0
    8.6510   12.6600  -13.0270 C   0  0  0  0  0  0  0  0  0  0  0  0
    9.9330   12.1560  -13.1860 C   0  0  0  0  0  0  0  0  0  0  0  0
   10.7670   12.1210  -12.0940 C   0  0  0  0  0  0  0  0  0  0  0  0
   10.3340   12.5690  -10.8670 C   0  0  0  0  0  0  0  0  0  0  0  0
    9.0560   13.0670  -10.6960 C   0  0  0  0  0  0  0  0  0  0  0  0
    8.2120   13.1050  -11.8070 C   0  0  0  0  0  0  0  0  0  0  0  0
    4.6540   13.7990   -9.0050 C   0  0  0  0  0  0  0  0  0  0  0  0
    4.7850   14.9420   -8.5990 O   0  0  0  0  0  0  0  0  0  0  0  0
    3.6280   13.1330   -8.9210 O   0  0  0  0  0  0  0  0  0  0  0  0
  2  1  1  6
  3  2  1  0
  4  3  1  0
  5  4  2  0
  6  5  1  0
  7  6  1  0
  8  7  1  0
  9  8  2  0
 10  9  1  0
 11 10  2  0
 12  7  2  0
 12  4  1  0
 12 11  1  0
 13  2  1  0
 14 13  1  0
 15 13  2  0
M  CHG  2   1   1  14  -1
M  END
$$$$
