3dx2_ligand
     RDKit          3D

 27 27  0  0  0  0  0  0  0  0999 V2000
   -5.8860   16.9470    7.2350 C   0  0  0  0  0  0  0  0  0  0  0  0
   -5.5510   17.9250    8.7050 S   0  0  0  0  0  4  0  0  0  0  0  0
   -5.2300   16.9390    9.9940 O   0  0  0  0  0  0  0  0  0  0  0  0
   -4.0560   18.8630    8.2710 C   0  0  2  0  0  0  0  0  0  0  0  0
   -2.8250   17.9900    7.9540 C   0  0  1  0  0  0  0  0  0  0  0  0
   -2.2380   18.3230    6.6000 N   0  0  0  0  0  0  0  0  0  0  0  0
   -1.7540   18.4310    8.9820 C   0  0  1  0  0  0  0  0  0  0  0  0
   -0.4650   18.1800    8.4330 O   0  0  0  0  0  0  0  0  0  0  0  0
   -2.0830   19.9210    9.1600 C   0  0  1  0  0  0  0  0  0  0  0  0
   -1.8110   20.6000    7.9210 O   0  0  0  0  0  0  0  0  0  0  0  0
   -3.6020   19.8480    9.3680 C   0  0  1  0  0  0  0  0  0  0  0  0
   -4.2360   21.0970    9.1830 O   0  0  0  0  0  0  0  0  0  0  0  0
   -6.2293   15.9449    7.5317 H   0  0  0  0  0  0  0  0  0  0  0  0
   -6.6666   17.4398    6.6368 H   0  0  0  0  0  0  0  0  0  0  0  0
   -4.9672   16.8577    6.6368 H   0  0  0  0  0  0  0  0  0  0  0  0
   -5.8150   16.1400   10.0570 H   0  0  0  0  0  0  0  0  0  0  0  0
   -4.3832   19.4007    7.3689 H   0  0  0  0  0  0  0  0  0  0  0  0
   -3.1044   16.9264    7.9794 H   0  0  0  0  0  0  0  0  0  0  0  0
   -2.0340   17.5600    5.9440 H   0  0  0  0  0  0  0  0  0  0  0  0
   -2.8230   19.0450    6.1270 H   0  0  0  0  0  0  0  0  0  0  0  0
   -1.3580   18.8510    6.7690 H   0  0  0  0  0  0  0  0  0  0  0  0
   -1.7539   17.9046    9.9479 H   0  0  0  0  0  0  0  0  0  0  0  0
    0.2120   18.3300    9.1260 H   0  0  0  0  0  0  0  0  0  0  0  0
   -1.5277   20.4376    9.9568 H   0  0  0  0  0  0  0  0  0  0  0  0
   -2.0720   19.9910    7.1940 H   0  0  0  0  0  0  0  0  0  0  0  0
   -3.8604   19.5410   10.3922 H   0  0  0  0  0  0  0  0  0  0  0  0
   -3.6290   21.8260    9.4240 H   0  0  0  0  0  0  0  0  0  0  0  0
  2  1  1  6
  2  3  2  3
  2  4  1  0
  4  5  1  0
  5  6  1  0
  5  7  1  0
  7  8  1  0
  7  9  1  0
  9 10  1  0
  9 11  1  0
 11 12  1  0
 11  4  1  0
  1 13  1  0
  1 14  1  0
  1 15  1  0
  3 16  1  0
  4 17  1  6
  5 18  1  6
  6 19  1  0
  6 20  1  0
  6 21  1  0
  7 22  1  1
  8 23  1  0
  9 24  1  1
 10 25  1  0
 11 26  1  1
 12 27  1  0
M  CHG  2   3   1   6   1
M  END
>  <meeko>  (1) 
{"is_sidechain": [false], "free_energy": -5.43, "intermolecular_energy": -6.382, "internal_energy": -0.086}

$$$$
3dx2_ligand
     RDKit          3D

 27 27  0  0  0  0  0  0  0  0999 V2000
   -1.4560   15.7620    8.5620 C   0  0  0  0  0  0  0  0  0  0  0  0
   -1.1180   17.3990    9.2230 S   0  0  0  0  0  4  0  0  0  0  0  0
   -0.3560   18.3340    8.0910 O   0  0  0  0  0  0  0  0  0  0  0  0
   -2.7690   18.0800    9.5620 C   0  0  2  0  0  0  0  0  0  0  0  0
   -3.9300   17.2680    8.9530 C   0  0  1  0  0  0  0  0  0  0  0  0
   -4.9510   16.8810   10.0010 N   0  0  0  0  0  0  0  0  0  0  0  0
   -4.6610   18.2640    8.0190 C   0  0  1  0  0  0  0  0  0  0  0  0
   -6.0200   17.8620    7.8980 O   0  0  0  0  0  0  0  0  0  0  0  0
   -4.4620   19.5940    8.7620 C   0  0  1  0  0  0  0  0  0  0  0  0
   -5.1890   19.5380   10.0020 O   0  0  0  0  0  0  0  0  0  0  0  0
   -2.9580   19.5250    9.0590 C   0  0  1  0  0  0  0  0  0  0  0  0
   -2.5610   20.4370   10.0630 O   0  0  0  0  0  0  0  0  0  0  0  0
   -1.6021   15.0546    9.3916 H   0  0  0  0  0  0  0  0  0  0  0  0
   -2.3660   15.7964    7.9450 H   0  0  0  0  0  0  0  0  0  0  0  0
   -0.6068   15.4332    7.9450 H   0  0  0  0  0  0  0  0  0  0  0  0
    0.3420   17.8600    7.5690 H   0  0  0  0  0  0  0  0  0  0  0  0
   -2.8087   18.0363   10.6604 H   0  0  0  0  0  0  0  0  0  0  0  0
   -3.5386   16.3596    8.4716 H   0  0  0  0  0  0  0  0  0  0  0  0
   -5.6430   17.5770   10.3020 H   0  0  0  0  0  0  0  0  0  0  0  0
   -5.4370   16.0030    9.7160 H   0  0  0  0  0  0  0  0  0  0  0  0
   -4.4250   16.5620   10.8390 H   0  0  0  0  0  0  0  0  0  0  0  0
   -4.2951   18.3261    6.9835 H   0  0  0  0  0  0  0  0  0  0  0  0
   -6.5240   18.2000    8.6680 H   0  0  0  0  0  0  0  0  0  0  0  0
   -4.7890   20.4937    8.2201 H   0  0  0  0  0  0  0  0  0  0  0  0
   -4.6320   19.9750   10.6840 H   0  0  0  0  0  0  0  0  0  0  0  0
   -2.3545   19.7836    8.1764 H   0  0  0  0  0  0  0  0  0  0  0  0
   -1.9420   21.1010    9.6950 H   0  0  0  0  0  0  0  0  0  0  0  0
  2  1  1  6
  2  3  2  3
  2  4  1  0
  4  5  1  0
  5  6  1  0
  5  7  1  0
  7  8  1  0
  7  9  1  0
  9 10  1  0
  9 11  1  0
 11 12  1  0
 11  4  1  0
  1 13  1  0
  1 14  1  0
  1 15  1  0
  3 16  1  0
  4 17  1  1
  5 18  1  6
  6 19  1  0
  6 20  1  0
  6 21  1  0
  7 22  1  6
  8 23  1  0
  9 24  1  6
 10 25  1  0
 11 26  1  6
 12 27  1  0
M  CHG  2   3   1   6   1
M  END
>  <meeko>  (2) 
{"is_sidechain": [false], "free_energy": -5.312, "intermolecular_energy": -6.211, "internal_energy": -0.119}

$$$$
3dx2_ligand
     RDKit          3D

 27 27  0  0  0  0  0  0  0  0999 V2000
   -0.4890   17.0980    7.0930 C   0  0  0  0  0  0  0  0  0  0  0  0
   -1.9210   16.3740    7.9030 S   0  0  0  0  0  4  0  0  0  0  0  0
   -1.4710   15.6140    9.3020 O   0  0  0  0  0  0  0  0  0  0  0  0
   -2.9670   17.8070    8.2990 C   0  0  2  0  0  0  0  0  0  0  0  0
   -2.1850   19.0980    8.6140 C   0  0  1  0  0  0  0  0  0  0  0  0
   -2.6360   20.2510    7.7430 N   0  0  0  0  0  0  0  0  0  0  0  0
   -2.6170   19.4800   10.0510 C   0  0  1  0  0  0  0  0  0  0  0  0
   -2.4750   20.8870   10.2120 O   0  0  0  0  0  0  0  0  0  0  0  0
   -4.0730   18.9890   10.0820 C   0  0  1  0  0  0  0  0  0  0  0  0
   -4.8440   19.7840    9.1650 O   0  0  0  0  0  0  0  0  0  0  0  0
   -3.9020   17.5780    9.5030 C   0  0  1  0  0  0  0  0  0  0  0  0
   -5.1240   17.0210    9.0620 O   0  0  0  0  0  0  0  0  0  0  0  0
    0.2202   17.4566    7.8536 H   0  0  0  0  0  0  0  0  0  0  0  0
   -0.0002   16.3387    6.4649 H   0  0  0  0  0  0  0  0  0  0  0  0
   -0.8107   17.9418    6.4649 H   0  0  0  0  0  0  0  0  0  0  0  0
   -0.6280   15.0950    9.2350 H   0  0  0  0  0  0  0  0  0  0  0  0
   -3.5433   17.9276    7.3698 H   0  0  0  0  0  0  0  0  0  0  0  0
   -1.1082   18.9281    8.4666 H   0  0  0  0  0  0  0  0  0  0  0  0
   -3.1600   20.0510    6.8830 H   0  0  0  0  0  0  0  0  0  0  0  0
   -3.1570   20.9480    8.3180 H   0  0  0  0  0  0  0  0  0  0  0  0
   -1.7860   20.7920    7.4870 H   0  0  0  0  0  0  0  0  0  0  0  0
   -2.0295   19.0436   10.8722 H   0  0  0  0  0  0  0  0  0  0  0  0
   -2.4330   21.3070    9.3270 H   0  0  0  0  0  0  0  0  0  0  0  0
   -4.5683   19.0335   11.0632 H   0  0  0  0  0  0  0  0  0  0  0  0
   -4.4190   19.7000    8.2820 H   0  0  0  0  0  0  0  0  0  0  0  0
   -3.5151   16.8722   10.2527 H   0  0  0  0  0  0  0  0  0  0  0  0
   -4.9590   16.2120    8.5360 H   0  0  0  0  0  0  0  0  0  0  0  0
  2  1  1  1
  2  3  2  3
  2  4  1  0
  4  5  1  0
  5  6  1  0
  5  7  1  0
  7  8  1  0
  7  9  1  0
  9 10  1  0
  9 11  1  0
 11 12  1  0
 11  4  1  0
  1 13  1  0
  1 14  1  0
  1 15  1  0
  3 16  1  0
  4 17  1  6
  5 18  1  1
  6 19  1  0
  6 20  1  0
  6 21  1  0
  7 22  1  1
  8 23  1  0
  9 24  1  1
 10 25  1  0
 11 26  1  1
 12 27  1  0
M  CHG  2   3   1   6   1
M  END
>  <meeko>  (3) 
{"is_sidechain": [false], "free_energy": -5.296, "intermolecular_energy": -6.21, "internal_energy": -0.1}

$$$$
3dx2_ligand
     RDKit          3D

 27 27  0  0  0  0  0  0  0  0999 V2000
    1.9240   21.4720   -2.7340 C   0  0  0  0  0  0  0  0  0  0  0  0
    1.3180   22.7340   -1.6070 S   0  0  0  0  0  4  0  0  0  0  0  0
    0.3210   22.0630   -0.4700 O   0  0  0  0  0  0  0  0  0  0  0  0
    2.8240   23.3570   -0.8020 C   0  0  2  0  0  0  0  0  0  0  0  0
    4.1270   23.0610   -1.5720 C   0  0  1  0  0  0  0  0  0  0  0  0
    4.9240   24.3220   -1.8290 N   0  0  0  0  0  0  0  0  0  0  0  0
    4.9870   22.2290   -0.5890 C   0  0  1  0  0  0  0  0  0  0  0  0
    6.3600   22.4200   -0.9090 O   0  0  0  0  0  0  0  0  0  0  0  0
    4.5700   22.8180    0.7680 C   0  0  1  0  0  0  0  0  0  0  0  0
    5.0210   24.1820    0.8330 O   0  0  0  0  0  0  0  0  0  0  0  0
    3.0420   22.8020    0.6200 C   0  0  1  0  0  0  0  0  0  0  0  0
    2.3970   23.6340    1.5630 O   0  0  0  0  0  0  0  0  0  0  0  0
    2.3291   20.6283   -2.1561 H   0  0  0  0  0  0  0  0  0  0  0  0
    1.0972   21.1189   -3.3679 H   0  0  0  0  0  0  0  0  0  0  0  0
    2.7165   21.8964   -3.3679 H   0  0  0  0  0  0  0  0  0  0  0  0
   -0.3030   21.3780   -0.8230 H   0  0  0  0  0  0  0  0  0  0  0  0
    2.6330   24.4400   -0.7779 H   0  0  0  0  0  0  0  0  0  0  0  0
    3.8914   22.5761   -2.5308 H   0  0  0  0  0  0  0  0  0  0  0  0
    5.2690   24.8650   -1.0290 H   0  0  0  0  0  0  0  0  0  0  0  0
    5.7120   24.1170   -2.4810 H   0  0  0  0  0  0  0  0  0  0  0  0
    4.3310   24.9450   -2.4140 H   0  0  0  0  0  0  0  0  0  0  0  0
    4.8439   21.1386   -0.6130 H   0  0  0  0  0  0  0  0  0  0  0  0
    6.6750   21.6570   -1.4370 H   0  0  0  0  0  0  0  0  0  0  0  0
    4.9587   22.2925    1.6527 H   0  0  0  0  0  0  0  0  0  0  0  0
    5.0830   24.4210    1.7850 H   0  0  0  0  0  0  0  0  0  0  0  0
    2.6256   21.7975    0.7861 H   0  0  0  0  0  0  0  0  0  0  0  0
    2.1650   24.4930    1.1560 H   0  0  0  0  0  0  0  0  0  0  0  0
  2  1  1  6
  2  3  2  3
  2  4  1  0
  4  5  1  0
  5  6  1  0
  5  7  1  0
  7  8  1  0
  7  9  1  0
  9 10  1  0
  9 11  1  0
 11 12  1  0
 11  4  1  0
  1 13  1  0
  1 14  1  0
  1 15  1  0
  3 16  1  0
  4 17  1  1
  5 18  1  6
  6 19  1  0
  6 20  1  0
  6 21  1  0
  7 22  1  1
  8 23  1  0
  9 24  1  1
 10 25  1  0
 11 26  1  6
 12 27  1  0
M  CHG  2   3   1   6   1
M  END
>  <meeko>  (4) 
{"is_sidechain": [false], "free_energy": -5.212, "intermolecular_energy": -6.025, "internal_energy": -0.187}

$$$$
3dx2_ligand
     RDKit          3D

 27 27  0  0  0  0  0  0  0  0999 V2000
    1.7960   21.2570   -3.0320 C   0  0  0  0  0  0  0  0  0  0  0  0
    1.7480   23.0540   -3.0580 S   0  0  0  0  0  4  0  0  0  0  0  0
    0.2310   23.5860   -3.4460 O   0  0  0  0  0  0  0  0  0  0  0  0
    2.1380   23.5230   -1.3460 C   0  0  2  0  0  0  0  0  0  0  0  0
    3.5230   24.1760   -1.1640 C   0  0  1  0  0  0  0  0  0  0  0  0
    3.4220   25.5180   -0.4710 N   0  0  0  0  0  0  0  0  0  0  0  0
    4.2640   23.2550   -0.1640 C   0  0  1  0  0  0  0  0  0  0  0  0
    5.2380   24.0270    0.5310 O   0  0  0  0  0  0  0  0  0  0  0  0
    3.1100   22.7580    0.7200 C   0  0  1  0  0  0  0  0  0  0  0  0
    2.5830   23.8760    1.4570 O   0  0  0  0  0  0  0  0  0  0  0  0
    2.0960   22.3430   -0.3550 C   0  0  1  0  0  0  0  0  0  0  0  0
    0.7880   22.1970    0.1610 O   0  0  0  0  0  0  0  0  0  0  0  0
    1.8054   20.9055   -1.9897 H   0  0  0  0  0  0  0  0  0  0  0  0
    0.9082   20.8590   -3.5452 H   0  0  0  0  0  0  0  0  0  0  0  0
    2.7038   20.9070   -3.5452 H   0  0  0  0  0  0  0  0  0  0  0  0
   -0.2140   23.0710   -4.1690 H   0  0  0  0  0  0  0  0  0  0  0  0
    1.3425   24.2503   -1.1265 H   0  0  0  0  0  0  0  0  0  0  0  0
    4.0063   24.3069   -2.1434 H   0  0  0  0  0  0  0  0  0  0  0  0
    2.4930   25.9200   -0.2960 H   0  0  0  0  0  0  0  0  0  0  0  0
    3.9700   25.5010    0.4170 H   0  0  0  0  0  0  0  0  0  0  0  0
    3.9690   26.1970   -1.0370 H   0  0  0  0  0  0  0  0  0  0  0  0
    4.8277   22.4147   -0.5954 H   0  0  0  0  0  0  0  0  0  0  0  0
    4.8020   24.5060    1.2670 H   0  0  0  0  0  0  0  0  0  0  0  0
    3.3712   21.9716    1.4435 H   0  0  0  0  0  0  0  0  0  0  0  0
    3.1630   24.6470    1.2660 H   0  0  0  0  0  0  0  0  0  0  0  0
    2.3445   21.3669   -0.7972 H   0  0  0  0  0  0  0  0  0  0  0  0
    0.1790   22.8300   -0.2720 H   0  0  0  0  0  0  0  0  0  0  0  0
  2  1  1  1
  2  3  2  3
  2  4  1  0
  4  5  1  0
  5  6  1  0
  5  7  1  0
  7  8  1  0
  7  9  1  0
  9 10  1  0
  9 11  1  0
 11 12  1  0
 11  4  1  0
  1 13  1  0
  1 14  1  0
  1 15  1  0
  3 16  1  0
  4 17  1  1
  5 18  1  6
  6 19  1  0
  6 20  1  0
  6 21  1  0
  7 22  1  6
  8 23  1  0
  9 24  1  1
 10 25  1  0
 11 26  1  6
 12 27  1  0
M  CHG  2   3   1   6   1
M  END
>  <meeko>  (5) 
{"is_sidechain": [false], "free_energy": -5.178, "intermolecular_energy": -6.076, "internal_energy": -0.096}

$$$$
3dx2_ligand
     RDKit          3D

 27 27  0  0  0  0  0  0  0  0999 V2000
    3.7640   28.3380    6.3330 C   0  0  0  0  0  0  0  0  0  0  0  0
    4.7160   29.2900    5.1410 S   0  0  0  0  0  4  0  0  0  0  0  0
    6.3270   28.9350    5.2730 O   0  0  0  0  0  0  0  0  0  0  0  0
    4.0970   28.7140    3.5320 C   0  0  2  0  0  0  0  0  0  0  0  0
    2.7130   28.0360    3.5880 C   0  0  1  0  0  0  0  0  0  0  0  0
    1.7350   28.6800    2.6290 N   0  0  0  0  0  0  0  0  0  0  0  0
    2.9500   26.6100    3.0310 C   0  0  1  0  0  0  0  0  0  0  0  0
    1.7330   26.1310    2.4720 O   0  0  0  0  0  0  0  0  0  0  0  0
    4.0620   26.8570    1.9990 C   0  0  1  0  0  0  0  0  0  0  0  0
    3.5270   27.6620    0.9350 O   0  0  0  0  0  0  0  0  0  0  0  0
    5.0310   27.7060    2.8320 C   0  0  1  0  0  0  0  0  0  0  0  0
    5.9700   28.3990    2.0340 O   0  0  0  0  0  0  0  0  0  0  0  0
    4.0560   28.6300    7.3525 H   0  0  0  0  0  0  0  0  0  0  0  0
    2.6917   28.5359    6.1878 H   0  0  0  0  0  0  0  0  0  0  0  0
    3.9619   27.2657    6.1878 H   0  0  0  0  0  0  0  0  0  0  0  0
    6.6530   28.8460    6.2050 H   0  0  0  0  0  0  0  0  0  0  0  0
    4.0379   29.6549    2.9653 H   0  0  0  0  0  0  0  0  0  0  0  0
    2.3114   28.0910    4.6106 H   0  0  0  0  0  0  0  0  0  0  0  0
    1.2190   29.5150    2.9300 H   0  0  0  0  0  0  0  0  0  0  0  0
    2.2040   28.8670    1.7160 H   0  0  0  0  0  0  0  0  0  0  0  0
    1.0450   27.9510    2.3590 H   0  0  0  0  0  0  0  0  0  0  0  0
    3.2448   25.8405    3.7596 H   0  0  0  0  0  0  0  0  0  0  0  0
    0.9940   26.3470    3.0800 H   0  0  0  0  0  0  0  0  0  0  0  0
    4.5017   25.9543    1.5497 H   0  0  0  0  0  0  0  0  0  0  0  0
    2.7320   27.1960    0.5910 H   0  0  0  0  0  0  0  0  0  0  0  0
    5.6309   27.0879    3.5162 H   0  0  0  0  0  0  0  0  0  0  0  0
    6.2930   29.1950    2.5020 H   0  0  0  0  0  0  0  0  0  0  0  0
  2  1  1  1
  2  3  2  3
  2  4  1  0
  4  5  1  0
  5  6  1  0
  5  7  1  0
  7  8  1  0
  7  9  1  0
  9 10  1  0
  9 11  1  0
 11 12  1  0
 11  4  1  0
  1 13  1  0
  1 14  1  0
  1 15  1  0
  3 16  1  0
  4 17  1  6
  5 18  1  1
  6 19  1  0
  6 20  1  0
  6 21  1  0
  7 22  1  1
  8 23  1  0
  9 24  1  6
 10 25  1  0
 11 26  1  1
 12 27  1  0
M  CHG  2   3   1   6   1
M  END
>  <meeko>  (6) 
{"is_sidechain": [false], "free_energy": -5.126, "intermolecular_energy": -5.922, "internal_energy": -0.19}

$$$$
3dx2_ligand
     RDKit          3D

 27 27  0  0  0  0  0  0  0  0999 V2000
    1.1380   22.1560   -1.4090 C   0  0  0  0  0  0  0  0  0  0  0  0
    1.7480   22.6580   -3.0230 S   0  0  0  0  0  4  0  0  0  0  0  0
    0.6510   22.2740   -4.2010 O   0  0  0  0  0  0  0  0  0  0  0  0
    1.8910   24.4650   -2.8920 C   0  0  2  0  0  0  0  0  0  0  0  0
    1.8480   25.2080   -4.2420 C   0  0  1  0  0  0  0  0  0  0  0  0
    0.7770   26.2770   -4.2590 N   0  0  0  0  0  0  0  0  0  0  0  0
    3.1910   25.9750   -4.3140 C   0  0  1  0  0  0  0  0  0  0  0  0
    3.0200   27.1170   -5.1450 O   0  0  0  0  0  0  0  0  0  0  0  0
    3.4420   26.3060   -2.8340 C   0  0  1  0  0  0  0  0  0  0  0  0
    2.4300   27.2290   -2.3940 O   0  0  0  0  0  0  0  0  0  0  0  0
    3.1830   24.9360   -2.1940 C   0  0  1  0  0  0  0  0  0  0  0  0
    2.9710   25.0190   -0.7990 O   0  0  0  0  0  0  0  0  0  0  0  0
    1.7328   22.6455   -0.6237 H   0  0  0  0  0  0  0  0  0  0  0  0
    0.0832   22.4511   -1.3076 H   0  0  0  0  0  0  0  0  0  0  0  0
    1.2246   21.0641   -1.3076 H   0  0  0  0  0  0  0  0  0  0  0  0
    0.2230   21.3860   -4.0900 H   0  0  0  0  0  0  0  0  0  0  0  0
    1.0042   24.7159   -2.2914 H   0  0  0  0  0  0  0  0  0  0  0  0
    1.6614   24.4919   -5.0558 H   0  0  0  0  0  0  0  0  0  0  0  0
    0.4250   26.6160   -5.1610 H   0  0  0  0  0  0  0  0  0  0  0  0
   -0.0230   25.9870   -3.6560 H   0  0  0  0  0  0  0  0  0  0  0  0
    1.1480   27.0900   -3.7280 H   0  0  0  0  0  0  0  0  0  0  0  0
    4.0427   25.4350   -4.7533 H   0  0  0  0  0  0  0  0  0  0  0  0
    3.4500   27.8890   -4.7200 H   0  0  0  0  0  0  0  0  0  0  0  0
    4.4232   26.7483   -2.6068 H   0  0  0  0  0  0  0  0  0  0  0  0
    1.6520   27.1070   -2.9830 H   0  0  0  0  0  0  0  0  0  0  0  0
    4.0411   24.2588   -2.3168 H   0  0  0  0  0  0  0  0  0  0  0  0
    2.0140   25.0660   -0.6030 H   0  0  0  0  0  0  0  0  0  0  0  0
  2  1  1  1
  2  3  2  3
  2  4  1  0
  4  5  1  0
  5  6  1  0
  5  7  1  0
  7  8  1  0
  7  9  1  0
  9 10  1  0
  9 11  1  0
 11 12  1  0
 11  4  1  0
  1 13  1  0
  1 14  1  0
  1 15  1  0
  3 16  1  0
  4 17  1  1
  5 18  1  6
  6 19  1  0
  6 20  1  0
  6 21  1  0
  7 22  1  6
  8 23  1  0
  9 24  1  6
 10 25  1  0
 11 26  1  1
 12 27  1  0
M  CHG  2   3   1   6   1
M  END
>  <meeko>  (7) 
{"is_sidechain": [false], "free_energy": -4.997, "intermolecular_energy": -5.897, "internal_energy": -0.063}

$$$$
3dx2_ligand
     RDKit          3D

 27 27  0  0  0  0  0  0  0  0999 V2000
    4.5140   24.4540   -1.9520 C   0  0  0  0  0  0  0  0  0  0  0  0
    2.8720   25.1860   -1.9270 S   0  0  0  0  0  4  0  0  0  0  0  0
    2.9270   26.7080   -1.2820 O   0  0  0  0  0  0  0  0  0  0  0  0
    2.4140   25.2860   -3.6830 C   0  0  2  0  0  0  0  0  0  0  0  0
    3.0400   26.4770   -4.4370 C   0  0  1  0  0  0  0  0  0  0  0  0
    3.7910   26.0240   -5.6710 N   0  0  0  0  0  0  0  0  0  0  0  0
    1.8310   27.2860   -4.9690 C   0  0  1  0  0  0  0  0  0  0  0  0
    2.2360   27.9980   -6.1330 O   0  0  0  0  0  0  0  0  0  0  0  0
    0.8040   26.1750   -5.2380 C   0  0  1  0  0  0  0  0  0  0  0  0
    1.2910   25.3520   -6.3120 O   0  0  0  0  0  0  0  0  0  0  0  0
    0.8940   25.3890   -3.9230 C   0  0  1  0  0  0  0  0  0  0  0  0
    0.3370   24.0940   -4.0250 O   0  0  0  0  0  0  0  0  0  0  0  0
    4.8620   24.2988   -0.9201 H   0  0  0  0  0  0  0  0  0  0  0  0
    4.4766   23.4873   -2.4756 H   0  0  0  0  0  0  0  0  0  0  0  0
    5.2080   25.1280   -2.4756 H   0  0  0  0  0  0  0  0  0  0  0  0
    3.5190   26.7980   -0.4900 H   0  0  0  0  0  0  0  0  0  0  0  0
    2.8107   24.3368   -4.0725 H   0  0  0  0  0  0  0  0  0  0  0  0
    3.7257   27.0224   -3.7718 H   0  0  0  0  0  0  0  0  0  0  0  0
    4.7720   25.7380   -5.5800 H   0  0  0  0  0  0  0  0  0  0  0  0
    3.2510   25.2790   -6.1620 H   0  0  0  0  0  0  0  0  0  0  0  0
    3.7410   26.8000   -6.3610 H   0  0  0  0  0  0  0  0  0  0  0  0
    1.4212   28.0555   -4.2983 H   0  0  0  0  0  0  0  0  0  0  0  0
    1.4390   28.2870   -6.6250 H   0  0  0  0  0  0  0  0  0  0  0  0
   -0.2058   26.5176   -5.5081 H   0  0  0  0  0  0  0  0  0  0  0  0
    1.1310   25.8440   -7.1490 H   0  0  0  0  0  0  0  0  0  0  0  0
    0.3361   25.8820   -3.1132 H   0  0  0  0  0  0  0  0  0  0  0  0
   -0.5410   24.1340   -4.4560 H   0  0  0  0  0  0  0  0  0  0  0  0
  2  1  1  6
  2  3  2  3
  2  4  1  0
  4  5  1  0
  5  6  1  0
  5  7  1  0
  7  8  1  0
  7  9  1  0
  9 10  1  0
  9 11  1  0
 11 12  1  0
 11  4  1  0
  1 13  1  0
  1 14  1  0
  1 15  1  0
  3 16  1  0
  4 17  1  6
  5 18  1  1
  6 19  1  0
  6 20  1  0
  6 21  1  0
  7 22  1  1
  8 23  1  0
  9 24  1  6
 10 25  1  0
 11 26  1  1
 12 27  1  0
M  CHG  2   3   1   6   1
M  END
>  <meeko>  (8) 
{"is_sidechain": [false], "free_energy": -4.974, "intermolecular_energy": -5.856, "internal_energy": -0.077}

$$$$
3dx2_ligand
     RDKit          3D

 27 27  0  0  0  0  0  0  0  0999 V2000
    3.5510   24.5230    0.7270 C   0  0  0  0  0  0  0  0  0  0  0  0
    3.9280   24.5990   -1.0290 S   0  0  0  0  0  4  0  0  0  0  0  0
    5.1530   23.5520   -1.4030 O   0  0  0  0  0  0  0  0  0  0  0  0
    2.3910   24.0470   -1.8270 C   0  0  2  0  0  0  0  0  0  0  0  0
    2.0920   22.5440   -1.6620 C   0  0  1  0  0  0  0  0  0  0  0  0
    0.7160   22.3090   -1.0780 N   0  0  0  0  0  0  0  0  0  0  0  0
    2.0200   21.9940   -3.1080 C   0  0  1  0  0  0  0  0  0  0  0  0
    1.1820   20.8440   -3.1180 O   0  0  0  0  0  0  0  0  0  0  0  0
    1.4450   23.1970   -3.8720 C   0  0  1  0  0  0  0  0  0  0  0  0
    0.0990   23.4250   -3.4200 O   0  0  0  0  0  0  0  0  0  0  0  0
    2.3480   24.3200   -3.3450 C   0  0  1  0  0  0  0  0  0  0  0  0
    1.8130   25.6060   -3.5850 O   0  0  0  0  0  0  0  0  0  0  0  0
    4.4672   24.7077    1.3070 H   0  0  0  0  0  0  0  0  0  0  0  0
    2.8001   25.2878    0.9742 H   0  0  0  0  0  0  0  0  0  0  0  0
    3.1550   23.5270    0.9742 H   0  0  0  0  0  0  0  0  0  0  0  0
    5.8910   23.5300   -0.7410 H   0  0  0  0  0  0  0  0  0  0  0  0
    1.6357   24.6458   -1.2969 H   0  0  0  0  0  0  0  0  0  0  0  0
    2.8491   22.0822   -1.0113 H   0  0  0  0  0  0  0  0  0  0  0  0
    0.4250   22.8480   -0.2550 H   0  0  0  0  0  0  0  0  0  0  0  0
   -0.0070   22.3920   -1.8260 H   0  0  0  0  0  0  0  0  0  0  0  0
    0.6510   21.2980   -0.8430 H   0  0  0  0  0  0  0  0  0  0  0  0
    2.9671   21.6532   -3.5518 H   0  0  0  0  0  0  0  0  0  0  0  0
    1.6470   20.1130   -3.5780 H   0  0  0  0  0  0  0  0  0  0  0  0
    1.4197   23.0950   -4.9670 H   0  0  0  0  0  0  0  0  0  0  0  0
   -0.2750   22.5500   -3.1710 H   0  0  0  0  0  0  0  0  0  0  0  0
    3.3315   24.3189   -3.8377 H   0  0  0  0  0  0  0  0  0  0  0  0
    2.5200   26.2220   -3.8670 H   0  0  0  0  0  0  0  0  0  0  0  0
  2  1  1  1
  2  3  2  3
  2  4  1  0
  4  5  1  0
  5  6  1  0
  5  7  1  0
  7  8  1  0
  7  9  1  0
  9 10  1  0
  9 11  1  0
 11 12  1  0
 11  4  1  0
  1 13  1  0
  1 14  1  0
  1 15  1  0
  3 16  1  0
  4 17  1  1
  5 18  1  1
  6 19  1  0
  6 20  1  0
  6 21  1  0
  7 22  1  6
  8 23  1  0
  9 24  1  6
 10 25  1  0
 11 26  1  6
 12 27  1  0
M  CHG  2   3   1   6   1
M  END
>  <meeko>  (9) 
{"is_sidechain": [false], "free_energy": -4.95, "intermolecular_energy": -5.823, "internal_energy": -0.082}

$$$$
