
     RDKit          3D

 20 21  0  0  0  0  0  0  0  0999 V2000
   -3.8030    8.1410  -16.8710 C   0  0  0  0  0  0  0  0  0  0  0  0
   -3.3470    6.7480  -16.5610 C   0  0  0  0  0  0  0  0  0  0  0  0
   -4.0710    5.9950  -15.9940 O   0  0  0  0  0  0  0  0  0  0  0  0
   -1.9920    6.3200  -16.9630 C   0  0  0  0  0  0  0  0  0  0  0  0
   -0.9650    7.4360  -16.9760 C   0  0  0  0  0  0  0  0  0  0  0  0
    0.4170    6.8630  -17.2080 C   0  0  0  0  0  0  0  0  0  0  0  0
    1.4090    8.0030  -17.1410 C   0  0  0  0  0  0  0  0  0  0  0  0
    2.7950    7.5190  -17.1240 N   0  0  0  0  0  0  0  0  0  0  0  0
    3.4960    7.4400  -18.3080 C   0  0  0  0  0  0  0  0  0  0  0  0
    2.9760    7.7440  -19.3810 O   0  0  0  0  0  0  0  0  0  0  0  0
    4.8510    7.0090  -18.2330 C   0  0  0  0  0  0  0  0  0  0  0  0
    5.4270    6.6740  -17.0090 C   0  0  0  0  0  0  0  0  0  0  0  0
    6.6960    6.3070  -17.2280 N   0  0  0  0  0  0  0  0  0  0  0  0
    6.9200    6.4090  -18.5220 C   0  0  0  0  0  0  0  0  0  0  0  0
    5.8240    6.8290  -19.1730 N   0  0  0  0  0  0  0  0  0  0  0  0
    5.7190    7.0470  -20.6000 C   0  0  0  0  0  0  0  0  0  0  0  0
    4.6950    6.7510  -15.8540 N   0  0  0  0  0  0  0  0  0  0  0  0
    5.2950    6.4050  -14.5710 C   0  0  0  0  0  0  0  0  0  0  0  0
    3.3570    7.1720  -15.9070 C   0  0  0  0  0  0  0  0  0  0  0  0
    2.7150    7.2440  -14.8760 O   0  0  0  0  0  0  0  0  0  0  0  0
  2  1  1  0
  3  2  2  0
  4  2  1  0
  5  4  1  0
  6  5  1  0
  7  6  1  0
  8  7  1  0
  9  8  1  0
 10  9  2  0
 11  9  1  0
 12 11  2  0
 13 12  1  0
 14 13  2  0
 15 11  1  0
 15 14  1  0
 16 15  1  0
 17 12  1  0
 18 17  1  0
 19  8  1  0
 19 17  1  0
 20 19  2  0
M  END
$$$$
