4bkt_ligand
     RDKit          3D

 36 37  0  0  0  0  0  0  0  0999 V2000
   -9.2160   -8.5700   -9.9070 C   0  0  0  0  0  0  0  0  0  0  0  0
   -8.0500   -8.9230  -10.6720 N   0  0  0  0  0  0  0  0  0  0  0  0
   -7.2330   -9.9780  -10.3210 C   0  0  0  0  0  0  0  0  0  0  0  0
   -7.4070  -10.6430   -9.3040 O   0  0  0  0  0  0  0  0  0  0  0  0
   -6.1210  -10.2810  -11.3520 C   0  0  2  0  0  0  0  0  0  0  0  0
   -6.5350  -11.3520  -12.3570 C   0  0  0  0  0  0  0  0  0  0  0  0
   -6.1530  -12.6500  -11.6550 C   0  0  1  0  0  0  0  0  0  0  0  0
   -5.9870  -13.6900  -12.6050 O   0  0  0  0  0  0  0  0  0  0  0  0
   -4.8420  -12.2800  -10.9530 C   0  0  0  0  0  0  0  0  0  0  0  0
   -4.9350  -10.8480  -10.6980 N   0  0  0  0  0  0  0  0  0  0  0  0
   -3.9860  -10.0520  -10.1000 C   0  0  0  0  0  0  0  0  0  0  0  0
   -3.9410   -8.8380  -10.3250 O   0  0  0  0  0  0  0  0  0  0  0  0
   -3.0030  -10.6980   -9.1400 C   0  0  0  0  0  0  0  0  0  0  0  0
   -1.6450  -10.6570   -9.7200 C   0  0  0  0  0  0  0  0  0  0  0  0
   -0.5100   -9.9270   -9.4630 C   0  0  0  0  0  0  0  0  0  0  0  0
    0.4300  -10.4030  -10.4040 C   0  0  0  0  0  0  0  0  0  0  0  0
    1.8320   -9.9740  -10.6030 C   0  0  0  0  0  0  0  0  0  0  0  0
   -0.0980  -11.3610  -11.1750 N   0  0  0  0  0  0  0  0  0  0  0  0
   -1.3990  -11.5230  -10.7390 O   0  0  0  0  0  0  0  0  0  0  0  0
   -8.9853   -8.6398   -8.8337 H   0  0  0  0  0  0  0  0  0  0  0  0
   -9.5169   -7.5405  -10.1512 H   0  0  0  0  0  0  0  0  0  0  0  0
  -10.0374   -9.2597  -10.1512 H   0  0  0  0  0  0  0  0  0  0  0  0
   -7.9240   -8.5170  -11.6000 H   0  0  0  0  0  0  0  0  0  0  0  0
   -5.9235   -9.3164  -11.8424 H   0  0  0  0  0  0  0  0  0  0  0  0
   -7.6166  -11.3126  -12.5532 H   0  0  0  0  0  0  0  0  0  0  0  0
   -6.0535  -11.2332  -13.3388 H   0  0  0  0  0  0  0  0  0  0  0  0
   -6.9093  -13.0268  -10.9507 H   0  0  0  0  0  0  0  0  0  0  0  0
   -5.3020  -13.4090  -13.2360 H   0  0  0  0  0  0  0  0  0  0  0  0
   -4.7408  -12.8341  -10.0082 H   0  0  0  0  0  0  0  0  0  0  0  0
   -3.9632  -12.5321  -11.5647 H   0  0  0  0  0  0  0  0  0  0  0  0
   -3.0102  -10.1512   -8.1856 H   0  0  0  0  0  0  0  0  0  0  0  0
   -3.2951  -11.7443   -8.9669 H   0  0  0  0  0  0  0  0  0  0  0  0
   -0.3659   -9.1491   -8.6987 H   0  0  0  0  0  0  0  0  0  0  0  0
    2.3128   -9.8269   -9.6246 H   0  0  0  0  0  0  0  0  0  0  0  0
    2.3755  -10.7469  -11.1661 H   0  0  0  0  0  0  0  0  0  0  0  0
    1.8499   -9.0293  -11.1661 H   0  0  0  0  0  0  0  0  0  0  0  0
  1  2  1  0
  2  3  1  0
  3  4  2  0
  3  5  1  0
  5  6  1  0
  6  7  1  0
  7  8  1  0
  7  9  1  0
  9 10  1  0
 10 11  1  0
 11 12  2  0
 11 13  1  0
 13 14  1  0
 14 15  2  0
 15 16  1  0
 16 17  1  0
 16 18  2  0
 18 19  1  0
 10  5  1  0
 19 14  1  0
  1 20  1  0
  1 21  1  0
  1 22  1  0
  2 23  1  0
  5 24  1  6
  6 25  1  0
  6 26  1  0
  7 27  1  1
  8 28  1  0
  9 29  1  0
  9 30  1  0
 13 31  1  0
 13 32  1  0
 15 33  1  0
 17 34  1  0
 17 35  1  0
 17 36  1  0
M  END
>  <meeko>  (1) 
{"is_sidechain": [false], "free_energy": -6.395, "intermolecular_energy": -8.078, "internal_energy": -0.562}

$$$$
4bkt_ligand
     RDKit          3D

 36 37  0  0  0  0  0  0  0  0999 V2000
   -3.7590   -7.1410  -10.4940 C   0  0  0  0  0  0  0  0  0  0  0  0
   -3.1170   -8.3700  -10.1150 N   0  0  0  0  0  0  0  0  0  0  0  0
   -1.7760   -8.4320   -9.8010 C   0  0  0  0  0  0  0  0  0  0  0  0
   -1.0280   -7.4610   -9.8850 O   0  0  0  0  0  0  0  0  0  0  0  0
   -1.3150   -9.8120   -9.2790 C   0  0  2  0  0  0  0  0  0  0  0  0
    0.0510  -10.2170   -9.8260 C   0  0  0  0  0  0  0  0  0  0  0  0
   -0.2940  -10.8990  -11.1460 C   0  0  1  0  0  0  0  0  0  0  0  0
    0.7560  -11.7680  -11.5360 O   0  0  0  0  0  0  0  0  0  0  0  0
   -1.5850  -11.6520  -10.8080 C   0  0  0  0  0  0  0  0  0  0  0  0
   -2.2120  -10.8790   -9.7430 N   0  0  0  0  0  0  0  0  0  0  0  0
   -3.3900  -11.1700   -9.0950 C   0  0  0  0  0  0  0  0  0  0  0  0
   -3.5770  -10.8150   -7.9260 O   0  0  0  0  0  0  0  0  0  0  0  0
   -4.4660  -11.9220   -9.8570 C   0  0  0  0  0  0  0  0  0  0  0  0
   -5.6130  -11.0250  -10.1080 C   0  0  0  0  0  0  0  0  0  0  0  0
   -6.8630  -10.8830   -9.5570 C   0  0  0  0  0  0  0  0  0  0  0  0
   -7.4470   -9.8220  -10.2860 C   0  0  0  0  0  0  0  0  0  0  0  0
   -8.7950   -9.2330  -10.1350 C   0  0  0  0  0  0  0  0  0  0  0  0
   -6.6050   -9.3510  -11.2130 N   0  0  0  0  0  0  0  0  0  0  0  0
   -5.4530  -10.1040  -11.0950 O   0  0  0  0  0  0  0  0  0  0  0  0
   -4.0494   -6.5851   -9.5903 H   0  0  0  0  0  0  0  0  0  0  0  0
   -3.0634   -6.5328  -11.0909 H   0  0  0  0  0  0  0  0  0  0  0  0
   -4.6555   -7.3645  -11.0909 H   0  0  0  0  0  0  0  0  0  0  0  0
   -3.6940   -9.1800   -9.8810 H   0  0  0  0  0  0  0  0  0  0  0  0
   -1.3001   -9.7050   -8.1843 H   0  0  0  0  0  0  0  0  0  0  0  0
    0.6875   -9.3352   -9.9915 H   0  0  0  0  0  0  0  0  0  0  0  0
    0.6173  -10.8639   -9.1399 H   0  0  0  0  0  0  0  0  0  0  0  0
   -0.4241  -10.2112  -11.9945 H   0  0  0  0  0  0  0  0  0  0  0  0
    0.3600  -12.6220  -11.7830 H   0  0  0  0  0  0  0  0  0  0  0  0
   -2.2438  -11.7017  -11.6875 H   0  0  0  0  0  0  0  0  0  0  0  0
   -1.3868  -12.6894  -10.5005 H   0  0  0  0  0  0  0  0  0  0  0  0
   -4.0582  -12.2724  -10.8166 H   0  0  0  0  0  0  0  0  0  0  0  0
   -4.7999  -12.7850   -9.2623 H   0  0  0  0  0  0  0  0  0  0  0  0
   -7.3084  -11.4630   -8.7353 H   0  0  0  0  0  0  0  0  0  0  0  0
   -9.0322   -9.1294   -9.0659 H   0  0  0  0  0  0  0  0  0  0  0  0
   -8.8181   -8.2427  -10.6134 H   0  0  0  0  0  0  0  0  0  0  0  0
   -9.5374   -9.8888  -10.6134 H   0  0  0  0  0  0  0  0  0  0  0  0
  1  2  1  0
  2  3  1  0
  3  4  2  0
  3  5  1  0
  5  6  1  0
  6  7  1  0
  7  8  1  0
  7  9  1  0
  9 10  1  0
 10 11  1  0
 11 12  2  0
 11 13  1  0
 13 14  1  0
 14 15  2  0
 15 16  1  0
 16 17  1  0
 16 18  2  0
 18 19  1  0
 10  5  1  0
 19 14  1  0
  1 20  1  0
  1 21  1  0
  1 22  1  0
  2 23  1  0
  5 24  1  1
  6 25  1  0
  6 26  1  0
  7 27  1  6
  8 28  1  0
  9 29  1  0
  9 30  1  0
 13 31  1  0
 13 32  1  0
 15 33  1  0
 17 34  1  0
 17 35  1  0
 17 36  1  0
M  END
>  <meeko>  (2) 
{"is_sidechain": [false], "free_energy": -6.173, "intermolecular_energy": -7.612, "internal_energy": -0.747}

$$$$
4bkt_ligand
     RDKit          3D

 36 37  0  0  0  0  0  0  0  0999 V2000
   -6.0560   -8.2540  -11.8450 C   0  0  0  0  0  0  0  0  0  0  0  0
   -5.1580   -8.3880  -10.7310 N   0  0  0  0  0  0  0  0  0  0  0  0
   -3.8000   -8.5650  -10.8990 C   0  0  0  0  0  0  0  0  0  0  0  0
   -3.2780   -8.6840  -12.0040 O   0  0  0  0  0  0  0  0  0  0  0  0
   -2.9950   -8.5390   -9.5790 C   0  0  2  0  0  0  0  0  0  0  0  0
   -1.8340   -7.5490   -9.6240 C   0  0  0  0  0  0  0  0  0  0  0  0
   -0.7020   -8.3720  -10.2280 C   0  0  1  0  0  0  0  0  0  0  0  0
    0.5520   -7.8060   -9.8830 O   0  0  0  0  0  0  0  0  0  0  0  0
   -0.9160   -9.7530   -9.5990 C   0  0  0  0  0  0  0  0  0  0  0  0
   -2.3470   -9.8330   -9.3300 N   0  0  0  0  0  0  0  0  0  0  0  0
   -3.0210  -10.8830   -8.7490 C   0  0  0  0  0  0  0  0  0  0  0  0
   -3.3540  -10.8430   -7.5600 O   0  0  0  0  0  0  0  0  0  0  0  0
   -3.3620  -12.0850   -9.6100 C   0  0  0  0  0  0  0  0  0  0  0  0
   -4.7120  -11.9140  -10.1860 C   0  0  0  0  0  0  0  0  0  0  0  0
   -5.3130  -12.2980  -11.3600 C   0  0  0  0  0  0  0  0  0  0  0  0
   -6.6290  -11.7950  -11.2580 C   0  0  0  0  0  0  0  0  0  0  0  0
   -7.7350  -11.8990  -12.2360 C   0  0  0  0  0  0  0  0  0  0  0  0
   -6.8140  -11.1530  -10.0980 N   0  0  0  0  0  0  0  0  0  0  0  0
   -5.6110  -11.2350   -9.4250 O   0  0  0  0  0  0  0  0  0  0  0  0
   -7.0802   -8.1012  -11.4740 H   0  0  0  0  0  0  0  0  0  0  0  0
   -5.7550   -7.3908  -12.4568 H   0  0  0  0  0  0  0  0  0  0  0  0
   -6.0201   -9.1674  -12.4568 H   0  0  0  0  0  0  0  0  0  0  0  0
   -5.4900   -8.1550   -9.7940 H   0  0  0  0  0  0  0  0  0  0  0  0
   -3.7314   -8.2694   -8.8077 H   0  0  0  0  0  0  0  0  0  0  0  0
   -2.0765   -6.6845  -10.2595 H   0  0  0  0  0  0  0  0  0  0  0  0
   -1.5852   -7.1289   -8.6383 H   0  0  0  0  0  0  0  0  0  0  0  0
   -0.7039   -8.4116  -11.3273 H   0  0  0  0  0  0  0  0  0  0  0  0
    0.9660   -7.4790  -10.7000 H   0  0  0  0  0  0  0  0  0  0  0  0
   -0.6097  -10.5463  -10.2967 H   0  0  0  0  0  0  0  0  0  0  0  0
   -0.3179   -9.8858   -8.6854 H   0  0  0  0  0  0  0  0  0  0  0  0
   -2.6258  -12.1743  -10.4224 H   0  0  0  0  0  0  0  0  0  0  0  0
   -3.3404  -12.9951   -8.9925 H   0  0  0  0  0  0  0  0  0  0  0  0
   -4.8703  -12.8675  -12.1904 H   0  0  0  0  0  0  0  0  0  0  0  0
   -8.6913  -11.9889  -11.6999 H   0  0  0  0  0  0  0  0  0  0  0  0
   -7.7519  -10.9985  -12.8675 H   0  0  0  0  0  0  0  0  0  0  0  0
   -7.5838  -12.7869  -12.8675 H   0  0  0  0  0  0  0  0  0  0  0  0
  1  2  1  0
  2  3  1  0
  3  4  2  0
  3  5  1  0
  5  6  1  0
  6  7  1  0
  7  8  1  0
  7  9  1  0
  9 10  1  0
 10 11  1  0
 11 12  2  0
 11 13  1  0
 13 14  1  0
 14 15  2  0
 15 16  1  0
 16 17  1  0
 16 18  2  0
 18 19  1  0
 10  5  1  0
 19 14  1  0
  1 20  1  0
  1 21  1  0
  1 22  1  0
  2 23  1  0
  5 24  1  1
  6 25  1  0
  6 26  1  0
  7 27  1  6
  8 28  1  0
  9 29  1  0
  9 30  1  0
 13 31  1  0
 13 32  1  0
 15 33  1  0
 17 34  1  0
 17 35  1  0
 17 36  1  0
M  END
>  <meeko>  (3) 
{"is_sidechain": [false], "free_energy": -6.131, "intermolecular_energy": -7.367, "internal_energy": -0.939}

$$$$
4bkt_ligand
     RDKit          3D

 36 37  0  0  0  0  0  0  0  0999 V2000
   -5.7880  -10.9010  -15.4060 C   0  0  0  0  0  0  0  0  0  0  0  0
   -5.7030  -11.6310  -14.1700 N   0  0  0  0  0  0  0  0  0  0  0  0
   -5.6540  -10.9980  -12.9460 C   0  0  0  0  0  0  0  0  0  0  0  0
   -5.6160   -9.7760  -12.8300 O   0  0  0  0  0  0  0  0  0  0  0  0
   -5.7130  -11.9610  -11.7380 C   0  0  2  0  0  0  0  0  0  0  0  0
   -7.0740  -11.9480  -11.0470 C   0  0  0  0  0  0  0  0  0  0  0  0
   -6.9430  -10.8020  -10.0490 C   0  0  1  0  0  0  0  0  0  0  0  0
   -7.8800  -10.9610   -8.9970 O   0  0  0  0  0  0  0  0  0  0  0  0
   -5.4940  -10.9360   -9.5710 C   0  0  0  0  0  0  0  0  0  0  0  0
   -4.7780  -11.5460  -10.6840 N   0  0  0  0  0  0  0  0  0  0  0  0
   -3.4440  -11.8830  -10.7240 C   0  0  0  0  0  0  0  0  0  0  0  0
   -2.9860  -12.7540   -9.9770 O   0  0  0  0  0  0  0  0  0  0  0  0
   -2.5500  -11.1710  -11.7230 C   0  0  0  0  0  0  0  0  0  0  0  0
   -1.2740  -10.8070  -11.0740 C   0  0  0  0  0  0  0  0  0  0  0  0
    0.0380  -11.1660  -11.2610 C   0  0  0  0  0  0  0  0  0  0  0  0
    0.7440  -10.4340  -10.2800 C   0  0  0  0  0  0  0  0  0  0  0  0
    2.1970  -10.4270  -10.0030 C   0  0  0  0  0  0  0  0  0  0  0  0
   -0.0850   -9.6780   -9.5500 N   0  0  0  0  0  0  0  0  0  0  0  0
   -1.3500   -9.9100  -10.0540 O   0  0  0  0  0  0  0  0  0  0  0  0
   -5.9128   -9.8294  -15.1911 H   0  0  0  0  0  0  0  0  0  0  0  0
   -4.8660  -11.0537  -15.9862 H   0  0  0  0  0  0  0  0  0  0  0  0
   -6.6502  -11.2615  -15.9862 H   0  0  0  0  0  0  0  0  0  0  0  0
   -5.8770  -12.6370  -14.1740 H   0  0  0  0  0  0  0  0  0  0  0  0
   -5.4783  -12.9499  -12.1588 H   0  0  0  0  0  0  0  0  0  0  0  0
   -7.8814  -11.7534  -11.7682 H   0  0  0  0  0  0  0  0  0  0  0  0
   -7.3281  -12.9077  -10.5732 H   0  0  0  0  0  0  0  0  0  0  0  0
   -7.1516   -9.8064  -10.4676 H   0  0  0  0  0  0  0  0  0  0  0  0
   -7.3850  -11.1660   -8.1850 H   0  0  0  0  0  0  0  0  0  0  0  0
   -5.0723   -9.9474   -9.3368 H   0  0  0  0  0  0  0  0  0  0  0  0
   -5.4182  -11.5391   -8.6542 H   0  0  0  0  0  0  0  0  0  0  0  0
   -2.3503  -11.8370  -12.5754 H   0  0  0  0  0  0  0  0  0  0  0  0
   -3.0525  -10.2592  -12.0782 H   0  0  0  0  0  0  0  0  0  0  0  0
    0.4468  -11.8649  -12.0056 H   0  0  0  0  0  0  0  0  0  0  0  0
    2.3630  -10.4262   -8.9156 H   0  0  0  0  0  0  0  0  0  0  0  0
    2.6586  -11.3229  -10.4437 H   0  0  0  0  0  0  0  0  0  0  0  0
    2.6500   -9.5267  -10.4437 H   0  0  0  0  0  0  0  0  0  0  0  0
  1  2  1  0
  2  3  1  0
  3  4  2  0
  3  5  1  0
  5  6  1  0
  6  7  1  0
  7  8  1  0
  7  9  1  0
  9 10  1  0
 10 11  1  0
 11 12  2  0
 11 13  1  0
 13 14  1  0
 14 15  2  0
 15 16  1  0
 16 17  1  0
 16 18  2  0
 18 19  1  0
 10  5  1  0
 19 14  1  0
  1 20  1  0
  1 21  1  0
  1 22  1  0
  2 23  1  0
  5 24  1  6
  6 25  1  0
  6 26  1  0
  7 27  1  6
  8 28  1  0
  9 29  1  0
  9 30  1  0
 13 31  1  0
 13 32  1  0
 15 33  1  0
 17 34  1  0
 17 35  1  0
 17 36  1  0
M  END
>  <meeko>  (4) 
{"is_sidechain": [false], "free_energy": -6.063, "intermolecular_energy": -7.908, "internal_energy": -0.312}

$$$$
4bkt_ligand
     RDKit          3D

 36 37  0  0  0  0  0  0  0  0999 V2000
   -5.2660  -11.0610  -15.5920 C   0  0  0  0  0  0  0  0  0  0  0  0
   -5.7910  -11.6160  -14.3730 N   0  0  0  0  0  0  0  0  0  0  0  0
   -5.4110  -11.1500  -13.1310 C   0  0  0  0  0  0  0  0  0  0  0  0
   -4.5580  -10.2800  -12.9800 O   0  0  0  0  0  0  0  0  0  0  0  0
   -6.1980  -11.7780  -11.9570 C   0  0  2  0  0  0  0  0  0  0  0  0
   -7.6890  -11.4550  -12.0160 C   0  0  0  0  0  0  0  0  0  0  0  0
   -7.7830  -10.1200  -11.2850 C   0  0  1  0  0  0  0  0  0  0  0  0
   -9.1000   -9.9200  -10.8010 O   0  0  0  0  0  0  0  0  0  0  0  0
   -6.7590  -10.2830  -10.1570 C   0  0  0  0  0  0  0  0  0  0  0  0
   -5.7660  -11.2170  -10.6710 N   0  0  0  0  0  0  0  0  0  0  0  0
   -4.6550  -11.6890  -10.0100 C   0  0  0  0  0  0  0  0  0  0  0  0
   -4.0520  -12.6880  -10.4150 O   0  0  0  0  0  0  0  0  0  0  0  0
   -4.1750  -10.9400   -8.7800 C   0  0  0  0  0  0  0  0  0  0  0  0
   -3.0640  -10.0400   -9.1500 C   0  0  0  0  0  0  0  0  0  0  0  0
   -2.9790   -8.7260   -9.5430 C   0  0  0  0  0  0  0  0  0  0  0  0
   -1.5970   -8.5110   -9.7410 C   0  0  0  0  0  0  0  0  0  0  0  0
   -0.9100   -7.2750  -10.1770 C   0  0  0  0  0  0  0  0  0  0  0  0
   -0.8920   -9.6180   -9.4810 N   0  0  0  0  0  0  0  0  0  0  0  0
   -1.8140  -10.5740   -9.1050 O   0  0  0  0  0  0  0  0  0  0  0  0
   -4.5283  -10.2811  -15.3519 H   0  0  0  0  0  0  0  0  0  0  0  0
   -4.7817  -11.8559  -16.1781 H   0  0  0  0  0  0  0  0  0  0  0  0
   -6.0866  -10.6215  -16.1781 H   0  0  0  0  0  0  0  0  0  0  0  0
   -6.6040  -12.2320  -14.4170 H   0  0  0  0  0  0  0  0  0  0  0  0
   -6.0105  -12.8586  -12.0416 H   0  0  0  0  0  0  0  0  0  0  0  0
   -8.0316  -11.3601  -13.0570 H   0  0  0  0  0  0  0  0  0  0  0  0
   -8.3190  -12.2380  -11.5689 H   0  0  0  0  0  0  0  0  0  0  0  0
   -7.5745   -9.2401  -11.9113 H   0  0  0  0  0  0  0  0  0  0  0  0
   -9.5960  -10.7460  -10.9360 H   0  0  0  0  0  0  0  0  0  0  0  0
   -6.2915   -9.3163   -9.9184 H   0  0  0  0  0  0  0  0  0  0  0  0
   -7.2248  -10.6488   -9.2300 H   0  0  0  0  0  0  0  0  0  0  0  0
   -5.0039  -10.3472   -8.3657 H   0  0  0  0  0  0  0  0  0  0  0  0
   -3.8254  -11.6612   -8.0265 H   0  0  0  0  0  0  0  0  0  0  0  0
   -3.8000   -8.0057   -9.6736 H   0  0  0  0  0  0  0  0  0  0  0  0
   -0.5913   -6.7017   -9.2940 H   0  0  0  0  0  0  0  0  0  0  0  0
   -0.0290   -7.5386  -10.7806 H   0  0  0  0  0  0  0  0  0  0  0  0
   -1.5990   -6.6659  -10.7806 H   0  0  0  0  0  0  0  0  0  0  0  0
  1  2  1  0
  2  3  1  0
  3  4  2  0
  3  5  1  0
  5  6  1  0
  6  7  1  0
  7  8  1  0
  7  9  1  0
  9 10  1  0
 10 11  1  0
 11 12  2  0
 11 13  1  0
 13 14  1  0
 14 15  2  0
 15 16  1  0
 16 17  1  0
 16 18  2  0
 18 19  1  0
 10  5  1  0
 19 14  1  0
  1 20  1  0
  1 21  1  0
  1 22  1  0
  2 23  1  0
  5 24  1  1
  6 25  1  0
  6 26  1  0
  7 27  1  6
  8 28  1  0
  9 29  1  0
  9 30  1  0
 13 31  1  0
 13 32  1  0
 15 33  1  0
 17 34  1  0
 17 35  1  0
 17 36  1  0
M  END
>  <meeko>  (5) 
{"is_sidechain": [false], "free_energy": -6.03, "intermolecular_energy": -7.576, "internal_energy": -0.603}

$$$$
4bkt_ligand
     RDKit          3D

 36 37  0  0  0  0  0  0  0  0999 V2000
   -5.5200  -10.9060  -13.3210 C   0  0  0  0  0  0  0  0  0  0  0  0
   -4.7090  -11.5160  -12.3030 N   0  0  0  0  0  0  0  0  0  0  0  0
   -3.5800  -10.9040  -11.7980 C   0  0  0  0  0  0  0  0  0  0  0  0
   -3.1580   -9.8330  -12.2250 O   0  0  0  0  0  0  0  0  0  0  0  0
   -2.9350  -11.6570  -10.6110 C   0  0  2  0  0  0  0  0  0  0  0  0
   -3.9470  -12.0040   -9.5220 C   0  0  0  0  0  0  0  0  0  0  0  0
   -3.9550  -10.7560   -8.6470 C   0  0  1  0  0  0  0  0  0  0  0  0
   -4.4240  -11.0730   -7.3470 O   0  0  0  0  0  0  0  0  0  0  0  0
   -2.4830  -10.3310   -8.6540 C   0  0  0  0  0  0  0  0  0  0  0  0
   -1.9510  -10.8120   -9.9220 N   0  0  0  0  0  0  0  0  0  0  0  0
   -0.6590  -10.6850  -10.3770 C   0  0  0  0  0  0  0  0  0  0  0  0
   -0.2830  -11.2750  -11.3960 O   0  0  0  0  0  0  0  0  0  0  0  0
    0.2930   -9.7880   -9.6070 C   0  0  0  0  0  0  0  0  0  0  0  0
    1.1060   -9.0000  -10.5550 C   0  0  0  0  0  0  0  0  0  0  0  0
    2.3980   -9.0820  -11.0160 C   0  0  0  0  0  0  0  0  0  0  0  0
    2.5180   -7.9970  -11.9120 C   0  0  0  0  0  0  0  0  0  0  0  0
    3.6970   -7.5820  -12.7040 C   0  0  0  0  0  0  0  0  0  0  0  0
    1.3750   -7.3060  -11.9930 N   0  0  0  0  0  0  0  0  0  0  0  0
    0.4890   -7.9410  -11.1450 O   0  0  0  0  0  0  0  0  0  0  0  0
   -6.3139  -10.3089  -12.8485 H   0  0  0  0  0  0  0  0  0  0  0  0
   -4.8935  -10.2534  -13.9468 H   0  0  0  0  0  0  0  0  0  0  0  0
   -5.9733  -11.6889  -13.9468 H   0  0  0  0  0  0  0  0  0  0  0  0
   -5.0710  -12.3270  -11.7980 H   0  0  0  0  0  0  0  0  0  0  0  0
   -2.4922  -12.5587  -11.0592 H   0  0  0  0  0  0  0  0  0  0  0  0
   -4.9419  -12.1908   -9.9525 H   0  0  0  0  0  0  0  0  0  0  0  0
   -3.6894  -12.9188   -8.9680 H   0  0  0  0  0  0  0  0  0  0  0  0
   -4.6203   -9.9548   -9.0012 H   0  0  0  0  0  0  0  0  0  0  0  0
   -4.7730  -11.9810   -7.3700 H   0  0  0  0  0  0  0  0  0  0  0  0
   -2.3976   -9.2362   -8.5906 H   0  0  0  0  0  0  0  0  0  0  0  0
   -1.9327  -10.7430   -7.7952 H   0  0  0  0  0  0  0  0  0  0  0  0
   -0.2845   -9.1064   -8.9652 H   0  0  0  0  0  0  0  0  0  0  0  0
    0.9554  -10.4071   -8.9841 H   0  0  0  0  0  0  0  0  0  0  0  0
    3.1645   -9.8241  -10.7480 H   0  0  0  0  0  0  0  0  0  0  0  0
    4.5128   -7.2949  -12.0242 H   0  0  0  0  0  0  0  0  0  0  0  0
    4.0256   -8.4185  -13.3383 H   0  0  0  0  0  0  0  0  0  0  0  0
    3.4291   -6.7241  -13.3383 H   0  0  0  0  0  0  0  0  0  0  0  0
  1  2  1  0
  2  3  1  0
  3  4  2  0
  3  5  1  0
  5  6  1  0
  6  7  1  0
  7  8  1  0
  7  9  1  0
  9 10  1  0
 10 11  1  0
 11 12  2  0
 11 13  1  0
 13 14  1  0
 14 15  2  0
 15 16  1  0
 16 17  1  0
 16 18  2  0
 18 19  1  0
 10  5  1  0
 19 14  1  0
  1 20  1  0
  1 21  1  0
  1 22  1  0
  2 23  1  0
  5 24  1  6
  6 25  1  0
  6 26  1  0
  7 27  1  6
  8 28  1  0
  9 29  1  0
  9 30  1  0
 13 31  1  0
 13 32  1  0
 15 33  1  0
 17 34  1  0
 17 35  1  0
 17 36  1  0
M  END
>  <meeko>  (6) 
{"is_sidechain": [false], "free_energy": -5.951, "intermolecular_energy": -7.635, "internal_energy": -0.444}

$$$$
4bkt_ligand
     RDKit          3D

 36 37  0  0  0  0  0  0  0  0999 V2000
   -0.1720   -5.4150  -10.0710 C   0  0  0  0  0  0  0  0  0  0  0  0
   -0.2820   -6.7590   -9.5730 N   0  0  0  0  0  0  0  0  0  0  0  0
    0.1140   -7.8520  -10.3170 C   0  0  0  0  0  0  0  0  0  0  0  0
    0.5250   -7.7570  -11.4700 O   0  0  0  0  0  0  0  0  0  0  0  0
    0.0510   -9.1910   -9.5470 C   0  0  2  0  0  0  0  0  0  0  0  0
    1.2200  -10.1130   -9.8840 C   0  0  0  0  0  0  0  0  0  0  0  0
    0.7230  -10.8660  -11.1140 C   0  0  1  0  0  0  0  0  0  0  0  0
    1.4290  -12.0860  -11.2590 O   0  0  0  0  0  0  0  0  0  0  0  0
   -0.7620  -11.0790  -10.7990 C   0  0  0  0  0  0  0  0  0  0  0  0
   -1.1340   -9.9680   -9.9330 N   0  0  0  0  0  0  0  0  0  0  0  0
   -2.3690   -9.7350   -9.3720 C   0  0  0  0  0  0  0  0  0  0  0  0
   -2.8690   -8.6050   -9.3840 O   0  0  0  0  0  0  0  0  0  0  0  0
   -3.1120  -10.9040   -8.7540 C   0  0  0  0  0  0  0  0  0  0  0  0
   -4.2390  -11.2920   -9.6270 C   0  0  0  0  0  0  0  0  0  0  0  0
   -5.5480  -10.8920   -9.7450 C   0  0  0  0  0  0  0  0  0  0  0  0
   -6.0620  -11.6880  -10.7930 C   0  0  0  0  0  0  0  0  0  0  0  0
   -7.4310  -11.6980  -11.3550 C   0  0  0  0  0  0  0  0  0  0  0  0
   -5.1270  -12.5100  -11.2810 N   0  0  0  0  0  0  0  0  0  0  0  0
   -3.9820  -12.2550  -10.5520 O   0  0  0  0  0  0  0  0  0  0  0  0
   -0.1146   -4.7141   -9.2252 H   0  0  0  0  0  0  0  0  0  0  0  0
    0.7366   -5.3245  -10.6845 H   0  0  0  0  0  0  0  0  0  0  0  0
   -1.0537   -5.1780  -10.6845 H   0  0  0  0  0  0  0  0  0  0  0  0
   -0.4720   -6.9080   -8.5810 H   0  0  0  0  0  0  0  0  0  0  0  0
    0.0513   -8.9024   -8.4855 H   0  0  0  0  0  0  0  0  0  0  0  0
    2.1261   -9.5336  -10.1150 H   0  0  0  0  0  0  0  0  0  0  0  0
    1.4997  -10.7780   -9.0536 H   0  0  0  0  0  0  0  0  0  0  0  0
    0.8745  -10.3361  -12.0660 H   0  0  0  0  0  0  0  0  0  0  0  0
    2.1880  -11.9230  -11.8460 H   0  0  0  0  0  0  0  0  0  0  0  0
   -1.3581  -11.0635  -11.7233 H   0  0  0  0  0  0  0  0  0  0  0  0
   -0.9442  -12.0520  -10.3193 H   0  0  0  0  0  0  0  0  0  0  0  0
   -2.4255  -11.7561   -8.6419 H   0  0  0  0  0  0  0  0  0  0  0  0
   -3.4987  -10.6105   -7.7669 H   0  0  0  0  0  0  0  0  0  0  0  0
   -6.0757  -10.1264   -9.1574 H   0  0  0  0  0  0  0  0  0  0  0  0
   -8.1640  -11.7034  -10.5348 H   0  0  0  0  0  0  0  0  0  0  0  0
   -7.5798  -10.8009  -11.9739 H   0  0  0  0  0  0  0  0  0  0  0  0
   -7.5667  -12.5972  -11.9739 H   0  0  0  0  0  0  0  0  0  0  0  0
  1  2  1  0
  2  3  1  0
  3  4  2  0
  3  5  1  0
  5  6  1  0
  6  7  1  0
  7  8  1  0
  7  9  1  0
  9 10  1  0
 10 11  1  0
 11 12  2  0
 11 13  1  0
 13 14  1  0
 14 15  2  0
 15 16  1  0
 16 17  1  0
 16 18  2  0
 18 19  1  0
 10  5  1  0
 19 14  1  0
  1 20  1  0
  1 21  1  0
  1 22  1  0
  2 23  1  0
  5 24  1  1
  6 25  1  0
  6 26  1  0
  7 27  1  6
  8 28  1  0
  9 29  1  0
  9 30  1  0
 13 31  1  0
 13 32  1  0
 15 33  1  0
 17 34  1  0
 17 35  1  0
 17 36  1  0
M  END
>  <meeko>  (7) 
{"is_sidechain": [false], "free_energy": -5.865, "intermolecular_energy": -7.503, "internal_energy": -0.467}

$$$$
4bkt_ligand
     RDKit          3D

 36 37  0  0  0  0  0  0  0  0999 V2000
   -2.8650   -7.7110  -12.4020 C   0  0  0  0  0  0  0  0  0  0  0  0
   -3.7480   -8.8360  -12.2530 N   0  0  0  0  0  0  0  0  0  0  0  0
   -5.0280   -8.7040  -11.7560 C   0  0  0  0  0  0  0  0  0  0  0  0
   -5.4760   -7.6350  -11.3490 O   0  0  0  0  0  0  0  0  0  0  0  0
   -5.8620  -10.0050  -11.8140 C   0  0  2  0  0  0  0  0  0  0  0  0
   -7.3370   -9.7400  -12.0990 C   0  0  0  0  0  0  0  0  0  0  0  0
   -7.9200   -9.5000  -10.7110 C   0  0  1  0  0  0  0  0  0  0  0  0
   -9.3170   -9.7410  -10.7190 O   0  0  0  0  0  0  0  0  0  0  0  0
   -7.1550  -10.5070   -9.8470 C   0  0  0  0  0  0  0  0  0  0  0  0
   -5.8710  -10.6860  -10.5120 N   0  0  0  0  0  0  0  0  0  0  0  0
   -4.8440  -11.5130  -10.1190 C   0  0  0  0  0  0  0  0  0  0  0  0
   -4.5270  -12.4970  -10.7950 O   0  0  0  0  0  0  0  0  0  0  0  0
   -4.0960  -11.1770   -8.8420 C   0  0  0  0  0  0  0  0  0  0  0  0
   -2.9040  -10.3660   -9.1650 C   0  0  0  0  0  0  0  0  0  0  0  0
   -1.6220  -10.6550   -9.5660 C   0  0  0  0  0  0  0  0  0  0  0  0
   -1.0040   -9.3910   -9.6930 C   0  0  0  0  0  0  0  0  0  0  0  0
    0.3880   -9.0820  -10.0900 C   0  0  0  0  0  0  0  0  0  0  0  0
   -1.8550   -8.4030   -9.3940 N   0  0  0  0  0  0  0  0  0  0  0  0
   -3.0480   -9.0180   -9.0690 O   0  0  0  0  0  0  0  0  0  0  0  0
   -2.5735   -7.3396  -11.4085 H   0  0  0  0  0  0  0  0  0  0  0  0
   -1.9665   -8.0209  -12.9558 H   0  0  0  0  0  0  0  0  0  0  0  0
   -3.3795   -6.9119  -12.9558 H   0  0  0  0  0  0  0  0  0  0  0  0
   -3.5060   -9.7210  -12.7010 H   0  0  0  0  0  0  0  0  0  0  0  0
   -5.3931  -10.6013  -12.6106 H   0  0  0  0  0  0  0  0  0  0  0  0
   -7.4626   -8.8539  -12.7386 H   0  0  0  0  0  0  0  0  0  0  0  0
   -7.8280  -10.5639  -12.6375 H   0  0  0  0  0  0  0  0  0  0  0  0
   -7.8117   -8.4692  -10.3426 H   0  0  0  0  0  0  0  0  0  0  0  0
   -9.6840   -9.3940   -9.8870 H   0  0  0  0  0  0  0  0  0  0  0  0
   -7.0109  -10.1117   -8.8307 H   0  0  0  0  0  0  0  0  0  0  0  0
   -7.6999  -11.4570   -9.7444 H   0  0  0  0  0  0  0  0  0  0  0  0
   -4.7554  -10.6075   -8.1705 H   0  0  0  0  0  0  0  0  0  0  0  0
   -3.7816  -12.1077   -8.3470 H   0  0  0  0  0  0  0  0  0  0  0  0
   -1.1780  -11.6450   -9.7469 H   0  0  0  0  0  0  0  0  0  0  0  0
    1.0044   -8.9452   -9.1893 H   0  0  0  0  0  0  0  0  0  0  0  0
    0.7917   -9.9124  -10.6879 H   0  0  0  0  0  0  0  0  0  0  0  0
    0.4024   -8.1588  -10.6879 H   0  0  0  0  0  0  0  0  0  0  0  0
  1  2  1  0
  2  3  1  0
  3  4  2  0
  3  5  1  0
  5  6  1  0
  6  7  1  0
  7  8  1  0
  7  9  1  0
  9 10  1  0
 10 11  1  0
 11 12  2  0
 11 13  1  0
 13 14  1  0
 14 15  2  0
 15 16  1  0
 16 17  1  0
 16 18  2  0
 18 19  1  0
 10  5  1  0
 19 14  1  0
  1 20  1  0
  1 21  1  0
  1 22  1  0
  2 23  1  0
  5 24  1  6
  6 25  1  0
  6 26  1  0
  7 27  1  1
  8 28  1  0
  9 29  1  0
  9 30  1  0
 13 31  1  0
 13 32  1  0
 15 33  1  0
 17 34  1  0
 17 35  1  0
 17 36  1  0
M  END
>  <meeko>  (8) 
{"is_sidechain": [false], "free_energy": -5.693, "intermolecular_energy": -6.916, "internal_energy": -0.837}

$$$$
4bkt_ligand
     RDKit          3D

 36 37  0  0  0  0  0  0  0  0999 V2000
    1.4000  -10.3720  -10.1090 C   0  0  0  0  0  0  0  0  0  0  0  0
    0.2290   -9.6860   -9.6320 N   0  0  0  0  0  0  0  0  0  0  0  0
   -1.0420  -10.1870   -9.8190 C   0  0  0  0  0  0  0  0  0  0  0  0
   -1.2660  -11.2130  -10.4550 O   0  0  0  0  0  0  0  0  0  0  0  0
   -2.1480   -9.3750   -9.1050 C   0  0  2  0  0  0  0  0  0  0  0  0
   -3.1520  -10.2680   -8.3810 C   0  0  0  0  0  0  0  0  0  0  0  0
   -4.1740  -10.5900   -9.4660 C   0  0  1  0  0  0  0  0  0  0  0  0
   -5.4080  -10.9650   -8.8800 O   0  0  0  0  0  0  0  0  0  0  0  0
   -4.2680   -9.2710  -10.2410 C   0  0  0  0  0  0  0  0  0  0  0  0
   -2.9680   -8.6340  -10.0720 N   0  0  0  0  0  0  0  0  0  0  0  0
   -2.5740   -7.4140  -10.5730 C   0  0  0  0  0  0  0  0  0  0  0  0
   -2.6860   -7.1550  -11.7760 O   0  0  0  0  0  0  0  0  0  0  0  0
   -2.0140   -6.3850   -9.6080 C   0  0  0  0  0  0  0  0  0  0  0  0
   -0.5870   -6.1490   -9.9080 C   0  0  0  0  0  0  0  0  0  0  0  0
    0.3160   -5.1660   -9.5830 C   0  0  0  0  0  0  0  0  0  0  0  0
    1.5140   -5.5730  -10.2110 C   0  0  0  0  0  0  0  0  0  0  0  0
    2.8290   -4.8950  -10.2130 C   0  0  0  0  0  0  0  0  0  0  0  0
    1.3500   -6.7280  -10.8670 N   0  0  0  0  0  0  0  0  0  0  0  0
    0.0320   -7.0900  -10.6710 O   0  0  0  0  0  0  0  0  0  0  0  0
    1.9952  -10.7207   -9.2522 H   0  0  0  0  0  0  0  0  0  0  0  0
    1.0961  -11.2349  -10.7198 H   0  0  0  0  0  0  0  0  0  0  0  0
    2.0041   -9.6850  -10.7198 H   0  0  0  0  0  0  0  0  0  0  0  0
    0.3400   -8.9140   -8.9740 H   0  0  0  0  0  0  0  0  0  0  0  0
   -1.6061   -8.7203   -8.4067 H   0  0  0  0  0  0  0  0  0  0  0  0
   -2.6694  -11.1838   -8.0089 H   0  0  0  0  0  0  0  0  0  0  0  0
   -3.5970   -9.7893   -7.4963 H   0  0  0  0  0  0  0  0  0  0  0  0
   -3.8995  -11.4349  -10.1146 H   0  0  0  0  0  0  0  0  0  0  0  0
   -5.2190  -11.3430   -8.0030 H   0  0  0  0  0  0  0  0  0  0  0  0
   -4.4680   -9.4627  -11.3055 H   0  0  0  0  0  0  0  0  0  0  0  0
   -5.0875   -8.6360   -9.8733 H   0  0  0  0  0  0  0  0  0  0  0  0
   -2.5711   -5.4424   -9.7141 H   0  0  0  0  0  0  0  0  0  0  0  0
   -2.1138   -6.7580   -8.5780 H   0  0  0  0  0  0  0  0  0  0  0  0
    0.1451   -4.2669   -8.9728 H   0  0  0  0  0  0  0  0  0  0  0  0
    3.1561   -4.7263   -9.1764 H   0  0  0  0  0  0  0  0  0  0  0  0
    3.5659   -5.5256  -10.7320 H   0  0  0  0  0  0  0  0  0  0  0  0
    2.7427   -3.9290  -10.7320 H   0  0  0  0  0  0  0  0  0  0  0  0
  1  2  1  0
  2  3  1  0
  3  4  2  0
  3  5  1  0
  5  6  1  0
  6  7  1  0
  7  8  1  0
  7  9  1  0
  9 10  1  0
 10 11  1  0
 11 12  2  0
 11 13  1  0
 13 14  1  0
 14 15  2  0
 15 16  1  0
 16 17  1  0
 16 18  2  0
 18 19  1  0
 10  5  1  0
 19 14  1  0
  1 20  1  0
  1 21  1  0
  1 22  1  0
  2 23  1  0
  5 24  1  1
  6 25  1  0
  6 26  1  0
  7 27  1  6
  8 28  1  0
  9 29  1  0
  9 30  1  0
 13 31  1  0
 13 32  1  0
 15 33  1  0
 17 34  1  0
 17 35  1  0
 17 36  1  0
M  END
>  <meeko>  (9) 
{"is_sidechain": [false], "free_energy": -5.678, "intermolecular_energy": -6.991, "internal_energy": -0.743}

$$$$
