
     RDKit          3D

 20 22  0  0  0  0  0  0  0  0999 V2000
   -2.5890  -15.3090   -0.8100 C   0  0  0  0  0  0  0  0  0  0  0  0
   -1.5070  -13.9280   -0.5690 S   0  0  0  0  0  0  0  0  0  0  0  0
   -0.3810  -14.4850    0.6240 C   0  0  0  0  0  0  0  0  0  0  0  0
   -0.3430  -13.7090    1.9620 C   0  0  1  0  0  0  0  0  0  0  0  0
    0.8390  -14.2720    2.7830 C   0  0  0  0  0  0  0  0  0  0  0  0
    1.7340  -13.1310    3.0220 N   0  0  0  0  0  0  0  0  0  0  0  0
    3.1410  -13.3710    3.2220 C   0  0  0  0  0  0  0  0  0  0  0  0
    3.8420  -14.3560    2.3140 C   0  0  0  0  0  0  0  0  0  0  0  0
    4.1230  -15.6690    2.5730 C   0  0  0  0  0  0  0  0  0  0  0  0
    4.8020  -16.2100    1.5490 N   0  0  0  0  0  0  0  0  0  0  0  0
    4.9720  -15.2610    0.6060 C   0  0  0  0  0  0  0  0  0  0  0  0
    5.6120  -15.2460   -0.6620 C   0  0  0  0  0  0  0  0  0  0  0  0
    6.2140  -16.3600   -1.1540 N   0  0  0  0  0  0  0  0  0  0  0  0
    5.6190  -14.1010   -1.3740 N   0  0  0  0  0  0  0  0  0  0  0  0
    5.0320  -13.0020   -0.8810 C   0  0  0  0  0  0  0  0  0  0  0  0
    4.3990  -12.9540    0.2940 N   0  0  0  0  0  0  0  0  0  0  0  0
    4.3790  -14.0780    1.0440 C   0  0  0  0  0  0  0  0  0  0  0  0
    1.4920  -12.1580    1.9400 C   0  0  0  0  0  0  0  0  0  0  0  0
   -0.0360  -12.2330    1.8010 C   0  0  2  0  0  0  0  0  0  0  0  0
   -0.6330  -11.4960    2.8780 O   0  0  0  0  0  0  0  0  0  0  0  0
  2  1  1  0
  3  2  1  0
  4  3  1  6
  5  4  1  0
  6  5  1  0
  7  6  1  0
  8  7  1  0
  9  8  2  0
 10  9  1  0
 11 10  1  0
 12 11  2  0
 13 12  1  0
 14 12  1  0
 15 14  2  0
 16 15  1  0
 17 16  2  0
 17 11  1  0
 17  8  1  0
 18  6  1  0
 19 18  1  0
 19  4  1  0
 19 20  1  1
M  CHG  1   6   1
M  END
$$$$
