3b27_ligand
     RDKit          3D

 25 26  0  0  0  0  0  0  0  0999 V2000
   -5.3890    4.5140   -3.2500 C   0  0  0  0  0  0  0  0  0  0  0  0
   -5.2390    6.2600   -2.8000 S   0  0  0  0  0  0  0  0  0  0  0  0
   -3.8090    6.1960   -1.7430 C   0  0  0  0  0  0  0  0  0  0  0  0
   -3.5310    7.2440   -0.9740 N   0  0  0  0  0  0  0  0  0  0  0  0
   -2.4440    7.1190   -0.2330 C   0  0  0  0  0  0  0  0  0  0  0  0
   -2.1040    8.1760    0.5860 N   0  0  0  0  0  0  0  0  0  0  0  0
   -1.6710    6.0480   -0.1920 N   0  0  0  0  0  0  0  0  0  0  0  0
   -2.0530    5.0420   -0.9740 C   0  0  0  0  0  0  0  0  0  0  0  0
   -1.2190    3.8330   -1.0020 C   0  0  0  0  0  0  0  0  0  0  0  0
    0.1860    3.9660   -0.9570 C   0  0  0  0  0  0  0  0  0  0  0  0
    1.0300    2.8520   -0.9640 C   0  0  0  0  0  0  0  0  0  0  0  0
    0.4890    1.5730   -1.0220 C   0  0  0  0  0  0  0  0  0  0  0  0
   -0.8940    1.4110   -1.0820 C   0  0  0  0  0  0  0  0  0  0  0  0
   -1.7430    2.5290   -1.0760 C   0  0  0  0  0  0  0  0  0  0  0  0
   -3.4400    2.2070   -1.2230 Cl  0  0  0  0  0  0  0  0  0  0  0  0
   -3.1050    5.0700   -1.7880 N   0  0  0  0  0  0  0  0  0  0  0  0
   -5.4415    3.9032   -2.3367 H   0  0  0  0  0  0  0  0  0  0  0  0
   -6.3032    4.3655   -3.8434 H   0  0  0  0  0  0  0  0  0  0  0  0
   -4.5135    4.2118   -3.8434 H   0  0  0  0  0  0  0  0  0  0  0  0
   -1.1430    8.0850    0.8910 H   0  0  0  0  0  0  0  0  0  0  0  0
   -2.8030    8.3160    1.3000 H   0  0  0  0  0  0  0  0  0  0  0  0
    0.6278    4.9725   -0.9154 H   0  0  0  0  0  0  0  0  0  0  0  0
    2.1209    2.9873   -0.9237 H   0  0  0  0  0  0  0  0  0  0  0  0
    1.1491    0.6930   -1.0206 H   0  0  0  0  0  0  0  0  0  0  0  0
   -1.3234    0.3996   -1.1344 H   0  0  0  0  0  0  0  0  0  0  0  0
  1  2  1  0
  2  3  1  0
  3  4  2  0
  4  5  1  0
  5  6  1  0
  5  7  2  0
  7  8  1  0
  8  9  1  0
  9 10  2  0
 10 11  1  0
 11 12  2  0
 12 13  1  0
 13 14  2  0
 14 15  1  0
  8 16  2  0
 16  3  1  0
 14  9  1  0
  1 17  1  0
  1 18  1  0
  1 19  1  0
  6 20  1  0
  6 21  1  0
 10 22  1  0
 11 23  1  0
 12 24  1  0
 13 25  1  0
M  END
>  <meeko>  (1) 
{"is_sidechain": [false], "free_energy": -6.909, "intermolecular_energy": -7.919, "internal_energy": 0.06}

$$$$
3b27_ligand
     RDKit          3D

 25 26  0  0  0  0  0  0  0  0999 V2000
   -3.6370    8.1380   -1.3510 C   0  0  0  0  0  0  0  0  0  0  0  0
   -2.6760    7.4640    0.0250 S   0  0  0  0  0  0  0  0  0  0  0  0
   -1.9450    6.0440   -0.7600 C   0  0  0  0  0  0  0  0  0  0  0  0
   -0.7520    5.6260   -0.3500 N   0  0  0  0  0  0  0  0  0  0  0  0
   -0.2770    4.5760   -0.9970 C   0  0  0  0  0  0  0  0  0  0  0  0
    0.9590    4.0970   -0.6150 N   0  0  0  0  0  0  0  0  0  0  0  0
   -0.9060    3.9290   -1.9610 N   0  0  0  0  0  0  0  0  0  0  0  0
   -2.1070    4.4070   -2.2770 C   0  0  0  0  0  0  0  0  0  0  0  0
   -2.8460    3.7550   -3.3650 C   0  0  0  0  0  0  0  0  0  0  0  0
   -3.5020    2.5290   -3.1140 C   0  0  0  0  0  0  0  0  0  0  0  0
   -4.2340    1.8700   -4.1050 C   0  0  0  0  0  0  0  0  0  0  0  0
   -4.3250    2.4190   -5.3790 C   0  0  0  0  0  0  0  0  0  0  0  0
   -3.6770    3.6210   -5.6610 C   0  0  0  0  0  0  0  0  0  0  0  0
   -2.9410    4.2830   -4.6670 C   0  0  0  0  0  0  0  0  0  0  0  0
   -2.1220    5.7320   -5.1520 Cl  0  0  0  0  0  0  0  0  0  0  0  0
   -2.6680    5.4780   -1.7210 N   0  0  0  0  0  0  0  0  0  0  0  0
   -4.4778    8.7277   -0.9569 H   0  0  0  0  0  0  0  0  0  0  0  0
   -2.9931    8.7834   -1.9665 H   0  0  0  0  0  0  0  0  0  0  0  0
   -4.0246    7.3128   -1.9665 H   0  0  0  0  0  0  0  0  0  0  0  0
    0.8590    3.1960   -0.1640 H   0  0  0  0  0  0  0  0  0  0  0  0
    1.4820    4.8040   -0.1210 H   0  0  0  0  0  0  0  0  0  0  0  0
   -3.4346    2.0813   -2.1115 H   0  0  0  0  0  0  0  0  0  0  0  0
   -4.7373    0.9187   -3.8776 H   0  0  0  0  0  0  0  0  0  0  0  0
   -4.9055    1.9075   -6.1609 H   0  0  0  0  0  0  0  0  0  0  0  0
   -3.7434    4.0533   -6.6703 H   0  0  0  0  0  0  0  0  0  0  0  0
  1  2  1  0
  2  3  1  0
  3  4  2  0
  4  5  1  0
  5  6  1  0
  5  7  2  0
  7  8  1  0
  8  9  1  0
  9 10  2  0
 10 11  1  0
 11 12  2  0
 12 13  1  0
 13 14  2  0
 14 15  1  0
  8 16  2  0
 16  3  1  0
 14  9  1  0
  1 17  1  0
  1 18  1  0
  1 19  1  0
  6 20  1  0
  6 21  1  0
 10 22  1  0
 11 23  1  0
 12 24  1  0
 13 25  1  0
M  END
>  <meeko>  (2) 
{"is_sidechain": [false], "free_energy": -6.528, "intermolecular_energy": -7.148, "internal_energy": -0.273}

$$$$
3b27_ligand
     RDKit          3D

 25 26  0  0  0  0  0  0  0  0999 V2000
    0.6890    1.8430   -1.2590 C   0  0  0  0  0  0  0  0  0  0  0  0
    0.7720    3.3160   -0.2120 S   0  0  0  0  0  0  0  0  0  0  0  0
   -0.6840    4.1790   -0.7600 C   0  0  0  0  0  0  0  0  0  0  0  0
   -1.1020    5.2360   -0.0700 N   0  0  0  0  0  0  0  0  0  0  0  0
   -2.1980    5.8080   -0.5370 C   0  0  0  0  0  0  0  0  0  0  0  0
   -2.6800    6.9110    0.1380 N   0  0  0  0  0  0  0  0  0  0  0  0
   -2.8540    5.4250   -1.6170 N   0  0  0  0  0  0  0  0  0  0  0  0
   -2.3380    4.3770   -2.2550 C   0  0  0  0  0  0  0  0  0  0  0  0
   -3.0380    3.8780   -3.4450 C   0  0  0  0  0  0  0  0  0  0  0  0
   -3.8430    2.7230   -3.3360 C   0  0  0  0  0  0  0  0  0  0  0  0
   -4.5460    2.2110   -4.4300 C   0  0  0  0  0  0  0  0  0  0  0  0
   -4.4560    2.8400   -5.6670 C   0  0  0  0  0  0  0  0  0  0  0  0
   -3.6580    3.9730   -5.8080 C   0  0  0  0  0  0  0  0  0  0  0  0
   -2.9510    4.4880   -4.7110 C   0  0  0  0  0  0  0  0  0  0  0  0
   -1.9380    5.8600   -5.0230 Cl  0  0  0  0  0  0  0  0  0  0  0  0
   -1.2640    3.7010   -1.8560 N   0  0  0  0  0  0  0  0  0  0  0  0
    0.6384    0.9452   -0.6254 H   0  0  0  0  0  0  0  0  0  0  0  0
   -0.2077    1.8946   -1.8941 H   0  0  0  0  0  0  0  0  0  0  0  0
    1.5858    1.7936   -1.8941 H   0  0  0  0  0  0  0  0  0  0  0  0
   -2.4960    6.8210    1.1290 H   0  0  0  0  0  0  0  0  0  0  0  0
   -3.6290    7.1150   -0.1390 H   0  0  0  0  0  0  0  0  0  0  0  0
   -3.9188    2.2128   -2.3644 H   0  0  0  0  0  0  0  0  0  0  0  0
   -5.1693    1.3122   -4.3128 H   0  0  0  0  0  0  0  0  0  0  0  0
   -5.0122    2.4448   -6.5298 H   0  0  0  0  0  0  0  0  0  0  0  0
   -3.5815    4.4680   -6.7874 H   0  0  0  0  0  0  0  0  0  0  0  0
  1  2  1  0
  2  3  1  0
  3  4  2  0
  4  5  1  0
  5  6  1  0
  5  7  2  0
  7  8  1  0
  8  9  1  0
  9 10  2  0
 10 11  1  0
 11 12  2  0
 12 13  1  0
 13 14  2  0
 14 15  1  0
  8 16  2  0
 16  3  1  0
 14  9  1  0
  1 17  1  0
  1 18  1  0
  1 19  1  0
  6 20  1  0
  6 21  1  0
 10 22  1  0
 11 23  1  0
 12 24  1  0
 13 25  1  0
M  END
>  <meeko>  (3) 
{"is_sidechain": [false], "free_energy": -6.437, "intermolecular_energy": -7.03, "internal_energy": -0.288}

$$$$
3b27_ligand
     RDKit          3D

 25 26  0  0  0  0  0  0  0  0999 V2000
   -0.0040    1.9200   -1.2200 C   0  0  0  0  0  0  0  0  0  0  0  0
    0.3360    3.3650   -0.1860 S   0  0  0  0  0  0  0  0  0  0  0  0
   -0.8490    4.5170   -0.8450 C   0  0  0  0  0  0  0  0  0  0  0  0
   -1.3420    5.4590   -0.0470 N   0  0  0  0  0  0  0  0  0  0  0  0
   -2.2260    6.2610   -0.6130 C   0  0  0  0  0  0  0  0  0  0  0  0
   -2.7730    7.2600    0.1670 N   0  0  0  0  0  0  0  0  0  0  0  0
   -2.6080    6.2020   -1.8760 N   0  0  0  0  0  0  0  0  0  0  0  0
   -2.0340    5.2440   -2.5990 C   0  0  0  0  0  0  0  0  0  0  0  0
   -2.4380    5.1010   -4.0030 C   0  0  0  0  0  0  0  0  0  0  0  0
   -2.0680    6.0990   -4.9310 C   0  0  0  0  0  0  0  0  0  0  0  0
   -2.4110    6.0090   -6.2830 C   0  0  0  0  0  0  0  0  0  0  0  0
   -3.1390    4.9170   -6.7420 C   0  0  0  0  0  0  0  0  0  0  0  0
   -3.5300    3.9230   -5.8470 C   0  0  0  0  0  0  0  0  0  0  0  0
   -3.1880    4.0130   -4.4890 C   0  0  0  0  0  0  0  0  0  0  0  0
   -3.7880    2.7530   -3.4600 Cl  0  0  0  0  0  0  0  0  0  0  0  0
   -1.1610    4.3580   -2.1270 N   0  0  0  0  0  0  0  0  0  0  0  0
   -0.2087    1.0501   -0.5786 H   0  0  0  0  0  0  0  0  0  0  0  0
   -0.8793    2.1213   -1.8551 H   0  0  0  0  0  0  0  0  0  0  0  0
    0.8692    1.7099   -1.8551 H   0  0  0  0  0  0  0  0  0  0  0  0
   -3.3740    7.8500   -0.3950 H   0  0  0  0  0  0  0  0  0  0  0  0
   -2.0610    7.7170    0.7170 H   0  0  0  0  0  0  0  0  0  0  0  0
   -1.4948    6.9701   -4.5807 H   0  0  0  0  0  0  0  0  0  0  0  0
   -2.1055    6.8008   -6.9827 H   0  0  0  0  0  0  0  0  0  0  0  0
   -3.4050    4.8381   -7.8064 H   0  0  0  0  0  0  0  0  0  0  0  0
   -4.1110    3.0614   -6.2077 H   0  0  0  0  0  0  0  0  0  0  0  0
  1  2  1  0
  2  3  1  0
  3  4  2  0
  4  5  1  0
  5  6  1  0
  5  7  2  0
  7  8  1  0
  8  9  1  0
  9 10  2  0
 10 11  1  0
 11 12  2  0
 12 13  1  0
 13 14  2  0
 14 15  1  0
  8 16  2  0
 16  3  1  0
 14  9  1  0
  1 17  1  0
  1 18  1  0
  1 19  1  0
  6 20  1  0
  6 21  1  0
 10 22  1  0
 11 23  1  0
 12 24  1  0
 13 25  1  0
M  END
>  <meeko>  (4) 
{"is_sidechain": [false], "free_energy": -6.27, "intermolecular_energy": -6.896, "internal_energy": -0.23}

$$$$
3b27_ligand
     RDKit          3D

 25 26  0  0  0  0  0  0  0  0999 V2000
   -5.6150    3.2790   -4.1780 C   0  0  0  0  0  0  0  0  0  0  0  0
   -5.5920    5.0870   -4.2140 S   0  0  0  0  0  0  0  0  0  0  0  0
   -4.3840    5.4160   -2.9500 C   0  0  0  0  0  0  0  0  0  0  0  0
   -4.4520    6.5610   -2.2780 N   0  0  0  0  0  0  0  0  0  0  0  0
   -3.5080    6.7310   -1.3690 C   0  0  0  0  0  0  0  0  0  0  0  0
   -3.5280    7.9020   -0.6390 N   0  0  0  0  0  0  0  0  0  0  0  0
   -2.5620    5.8550   -1.0820 N   0  0  0  0  0  0  0  0  0  0  0  0
   -2.5990    4.7270   -1.7880 C   0  0  0  0  0  0  0  0  0  0  0  0
   -1.5560    3.7240   -1.5440 C   0  0  0  0  0  0  0  0  0  0  0  0
   -1.8520    2.3580   -1.7490 C   0  0  0  0  0  0  0  0  0  0  0  0
   -0.8960    1.3600   -1.5480 C   0  0  0  0  0  0  0  0  0  0  0  0
    0.3850    1.7010   -1.1300 C   0  0  0  0  0  0  0  0  0  0  0  0
    0.7030    3.0400   -0.9050 C   0  0  0  0  0  0  0  0  0  0  0  0
   -0.2560    4.0430   -1.1050 C   0  0  0  0  0  0  0  0  0  0  0  0
    0.2340    5.6630   -0.7280 Cl  0  0  0  0  0  0  0  0  0  0  0  0
   -3.4780    4.4640   -2.7520 N   0  0  0  0  0  0  0  0  0  0  0  0
   -5.6194    2.9331   -3.1338 H   0  0  0  0  0  0  0  0  0  0  0  0
   -6.5179    2.9135   -4.6891 H   0  0  0  0  0  0  0  0  0  0  0  0
   -4.7217    2.8907   -4.6891 H   0  0  0  0  0  0  0  0  0  0  0  0
   -4.3710    7.9510   -0.0820 H   0  0  0  0  0  0  0  0  0  0  0  0
   -3.3170    8.6950   -1.2260 H   0  0  0  0  0  0  0  0  0  0  0  0
   -2.8628    2.0727   -2.0758 H   0  0  0  0  0  0  0  0  0  0  0  0
   -1.1565    0.3053   -1.7203 H   0  0  0  0  0  0  0  0  0  0  0  0
    1.1436    0.9191   -0.9776 H   0  0  0  0  0  0  0  0  0  0  0  0
    1.7143    3.3114   -0.5679 H   0  0  0  0  0  0  0  0  0  0  0  0
  1  2  1  0
  2  3  1  0
  3  4  2  0
  4  5  1  0
  5  6  1  0
  5  7  2  0
  7  8  1  0
  8  9  1  0
  9 10  2  0
 10 11  1  0
 11 12  2  0
 12 13  1  0
 13 14  2  0
 14 15  1  0
  8 16  2  0
 16  3  1  0
 14  9  1  0
  1 17  1  0
  1 18  1  0
  1 19  1  0
  6 20  1  0
  6 21  1  0
 10 22  1  0
 11 23  1  0
 12 24  1  0
 13 25  1  0
M  END
>  <meeko>  (5) 
{"is_sidechain": [false], "free_energy": -6.19, "intermolecular_energy": -7.252, "internal_energy": 0.217}

$$$$
3b27_ligand
     RDKit          3D

 25 26  0  0  0  0  0  0  0  0999 V2000
   -6.3670    6.6470   -5.5300 C   0  0  0  0  0  0  0  0  0  0  0  0
   -5.8140    5.1100   -4.7530 S   0  0  0  0  0  0  0  0  0  0  0  0
   -4.8590    5.7610   -3.4000 C   0  0  0  0  0  0  0  0  0  0  0  0
   -5.1770    6.9540   -2.9050 N   0  0  0  0  0  0  0  0  0  0  0  0
   -4.4080    7.3680   -1.9140 C   0  0  0  0  0  0  0  0  0  0  0  0
   -4.6890    8.6000   -1.3590 N   0  0  0  0  0  0  0  0  0  0  0  0
   -3.4080    6.6830   -1.3900 N   0  0  0  0  0  0  0  0  0  0  0  0
   -3.1910    5.4880   -1.9340 C   0  0  0  0  0  0  0  0  0  0  0  0
   -2.0720    4.6870   -1.4210 C   0  0  0  0  0  0  0  0  0  0  0  0
   -0.7980    5.2840   -1.3000 C   0  0  0  0  0  0  0  0  0  0  0  0
    0.3010    4.5770   -0.8030 C   0  0  0  0  0  0  0  0  0  0  0  0
    0.1540    3.2490   -0.4190 C   0  0  0  0  0  0  0  0  0  0  0  0
   -1.0880    2.6290   -0.5400 C   0  0  0  0  0  0  0  0  0  0  0  0
   -2.1920    3.3370   -1.0400 C   0  0  0  0  0  0  0  0  0  0  0  0
   -3.6670    2.4430   -1.2100 Cl  0  0  0  0  0  0  0  0  0  0  0  0
   -3.8750    4.9850   -2.9580 N   0  0  0  0  0  0  0  0  0  0  0  0
   -6.6299    7.3777   -4.7510 H   0  0  0  0  0  0  0  0  0  0  0  0
   -5.5586    7.0530   -6.1558 H   0  0  0  0  0  0  0  0  0  0  0  0
   -7.2488    6.4449   -6.1558 H   0  0  0  0  0  0  0  0  0  0  0  0
   -5.6670    8.6510   -1.1020 H   0  0  0  0  0  0  0  0  0  0  0  0
   -4.3240    9.3440   -1.9350 H   0  0  0  0  0  0  0  0  0  0  0  0
   -0.6668    6.3328   -1.6048 H   0  0  0  0  0  0  0  0  0  0  0  0
    1.2802    5.0706   -0.7160 H   0  0  0  0  0  0  0  0  0  0  0  0
    1.0141    2.6903   -0.0215 H   0  0  0  0  0  0  0  0  0  0  0  0
   -1.2041    1.5767   -0.2414 H   0  0  0  0  0  0  0  0  0  0  0  0
  1  2  1  0
  2  3  1  0
  3  4  2  0
  4  5  1  0
  5  6  1  0
  5  7  2  0
  7  8  1  0
  8  9  1  0
  9 10  2  0
 10 11  1  0
 11 12  2  0
 12 13  1  0
 13 14  2  0
 14 15  1  0
  8 16  2  0
 16  3  1  0
 14  9  1  0
  1 17  1  0
  1 18  1  0
  1 19  1  0
  6 20  1  0
  6 21  1  0
 10 22  1  0
 11 23  1  0
 12 24  1  0
 13 25  1  0
M  END
>  <meeko>  (6) 
{"is_sidechain": [false], "free_energy": -6.015, "intermolecular_energy": -6.792, "internal_energy": -0.042}

$$$$
3b27_ligand
     RDKit          3D

 25 26  0  0  0  0  0  0  0  0999 V2000
   -3.6470    2.5090  -10.8120 C   0  0  0  0  0  0  0  0  0  0  0  0
   -2.6270    2.2090   -9.3480 S   0  0  0  0  0  0  0  0  0  0  0  0
   -3.8920    1.8800   -8.1400 C   0  0  0  0  0  0  0  0  0  0  0  0
   -4.9230    1.1150   -8.4820 N   0  0  0  0  0  0  0  0  0  0  0  0
   -5.8230    0.9350   -7.5310 C   0  0  0  0  0  0  0  0  0  0  0  0
   -6.9170    0.1490   -7.8280 N   0  0  0  0  0  0  0  0  0  0  0  0
   -5.7430    1.4240   -6.3070 N   0  0  0  0  0  0  0  0  0  0  0  0
   -4.6570    2.1510   -6.0550 C   0  0  0  0  0  0  0  0  0  0  0  0
   -4.5220    2.7530   -4.7220 C   0  0  0  0  0  0  0  0  0  0  0  0
   -3.6860    2.1330   -3.7690 C   0  0  0  0  0  0  0  0  0  0  0  0
   -3.5050    2.6680   -2.4900 C   0  0  0  0  0  0  0  0  0  0  0  0
   -4.1630    3.8390   -2.1300 C   0  0  0  0  0  0  0  0  0  0  0  0
   -5.0060    4.4660   -3.0460 C   0  0  0  0  0  0  0  0  0  0  0  0
   -5.1890    3.9290   -4.3290 C   0  0  0  0  0  0  0  0  0  0  0  0
   -6.3130    4.7570   -5.3570 Cl  0  0  0  0  0  0  0  0  0  0  0  0
   -3.7070    2.4290   -6.9440 N   0  0  0  0  0  0  0  0  0  0  0  0
   -4.6588    2.8066  -10.4993 H   0  0  0  0  0  0  0  0  0  0  0  0
   -3.1978    3.3131  -11.4134 H   0  0  0  0  0  0  0  0  0  0  0  0
   -3.7046    1.5898  -11.4134 H   0  0  0  0  0  0  0  0  0  0  0  0
   -7.1510   -0.4360   -7.0350 H   0  0  0  0  0  0  0  0  0  0  0  0
   -6.8000   -0.3090   -8.7200 H   0  0  0  0  0  0  0  0  0  0  0  0
   -3.1628    1.2040   -4.0396 H   0  0  0  0  0  0  0  0  0  0  0  0
   -2.8436    2.1637   -1.7701 H   0  0  0  0  0  0  0  0  0  0  0  0
   -4.0190    4.2683   -1.1275 H   0  0  0  0  0  0  0  0  0  0  0  0
   -5.5319    5.3891   -2.7606 H   0  0  0  0  0  0  0  0  0  0  0  0
  1  2  1  0
  2  3  1  0
  3  4  2  0
  4  5  1  0
  5  6  1  0
  5  7  2  0
  7  8  1  0
  8  9  1  0
  9 10  2  0
 10 11  1  0
 11 12  2  0
 12 13  1  0
 13 14  2  0
 14 15  1  0
  8 16  2  0
 16  3  1  0
 14  9  1  0
  1 17  1  0
  1 18  1  0
  1 19  1  0
  6 20  1  0
  6 21  1  0
 10 22  1  0
 11 23  1  0
 12 24  1  0
 13 25  1  0
M  END
>  <meeko>  (7) 
{"is_sidechain": [false], "free_energy": -6.014, "intermolecular_energy": -6.569, "internal_energy": -0.264}

$$$$
3b27_ligand
     RDKit          3D

 25 26  0  0  0  0  0  0  0  0999 V2000
   -1.6720    5.0910   -1.9230 C   0  0  0  0  0  0  0  0  0  0  0  0
   -3.4390    4.9690   -2.2920 S   0  0  0  0  0  0  0  0  0  0  0  0
   -3.3770    4.6040   -4.0320 C   0  0  0  0  0  0  0  0  0  0  0  0
   -2.5240    5.2750   -4.7990 N   0  0  0  0  0  0  0  0  0  0  0  0
   -2.5540    4.9520   -6.0800 C   0  0  0  0  0  0  0  0  0  0  0  0
   -1.6900    5.6160   -6.9270 N   0  0  0  0  0  0  0  0  0  0  0  0
   -3.3270    4.0220   -6.6120 N   0  0  0  0  0  0  0  0  0  0  0  0
   -4.1220    3.3860   -5.7550 C   0  0  0  0  0  0  0  0  0  0  0  0
   -5.0320    2.3630   -6.2860 C   0  0  0  0  0  0  0  0  0  0  0  0
   -4.5250    1.0780   -6.5810 C   0  0  0  0  0  0  0  0  0  0  0  0
   -5.3460    0.0590   -7.0730 C   0  0  0  0  0  0  0  0  0  0  0  0
   -6.6980    0.3010   -7.2870 C   0  0  0  0  0  0  0  0  0  0  0  0
   -7.2240    1.5640   -7.0170 C   0  0  0  0  0  0  0  0  0  0  0  0
   -6.4010    2.5880   -6.5250 C   0  0  0  0  0  0  0  0  0  0  0  0
   -7.1520    4.1330   -6.2930 Cl  0  0  0  0  0  0  0  0  0  0  0  0
   -4.2030    3.6530   -4.4540 N   0  0  0  0  0  0  0  0  0  0  0  0
   -1.5249    5.1012   -0.8329 H   0  0  0  0  0  0  0  0  0  0  0  0
   -1.1465    4.2270   -2.3559 H   0  0  0  0  0  0  0  0  0  0  0  0
   -1.2702    6.0190   -2.3559 H   0  0  0  0  0  0  0  0  0  0  0  0
   -1.2760    6.4070   -6.4510 H   0  0  0  0  0  0  0  0  0  0  0  0
   -2.1260    5.7910   -7.8200 H   0  0  0  0  0  0  0  0  0  0  0  0
   -3.4563    0.8738   -6.4194 H   0  0  0  0  0  0  0  0  0  0  0  0
   -4.9228   -0.9328   -7.2904 H   0  0  0  0  0  0  0  0  0  0  0  0
   -7.3495   -0.4995   -7.6673 H   0  0  0  0  0  0  0  0  0  0  0  0
   -8.2925    1.7588   -7.1912 H   0  0  0  0  0  0  0  0  0  0  0  0
  1  2  1  0
  2  3  1  0
  3  4  2  0
  4  5  1  0
  5  6  1  0
  5  7  2  0
  7  8  1  0
  8  9  1  0
  9 10  2  0
 10 11  1  0
 11 12  2  0
 12 13  1  0
 13 14  2  0
 14 15  1  0
  8 16  2  0
 16  3  1  0
 14  9  1  0
  1 17  1  0
  1 18  1  0
  1 19  1  0
  6 20  1  0
  6 21  1  0
 10 22  1  0
 11 23  1  0
 12 24  1  0
 13 25  1  0
M  END
>  <meeko>  (8) 
{"is_sidechain": [false], "free_energy": -5.93, "intermolecular_energy": -6.474, "internal_energy": -0.263}

$$$$
3b27_ligand
     RDKit          3D

 25 26  0  0  0  0  0  0  0  0999 V2000
   -2.2000    5.8290   -6.5620 C   0  0  0  0  0  0  0  0  0  0  0  0
   -3.4120    4.7510   -7.3620 S   0  0  0  0  0  0  0  0  0  0  0  0
   -3.8760    3.7180   -5.9900 C   0  0  0  0  0  0  0  0  0  0  0  0
   -4.8810    2.8610   -6.1420 N   0  0  0  0  0  0  0  0  0  0  0  0
   -5.1690    2.1440   -5.0700 C   0  0  0  0  0  0  0  0  0  0  0  0
   -6.2040    1.2370   -5.1670 N   0  0  0  0  0  0  0  0  0  0  0  0
   -4.5250    2.2060   -3.9180 N   0  0  0  0  0  0  0  0  0  0  0  0
   -3.5150    3.0720   -3.8780 C   0  0  0  0  0  0  0  0  0  0  0  0
   -2.7770    3.2160   -2.6170 C   0  0  0  0  0  0  0  0  0  0  0  0
   -2.0390    2.1180   -2.1220 C   0  0  0  0  0  0  0  0  0  0  0  0
   -1.3050    2.2000   -0.9360 C   0  0  0  0  0  0  0  0  0  0  0  0
   -1.2940    3.3850   -0.2080 C   0  0  0  0  0  0  0  0  0  0  0  0
   -2.0250    4.4810   -0.6640 C   0  0  0  0  0  0  0  0  0  0  0  0
   -2.7630    4.3990   -1.8540 C   0  0  0  0  0  0  0  0  0  0  0  0
   -3.6870    5.8020   -2.2840 Cl  0  0  0  0  0  0  0  0  0  0  0  0
   -3.1600    3.8710   -4.8810 N   0  0  0  0  0  0  0  0  0  0  0  0
   -2.2971    5.7427   -5.4697 H   0  0  0  0  0  0  0  0  0  0  0  0
   -1.1860    5.5289   -6.8649 H   0  0  0  0  0  0  0  0  0  0  0  0
   -2.3798    6.8711   -6.8649 H   0  0  0  0  0  0  0  0  0  0  0  0
   -6.6450    1.3070   -6.0750 H   0  0  0  0  0  0  0  0  0  0  0  0
   -6.8050    1.2900   -4.3580 H   0  0  0  0  0  0  0  0  0  0  0  0
   -2.0423    1.1732   -2.6853 H   0  0  0  0  0  0  0  0  0  0  0  0
   -0.7367    1.3286   -0.5786 H   0  0  0  0  0  0  0  0  0  0  0  0
   -0.7117    3.4570    0.7225 H   0  0  0  0  0  0  0  0  0  0  0  0
   -2.0230    5.4171   -0.0863 H   0  0  0  0  0  0  0  0  0  0  0  0
  1  2  1  0
  2  3  1  0
  3  4  2  0
  4  5  1  0
  5  6  1  0
  5  7  2  0
  7  8  1  0
  8  9  1  0
  9 10  2  0
 10 11  1  0
 11 12  2  0
 12 13  1  0
 13 14  2  0
 14 15  1  0
  8 16  2  0
 16  3  1  0
 14  9  1  0
  1 17  1  0
  1 18  1  0
  1 19  1  0
  6 20  1  0
  6 21  1  0
 10 22  1  0
 11 23  1  0
 12 24  1  0
 13 25  1  0
M  END
>  <meeko>  (9) 
{"is_sidechain": [false], "free_energy": -5.915, "intermolecular_energy": -6.526, "internal_energy": -0.194}

$$$$
