
     RDKit          3D

 28 31  0  0  0  0  0  0  0  0999 V2000
    7.4420    1.9360   -4.1960 C   0  0  0  0  0  0  0  0  0  0  0  0
    8.8650    2.3880   -4.4750 C   0  0  2  0  0  0  0  0  0  0  0  0
    8.8840    3.8480   -4.6010 N   0  0  0  0  0  0  0  0  0  0  0  0
   10.2390    4.3360   -4.8530 C   0  0  2  0  0  0  0  0  0  0  0  0
   10.2290    5.8450   -4.8150 C   0  0  0  0  0  0  0  0  0  0  0  0
    9.9890    6.2370   -3.4170 N   0  0  0  0  0  0  0  0  0  0  0  0
   10.5150    7.3350   -2.8970 C   0  0  0  0  0  0  0  0  0  0  0  0
   11.2170    8.1030   -3.5600 O   0  0  0  0  0  0  0  0  0  0  0  0
   10.1870    7.5860   -1.4780 C   0  0  0  0  0  0  0  0  0  0  0  0
   10.5500    6.6540   -0.5250 C   0  0  0  0  0  0  0  0  0  0  0  0
   10.2510    6.8640    0.8250 C   0  0  0  0  0  0  0  0  0  0  0  0
    9.5710    8.0230    1.2410 C   0  0  0  0  0  0  0  0  0  0  0  0
    9.1960    8.9380    0.2520 C   0  0  0  0  0  0  0  0  0  0  0  0
    9.4990    8.7160   -1.0800 C   0  0  0  0  0  0  0  0  0  0  0  0
    8.9770    9.8460   -1.8260 C   0  0  0  0  0  0  0  0  0  0  0  0
    9.0470   10.0250   -3.0370 O   0  0  0  0  0  0  0  0  0  0  0  0
    8.3530   10.7700   -0.8720 C   0  0  0  0  0  0  0  0  0  0  0  0
    7.7130   11.9990   -1.0680 C   0  0  0  0  0  0  0  0  0  0  0  0
    7.2030   12.6550    0.0760 C   0  0  0  0  0  0  0  0  0  0  0  0
    7.3360   12.0840    1.3280 C   0  0  0  0  0  0  0  0  0  0  0  0
    7.9790   10.8610    1.4920 C   0  0  0  0  0  0  0  0  0  0  0  0
    8.4820   10.2140    0.3770 C   0  0  0  0  0  0  0  0  0  0  0  0
   10.7530    3.7850   -6.1880 C   0  0  1  0  0  0  0  0  0  0  0  0
   12.0460    4.3140   -6.4740 O   0  0  0  0  0  0  0  0  0  0  0  0
   10.8100    2.2770   -6.0190 C   0  0  2  0  0  0  0  0  0  0  0  0
   11.3330    1.6870   -7.2140 O   0  0  0  0  0  0  0  0  0  0  0  0
    9.4240    1.7200   -5.7270 C   0  0  2  0  0  0  0  0  0  0  0  0
    8.5750    1.9660   -6.8430 O   0  0  0  0  0  0  0  0  0  0  0  0
  2  1  1  6
  3  2  1  0
  4  3  1  0
  4  5  1  6
  6  5  1  0
  7  6  1  0
  8  7  2  0
  9  7  1  0
 10  9  2  0
 11 10  1  0
 12 11  2  0
 13 12  1  0
 14 13  2  0
 14  9  1  0
 15 14  1  0
 16 15  2  0
 17 15  1  0
 18 17  2  0
 19 18  1  0
 20 19  2  0
 21 20  1  0
 22 21  2  0
 22 17  1  0
 22 13  1  0
 23  4  1  0
 23 24  1  1
 25 23  1  0
 25 26  1  6
 27 25  1  0
 27  2  1  0
 27 28  1  6
M  CHG  1   3   1
M  END
$$$$
