4gkm_ligand
     RDKit          3D

 31 32  0  0  0  0  0  0  0  0999 V2000
    1.6310  -18.5020  -13.5660 C   0  0  0  0  0  0  0  0  0  0  0  0
    3.0510  -18.9710  -13.4960 C   0  0  0  0  0  0  0  0  0  0  0  0
    3.9920  -18.2880  -12.7290 C   0  0  0  0  0  0  0  0  0  0  0  0
    5.3210  -18.7150  -12.7020 C   0  0  0  0  0  0  0  0  0  0  0  0
    5.7510  -19.8290  -13.4440 C   0  0  0  0  0  0  0  0  0  0  0  0
    7.1400  -20.1950  -13.4060 N   0  0  0  0  0  0  0  0  0  0  0  0
    7.9160  -20.0510  -12.2150 C   0  0  0  0  0  0  0  0  0  0  0  0
    8.6500  -18.8540  -12.0640 C   0  0  0  0  0  0  0  0  0  0  0  0
    9.5050  -18.6490  -10.9800 C   0  0  0  0  0  0  0  0  0  0  0  0
    9.6560  -19.6450  -10.0260 C   0  0  0  0  0  0  0  0  0  0  0  0
    8.9470  -20.8390  -10.1620 C   0  0  0  0  0  0  0  0  0  0  0  0
    8.0700  -21.0600  -11.2470 C   0  0  0  0  0  0  0  0  0  0  0  0
    7.3450  -22.3770  -11.2640 C   0  0  0  0  0  0  0  0  0  0  0  0
    6.0740  -22.3550  -11.3180 O   0  0  0  0  0  0  0  0  0  0  0  0
    8.0590  -23.4190  -11.0790 O   0  0  0  0  0  0  0  0  0  0  0  0
    4.8120  -20.5260  -14.2420 C   0  0  0  0  0  0  0  0  0  0  0  0
    5.1650  -21.7570  -15.0590 C   0  0  0  0  0  0  0  0  0  0  0  0
    4.4800  -21.9860  -16.1110 O   0  0  0  0  0  0  0  0  0  0  0  0
    6.1080  -22.5020  -14.6320 O   0  0  0  0  0  0  0  0  0  0  0  0
    3.4710  -20.0730  -14.2520 C   0  0  0  0  0  0  0  0  0  0  0  0
    1.2372  -18.3719  -12.5472 H   0  0  0  0  0  0  0  0  0  0  0  0
    1.5879  -17.5419  -14.1011 H   0  0  0  0  0  0  0  0  0  0  0  0
    1.0246  -19.2476  -14.1011 H   0  0  0  0  0  0  0  0  0  0  0  0
    3.6869  -17.4089  -12.1424 H   0  0  0  0  0  0  0  0  0  0  0  0
    6.0488  -18.1669  -12.0856 H   0  0  0  0  0  0  0  0  0  0  0  0
    7.1490  -21.2040  -13.6600 H   0  0  0  0  0  0  0  0  0  0  0  0
    8.5451  -18.0624  -12.8206 H   0  0  0  0  0  0  0  0  0  0  0  0
   10.0565  -17.7022  -10.8825 H   0  0  0  0  0  0  0  0  0  0  0  0
   10.3293  -19.4946   -9.1692 H   0  0  0  0  0  0  0  0  0  0  0  0
    9.0741  -21.6276   -9.4057 H   0  0  0  0  0  0  0  0  0  0  0  0
    2.7347  -20.6036  -14.8736 H   0  0  0  0  0  0  0  0  0  0  0  0
  1  2  1  0
  2  3  2  0
  3  4  1  0
  4  5  2  0
  5  6  1  0
  6  7  1  0
  7  8  2  0
  8  9  1  0
  9 10  2  0
 10 11  1  0
 11 12  2  0
 12 13  1  0
 13 14  2  0
 13 15  1  0
  5 16  1  0
 16 17  1  0
 17 18  2  0
 17 19  1  0
 16 20  2  0
 20  2  1  0
 12  7  1  0
  1 21  1  0
  1 22  1  0
  1 23  1  0
  3 24  1  0
  4 25  1  0
  6 26  1  0
  8 27  1  0
  9 28  1  0
 10 29  1  0
 11 30  1  0
 20 31  1  0
M  CHG  2  15  -1  19  -1
M  END
>  <meeko>  (1) 
{"is_sidechain": [false], "free_energy": -7.405, "intermolecular_energy": -9.136, "internal_energy": -1.06}

$$$$
4gkm_ligand
     RDKit          3D

 31 32  0  0  0  0  0  0  0  0999 V2000
    4.4160  -13.7600  -14.1670 C   0  0  0  0  0  0  0  0  0  0  0  0
    4.4510  -15.1550  -13.6260 C   0  0  0  0  0  0  0  0  0  0  0  0
    5.6350  -15.8900  -13.6200 C   0  0  0  0  0  0  0  0  0  0  0  0
    5.6450  -17.2030  -13.1450 C   0  0  0  0  0  0  0  0  0  0  0  0
    4.4760  -17.8230  -12.6700 C   0  0  0  0  0  0  0  0  0  0  0  0
    4.5440  -19.1890  -12.2310 N   0  0  0  0  0  0  0  0  0  0  0  0
    4.9450  -20.2380  -13.1160 C   0  0  0  0  0  0  0  0  0  0  0  0
    4.0610  -20.5690  -14.1660 C   0  0  0  0  0  0  0  0  0  0  0  0
    4.3170  -21.6320  -15.0340 C   0  0  0  0  0  0  0  0  0  0  0  0
    5.4610  -22.3980  -14.8620 C   0  0  0  0  0  0  0  0  0  0  0  0
    6.3430  -22.0930  -13.8250 C   0  0  0  0  0  0  0  0  0  0  0  0
    6.1040  -21.0150  -12.9430 C   0  0  0  0  0  0  0  0  0  0  0  0
    7.1440  -20.7730  -11.8840 C   0  0  0  0  0  0  0  0  0  0  0  0
    7.7290  -19.6430  -11.8720 O   0  0  0  0  0  0  0  0  0  0  0  0
    7.4610  -21.7780  -11.1630 O   0  0  0  0  0  0  0  0  0  0  0  0
    3.2610  -17.0970  -12.6820 C   0  0  0  0  0  0  0  0  0  0  0  0
    1.9480  -17.6610  -12.1660 C   0  0  0  0  0  0  0  0  0  0  0  0
    1.4590  -18.6710  -12.7740 O   0  0  0  0  0  0  0  0  0  0  0  0
    1.4030  -17.0790  -11.1720 O   0  0  0  0  0  0  0  0  0  0  0  0
    3.2770  -15.7680  -13.1690 C   0  0  0  0  0  0  0  0  0  0  0  0
    4.3980  -13.0435  -13.3326 H   0  0  0  0  0  0  0  0  0  0  0  0
    5.3100  -13.5831  -14.7830 H   0  0  0  0  0  0  0  0  0  0  0  0
    3.5143  -13.6281  -14.7830 H   0  0  0  0  0  0  0  0  0  0  0  0
    6.5649  -15.4342  -13.9908 H   0  0  0  0  0  0  0  0  0  0  0  0
    6.5901  -17.7657  -13.1424 H   0  0  0  0  0  0  0  0  0  0  0  0
    5.2220  -19.1750  -11.4420 H   0  0  0  0  0  0  0  0  0  0  0  0
    3.1464  -19.9736  -14.3037 H   0  0  0  0  0  0  0  0  0  0  0  0
    3.6156  -21.8610  -15.8498 H   0  0  0  0  0  0  0  0  0  0  0  0
    5.6710  -23.2397  -15.5384 H   0  0  0  0  0  0  0  0  0  0  0  0
    7.2462  -22.7064  -13.6907 H   0  0  0  0  0  0  0  0  0  0  0  0
    2.3366  -15.1977  -13.1893 H   0  0  0  0  0  0  0  0  0  0  0  0
  1  2  1  0
  2  3  2  0
  3  4  1  0
  4  5  2  0
  5  6  1  0
  6  7  1  0
  7  8  2  0
  8  9  1  0
  9 10  2  0
 10 11  1  0
 11 12  2  0
 12 13  1  0
 13 14  2  0
 13 15  1  0
  5 16  1  0
 16 17  1  0
 17 18  2  0
 17 19  1  0
 16 20  2  0
 20  2  1  0
 12  7  1  0
  1 21  1  0
  1 22  1  0
  1 23  1  0
  3 24  1  0
  4 25  1  0
  6 26  1  0
  8 27  1  0
  9 28  1  0
 10 29  1  0
 11 30  1  0
 20 31  1  0
M  CHG  2  15  -1  19  -1
M  END
>  <meeko>  (2) 
{"is_sidechain": [false], "free_energy": -7.272, "intermolecular_energy": -8.773, "internal_energy": -1.26}

$$$$
4gkm_ligand
     RDKit          3D

 31 32  0  0  0  0  0  0  0  0999 V2000
   10.2350  -22.0110  -10.9690 C   0  0  0  0  0  0  0  0  0  0  0  0
    9.2630  -21.4410  -11.9540 C   0  0  0  0  0  0  0  0  0  0  0  0
    8.4770  -22.2760  -12.7460 C   0  0  0  0  0  0  0  0  0  0  0  0
    7.6010  -21.7310  -13.6870 C   0  0  0  0  0  0  0  0  0  0  0  0
    7.4890  -20.3420  -13.8720 C   0  0  0  0  0  0  0  0  0  0  0  0
    6.5980  -19.8460  -14.8840 N   0  0  0  0  0  0  0  0  0  0  0  0
    5.2450  -19.4990  -14.5810 C   0  0  0  0  0  0  0  0  0  0  0  0
    4.9760  -18.1430  -14.2920 C   0  0  0  0  0  0  0  0  0  0  0  0
    3.7070  -17.7130  -13.9020 C   0  0  0  0  0  0  0  0  0  0  0  0
    2.6770  -18.6360  -13.7800 C   0  0  0  0  0  0  0  0  0  0  0  0
    2.9240  -19.9810  -14.0530 C   0  0  0  0  0  0  0  0  0  0  0  0
    4.2000  -20.4330  -14.4570 C   0  0  0  0  0  0  0  0  0  0  0  0
    4.3310  -21.9020  -14.7470 C   0  0  0  0  0  0  0  0  0  0  0  0
    4.1940  -22.7140  -13.7770 O   0  0  0  0  0  0  0  0  0  0  0  0
    4.7140  -22.2150  -15.9250 O   0  0  0  0  0  0  0  0  0  0  0  0
    8.2910  -19.4800  -13.0870 C   0  0  0  0  0  0  0  0  0  0  0  0
    8.2290  -17.9650  -13.1870 C   0  0  0  0  0  0  0  0  0  0  0  0
    8.0380  -17.3090  -12.1090 O   0  0  0  0  0  0  0  0  0  0  0  0
    8.3460  -17.4420  -14.3430 O   0  0  0  0  0  0  0  0  0  0  0  0
    9.1720  -20.0560  -12.1410 C   0  0  0  0  0  0  0  0  0  0  0  0
    9.8843  -21.8054   -9.9469 H   0  0  0  0  0  0  0  0  0  0  0  0
   10.3132  -23.0980  -11.1181 H   0  0  0  0  0  0  0  0  0  0  0  0
   11.2219  -21.5485  -11.1181 H   0  0  0  0  0  0  0  0  0  0  0  0
    8.5469  -23.3676  -12.6295 H   0  0  0  0  0  0  0  0  0  0  0  0
    6.9834  -22.4052  -14.2986 H   0  0  0  0  0  0  0  0  0  0  0  0
    7.0640  -18.9860  -15.2400 H   0  0  0  0  0  0  0  0  0  0  0  0
    5.7884  -17.4062  -14.3766 H   0  0  0  0  0  0  0  0  0  0  0  0
    3.5238  -16.6488  -13.6924 H   0  0  0  0  0  0  0  0  0  0  0  0
    1.6735  -18.3087  -13.4703 H   0  0  0  0  0  0  0  0  0  0  0  0
    2.1049  -20.7081  -13.9512 H   0  0  0  0  0  0  0  0  0  0  0  0
    9.8060  -19.3942  -11.5327 H   0  0  0  0  0  0  0  0  0  0  0  0
  1  2  1  0
  2  3  2  0
  3  4  1  0
  4  5  2  0
  5  6  1  0
  6  7  1  0
  7  8  2  0
  8  9  1  0
  9 10  2  0
 10 11  1  0
 11 12  2  0
 12 13  1  0
 13 14  2  0
 13 15  1  0
  5 16  1  0
 16 17  1  0
 17 18  2  0
 17 19  1  0
 16 20  2  0
 20  2  1  0
 12  7  1  0
  1 21  1  0
  1 22  1  0
  1 23  1  0
  3 24  1  0
  4 25  1  0
  6 26  1  0
  8 27  1  0
  9 28  1  0
 10 29  1  0
 11 30  1  0
 20 31  1  0
M  CHG  2  15  -1  19  -1
M  END
>  <meeko>  (3) 
{"is_sidechain": [false], "free_energy": -7.233, "intermolecular_energy": -8.926, "internal_energy": -1.059}

$$$$
4gkm_ligand
     RDKit          3D

 31 32  0  0  0  0  0  0  0  0999 V2000
    1.1840  -18.3080  -13.5720 C   0  0  0  0  0  0  0  0  0  0  0  0
    2.5930  -18.7220  -13.8620 C   0  0  0  0  0  0  0  0  0  0  0  0
    3.6130  -17.7760  -13.9420 C   0  0  0  0  0  0  0  0  0  0  0  0
    4.9160  -18.1720  -14.2490 C   0  0  0  0  0  0  0  0  0  0  0  0
    5.2390  -19.5190  -14.4930 C   0  0  0  0  0  0  0  0  0  0  0  0
    6.5900  -19.8570  -14.8420 N   0  0  0  0  0  0  0  0  0  0  0  0
    7.5430  -20.2430  -13.8500 C   0  0  0  0  0  0  0  0  0  0  0  0
    7.7230  -21.6260  -13.6310 C   0  0  0  0  0  0  0  0  0  0  0  0
    8.5660  -22.1080  -12.6290 C   0  0  0  0  0  0  0  0  0  0  0  0
    9.2400  -21.2140  -11.8100 C   0  0  0  0  0  0  0  0  0  0  0  0
    9.0690  -19.8430  -12.0030 C   0  0  0  0  0  0  0  0  0  0  0  0
    8.2270  -19.3370  -13.0190 C   0  0  0  0  0  0  0  0  0  0  0  0
    8.1490  -17.8410  -13.1410 C   0  0  0  0  0  0  0  0  0  0  0  0
    7.8080  -17.1770  -12.1100 O   0  0  0  0  0  0  0  0  0  0  0  0
    8.2910  -17.3610  -14.3160 O   0  0  0  0  0  0  0  0  0  0  0  0
    4.2120  -20.4910  -14.4300 C   0  0  0  0  0  0  0  0  0  0  0  0
    4.4570  -21.9750  -14.6480 C   0  0  0  0  0  0  0  0  0  0  0  0
    4.3110  -22.7520  -13.6460 O   0  0  0  0  0  0  0  0  0  0  0  0
    4.8160  -22.3520  -15.8120 O   0  0  0  0  0  0  0  0  0  0  0  0
    2.8990  -20.0650  -14.1180 C   0  0  0  0  0  0  0  0  0  0  0  0
    1.0316  -18.2632  -12.4835 H   0  0  0  0  0  0  0  0  0  0  0  0
    0.9957  -17.3166  -14.0097 H   0  0  0  0  0  0  0  0  0  0  0  0
    0.4893  -19.0400  -14.0097 H   0  0  0  0  0  0  0  0  0  0  0  0
    3.3908  -16.7137  -13.7627 H   0  0  0  0  0  0  0  0  0  0  0  0
    5.7095  -17.4120  -14.3014 H   0  0  0  0  0  0  0  0  0  0  0  0
    6.4950  -20.6540  -15.5040 H   0  0  0  0  0  0  0  0  0  0  0  0
    7.1840  -22.3431  -14.2676 H   0  0  0  0  0  0  0  0  0  0  0  0
    8.6954  -23.1914  -12.4892 H   0  0  0  0  0  0  0  0  0  0  0  0
    9.9041  -21.5832  -11.0146 H   0  0  0  0  0  0  0  0  0  0  0  0
    9.6027  -19.1384  -11.3482 H   0  0  0  0  0  0  0  0  0  0  0  0
    2.0929  -20.8122  -14.0751 H   0  0  0  0  0  0  0  0  0  0  0  0
  1  2  1  0
  2  3  2  0
  3  4  1  0
  4  5  2  0
  5  6  1  0
  6  7  1  0
  7  8  2  0
  8  9  1  0
  9 10  2  0
 10 11  1  0
 11 12  2  0
 12 13  1  0
 13 14  2  0
 13 15  1  0
  5 16  1  0
 16 17  1  0
 17 18  2  0
 17 19  1  0
 16 20  2  0
 20  2  1  0
 12  7  1  0
  1 21  1  0
  1 22  1  0
  1 23  1  0
  3 24  1  0
  4 25  1  0
  6 26  1  0
  8 27  1  0
  9 28  1  0
 10 29  1  0
 11 30  1  0
 20 31  1  0
M  CHG  2  15  -1  19  -1
M  END
>  <meeko>  (4) 
{"is_sidechain": [false], "free_energy": -7.148, "intermolecular_energy": -8.818, "internal_energy": -1.061}

$$$$
4gkm_ligand
     RDKit          3D

 31 32  0  0  0  0  0  0  0  0999 V2000
    2.1060  -19.1910  -14.0730 C   0  0  0  0  0  0  0  0  0  0  0  0
    3.5780  -19.4460  -13.9810 C   0  0  0  0  0  0  0  0  0  0  0  0
    4.0670  -20.7280  -13.7400 C   0  0  0  0  0  0  0  0  0  0  0  0
    5.4420  -20.9450  -13.6200 C   0  0  0  0  0  0  0  0  0  0  0  0
    6.3660  -19.8910  -13.7300 C   0  0  0  0  0  0  0  0  0  0  0  0
    7.7640  -20.1720  -13.5590 N   0  0  0  0  0  0  0  0  0  0  0  0
    8.3700  -20.1800  -12.2640 C   0  0  0  0  0  0  0  0  0  0  0  0
    8.9280  -18.9660  -11.8070 C   0  0  0  0  0  0  0  0  0  0  0  0
    9.6160  -18.8850  -10.5950 C   0  0  0  0  0  0  0  0  0  0  0  0
    9.7750  -20.0240   -9.8180 C   0  0  0  0  0  0  0  0  0  0  0  0
    9.2390  -21.2350  -10.2570 C   0  0  0  0  0  0  0  0  0  0  0  0
    8.5310  -21.3330  -11.4760 C   0  0  0  0  0  0  0  0  0  0  0  0
    7.9800  -22.6880  -11.8240 C   0  0  0  0  0  0  0  0  0  0  0  0
    8.2140  -23.1440  -12.9880 O   0  0  0  0  0  0  0  0  0  0  0  0
    7.1940  -23.2160  -10.9670 O   0  0  0  0  0  0  0  0  0  0  0  0
    5.8850  -18.5790  -13.9610 C   0  0  0  0  0  0  0  0  0  0  0  0
    6.7970  -17.3750  -14.1240 C   0  0  0  0  0  0  0  0  0  0  0  0
    6.3950  -16.2600  -13.6530 O   0  0  0  0  0  0  0  0  0  0  0  0
    7.9000  -17.5460  -14.7420 O   0  0  0  0  0  0  0  0  0  0  0  0
    4.4880  -18.3860  -14.0770 C   0  0  0  0  0  0  0  0  0  0  0  0
    1.6826  -19.1177  -13.0604 H   0  0  0  0  0  0  0  0  0  0  0  0
    1.9301  -18.2490  -14.6131 H   0  0  0  0  0  0  0  0  0  0  0  0
    1.6235  -20.0189  -14.6131 H   0  0  0  0  0  0  0  0  0  0  0  0
    3.3683  -21.5722  -13.6439 H   0  0  0  0  0  0  0  0  0  0  0  0
    5.8104  -21.9648  -13.4350 H   0  0  0  0  0  0  0  0  0  0  0  0
    7.8890  -21.1230  -13.9630 H   0  0  0  0  0  0  0  0  0  0  0  0
    8.8177  -18.0607  -12.4220 H   0  0  0  0  0  0  0  0  0  0  0  0
   10.0300  -17.9234  -10.2575 H   0  0  0  0  0  0  0  0  0  0  0  0
   10.3194  -19.9723   -8.8635 H   0  0  0  0  0  0  0  0  0  0  0  0
    9.3708  -22.1355   -9.6391 H   0  0  0  0  0  0  0  0  0  0  0  0
    4.1041  -17.3695  -14.2483 H   0  0  0  0  0  0  0  0  0  0  0  0
  1  2  1  0
  2  3  2  0
  3  4  1  0
  4  5  2  0
  5  6  1  0
  6  7  1  0
  7  8  2  0
  8  9  1  0
  9 10  2  0
 10 11  1  0
 11 12  2  0
 12 13  1  0
 13 14  2  0
 13 15  1  0
  5 16  1  0
 16 17  1  0
 17 18  2  0
 17 19  1  0
 16 20  2  0
 20  2  1  0
 12  7  1  0
  1 21  1  0
  1 22  1  0
  1 23  1  0
  3 24  1  0
  4 25  1  0
  6 26  1  0
  8 27  1  0
  9 28  1  0
 10 29  1  0
 11 30  1  0
 20 31  1  0
M  CHG  2  15  -1  19  -1
M  END
>  <meeko>  (5) 
{"is_sidechain": [false], "free_energy": -7.129, "intermolecular_energy": -8.677, "internal_energy": -1.179}

$$$$
4gkm_ligand
     RDKit          3D

 31 32  0  0  0  0  0  0  0  0999 V2000
   11.8650  -21.1870  -10.9120 C   0  0  0  0  0  0  0  0  0  0  0  0
   10.3930  -20.9840  -11.0890 C   0  0  0  0  0  0  0  0  0  0  0  0
    9.4820  -21.9400  -10.6430 C   0  0  0  0  0  0  0  0  0  0  0  0
    8.1130  -21.7540  -10.8470 C   0  0  0  0  0  0  0  0  0  0  0  0
    7.6140  -20.6170  -11.5070 C   0  0  0  0  0  0  0  0  0  0  0  0
    6.1980  -20.5030  -11.7200 N   0  0  0  0  0  0  0  0  0  0  0  0
    5.5910  -20.9290  -12.9420 C   0  0  0  0  0  0  0  0  0  0  0  0
    6.1220  -22.0840  -13.5580 C   0  0  0  0  0  0  0  0  0  0  0  0
    5.6590  -22.5360  -14.7940 C   0  0  0  0  0  0  0  0  0  0  0  0
    4.6600  -21.8330  -15.4520 C   0  0  0  0  0  0  0  0  0  0  0  0
    4.1290  -20.6850  -14.8660 C   0  0  0  0  0  0  0  0  0  0  0  0
    4.5790  -20.2170  -13.6110 C   0  0  0  0  0  0  0  0  0  0  0  0
    3.9070  -18.9830  -13.0740 C   0  0  0  0  0  0  0  0  0  0  0  0
    4.5800  -18.2280  -12.3030 O   0  0  0  0  0  0  0  0  0  0  0  0
    2.6600  -18.8650  -13.3230 O   0  0  0  0  0  0  0  0  0  0  0  0
    8.5260  -19.6430  -11.9800 C   0  0  0  0  0  0  0  0  0  0  0  0
    8.0920  -18.3660  -12.6790 C   0  0  0  0  0  0  0  0  0  0  0  0
    8.1410  -17.2800  -12.0110 O   0  0  0  0  0  0  0  0  0  0  0  0
    7.6830  -18.4590  -13.8830 O   0  0  0  0  0  0  0  0  0  0  0  0
    9.9080  -19.8550  -11.7610 C   0  0  0  0  0  0  0  0  0  0  0  0
   12.1042  -21.2200   -9.8388 H   0  0  0  0  0  0  0  0  0  0  0  0
   12.1637  -22.1348  -11.3835 H   0  0  0  0  0  0  0  0  0  0  0  0
   12.4091  -20.3554  -11.3835 H   0  0  0  0  0  0  0  0  0  0  0  0
    9.8423  -22.8433  -10.1290 H   0  0  0  0  0  0  0  0  0  0  0  0
    7.4078  -22.5155  -10.4825 H   0  0  0  0  0  0  0  0  0  0  0  0
    5.7740  -21.0650  -10.9540 H   0  0  0  0  0  0  0  0  0  0  0  0
    6.9220  -22.6420  -13.0495 H   0  0  0  0  0  0  0  0  0  0  0  0
    6.0838  -23.4451  -15.2446 H   0  0  0  0  0  0  0  0  0  0  0  0
    4.2899  -22.1788  -16.4284 H   0  0  0  0  0  0  0  0  0  0  0  0
    3.3398  -20.1295  -15.3939 H   0  0  0  0  0  0  0  0  0  0  0  0
   10.6255  -19.1078  -12.1311 H   0  0  0  0  0  0  0  0  0  0  0  0
  1  2  1  0
  2  3  2  0
  3  4  1  0
  4  5  2  0
  5  6  1  0
  6  7  1  0
  7  8  2  0
  8  9  1  0
  9 10  2  0
 10 11  1  0
 11 12  2  0
 12 13  1  0
 13 14  2  0
 13 15  1  0
  5 16  1  0
 16 17  1  0
 17 18  2  0
 17 19  1  0
 16 20  2  0
 20  2  1  0
 12  7  1  0
  1 21  1  0
  1 22  1  0
  1 23  1  0
  3 24  1  0
  4 25  1  0
  6 26  1  0
  8 27  1  0
  9 28  1  0
 10 29  1  0
 11 30  1  0
 20 31  1  0
M  CHG  2  15  -1  19  -1
M  END
>  <meeko>  (6) 
{"is_sidechain": [false], "free_energy": -7.111, "intermolecular_energy": -8.742, "internal_energy": -1.091}

$$$$
4gkm_ligand
     RDKit          3D

 31 32  0  0  0  0  0  0  0  0999 V2000
    3.0970  -14.2330  -13.5150 C   0  0  0  0  0  0  0  0  0  0  0  0
    3.6190  -15.6010  -13.2050 C   0  0  0  0  0  0  0  0  0  0  0  0
    2.7600  -16.6160  -12.7870 C   0  0  0  0  0  0  0  0  0  0  0  0
    3.2670  -17.8770  -12.4660 C   0  0  0  0  0  0  0  0  0  0  0  0
    4.6410  -18.1610  -12.5460 C   0  0  0  0  0  0  0  0  0  0  0  0
    5.1040  -19.4670  -12.1650 N   0  0  0  0  0  0  0  0  0  0  0  0
    5.3150  -20.4950  -13.1340 C   0  0  0  0  0  0  0  0  0  0  0  0
    4.1980  -20.9050  -13.8950 C   0  0  0  0  0  0  0  0  0  0  0  0
    4.2760  -21.9580  -14.8070 C   0  0  0  0  0  0  0  0  0  0  0  0
    5.4760  -22.6370  -14.9710 C   0  0  0  0  0  0  0  0  0  0  0  0
    6.5880  -22.2540  -14.2220 C   0  0  0  0  0  0  0  0  0  0  0  0
    6.5300  -21.1850  -13.3010 C   0  0  0  0  0  0  0  0  0  0  0  0
    7.8050  -20.8540  -12.5760 C   0  0  0  0  0  0  0  0  0  0  0  0
    7.7750  -20.8200  -11.3040 O   0  0  0  0  0  0  0  0  0  0  0  0
    8.7900  -20.4890  -13.3020 O   0  0  0  0  0  0  0  0  0  0  0  0
    5.5300  -17.1380  -12.9540 C   0  0  0  0  0  0  0  0  0  0  0  0
    7.0280  -17.3460  -13.1010 C   0  0  0  0  0  0  0  0  0  0  0  0
    7.7230  -17.4200  -12.0330 O   0  0  0  0  0  0  0  0  0  0  0  0
    7.5040  -17.4120  -14.2820 O   0  0  0  0  0  0  0  0  0  0  0  0
    4.9930  -15.8680  -13.2730 C   0  0  0  0  0  0  0  0  0  0  0  0
    2.8925  -13.6972  -12.5763 H   0  0  0  0  0  0  0  0  0  0  0  0
    3.8465  -13.6780  -14.0982 H   0  0  0  0  0  0  0  0  0  0  0  0
    2.1683  -14.3184  -14.0982 H   0  0  0  0  0  0  0  0  0  0  0  0
    1.6798  -16.4232  -12.7098 H   0  0  0  0  0  0  0  0  0  0  0  0
    2.5738  -18.6675  -12.1426 H   0  0  0  0  0  0  0  0  0  0  0  0
    6.0170  -19.2920  -11.6970 H   0  0  0  0  0  0  0  0  0  0  0  0
    3.2403  -20.3797  -13.7651 H   0  0  0  0  0  0  0  0  0  0  0  0
    3.3916  -22.2487  -15.3929 H   0  0  0  0  0  0  0  0  0  0  0  0
    5.5488  -23.4700  -15.6857 H   0  0  0  0  0  0  0  0  0  0  0  0
    7.5349  -22.7986  -14.3519 H   0  0  0  0  0  0  0  0  0  0  0  0
    5.6764  -15.0643  -13.5845 H   0  0  0  0  0  0  0  0  0  0  0  0
  1  2  1  0
  2  3  2  0
  3  4  1  0
  4  5  2  0
  5  6  1  0
  6  7  1  0
  7  8  2  0
  8  9  1  0
  9 10  2  0
 10 11  1  0
 11 12  2  0
 12 13  1  0
 13 14  2  0
 13 15  1  0
  5 16  1  0
 16 17  1  0
 17 18  2  0
 17 19  1  0
 16 20  2  0
 20  2  1  0
 12  7  1  0
  1 21  1  0
  1 22  1  0
  1 23  1  0
  3 24  1  0
  4 25  1  0
  6 26  1  0
  8 27  1  0
  9 28  1  0
 10 29  1  0
 11 30  1  0
 20 31  1  0
M  CHG  2  15  -1  19  -1
M  END
>  <meeko>  (7) 
{"is_sidechain": [false], "free_energy": -7.106, "intermolecular_energy": -8.622, "internal_energy": -1.205}

$$$$
4gkm_ligand
     RDKit          3D

 31 32  0  0  0  0  0  0  0  0999 V2000
    2.0740  -17.3750  -12.8750 C   0  0  0  0  0  0  0  0  0  0  0  0
    3.3090  -18.2040  -13.0420 C   0  0  0  0  0  0  0  0  0  0  0  0
    4.5000  -17.8470  -12.4140 C   0  0  0  0  0  0  0  0  0  0  0  0
    5.6530  -18.6100  -12.6080 C   0  0  0  0  0  0  0  0  0  0  0  0
    5.6540  -19.7450  -13.4380 C   0  0  0  0  0  0  0  0  0  0  0  0
    6.8830  -20.4650  -13.6280 N   0  0  0  0  0  0  0  0  0  0  0  0
    7.3970  -21.3410  -12.6230 C   0  0  0  0  0  0  0  0  0  0  0  0
    6.5540  -22.3870  -12.1860 C   0  0  0  0  0  0  0  0  0  0  0  0
    6.9250  -23.2460  -11.1510 C   0  0  0  0  0  0  0  0  0  0  0  0
    8.1470  -23.0700  -10.5170 C   0  0  0  0  0  0  0  0  0  0  0  0
    8.9900  -22.0380  -10.9270 C   0  0  0  0  0  0  0  0  0  0  0  0
    8.6350  -21.1640  -11.9790 C   0  0  0  0  0  0  0  0  0  0  0  0
    9.6420  -20.1080  -12.3430 C   0  0  0  0  0  0  0  0  0  0  0  0
    9.2520  -18.8970  -12.3660 O   0  0  0  0  0  0  0  0  0  0  0  0
   10.7800  -20.5270  -12.7430 O   0  0  0  0  0  0  0  0  0  0  0  0
    4.4570  -20.1140  -14.0970 C   0  0  0  0  0  0  0  0  0  0  0  0
    4.3420  -21.3360  -14.9910 C   0  0  0  0  0  0  0  0  0  0  0  0
    4.7890  -21.2410  -16.1830 O   0  0  0  0  0  0  0  0  0  0  0  0
    3.7850  -22.3750  -14.5070 O   0  0  0  0  0  0  0  0  0  0  0  0
    3.3020  -19.3240  -13.8840 C   0  0  0  0  0  0  0  0  0  0  0  0
    1.8675  -17.2364  -11.8035 H   0  0  0  0  0  0  0  0  0  0  0  0
    2.2240  -16.3940  -13.3494 H   0  0  0  0  0  0  0  0  0  0  0  0
    1.2229  -17.8854  -13.3494 H   0  0  0  0  0  0  0  0  0  0  0  0
    4.5322  -16.9609  -11.7630 H   0  0  0  0  0  0  0  0  0  0  0  0
    6.5830  -18.3162  -12.0993 H   0  0  0  0  0  0  0  0  0  0  0  0
    6.7190  -21.0380  -14.4810 H   0  0  0  0  0  0  0  0  0  0  0  0
    5.5788  -22.5281  -12.6749 H   0  0  0  0  0  0  0  0  0  0  0  0
    6.2524  -24.0586  -10.8391 H   0  0  0  0  0  0  0  0  0  0  0  0
    8.4480  -23.7393   -9.6976 H   0  0  0  0  0  0  0  0  0  0  0  0
    9.9558  -21.9007  -10.4187 H   0  0  0  0  0  0  0  0  0  0  0  0
    2.3681  -19.5983  -14.3964 H   0  0  0  0  0  0  0  0  0  0  0  0
  1  2  1  0
  2  3  2  0
  3  4  1  0
  4  5  2  0
  5  6  1  0
  6  7  1  0
  7  8  2  0
  8  9  1  0
  9 10  2  0
 10 11  1  0
 11 12  2  0
 12 13  1  0
 13 14  2  0
 13 15  1  0
  5 16  1  0
 16 17  1  0
 17 18  2  0
 17 19  1  0
 16 20  2  0
 20  2  1  0
 12  7  1  0
  1 21  1  0
  1 22  1  0
  1 23  1  0
  3 24  1  0
  4 25  1  0
  6 26  1  0
  8 27  1  0
  9 28  1  0
 10 29  1  0
 11 30  1  0
 20 31  1  0
M  CHG  2  15  -1  19  -1
M  END
>  <meeko>  (8) 
{"is_sidechain": [false], "free_energy": -7.049, "intermolecular_energy": -8.57, "internal_energy": -1.188}

$$$$
4gkm_ligand
     RDKit          3D

 31 32  0  0  0  0  0  0  0  0999 V2000
    7.3650  -14.8040  -11.1140 C   0  0  0  0  0  0  0  0  0  0  0  0
    7.7090  -16.1780  -11.5950 C   0  0  0  0  0  0  0  0  0  0  0  0
    8.9090  -16.7840  -11.2270 C   0  0  0  0  0  0  0  0  0  0  0  0
    9.2340  -18.0520  -11.7140 C   0  0  0  0  0  0  0  0  0  0  0  0
    8.3780  -18.7490  -12.5850 C   0  0  0  0  0  0  0  0  0  0  0  0
    8.7870  -20.0330  -13.0810 N   0  0  0  0  0  0  0  0  0  0  0  0
    8.7260  -21.2030  -12.2630 C   0  0  0  0  0  0  0  0  0  0  0  0
    7.4560  -21.7880  -12.0680 C   0  0  0  0  0  0  0  0  0  0  0  0
    7.2740  -22.8820  -11.2200 C   0  0  0  0  0  0  0  0  0  0  0  0
    8.3600  -23.4080  -10.5340 C   0  0  0  0  0  0  0  0  0  0  0  0
    9.6210  -22.8380  -10.7060 C   0  0  0  0  0  0  0  0  0  0  0  0
    9.8260  -21.7370  -11.5670 C   0  0  0  0  0  0  0  0  0  0  0  0
   11.2370  -21.2320  -11.6850 C   0  0  0  0  0  0  0  0  0  0  0  0
   11.8710  -20.9810  -10.6110 O   0  0  0  0  0  0  0  0  0  0  0  0
   11.6420  -20.9570  -12.8650 O   0  0  0  0  0  0  0  0  0  0  0  0
    7.1620  -18.1420  -12.9820 C   0  0  0  0  0  0  0  0  0  0  0  0
    6.1540  -18.8180  -13.8950 C   0  0  0  0  0  0  0  0  0  0  0  0
    6.5940  -19.3630  -14.9620 O   0  0  0  0  0  0  0  0  0  0  0  0
    4.9260  -18.7790  -13.5540 O   0  0  0  0  0  0  0  0  0  0  0  0
    6.8560  -16.8560  -12.4760 C   0  0  0  0  0  0  0  0  0  0  0  0
    7.3617  -14.7907  -10.0141 H   0  0  0  0  0  0  0  0  0  0  0  0
    8.1114  -14.0873  -11.4871 H   0  0  0  0  0  0  0  0  0  0  0  0
    6.3689  -14.5236  -11.4871 H   0  0  0  0  0  0  0  0  0  0  0  0
    9.6022  -16.2620  -10.5510 H   0  0  0  0  0  0  0  0  0  0  0  0
   10.1830  -18.5169  -11.4087 H   0  0  0  0  0  0  0  0  0  0  0  0
    8.1730  -20.2010  -13.9050 H   0  0  0  0  0  0  0  0  0  0  0  0
    6.5871  -21.3709  -12.5981 H   0  0  0  0  0  0  0  0  0  0  0  0
    6.2748  -23.3250  -11.0961 H   0  0  0  0  0  0  0  0  0  0  0  0
    8.2270  -24.2673   -9.8603 H   0  0  0  0  0  0  0  0  0  0  0  0
   10.4777  -23.2563  -10.1573 H   0  0  0  0  0  0  0  0  0  0  0  0
    5.9173  -16.3727  -12.7847 H   0  0  0  0  0  0  0  0  0  0  0  0
  1  2  1  0
  2  3  2  0
  3  4  1  0
  4  5  2  0
  5  6  1  0
  6  7  1  0
  7  8  2  0
  8  9  1  0
  9 10  2  0
 10 11  1  0
 11 12  2  0
 12 13  1  0
 13 14  2  0
 13 15  1  0
  5 16  1  0
 16 17  1  0
 17 18  2  0
 17 19  1  0
 16 20  2  0
 20  2  1  0
 12  7  1  0
  1 21  1  0
  1 22  1  0
  1 23  1  0
  3 24  1  0
  4 25  1  0
  6 26  1  0
  8 27  1  0
  9 28  1  0
 10 29  1  0
 11 30  1  0
 20 31  1  0
M  CHG  2  15  -1  19  -1
M  END
>  <meeko>  (9) 
{"is_sidechain": [false], "free_energy": -7.036, "intermolecular_energy": -8.423, "internal_energy": -1.318}

$$$$
