3udh_ligand
     RDKit          3D

 27 29  0  0  0  0  0  0  0  0999 V2000
    6.7980    2.8850   -9.0350 O   0  0  0  0  0  0  0  0  0  0  0  0
    6.4450    1.7480   -8.7720 C   0  0  0  0  0  0  0  0  0  0  0  0
    7.0610    0.5670   -9.1380 N   0  0  0  0  0  0  0  0  0  0  0  0
    6.4000   -0.5300   -8.6050 C   0  0  0  0  0  0  0  0  0  0  0  0
    6.7400   -1.8570   -8.7480 C   0  0  0  0  0  0  0  0  0  0  0  0
    5.9250   -2.7950   -8.1120 C   0  0  0  0  0  0  0  0  0  0  0  0
    4.8070   -2.3870   -7.3610 C   0  0  0  0  0  0  0  0  0  0  0  0
    4.4830   -1.0320   -7.2300 C   0  0  0  0  0  0  0  0  0  0  0  0
    5.2960   -0.1070   -7.8610 C   0  0  0  0  0  0  0  0  0  0  0  0
    5.2170    1.3890   -7.9150 C   0  0  2  0  0  0  0  0  0  0  0  0
    3.9350    1.9560   -8.5110 C   0  0  0  0  0  0  0  0  0  0  0  0
    3.9230    3.4190   -8.0870 C   0  0  0  0  0  0  0  0  0  0  0  0
    4.8220    3.4980   -6.8870 N   0  0  0  0  0  0  0  0  0  0  0  0
    5.3330    2.1120   -6.5870 C   0  0  0  0  0  0  0  0  0  0  0  0
    7.8960    0.5200   -9.7100 H   0  0  0  0  0  0  0  0  0  0  0  0
    7.6160   -2.1644   -9.3380 H   0  0  0  0  0  0  0  0  0  0  0  0
    6.1595   -3.8662   -8.1989 H   0  0  0  0  0  0  0  0  0  0  0  0
    4.1785   -3.1444   -6.8697 H   0  0  0  0  0  0  0  0  0  0  0  0
    3.6091   -0.7121   -6.6436 H   0  0  0  0  0  0  0  0  0  0  0  0
    3.9465    1.8704   -9.6076 H   0  0  0  0  0  0  0  0  0  0  0  0
    3.0416    1.4158   -8.1646 H   0  0  0  0  0  0  0  0  0  0  0  0
    4.3065    4.0568   -8.8970 H   0  0  0  0  0  0  0  0  0  0  0  0
    2.9055    3.7683   -7.8575 H   0  0  0  0  0  0  0  0  0  0  0  0
    4.3700    3.9400   -6.0750 H   0  0  0  0  0  0  0  0  0  0  0  0
    5.6300    4.0920   -7.1420 H   0  0  0  0  0  0  0  0  0  0  0  0
    6.3791    2.1447   -6.2486 H   0  0  0  0  0  0  0  0  0  0  0  0
    4.7709    1.6161   -5.7819 H   0  0  0  0  0  0  0  0  0  0  0  0
  1  2  2  0
  2  3  1  0
  3  4  1  0
  4  5  2  0
  5  6  1  0
  6  7  2  0
  7  8  1  0
  8  9  2  0
  9 10  1  0
 10 11  1  6
 11 12  1  0
 12 13  1  0
 13 14  1  0
 10  2  1  0
  9  4  1  0
 14 10  1  0
  3 15  1  0
  5 16  1  0
  6 17  1  0
  7 18  1  0
  8 19  1  0
 11 20  1  0
 11 21  1  0
 12 22  1  0
 12 23  1  0
 13 24  1  0
 13 25  1  0
 14 26  1  0
 14 27  1  0
M  CHG  1  13   1
M  END
>  <meeko>  (1) 
{"is_sidechain": [false], "free_energy": -6.966, "intermolecular_energy": -6.966, "internal_energy": 0.0}

$$$$
3udh_ligand
     RDKit          3D

 27 29  0  0  0  0  0  0  0  0999 V2000
    5.5600    2.6890   -6.3580 O   0  0  0  0  0  0  0  0  0  0  0  0
    5.9300    1.5560   -6.6170 C   0  0  0  0  0  0  0  0  0  0  0  0
    7.0490    0.9030   -6.1370 N   0  0  0  0  0  0  0  0  0  0  0  0
    7.1110   -0.3990   -6.6080 C   0  0  0  0  0  0  0  0  0  0  0  0
    8.0740   -1.3430   -6.3260 C   0  0  0  0  0  0  0  0  0  0  0  0
    7.9260   -2.6000   -6.9140 C   0  0  0  0  0  0  0  0  0  0  0  0
    6.8340   -2.8760   -7.7580 C   0  0  0  0  0  0  0  0  0  0  0  0
    5.8680   -1.9020   -8.0290 C   0  0  0  0  0  0  0  0  0  0  0  0
    6.0190   -0.6590   -7.4410 C   0  0  0  0  0  0  0  0  0  0  0  0
    5.1740    0.5770   -7.5330 C   0  0  2  0  0  0  0  0  0  0  0  0
    4.9980    1.1460   -8.9350 C   0  0  0  0  0  0  0  0  0  0  0  0
    3.8160    2.1010   -8.8200 C   0  0  0  0  0  0  0  0  0  0  0  0
    3.0550    1.6570   -7.6040 N   0  0  0  0  0  0  0  0  0  0  0  0
    3.7500    0.4500   -7.0270 C   0  0  0  0  0  0  0  0  0  0  0  0
    7.7230    1.3260   -5.5100 H   0  0  0  0  0  0  0  0  0  0  0  0
    8.9236   -1.1156   -5.6653 H   0  0  0  0  0  0  0  0  0  0  0  0
    8.6715   -3.3842   -6.7155 H   0  0  0  0  0  0  0  0  0  0  0  0
    6.7390   -3.8736   -8.2116 H   0  0  0  0  0  0  0  0  0  0  0  0
    5.0148   -2.1174   -8.6890 H   0  0  0  0  0  0  0  0  0  0  0  0
    5.9031    1.6854   -9.2510 H   0  0  0  0  0  0  0  0  0  0  0  0
    4.8259    0.3595   -9.6845 H   0  0  0  0  0  0  0  0  0  0  0  0
    4.1688    3.1354   -8.6957 H   0  0  0  0  0  0  0  0  0  0  0  0
    3.1878    2.0818   -9.7228 H   0  0  0  0  0  0  0  0  0  0  0  0
    2.0580    1.4890   -7.7940 H   0  0  0  0  0  0  0  0  0  0  0  0
    3.1050    2.4220   -6.9090 H   0  0  0  0  0  0  0  0  0  0  0  0
    3.7215    0.4696   -5.9275 H   0  0  0  0  0  0  0  0  0  0  0  0
    3.2756   -0.4969   -7.3242 H   0  0  0  0  0  0  0  0  0  0  0  0
  1  2  2  0
  2  3  1  0
  3  4  1  0
  4  5  2  0
  5  6  1  0
  6  7  2  0
  7  8  1  0
  8  9  2  0
  9 10  1  0
 10 11  1  6
 11 12  1  0
 12 13  1  0
 13 14  1  0
 10  2  1  0
  9  4  1  0
 14 10  1  0
  3 15  1  0
  5 16  1  0
  6 17  1  0
  7 18  1  0
  8 19  1  0
 11 20  1  0
 11 21  1  0
 12 22  1  0
 12 23  1  0
 13 24  1  0
 13 25  1  0
 14 26  1  0
 14 27  1  0
M  CHG  1  13   1
M  END
>  <meeko>  (2) 
{"is_sidechain": [false], "free_energy": -6.858, "intermolecular_energy": -6.858, "internal_energy": 0.0}

$$$$
3udh_ligand
     RDKit          3D

 27 29  0  0  0  0  0  0  0  0999 V2000
    7.3560   -2.3570   -6.4170 O   0  0  0  0  0  0  0  0  0  0  0  0
    6.4370   -1.6770   -6.8430 C   0  0  0  0  0  0  0  0  0  0  0  0
    5.1180   -1.6870   -6.4300 N   0  0  0  0  0  0  0  0  0  0  0  0
    4.3740   -0.7320   -7.1070 C   0  0  0  0  0  0  0  0  0  0  0  0
    3.0360   -0.4500   -6.9440 C   0  0  0  0  0  0  0  0  0  0  0  0
    2.4980    0.5650   -7.7370 C   0  0  0  0  0  0  0  0  0  0  0  0
    3.3010    1.2610   -8.6590 C   0  0  0  0  0  0  0  0  0  0  0  0
    4.6590    0.9570   -8.8060 C   0  0  0  0  0  0  0  0  0  0  0  0
    5.1870   -0.0480   -8.0150 C   0  0  0  0  0  0  0  0  0  0  0  0
    6.5770   -0.6050   -7.9380 C   0  0  2  0  0  0  0  0  0  0  0  0
    7.1190   -1.1970   -9.2330 C   0  0  0  0  0  0  0  0  0  0  0  0
    8.6220   -1.3040   -9.0120 C   0  0  0  0  0  0  0  0  0  0  0  0
    8.9400   -0.3250   -7.9190 N   0  0  0  0  0  0  0  0  0  0  0  0
    7.6630    0.3680   -7.5200 C   0  0  0  0  0  0  0  0  0  0  0  0
    4.7560   -2.3060   -5.7150 H   0  0  0  0  0  0  0  0  0  0  0  0
    2.4177   -1.0009   -6.2200 H   0  0  0  0  0  0  0  0  0  0  0  0
    1.4333    0.8238   -7.6398 H   0  0  0  0  0  0  0  0  0  0  0  0
    2.8545    2.0564   -9.2738 H   0  0  0  0  0  0  0  0  0  0  0  0
    5.2870    1.4999   -9.5277 H   0  0  0  0  0  0  0  0  0  0  0  0
    6.6828   -2.1897   -9.4178 H   0  0  0  0  0  0  0  0  0  0  0  0
    6.8707   -0.5788  -10.1083 H   0  0  0  0  0  0  0  0  0  0  0  0
    8.8932   -2.3246   -8.7042 H   0  0  0  0  0  0  0  0  0  0  0  0
    9.1852   -1.0850   -9.9312 H   0  0  0  0  0  0  0  0  0  0  0  0
    9.6870    0.3340   -8.1750 H   0  0  0  0  0  0  0  0  0  0  0  0
    9.2820   -0.8670   -7.1060 H   0  0  0  0  0  0  0  0  0  0  0  0
    7.6352    0.5435   -6.4345 H   0  0  0  0  0  0  0  0  0  0  0  0
    7.5514    1.3568   -7.9888 H   0  0  0  0  0  0  0  0  0  0  0  0
  1  2  2  0
  2  3  1  0
  3  4  1  0
  4  5  2  0
  5  6  1  0
  6  7  2  0
  7  8  1  0
  8  9  2  0
  9 10  1  0
 10 11  1  6
 11 12  1  0
 12 13  1  0
 13 14  1  0
 10  2  1  0
  9  4  1  0
 14 10  1  0
  3 15  1  0
  5 16  1  0
  6 17  1  0
  7 18  1  0
  8 19  1  0
 11 20  1  0
 11 21  1  0
 12 22  1  0
 12 23  1  0
 13 24  1  0
 13 25  1  0
 14 26  1  0
 14 27  1  0
M  CHG  1  13   1
M  END
>  <meeko>  (3) 
{"is_sidechain": [false], "free_energy": -6.742, "intermolecular_energy": -6.742, "internal_energy": 0.0}

$$$$
3udh_ligand
     RDKit          3D

 27 29  0  0  0  0  0  0  0  0999 V2000
    9.3730    1.3270   -5.2740 O   0  0  0  0  0  0  0  0  0  0  0  0
    8.7120    0.5430   -5.9330 C   0  0  0  0  0  0  0  0  0  0  0  0
    7.6570   -0.2400   -5.5040 N   0  0  0  0  0  0  0  0  0  0  0  0
    7.1120   -0.9650   -6.5530 C   0  0  0  0  0  0  0  0  0  0  0  0
    6.0440   -1.8330   -6.4990 C   0  0  0  0  0  0  0  0  0  0  0  0
    5.6640   -2.4500   -7.6910 C   0  0  0  0  0  0  0  0  0  0  0  0
    6.3520   -2.1870   -8.8900 C   0  0  0  0  0  0  0  0  0  0  0  0
    7.4330   -1.3000   -8.9210 C   0  0  0  0  0  0  0  0  0  0  0  0
    7.8040   -0.6890   -7.7350 C   0  0  0  0  0  0  0  0  0  0  0  0
    8.9010    0.2890   -7.4400 C   0  0  2  0  0  0  0  0  0  0  0  0
   10.3120   -0.1950   -7.7510 C   0  0  0  0  0  0  0  0  0  0  0  0
   11.1620    1.0690   -7.7600 C   0  0  0  0  0  0  0  0  0  0  0  0
   10.2030    2.1990   -8.0030 N   0  0  0  0  0  0  0  0  0  0  0  0
    8.8220    1.6200   -8.1630 C   0  0  0  0  0  0  0  0  0  0  0  0
    7.3250   -0.2630   -4.5480 H   0  0  0  0  0  0  0  0  0  0  0  0
    5.5133   -2.0313   -5.5561 H   0  0  0  0  0  0  0  0  0  0  0  0
    4.8161   -3.1507   -7.6937 H   0  0  0  0  0  0  0  0  0  0  0  0
    6.0348   -2.6867   -9.8172 H   0  0  0  0  0  0  0  0  0  0  0  0
    7.9714   -1.0943   -9.8579 H   0  0  0  0  0  0  0  0  0  0  0  0
   10.6624   -0.8924   -6.9759 H   0  0  0  0  0  0  0  0  0  0  0  0
   10.3643   -0.7381   -8.7061 H   0  0  0  0  0  0  0  0  0  0  0  0
   11.6694    1.1974   -6.7925 H   0  0  0  0  0  0  0  0  0  0  0  0
   11.9454    1.0271   -8.5310 H   0  0  0  0  0  0  0  0  0  0  0  0
   10.4790    2.7960   -8.7930 H   0  0  0  0  0  0  0  0  0  0  0  0
   10.2080    2.7970   -7.1580 H   0  0  0  0  0  0  0  0  0  0  0  0
    8.0674    2.2730   -7.7002 H   0  0  0  0  0  0  0  0  0  0  0  0
    8.5248    1.5144   -9.2168 H   0  0  0  0  0  0  0  0  0  0  0  0
  1  2  2  0
  2  3  1  0
  3  4  1  0
  4  5  2  0
  5  6  1  0
  6  7  2  0
  7  8  1  0
  8  9  2  0
  9 10  1  0
 10 11  1  1
 11 12  1  0
 12 13  1  0
 13 14  1  0
 10  2  1  0
  9  4  1  0
 14 10  1  0
  3 15  1  0
  5 16  1  0
  6 17  1  0
  7 18  1  0
  8 19  1  0
 11 20  1  0
 11 21  1  0
 12 22  1  0
 12 23  1  0
 13 24  1  0
 13 25  1  0
 14 26  1  0
 14 27  1  0
M  CHG  1  13   1
M  END
>  <meeko>  (4) 
{"is_sidechain": [false], "free_energy": -6.6, "intermolecular_energy": -6.6, "internal_energy": 0.0}

$$$$
3udh_ligand
     RDKit          3D

 27 29  0  0  0  0  0  0  0  0999 V2000
    8.7700    0.0040   -8.6530 O   0  0  0  0  0  0  0  0  0  0  0  0
    7.5740   -0.0080   -8.4130 C   0  0  0  0  0  0  0  0  0  0  0  0
    6.6070    0.8460   -8.9080 N   0  0  0  0  0  0  0  0  0  0  0  0
    5.3450    0.4890   -8.4560 C   0  0  0  0  0  0  0  0  0  0  0  0
    4.1490    1.1020   -8.7570 C   0  0  0  0  0  0  0  0  0  0  0  0
    2.9950    0.5600   -8.1880 C   0  0  0  0  0  0  0  0  0  0  0  0
    3.0670   -0.5640   -7.3450 C   0  0  0  0  0  0  0  0  0  0  0  0
    4.2940   -1.1710   -7.0550 C   0  0  0  0  0  0  0  0  0  0  0  0
    5.4340   -0.6300   -7.6240 C   0  0  0  0  0  0  0  0  0  0  0  0
    6.8730   -1.0380   -7.5090 C   0  0  2  0  0  0  0  0  0  0  0  0
    7.4470   -1.0250   -6.0990 C   0  0  0  0  0  0  0  0  0  0  0  0
    8.7300   -1.8410   -6.1940 C   0  0  0  0  0  0  0  0  0  0  0  0
    8.5700   -2.7020   -7.4140 N   0  0  0  0  0  0  0  0  0  0  0  0
    7.2150   -2.4270   -8.0120 C   0  0  0  0  0  0  0  0  0  0  0  0
    6.8030    1.6210   -9.5300 H   0  0  0  0  0  0  0  0  0  0  0  0
    4.1049    1.9807   -9.4172 H   0  0  0  0  0  0  0  0  0  0  0  0
    2.0176    1.0174   -8.4014 H   0  0  0  0  0  0  0  0  0  0  0  0
    2.1442   -0.9721   -6.9069 H   0  0  0  0  0  0  0  0  0  0  0  0
    4.3508   -2.0499   -6.3960 H   0  0  0  0  0  0  0  0  0  0  0  0
    7.6653    0.0045   -5.7789 H   0  0  0  0  0  0  0  0  0  0  0  0
    6.7447   -1.4396   -5.3608 H   0  0  0  0  0  0  0  0  0  0  0  0
    9.6003   -1.1772   -6.3036 H   0  0  0  0  0  0  0  0  0  0  0  0
    8.8978   -2.4435   -5.2891 H   0  0  0  0  0  0  0  0  0  0  0  0
    8.7260   -3.7010   -7.2230 H   0  0  0  0  0  0  0  0  0  0  0  0
    9.2910   -2.4100   -8.0970 H   0  0  0  0  0  0  0  0  0  0  0  0
    7.2605   -2.4457   -9.1109 H   0  0  0  0  0  0  0  0  0  0  0  0
    6.4641   -3.1791   -7.7282 H   0  0  0  0  0  0  0  0  0  0  0  0
  1  2  2  0
  2  3  1  0
  3  4  1  0
  4  5  2  0
  5  6  1  0
  6  7  2  0
  7  8  1  0
  8  9  2  0
  9 10  1  0
 10 11  1  1
 11 12  1  0
 12 13  1  0
 13 14  1  0
 10  2  1  0
  9  4  1  0
 14 10  1  0
  3 15  1  0
  5 16  1  0
  6 17  1  0
  7 18  1  0
  8 19  1  0
 11 20  1  0
 11 21  1  0
 12 22  1  0
 12 23  1  0
 13 24  1  0
 13 25  1  0
 14 26  1  0
 14 27  1  0
M  CHG  1  13   1
M  END
>  <meeko>  (5) 
{"is_sidechain": [false], "free_energy": -6.568, "intermolecular_energy": -6.568, "internal_energy": 0.0}

$$$$
3udh_ligand
     RDKit          3D

 27 29  0  0  0  0  0  0  0  0999 V2000
    5.5620    3.1780   -6.3250 O   0  0  0  0  0  0  0  0  0  0  0  0
    5.5830    1.9980   -6.6370 C   0  0  0  0  0  0  0  0  0  0  0  0
    4.5300    1.1040   -6.6280 N   0  0  0  0  0  0  0  0  0  0  0  0
    4.9230   -0.1370   -7.1040 C   0  0  0  0  0  0  0  0  0  0  0  0
    4.1380   -1.2600   -7.2500 C   0  0  0  0  0  0  0  0  0  0  0  0
    4.7520   -2.4050   -7.7580 C   0  0  0  0  0  0  0  0  0  0  0  0
    6.1170   -2.3990   -8.1020 C   0  0  0  0  0  0  0  0  0  0  0  0
    6.8940   -1.2460   -7.9450 C   0  0  0  0  0  0  0  0  0  0  0  0
    6.2780   -0.1130   -7.4430 C   0  0  0  0  0  0  0  0  0  0  0  0
    6.8260    1.2540   -7.1580 C   0  0  2  0  0  0  0  0  0  0  0  0
    7.9700    1.3050   -6.1540 C   0  0  0  0  0  0  0  0  0  0  0  0
    8.5950    2.6800   -6.3480 C   0  0  0  0  0  0  0  0  0  0  0  0
    8.1930    3.1160   -7.7280 N   0  0  0  0  0  0  0  0  0  0  0  0
    7.3740    2.0140   -8.3500 C   0  0  0  0  0  0  0  0  0  0  0  0
    3.5930    1.3400   -6.3240 H   0  0  0  0  0  0  0  0  0  0  0  0
    3.0723   -1.2539   -6.9775 H   0  0  0  0  0  0  0  0  0  0  0  0
    4.1622   -3.3239   -7.8914 H   0  0  0  0  0  0  0  0  0  0  0  0
    6.5796   -3.3142   -8.5001 H   0  0  0  0  0  0  0  0  0  0  0  0
    7.9610   -1.2403   -8.2122 H   0  0  0  0  0  0  0  0  0  0  0  0
    7.5904    1.1929   -5.1277 H   0  0  0  0  0  0  0  0  0  0  0  0
    8.6956    0.4929   -6.3089 H   0  0  0  0  0  0  0  0  0  0  0  0
    8.2120    3.3853   -5.5958 H   0  0  0  0  0  0  0  0  0  0  0  0
    9.6886    2.6496   -6.2334 H   0  0  0  0  0  0  0  0  0  0  0  0
    8.9940    3.3930   -8.3100 H   0  0  0  0  0  0  0  0  0  0  0  0
    7.5900    3.9500   -7.6270 H   0  0  0  0  0  0  0  0  0  0  0  0
    6.5575    2.4287   -8.9594 H   0  0  0  0  0  0  0  0  0  0  0  0
    7.9622    1.3770   -9.0269 H   0  0  0  0  0  0  0  0  0  0  0  0
  1  2  2  0
  2  3  1  0
  3  4  1  0
  4  5  2  0
  5  6  1  0
  6  7  2  0
  7  8  1  0
  8  9  2  0
  9 10  1  0
 10 11  1  1
 11 12  1  0
 12 13  1  0
 13 14  1  0
 10  2  1  0
  9  4  1  0
 14 10  1  0
  3 15  1  0
  5 16  1  0
  6 17  1  0
  7 18  1  0
  8 19  1  0
 11 20  1  0
 11 21  1  0
 12 22  1  0
 12 23  1  0
 13 24  1  0
 13 25  1  0
 14 26  1  0
 14 27  1  0
M  CHG  1  13   1
M  END
>  <meeko>  (6) 
{"is_sidechain": [false], "free_energy": -6.501, "intermolecular_energy": -6.501, "internal_energy": 0.0}

$$$$
3udh_ligand
     RDKit          3D

 27 29  0  0  0  0  0  0  0  0999 V2000
    2.2160    0.7650   -6.9320 O   0  0  0  0  0  0  0  0  0  0  0  0
    3.2430    0.1800   -7.2340 C   0  0  0  0  0  0  0  0  0  0  0  0
    3.5980   -1.1180   -6.9200 N   0  0  0  0  0  0  0  0  0  0  0  0
    4.8190   -1.4540   -7.4860 C   0  0  0  0  0  0  0  0  0  0  0  0
    5.4730   -2.6630   -7.3980 C   0  0  0  0  0  0  0  0  0  0  0  0
    6.6970   -2.7750   -8.0580 C   0  0  0  0  0  0  0  0  0  0  0  0
    7.2280   -1.6890   -8.7800 C   0  0  0  0  0  0  0  0  0  0  0  0
    6.5450   -0.4700   -8.8560 C   0  0  0  0  0  0  0  0  0  0  0  0
    5.3300   -0.3670   -8.2010 C   0  0  0  0  0  0  0  0  0  0  0  0
    4.3730    0.7820   -8.0880 C   0  0  2  0  0  0  0  0  0  0  0  0
    4.9400    2.0470   -7.4560 C   0  0  0  0  0  0  0  0  0  0  0  0
    3.9480    3.1430   -7.8240 C   0  0  0  0  0  0  0  0  0  0  0  0
    3.2140    2.6330   -9.0310 N   0  0  0  0  0  0  0  0  0  0  0  0
    3.7750    1.2820   -9.3900 C   0  0  0  0  0  0  0  0  0  0  0  0
    3.0270   -1.7390   -6.3610 H   0  0  0  0  0  0  0  0  0  0  0  0
    5.0482   -3.5046   -6.8313 H   0  0  0  0  0  0  0  0  0  0  0  0
    7.2537   -3.7227   -8.0138 H   0  0  0  0  0  0  0  0  0  0  0  0
    8.1950   -1.8006   -9.2924 H   0  0  0  0  0  0  0  0  0  0  0  0
    6.9604    0.3792   -9.4183 H   0  0  0  0  0  0  0  0  0  0  0  0
    5.0089    1.9373   -6.3637 H   0  0  0  0  0  0  0  0  0  0  0  0
    5.9566    2.2699   -7.8122 H   0  0  0  0  0  0  0  0  0  0  0  0
    3.2472    3.3211   -6.9950 H   0  0  0  0  0  0  0  0  0  0  0  0
    4.4535    4.0985   -8.0280 H   0  0  0  0  0  0  0  0  0  0  0  0
    3.2330    3.2930   -9.8200 H   0  0  0  0  0  0  0  0  0  0  0  0
    2.2220    2.5120   -8.7630 H   0  0  0  0  0  0  0  0  0  0  0  0
    2.9797    0.6078   -9.7406 H   0  0  0  0  0  0  0  0  0  0  0  0
    4.5111    1.3297  -10.2061 H   0  0  0  0  0  0  0  0  0  0  0  0
  1  2  2  0
  2  3  1  0
  3  4  1  0
  4  5  2  0
  5  6  1  0
  6  7  2  0
  7  8  1  0
  8  9  2  0
  9 10  1  0
 10 11  1  1
 11 12  1  0
 12 13  1  0
 13 14  1  0
 10  2  1  0
  9  4  1  0
 14 10  1  0
  3 15  1  0
  5 16  1  0
  6 17  1  0
  7 18  1  0
  8 19  1  0
 11 20  1  0
 11 21  1  0
 12 22  1  0
 12 23  1  0
 13 24  1  0
 13 25  1  0
 14 26  1  0
 14 27  1  0
M  CHG  1  13   1
M  END
>  <meeko>  (7) 
{"is_sidechain": [false], "free_energy": -6.368, "intermolecular_energy": -6.368, "internal_energy": 0.0}

$$$$
3udh_ligand
     RDKit          3D

 27 29  0  0  0  0  0  0  0  0999 V2000
    0.7150    0.3910   -7.7510 O   0  0  0  0  0  0  0  0  0  0  0  0
    1.9040    0.1230   -7.8020 C   0  0  0  0  0  0  0  0  0  0  0  0
    2.5360   -1.0080   -7.3210 N   0  0  0  0  0  0  0  0  0  0  0  0
    3.8910   -0.9880   -7.6140 C   0  0  0  0  0  0  0  0  0  0  0  0
    4.8250   -1.9520   -7.3040 C   0  0  0  0  0  0  0  0  0  0  0  0
    6.1400   -1.7190   -7.7070 C   0  0  0  0  0  0  0  0  0  0  0  0
    6.4830   -0.5430   -8.4000 C   0  0  0  0  0  0  0  0  0  0  0  0
    5.5170    0.4220   -8.7050 C   0  0  0  0  0  0  0  0  0  0  0  0
    4.2140    0.1830   -8.3050 C   0  0  0  0  0  0  0  0  0  0  0  0
    2.9720    1.0070   -8.4720 C   0  0  2  0  0  0  0  0  0  0  0  0
    3.0190    2.3960   -7.8480 C   0  0  0  0  0  0  0  0  0  0  0  0
    1.8580    3.1480   -8.4880 C   0  0  0  0  0  0  0  0  0  0  0  0
    1.5620    2.4190   -9.7670 N   0  0  0  0  0  0  0  0  0  0  0  0
    2.5400    1.2810   -9.9000 C   0  0  0  0  0  0  0  0  0  0  0  0
    2.0580   -1.7550   -6.8320 H   0  0  0  0  0  0  0  0  0  0  0  0
    4.5456   -2.8672   -6.7614 H   0  0  0  0  0  0  0  0  0  0  0  0
    6.9179   -2.4630   -7.4805 H   0  0  0  0  0  0  0  0  0  0  0  0
    7.5268   -0.3801   -8.7066 H   0  0  0  0  0  0  0  0  0  0  0  0
    5.7848    1.3417   -9.2457 H   0  0  0  0  0  0  0  0  0  0  0  0
    2.8880    2.3358   -6.7575 H   0  0  0  0  0  0  0  0  0  0  0  0
    3.9835    2.8964   -8.0192 H   0  0  0  0  0  0  0  0  0  0  0  0
    0.9797    3.1342   -7.8258 H   0  0  0  0  0  0  0  0  0  0  0  0
    2.1070    4.2040   -8.6692 H   0  0  0  0  0  0  0  0  0  0  0  0
    1.5570    3.0370  -10.5890 H   0  0  0  0  0  0  0  0  0  0  0  0
    0.6100    2.0200   -9.6840 H   0  0  0  0  0  0  0  0  0  0  0  0
    2.0551    0.3968  -10.3393 H   0  0  0  0  0  0  0  0  0  0  0  0
    3.3853    1.5214  -10.5616 H   0  0  0  0  0  0  0  0  0  0  0  0
  1  2  2  0
  2  3  1  0
  3  4  1  0
  4  5  2  0
  5  6  1  0
  6  7  2  0
  7  8  1  0
  8  9  2  0
  9 10  1  0
 10 11  1  1
 11 12  1  0
 12 13  1  0
 13 14  1  0
 10  2  1  0
  9  4  1  0
 14 10  1  0
  3 15  1  0
  5 16  1  0
  6 17  1  0
  7 18  1  0
  8 19  1  0
 11 20  1  0
 11 21  1  0
 12 22  1  0
 12 23  1  0
 13 24  1  0
 13 25  1  0
 14 26  1  0
 14 27  1  0
M  CHG  1  13   1
M  END
>  <meeko>  (8) 
{"is_sidechain": [false], "free_energy": -6.241, "intermolecular_energy": -6.241, "internal_energy": 0.0}

$$$$
3udh_ligand
     RDKit          3D

 27 29  0  0  0  0  0  0  0  0999 V2000
    0.5930    3.1160   -8.2910 O   0  0  0  0  0  0  0  0  0  0  0  0
    1.7960    2.9550   -8.4090 C   0  0  0  0  0  0  0  0  0  0  0  0
    2.8030    3.8370   -8.0660 N   0  0  0  0  0  0  0  0  0  0  0  0
    4.0530    3.2820   -8.2920 C   0  0  0  0  0  0  0  0  0  0  0  0
    5.2790    3.8640   -8.0530 C   0  0  0  0  0  0  0  0  0  0  0  0
    6.4130    3.1080   -8.3540 C   0  0  0  0  0  0  0  0  0  0  0  0
    6.2930    1.8080   -8.8800 C   0  0  0  0  0  0  0  0  0  0  0  0
    5.0380    1.2380   -9.1130 C   0  0  0  0  0  0  0  0  0  0  0  0
    3.9170    1.9910   -8.8100 C   0  0  0  0  0  0  0  0  0  0  0  0
    2.4580    1.6730   -8.9470 C   0  0  2  0  0  0  0  0  0  0  0  0
    1.9870    1.3520  -10.3590 C   0  0  0  0  0  0  0  0  0  0  0  0
    0.6290    0.6870  -10.1730 C   0  0  0  0  0  0  0  0  0  0  0  0
    0.6220    0.1720   -8.7630 N   0  0  0  0  0  0  0  0  0  0  0  0
    1.9530    0.4970   -8.1350 C   0  0  0  0  0  0  0  0  0  0  0  0
    2.6380    4.7610   -7.6870 H   0  0  0  0  0  0  0  0  0  0  0  0
    5.3605    4.8812   -7.6424 H   0  0  0  0  0  0  0  0  0  0  0  0
    7.4122    3.5331   -8.1781 H   0  0  0  0  0  0  0  0  0  0  0  0
    7.2009    1.2316   -9.1113 H   0  0  0  0  0  0  0  0  0  0  0  0
    4.9443    0.2222   -9.5245 H   0  0  0  0  0  0  0  0  0  0  0  0
    1.8899    2.2721  -10.9539 H   0  0  0  0  0  0  0  0  0  0  0  0
    2.6962    0.7058  -10.8970 H   0  0  0  0  0  0  0  0  0  0  0  0
   -0.1798    1.4181  -10.3189 H   0  0  0  0  0  0  0  0  0  0  0  0
    0.4677   -0.1205  -10.9023 H   0  0  0  0  0  0  0  0  0  0  0  0
    0.3870   -0.8270   -8.7010 H   0  0  0  0  0  0  0  0  0  0  0  0
   -0.1130    0.6870   -8.2480 H   0  0  0  0  0  0  0  0  0  0  0  0
    1.8302    0.7746   -7.0777 H   0  0  0  0  0  0  0  0  0  0  0  0
    2.6475   -0.3560   -8.1442 H   0  0  0  0  0  0  0  0  0  0  0  0
  1  2  2  0
  2  3  1  0
  3  4  1  0
  4  5  2  0
  5  6  1  0
  6  7  2  0
  7  8  1  0
  8  9  2  0
  9 10  1  0
 10 11  1  6
 11 12  1  0
 12 13  1  0
 13 14  1  0
 10  2  1  0
  9  4  1  0
 14 10  1  0
  3 15  1  0
  5 16  1  0
  6 17  1  0
  7 18  1  0
  8 19  1  0
 11 20  1  0
 11 21  1  0
 12 22  1  0
 12 23  1  0
 13 24  1  0
 13 25  1  0
 14 26  1  0
 14 27  1  0
M  CHG  1  13   1
M  END
>  <meeko>  (9) 
{"is_sidechain": [false], "free_energy": -6.167, "intermolecular_energy": -6.167, "internal_energy": 0.0}

$$$$
