2wca_ligand
     RDKit          3D

 50 51  0  0  0  0  0  0  0  0999 V2000
   12.1240    5.8230    3.5650 C   0  0  0  0  0  0  0  0  0  0  0  0
   12.9190    7.0870    3.2800 C   0  0  0  0  0  0  0  0  0  0  0  0
   14.0070    6.8420    2.2390 C   0  0  0  0  0  0  0  0  0  0  0  0
   13.4990    6.0380    1.0580 C   0  0  0  0  0  0  0  0  0  0  0  0
   12.5310    6.3540    0.3740 O   0  0  0  0  0  0  0  0  0  0  0  0
   14.2180    4.8880    0.8340 N   0  0  0  0  0  0  0  0  0  0  0  0
   14.0540    4.0530   -0.3710 C   0  0  1  0  0  0  0  0  0  0  0  0
   15.4660    3.6770   -0.8180 C   0  0  0  0  0  0  0  0  0  0  0  0
   16.4190    4.5470   -0.6760 N   0  0  0  0  0  0  0  0  0  0  0  0
   17.6370    4.0390   -1.1720 O   0  0  0  0  0  0  0  0  0  0  0  0
   17.9680    4.6470   -2.3620 C   0  0  0  0  0  0  0  0  0  0  0  0
   18.7140    5.6130   -2.4640 O   0  0  0  0  0  0  0  0  0  0  0  0
   17.3320    3.9750   -3.3760 N   0  0  0  0  0  0  0  0  0  0  0  0
   17.3750    4.2310   -4.7570 C   0  0  0  0  0  0  0  0  0  0  0  0
   18.0260    5.3260   -5.3270 C   0  0  0  0  0  0  0  0  0  0  0  0
   18.0220    5.5100   -6.7130 C   0  0  0  0  0  0  0  0  0  0  0  0
   17.3670    4.6010   -7.5400 C   0  0  0  0  0  0  0  0  0  0  0  0
   16.7140    3.5050   -6.9810 C   0  0  0  0  0  0  0  0  0  0  0  0
   16.7170    3.3220   -5.5960 C   0  0  0  0  0  0  0  0  0  0  0  0
   15.6980    2.4900   -1.4020 O   0  0  0  0  0  0  0  0  0  0  0  0
   14.8270    1.3600   -1.1850 C   0  0  2  0  0  0  0  0  0  0  0  0
   15.1330    0.3120   -2.2640 C   0  0  0  0  0  0  0  0  0  0  0  0
   15.1070    0.9020   -3.5670 O   0  0  0  0  0  0  0  0  0  0  0  0
   13.3680    1.7780   -1.2160 C   0  0  1  0  0  0  0  0  0  0  0  0
   12.5130    0.6630   -0.9490 O   0  0  0  0  0  0  0  0  0  0  0  0
   13.1340    2.8480   -0.1520 C   0  0  2  0  0  0  0  0  0  0  0  0
   11.7410    3.1940   -0.2630 O   0  0  0  0  0  0  0  0  0  0  0  0
   12.0358    5.6827    4.6524 H   0  0  0  0  0  0  0  0  0  0  0  0
   11.1202    5.9140    3.1244 H   0  0  0  0  0  0  0  0  0  0  0  0
   12.6408    4.9577    3.1244 H   0  0  0  0  0  0  0  0  0  0  0  0
   12.2347    7.8626    2.9057 H   0  0  0  0  0  0  0  0  0  0  0  0
   13.4023    7.4081    4.2145 H   0  0  0  0  0  0  0  0  0  0  0  0
   14.3741    7.8129    1.8750 H   0  0  0  0  0  0  0  0  0  0  0  0
   14.8106    6.2649    2.7198 H   0  0  0  0  0  0  0  0  0  0  0  0
   15.1450    4.8460    1.2590 H   0  0  0  0  0  0  0  0  0  0  0  0
   13.5360    4.6092   -1.1662 H   0  0  0  0  0  0  0  0  0  0  0  0
   16.7650    3.2010   -3.0590 H   0  0  0  0  0  0  0  0  0  0  0  0
   18.5458    6.0492   -4.6814 H   0  0  0  0  0  0  0  0  0  0  0  0
   18.5384    6.3764   -7.1520 H   0  0  0  0  0  0  0  0  0  0  0  0
   17.3653    4.7479   -8.6301 H   0  0  0  0  0  0  0  0  0  0  0  0
   16.1960    2.7836   -7.6300 H   0  0  0  0  0  0  0  0  0  0  0  0
   16.1977    2.4559   -5.1599 H   0  0  0  0  0  0  0  0  0  0  0  0
   15.0075    0.9314   -0.1881 H   0  0  0  0  0  0  0  0  0  0  0  0
   16.1306   -0.1137   -2.0807 H   0  0  0  0  0  0  0  0  0  0  0  0
   14.3664   -0.4755   -2.2181 H   0  0  0  0  0  0  0  0  0  0  0  0
   15.4730    1.7990   -3.4880 H   0  0  0  0  0  0  0  0  0  0  0  0
   13.1354    2.1703   -2.2170 H   0  0  0  0  0  0  0  0  0  0  0  0
   12.7530   -0.0050   -1.6280 H   0  0  0  0  0  0  0  0  0  0  0  0
   13.3700    2.4878    0.8602 H   0  0  0  0  0  0  0  0  0  0  0  0
   11.4400    3.4630    0.6370 H   0  0  0  0  0  0  0  0  0  0  0  0
  1  2  1  0
  2  3  1  0
  3  4  1  0
  4  5  2  0
  4  6  1  0
  6  7  1  0
  7  8  1  0
  8  9  2  0
  9 10  1  0
 10 11  1  0
 11 12  2  0
 11 13  1  0
 13 14  1  0
 14 15  2  0
 15 16  1  0
 16 17  2  0
 17 18  1  0
 18 19  2  0
  8 20  1  0
 20 21  1  0
 21 22  1  0
 22 23  1  0
 21 24  1  0
 24 25  1  0
 24 26  1  0
 26 27  1  0
 26  7  1  0
 19 14  1  0
  1 28  1  0
  1 29  1  0
  1 30  1  0
  2 31  1  0
  2 32  1  0
  3 33  1  0
  3 34  1  0
  6 35  1  0
  7 36  1  6
 13 37  1  0
 15 38  1  0
 16 39  1  0
 17 40  1  0
 18 41  1  0
 19 42  1  0
 21 43  1  1
 22 44  1  0
 22 45  1  0
 23 46  1  0
 24 47  1  6
 25 48  1  0
 26 49  1  1
 27 50  1  0
M  END
>  <meeko>  (1) 
{"is_sidechain": [false], "free_energy": -8.273, "intermolecular_energy": -12.384, "internal_energy": -0.601}

$$$$
2wca_ligand
     RDKit          3D

 50 51  0  0  0  0  0  0  0  0999 V2000
   12.9270    7.2050    3.5760 C   0  0  0  0  0  0  0  0  0  0  0  0
   12.7940    6.0240    2.6290 C   0  0  0  0  0  0  0  0  0  0  0  0
   13.8530    6.0660    1.5300 C   0  0  0  0  0  0  0  0  0  0  0  0
   13.6370    4.9880    0.4850 C   0  0  0  0  0  0  0  0  0  0  0  0
   12.5500    4.7200   -0.0150 O   0  0  0  0  0  0  0  0  0  0  0  0
   14.7870    4.3080    0.1630 N   0  0  0  0  0  0  0  0  0  0  0  0
   14.8790    3.3640   -0.9680 C   0  0  1  0  0  0  0  0  0  0  0  0
   16.3150    3.4610   -1.4810 C   0  0  0  0  0  0  0  0  0  0  0  0
   16.9080    4.6160   -1.4650 N   0  0  0  0  0  0  0  0  0  0  0  0
   18.2060    4.5190   -2.0040 O   0  0  0  0  0  0  0  0  0  0  0  0
   18.2990    5.2320   -3.1780 C   0  0  0  0  0  0  0  0  0  0  0  0
   18.8110    6.3400   -3.2800 O   0  0  0  0  0  0  0  0  0  0  0  0
   17.7360    4.4800   -4.1800 N   0  0  0  0  0  0  0  0  0  0  0  0
   17.6060    4.7950   -5.5430 C   0  0  0  0  0  0  0  0  0  0  0  0
   18.1590    5.9310   -6.1370 C   0  0  0  0  0  0  0  0  0  0  0  0
   17.9830    6.1730   -7.5030 C   0  0  0  0  0  0  0  0  0  0  0  0
   17.2540    5.2820   -8.2850 C   0  0  0  0  0  0  0  0  0  0  0  0
   16.6980    4.1460   -7.7030 C   0  0  0  0  0  0  0  0  0  0  0  0
   16.8730    3.9040   -6.3380 C   0  0  0  0  0  0  0  0  0  0  0  0
   16.9250    2.3820   -1.9960 O   0  0  0  0  0  0  0  0  0  0  0  0
   16.5130    1.0440   -1.6440 C   0  0  2  0  0  0  0  0  0  0  0  0
   17.1240    0.0760   -2.6660 C   0  0  0  0  0  0  0  0  0  0  0  0
   17.4270   -1.1830   -2.0580 O   0  0  0  0  0  0  0  0  0  0  0  0
   15.0000    0.9270   -1.6060 C   0  0  1  0  0  0  0  0  0  0  0  0
   14.6000   -0.3860   -1.2060 O   0  0  0  0  0  0  0  0  0  0  0  0
   14.4480    1.9400   -0.6050 C   0  0  2  0  0  0  0  0  0  0  0  0
   13.0190    1.7730   -0.6460 O   0  0  0  0  0  0  0  0  0  0  0  0
   12.8868    6.8477    4.6156 H   0  0  0  0  0  0  0  0  0  0  0  0
   13.8878    7.7106    3.3990 H   0  0  0  0  0  0  0  0  0  0  0  0
   12.1028    7.9116    3.3990 H   0  0  0  0  0  0  0  0  0  0  0  0
   12.9098    5.0919    3.2016 H   0  0  0  0  0  0  0  0  0  0  0  0
   11.8026    6.0717    2.1549 H   0  0  0  0  0  0  0  0  0  0  0  0
   13.8143    7.0491    1.0381 H   0  0  0  0  0  0  0  0  0  0  0  0
   14.8329    5.8911    1.9982 H   0  0  0  0  0  0  0  0  0  0  0  0
   15.6660    4.7640    0.4090 H   0  0  0  0  0  0  0  0  0  0  0  0
   14.1688    3.6343   -1.7634 H   0  0  0  0  0  0  0  0  0  0  0  0
   17.3750    3.5900   -3.8670 H   0  0  0  0  0  0  0  0  0  0  0  0
   18.7370    6.6404   -5.5265 H   0  0  0  0  0  0  0  0  0  0  0  0
   18.4225    7.0712   -7.9613 H   0  0  0  0  0  0  0  0  0  0  0  0
   17.1175    5.4747   -9.3594 H   0  0  0  0  0  0  0  0  0  0  0  0
   16.1211    3.4392   -8.3175 H   0  0  0  0  0  0  0  0  0  0  0  0
   16.4310    3.0053   -5.8831 H   0  0  0  0  0  0  0  0  0  0  0  0
   16.8704    0.7941   -0.6342 H   0  0  0  0  0  0  0  0  0  0  0  0
   16.4072   -0.0827   -3.4851 H   0  0  0  0  0  0  0  0  0  0  0  0
   18.0566    0.5140   -3.0514 H   0  0  0  0  0  0  0  0  0  0  0  0
   17.6730   -1.0080   -1.1340 H   0  0  0  0  0  0  0  0  0  0  0  0
   14.6062    1.1242   -2.6140 H   0  0  0  0  0  0  0  0  0  0  0  0
   14.1440   -0.7590   -1.9910 H   0  0  0  0  0  0  0  0  0  0  0  0
   14.8343    1.7738    0.4114 H   0  0  0  0  0  0  0  0  0  0  0  0
   12.8470    0.8510   -0.9540 H   0  0  0  0  0  0  0  0  0  0  0  0
  1  2  1  0
  2  3  1  0
  3  4  1  0
  4  5  2  0
  4  6  1  0
  6  7  1  0
  7  8  1  0
  8  9  2  0
  9 10  1  0
 10 11  1  0
 11 12  2  0
 11 13  1  0
 13 14  1  0
 14 15  2  0
 15 16  1  0
 16 17  2  0
 17 18  1  0
 18 19  2  0
  8 20  1  0
 20 21  1  0
 21 22  1  0
 22 23  1  0
 21 24  1  0
 24 25  1  0
 24 26  1  0
 26 27  1  0
 26  7  1  0
 19 14  1  0
  1 28  1  0
  1 29  1  0
  1 30  1  0
  2 31  1  0
  2 32  1  0
  3 33  1  0
  3 34  1  0
  6 35  1  0
  7 36  1  6
 13 37  1  0
 15 38  1  0
 16 39  1  0
 17 40  1  0
 18 41  1  0
 19 42  1  0
 21 43  1  1
 22 44  1  0
 22 45  1  0
 23 46  1  0
 24 47  1  6
 25 48  1  0
 26 49  1  1
 27 50  1  0
M  END
>  <meeko>  (2) 
{"is_sidechain": [false], "free_energy": -8.108, "intermolecular_energy": -11.888, "internal_energy": -0.851}

$$$$
2wca_ligand
     RDKit          3D

 50 51  0  0  0  0  0  0  0  0999 V2000
   15.3840    2.4060   -6.1010 C   0  0  0  0  0  0  0  0  0  0  0  0
   15.7680    2.3300   -4.6320 C   0  0  0  0  0  0  0  0  0  0  0  0
   15.4270    0.9680   -4.0350 C   0  0  0  0  0  0  0  0  0  0  0  0
   15.0570    1.0630   -2.5670 C   0  0  0  0  0  0  0  0  0  0  0  0
   15.2640    0.1770   -1.7450 O   0  0  0  0  0  0  0  0  0  0  0  0
   14.4330    2.2430   -2.2410 N   0  0  0  0  0  0  0  0  0  0  0  0
   14.1670    2.6600   -0.8500 C   0  0  1  0  0  0  0  0  0  0  0  0
   15.3460    3.5420   -0.4420 C   0  0  0  0  0  0  0  0  0  0  0  0
   16.5310    3.2470   -0.8850 N   0  0  0  0  0  0  0  0  0  0  0  0
   17.4920    4.1450   -0.3800 O   0  0  0  0  0  0  0  0  0  0  0  0
   18.4320    4.4420   -1.3400 C   0  0  0  0  0  0  0  0  0  0  0  0
   19.5820    4.0220   -1.3400 O   0  0  0  0  0  0  0  0  0  0  0  0
   17.8460    5.2620   -2.2720 N   0  0  0  0  0  0  0  0  0  0  0  0
   18.4140    5.8170   -3.4310 C   0  0  0  0  0  0  0  0  0  0  0  0
   19.2710    6.9190   -3.4280 C   0  0  0  0  0  0  0  0  0  0  0  0
   19.7970    7.4110   -4.6270 C   0  0  0  0  0  0  0  0  0  0  0  0
   19.4700    6.8060   -5.8370 C   0  0  0  0  0  0  0  0  0  0  0  0
   18.6160    5.7070   -5.8510 C   0  0  0  0  0  0  0  0  0  0  0  0
   18.0900    5.2150   -4.6540 C   0  0  0  0  0  0  0  0  0  0  0  0
   15.1650    4.5650    0.4090 O   0  0  0  0  0  0  0  0  0  0  0  0
   13.8750    5.1930    0.5680 C   0  0  2  0  0  0  0  0  0  0  0  0
   13.9130    6.0320    1.8530 C   0  0  0  0  0  0  0  0  0  0  0  0
   13.0240    7.1480    1.7570 O   0  0  0  0  0  0  0  0  0  0  0  0
   12.7640    4.1600    0.6130 C   0  0  1  0  0  0  0  0  0  0  0  0
   11.4850    4.7920    0.7190 O   0  0  0  0  0  0  0  0  0  0  0  0
   12.8030    3.3310   -0.6690 C   0  0  2  0  0  0  0  0  0  0  0  0
   11.7350    2.3750   -0.5340 O   0  0  0  0  0  0  0  0  0  0  0  0
   14.3083    2.6189   -6.1883 H   0  0  0  0  0  0  0  0  0  0  0  0
   15.9573    3.2081   -6.5888 H   0  0  0  0  0  0  0  0  0  0  0  0
   15.6085    1.4460   -6.5888 H   0  0  0  0  0  0  0  0  0  0  0  0
   16.8503    2.5015   -4.5361 H   0  0  0  0  0  0  0  0  0  0  0  0
   15.2001    3.0981   -4.0865 H   0  0  0  0  0  0  0  0  0  0  0  0
   14.5770    0.5415   -4.5878 H   0  0  0  0  0  0  0  0  0  0  0  0
   16.3190    0.3296   -4.1181 H   0  0  0  0  0  0  0  0  0  0  0  0
   14.5480    3.0130   -2.9010 H   0  0  0  0  0  0  0  0  0  0  0  0
   14.0945    1.7860   -0.1860 H   0  0  0  0  0  0  0  0  0  0  0  0
   16.8790    5.4800   -2.0720 H   0  0  0  0  0  0  0  0  0  0  0  0
   19.5344    7.4037   -2.4763 H   0  0  0  0  0  0  0  0  0  0  0  0
   20.4718    8.2796   -4.6136 H   0  0  0  0  0  0  0  0  0  0  0  0
   19.8849    7.1949   -6.7786 H   0  0  0  0  0  0  0  0  0  0  0  0
   18.3551    5.2256   -6.8051 H   0  0  0  0  0  0  0  0  0  0  0  0
   17.4150    4.3466   -4.6718 H   0  0  0  0  0  0  0  0  0  0  0  0
   13.6625    5.8418   -0.2945 H   0  0  0  0  0  0  0  0  0  0  0  0
   13.6116    5.4029    2.7035 H   0  0  0  0  0  0  0  0  0  0  0  0
   14.9365    6.4079    1.9987 H   0  0  0  0  0  0  0  0  0  0  0  0
   12.7590    7.2310    0.8260 H   0  0  0  0  0  0  0  0  0  0  0  0
   12.9152    3.5181    1.4934 H   0  0  0  0  0  0  0  0  0  0  0  0
   11.1980    4.9320   -0.2090 H   0  0  0  0  0  0  0  0  0  0  0  0
   12.6665    3.9488   -1.5688 H   0  0  0  0  0  0  0  0  0  0  0  0
   11.8490    1.9400    0.3440 H   0  0  0  0  0  0  0  0  0  0  0  0
  1  2  1  0
  2  3  1  0
  3  4  1  0
  4  5  2  0
  4  6  1  0
  6  7  1  0
  7  8  1  0
  8  9  2  0
  9 10  1  0
 10 11  1  0
 11 12  2  0
 11 13  1  0
 13 14  1  0
 14 15  2  0
 15 16  1  0
 16 17  2  0
 17 18  1  0
 18 19  2  0
  8 20  1  0
 20 21  1  0
 21 22  1  0
 22 23  1  0
 21 24  1  0
 24 25  1  0
 24 26  1  0
 26 27  1  0
 26  7  1  0
 19 14  1  0
  1 28  1  0
  1 29  1  0
  1 30  1  0
  2 31  1  0
  2 32  1  0
  3 33  1  0
  3 34  1  0
  6 35  1  0
  7 36  1  1
 13 37  1  0
 15 38  1  0
 16 39  1  0
 17 40  1  0
 18 41  1  0
 19 42  1  0
 21 43  1  6
 22 44  1  0
 22 45  1  0
 23 46  1  0
 24 47  1  1
 25 48  1  0
 26 49  1  6
 27 50  1  0
M  END
>  <meeko>  (3) 
{"is_sidechain": [false], "free_energy": -8.094, "intermolecular_energy": -11.546, "internal_energy": -1.172}

$$$$
2wca_ligand
     RDKit          3D

 50 51  0  0  0  0  0  0  0  0999 V2000
   12.9200    7.1420    3.5320 C   0  0  0  0  0  0  0  0  0  0  0  0
   12.8520    6.1210    2.4080 C   0  0  0  0  0  0  0  0  0  0  0  0
   14.1280    6.1230    1.5710 C   0  0  0  0  0  0  0  0  0  0  0  0
   14.0120    5.2360    0.3470 C   0  0  0  0  0  0  0  0  0  0  0  0
   13.0630    5.2500   -0.4280 O   0  0  0  0  0  0  0  0  0  0  0  0
   15.0760    4.3780    0.1970 N   0  0  0  0  0  0  0  0  0  0  0  0
   15.2970    3.5690   -1.0170 C   0  0  1  0  0  0  0  0  0  0  0  0
   16.8110    3.3980   -1.1380 C   0  0  0  0  0  0  0  0  0  0  0  0
   17.5820    4.3810   -0.7850 N   0  0  0  0  0  0  0  0  0  0  0  0
   18.9360    4.0550   -0.9970 O   0  0  0  0  0  0  0  0  0  0  0  0
   19.7100    5.1930   -1.0310 C   0  0  0  0  0  0  0  0  0  0  0  0
   19.7810    5.9570   -1.9850 O   0  0  0  0  0  0  0  0  0  0  0  0
   20.3540    5.3070    0.1760 N   0  0  0  0  0  0  0  0  0  0  0  0
   21.2440    6.3080    0.6020 C   0  0  0  0  0  0  0  0  0  0  0  0
   22.0930    7.0120   -0.2540 C   0  0  0  0  0  0  0  0  0  0  0  0
   22.9500    7.9960    0.2500 C   0  0  0  0  0  0  0  0  0  0  0  0
   22.9660    8.2820    1.6120 C   0  0  0  0  0  0  0  0  0  0  0  0
   22.1240    7.5850    2.4740 C   0  0  0  0  0  0  0  0  0  0  0  0
   21.2670    6.6020    1.9720 C   0  0  0  0  0  0  0  0  0  0  0  0
   17.3260    2.2720   -1.6600 O   0  0  0  0  0  0  0  0  0  0  0  0
   16.5910    1.0310   -1.6470 C   0  0  2  0  0  0  0  0  0  0  0  0
   17.2670    0.0690   -2.6340 C   0  0  0  0  0  0  0  0  0  0  0  0
   17.1170   -1.2880   -2.2060 O   0  0  0  0  0  0  0  0  0  0  0  0
   15.1320    1.2530   -2.0020 C   0  0  1  0  0  0  0  0  0  0  0  0
   14.3990    0.0270   -1.9360 O   0  0  0  0  0  0  0  0  0  0  0  0
   14.5250    2.2460   -1.0130 C   0  0  2  0  0  0  0  0  0  0  0  0
   13.1570    2.4100   -1.4320 O   0  0  0  0  0  0  0  0  0  0  0  0
   12.8854    6.6231    4.5013 H   0  0  0  0  0  0  0  0  0  0  0  0
   13.8580    7.7112    3.4541 H   0  0  0  0  0  0  0  0  0  0  0  0
   12.0657    7.8306    3.4541 H   0  0  0  0  0  0  0  0  0  0  0  0
   12.7114    5.1203    2.8425 H   0  0  0  0  0  0  0  0  0  0  0  0
   12.0094    6.3859    1.7524 H   0  0  0  0  0  0  0  0  0  0  0  0
   14.3354    7.1526    1.2439 H   0  0  0  0  0  0  0  0  0  0  0  0
   14.9427    5.7297    2.1968 H   0  0  0  0  0  0  0  0  0  0  0  0
   15.9250    4.6170    0.7100 H   0  0  0  0  0  0  0  0  0  0  0  0
   14.8958    4.0780   -1.9058 H   0  0  0  0  0  0  0  0  0  0  0  0
   20.1450    4.5590    0.8210 H   0  0  0  0  0  0  0  0  0  0  0  0
   22.0880    6.7915   -1.3317 H   0  0  0  0  0  0  0  0  0  0  0  0
   23.6141    8.5461   -0.4330 H   0  0  0  0  0  0  0  0  0  0  0  0
   23.6414    9.0558    2.0058 H   0  0  0  0  0  0  0  0  0  0  0  0
   22.1333    7.8082    3.5511 H   0  0  0  0  0  0  0  0  0  0  0  0
   20.6046    6.0541    2.6583 H   0  0  0  0  0  0  0  0  0  0  0  0
   16.6039    0.5974   -0.6361 H   0  0  0  0  0  0  0  0  0  0  0  0
   16.8059    0.1872   -3.6256 H   0  0  0  0  0  0  0  0  0  0  0  0
   18.3399    0.3074   -2.6792 H   0  0  0  0  0  0  0  0  0  0  0  0
   17.5140   -1.3600   -1.3230 H   0  0  0  0  0  0  0  0  0  0  0  0
   15.0754    1.6442   -3.0285 H   0  0  0  0  0  0  0  0  0  0  0  0
   13.9270   -0.0290   -2.7950 H   0  0  0  0  0  0  0  0  0  0  0  0
   14.5785    1.8850    0.0247 H   0  0  0  0  0  0  0  0  0  0  0  0
   12.8450    1.5270   -1.7420 H   0  0  0  0  0  0  0  0  0  0  0  0
  1  2  1  0
  2  3  1  0
  3  4  1  0
  4  5  2  0
  4  6  1  0
  6  7  1  0
  7  8  1  0
  8  9  2  0
  9 10  1  0
 10 11  1  0
 11 12  2  0
 11 13  1  0
 13 14  1  0
 14 15  2  0
 15 16  1  0
 16 17  2  0
 17 18  1  0
 18 19  2  0
  8 20  1  0
 20 21  1  0
 21 22  1  0
 22 23  1  0
 21 24  1  0
 24 25  1  0
 24 26  1  0
 26 27  1  0
 26  7  1  0
 19 14  1  0
  1 28  1  0
  1 29  1  0
  1 30  1  0
  2 31  1  0
  2 32  1  0
  3 33  1  0
  3 34  1  0
  6 35  1  0
  7 36  1  6
 13 37  1  0
 15 38  1  0
 16 39  1  0
 17 40  1  0
 18 41  1  0
 19 42  1  0
 21 43  1  1
 22 44  1  0
 22 45  1  0
 23 46  1  0
 24 47  1  6
 25 48  1  0
 26 49  1  1
 27 50  1  0
M  END
>  <meeko>  (4) 
{"is_sidechain": [false], "free_energy": -7.606, "intermolecular_energy": -11.141, "internal_energy": -0.846}

$$$$
2wca_ligand
     RDKit          3D

 50 51  0  0  0  0  0  0  0  0999 V2000
   12.1380    5.8280    3.5700 C   0  0  0  0  0  0  0  0  0  0  0  0
   12.8990    7.1180    3.3080 C   0  0  0  0  0  0  0  0  0  0  0  0
   14.0280    6.9070    2.3040 C   0  0  0  0  0  0  0  0  0  0  0  0
   13.5740    6.1250    1.0870 C   0  0  0  0  0  0  0  0  0  0  0  0
   12.6740    6.4810    0.3340 O   0  0  0  0  0  0  0  0  0  0  0  0
   14.2560    4.9440    0.9150 N   0  0  0  0  0  0  0  0  0  0  0  0
   14.1450    4.1140   -0.3000 C   0  0  1  0  0  0  0  0  0  0  0  0
   15.5560    3.6090   -0.5960 C   0  0  0  0  0  0  0  0  0  0  0  0
   16.5640    4.3920   -0.3560 N   0  0  0  0  0  0  0  0  0  0  0  0
   17.7760    3.7730   -0.7200 O   0  0  0  0  0  0  0  0  0  0  0  0
   18.5820    4.6510   -1.4100 C   0  0  0  0  0  0  0  0  0  0  0  0
   18.2700    5.2040   -2.4570 O   0  0  0  0  0  0  0  0  0  0  0  0
   19.7560    4.7900   -0.7130 N   0  0  0  0  0  0  0  0  0  0  0  0
   20.8730    5.5820   -1.0280 C   0  0  0  0  0  0  0  0  0  0  0  0
   21.2020    6.7650   -0.3640 C   0  0  0  0  0  0  0  0  0  0  0  0
   22.3330    7.4970   -0.7390 C   0  0  0  0  0  0  0  0  0  0  0  0
   23.1430    7.0530   -1.7810 C   0  0  0  0  0  0  0  0  0  0  0  0
   22.8230    5.8740   -2.4500 C   0  0  0  0  0  0  0  0  0  0  0  0
   21.6930    5.1430   -2.0760 C   0  0  0  0  0  0  0  0  0  0  0  0
   15.7410    2.4010   -1.1520 O   0  0  0  0  0  0  0  0  0  0  0  0
   14.7540    1.3550   -1.0270 C   0  0  2  0  0  0  0  0  0  0  0  0
   15.0760    0.2740   -2.0680 C   0  0  0  0  0  0  0  0  0  0  0  0
   16.3630   -0.3000   -1.8230 O   0  0  0  0  0  0  0  0  0  0  0  0
   13.3500    1.9010   -1.2120 C   0  0  1  0  0  0  0  0  0  0  0  0
   12.3750    0.8700   -1.0360 O   0  0  0  0  0  0  0  0  0  0  0  0
   13.1030    2.9980   -0.1780 C   0  0  2  0  0  0  0  0  0  0  0  0
   11.7660    3.4670   -0.4360 O   0  0  0  0  0  0  0  0  0  0  0  0
   12.0453    5.6708    4.6548 H   0  0  0  0  0  0  0  0  0  0  0  0
   11.1355    5.8963    3.1224 H   0  0  0  0  0  0  0  0  0  0  0  0
   12.6827    4.9836    3.1224 H   0  0  0  0  0  0  0  0  0  0  0  0
   12.2018    7.8696    2.9092 H   0  0  0  0  0  0  0  0  0  0  0  0
   13.3399    7.4574    4.2569 H   0  0  0  0  0  0  0  0  0  0  0  0
   14.3983    7.8894    1.9758 H   0  0  0  0  0  0  0  0  0  0  0  0
   14.8187    6.3269    2.8022 H   0  0  0  0  0  0  0  0  0  0  0  0
   15.1470    4.8610    1.4070 H   0  0  0  0  0  0  0  0  0  0  0  0
   13.7652    4.7062   -1.1456 H   0  0  0  0  0  0  0  0  0  0  0  0
   19.7960    4.2370    0.1320 H   0  0  0  0  0  0  0  0  0  0  0  0
   20.5674    7.1238    0.4597 H   0  0  0  0  0  0  0  0  0  0  0  0
   22.5838    8.4275   -0.2086 H   0  0  0  0  0  0  0  0  0  0  0  0
   24.0318    7.6309   -2.0745 H   0  0  0  0  0  0  0  0  0  0  0  0
   23.4603    5.5185   -3.2731 H   0  0  0  0  0  0  0  0  0  0  0  0
   21.4444    4.2136   -2.6094 H   0  0  0  0  0  0  0  0  0  0  0  0
   14.7900    0.9219   -0.0165 H   0  0  0  0  0  0  0  0  0  0  0  0
   14.3127   -0.5163   -2.0151 H   0  0  0  0  0  0  0  0  0  0  0  0
   15.0803    0.7361   -3.0662 H   0  0  0  0  0  0  0  0  0  0  0  0
   16.3650   -0.6320   -0.9100 H   0  0  0  0  0  0  0  0  0  0  0  0
   13.2598    2.3023   -2.2322 H   0  0  0  0  0  0  0  0  0  0  0  0
   11.9860    0.7380   -1.9270 H   0  0  0  0  0  0  0  0  0  0  0  0
   13.1982    2.6275    0.8533 H   0  0  0  0  0  0  0  0  0  0  0  0
   11.7320    3.7280   -1.3870 H   0  0  0  0  0  0  0  0  0  0  0  0
  1  2  1  0
  2  3  1  0
  3  4  1  0
  4  5  2  0
  4  6  1  0
  6  7  1  0
  7  8  1  0
  8  9  2  0
  9 10  1  0
 10 11  1  0
 11 12  2  0
 11 13  1  0
 13 14  1  0
 14 15  2  0
 15 16  1  0
 16 17  2  0
 17 18  1  0
 18 19  2  0
  8 20  1  0
 20 21  1  0
 21 22  1  0
 22 23  1  0
 21 24  1  0
 24 25  1  0
 24 26  1  0
 26 27  1  0
 26  7  1  0
 19 14  1  0
  1 28  1  0
  1 29  1  0
  1 30  1  0
  2 31  1  0
  2 32  1  0
  3 33  1  0
  3 34  1  0
  6 35  1  0
  7 36  1  6
 13 37  1  0
 15 38  1  0
 16 39  1  0
 17 40  1  0
 18 41  1  0
 19 42  1  0
 21 43  1  1
 22 44  1  0
 22 45  1  0
 23 46  1  0
 24 47  1  6
 25 48  1  0
 26 49  1  1
 27 50  1  0
M  END
>  <meeko>  (5) 
{"is_sidechain": [false], "free_energy": -7.591, "intermolecular_energy": -11.079, "internal_energy": -0.886}

$$$$
2wca_ligand
     RDKit          3D

 50 51  0  0  0  0  0  0  0  0999 V2000
   17.3820    4.5300   -6.0500 C   0  0  0  0  0  0  0  0  0  0  0  0
   16.6660    3.9860   -7.2760 C   0  0  0  0  0  0  0  0  0  0  0  0
   16.0030    2.6420   -6.9870 C   0  0  0  0  0  0  0  0  0  0  0  0
   16.9670    1.4820   -7.1380 C   0  0  0  0  0  0  0  0  0  0  0  0
   17.7620    1.3620   -8.0640 O   0  0  0  0  0  0  0  0  0  0  0  0
   16.8500    0.5450   -6.1390 N   0  0  0  0  0  0  0  0  0  0  0  0
   17.8100   -0.5590   -5.9490 C   0  0  1  0  0  0  0  0  0  0  0  0
   17.8970   -0.7860   -4.4410 C   0  0  0  0  0  0  0  0  0  0  0  0
   17.8230    0.2410   -3.6480 N   0  0  0  0  0  0  0  0  0  0  0  0
   17.9560   -0.1560   -2.3030 O   0  0  0  0  0  0  0  0  0  0  0  0
   17.1750    0.6290   -1.4860 C   0  0  0  0  0  0  0  0  0  0  0  0
   17.5760    1.1980   -0.4780 O   0  0  0  0  0  0  0  0  0  0  0  0
   15.9060    0.6590   -2.0080 N   0  0  0  0  0  0  0  0  0  0  0  0
   14.7730    1.3320   -1.5200 C   0  0  0  0  0  0  0  0  0  0  0  0
   13.6590    0.6890   -0.9760 C   0  0  0  0  0  0  0  0  0  0  0  0
   12.5700    1.4340   -0.5110 C   0  0  0  0  0  0  0  0  0  0  0  0
   12.5860    2.8240   -0.5860 C   0  0  0  0  0  0  0  0  0  0  0  0
   13.6920    3.4730   -1.1260 C   0  0  0  0  0  0  0  0  0  0  0  0
   14.7800    2.7310   -1.5920 C   0  0  0  0  0  0  0  0  0  0  0  0
   18.1090   -2.0180   -3.9510 O   0  0  0  0  0  0  0  0  0  0  0  0
   17.7610   -3.1980   -4.7070 C   0  0  2  0  0  0  0  0  0  0  0  0
   18.4670   -4.3990   -4.0600 C   0  0  0  0  0  0  0  0  0  0  0  0
   17.6540   -5.5720   -4.1440 O   0  0  0  0  0  0  0  0  0  0  0  0
   18.1480   -3.0490   -6.1670 C   0  0  1  0  0  0  0  0  0  0  0  0
   17.7540   -4.2000   -6.9180 O   0  0  0  0  0  0  0  0  0  0  0  0
   17.4500   -1.8180   -6.7420 C   0  0  2  0  0  0  0  0  0  0  0  0
   17.8830   -1.7440   -8.1140 O   0  0  0  0  0  0  0  0  0  0  0  0
   16.8888    4.1553   -5.1410 H   0  0  0  0  0  0  0  0  0  0  0  0
   18.4310    4.1990   -6.0610 H   0  0  0  0  0  0  0  0  0  0  0  0
   17.3443    5.6293   -6.0610 H   0  0  0  0  0  0  0  0  0  0  0  0
   15.8944    4.7054   -7.5877 H   0  0  0  0  0  0  0  0  0  0  0  0
   17.4099    3.8393   -8.0729 H   0  0  0  0  0  0  0  0  0  0  0  0
   15.6189    2.6512   -5.9563 H   0  0  0  0  0  0  0  0  0  0  0  0
   15.1914    2.5028   -7.7163 H   0  0  0  0  0  0  0  0  0  0  0  0
   16.3770    0.8500   -5.2870 H   0  0  0  0  0  0  0  0  0  0  0  0
   18.7975   -0.2937   -6.3546 H   0  0  0  0  0  0  0  0  0  0  0  0
   15.8010    0.1150   -2.8530 H   0  0  0  0  0  0  0  0  0  0  0  0
   13.6377   -0.4090   -0.9128 H   0  0  0  0  0  0  0  0  0  0  0  0
   11.6968    0.9189   -0.0840 H   0  0  0  0  0  0  0  0  0  0  0  0
   11.7279    3.4068   -0.2199 H   0  0  0  0  0  0  0  0  0  0  0  0
   13.7097    4.5712   -1.1860 H   0  0  0  0  0  0  0  0  0  0  0  0
   15.6505    3.2502   -2.0195 H   0  0  0  0  0  0  0  0  0  0  0  0
   16.6718   -3.3502   -4.6874 H   0  0  0  0  0  0  0  0  0  0  0  0
   19.4184   -4.5816   -4.5811 H   0  0  0  0  0  0  0  0  0  0  0  0
   18.6487   -4.1714   -2.9993 H   0  0  0  0  0  0  0  0  0  0  0  0
   17.1590   -5.6440   -3.3100 H   0  0  0  0  0  0  0  0  0  0  0  0
   19.2407   -2.9413   -6.2336 H   0  0  0  0  0  0  0  0  0  0  0  0
   18.0410   -4.0090   -7.8370 H   0  0  0  0  0  0  0  0  0  0  0  0
   16.3544   -1.8929   -6.6781 H   0  0  0  0  0  0  0  0  0  0  0  0
   18.2030   -2.6440   -8.3620 H   0  0  0  0  0  0  0  0  0  0  0  0
  1  2  1  0
  2  3  1  0
  3  4  1  0
  4  5  2  0
  4  6  1  0
  6  7  1  0
  7  8  1  0
  8  9  2  0
  9 10  1  0
 10 11  1  0
 11 12  2  0
 11 13  1  0
 13 14  1  0
 14 15  2  0
 15 16  1  0
 16 17  2  0
 17 18  1  0
 18 19  2  0
  8 20  1  0
 20 21  1  0
 21 22  1  0
 22 23  1  0
 21 24  1  0
 24 25  1  0
 24 26  1  0
 26 27  1  0
 26  7  1  0
 19 14  1  0
  1 28  1  0
  1 29  1  0
  1 30  1  0
  2 31  1  0
  2 32  1  0
  3 33  1  0
  3 34  1  0
  6 35  1  0
  7 36  1  6
 13 37  1  0
 15 38  1  0
 16 39  1  0
 17 40  1  0
 18 41  1  0
 19 42  1  0
 21 43  1  6
 22 44  1  0
 22 45  1  0
 23 46  1  0
 24 47  1  1
 25 48  1  0
 26 49  1  6
 27 50  1  0
M  END
>  <meeko>  (6) 
{"is_sidechain": [false], "free_energy": -7.434, "intermolecular_energy": -10.42, "internal_energy": -1.31}

$$$$
2wca_ligand
     RDKit          3D

 50 51  0  0  0  0  0  0  0  0999 V2000
   16.6310    3.1210   -5.5640 C   0  0  0  0  0  0  0  0  0  0  0  0
   15.3310    2.3960   -5.2590 C   0  0  0  0  0  0  0  0  0  0  0  0
   15.5840    1.0560   -4.5730 C   0  0  0  0  0  0  0  0  0  0  0  0
   15.3350    1.1220   -3.0780 C   0  0  0  0  0  0  0  0  0  0  0  0
   15.6660    0.2480   -2.2850 O   0  0  0  0  0  0  0  0  0  0  0  0
   14.6690    2.2600   -2.6890 N   0  0  0  0  0  0  0  0  0  0  0  0
   14.4960    2.6530   -1.2780 C   0  0  1  0  0  0  0  0  0  0  0  0
   15.5850    3.6870   -0.9930 C   0  0  0  0  0  0  0  0  0  0  0  0
   16.7450    3.5450   -1.5580 N   0  0  0  0  0  0  0  0  0  0  0  0
   17.6270    4.5670   -1.1540 O   0  0  0  0  0  0  0  0  0  0  0  0
   18.8360    4.0390   -0.7630 C   0  0  0  0  0  0  0  0  0  0  0  0
   19.0870    2.8410   -0.7090 O   0  0  0  0  0  0  0  0  0  0  0  0
   19.6810    5.0790   -0.4680 N   0  0  0  0  0  0  0  0  0  0  0  0
   21.0160    5.0260   -0.0310 C   0  0  0  0  0  0  0  0  0  0  0  0
   22.0710    4.5420   -0.8070 C   0  0  0  0  0  0  0  0  0  0  0  0
   23.3740    4.5230   -0.2980 C   0  0  0  0  0  0  0  0  0  0  0  0
   23.6320    4.9880    0.9880 C   0  0  0  0  0  0  0  0  0  0  0  0
   22.5870    5.4730    1.7700 C   0  0  0  0  0  0  0  0  0  0  0  0
   21.2850    5.4910    1.2630 C   0  0  0  0  0  0  0  0  0  0  0  0
   15.3600    4.6870   -0.1250 O   0  0  0  0  0  0  0  0  0  0  0  0
   14.0230    5.1420    0.1690 C   0  0  2  0  0  0  0  0  0  0  0  0
   14.0830    5.9940    1.4450 C   0  0  0  0  0  0  0  0  0  0  0  0
   13.1450    7.0720    1.3820 O   0  0  0  0  0  0  0  0  0  0  0  0
   13.0670    3.9730    0.3280 C   0  0  1  0  0  0  0  0  0  0  0  0
   11.7350    4.4330    0.5680 O   0  0  0  0  0  0  0  0  0  0  0  0
   13.0810    3.1430   -0.9540 C   0  0  2  0  0  0  0  0  0  0  0  0
   12.1690    2.0560   -0.7100 O   0  0  0  0  0  0  0  0  0  0  0  0
   17.1265    3.3974   -4.6216 H   0  0  0  0  0  0  0  0  0  0  0  0
   17.2913    2.4609   -6.1456 H   0  0  0  0  0  0  0  0  0  0  0  0
   16.4164    4.0297   -6.1456 H   0  0  0  0  0  0  0  0  0  0  0  0
   14.7175    3.0256   -4.5978 H   0  0  0  0  0  0  0  0  0  0  0  0
   14.8123    2.2039   -6.2098 H   0  0  0  0  0  0  0  0  0  0  0  0
   14.9138    0.3017   -5.0109 H   0  0  0  0  0  0  0  0  0  0  0  0
   16.6403    0.7911   -4.7282 H   0  0  0  0  0  0  0  0  0  0  0  0
   14.6790    3.0380   -3.3500 H   0  0  0  0  0  0  0  0  0  0  0  0
   14.6077    1.7841   -0.6128 H   0  0  0  0  0  0  0  0  0  0  0  0
   19.2620    5.9910   -0.5860 H   0  0  0  0  0  0  0  0  0  0  0  0
   21.8764    4.1733   -1.8249 H   0  0  0  0  0  0  0  0  0  0  0  0
   24.1982    4.1388   -0.9170 H   0  0  0  0  0  0  0  0  0  0  0  0
   24.6576    4.9725    1.3852 H   0  0  0  0  0  0  0  0  0  0  0  0
   22.7864    5.8420    2.7869 H   0  0  0  0  0  0  0  0  0  0  0  0
   20.4632    5.8740    1.8859 H   0  0  0  0  0  0  0  0  0  0  0  0
   13.6394    5.7469   -0.6658 H   0  0  0  0  0  0  0  0  0  0  0  0
   13.8464    5.3607    2.3127 H   0  0  0  0  0  0  0  0  0  0  0  0
   15.0954    6.4134    1.5410 H   0  0  0  0  0  0  0  0  0  0  0  0
   13.2500    7.5970    2.1930 H   0  0  0  0  0  0  0  0  0  0  0  0
   13.3912    3.3666    1.1866 H   0  0  0  0  0  0  0  0  0  0  0  0
   11.3150    4.4570   -0.3180 H   0  0  0  0  0  0  0  0  0  0  0  0
   12.7715    3.7284   -1.8324 H   0  0  0  0  0  0  0  0  0  0  0  0
   11.4000    2.4320   -0.2200 H   0  0  0  0  0  0  0  0  0  0  0  0
  1  2  1  0
  2  3  1  0
  3  4  1  0
  4  5  2  0
  4  6  1  0
  6  7  1  0
  7  8  1  0
  8  9  2  0
  9 10  1  0
 10 11  1  0
 11 12  2  0
 11 13  1  0
 13 14  1  0
 14 15  2  0
 15 16  1  0
 16 17  2  0
 17 18  1  0
 18 19  2  0
  8 20  1  0
 20 21  1  0
 21 22  1  0
 22 23  1  0
 21 24  1  0
 24 25  1  0
 24 26  1  0
 26 27  1  0
 26  7  1  0
 19 14  1  0
  1 28  1  0
  1 29  1  0
  1 30  1  0
  2 31  1  0
  2 32  1  0
  3 33  1  0
  3 34  1  0
  6 35  1  0
  7 36  1  1
 13 37  1  0
 15 38  1  0
 16 39  1  0
 17 40  1  0
 18 41  1  0
 19 42  1  0
 21 43  1  6
 22 44  1  0
 22 45  1  0
 23 46  1  0
 24 47  1  1
 25 48  1  0
 26 49  1  6
 27 50  1  0
M  END
>  <meeko>  (7) 
{"is_sidechain": [false], "free_energy": -7.405, "intermolecular_energy": -10.824, "internal_energy": -0.862}

$$$$
2wca_ligand
     RDKit          3D

 50 51  0  0  0  0  0  0  0  0999 V2000
   21.1160    4.9120    0.3960 C   0  0  0  0  0  0  0  0  0  0  0  0
   21.0360    4.3030   -0.9950 C   0  0  0  0  0  0  0  0  0  0  0  0
   19.8670    3.3280   -1.1120 C   0  0  0  0  0  0  0  0  0  0  0  0
   18.5440    4.0420   -1.3100 C   0  0  0  0  0  0  0  0  0  0  0  0
   18.4240    5.1360   -1.8500 O   0  0  0  0  0  0  0  0  0  0  0  0
   17.4730    3.3510   -0.7960 N   0  0  0  0  0  0  0  0  0  0  0  0
   16.0690    3.7310   -1.0450 C   0  0  1  0  0  0  0  0  0  0  0  0
   15.4850    2.6290   -1.9260 C   0  0  0  0  0  0  0  0  0  0  0  0
   16.2440    2.0740   -2.8220 N   0  0  0  0  0  0  0  0  0  0  0  0
   15.5280    1.1090   -3.5570 O   0  0  0  0  0  0  0  0  0  0  0  0
   15.7110    1.2940   -4.9090 C   0  0  0  0  0  0  0  0  0  0  0  0
   15.0670    2.0770   -5.5960 O   0  0  0  0  0  0  0  0  0  0  0  0
   16.7280    0.4690   -5.3190 N   0  0  0  0  0  0  0  0  0  0  0  0
   17.2660    0.3170   -6.6090 C   0  0  0  0  0  0  0  0  0  0  0  0
   18.0350    1.2890   -7.2520 C   0  0  0  0  0  0  0  0  0  0  0  0
   18.5350    1.0600   -8.5380 C   0  0  0  0  0  0  0  0  0  0  0  0
   18.2690   -0.1410   -9.1900 C   0  0  0  0  0  0  0  0  0  0  0  0
   17.5030   -1.1160   -8.5580 C   0  0  0  0  0  0  0  0  0  0  0  0
   17.0030   -0.8880   -7.2740 C   0  0  0  0  0  0  0  0  0  0  0  0
   14.1910    2.2860   -1.8140 O   0  0  0  0  0  0  0  0  0  0  0  0
   13.4510    2.5240   -0.5980 C   0  0  2  0  0  0  0  0  0  0  0  0
   11.9560    2.3860   -0.9190 C   0  0  0  0  0  0  0  0  0  0  0  0
   11.4260    3.6200   -1.4110 O   0  0  0  0  0  0  0  0  0  0  0  0
   13.7700    3.8910   -0.0210 C   0  0  1  0  0  0  0  0  0  0  0  0
   13.0730    4.0990    1.2110 O   0  0  0  0  0  0  0  0  0  0  0  0
   15.2730    3.9830    0.2380 C   0  0  2  0  0  0  0  0  0  0  0  0
   15.4860    5.3060    0.7650 O   0  0  0  0  0  0  0  0  0  0  0  0
   21.0117    4.1182    1.1503 H   0  0  0  0  0  0  0  0  0  0  0  0
   22.0876    5.4122    0.5220 H   0  0  0  0  0  0  0  0  0  0  0  0
   20.3066    5.6461    0.5220 H   0  0  0  0  0  0  0  0  0  0  0  0
   20.9040    5.1095   -1.7313 H   0  0  0  0  0  0  0  0  0  0  0  0
   21.9676    3.7494   -1.1837 H   0  0  0  0  0  0  0  0  0  0  0  0
   20.0437    2.6645   -1.9714 H   0  0  0  0  0  0  0  0  0  0  0  0
   19.8065    2.7587   -0.1728 H   0  0  0  0  0  0  0  0  0  0  0  0
   17.6200    2.3560   -0.6200 H   0  0  0  0  0  0  0  0  0  0  0  0
   16.0106    4.7024   -1.5577 H   0  0  0  0  0  0  0  0  0  0  0  0
   17.1210   -0.0930   -4.5770 H   0  0  0  0  0  0  0  0  0  0  0  0
   18.2489    2.2409   -6.7439 H   0  0  0  0  0  0  0  0  0  0  0  0
   19.1405    1.8316   -9.0360 H   0  0  0  0  0  0  0  0  0  0  0  0
   18.6630   -0.3187  -10.2015 H   0  0  0  0  0  0  0  0  0  0  0  0
   17.2913   -2.0664   -9.0698 H   0  0  0  0  0  0  0  0  0  0  0  0
   16.3970   -1.6618   -6.7801 H   0  0  0  0  0  0  0  0  0  0  0  0
   13.7370    1.7876    0.1675 H   0  0  0  0  0  0  0  0  0  0  0  0
   11.8217    1.6058   -1.6827 H   0  0  0  0  0  0  0  0  0  0  0  0
   11.4210    2.1153    0.0032 H   0  0  0  0  0  0  0  0  0  0  0  0
   10.8400    3.9800   -0.7240 H   0  0  0  0  0  0  0  0  0  0  0  0
   13.4532    4.6602   -0.7407 H   0  0  0  0  0  0  0  0  0  0  0  0
   13.7360    4.5090    1.8070 H   0  0  0  0  0  0  0  0  0  0  0  0
   15.6216    3.2170    0.9463 H   0  0  0  0  0  0  0  0  0  0  0  0
   16.4050    5.5680    0.5200 H   0  0  0  0  0  0  0  0  0  0  0  0
  1  2  1  0
  2  3  1  0
  3  4  1  0
  4  5  2  0
  4  6  1  0
  6  7  1  0
  7  8  1  0
  8  9  2  0
  9 10  1  0
 10 11  1  0
 11 12  2  0
 11 13  1  0
 13 14  1  0
 14 15  2  0
 15 16  1  0
 16 17  2  0
 17 18  1  0
 18 19  2  0
  8 20  1  0
 20 21  1  0
 21 22  1  0
 22 23  1  0
 21 24  1  0
 24 25  1  0
 24 26  1  0
 26 27  1  0
 26  7  1  0
 19 14  1  0
  1 28  1  0
  1 29  1  0
  1 30  1  0
  2 31  1  0
  2 32  1  0
  3 33  1  0
  3 34  1  0
  6 35  1  0
  7 36  1  6
 13 37  1  0
 15 38  1  0
 16 39  1  0
 17 40  1  0
 18 41  1  0
 19 42  1  0
 21 43  1  1
 22 44  1  0
 22 45  1  0
 23 46  1  0
 24 47  1  6
 25 48  1  0
 26 49  1  1
 27 50  1  0
M  END
>  <meeko>  (8) 
{"is_sidechain": [false], "free_energy": -7.13, "intermolecular_energy": -10.27, "internal_energy": -1.005}

$$$$
2wca_ligand
     RDKit          3D

 50 51  0  0  0  0  0  0  0  0999 V2000
   12.9650    6.9870    3.2560 C   0  0  0  0  0  0  0  0  0  0  0  0
   13.0710    5.8210    2.2860 C   0  0  0  0  0  0  0  0  0  0  0  0
   13.1800    6.3020    0.8420 C   0  0  0  0  0  0  0  0  0  0  0  0
   13.1280    5.1560   -0.1490 C   0  0  0  0  0  0  0  0  0  0  0  0
   12.1580    4.8950   -0.8520 O   0  0  0  0  0  0  0  0  0  0  0  0
   14.2790    4.4040   -0.1690 N   0  0  0  0  0  0  0  0  0  0  0  0
   14.5520    3.3710   -1.1870 C   0  0  1  0  0  0  0  0  0  0  0  0
   16.0580    3.4160   -1.4380 C   0  0  0  0  0  0  0  0  0  0  0  0
   16.6650    4.5640   -1.4040 N   0  0  0  0  0  0  0  0  0  0  0  0
   18.0360    4.4140   -1.6900 O   0  0  0  0  0  0  0  0  0  0  0  0
   18.3810    5.1360   -2.8090 C   0  0  0  0  0  0  0  0  0  0  0  0
   18.0630    4.8380   -3.9540 O   0  0  0  0  0  0  0  0  0  0  0  0
   19.1130    6.2250   -2.4060 N   0  0  0  0  0  0  0  0  0  0  0  0
   19.6750    7.2430   -3.1950 C   0  0  0  0  0  0  0  0  0  0  0  0
   19.0490    7.7980   -4.3130 C   0  0  0  0  0  0  0  0  0  0  0  0
   19.6760    8.8100   -5.0460 C   0  0  0  0  0  0  0  0  0  0  0  0
   20.9330    9.2760   -4.6680 C   0  0  0  0  0  0  0  0  0  0  0  0
   21.5650    8.7290   -3.5540 C   0  0  0  0  0  0  0  0  0  0  0  0
   20.9390    7.7170   -2.8220 C   0  0  0  0  0  0  0  0  0  0  0  0
   16.7280    2.2930   -1.7480 O   0  0  0  0  0  0  0  0  0  0  0  0
   16.2300    0.9920   -1.3720 C   0  0  2  0  0  0  0  0  0  0  0  0
   16.9940   -0.0600   -2.1880 C   0  0  0  0  0  0  0  0  0  0  0  0
   18.1510   -0.5130   -1.4780 O   0  0  0  0  0  0  0  0  0  0  0  0
   14.7330    0.8900   -1.6010 C   0  0  1  0  0  0  0  0  0  0  0  0
   14.2390   -0.3840   -1.1780 O   0  0  0  0  0  0  0  0  0  0  0  0
   14.0320    1.9840   -0.7980 C   0  0  2  0  0  0  0  0  0  0  0  0
   12.6300    1.8240   -1.0850 O   0  0  0  0  0  0  0  0  0  0  0  0
   12.9993    6.6093    4.2885 H   0  0  0  0  0  0  0  0  0  0  0  0
   13.8039    7.6790    3.0906 H   0  0  0  0  0  0  0  0  0  0  0  0
   12.0150    7.5163    3.0906 H   0  0  0  0  0  0  0  0  0  0  0  0
   13.9649    5.2299    2.5341 H   0  0  0  0  0  0  0  0  0  0  0  0
   12.1600    5.2115    2.3786 H   0  0  0  0  0  0  0  0  0  0  0  0
   12.3463    6.9887    0.6335 H   0  0  0  0  0  0  0  0  0  0  0  0
   14.1515    6.8048    0.7261 H   0  0  0  0  0  0  0  0  0  0  0  0
   15.1110    4.8400    0.2290 H   0  0  0  0  0  0  0  0  0  0  0  0
   14.0020    3.5811   -2.1162 H   0  0  0  0  0  0  0  0  0  0  0  0
   19.2530    6.2740   -1.4060 H   0  0  0  0  0  0  0  0  0  0  0  0
   18.0561    7.4366   -4.6190 H   0  0  0  0  0  0  0  0  0  0  0  0
   19.1743    9.2402   -5.9253 H   0  0  0  0  0  0  0  0  0  0  0  0
   21.4242   10.0722   -5.2466 H   0  0  0  0  0  0  0  0  0  0  0  0
   22.5573    9.0939   -3.2504 H   0  0  0  0  0  0  0  0  0  0  0  0
   21.4440    7.2882   -1.9439 H   0  0  0  0  0  0  0  0  0  0  0  0
   16.3934    0.8221   -0.2976 H   0  0  0  0  0  0  0  0  0  0  0  0
   16.3317   -0.9166   -2.3819 H   0  0  0  0  0  0  0  0  0  0  0  0
   17.3180    0.3960   -3.1351 H   0  0  0  0  0  0  0  0  0  0  0  0
   18.6090   -1.1540   -2.0460 H   0  0  0  0  0  0  0  0  0  0  0  0
   14.5318    1.0085   -2.6759 H   0  0  0  0  0  0  0  0  0  0  0  0
   14.1590   -0.3110   -0.2030 H   0  0  0  0  0  0  0  0  0  0  0  0
   14.2251    1.8977    0.2815 H   0  0  0  0  0  0  0  0  0  0  0  0
   12.5630    1.4990   -2.0140 H   0  0  0  0  0  0  0  0  0  0  0  0
  1  2  1  0
  2  3  1  0
  3  4  1  0
  4  5  2  0
  4  6  1  0
  6  7  1  0
  7  8  1  0
  8  9  2  0
  9 10  1  0
 10 11  1  0
 11 12  2  0
 11 13  1  0
 13 14  1  0
 14 15  2  0
 15 16  1  0
 16 17  2  0
 17 18  1  0
 18 19  2  0
  8 20  1  0
 20 21  1  0
 21 22  1  0
 22 23  1  0
 21 24  1  0
 24 25  1  0
 24 26  1  0
 26 27  1  0
 26  7  1  0
 19 14  1  0
  1 28  1  0
  1 29  1  0
  1 30  1  0
  2 31  1  0
  2 32  1  0
  3 33  1  0
  3 34  1  0
  6 35  1  0
  7 36  1  6
 13 37  1  0
 15 38  1  0
 16 39  1  0
 17 40  1  0
 18 41  1  0
 19 42  1  0
 21 43  1  1
 22 44  1  0
 22 45  1  0
 23 46  1  0
 24 47  1  6
 25 48  1  0
 26 49  1  1
 27 50  1  0
M  END
>  <meeko>  (9) 
{"is_sidechain": [false], "free_energy": -7.06, "intermolecular_energy": -10.409, "internal_energy": -0.761}

$$$$
