
     RDKit          3D

 23 26  0  0  0  0  0  0  0  0999 V2000
   -0.6490   -1.0480   12.2650 C   0  0  0  0  0  0  0  0  0  0  0  0
   -0.8530   -0.7900   10.7730 C   0  0  1  0  0  0  0  0  0  0  0  0
    0.1040   -1.5330   10.0350 O   0  0  0  0  0  0  0  0  0  0  0  0
   -2.2240   -1.2000   10.3450 C   0  0  0  0  0  0  0  0  0  0  0  0
   -2.9210   -2.1870   10.8890 N   0  0  0  0  0  0  0  0  0  0  0  0
   -4.1060   -2.2790   10.2450 C   0  0  0  0  0  0  0  0  0  0  0  0
   -5.1800   -3.1420   10.4250 C   0  0  0  0  0  0  0  0  0  0  0  0
   -6.2930   -3.0520    9.6370 N   0  0  0  0  0  0  0  0  0  0  0  0
   -6.3390   -2.1050    8.6910 C   0  0  0  0  0  0  0  0  0  0  0  0
   -7.3400   -1.8510    7.8260 N   0  0  0  0  0  0  0  0  0  0  0  0
   -6.9740   -0.8070    7.0370 C   0  0  0  0  0  0  0  0  0  0  0  0
   -5.7160   -0.3840    7.4000 C   0  0  0  0  0  0  0  0  0  0  0  0
   -5.2830   -1.2010    8.4590 C   0  0  0  0  0  0  0  0  0  0  0  0
   -4.1400   -1.3010    9.2630 C   0  0  0  0  0  0  0  0  0  0  0  0
   -2.9240   -0.6260    9.3380 N   0  0  0  0  0  0  0  0  0  0  0  0
   -2.3900    0.4430    8.5430 C   0  0  1  0  0  0  0  0  0  0  0  0
   -2.2210    0.0620    7.0680 C   0  0  0  0  0  0  0  0  0  0  0  0
   -1.5690    1.1790    6.3070 C   0  0  0  0  0  0  0  0  0  0  0  0
   -2.3180    2.4820    6.4570 C   0  0  2  0  0  0  0  0  0  0  0  0
   -1.6280    3.5850    5.7430 C   0  0  0  0  0  0  0  0  0  0  0  0
   -1.0820    4.4570    5.2030 N   0  0  0  0  0  0  0  0  0  0  0  0
   -2.4880    2.8600    7.9170 C   0  0  0  0  0  0  0  0  0  0  0  0
   -3.1700    1.7440    8.6890 C   0  0  0  0  0  0  0  0  0  0  0  0
  2  1  1  1
  3  2  1  0
  4  2  1  0
  5  4  2  0
  6  5  1  0
  7  6  2  0
  8  7  1  0
  9  8  2  0
 10  9  1  0
 11 10  1  0
 12 11  2  0
 13 12  1  0
 13  9  1  0
 14 13  2  0
 14  6  1  0
 15 14  1  0
 15  4  1  0
 16 15  1  1
 17 16  1  0
 18 17  1  0
 19 18  1  0
 19 20  1  6
 21 20  3  0
 22 19  1  0
 23 22  1  0
 23 16  1  0
M  END
$$$$
