
     RDKit          3D

 25 28  0  0  0  0  0  0  0  0999 V2000
    0.0950    3.7620  -12.6390 O   0  0  0  0  0  0  0  0  0  0  0  0
    0.7460    2.7900  -12.2520 C   0  0  0  0  0  0  0  0  0  0  0  0
    0.2360    1.5350  -11.9890 N   0  0  0  0  0  0  0  0  0  0  0  0
    1.2520    0.7160  -11.5540 C   0  0  0  0  0  0  0  0  0  0  0  0
    1.1240   -0.4490  -11.2510 O   0  0  0  0  0  0  0  0  0  0  0  0
    2.5300    1.4910  -11.6080 C   0  0  2  0  0  0  0  0  0  0  0  0
    3.2980    1.5520  -10.3240 C   0  0  0  0  0  0  0  0  0  0  0  0
    3.4820    2.6590   -9.5440 C   0  0  0  0  0  0  0  0  0  0  0  0
    4.2140    2.2910   -8.5140 N   0  0  0  0  0  0  0  0  0  0  0  0
    4.6170    3.1310   -7.4640 C   0  0  0  0  0  0  0  0  0  0  0  0
    5.6110    2.7390   -6.6080 C   0  0  0  0  0  0  0  0  0  0  0  0
    6.0160    3.5770   -5.5650 C   0  0  0  0  0  0  0  0  0  0  0  0
    5.4240    4.8090   -5.3870 C   0  0  0  0  0  0  0  0  0  0  0  0
    4.4110    5.2060   -6.2510 C   0  0  0  0  0  0  0  0  0  0  0  0
    4.0120    4.3760   -7.2820 C   0  0  0  0  0  0  0  0  0  0  0  0
    4.5300    1.0040   -8.5980 N   0  0  0  0  0  0  0  0  0  0  0  0
    3.9700    0.5300   -9.6980 C   0  0  0  0  0  0  0  0  0  0  0  0
    4.0590   -0.8710  -10.1230 C   0  0  0  0  0  0  0  0  0  0  0  0
    3.9560   -1.8710   -9.1870 C   0  0  0  0  0  0  0  0  0  0  0  0
    4.0450   -3.2150   -9.5580 C   0  0  0  0  0  0  0  0  0  0  0  0
    4.2410   -3.5340  -10.8790 C   0  0  0  0  0  0  0  0  0  0  0  0
    4.3350   -4.8370  -11.2410 F   0  0  0  0  0  0  0  0  0  0  0  0
    4.3370   -2.5430  -11.8350 C   0  0  0  0  0  0  0  0  0  0  0  0
    4.2500   -1.2060  -11.4560 C   0  0  0  0  0  0  0  0  0  0  0  0
    2.0620    2.8150  -12.0090 N   0  0  0  0  0  0  0  0  0  0  0  0
  2  1  2  0
  3  2  1  0
  4  3  1  0
  5  4  2  0
  6  4  1  0
  6  7  1  1
  8  7  2  0
  9  8  1  0
 10  9  1  0
 11 10  2  0
 12 11  1  0
 13 12  2  0
 14 13  1  0
 15 14  2  0
 15 10  1  0
 16  9  1  0
 17 16  2  0
 17  7  1  0
 18 17  1  0
 19 18  2  0
 20 19  1  0
 21 20  2  0
 22 21  1  0
 23 21  1  0
 24 23  2  0
 24 18  1  0
 25  6  1  0
 25  2  1  0
M  END
$$$$
