1qkt_ligand
     RDKit          3D

 44 47  0  0  0  0  0  0  0  0999 V2000
  -12.0780    9.9000    5.0600 C   0  0  0  0  0  0  0  0  0  0  0  0
  -12.5660   10.6300    6.3370 C   0  0  2  0  0  0  0  0  0  0  0  0
  -13.0760   12.0260    5.9570 C   0  0  0  0  0  0  0  0  0  0  0  0
  -11.9280   12.9570    5.5220 C   0  0  0  0  0  0  0  0  0  0  0  0
  -10.7580   13.0190    6.5400 C   0  0  2  0  0  0  0  0  0  0  0  0
   -9.5770   13.8920    6.1170 C   0  0  0  0  0  0  0  0  0  0  0  0
   -9.7710   15.0480    5.3400 C   0  0  0  0  0  0  0  0  0  0  0  0
   -8.6990   15.8720    4.9880 C   0  0  0  0  0  0  0  0  0  0  0  0
   -7.4220   15.5580    5.4190 C   0  0  0  0  0  0  0  0  0  0  0  0
   -6.4030   16.3860    5.0510 O   0  0  0  0  0  0  0  0  0  0  0  0
   -7.1980   14.4370    6.2070 C   0  0  0  0  0  0  0  0  0  0  0  0
   -8.2710   13.6040    6.5750 C   0  0  0  0  0  0  0  0  0  0  0  0
   -7.9610   12.3880    7.4150 C   0  0  0  0  0  0  0  0  0  0  0  0
   -9.1930   11.7120    8.0110 C   0  0  0  0  0  0  0  0  0  0  0  0
  -10.2850   11.5900    6.9450 C   0  0  1  0  0  0  0  0  0  0  0  0
  -11.4950   10.7940    7.4350 C   0  0  2  0  0  0  0  0  0  0  0  0
  -11.2960    9.3720    7.9530 C   0  0  0  0  0  0  0  0  0  0  0  0
  -12.6980    8.7420    7.8640 C   0  0  0  0  0  0  0  0  0  0  0  0
  -13.5780    9.7600    7.1090 C   0  0  2  0  0  0  0  0  0  0  0  0
  -14.5460    9.1320    6.2920 O   0  0  0  0  0  0  0  0  0  0  0  0
  -11.4876    9.0169    5.3455 H   0  0  0  0  0  0  0  0  0  0  0  0
  -12.9467    9.5834    4.4641 H   0  0  0  0  0  0  0  0  0  0  0  0
  -11.4533   10.5816    4.4641 H   0  0  0  0  0  0  0  0  0  0  0  0
  -13.7904   11.9299    5.1261 H   0  0  0  0  0  0  0  0  0  0  0  0
  -13.5561   12.4670    6.8430 H   0  0  0  0  0  0  0  0  0  0  0  0
  -11.5335   12.5967    4.5605 H   0  0  0  0  0  0  0  0  0  0  0  0
  -12.3460   13.9719    5.4491 H   0  0  0  0  0  0  0  0  0  0  0  0
  -11.1803   13.5239    7.4213 H   0  0  0  0  0  0  0  0  0  0  0  0
  -10.7853   15.3082    5.0032 H   0  0  0  0  0  0  0  0  0  0  0  0
   -8.8693   16.7665    4.3709 H   0  0  0  0  0  0  0  0  0  0  0  0
   -6.4570   17.1970    5.5820 H   0  0  0  0  0  0  0  0  0  0  0  0
   -6.1785   14.1992    6.5448 H   0  0  0  0  0  0  0  0  0  0  0  0
   -7.4370   11.6559    6.7829 H   0  0  0  0  0  0  0  0  0  0  0  0
   -7.3487   12.7342    8.2607 H   0  0  0  0  0  0  0  0  0  0  0  0
   -8.9207   10.7089    8.3712 H   0  0  0  0  0  0  0  0  0  0  0  0
   -9.5696   12.3173    8.8487 H   0  0  0  0  0  0  0  0  0  0  0  0
   -9.8533   11.0516    6.0884 H   0  0  0  0  0  0  0  0  0  0  0  0
  -11.7748   11.4304    8.2875 H   0  0  0  0  0  0  0  0  0  0  0  0
  -10.5803    8.8233    7.3232 H   0  0  0  0  0  0  0  0  0  0  0  0
  -10.8853    9.3472    8.9732 H   0  0  0  0  0  0  0  0  0  0  0  0
  -12.6550    7.7914    7.3121 H   0  0  0  0  0  0  0  0  0  0  0  0
  -13.1040    8.5229    8.8626 H   0  0  0  0  0  0  0  0  0  0  0  0
  -14.1955   10.3748    7.7803 H   0  0  0  0  0  0  0  0  0  0  0  0
  -14.4160    8.1700    6.3390 H   0  0  0  0  0  0  0  0  0  0  0  0
  2  1  1  6
  2  3  1  0
  3  4  1  0
  4  5  1  0
  5  6  1  0
  6  7  2  0
  7  8  1  0
  8  9  2  0
  9 10  1  0
  9 11  1  0
 11 12  2  0
 12 13  1  0
 13 14  1  0
 14 15  1  0
 15 16  1  0
 16 17  1  0
 17 18  1  0
 18 19  1  0
 19 20  1  0
 16  2  1  0
 19  2  1  0
 15  5  1  0
 12  6  1  0
  1 21  1  0
  1 22  1  0
  1 23  1  0
  3 24  1  0
  3 25  1  0
  4 26  1  0
  4 27  1  0
  5 28  1  1
  7 29  1  0
  8 30  1  0
 10 31  1  0
 11 32  1  0
 13 33  1  0
 13 34  1  0
 14 35  1  0
 14 36  1  0
 15 37  1  6
 16 38  1  1
 17 39  1  0
 17 40  1  0
 18 41  1  0
 18 42  1  0
 19 43  1  1
 20 44  1  0
M  END
>  <meeko>  (1) 
{"is_sidechain": [false], "free_energy": -10.187, "intermolecular_energy": -10.783, "internal_energy": 0.0}

$$$$
1qkt_ligand
     RDKit          3D

 44 47  0  0  0  0  0  0  0  0999 V2000
  -10.5520   15.7020    6.7780 C   0  0  0  0  0  0  0  0  0  0  0  0
   -9.8590   14.8180    5.7100 C   0  0  2  0  0  0  0  0  0  0  0  0
  -10.9280   14.1250    4.8570 C   0  0  0  0  0  0  0  0  0  0  0  0
  -11.6930   13.0520    5.6570 C   0  0  0  0  0  0  0  0  0  0  0  0
  -10.7670   12.0340    6.3750 C   0  0  2  0  0  0  0  0  0  0  0  0
  -11.4890   10.9860    7.2210 C   0  0  0  0  0  0  0  0  0  0  0  0
  -12.7560   10.5020    6.8500 C   0  0  0  0  0  0  0  0  0  0  0  0
  -13.4010    9.5130    7.5980 C   0  0  0  0  0  0  0  0  0  0  0  0
  -12.7810    8.9860    8.7170 C   0  0  0  0  0  0  0  0  0  0  0  0
  -13.4440    8.0260    9.4220 O   0  0  0  0  0  0  0  0  0  0  0  0
  -11.5200    9.4260    9.0990 C   0  0  0  0  0  0  0  0  0  0  0  0
  -10.8570   10.4150    8.3490 C   0  0  0  0  0  0  0  0  0  0  0  0
   -9.4970   10.8660    8.8250 C   0  0  0  0  0  0  0  0  0  0  0  0
   -8.7300   11.7100    7.8120 C   0  0  0  0  0  0  0  0  0  0  0  0
   -9.6610   12.7600    7.2000 C   0  0  1  0  0  0  0  0  0  0  0  0
   -8.9230   13.7320    6.2800 C   0  0  2  0  0  0  0  0  0  0  0  0
   -7.7430   14.5310    6.8270 C   0  0  0  0  0  0  0  0  0  0  0  0
   -7.5990   15.7070    5.8430 C   0  0  0  0  0  0  0  0  0  0  0  0
   -8.8260   15.6380    4.9110 C   0  0  2  0  0  0  0  0  0  0  0  0
   -9.2780   16.9200    4.5210 O   0  0  0  0  0  0  0  0  0  0  0  0
  -10.2751   15.3487    7.7822 H   0  0  0  0  0  0  0  0  0  0  0  0
  -10.2295   16.7464    6.6549 H   0  0  0  0  0  0  0  0  0  0  0  0
  -11.6432   15.6382    6.6549 H   0  0  0  0  0  0  0  0  0  0  0  0
  -11.6435   14.8805    4.5002 H   0  0  0  0  0  0  0  0  0  0  0  0
  -10.4239   13.6284    4.0148 H   0  0  0  0  0  0  0  0  0  0  0  0
  -12.3088   13.5571    6.4157 H   0  0  0  0  0  0  0  0  0  0  0  0
  -12.2994   12.4838    4.9364 H   0  0  0  0  0  0  0  0  0  0  0  0
  -10.2954   11.4627    5.5618 H   0  0  0  0  0  0  0  0  0  0  0  0
  -13.2486   10.9092    5.9547 H   0  0  0  0  0  0  0  0  0  0  0  0
  -14.3971    9.1552    7.2984 H   0  0  0  0  0  0  0  0  0  0  0  0
  -13.9350    7.4690    8.7970 H   0  0  0  0  0  0  0  0  0  0  0  0
  -11.0379    8.9997    9.9911 H   0  0  0  0  0  0  0  0  0  0  0  0
   -9.6315   11.4620    9.7397 H   0  0  0  0  0  0  0  0  0  0  0  0
   -8.9026    9.9560    8.9939 H   0  0  0  0  0  0  0  0  0  0  0  0
   -7.8926   12.2143    8.3165 H   0  0  0  0  0  0  0  0  0  0  0  0
   -8.3442   11.0580    7.0144 H   0  0  0  0  0  0  0  0  0  0  0  0
  -10.0926   13.3429    8.0270 H   0  0  0  0  0  0  0  0  0  0  0  0
   -8.5335   13.0043    5.5529 H   0  0  0  0  0  0  0  0  0  0  0  0
   -7.9553   14.8954    7.8430 H   0  0  0  0  0  0  0  0  0  0  0  0
   -6.8251   13.9299    6.9045 H   0  0  0  0  0  0  0  0  0  0  0  0
   -7.5874   16.6620    6.3887 H   0  0  0  0  0  0  0  0  0  0  0  0
   -6.6591   15.6429    5.2752 H   0  0  0  0  0  0  0  0  0  0  0  0
   -8.6048   15.1596    3.9455 H   0  0  0  0  0  0  0  0  0  0  0  0
   -9.6670   17.3610    5.2950 H   0  0  0  0  0  0  0  0  0  0  0  0
  2  1  1  1
  2  3  1  0
  3  4  1  0
  4  5  1  0
  5  6  1  0
  6  7  2  0
  7  8  1  0
  8  9  2  0
  9 10  1  0
  9 11  1  0
 11 12  2  0
 12 13  1  0
 13 14  1  0
 14 15  1  0
 15 16  1  0
 16 17  1  0
 17 18  1  0
 18 19  1  0
 19 20  1  0
 16  2  1  0
 19  2  1  0
 15  5  1  0
 12  6  1  0
  1 21  1  0
  1 22  1  0
  1 23  1  0
  3 24  1  0
  3 25  1  0
  4 26  1  0
  4 27  1  0
  5 28  1  6
  7 29  1  0
  8 30  1  0
 10 31  1  0
 11 32  1  0
 13 33  1  0
 13 34  1  0
 14 35  1  0
 14 36  1  0
 15 37  1  1
 16 38  1  6
 17 39  1  0
 17 40  1  0
 18 41  1  0
 18 42  1  0
 19 43  1  6
 20 44  1  0
M  END
>  <meeko>  (2) 
{"is_sidechain": [false], "free_energy": -9.099, "intermolecular_energy": -9.631, "internal_energy": 0.0}

$$$$
1qkt_ligand
     RDKit          3D

 44 47  0  0  0  0  0  0  0  0999 V2000
  -11.1480   11.1510    8.7650 C   0  0  0  0  0  0  0  0  0  0  0  0
  -10.9010   10.8930    7.2580 C   0  0  2  0  0  0  0  0  0  0  0  0
   -9.3910   10.8760    6.9890 C   0  0  0  0  0  0  0  0  0  0  0  0
   -8.7670   12.2780    7.1400 C   0  0  0  0  0  0  0  0  0  0  0  0
   -9.4950   13.3750    6.3180 C   0  0  2  0  0  0  0  0  0  0  0  0
   -8.9360   14.7870    6.4850 C   0  0  0  0  0  0  0  0  0  0  0  0
   -7.5640   15.0030    6.7090 C   0  0  0  0  0  0  0  0  0  0  0  0
   -7.0430   16.2940    6.8190 C   0  0  0  0  0  0  0  0  0  0  0  0
   -7.8830   17.3860    6.6920 C   0  0  0  0  0  0  0  0  0  0  0  0
   -7.3360   18.6300    6.8100 O   0  0  0  0  0  0  0  0  0  0  0  0
   -9.2390   17.2100    6.4490 C   0  0  0  0  0  0  0  0  0  0  0  0
   -9.7740   15.9140    6.3280 C   0  0  0  0  0  0  0  0  0  0  0  0
  -11.2590   15.7860    6.0830 C   0  0  0  0  0  0  0  0  0  0  0  0
  -11.7050   14.3850    5.6750 C   0  0  0  0  0  0  0  0  0  0  0  0
  -11.0330   13.3440    6.5730 C   0  0  1  0  0  0  0  0  0  0  0  0
  -11.5440   11.9270    6.3110 C   0  0  2  0  0  0  0  0  0  0  0  0
  -13.0380   11.6370    6.4300 C   0  0  0  0  0  0  0  0  0  0  0  0
  -13.1090   10.1090    6.6070 C   0  0  0  0  0  0  0  0  0  0  0  0
  -11.6540    9.6310    6.7900 C   0  0  2  0  0  0  0  0  0  0  0  0
  -11.5550    8.5340    7.6780 O   0  0  0  0  0  0  0  0  0  0  0  0
  -10.5086   10.4831    9.3610 H   0  0  0  0  0  0  0  0  0  0  0  0
  -10.9066   12.1977    9.0022 H   0  0  0  0  0  0  0  0  0  0  0  0
  -12.2042   10.9554    9.0022 H   0  0  0  0  0  0  0  0  0  0  0  0
   -8.9095   10.1930    7.7043 H   0  0  0  0  0  0  0  0  0  0  0  0
   -9.2317   10.5404    5.9536 H   0  0  0  0  0  0  0  0  0  0  0  0
   -8.8000   12.5605    8.2026 H   0  0  0  0  0  0  0  0  0  0  0  0
   -7.7385   12.2161    6.7548 H   0  0  0  0  0  0  0  0  0  0  0  0
   -9.2968   13.1163    5.2674 H   0  0  0  0  0  0  0  0  0  0  0  0
   -6.8892   14.1390    6.7992 H   0  0  0  0  0  0  0  0  0  0  0  0
   -5.9691   16.4421    7.0059 H   0  0  0  0  0  0  0  0  0  0  0  0
   -7.8030   19.2300    6.2060 H   0  0  0  0  0  0  0  0  0  0  0  0
   -9.8968   18.0862    6.3508 H   0  0  0  0  0  0  0  0  0  0  0  0
  -11.7866   16.0606    7.0083 H   0  0  0  0  0  0  0  0  0  0  0  0
  -11.5002   16.4529    5.2422 H   0  0  0  0  0  0  0  0  0  0  0  0
  -12.7973   14.3052    5.7779 H   0  0  0  0  0  0  0  0  0  0  0  0
  -11.4165   14.2025    4.6293 H   0  0  0  0  0  0  0  0  0  0  0  0
  -11.2738   13.6003    7.6153 H   0  0  0  0  0  0  0  0  0  0  0  0
  -11.2643   11.8453    5.2503 H   0  0  0  0  0  0  0  0  0  0  0  0
  -13.4678   12.1518    7.3019 H   0  0  0  0  0  0  0  0  0  0  0  0
  -13.6079   11.9886    5.5573 H   0  0  0  0  0  0  0  0  0  0  0  0
  -13.7086    9.8549    7.4935 H   0  0  0  0  0  0  0  0  0  0  0  0
  -13.5845    9.6260    5.7406 H   0  0  0  0  0  0  0  0  0  0  0  0
  -11.2154    9.2292    5.8647 H   0  0  0  0  0  0  0  0  0  0  0  0
  -10.7020    8.5830    8.1400 H   0  0  0  0  0  0  0  0  0  0  0  0
  2  1  1  1
  2  3  1  0
  3  4  1  0
  4  5  1  0
  5  6  1  0
  6  7  2  0
  7  8  1  0
  8  9  2  0
  9 10  1  0
  9 11  1  0
 11 12  2  0
 12 13  1  0
 13 14  1  0
 14 15  1  0
 15 16  1  0
 16 17  1  0
 17 18  1  0
 18 19  1  0
 19 20  1  0
 16  2  1  0
 19  2  1  0
 15  5  1  0
 12  6  1  0
  1 21  1  0
  1 22  1  0
  1 23  1  0
  3 24  1  0
  3 25  1  0
  4 26  1  0
  4 27  1  0
  5 28  1  6
  7 29  1  0
  8 30  1  0
 10 31  1  0
 11 32  1  0
 13 33  1  0
 13 34  1  0
 14 35  1  0
 14 36  1  0
 15 37  1  1
 16 38  1  6
 17 39  1  0
 17 40  1  0
 18 41  1  0
 18 42  1  0
 19 43  1  6
 20 44  1  0
M  END
>  <meeko>  (3) 
{"is_sidechain": [false], "free_energy": -8.743, "intermolecular_energy": -9.254, "internal_energy": 0.0}

$$$$
1qkt_ligand
     RDKit          3D

 44 47  0  0  0  0  0  0  0  0999 V2000
   -8.6220   15.0410    4.6450 C   0  0  0  0  0  0  0  0  0  0  0  0
   -8.5390   15.1820    6.1860 C   0  0  2  0  0  0  0  0  0  0  0  0
   -7.8890   13.9240    6.7750 C   0  0  0  0  0  0  0  0  0  0  0  0
   -8.8090   12.6930    6.6540 C   0  0  0  0  0  0  0  0  0  0  0  0
  -10.2380   12.9290    7.2120 C   0  0  2  0  0  0  0  0  0  0  0  0
  -11.1950   11.7470    7.0620 C   0  0  0  0  0  0  0  0  0  0  0  0
  -10.7270   10.4220    7.1230 C   0  0  0  0  0  0  0  0  0  0  0  0
  -11.6040    9.3390    7.0290 C   0  0  0  0  0  0  0  0  0  0  0  0
  -12.9620    9.5660    6.8860 C   0  0  0  0  0  0  0  0  0  0  0  0
  -13.7840    8.4820    6.7930 O   0  0  0  0  0  0  0  0  0  0  0  0
  -13.4600   10.8620    6.8440 C   0  0  0  0  0  0  0  0  0  0  0  0
  -12.5870   11.9610    6.9470 C   0  0  0  0  0  0  0  0  0  0  0  0
  -13.1870   13.3440    6.8750 C   0  0  0  0  0  0  0  0  0  0  0  0
  -12.2300   14.4600    7.2840 C   0  0  0  0  0  0  0  0  0  0  0  0
  -10.8620   14.2360    6.6350 C   0  0  1  0  0  0  0  0  0  0  0  0
   -9.8960   15.3930    6.8880 C   0  0  2  0  0  0  0  0  0  0  0  0
  -10.2960   16.8060    6.4730 C   0  0  0  0  0  0  0  0  0  0  0  0
   -8.9590   17.5680    6.4040 C   0  0  0  0  0  0  0  0  0  0  0  0
   -7.8520   16.5070    6.5760 C   0  0  2  0  0  0  0  0  0  0  0  0
   -6.6970   16.8070    5.8170 O   0  0  0  0  0  0  0  0  0  0  0  0
   -9.1648   14.1189    4.3899 H   0  0  0  0  0  0  0  0  0  0  0  0
   -9.1541   15.9076    4.2256 H   0  0  0  0  0  0  0  0  0  0  0  0
   -7.6061   14.9964    4.2256 H   0  0  0  0  0  0  0  0  0  0  0  0
   -6.9516   13.7221    6.2360 H   0  0  0  0  0  0  0  0  0  0  0  0
   -7.7001   14.1055    7.8433 H   0  0  0  0  0  0  0  0  0  0  0  0
   -8.8909   12.4230    5.5908 H   0  0  0  0  0  0  0  0  0  0  0  0
   -8.3560   11.8909    7.2552 H   0  0  0  0  0  0  0  0  0  0  0  0
  -10.0993   13.0433    8.2972 H   0  0  0  0  0  0  0  0  0  0  0  0
   -9.6501   10.2352    7.2471 H   0  0  0  0  0  0  0  0  0  0  0  0
  -11.2172    8.3100    7.0684 H   0  0  0  0  0  0  0  0  0  0  0  0
  -14.6860    8.7610    7.0190 H   0  0  0  0  0  0  0  0  0  0  0  0
  -14.5411   11.0300    6.7298 H   0  0  0  0  0  0  0  0  0  0  0  0
  -13.5092   13.5274    5.8393 H   0  0  0  0  0  0  0  0  0  0  0  0
  -14.0229   13.3649    7.5898 H   0  0  0  0  0  0  0  0  0  0  0  0
  -12.6360   15.4278    6.9546 H   0  0  0  0  0  0  0  0  0  0  0  0
  -12.1169   14.4576    8.3782 H   0  0  0  0  0  0  0  0  0  0  0  0
  -11.0188   14.1624    5.5487 H   0  0  0  0  0  0  0  0  0  0  0  0
   -9.8783   15.3535    7.9871 H   0  0  0  0  0  0  0  0  0  0  0  0
  -10.7930   16.7992    5.4917 H   0  0  0  0  0  0  0  0  0  0  0  0
  -11.0094   17.2662    7.1725 H   0  0  0  0  0  0  0  0  0  0  0  0
   -8.8567   18.0722    5.4317 H   0  0  0  0  0  0  0  0  0  0  0  0
   -8.8975   18.3426    7.1826 H   0  0  0  0  0  0  0  0  0  0  0  0
   -7.4579   16.4605    7.6019 H   0  0  0  0  0  0  0  0  0  0  0  0
   -5.9160   16.7020    6.3860 H   0  0  0  0  0  0  0  0  0  0  0  0
  2  1  1  6
  2  3  1  0
  3  4  1  0
  4  5  1  0
  5  6  1  0
  6  7  2  0
  7  8  1  0
  8  9  2  0
  9 10  1  0
  9 11  1  0
 11 12  2  0
 12 13  1  0
 13 14  1  0
 14 15  1  0
 15 16  1  0
 16 17  1  0
 17 18  1  0
 18 19  1  0
 19 20  1  0
 16  2  1  0
 19  2  1  0
 15  5  1  0
 12  6  1  0
  1 21  1  0
  1 22  1  0
  1 23  1  0
  3 24  1  0
  3 25  1  0
  4 26  1  0
  4 27  1  0
  5 28  1  1
  7 29  1  0
  8 30  1  0
 10 31  1  0
 11 32  1  0
 13 33  1  0
 13 34  1  0
 14 35  1  0
 14 36  1  0
 15 37  1  6
 16 38  1  1
 17 39  1  0
 17 40  1  0
 18 41  1  0
 18 42  1  0
 19 43  1  1
 20 44  1  0
M  END
>  <meeko>  (4) 
{"is_sidechain": [false], "free_energy": -8.557, "intermolecular_energy": -9.057, "internal_energy": 0.0}

$$$$
1qkt_ligand
     RDKit          3D

 44 47  0  0  0  0  0  0  0  0999 V2000
  -12.5660   11.1570    8.9000 C   0  0  0  0  0  0  0  0  0  0  0  0
  -11.9280   10.2620    7.8080 C   0  0  2  0  0  0  0  0  0  0  0  0
  -10.4370   10.0770    8.1140 C   0  0  0  0  0  0  0  0  0  0  0  0
   -9.6440   11.3820    7.9060 C   0  0  0  0  0  0  0  0  0  0  0  0
   -9.8790   12.0400    6.5200 C   0  0  2  0  0  0  0  0  0  0  0  0
   -9.1500   13.3640    6.2990 C   0  0  0  0  0  0  0  0  0  0  0  0
   -7.8940   13.6070    6.8830 C   0  0  0  0  0  0  0  0  0  0  0  0
   -7.2040   14.7990    6.6490 C   0  0  0  0  0  0  0  0  0  0  0  0
   -7.7550   15.7580    5.8160 C   0  0  0  0  0  0  0  0  0  0  0  0
   -7.0530   16.9090    5.6160 O   0  0  0  0  0  0  0  0  0  0  0  0
   -8.9830   15.5410    5.2050 C   0  0  0  0  0  0  0  0  0  0  0  0
   -9.6830   14.3400    5.4270 C   0  0  0  0  0  0  0  0  0  0  0  0
  -11.0220   14.1710    4.7510 C   0  0  0  0  0  0  0  0  0  0  0  0
  -11.5710   12.7480    4.8020 C   0  0  0  0  0  0  0  0  0  0  0  0
  -11.4010   12.1760    6.2110 C   0  0  1  0  0  0  0  0  0  0  0  0
  -12.0590   10.8060    6.3700 C   0  0  2  0  0  0  0  0  0  0  0  0
  -13.5450   10.6480    6.0640 C   0  0  0  0  0  0  0  0  0  0  0  0
  -13.9420    9.3510    6.7930 C   0  0  0  0  0  0  0  0  0  0  0  0
  -12.7220    8.9490    7.6460 C   0  0  2  0  0  0  0  0  0  0  0  0
  -13.0960    8.3430    8.8680 O   0  0  0  0  0  0  0  0  0  0  0  0
  -12.2927   10.7736    9.8941 H   0  0  0  0  0  0  0  0  0  0  0  0
  -12.1978   12.1877    8.7906 H   0  0  0  0  0  0  0  0  0  0  0  0
  -13.6605   11.1451    8.7906 H   0  0  0  0  0  0  0  0  0  0  0  0
  -10.3254    9.7554    9.1600 H   0  0  0  0  0  0  0  0  0  0  0  0
  -10.0374    9.3202    7.4230 H   0  0  0  0  0  0  0  0  0  0  0  0
   -9.9428   12.0981    8.6857 H   0  0  0  0  0  0  0  0  0  0  0  0
   -8.5766   11.1222    7.9620 H   0  0  0  0  0  0  0  0  0  0  0  0
   -9.4234   11.3453    5.7991 H   0  0  0  0  0  0  0  0  0  0  0  0
   -7.4463   12.8439    7.5366 H   0  0  0  0  0  0  0  0  0  0  0  0
   -6.2277   14.9748    7.1242 H   0  0  0  0  0  0  0  0  0  0  0  0
   -7.2890   17.2660    4.7450 H   0  0  0  0  0  0  0  0  0  0  0  0
   -9.4103   16.3104    4.5451 H   0  0  0  0  0  0  0  0  0  0  0  0
  -11.7445   14.8378    5.2443 H   0  0  0  0  0  0  0  0  0  0  0  0
  -10.8740   14.4158    3.6888 H   0  0  0  0  0  0  0  0  0  0  0  0
  -12.6390   12.7592    4.5390 H   0  0  0  0  0  0  0  0  0  0  0  0
  -11.0192   12.1204    4.0867 H   0  0  0  0  0  0  0  0  0  0  0  0
  -11.8931   12.8667    6.9115 H   0  0  0  0  0  0  0  0  0  0  0  0
  -11.4941   10.2636    5.5975 H   0  0  0  0  0  0  0  0  0  0  0  0
  -14.1167   11.5043    6.4511 H   0  0  0  0  0  0  0  0  0  0  0  0
  -13.7519   10.6061    4.9844 H   0  0  0  0  0  0  0  0  0  0  0  0
  -14.8164    9.5272    7.4367 H   0  0  0  0  0  0  0  0  0  0  0  0
  -14.2139    8.5573    6.0815 H   0  0  0  0  0  0  0  0  0  0  0  0
  -12.1057    8.1707    7.1723 H   0  0  0  0  0  0  0  0  0  0  0  0
  -13.9690    8.6810    9.1280 H   0  0  0  0  0  0  0  0  0  0  0  0
  2  1  1  1
  2  3  1  0
  3  4  1  0
  4  5  1  0
  5  6  1  0
  6  7  2  0
  7  8  1  0
  8  9  2  0
  9 10  1  0
  9 11  1  0
 11 12  2  0
 12 13  1  0
 13 14  1  0
 14 15  1  0
 15 16  1  0
 16 17  1  0
 17 18  1  0
 18 19  1  0
 19 20  1  0
 16  2  1  0
 19  2  1  0
 15  5  1  0
 12  6  1  0
  1 21  1  0
  1 22  1  0
  1 23  1  0
  3 24  1  0
  3 25  1  0
  4 26  1  0
  4 27  1  0
  5 28  1  6
  7 29  1  0
  8 30  1  0
 10 31  1  0
 11 32  1  0
 13 33  1  0
 13 34  1  0
 14 35  1  0
 14 36  1  0
 15 37  1  1
 16 38  1  6
 17 39  1  0
 17 40  1  0
 18 41  1  0
 18 42  1  0
 19 43  1  6
 20 44  1  0
M  END
>  <meeko>  (5) 
{"is_sidechain": [false], "free_energy": -8.02, "intermolecular_energy": -8.489, "internal_energy": 0.0}

$$$$
1qkt_ligand
     RDKit          3D

 44 47  0  0  0  0  0  0  0  0999 V2000
  -13.5240   11.0560    6.8780 C   0  0  0  0  0  0  0  0  0  0  0  0
  -12.3440   10.8760    7.8670 C   0  0  2  0  0  0  0  0  0  0  0  0
  -12.3970   11.9870    8.9230 C   0  0  0  0  0  0  0  0  0  0  0  0
  -12.0540   13.3650    8.3240 C   0  0  0  0  0  0  0  0  0  0  0  0
  -10.7240   13.3810    7.5240 C   0  0  2  0  0  0  0  0  0  0  0  0
  -10.3780   14.7180    6.8700 C   0  0  0  0  0  0  0  0  0  0  0  0
  -10.7420   15.9360    7.4720 C   0  0  0  0  0  0  0  0  0  0  0  0
  -10.3900   17.1610    6.9000 C   0  0  0  0  0  0  0  0  0  0  0  0
   -9.6570   17.1840    5.7260 C   0  0  0  0  0  0  0  0  0  0  0  0
   -9.3370   18.3990    5.1970 O   0  0  0  0  0  0  0  0  0  0  0  0
   -9.2620   16.0000    5.1170 C   0  0  0  0  0  0  0  0  0  0  0  0
   -9.6030   14.7600    5.6880 C   0  0  0  0  0  0  0  0  0  0  0  0
   -9.1620   13.5090    4.9690 C   0  0  0  0  0  0  0  0  0  0  0  0
   -9.3100   12.2320    5.7920 C   0  0  0  0  0  0  0  0  0  0  0  0
  -10.6740   12.2180    6.4870 C   0  0  1  0  0  0  0  0  0  0  0  0
  -10.9470   10.9010    7.2140 C   0  0  2  0  0  0  0  0  0  0  0  0
  -10.8950    9.5900    6.4350 C   0  0  0  0  0  0  0  0  0  0  0  0
  -11.6860    8.6020    7.3110 C   0  0  0  0  0  0  0  0  0  0  0  0
  -12.3240    9.4430    8.4360 C   0  0  2  0  0  0  0  0  0  0  0  0
  -13.5940    8.9530    8.8190 O   0  0  0  0  0  0  0  0  0  0  0  0
  -14.4572   11.1984    7.4427 H   0  0  0  0  0  0  0  0  0  0  0  0
  -13.3406   11.9366    6.2448 H   0  0  0  0  0  0  0  0  0  0  0  0
  -13.6115   10.1608    6.2448 H   0  0  0  0  0  0  0  0  0  0  0  0
  -13.4110   12.0261    9.3477 H   0  0  0  0  0  0  0  0  0  0  0  0
  -11.6514   11.7568    9.6983 H   0  0  0  0  0  0  0  0  0  0  0  0
  -12.8695   13.6635    7.6489 H   0  0  0  0  0  0  0  0  0  0  0  0
  -11.9322   14.0617    9.1664 H   0  0  0  0  0  0  0  0  0  0  0  0
   -9.9406   13.2257    8.2804 H   0  0  0  0  0  0  0  0  0  0  0  0
  -11.3147   15.9238    8.4111 H   0  0  0  0  0  0  0  0  0  0  0  0
  -10.6939   18.1028    7.3803 H   0  0  0  0  0  0  0  0  0  0  0  0
   -8.5920   18.7670    5.6990 H   0  0  0  0  0  0  0  0  0  0  0  0
   -8.6800   16.0317    4.1841 H   0  0  0  0  0  0  0  0  0  0  0  0
   -9.7669   13.4038    4.0563 H   0  0  0  0  0  0  0  0  0  0  0  0
   -8.0892   13.6268    4.7566 H   0  0  0  0  0  0  0  0  0  0  0  0
   -9.2293   11.3585    5.1284 H   0  0  0  0  0  0  0  0  0  0  0  0
   -8.5151   12.1952    6.5514 H   0  0  0  0  0  0  0  0  0  0  0  0
  -11.4435   12.3382    5.7102 H   0  0  0  0  0  0  0  0  0  0  0  0
  -10.0930   10.9182    7.9072 H   0  0  0  0  0  0  0  0  0  0  0  0
  -11.3683    9.7028    5.4485 H   0  0  0  0  0  0  0  0  0  0  0  0
   -9.8656    9.2534    6.2426 H   0  0  0  0  0  0  0  0  0  0  0  0
  -12.4667    8.1051    6.7163 H   0  0  0  0  0  0  0  0  0  0  0  0
  -11.0340    7.8152    7.7181 H   0  0  0  0  0  0  0  0  0  0  0  0
  -11.7576    9.4001    9.3780 H   0  0  0  0  0  0  0  0  0  0  0  0
  -13.6040    8.8370    9.7840 H   0  0  0  0  0  0  0  0  0  0  0  0
  2  1  1  6
  2  3  1  0
  3  4  1  0
  4  5  1  0
  5  6  1  0
  6  7  2  0
  7  8  1  0
  8  9  2  0
  9 10  1  0
  9 11  1  0
 11 12  2  0
 12 13  1  0
 13 14  1  0
 14 15  1  0
 15 16  1  0
 16 17  1  0
 17 18  1  0
 18 19  1  0
 19 20  1  0
 16  2  1  0
 19  2  1  0
 15  5  1  0
 12  6  1  0
  1 21  1  0
  1 22  1  0
  1 23  1  0
  3 24  1  0
  3 25  1  0
  4 26  1  0
  4 27  1  0
  5 28  1  1
  7 29  1  0
  8 30  1  0
 10 31  1  0
 11 32  1  0
 13 33  1  0
 13 34  1  0
 14 35  1  0
 14 36  1  0
 15 37  1  6
 16 38  1  1
 17 39  1  0
 17 40  1  0
 18 41  1  0
 18 42  1  0
 19 43  1  1
 20 44  1  0
M  END
>  <meeko>  (6) 
{"is_sidechain": [false], "free_energy": -7.565, "intermolecular_energy": -8.007, "internal_energy": 0.0}

$$$$
