4gfm_ligand
     RDKit          3D

 26 27  0  0  0  0  0  0  0  0999 V2000
   -2.0460    4.1140   10.8400 O   0  0  0  0  0  0  0  0  0  0  0  0
   -2.7270    4.0560    9.8260 C   0  0  0  0  0  0  0  0  0  0  0  0
   -2.7170    3.0750    8.8490 N   0  0  0  0  0  0  0  0  0  0  0  0
   -1.9330    1.9390    8.8020 C   0  0  0  0  0  0  0  0  0  0  0  0
   -0.6360    2.0910    8.1590 C   0  0  0  0  0  0  0  0  0  0  0  0
    0.2000    1.0490    8.0620 C   0  0  0  0  0  0  0  0  0  0  0  0
   -0.1600   -0.1700    8.5650 N   0  0  0  0  0  0  0  0  0  0  0  0
   -1.3590   -0.4160    9.1880 C   0  0  0  0  0  0  0  0  0  0  0  0
   -1.6520   -1.5210    9.6290 O   0  0  0  0  0  0  0  0  0  0  0  0
   -2.2850    0.7400    9.2960 C   0  0  0  0  0  0  0  0  0  0  0  0
   -3.6850    5.1430    9.5760 C   0  0  0  0  0  0  0  0  0  0  0  0
   -3.3010    6.2530    8.8160 C   0  0  0  0  0  0  0  0  0  0  0  0
   -1.7010    6.4420    8.1990 Cl  0  0  0  0  0  0  0  0  0  0  0  0
   -4.2250    7.2710    8.5540 C   0  0  0  0  0  0  0  0  0  0  0  0
   -5.5280    7.1800    9.0460 C   0  0  0  0  0  0  0  0  0  0  0  0
   -5.9090    6.0730    9.8050 C   0  0  0  0  0  0  0  0  0  0  0  0
   -4.9920    5.0520   10.0710 C   0  0  0  0  0  0  0  0  0  0  0  0
   -5.5230    3.7240   11.0390 Cl  0  0  0  0  0  0  0  0  0  0  0  0
   -3.3590    3.2040    8.0760 H   0  0  0  0  0  0  0  0  0  0  0  0
   -0.3404    3.0684    7.7499 H   0  0  0  0  0  0  0  0  0  0  0  0
    1.1789    1.1745    7.5762 H   0  0  0  0  0  0  0  0  0  0  0  0
    0.4660   -0.9630    8.4960 H   0  0  0  0  0  0  0  0  0  0  0  0
   -3.2635    0.6141    9.7826 H   0  0  0  0  0  0  0  0  0  0  0  0
   -3.9235    8.1454    7.9586 H   0  0  0  0  0  0  0  0  0  0  0  0
   -6.2534    7.9798    8.8357 H   0  0  0  0  0  0  0  0  0  0  0  0
   -6.9350    6.0034   10.1956 H   0  0  0  0  0  0  0  0  0  0  0  0
  1  2  2  0
  2  3  1  0
  3  4  1  0
  4  5  1  0
  5  6  2  0
  6  7  1  0
  7  8  1  0
  8  9  2  0
  8 10  1  0
  2 11  1  0
 11 12  2  0
 12 13  1  0
 12 14  1  0
 14 15  2  0
 15 16  1  0
 16 17  2  0
 17 18  1  0
 10  4  2  0
 17 11  1  0
  3 19  1  0
  5 20  1  0
  6 21  1  0
  7 22  1  0
 10 23  1  0
 14 24  1  0
 15 25  1  0
 16 26  1  0
M  END
>  <meeko>  (1) 
{"is_sidechain": [false], "free_energy": -7.293, "intermolecular_energy": -8.146, "internal_energy": -0.552}

$$$$
4gfm_ligand
     RDKit          3D

 26 27  0  0  0  0  0  0  0  0999 V2000
   -2.0530    4.1060   10.8350 O   0  0  0  0  0  0  0  0  0  0  0  0
   -2.7370    4.0360    9.8250 C   0  0  0  0  0  0  0  0  0  0  0  0
   -2.7250    3.0510    8.8530 N   0  0  0  0  0  0  0  0  0  0  0  0
   -1.9320    1.9200    8.8090 C   0  0  0  0  0  0  0  0  0  0  0  0
   -0.6380    2.0800    8.1610 C   0  0  0  0  0  0  0  0  0  0  0  0
    0.2060    1.0450    8.0660 C   0  0  0  0  0  0  0  0  0  0  0  0
   -0.1430   -0.1750    8.5750 N   0  0  0  0  0  0  0  0  0  0  0  0
   -1.3380   -0.4280    9.2040 C   0  0  0  0  0  0  0  0  0  0  0  0
   -1.6200   -1.5330    9.6510 O   0  0  0  0  0  0  0  0  0  0  0  0
   -2.2730    0.7210    9.3100 C   0  0  0  0  0  0  0  0  0  0  0  0
   -3.7060    5.1140    9.5740 C   0  0  0  0  0  0  0  0  0  0  0  0
   -4.9970    5.0330   10.1080 C   0  0  0  0  0  0  0  0  0  0  0  0
   -5.5380    3.6680   11.0150 Cl  0  0  0  0  0  0  0  0  0  0  0  0
   -5.9060    6.0740    9.8930 C   0  0  0  0  0  0  0  0  0  0  0  0
   -5.5290    7.1930    9.1500 C   0  0  0  0  0  0  0  0  0  0  0  0
   -4.2420    7.2720    8.6150 C   0  0  0  0  0  0  0  0  0  0  0  0
   -3.3280    6.2360    8.8270 C   0  0  0  0  0  0  0  0  0  0  0  0
   -1.7620    6.3860    8.1150 Cl  0  0  0  0  0  0  0  0  0  0  0  0
   -3.3720    3.1700    8.0830 H   0  0  0  0  0  0  0  0  0  0  0  0
   -0.3518    3.0580    7.7466 H   0  0  0  0  0  0  0  0  0  0  0  0
    1.1826    1.1765    7.5772 H   0  0  0  0  0  0  0  0  0  0  0  0
    0.4900   -0.9630    8.5070 H   0  0  0  0  0  0  0  0  0  0  0  0
   -3.2487    0.5898    9.8007 H   0  0  0  0  0  0  0  0  0  0  0  0
   -6.9214    6.0102   10.3111 H   0  0  0  0  0  0  0  0  0  0  0  0
   -6.2449    8.0119    8.9860 H   0  0  0  0  0  0  0  0  0  0  0  0
   -3.9464    8.1520    8.0250 H   0  0  0  0  0  0  0  0  0  0  0  0
  1  2  2  0
  2  3  1  0
  3  4  1  0
  4  5  1  0
  5  6  2  0
  6  7  1  0
  7  8  1  0
  8  9  2  0
  8 10  1  0
  2 11  1  0
 11 12  2  0
 12 13  1  0
 12 14  1  0
 14 15  2  0
 15 16  1  0
 16 17  2  0
 17 18  1  0
 10  4  2  0
 17 11  1  0
  3 19  1  0
  5 20  1  0
  6 21  1  0
  7 22  1  0
 10 23  1  0
 14 24  1  0
 15 25  1  0
 16 26  1  0
M  END
>  <meeko>  (2) 
{"is_sidechain": [false], "free_energy": -7.209, "intermolecular_energy": -8.052, "internal_energy": -0.552}

$$$$
4gfm_ligand
     RDKit          3D

 26 27  0  0  0  0  0  0  0  0999 V2000
   -2.2270    3.6470    7.6690 O   0  0  0  0  0  0  0  0  0  0  0  0
   -1.6140    4.5020    8.2890 C   0  0  0  0  0  0  0  0  0  0  0  0
   -2.1260    5.5960    8.9660 N   0  0  0  0  0  0  0  0  0  0  0  0
   -3.4510    5.9660    9.0930 C   0  0  0  0  0  0  0  0  0  0  0  0
   -3.8450    7.1640    8.3670 C   0  0  0  0  0  0  0  0  0  0  0  0
   -5.1070    7.6070    8.4230 C   0  0  0  0  0  0  0  0  0  0  0  0
   -6.0380    6.9360    9.1660 N   0  0  0  0  0  0  0  0  0  0  0  0
   -5.7670    5.7980    9.8860 C   0  0  0  0  0  0  0  0  0  0  0  0
   -6.6250    5.2200   10.5420 O   0  0  0  0  0  0  0  0  0  0  0  0
   -4.3670    5.3070    9.8220 C   0  0  0  0  0  0  0  0  0  0  0  0
   -0.1480    4.3930    8.3470 C   0  0  0  0  0  0  0  0  0  0  0  0
    0.4510    3.4630    9.2030 C   0  0  0  0  0  0  0  0  0  0  0  0
   -0.4670    2.4580   10.2650 Cl  0  0  0  0  0  0  0  0  0  0  0  0
    1.8440    3.3400    9.2330 C   0  0  0  0  0  0  0  0  0  0  0  0
    2.6370    4.1410    8.4100 C   0  0  0  0  0  0  0  0  0  0  0  0
    2.0390    5.0710    7.5580 C   0  0  0  0  0  0  0  0  0  0  0  0
    0.6470    5.1980    7.5230 C   0  0  0  0  0  0  0  0  0  0  0  0
   -0.0250    6.3860    6.4650 Cl  0  0  0  0  0  0  0  0  0  0  0  0
   -1.4510    6.1980    9.4240 H   0  0  0  0  0  0  0  0  0  0  0  0
   -3.1007    7.7093    7.7681 H   0  0  0  0  0  0  0  0  0  0  0  0
   -5.3956    8.5130    7.8699 H   0  0  0  0  0  0  0  0  0  0  0  0
   -6.9950    7.2650    9.2140 H   0  0  0  0  0  0  0  0  0  0  0  0
   -4.0788    4.4001   10.3737 H   0  0  0  0  0  0  0  0  0  0  0  0
    2.3158    2.6099    9.9071 H   0  0  0  0  0  0  0  0  0  0  0  0
    3.7321    4.0396    8.4327 H   0  0  0  0  0  0  0  0  0  0  0  0
    2.6643    5.7054    6.9126 H   0  0  0  0  0  0  0  0  0  0  0  0
  1  2  2  0
  2  3  1  0
  3  4  1  0
  4  5  1  0
  5  6  2  0
  6  7  1  0
  7  8  1  0
  8  9  2  0
  8 10  1  0
  2 11  1  0
 11 12  2  0
 12 13  1  0
 12 14  1  0
 14 15  2  0
 15 16  1  0
 16 17  2  0
 17 18  1  0
 10  4  2  0
 17 11  1  0
  3 19  1  0
  5 20  1  0
  6 21  1  0
  7 22  1  0
 10 23  1  0
 14 24  1  0
 15 25  1  0
 16 26  1  0
M  END
>  <meeko>  (3) 
{"is_sidechain": [false], "free_energy": -7.134, "intermolecular_energy": -8.076, "internal_energy": -0.444}

$$$$
4gfm_ligand
     RDKit          3D

 26 27  0  0  0  0  0  0  0  0999 V2000
   -1.8610    4.3890   10.9940 O   0  0  0  0  0  0  0  0  0  0  0  0
   -2.2790    4.5230    9.8530 C   0  0  0  0  0  0  0  0  0  0  0  0
   -1.7300    4.0330    8.6810 N   0  0  0  0  0  0  0  0  0  0  0  0
   -0.5820    3.2790    8.5380 C   0  0  0  0  0  0  0  0  0  0  0  0
   -0.7800    1.8940    8.1340 C   0  0  0  0  0  0  0  0  0  0  0  0
    0.2680    1.0790    7.9670 C   0  0  0  0  0  0  0  0  0  0  0  0
    1.5380    1.5410    8.1780 N   0  0  0  0  0  0  0  0  0  0  0  0
    1.8310    2.8270    8.5600 C   0  0  0  0  0  0  0  0  0  0  0  0
    2.9800    3.2100    8.7400 O   0  0  0  0  0  0  0  0  0  0  0  0
    0.6670    3.7310    8.7440 C   0  0  0  0  0  0  0  0  0  0  0  0
   -3.5160    5.2960    9.6590 C   0  0  0  0  0  0  0  0  0  0  0  0
   -3.4800    6.5130    8.9700 C   0  0  0  0  0  0  0  0  0  0  0  0
   -2.0090    7.1980    8.3800 Cl  0  0  0  0  0  0  0  0  0  0  0  0
   -4.6620    7.2300    8.7600 C   0  0  0  0  0  0  0  0  0  0  0  0
   -5.8780    6.7330    9.2330 C   0  0  0  0  0  0  0  0  0  0  0  0
   -5.9130    5.5200    9.9220 C   0  0  0  0  0  0  0  0  0  0  0  0
   -4.7350    4.7980   10.1350 C   0  0  0  0  0  0  0  0  0  0  0  0
   -4.8460    3.3180   11.0180 Cl  0  0  0  0  0  0  0  0  0  0  0  0
   -2.2270    4.2520    7.8250 H   0  0  0  0  0  0  0  0  0  0  0  0
   -1.7987    1.5150    7.9649 H   0  0  0  0  0  0  0  0  0  0  0  0
    0.1078    0.0351    7.6593 H   0  0  0  0  0  0  0  0  0  0  0  0
    2.3370    0.9300    8.0540 H   0  0  0  0  0  0  0  0  0  0  0  0
    0.8278    4.7752    9.0503 H   0  0  0  0  0  0  0  0  0  0  0  0
   -4.6337    8.1883    8.2206 H   0  0  0  0  0  0  0  0  0  0  0  0
   -6.8071    7.2968    9.0628 H   0  0  0  0  0  0  0  0  0  0  0  0
   -6.8704    5.1308   10.2987 H   0  0  0  0  0  0  0  0  0  0  0  0
  1  2  2  0
  2  3  1  0
  3  4  1  0
  4  5  1  0
  5  6  2  0
  6  7  1  0
  7  8  1  0
  8  9  2  0
  8 10  1  0
  2 11  1  0
 11 12  2  0
 12 13  1  0
 12 14  1  0
 14 15  2  0
 15 16  1  0
 16 17  2  0
 17 18  1  0
 10  4  2  0
 17 11  1  0
  3 19  1  0
  5 20  1  0
  6 21  1  0
  7 22  1  0
 10 23  1  0
 14 24  1  0
 15 25  1  0
 16 26  1  0
M  END
>  <meeko>  (4) 
{"is_sidechain": [false], "free_energy": -7.066, "intermolecular_energy": -8.209, "internal_energy": -0.235}

$$$$
4gfm_ligand
     RDKit          3D

 26 27  0  0  0  0  0  0  0  0999 V2000
   -2.1700    3.5390    7.6840 O   0  0  0  0  0  0  0  0  0  0  0  0
   -1.5490    4.3940    8.2980 C   0  0  0  0  0  0  0  0  0  0  0  0
   -2.0520    5.4790    8.9940 N   0  0  0  0  0  0  0  0  0  0  0  0
   -3.3770    5.8400    9.1500 C   0  0  0  0  0  0  0  0  0  0  0  0
   -3.7940    7.0410    8.4410 C   0  0  0  0  0  0  0  0  0  0  0  0
   -5.0570    7.4750    8.5260 C   0  0  0  0  0  0  0  0  0  0  0  0
   -5.9680    6.7950    9.2850 N   0  0  0  0  0  0  0  0  0  0  0  0
   -5.6750    5.6530    9.9910 C   0  0  0  0  0  0  0  0  0  0  0  0
   -6.5150    5.0660   10.6620 O   0  0  0  0  0  0  0  0  0  0  0  0
   -4.2740    5.1710    9.8950 C   0  0  0  0  0  0  0  0  0  0  0  0
   -0.0810    4.2930    8.3240 C   0  0  0  0  0  0  0  0  0  0  0  0
    0.6920    5.1350    7.5170 C   0  0  0  0  0  0  0  0  0  0  0  0
   -0.0120    6.2660    6.4200 Cl  0  0  0  0  0  0  0  0  0  0  0  0
    2.0880    5.0580    7.5670 C   0  0  0  0  0  0  0  0  0  0  0  0
    2.7100    4.1470    8.4220 C   0  0  0  0  0  0  0  0  0  0  0  0
    1.9380    3.3060    9.2250 C   0  0  0  0  0  0  0  0  0  0  0  0
    0.5430    3.3780    9.1800 C   0  0  0  0  0  0  0  0  0  0  0  0
   -0.3520    2.2910   10.1810 Cl  0  0  0  0  0  0  0  0  0  0  0  0
   -1.3720    6.0820    9.4420 H   0  0  0  0  0  0  0  0  0  0  0  0
   -3.0658    7.5957    7.8311 H   0  0  0  0  0  0  0  0  0  0  0  0
   -5.3630    8.3817    7.9835 H   0  0  0  0  0  0  0  0  0  0  0  0
   -6.9260    7.1170    9.3550 H   0  0  0  0  0  0  0  0  0  0  0  0
   -3.9688    4.2629   10.4356 H   0  0  0  0  0  0  0  0  0  0  0  0
    2.6969    5.7171    6.9308 H   0  0  0  0  0  0  0  0  0  0  0  0
    3.8079    4.0918    8.4630 H   0  0  0  0  0  0  0  0  0  0  0  0
    2.4288    2.5847    9.8950 H   0  0  0  0  0  0  0  0  0  0  0  0
  1  2  2  0
  2  3  1  0
  3  4  1  0
  4  5  1  0
  5  6  2  0
  6  7  1  0
  7  8  1  0
  8  9  2  0
  8 10  1  0
  2 11  1  0
 11 12  2  0
 12 13  1  0
 12 14  1  0
 14 15  2  0
 15 16  1  0
 16 17  2  0
 17 18  1  0
 10  4  2  0
 17 11  1  0
  3 19  1  0
  5 20  1  0
  6 21  1  0
  7 22  1  0
 10 23  1  0
 14 24  1  0
 15 25  1  0
 16 26  1  0
M  END
>  <meeko>  (5) 
{"is_sidechain": [false], "free_energy": -7.058, "intermolecular_energy": -7.993, "internal_energy": -0.443}

$$$$
4gfm_ligand
     RDKit          3D

 26 27  0  0  0  0  0  0  0  0999 V2000
   -0.6630    3.3510   10.5770 O   0  0  0  0  0  0  0  0  0  0  0  0
   -1.3180    3.4200    9.5470 C   0  0  0  0  0  0  0  0  0  0  0  0
   -1.6120    2.4030    8.6540 N   0  0  0  0  0  0  0  0  0  0  0  0
   -1.2290    1.0780    8.7290 C   0  0  0  0  0  0  0  0  0  0  0  0
   -2.2300    0.1590    9.2530 C   0  0  0  0  0  0  0  0  0  0  0  0
   -1.9590   -1.1470    9.3650 C   0  0  0  0  0  0  0  0  0  0  0  0
   -0.7360   -1.6300    8.9910 N   0  0  0  0  0  0  0  0  0  0  0  0
    0.2740   -0.8470    8.4860 C   0  0  0  0  0  0  0  0  0  0  0  0
    1.3590   -1.3100    8.1590 O   0  0  0  0  0  0  0  0  0  0  0  0
   -0.0280    0.6020    8.3610 C   0  0  0  0  0  0  0  0  0  0  0  0
   -1.8800    4.7270    9.1730 C   0  0  0  0  0  0  0  0  0  0  0  0
   -1.1520    5.5920    8.3500 C   0  0  0  0  0  0  0  0  0  0  0  0
    0.4380    5.2170    7.7910 Cl  0  0  0  0  0  0  0  0  0  0  0  0
   -1.7020    6.8210    7.9710 C   0  0  0  0  0  0  0  0  0  0  0  0
   -2.9750    7.1850    8.4100 C   0  0  0  0  0  0  0  0  0  0  0  0
   -3.7010    6.3230    9.2330 C   0  0  0  0  0  0  0  0  0  0  0  0
   -3.1570    5.0930    9.6150 C   0  0  0  0  0  0  0  0  0  0  0  0
   -4.0980    4.0850   10.6560 Cl  0  0  0  0  0  0  0  0  0  0  0  0
   -2.1740    2.6580    7.8500 H   0  0  0  0  0  0  0  0  0  0  0  0
   -3.2153    0.5407    9.5588 H   0  0  0  0  0  0  0  0  0  0  0  0
   -2.7226   -1.8337    9.7591 H   0  0  0  0  0  0  0  0  0  0  0  0
   -0.5230   -2.6170    9.0730 H   0  0  0  0  0  0  0  0  0  0  0  0
    0.7352    1.2883    7.9653 H   0  0  0  0  0  0  0  0  0  0  0  0
   -1.1290    7.5024    7.3249 H   0  0  0  0  0  0  0  0  0  0  0  0
   -3.4063    8.1507    8.1077 H   0  0  0  0  0  0  0  0  0  0  0  0
   -4.7034    6.6119    9.5819 H   0  0  0  0  0  0  0  0  0  0  0  0
  1  2  2  0
  2  3  1  0
  3  4  1  0
  4  5  1  0
  5  6  2  0
  6  7  1  0
  7  8  1  0
  8  9  2  0
  8 10  1  0
  2 11  1  0
 11 12  2  0
 12 13  1  0
 12 14  1  0
 14 15  2  0
 15 16  1  0
 16 17  2  0
 17 18  1  0
 10  4  2  0
 17 11  1  0
  3 19  1  0
  5 20  1  0
  6 21  1  0
  7 22  1  0
 10 23  1  0
 14 24  1  0
 15 25  1  0
 16 26  1  0
M  END
>  <meeko>  (6) 
{"is_sidechain": [false], "free_energy": -6.8, "intermolecular_energy": -7.6, "internal_energy": -0.546}

$$$$
4gfm_ligand
     RDKit          3D

 26 27  0  0  0  0  0  0  0  0999 V2000
   -1.7510    3.0550    8.0200 O   0  0  0  0  0  0  0  0  0  0  0  0
   -1.8870    3.7200    9.0370 C   0  0  0  0  0  0  0  0  0  0  0  0
   -1.3000    3.5160   10.2740 N   0  0  0  0  0  0  0  0  0  0  0  0
   -0.4250    2.5100   10.6370 C   0  0  0  0  0  0  0  0  0  0  0  0
   -1.0390    1.2550   11.0470 C   0  0  0  0  0  0  0  0  0  0  0  0
   -0.2790    0.2180   11.4180 C   0  0  0  0  0  0  0  0  0  0  0  0
    1.0840    0.3290   11.4170 N   0  0  0  0  0  0  0  0  0  0  0  0
    1.7580    1.4670   11.0480 C   0  0  0  0  0  0  0  0  0  0  0  0
    2.9810    1.5350   11.0570 O   0  0  0  0  0  0  0  0  0  0  0  0
    0.9140    2.6180   10.6360 C   0  0  0  0  0  0  0  0  0  0  0  0
   -2.7760    4.8900    8.9810 C   0  0  0  0  0  0  0  0  0  0  0  0
   -2.2890    6.1180    8.5200 C   0  0  0  0  0  0  0  0  0  0  0  0
   -0.6390    6.3460    8.0650 Cl  0  0  0  0  0  0  0  0  0  0  0  0
   -3.1450    7.2210    8.4390 C   0  0  0  0  0  0  0  0  0  0  0  0
   -4.4840    7.1000    8.8130 C   0  0  0  0  0  0  0  0  0  0  0  0
   -4.9690    5.8750    9.2750 C   0  0  0  0  0  0  0  0  0  0  0  0
   -4.1190    4.7690    9.3580 C   0  0  0  0  0  0  0  0  0  0  0  0
   -4.7780    3.2910    9.9620 Cl  0  0  0  0  0  0  0  0  0  0  0  0
   -1.5380    4.1810   11.0010 H   0  0  0  0  0  0  0  0  0  0  0  0
   -2.1348    1.1587   11.0518 H   0  0  0  0  0  0  0  0  0  0  0  0
   -0.7520   -0.7266   11.7247 H   0  0  0  0  0  0  0  0  0  0  0  0
    1.6660   -0.4520   11.6960 H   0  0  0  0  0  0  0  0  0  0  0  0
    1.3873    3.5623   10.3289 H   0  0  0  0  0  0  0  0  0  0  0  0
   -2.7615    8.1872    8.0793 H   0  0  0  0  0  0  0  0  0  0  0  0
   -5.1560    7.9681    8.7439 H   0  0  0  0  0  0  0  0  0  0  0  0
   -6.0232    5.7802    9.5745 H   0  0  0  0  0  0  0  0  0  0  0  0
  1  2  2  0
  2  3  1  0
  3  4  1  0
  4  5  1  0
  5  6  2  0
  6  7  1  0
  7  8  1  0
  8  9  2  0
  8 10  1  0
  2 11  1  0
 11 12  2  0
 12 13  1  0
 12 14  1  0
 14 15  2  0
 15 16  1  0
 16 17  2  0
 17 18  1  0
 10  4  2  0
 17 11  1  0
  3 19  1  0
  5 20  1  0
  6 21  1  0
  7 22  1  0
 10 23  1  0
 14 24  1  0
 15 25  1  0
 16 26  1  0
M  END
>  <meeko>  (7) 
{"is_sidechain": [false], "free_energy": -6.72, "intermolecular_energy": -7.515, "internal_energy": -0.542}

$$$$
4gfm_ligand
     RDKit          3D

 26 27  0  0  0  0  0  0  0  0999 V2000
   -1.7830    2.9150    8.0490 O   0  0  0  0  0  0  0  0  0  0  0  0
   -1.8390    3.6450    9.0280 C   0  0  0  0  0  0  0  0  0  0  0  0
   -1.1820    3.5010   10.2370 N   0  0  0  0  0  0  0  0  0  0  0  0
   -0.3110    2.4960   10.6100 C   0  0  0  0  0  0  0  0  0  0  0  0
   -0.9290    1.2540   11.0500 C   0  0  0  0  0  0  0  0  0  0  0  0
   -0.1730    0.2170   11.4320 C   0  0  0  0  0  0  0  0  0  0  0  0
    1.1900    0.3170   11.4140 N   0  0  0  0  0  0  0  0  0  0  0  0
    1.8690    1.4430   11.0160 C   0  0  0  0  0  0  0  0  0  0  0  0
    3.0920    1.5010   11.0100 O   0  0  0  0  0  0  0  0  0  0  0  0
    1.0290    2.5920   10.5910 C   0  0  0  0  0  0  0  0  0  0  0  0
   -2.7020    4.8340    8.9520 C   0  0  0  0  0  0  0  0  0  0  0  0
   -4.0390    4.7550    9.3560 C   0  0  0  0  0  0  0  0  0  0  0  0
   -4.7570    3.2790    9.8920 Cl  0  0  0  0  0  0  0  0  0  0  0  0
   -4.8490    5.8950    9.3120 C   0  0  0  0  0  0  0  0  0  0  0  0
   -4.3260    7.1100    8.8680 C   0  0  0  0  0  0  0  0  0  0  0  0
   -2.9920    7.1880    8.4630 C   0  0  0  0  0  0  0  0  0  0  0  0
   -2.1780    6.0520    8.5050 C   0  0  0  0  0  0  0  0  0  0  0  0
   -0.5450    6.2130    7.9640 Cl  0  0  0  0  0  0  0  0  0  0  0  0
   -1.3580    4.2160   10.9340 H   0  0  0  0  0  0  0  0  0  0  0  0
   -2.0254    1.1665   11.0689 H   0  0  0  0  0  0  0  0  0  0  0  0
   -0.6501   -0.7179   11.7612 H   0  0  0  0  0  0  0  0  0  0  0  0
    1.7700   -0.4620   11.7010 H   0  0  0  0  0  0  0  0  0  0  0  0
    1.5063    3.5259   10.2592 H   0  0  0  0  0  0  0  0  0  0  0  0
   -5.9008    5.8332    9.6282 H   0  0  0  0  0  0  0  0  0  0  0  0
   -4.9640    8.0055    8.8371 H   0  0  0  0  0  0  0  0  0  0  0  0
   -2.5806    8.1452    8.1102 H   0  0  0  0  0  0  0  0  0  0  0  0
  1  2  2  0
  2  3  1  0
  3  4  1  0
  4  5  1  0
  5  6  2  0
  6  7  1  0
  7  8  1  0
  8  9  2  0
  8 10  1  0
  2 11  1  0
 11 12  2  0
 12 13  1  0
 12 14  1  0
 14 15  2  0
 15 16  1  0
 16 17  2  0
 17 18  1  0
 10  4  2  0
 17 11  1  0
  3 19  1  0
  5 20  1  0
  6 21  1  0
  7 22  1  0
 10 23  1  0
 14 24  1  0
 15 25  1  0
 16 26  1  0
M  END
>  <meeko>  (8) 
{"is_sidechain": [false], "free_energy": -6.705, "intermolecular_energy": -7.498, "internal_energy": -0.543}

$$$$
4gfm_ligand
     RDKit          3D

 26 27  0  0  0  0  0  0  0  0999 V2000
   -0.3710    3.3450   10.3590 O   0  0  0  0  0  0  0  0  0  0  0  0
   -1.1950    3.3510    9.4560 C   0  0  0  0  0  0  0  0  0  0  0  0
   -1.6290    2.2820    8.6910 N   0  0  0  0  0  0  0  0  0  0  0  0
   -1.2280    0.9630    8.7800 C   0  0  0  0  0  0  0  0  0  0  0  0
   -2.1890    0.0480    9.3790 C   0  0  0  0  0  0  0  0  0  0  0  0
   -1.8970   -1.2520    9.5110 C   0  0  0  0  0  0  0  0  0  0  0  0
   -0.6910   -1.7320    9.0840 N   0  0  0  0  0  0  0  0  0  0  0  0
    0.2820   -0.9530    8.5060 C   0  0  0  0  0  0  0  0  0  0  0  0
    1.3540   -1.4140    8.1340 O   0  0  0  0  0  0  0  0  0  0  0  0
   -0.0430    0.4890    8.3600 C   0  0  0  0  0  0  0  0  0  0  0  0
   -1.8240    4.6330    9.1060 C   0  0  0  0  0  0  0  0  0  0  0  0
   -3.0600    4.9820    9.6630 C   0  0  0  0  0  0  0  0  0  0  0  0
   -3.9300    3.9250   10.7150 Cl  0  0  0  0  0  0  0  0  0  0  0  0
   -3.6410    6.2150    9.3520 C   0  0  0  0  0  0  0  0  0  0  0  0
   -2.9910    7.1000    8.4910 C   0  0  0  0  0  0  0  0  0  0  0  0
   -1.7590    6.7510    7.9340 C   0  0  0  0  0  0  0  0  0  0  0  0
   -1.1730    5.5200    8.2400 C   0  0  0  0  0  0  0  0  0  0  0  0
    0.3390    5.1410    7.4960 Cl  0  0  0  0  0  0  0  0  0  0  0  0
   -2.3240    2.4880    7.9820 H   0  0  0  0  0  0  0  0  0  0  0  0
   -3.1617    0.4273    9.7255 H   0  0  0  0  0  0  0  0  0  0  0  0
   -2.6300   -1.9355    9.9644 H   0  0  0  0  0  0  0  0  0  0  0  0
   -0.4620   -2.7140    9.1800 H   0  0  0  0  0  0  0  0  0  0  0  0
    0.6899    1.1721    7.9059 H   0  0  0  0  0  0  0  0  0  0  0  0
   -4.6135    6.4883    9.7874 H   0  0  0  0  0  0  0  0  0  0  0  0
   -3.4485    8.0712    8.2514 H   0  0  0  0  0  0  0  0  0  0  0  0
   -1.2484    7.4472    7.2524 H   0  0  0  0  0  0  0  0  0  0  0  0
  1  2  2  0
  2  3  1  0
  3  4  1  0
  4  5  1  0
  5  6  2  0
  6  7  1  0
  7  8  1  0
  8  9  2  0
  8 10  1  0
  2 11  1  0
 11 12  2  0
 12 13  1  0
 12 14  1  0
 14 15  2  0
 15 16  1  0
 16 17  2  0
 17 18  1  0
 10  4  2  0
 17 11  1  0
  3 19  1  0
  5 20  1  0
  6 21  1  0
  7 22  1  0
 10 23  1  0
 14 24  1  0
 15 25  1  0
 16 26  1  0
M  END
>  <meeko>  (9) 
{"is_sidechain": [false], "free_energy": -6.679, "intermolecular_energy": -7.494, "internal_energy": -0.517}

$$$$
