
     RDKit          3D

 30 34  0  0  0  0  0  0  0  0999 V2000
   -3.7330   -9.7390  -10.7460 N   0  0  0  0  0  0  0  0  0  0  0  0
   -2.8240   -8.9740  -10.1800 C   0  0  0  0  0  0  0  0  0  0  0  0
   -2.4680   -9.2240   -8.9200 N   0  0  0  0  0  0  0  0  0  0  0  0
   -2.2000   -7.8590  -10.9260 C   0  0  0  0  0  0  0  0  0  0  0  0
   -1.3250   -6.9640  -10.2990 C   0  0  0  0  0  0  0  0  0  0  0  0
   -0.7440   -5.9150  -11.0380 C   0  0  0  0  0  0  0  0  0  0  0  0
   -1.0360   -5.7600  -12.3850 C   0  0  0  0  0  0  0  0  0  0  0  0
   -0.4100   -4.6030  -13.1240 C   0  0  1  0  0  0  0  0  0  0  0  0
    0.9930   -4.8740  -13.7130 C   0  0  1  0  0  0  0  0  0  0  0  0
    1.0750   -6.1470  -14.5160 C   0  0  0  0  0  0  0  0  0  0  0  0
    0.8730   -7.2740  -14.0820 O   0  0  0  0  0  0  0  0  0  0  0  0
    1.4310   -5.8430  -15.7930 N   0  0  0  0  0  0  0  0  0  0  0  0
    1.6880   -6.8610  -16.8200 C   0  0  0  0  0  0  0  0  0  0  0  0
    3.1070   -7.3720  -16.6480 C   0  0  0  0  0  0  0  0  0  0  0  0
    3.3390   -8.6110  -16.0220 C   0  0  0  0  0  0  0  0  0  0  0  0
    4.6460   -9.0660  -15.8740 C   0  0  0  0  0  0  0  0  0  0  0  0
    5.7050   -8.2980  -16.3490 C   0  0  0  0  0  0  0  0  0  0  0  0
    6.9520   -8.7470  -16.2210 F   0  0  0  0  0  0  0  0  0  0  0  0
    5.4780   -7.0740  -16.9580 C   0  0  0  0  0  0  0  0  0  0  0  0
    4.1720   -6.5990  -17.1040 C   0  0  0  0  0  0  0  0  0  0  0  0
    1.5060   -4.4920  -16.0040 C   0  0  0  0  0  0  0  0  0  0  0  0
    1.7780   -3.9820  -17.0460 O   0  0  0  0  0  0  0  0  0  0  0  0
    1.1150   -3.7730  -14.7930 C   0  0  1  0  0  0  0  0  0  0  0  0
   -0.3150   -3.2740  -15.0650 C   0  0  2  0  0  0  0  0  0  0  0  0
   -0.5780   -1.8730  -14.5580 C   0  0  0  0  0  0  0  0  0  0  0  0
   -1.9870   -1.8980  -14.0010 C   0  0  0  0  0  0  0  0  0  0  0  0
   -2.3810   -3.3440  -13.8270 C   0  0  0  0  0  0  0  0  0  0  0  0
   -1.2310   -4.1660  -14.2950 N   0  0  0  0  0  0  0  0  0  0  0  0
   -1.8910   -6.6550  -13.0120 C   0  0  0  0  0  0  0  0  0  0  0  0
   -2.4750   -7.7010  -12.2880 C   0  0  0  0  0  0  0  0  0  0  0  0
  2  1  2  0
  3  2  1  0
  4  2  1  0
  5  4  2  0
  6  5  1  0
  7  6  2  0
  8  7  1  6
  9  8  1  0
  9 10  1  6
 11 10  2  0
 12 10  1  0
 13 12  1  0
 14 13  1  0
 15 14  2  0
 16 15  1  0
 17 16  2  0
 18 17  1  0
 19 17  1  0
 20 14  1  0
 20 19  2  0
 21 12  1  0
 22 21  2  0
 23 21  1  6
 23  9  1  0
 24 23  1  0
 24 25  1  1
 26 25  1  0
 27 26  1  0
 28 27  1  0
 28 24  1  0
 28  8  1  0
 29  7  1  0
 30 29  2  0
 30  4  1  0
M  CHG  2   1   1  28   1
M  END
$$$$
