
     RDKit          3D

 29 32  0  0  0  0  0  0  0  0999 V2000
  -10.5250   12.3770    2.0160 O   0  0  0  0  0  0  0  0  0  0  0  0
  -10.2690   11.1920    1.8060 C   0  0  0  0  0  0  0  0  0  0  0  0
  -10.6610   10.5970    0.7890 O   0  0  0  0  0  0  0  0  0  0  0  0
   -9.4540   10.4560    2.8210 C   0  0  0  0  0  0  0  0  0  0  0  0
   -9.2800    9.0680    2.7100 C   0  0  0  0  0  0  0  0  0  0  0  0
   -8.5390    8.3730    3.6650 C   0  0  0  0  0  0  0  0  0  0  0  0
   -7.9600    9.0860    4.7430 C   0  0  0  0  0  0  0  0  0  0  0  0
   -7.2140    8.4710    5.7240 N   0  0  0  0  0  0  0  0  0  0  0  0
   -7.2120    7.1550    6.1360 C   0  0  0  0  0  0  0  0  0  0  0  0
   -6.5160    6.8160    7.2290 N   0  0  0  0  0  0  0  0  0  0  0  0
   -6.4950    5.5490    7.6150 C   0  0  0  0  0  0  0  0  0  0  0  0
   -7.1660    4.5720    6.9200 C   0  0  0  0  0  0  0  0  0  0  0  0
   -7.8690    4.9730    5.7850 C   0  0  0  0  0  0  0  0  0  0  0  0
   -8.5290    4.0410    5.0330 N   0  0  0  0  0  0  0  0  0  0  0  0
   -9.1550    4.3230    3.8060 C   0  0  0  0  0  0  0  0  0  0  0  0
  -10.1910    5.2740    3.7570 C   0  0  0  0  0  0  0  0  0  0  0  0
  -10.8080    5.5740    2.5410 C   0  0  0  0  0  0  0  0  0  0  0  0
  -10.4170    4.9190    1.3860 C   0  0  0  0  0  0  0  0  0  0  0  0
   -9.4060    3.9510    1.4390 C   0  0  0  0  0  0  0  0  0  0  0  0
   -8.7650    3.6440    2.6260 C   0  0  0  0  0  0  0  0  0  0  0  0
   -7.6950    2.6180    2.6290 C   0  0  0  0  0  0  0  0  0  0  0  0
   -7.9440    1.3350    3.1240 C   0  0  0  0  0  0  0  0  0  0  0  0
   -6.9180    0.3970    3.1300 C   0  0  0  0  0  0  0  0  0  0  0  0
   -5.6500    0.7330    2.6240 C   0  0  0  0  0  0  0  0  0  0  0  0
   -5.4130    2.0200    2.1390 C   0  0  0  0  0  0  0  0  0  0  0  0
   -6.4380    2.9570    2.1340 C   0  0  0  0  0  0  0  0  0  0  0  0
   -7.8930    6.2510    5.4070 N   0  0  0  0  0  0  0  0  0  0  0  0
   -8.1400   10.4490    4.8330 C   0  0  0  0  0  0  0  0  0  0  0  0
   -8.8750   11.1360    3.8870 C   0  0  0  0  0  0  0  0  0  0  0  0
  2  1  1  0
  3  2  2  0
  4  2  1  0
  5  4  2  0
  6  5  1  0
  7  6  2  0
  8  7  1  0
  9  8  1  0
 10  9  2  0
 11 10  1  0
 12 11  2  0
 13 12  1  0
 14 13  1  0
 15 14  1  0
 16 15  2  0
 17 16  1  0
 18 17  2  0
 19 18  1  0
 20 19  2  0
 20 15  1  0
 21 20  1  0
 22 21  2  0
 23 22  1  0
 24 23  2  0
 25 24  1  0
 26 21  1  0
 26 25  2  0
 27 13  2  0
 27  9  1  0
 28  7  1  0
 29 28  2  0
 29  4  1  0
M  CHG  1   1  -1
M  END
$$$$
