4x6p_ligand
     RDKit          3D

 64 69  0  0  0  0  0  0  0  0999 V2000
   -3.1080    8.5500  -13.5280 N   0  0  0  0  0  0  0  0  0  0  0  0
   -2.0450    7.8510  -13.0140 C   0  0  0  0  0  0  0  0  0  0  0  0
   -1.6580    6.5630  -13.4220 N   0  0  0  0  0  0  0  0  0  0  0  0
   -0.4540    6.1660  -12.6120 N   0  0  0  0  0  0  0  0  0  0  0  0
   -0.1680    7.2350  -11.7500 C   0  0  0  0  0  0  0  0  0  0  0  0
    0.8310    7.3870  -10.8060 C   0  0  0  0  0  0  0  0  0  0  0  0
    0.8770    8.5900  -10.0750 C   0  0  0  0  0  0  0  0  0  0  0  0
    1.9440    8.7420   -9.0960 C   0  0  0  0  0  0  0  0  0  0  0  0
    2.6800    9.8740   -8.8320 C   0  0  0  0  0  0  0  0  0  0  0  0
    3.5570    9.5130   -7.8470 N   0  0  0  0  0  0  0  0  0  0  0  0
    3.3310    8.1910   -7.5390 C   0  0  0  0  0  0  0  0  0  0  0  0
    4.1510    7.4480   -6.5180 C   0  0  2  0  0  0  0  0  0  0  0  0
    5.3470    8.2510   -5.9710 C   0  0  0  0  0  0  0  0  0  0  0  0
    5.3180    8.4050   -4.4660 C   0  0  0  0  0  0  0  0  0  0  0  0
    4.5140    7.5650   -3.6840 C   0  0  0  0  0  0  0  0  0  0  0  0
    4.4780    7.7110   -2.2960 C   0  0  0  0  0  0  0  0  0  0  0  0
    5.2420    8.6990   -1.6780 C   0  0  0  0  0  0  0  0  0  0  0  0
    6.0430    9.5420   -2.4470 C   0  0  0  0  0  0  0  0  0  0  0  0
    6.0810    9.3970   -3.8350 C   0  0  0  0  0  0  0  0  0  0  0  0
    4.5250    6.1470   -7.0810 N   0  0  0  0  0  0  0  0  0  0  0  0
    5.3770    6.0010   -8.1430 C   0  0  0  0  0  0  0  0  0  0  0  0
    5.9760    6.9250   -8.6800 O   0  0  0  0  0  0  0  0  0  0  0  0
    5.4440    4.6100   -8.6500 C   0  0  0  0  0  0  0  0  0  0  0  0
    5.6430    4.3970   -9.9600 C   0  0  0  0  0  0  0  0  0  0  0  0
    5.6390    3.0430  -10.5190 C   0  0  0  0  0  0  0  0  0  0  0  0
    6.6060    2.1690   -9.9810 C   0  0  0  0  0  0  0  0  0  0  0  0
    6.6410    0.8280  -10.3530 C   0  0  0  0  0  0  0  0  0  0  0  0
    7.8260   -0.2170   -9.6750 Cl  0  0  0  0  0  0  0  0  0  0  0  0
    5.7130    0.3260  -11.2580 C   0  0  0  0  0  0  0  0  0  0  0  0
    4.7520    1.1780  -11.8050 C   0  0  0  0  0  0  0  0  0  0  0  0
    4.7110    2.5470  -11.4600 C   0  0  0  0  0  0  0  0  0  0  0  0
    3.7210    3.3510  -12.0930 N   0  0  0  0  0  0  0  0  0  0  0  0
    3.7720    4.1380  -13.2180 C   0  0  0  0  0  0  0  0  0  0  0  0
    2.6150    4.7340  -13.3970 N   0  0  0  0  0  0  0  0  0  0  0  0
    1.8080    4.2820  -12.3910 N   0  0  0  0  0  0  0  0  0  0  0  0
    2.4540    3.4290  -11.6110 N   0  0  0  0  0  0  0  0  0  0  0  0
    2.3560    7.7060   -8.2860 N   0  0  0  0  0  0  0  0  0  0  0  0
   -0.0710    9.6270  -10.2920 C   0  0  0  0  0  0  0  0  0  0  0  0
   -1.1110    9.5400  -11.2320 C   0  0  0  0  0  0  0  0  0  0  0  0
   -1.1480    8.3350  -11.9590 C   0  0  0  0  0  0  0  0  0  0  0  0
   -3.6090    8.3520  -14.3910 H   0  0  0  0  0  0  0  0  0  0  0  0
   -3.4820    9.3880  -13.0810 H   0  0  0  0  0  0  0  0  0  0  0  0
   -2.1010    5.9890  -14.1370 H   0  0  0  0  0  0  0  0  0  0  0  0
    0.0470    5.2820  -12.6910 H   0  0  0  0  0  0  0  0  0  0  0  0
    1.5692    6.5905  -10.6309 H   0  0  0  0  0  0  0  0  0  0  0  0
    2.5835   10.8594   -9.3112 H   0  0  0  0  0  0  0  0  0  0  0  0
    4.2990   10.0780   -7.4460 H   0  0  0  0  0  0  0  0  0  0  0  0
    3.5342    7.2867   -5.6216 H   0  0  0  0  0  0  0  0  0  0  0  0
    6.2753    7.7323   -6.2523 H   0  0  0  0  0  0  0  0  0  0  0  0
    5.2919    9.2599   -6.4058 H   0  0  0  0  0  0  0  0  0  0  0  0
    3.9070    6.7851   -4.1671 H   0  0  0  0  0  0  0  0  0  0  0  0
    3.8460    7.0455   -1.6897 H   0  0  0  0  0  0  0  0  0  0  0  0
    5.2131    8.8137   -0.5844 H   0  0  0  0  0  0  0  0  0  0  0  0
    6.6458   10.3224   -1.9595 H   0  0  0  0  0  0  0  0  0  0  0  0
    6.7138   10.0655   -4.4372 H   0  0  0  0  0  0  0  0  0  0  0  0
    3.9520    5.3660   -6.7920 H   0  0  0  0  0  0  0  0  0  0  0  0
    5.3318    3.7609   -7.9597 H   0  0  0  0  0  0  0  0  0  0  0  0
    5.8123    5.2555  -10.6266 H   0  0  0  0  0  0  0  0  0  0  0  0
    7.3418    2.5516   -9.2584 H   0  0  0  0  0  0  0  0  0  0  0  0
    5.7358   -0.7366  -11.5415 H   0  0  0  0  0  0  0  0  0  0  0  0
    4.0149    0.7768  -12.5161 H   0  0  0  0  0  0  0  0  0  0  0  0
    4.6499    4.2520  -13.8709 H   0  0  0  0  0  0  0  0  0  0  0  0
    0.0144   10.5453   -9.6925 H   0  0  0  0  0  0  0  0  0  0  0  0
   -1.8392   10.3496  -11.3878 H   0  0  0  0  0  0  0  0  0  0  0  0
  1  2  1  0
  2  3  2  0
  3  4  1  0
  4  5  1  0
  5  6  2  0
  6  7  1  0
  7  8  1  0
  8  9  2  0
  9 10  1  0
 10 11  1  0
 11 12  1  0
 12 13  1  0
 13 14  1  0
 14 15  2  0
 15 16  1  0
 16 17  2  0
 17 18  1  0
 18 19  2  0
 12 20  1  0
 20 21  1  0
 21 22  2  0
 21 23  1  0
 23 24  2  0
 24 25  1  0
 25 26  2  0
 26 27  1  0
 27 28  1  0
 27 29  2  0
 29 30  1  0
 30 31  2  0
 31 32  1  0
 32 33  1  0
 33 34  2  0
 34 35  1  0
 35 36  2  0
 11 37  2  0
  7 38  2  0
 38 39  1  0
 39 40  2  0
 40  2  1  0
 40  5  1  0
 37  8  1  0
 19 14  1  0
 31 25  1  0
 36 32  1  0
  1 41  1  0
  1 42  1  0
  3 43  1  0
  4 44  1  0
  6 45  1  0
  9 46  1  0
 10 47  1  0
 12 48  1  1
 13 49  1  0
 13 50  1  0
 15 51  1  0
 16 52  1  0
 17 53  1  0
 18 54  1  0
 19 55  1  0
 20 56  1  0
 23 57  1  0
 24 58  1  0
 26 59  1  0
 29 60  1  0
 30 61  1  0
 33 62  1  0
 38 63  1  0
 39 64  1  0
M  CHG  1   3   1
M  END
>  <meeko>  (1) 
{"is_sidechain": [false], "free_energy": -9.569, "intermolecular_energy": -14.324, "internal_energy": -1.804}

$$$$
4x6p_ligand
     RDKit          3D

 64 69  0  0  0  0  0  0  0  0999 V2000
   13.1230    8.2690  -10.9210 N   0  0  0  0  0  0  0  0  0  0  0  0
   12.5250    8.2500   -9.6860 C   0  0  0  0  0  0  0  0  0  0  0  0
   13.1600    7.8720   -8.4910 N   0  0  0  0  0  0  0  0  0  0  0  0
   12.1570    7.9930   -7.3780 N   0  0  0  0  0  0  0  0  0  0  0  0
   10.9570    8.4410   -7.9520 C   0  0  0  0  0  0  0  0  0  0  0  0
    9.7310    8.7170   -7.3740 C   0  0  0  0  0  0  0  0  0  0  0  0
    8.6880    9.1610   -8.2110 C   0  0  0  0  0  0  0  0  0  0  0  0
    7.4080    9.4640   -7.5860 C   0  0  0  0  0  0  0  0  0  0  0  0
    6.9020   10.7060   -7.2800 C   0  0  0  0  0  0  0  0  0  0  0  0
    5.6850   10.4670   -6.7040 N   0  0  0  0  0  0  0  0  0  0  0  0
    5.4840    9.1060   -6.6790 C   0  0  0  0  0  0  0  0  0  0  0  0
    4.2580    8.4800   -6.0700 C   0  0  2  0  0  0  0  0  0  0  0  0
    4.5650    7.4040   -5.0100 C   0  0  0  0  0  0  0  0  0  0  0  0
    4.8380    7.9840   -3.6390 C   0  0  0  0  0  0  0  0  0  0  0  0
    5.8380    8.9500   -3.4660 C   0  0  0  0  0  0  0  0  0  0  0  0
    6.0980    9.4800   -2.2010 C   0  0  0  0  0  0  0  0  0  0  0  0
    5.3650    9.0470   -1.0980 C   0  0  0  0  0  0  0  0  0  0  0  0
    4.3700    8.0840   -1.2600 C   0  0  0  0  0  0  0  0  0  0  0  0
    4.1070    7.5530   -2.5230 C   0  0  0  0  0  0  0  0  0  0  0  0
    3.3920    8.0070   -7.1530 N   0  0  0  0  0  0  0  0  0  0  0  0
    2.6280    8.8380   -7.9270 C   0  0  0  0  0  0  0  0  0  0  0  0
    2.6470   10.0620   -7.8540 O   0  0  0  0  0  0  0  0  0  0  0  0
    1.6920    8.1110   -8.8190 C   0  0  0  0  0  0  0  0  0  0  0  0
    1.9860    7.9920  -10.1230 C   0  0  0  0  0  0  0  0  0  0  0  0
    1.0560    7.3500  -11.0550 C   0  0  0  0  0  0  0  0  0  0  0  0
   -0.1800    8.0070  -11.2170 C   0  0  0  0  0  0  0  0  0  0  0  0
   -1.1120    7.5560  -12.1490 C   0  0  0  0  0  0  0  0  0  0  0  0
   -2.6080    8.3830  -12.3320 Cl  0  0  0  0  0  0  0  0  0  0  0  0
   -0.8300    6.4510  -12.9430 C   0  0  0  0  0  0  0  0  0  0  0  0
    0.3870    5.7850  -12.7920 C   0  0  0  0  0  0  0  0  0  0  0  0
    1.3370    6.2100  -11.8390 C   0  0  0  0  0  0  0  0  0  0  0  0
    2.5360    5.4500  -11.7260 N   0  0  0  0  0  0  0  0  0  0  0  0
    3.8430    5.7660  -12.0080 C   0  0  0  0  0  0  0  0  0  0  0  0
    4.6110    4.7220  -11.7870 N   0  0  0  0  0  0  0  0  0  0  0  0
    3.7780    3.7460  -11.3190 N   0  0  0  0  0  0  0  0  0  0  0  0
    2.5290    4.1770  -11.2530 N   0  0  0  0  0  0  0  0  0  0  0  0
    6.5190    8.4800   -7.2100 N   0  0  0  0  0  0  0  0  0  0  0  0
    8.8780    9.3250   -9.6100 C   0  0  0  0  0  0  0  0  0  0  0  0
   10.0930    9.0620  -10.2630 C   0  0  0  0  0  0  0  0  0  0  0  0
   11.1300    8.6200   -9.4190 C   0  0  0  0  0  0  0  0  0  0  0  0
   13.0700    9.0140  -11.6130 H   0  0  0  0  0  0  0  0  0  0  0  0
   13.6720    7.4870  -11.2780 H   0  0  0  0  0  0  0  0  0  0  0  0
   14.1260    7.5690   -8.3810 H   0  0  0  0  0  0  0  0  0  0  0  0
   12.3350    7.7860   -6.3950 H   0  0  0  0  0  0  0  0  0  0  0  0
    9.5748    8.5934   -6.2922 H   0  0  0  0  0  0  0  0  0  0  0  0
    7.3751   11.6826   -7.4601 H   0  0  0  0  0  0  0  0  0  0  0  0
    5.0530   11.1490   -6.2950 H   0  0  0  0  0  0  0  0  0  0  0  0
    3.7222    9.2472   -5.4918 H   0  0  0  0  0  0  0  0  0  0  0  0
    3.7014    6.7265   -4.9382 H   0  0  0  0  0  0  0  0  0  0  0  0
    5.4755    6.8768   -5.3310 H   0  0  0  0  0  0  0  0  0  0  0  0
    6.4221    9.2930   -4.3327 H   0  0  0  0  0  0  0  0  0  0  0  0
    6.8826   10.2405   -2.0748 H   0  0  0  0  0  0  0  0  0  0  0  0
    5.5710    9.4642   -0.1013 H   0  0  0  0  0  0  0  0  0  0  0  0
    3.7908    7.7419   -0.3897 H   0  0  0  0  0  0  0  0  0  0  0  0
    3.3219    6.7921   -2.6439 H   0  0  0  0  0  0  0  0  0  0  0  0
    3.2100    7.0130   -7.1630 H   0  0  0  0  0  0  0  0  0  0  0  0
    0.7665    7.6740   -8.4158 H   0  0  0  0  0  0  0  0  0  0  0  0
    2.9427    8.3837  -10.4988 H   0  0  0  0  0  0  0  0  0  0  0  0
   -0.4119    8.8873  -10.5996 H   0  0  0  0  0  0  0  0  0  0  0  0
   -1.5622    6.1031  -13.6866 H   0  0  0  0  0  0  0  0  0  0  0  0
    0.6094    4.9143  -13.4264 H   0  0  0  0  0  0  0  0  0  0  0  0
    4.1941    6.7454  -12.3651 H   0  0  0  0  0  0  0  0  0  0  0  0
    8.0281    9.6767  -10.2133 H   0  0  0  0  0  0  0  0  0  0  0  0
   10.2243    9.1910  -11.3475 H   0  0  0  0  0  0  0  0  0  0  0  0
  1  2  1  0
  2  3  2  0
  3  4  1  0
  4  5  1  0
  5  6  2  0
  6  7  1  0
  7  8  1  0
  8  9  2  0
  9 10  1  0
 10 11  1  0
 11 12  1  0
 12 13  1  0
 13 14  1  0
 14 15  2  0
 15 16  1  0
 16 17  2  0
 17 18  1  0
 18 19  2  0
 12 20  1  0
 20 21  1  0
 21 22  2  0
 21 23  1  0
 23 24  2  0
 24 25  1  0
 25 26  2  0
 26 27  1  0
 27 28  1  0
 27 29  2  0
 29 30  1  0
 30 31  2  0
 31 32  1  0
 32 33  1  0
 33 34  2  0
 34 35  1  0
 35 36  2  0
 11 37  2  0
  7 38  2  0
 38 39  1  0
 39 40  2  0
 40  2  1  0
 40  5  1  0
 37  8  1  0
 19 14  1  0
 31 25  1  0
 36 32  1  0
  1 41  1  0
  1 42  1  0
  3 43  1  0
  4 44  1  0
  6 45  1  0
  9 46  1  0
 10 47  1  0
 12 48  1  1
 13 49  1  0
 13 50  1  0
 15 51  1  0
 16 52  1  0
 17 53  1  0
 18 54  1  0
 19 55  1  0
 20 56  1  0
 23 57  1  0
 24 58  1  0
 26 59  1  0
 29 60  1  0
 30 61  1  0
 33 62  1  0
 38 63  1  0
 39 64  1  0
M  CHG  1   3   1
M  END
>  <meeko>  (2) 
{"is_sidechain": [false], "free_energy": -9.3, "intermolecular_energy": -14.513, "internal_energy": -1.212}

$$$$
4x6p_ligand
     RDKit          3D

 64 69  0  0  0  0  0  0  0  0999 V2000
   13.7310    7.4590  -10.8350 N   0  0  0  0  0  0  0  0  0  0  0  0
   12.4850    8.0300  -10.8970 C   0  0  0  0  0  0  0  0  0  0  0  0
   11.8460    8.4390  -12.0800 N   0  0  0  0  0  0  0  0  0  0  0  0
   10.5050    9.0090  -11.7050 N   0  0  0  0  0  0  0  0  0  0  0  0
   10.3950    8.9180  -10.3090 C   0  0  0  0  0  0  0  0  0  0  0  0
    9.3680    9.2930   -9.4620 C   0  0  0  0  0  0  0  0  0  0  0  0
    9.5360    9.0760   -8.0800 C   0  0  0  0  0  0  0  0  0  0  0  0
    8.4400    9.4610   -7.2020 C   0  0  0  0  0  0  0  0  0  0  0  0
    8.3940   10.5390   -6.3480 C   0  0  0  0  0  0  0  0  0  0  0  0
    7.1710   10.4670   -5.7410 N   0  0  0  0  0  0  0  0  0  0  0  0
    6.5120    9.3650   -6.2380 C   0  0  0  0  0  0  0  0  0  0  0  0
    5.1470    8.9540   -5.7580 C   0  0  2  0  0  0  0  0  0  0  0  0
    5.1590    7.7590   -4.7850 C   0  0  0  0  0  0  0  0  0  0  0  0
    5.0950    8.1770   -3.3320 C   0  0  0  0  0  0  0  0  0  0  0  0
    5.9950    9.1260   -2.8280 C   0  0  0  0  0  0  0  0  0  0  0  0
    5.9450    9.5060   -1.4870 C   0  0  0  0  0  0  0  0  0  0  0  0
    4.9980    8.9410   -0.6350 C   0  0  0  0  0  0  0  0  0  0  0  0
    4.1000    7.9940   -1.1260 C   0  0  0  0  0  0  0  0  0  0  0  0
    4.1480    7.6120   -2.4670 C   0  0  0  0  0  0  0  0  0  0  0  0
    4.2850    8.7520   -6.9250 N   0  0  0  0  0  0  0  0  0  0  0  0
    3.5070    9.7380   -7.4700 C   0  0  0  0  0  0  0  0  0  0  0  0
    3.5080   10.9050   -7.0950 O   0  0  0  0  0  0  0  0  0  0  0  0
    2.5800    9.2410   -8.5150 C   0  0  0  0  0  0  0  0  0  0  0  0
    2.6740    7.9670   -8.9250 C   0  0  0  0  0  0  0  0  0  0  0  0
    1.8310    7.4540  -10.0080 C   0  0  0  0  0  0  0  0  0  0  0  0
    0.6140    8.1390  -10.1980 C   0  0  0  0  0  0  0  0  0  0  0  0
   -0.2290    7.8160  -11.2580 C   0  0  0  0  0  0  0  0  0  0  0  0
   -1.7040    8.6740  -11.4700 Cl  0  0  0  0  0  0  0  0  0  0  0  0
    0.1230    6.8140  -12.1540 C   0  0  0  0  0  0  0  0  0  0  0  0
    1.3220    6.1200  -11.9780 C   0  0  0  0  0  0  0  0  0  0  0  0
    2.1820    6.4160  -10.8980 C   0  0  0  0  0  0  0  0  0  0  0  0
    3.3660    5.6340  -10.7730 N   0  0  0  0  0  0  0  0  0  0  0  0
    3.6200    4.4720  -10.0860 C   0  0  0  0  0  0  0  0  0  0  0  0
    4.8830    4.1380  -10.2290 N   0  0  0  0  0  0  0  0  0  0  0  0
    5.4240    5.0840  -11.0530 N   0  0  0  0  0  0  0  0  0  0  0  0
    4.5160    5.9790  -11.4090 N   0  0  0  0  0  0  0  0  0  0  0  0
    7.2660    8.7430   -7.1260 N   0  0  0  0  0  0  0  0  0  0  0  0
   10.7210    8.4890   -7.5590 C   0  0  0  0  0  0  0  0  0  0  0  0
   11.8020    8.0860   -8.3600 C   0  0  0  0  0  0  0  0  0  0  0  0
   11.6250    8.3050   -9.7400 C   0  0  0  0  0  0  0  0  0  0  0  0
   14.6210    7.9130  -11.0290 H   0  0  0  0  0  0  0  0  0  0  0  0
   13.8740    6.4750  -10.6060 H   0  0  0  0  0  0  0  0  0  0  0  0
   12.2100    8.3680  -13.0280 H   0  0  0  0  0  0  0  0  0  0  0  0
    9.8190    9.3840  -12.3590 H   0  0  0  0  0  0  0  0  0  0  0  0
    8.4469    9.7474   -9.8558 H   0  0  0  0  0  0  0  0  0  0  0  0
    9.1748   11.2971   -6.1878 H   0  0  0  0  0  0  0  0  0  0  0  0
    6.8140   11.0640   -5.0010 H   0  0  0  0  0  0  0  0  0  0  0  0
    4.7322    9.7664   -5.1432 H   0  0  0  0  0  0  0  0  0  0  0  0
    4.2908    7.1201   -5.0042 H   0  0  0  0  0  0  0  0  0  0  0  0
    6.1098    7.2256   -4.9317 H   0  0  0  0  0  0  0  0  0  0  0  0
    6.7462    9.5743   -3.4949 H   0  0  0  0  0  0  0  0  0  0  0  0
    6.6543   10.2530   -1.1012 H   0  0  0  0  0  0  0  0  0  0  0  0
    4.9590    9.2414    0.4225 H   0  0  0  0  0  0  0  0  0  0  0  0
    3.3521    7.5471   -0.4545 H   0  0  0  0  0  0  0  0  0  0  0  0
    3.4382    6.8628   -2.8477 H   0  0  0  0  0  0  0  0  0  0  0  0
    4.1170    7.7880   -7.1810 H   0  0  0  0  0  0  0  0  0  0  0  0
    1.8228    9.9101   -8.9497 H   0  0  0  0  0  0  0  0  0  0  0  0
    3.3971    7.2954   -8.4392 H   0  0  0  0  0  0  0  0  0  0  0  0
    0.3265    8.9390   -9.4999 H   0  0  0  0  0  0  0  0  0  0  0  0
   -0.5392    6.5687  -12.9974 H   0  0  0  0  0  0  0  0  0  0  0  0
    1.6007    5.3307  -12.6917 H   0  0  0  0  0  0  0  0  0  0  0  0
    2.8779    3.9061   -9.5037 H   0  0  0  0  0  0  0  0  0  0  0  0
   10.7953    8.3427   -6.4713 H   0  0  0  0  0  0  0  0  0  0  0  0
   12.7144    7.6351   -7.9427 H   0  0  0  0  0  0  0  0  0  0  0  0
  1  2  1  0
  2  3  2  0
  3  4  1  0
  4  5  1  0
  5  6  2  0
  6  7  1  0
  7  8  1  0
  8  9  2  0
  9 10  1  0
 10 11  1  0
 11 12  1  0
 12 13  1  0
 13 14  1  0
 14 15  2  0
 15 16  1  0
 16 17  2  0
 17 18  1  0
 18 19  2  0
 12 20  1  0
 20 21  1  0
 21 22  2  0
 21 23  1  0
 23 24  2  0
 24 25  1  0
 25 26  2  0
 26 27  1  0
 27 28  1  0
 27 29  2  0
 29 30  1  0
 30 31  2  0
 31 32  1  0
 32 33  1  0
 33 34  2  0
 34 35  1  0
 35 36  2  0
 11 37  2  0
  7 38  2  0
 38 39  1  0
 39 40  2  0
 40  2  1  0
 40  5  1  0
 37  8  1  0
 19 14  1  0
 31 25  1  0
 36 32  1  0
  1 41  1  0
  1 42  1  0
  3 43  1  0
  4 44  1  0
  6 45  1  0
  9 46  1  0
 10 47  1  0
 12 48  1  1
 13 49  1  0
 13 50  1  0
 15 51  1  0
 16 52  1  0
 17 53  1  0
 18 54  1  0
 19 55  1  0
 20 56  1  0
 23 57  1  0
 24 58  1  0
 26 59  1  0
 29 60  1  0
 30 61  1  0
 33 62  1  0
 38 63  1  0
 39 64  1  0
M  CHG  1   3   1
M  END
>  <meeko>  (3) 
{"is_sidechain": [false], "free_energy": -9.069, "intermolecular_energy": -13.895, "internal_energy": -1.485}

$$$$
4x6p_ligand
     RDKit          3D

 64 69  0  0  0  0  0  0  0  0999 V2000
   10.7260   -0.0130  -13.6500 N   0  0  0  0  0  0  0  0  0  0  0  0
   10.2900    0.3260  -12.3940 C   0  0  0  0  0  0  0  0  0  0  0  0
   11.0220    0.1340  -11.2100 N   0  0  0  0  0  0  0  0  0  0  0  0
   10.1870    0.6400  -10.0660 N   0  0  0  0  0  0  0  0  0  0  0  0
    8.9860    1.1160  -10.6120 C   0  0  0  0  0  0  0  0  0  0  0  0
    7.8830    1.6840  -10.0010 C   0  0  0  0  0  0  0  0  0  0  0  0
    6.8020    2.0770  -10.8150 C   0  0  0  0  0  0  0  0  0  0  0  0
    5.6550    2.6890  -10.1600 C   0  0  0  0  0  0  0  0  0  0  0  0
    4.7660    2.0870   -9.2990 C   0  0  0  0  0  0  0  0  0  0  0  0
    3.8700    3.0640   -8.9640 N   0  0  0  0  0  0  0  0  0  0  0  0
    4.2360    4.2200   -9.6160 C   0  0  0  0  0  0  0  0  0  0  0  0
    3.4430    5.4940   -9.5100 C   0  0  2  0  0  0  0  0  0  0  0  0
    3.4860    6.3670  -10.7790 C   0  0  0  0  0  0  0  0  0  0  0  0
    2.1900    6.3380  -11.5620 C   0  0  0  0  0  0  0  0  0  0  0  0
    2.0060    5.4050  -12.5910 C   0  0  0  0  0  0  0  0  0  0  0  0
    0.8170    5.3830  -13.3210 C   0  0  0  0  0  0  0  0  0  0  0  0
   -0.1970    6.2940  -13.0320 C   0  0  0  0  0  0  0  0  0  0  0  0
   -0.0220    7.2280  -12.0120 C   0  0  0  0  0  0  0  0  0  0  0  0
    1.1660    7.2520  -11.2810 C   0  0  0  0  0  0  0  0  0  0  0  0
    3.8610    6.2020   -8.2970 N   0  0  0  0  0  0  0  0  0  0  0  0
    3.0880    7.1390   -7.6640 C   0  0  0  0  0  0  0  0  0  0  0  0
    1.9430    7.4240   -7.9930 O   0  0  0  0  0  0  0  0  0  0  0  0
    3.8050    7.8530   -6.5810 C   0  0  0  0  0  0  0  0  0  0  0  0
    4.1920    7.1740   -5.4900 C   0  0  0  0  0  0  0  0  0  0  0  0
    4.8340    7.8540   -4.3620 C   0  0  0  0  0  0  0  0  0  0  0  0
    4.2350    7.6290   -3.1060 C   0  0  0  0  0  0  0  0  0  0  0  0
    4.8070    8.1340   -1.9410 C   0  0  0  0  0  0  0  0  0  0  0  0
    4.0590    7.8370   -0.4220 Cl  0  0  0  0  0  0  0  0  0  0  0  0
    5.9890    8.8630   -2.0000 C   0  0  0  0  0  0  0  0  0  0  0  0
    6.5940    9.1000   -3.2360 C   0  0  0  0  0  0  0  0  0  0  0  0
    6.0200    8.6170   -4.4320 C   0  0  0  0  0  0  0  0  0  0  0  0
    6.6830    8.9370   -5.6500 N   0  0  0  0  0  0  0  0  0  0  0  0
    6.7160   10.0940   -6.3910 C   0  0  0  0  0  0  0  0  0  0  0  0
    7.4330    9.9060   -7.4770 N   0  0  0  0  0  0  0  0  0  0  0  0
    7.8930    8.6220   -7.3970 N   0  0  0  0  0  0  0  0  0  0  0  0
    7.4690    8.0330   -6.2900 N   0  0  0  0  0  0  0  0  0  0  0  0
    5.3170    4.0110  -10.3460 N   0  0  0  0  0  0  0  0  0  0  0  0
    6.8320    1.8990  -12.2250 C   0  0  0  0  0  0  0  0  0  0  0  0
    7.9170    1.3280  -12.9110 C   0  0  0  0  0  0  0  0  0  0  0  0
    8.9930    0.9400  -12.0900 C   0  0  0  0  0  0  0  0  0  0  0  0
   11.3460    0.5290  -14.2480 H   0  0  0  0  0  0  0  0  0  0  0  0
   10.4260   -0.8650  -14.1240 H   0  0  0  0  0  0  0  0  0  0  0  0
   11.9530   -0.2710  -11.1250 H   0  0  0  0  0  0  0  0  0  0  0  0
   10.4620    0.6310   -9.0840 H   0  0  0  0  0  0  0  0  0  0  0  0
    7.8505    1.8250   -8.9106 H   0  0  0  0  0  0  0  0  0  0  0  0
    4.7745    1.0426   -8.9539 H   0  0  0  0  0  0  0  0  0  0  0  0
    3.0350    2.9660   -8.3940 H   0  0  0  0  0  0  0  0  0  0  0  0
    2.3768    5.2366   -9.4260 H   0  0  0  0  0  0  0  0  0  0  0  0
    3.6933    7.4059  -10.4828 H   0  0  0  0  0  0  0  0  0  0  0  0
    4.2733    5.9608  -11.4311 H   0  0  0  0  0  0  0  0  0  0  0  0
    2.8041    4.6851  -12.8249 H   0  0  0  0  0  0  0  0  0  0  0  0
    0.6800    4.6456  -14.1256 H   0  0  0  0  0  0  0  0  0  0  0  0
   -1.1341    6.2762  -13.6078 H   0  0  0  0  0  0  0  0  0  0  0  0
   -0.8221    7.9474  -11.7831 H   0  0  0  0  0  0  0  0  0  0  0  0
    1.2996    7.9930  -10.4791 H   0  0  0  0  0  0  0  0  0  0  0  0
    4.8430    6.1320   -8.0680 H   0  0  0  0  0  0  0  0  0  0  0  0
    4.0178    8.9285   -6.6706 H   0  0  0  0  0  0  0  0  0  0  0  0
    4.0243    6.0879   -5.4417 H   0  0  0  0  0  0  0  0  0  0  0  0
    3.3036    7.0469   -3.0453 H   0  0  0  0  0  0  0  0  0  0  0  0
    6.4456    9.2513   -1.0776 H   0  0  0  0  0  0  0  0  0  0  0  0
    7.5326    9.6720   -3.2785 H   0  0  0  0  0  0  0  0  0  0  0  0
    6.2176   11.0355   -6.1168 H   0  0  0  0  0  0  0  0  0  0  0  0
    5.9595    2.2256  -12.8099 H   0  0  0  0  0  0  0  0  0  0  0  0
    7.9252    1.1947  -14.0029 H   0  0  0  0  0  0  0  0  0  0  0  0
  1  2  1  0
  2  3  2  0
  3  4  1  0
  4  5  1  0
  5  6  2  0
  6  7  1  0
  7  8  1  0
  8  9  2  0
  9 10  1  0
 10 11  1  0
 11 12  1  0
 12 13  1  0
 13 14  1  0
 14 15  2  0
 15 16  1  0
 16 17  2  0
 17 18  1  0
 18 19  2  0
 12 20  1  0
 20 21  1  0
 21 22  2  0
 21 23  1  0
 23 24  2  0
 24 25  1  0
 25 26  2  0
 26 27  1  0
 27 28  1  0
 27 29  2  0
 29 30  1  0
 30 31  2  0
 31 32  1  0
 32 33  1  0
 33 34  2  0
 34 35  1  0
 35 36  2  0
 11 37  2  0
  7 38  2  0
 38 39  1  0
 39 40  2  0
 40  2  1  0
 40  5  1  0
 37  8  1  0
 19 14  1  0
 31 25  1  0
 36 32  1  0
  1 41  1  0
  1 42  1  0
  3 43  1  0
  4 44  1  0
  6 45  1  0
  9 46  1  0
 10 47  1  0
 12 48  1  1
 13 49  1  0
 13 50  1  0
 15 51  1  0
 16 52  1  0
 17 53  1  0
 18 54  1  0
 19 55  1  0
 20 56  1  0
 23 57  1  0
 24 58  1  0
 26 59  1  0
 29 60  1  0
 30 61  1  0
 33 62  1  0
 38 63  1  0
 39 64  1  0
M  CHG  1   3   1
M  END
>  <meeko>  (4) 
{"is_sidechain": [false], "free_energy": -8.947, "intermolecular_energy": -13.934, "internal_energy": -1.263}

$$$$
4x6p_ligand
     RDKit          3D

 64 69  0  0  0  0  0  0  0  0999 V2000
    3.4690    7.6950   -0.2560 N   0  0  0  0  0  0  0  0  0  0  0  0
    4.5600    8.2030   -0.9140 C   0  0  0  0  0  0  0  0  0  0  0  0
    5.5800    8.9620   -0.3150 N   0  0  0  0  0  0  0  0  0  0  0  0
    6.5780    9.3170   -1.3830 N   0  0  0  0  0  0  0  0  0  0  0  0
    6.1160    8.7540   -2.5820 C   0  0  0  0  0  0  0  0  0  0  0  0
    6.6570    8.7780   -3.8540 C   0  0  0  0  0  0  0  0  0  0  0  0
    5.9620    8.1140   -4.8840 C   0  0  0  0  0  0  0  0  0  0  0  0
    6.5520    8.1340   -6.2150 C   0  0  0  0  0  0  0  0  0  0  0  0
    6.2420    7.3160   -7.2770 C   0  0  0  0  0  0  0  0  0  0  0  0
    7.0650    7.7170   -8.2930 N   0  0  0  0  0  0  0  0  0  0  0  0
    7.8400    8.7560   -7.8290 C   0  0  0  0  0  0  0  0  0  0  0  0
    8.8960    9.4160   -8.6730 C   0  0  2  0  0  0  0  0  0  0  0  0
   10.3370    9.0040   -8.3110 C   0  0  0  0  0  0  0  0  0  0  0  0
   11.1530    8.5840   -9.5140 C   0  0  0  0  0  0  0  0  0  0  0  0
   12.3250    7.8340   -9.3470 C   0  0  0  0  0  0  0  0  0  0  0  0
   13.0850    7.4530  -10.4540 C   0  0  0  0  0  0  0  0  0  0  0  0
   12.6830    7.8210  -11.7370 C   0  0  0  0  0  0  0  0  0  0  0  0
   11.5200    8.5690  -11.9130 C   0  0  0  0  0  0  0  0  0  0  0  0
   10.7590    8.9510  -10.8080 C   0  0  0  0  0  0  0  0  0  0  0  0
    8.6760   10.8650   -8.6440 N   0  0  0  0  0  0  0  0  0  0  0  0
    8.2580   11.5870   -9.7290 C   0  0  0  0  0  0  0  0  0  0  0  0
    7.9470   11.0950  -10.8080 O   0  0  0  0  0  0  0  0  0  0  0  0
    8.2990   13.0520   -9.5070 C   0  0  0  0  0  0  0  0  0  0  0  0
    7.9580   13.5450   -8.3060 C   0  0  0  0  0  0  0  0  0  0  0  0
    7.9100   14.9890   -8.0640 C   0  0  0  0  0  0  0  0  0  0  0  0
    9.1320   15.5740   -7.6760 C   0  0  0  0  0  0  0  0  0  0  0  0
    9.2440   16.9530   -7.5140 C   0  0  0  0  0  0  0  0  0  0  0  0
   10.7490   17.6390   -7.0470 Cl  0  0  0  0  0  0  0  0  0  0  0  0
    8.1490   17.7760   -7.7430 C   0  0  0  0  0  0  0  0  0  0  0  0
    6.9290   17.2140   -8.1230 C   0  0  0  0  0  0  0  0  0  0  0  0
    6.7850   15.8170   -8.2720 C   0  0  0  0  0  0  0  0  0  0  0  0
    5.4970   15.3270   -8.6260 N   0  0  0  0  0  0  0  0  0  0  0  0
    4.9270   15.0660   -9.8490 C   0  0  0  0  0  0  0  0  0  0  0  0
    3.6870   14.6620   -9.6850 N   0  0  0  0  0  0  0  0  0  0  0  0
    3.4860   14.6280   -8.3350 N   0  0  0  0  0  0  0  0  0  0  0  0
    4.5760   15.0030   -7.6820 N   0  0  0  0  0  0  0  0  0  0  0  0
    7.5420    9.0230   -6.5700 N   0  0  0  0  0  0  0  0  0  0  0  0
    4.7390    7.4330   -4.6340 C   0  0  0  0  0  0  0  0  0  0  0  0
    4.1320    7.3690   -3.3690 C   0  0  0  0  0  0  0  0  0  0  0  0
    4.8340    8.0350   -2.3460 C   0  0  0  0  0  0  0  0  0  0  0  0
    2.5050    7.6970   -0.5820 H   0  0  0  0  0  0  0  0  0  0  0  0
    3.5330    7.2810    0.6740 H   0  0  0  0  0  0  0  0  0  0  0  0
    5.6470    9.2310    0.6650 H   0  0  0  0  0  0  0  0  0  0  0  0
    7.4270    9.8630   -1.2400 H   0  0  0  0  0  0  0  0  0  0  0  0
    7.6035    9.3008   -4.0562 H   0  0  0  0  0  0  0  0  0  0  0  0
    5.4924    6.5114   -7.3033 H   0  0  0  0  0  0  0  0  0  0  0  0
    7.1600    7.2960   -9.2120 H   0  0  0  0  0  0  0  0  0  0  0  0
    8.7913    9.0576   -9.7077 H   0  0  0  0  0  0  0  0  0  0  0  0
   10.8356    9.8588   -7.8307 H   0  0  0  0  0  0  0  0  0  0  0  0
   10.2714    8.1355   -7.6391 H   0  0  0  0  0  0  0  0  0  0  0  0
   12.6482    7.5436   -8.3365 H   0  0  0  0  0  0  0  0  0  0  0  0
   14.0020    6.8618  -10.3138 H   0  0  0  0  0  0  0  0  0  0  0  0
   13.2826    7.5216  -12.6092 H   0  0  0  0  0  0  0  0  0  0  0  0
   11.2016    8.8587  -12.9253 H   0  0  0  0  0  0  0  0  0  0  0  0
    9.8440    9.5440  -10.9532 H   0  0  0  0  0  0  0  0  0  0  0  0
    9.0600   11.3480   -7.8440 H   0  0  0  0  0  0  0  0  0  0  0  0
    8.6058   13.7284  -10.3184 H   0  0  0  0  0  0  0  0  0  0  0  0
    7.7100   12.8520   -7.4885 H   0  0  0  0  0  0  0  0  0  0  0  0
   10.0086   14.9335   -7.4988 H   0  0  0  0  0  0  0  0  0  0  0  0
    8.2426   18.8657   -7.6255 H   0  0  0  0  0  0  0  0  0  0  0  0
    6.0658   17.8699   -8.3094 H   0  0  0  0  0  0  0  0  0  0  0  0
    5.4326   15.1783  -10.8194 H   0  0  0  0  0  0  0  0  0  0  0  0
    4.2418    6.9295   -5.4762 H   0  0  0  0  0  0  0  0  0  0  0  0
    3.1837    6.8406   -3.1915 H   0  0  0  0  0  0  0  0  0  0  0  0
  1  2  1  0
  2  3  2  0
  3  4  1  0
  4  5  1  0
  5  6  2  0
  6  7  1  0
  7  8  1  0
  8  9  2  0
  9 10  1  0
 10 11  1  0
 11 12  1  0
 12 13  1  0
 13 14  1  0
 14 15  2  0
 15 16  1  0
 16 17  2  0
 17 18  1  0
 18 19  2  0
 12 20  1  0
 20 21  1  0
 21 22  2  0
 21 23  1  0
 23 24  2  0
 24 25  1  0
 25 26  2  0
 26 27  1  0
 27 28  1  0
 27 29  2  0
 29 30  1  0
 30 31  2  0
 31 32  1  0
 32 33  1  0
 33 34  2  0
 34 35  1  0
 35 36  2  0
 11 37  2  0
  7 38  2  0
 38 39  1  0
 39 40  2  0
 40  2  1  0
 40  5  1  0
 37  8  1  0
 19 14  1  0
 31 25  1  0
 36 32  1  0
  1 41  1  0
  1 42  1  0
  3 43  1  0
  4 44  1  0
  6 45  1  0
  9 46  1  0
 10 47  1  0
 12 48  1  6
 13 49  1  0
 13 50  1  0
 15 51  1  0
 16 52  1  0
 17 53  1  0
 18 54  1  0
 19 55  1  0
 20 56  1  0
 23 57  1  0
 24 58  1  0
 26 59  1  0
 29 60  1  0
 30 61  1  0
 33 62  1  0
 38 63  1  0
 39 64  1  0
M  CHG  1   3   1
M  END
>  <meeko>  (5) 
{"is_sidechain": [false], "free_energy": -8.787, "intermolecular_energy": -13.383, "internal_energy": -1.575}

$$$$
4x6p_ligand
     RDKit          3D

 64 69  0  0  0  0  0  0  0  0999 V2000
    4.0210    7.9520   -0.0400 N   0  0  0  0  0  0  0  0  0  0  0  0
    4.9710    8.3980   -0.9240 C   0  0  0  0  0  0  0  0  0  0  0  0
    6.0430    9.2460   -0.5930 N   0  0  0  0  0  0  0  0  0  0  0  0
    6.8410    9.4890   -1.8440 N   0  0  0  0  0  0  0  0  0  0  0  0
    6.2150    8.7750   -2.8770 C   0  0  0  0  0  0  0  0  0  0  0  0
    6.5430    8.6560   -4.2150 C   0  0  0  0  0  0  0  0  0  0  0  0
    5.7190    7.8570   -5.0320 C   0  0  0  0  0  0  0  0  0  0  0  0
    6.0850    7.7280   -6.4350 C   0  0  0  0  0  0  0  0  0  0  0  0
    5.8970    6.6350   -7.2500 C   0  0  0  0  0  0  0  0  0  0  0  0
    6.4110    6.9970   -8.4640 N   0  0  0  0  0  0  0  0  0  0  0  0
    6.8880    8.2840   -8.3580 C   0  0  0  0  0  0  0  0  0  0  0  0
    7.5660    8.9910   -9.5010 C   0  0  2  0  0  0  0  0  0  0  0  0
    8.7120    9.9260   -9.0670 C   0  0  0  0  0  0  0  0  0  0  0  0
   10.0370    9.2080   -8.9180 C   0  0  0  0  0  0  0  0  0  0  0  0
   10.8070    8.9020  -10.0480 C   0  0  0  0  0  0  0  0  0  0  0  0
   12.0240    8.2320   -9.9140 C   0  0  0  0  0  0  0  0  0  0  0  0
   12.4800    7.8580   -8.6510 C   0  0  0  0  0  0  0  0  0  0  0  0
   11.7190    8.1550   -7.5220 C   0  0  0  0  0  0  0  0  0  0  0  0
   10.5020    8.8250   -7.6530 C   0  0  0  0  0  0  0  0  0  0  0  0
    6.5400    9.6570  -10.3080 N   0  0  0  0  0  0  0  0  0  0  0  0
    5.9260   10.8240   -9.9370 C   0  0  0  0  0  0  0  0  0  0  0  0
    6.2220   11.4730   -8.9410 O   0  0  0  0  0  0  0  0  0  0  0  0
    4.7910   11.1920  -10.8170 C   0  0  0  0  0  0  0  0  0  0  0  0
    3.5770   11.3820  -10.2780 C   0  0  0  0  0  0  0  0  0  0  0  0
    2.4110   11.6720  -11.1170 C   0  0  0  0  0  0  0  0  0  0  0  0
    2.4120   12.9410  -11.7280 C   0  0  0  0  0  0  0  0  0  0  0  0
    1.4130   13.3000  -12.6290 C   0  0  0  0  0  0  0  0  0  0  0  0
    1.4440   14.8530  -13.3670 Cl  0  0  0  0  0  0  0  0  0  0  0  0
    0.4000   12.4040  -12.9470 C   0  0  0  0  0  0  0  0  0  0  0  0
    0.3800   11.1430  -12.3470 C   0  0  0  0  0  0  0  0  0  0  0  0
    1.3700   10.7650  -11.4140 C   0  0  0  0  0  0  0  0  0  0  0  0
    1.2520    9.4750  -10.8220 N   0  0  0  0  0  0  0  0  0  0  0  0
    1.5050    8.2200  -11.3210 C   0  0  0  0  0  0  0  0  0  0  0  0
    1.2070    7.3140  -10.4160 N   0  0  0  0  0  0  0  0  0  0  0  0
    0.7990    8.0130   -9.3150 N   0  0  0  0  0  0  0  0  0  0  0  0
    0.8440    9.3180   -9.5370 N   0  0  0  0  0  0  0  0  0  0  0  0
    6.6990    8.7440   -7.1350 N   0  0  0  0  0  0  0  0  0  0  0  0
    4.5800    7.1860   -4.5070 C   0  0  0  0  0  0  0  0  0  0  0  0
    4.1880    7.2640   -3.1610 C   0  0  0  0  0  0  0  0  0  0  0  0
    5.0180    8.0630   -2.3520 C   0  0  0  0  0  0  0  0  0  0  0  0
    3.4740    8.5180    0.6040 H   0  0  0  0  0  0  0  0  0  0  0  0
    3.7950    6.9630    0.0700 H   0  0  0  0  0  0  0  0  0  0  0  0
    6.2550    9.6330    0.3250 H   0  0  0  0  0  0  0  0  0  0  0  0
    7.6790   10.0660   -1.9080 H   0  0  0  0  0  0  0  0  0  0  0  0
    7.4223    9.1706   -4.6297 H   0  0  0  0  0  0  0  0  0  0  0  0
    5.4322    5.6748   -6.9818 H   0  0  0  0  0  0  0  0  0  0  0  0
    6.5030    6.4170   -9.2920 H   0  0  0  0  0  0  0  0  0  0  0  0
    8.0811    8.2427  -10.1212 H   0  0  0  0  0  0  0  0  0  0  0  0
    8.8248   10.7167   -9.8234 H   0  0  0  0  0  0  0  0  0  0  0  0
    8.4470   10.3357   -8.0812 H   0  0  0  0  0  0  0  0  0  0  0  0
   10.4499    9.1917  -11.0473 H   0  0  0  0  0  0  0  0  0  0  0  0
   12.6239    7.9988  -10.8060 H   0  0  0  0  0  0  0  0  0  0  0  0
   13.4389    7.3293   -8.5457 H   0  0  0  0  0  0  0  0  0  0  0  0
   12.0786    7.8605   -6.5250 H   0  0  0  0  0  0  0  0  0  0  0  0
    9.9044    9.0537   -6.7582 H   0  0  0  0  0  0  0  0  0  0  0  0
    6.1420    9.1010  -11.0520 H   0  0  0  0  0  0  0  0  0  0  0  0
    4.9425   11.3080  -11.9003 H   0  0  0  0  0  0  0  0  0  0  0  0
    3.4548   11.3189   -9.1866 H   0  0  0  0  0  0  0  0  0  0  0  0
    3.2121   13.6575  -11.4904 H   0  0  0  0  0  0  0  0  0  0  0  0
   -0.3820   12.6862  -13.6673 H   0  0  0  0  0  0  0  0  0  0  0  0
   -0.4196   10.4332  -12.6054 H   0  0  0  0  0  0  0  0  0  0  0  0
    1.8976    8.0057  -12.3259 H   0  0  0  0  0  0  0  0  0  0  0  0
    3.9744    6.5738   -5.1915 H   0  0  0  0  0  0  0  0  0  0  0  0
    3.3024    6.7420   -2.7696 H   0  0  0  0  0  0  0  0  0  0  0  0
  1  2  1  0
  2  3  2  0
  3  4  1  0
  4  5  1  0
  5  6  2  0
  6  7  1  0
  7  8  1  0
  8  9  2  0
  9 10  1  0
 10 11  1  0
 11 12  1  0
 12 13  1  0
 13 14  1  0
 14 15  2  0
 15 16  1  0
 16 17  2  0
 17 18  1  0
 18 19  2  0
 12 20  1  0
 20 21  1  0
 21 22  2  0
 21 23  1  0
 23 24  2  0
 24 25  1  0
 25 26  2  0
 26 27  1  0
 27 28  1  0
 27 29  2  0
 29 30  1  0
 30 31  2  0
 31 32  1  0
 32 33  1  0
 33 34  2  0
 34 35  1  0
 35 36  2  0
 11 37  2  0
  7 38  2  0
 38 39  1  0
 39 40  2  0
 40  2  1  0
 40  5  1  0
 37  8  1  0
 19 14  1  0
 31 25  1  0
 36 32  1  0
  1 41  1  0
  1 42  1  0
  3 43  1  0
  4 44  1  0
  6 45  1  0
  9 46  1  0
 10 47  1  0
 12 48  1  6
 13 49  1  0
 13 50  1  0
 15 51  1  0
 16 52  1  0
 17 53  1  0
 18 54  1  0
 19 55  1  0
 20 56  1  0
 23 57  1  0
 24 58  1  0
 26 59  1  0
 29 60  1  0
 30 61  1  0
 33 62  1  0
 38 63  1  0
 39 64  1  0
M  CHG  1   3   1
M  END
>  <meeko>  (6) 
{"is_sidechain": [false], "free_energy": -8.775, "intermolecular_energy": -13.748, "internal_energy": -1.192}

$$$$
4x6p_ligand
     RDKit          3D

 64 69  0  0  0  0  0  0  0  0999 V2000
    8.7970   -1.2670  -11.0620 N   0  0  0  0  0  0  0  0  0  0  0  0
    7.8800   -0.4760  -10.4170 C   0  0  0  0  0  0  0  0  0  0  0  0
    7.4720   -0.6430   -9.0820 N   0  0  0  0  0  0  0  0  0  0  0  0
    6.4620    0.4280   -8.7730 N   0  0  0  0  0  0  0  0  0  0  0  0
    6.3060    1.1950   -9.9370 C   0  0  0  0  0  0  0  0  0  0  0  0
    5.5070    2.2950  -10.1890 C   0  0  0  0  0  0  0  0  0  0  0  0
    5.5570    2.8730  -11.4720 C   0  0  0  0  0  0  0  0  0  0  0  0
    4.7220    4.0400  -11.7180 C   0  0  0  0  0  0  0  0  0  0  0  0
    4.5710    4.7240  -12.9020 C   0  0  0  0  0  0  0  0  0  0  0  0
    3.6980    5.7390  -12.6240 N   0  0  0  0  0  0  0  0  0  0  0  0
    3.3430    5.6440  -11.2980 C   0  0  0  0  0  0  0  0  0  0  0  0
    2.4220    6.6330  -10.6350 C   0  0  2  0  0  0  0  0  0  0  0  0
    1.9390    7.7610  -11.5670 C   0  0  0  0  0  0  0  0  0  0  0  0
    0.4870    7.6150  -11.9710 C   0  0  0  0  0  0  0  0  0  0  0  0
    0.0770    6.5320  -12.7590 C   0  0  0  0  0  0  0  0  0  0  0  0
   -1.2590    6.4000  -13.1400 C   0  0  0  0  0  0  0  0  0  0  0  0
   -2.1960    7.3500  -12.7410 C   0  0  0  0  0  0  0  0  0  0  0  0
   -1.7980    8.4340  -11.9590 C   0  0  0  0  0  0  0  0  0  0  0  0
   -0.4630    8.5670  -11.5760 C   0  0  0  0  0  0  0  0  0  0  0  0
    3.0650    7.1190   -9.4110 N   0  0  0  0  0  0  0  0  0  0  0  0
    2.3740    7.6530   -8.3560 C   0  0  0  0  0  0  0  0  0  0  0  0
    1.1520    7.7070   -8.2880 O   0  0  0  0  0  0  0  0  0  0  0  0
    3.2540    8.2510   -7.3240 C   0  0  0  0  0  0  0  0  0  0  0  0
    4.0940    7.4600   -6.6380 C   0  0  0  0  0  0  0  0  0  0  0  0
    4.9270    7.9940   -5.5570 C   0  0  0  0  0  0  0  0  0  0  0  0
    4.4420    7.7590   -4.2550 C   0  0  0  0  0  0  0  0  0  0  0  0
    5.1890    8.1250   -3.1380 C   0  0  0  0  0  0  0  0  0  0  0  0
    4.5760    7.8180   -1.5610 Cl  0  0  0  0  0  0  0  0  0  0  0  0
    6.4340    8.7220   -3.2930 C   0  0  0  0  0  0  0  0  0  0  0  0
    6.9280    8.9680   -4.5750 C   0  0  0  0  0  0  0  0  0  0  0  0
    6.1780    8.6260   -5.7220 C   0  0  0  0  0  0  0  0  0  0  0  0
    6.7410    8.9460   -6.9900 N   0  0  0  0  0  0  0  0  0  0  0  0
    6.6430   10.0730   -7.7700 C   0  0  0  0  0  0  0  0  0  0  0  0
    7.3050    9.8960   -8.8910 N   0  0  0  0  0  0  0  0  0  0  0  0
    7.8630    8.6530   -8.7980 N   0  0  0  0  0  0  0  0  0  0  0  0
    7.5520    8.0770   -7.6470 N   0  0  0  0  0  0  0  0  0  0  0  0
    3.9540    4.6190  -10.7320 N   0  0  0  0  0  0  0  0  0  0  0  0
    6.4020    2.3490  -12.4890 C   0  0  0  0  0  0  0  0  0  0  0  0
    7.2380    1.2360  -12.3040 C   0  0  0  0  0  0  0  0  0  0  0  0
    7.1820    0.6660  -11.0180 C   0  0  0  0  0  0  0  0  0  0  0  0
    9.8060   -1.1340  -11.0890 H   0  0  0  0  0  0  0  0  0  0  0  0
    8.5280   -2.0770  -11.6200 H   0  0  0  0  0  0  0  0  0  0  0  0
    7.7940   -1.3540   -8.4290 H   0  0  0  0  0  0  0  0  0  0  0  0
    5.9920    0.5560   -7.8770 H   0  0  0  0  0  0  0  0  0  0  0  0
    4.8504    2.7072   -9.4087 H   0  0  0  0  0  0  0  0  0  0  0  0
    5.0504    4.5017  -13.8668 H   0  0  0  0  0  0  0  0  0  0  0  0
    3.4020    6.4850  -13.2460 H   0  0  0  0  0  0  0  0  0  0  0  0
    1.4875    6.1175  -10.3686 H   0  0  0  0  0  0  0  0  0  0  0  0
    2.0630    8.7223  -11.0470 H   0  0  0  0  0  0  0  0  0  0  0  0
    2.5424    7.7095  -12.4853 H   0  0  0  0  0  0  0  0  0  0  0  0
    0.8132    5.7803  -13.0798 H   0  0  0  0  0  0  0  0  0  0  0  0
   -1.5724    5.5445  -13.7563 H   0  0  0  0  0  0  0  0  0  0  0  0
   -3.2488    7.2455  -13.0423 H   0  0  0  0  0  0  0  0  0  0  0  0
   -2.5374    9.1850  -11.6438 H   0  0  0  0  0  0  0  0  0  0  0  0
   -0.1540    9.4244  -10.9601 H   0  0  0  0  0  0  0  0  0  0  0  0
    4.0650    7.2480   -9.4660 H   0  0  0  0  0  0  0  0  0  0  0  0
    3.2191    9.3318   -7.1224 H   0  0  0  0  0  0  0  0  0  0  0  0
    4.1583    6.3916   -6.8919 H   0  0  0  0  0  0  0  0  0  0  0  0
    3.4609    7.2804   -4.1191 H   0  0  0  0  0  0  0  0  0  0  0  0
    7.0276    8.9995   -2.4095 H   0  0  0  0  0  0  0  0  0  0  0  0
    7.9166    9.4354   -4.6939 H   0  0  0  0  0  0  0  0  0  0  0  0
    6.0932   10.9858   -7.4970 H   0  0  0  0  0  0  0  0  0  0  0  0
    6.4006    2.8417  -13.4725 H   0  0  0  0  0  0  0  0  0  0  0  0
    7.8853    0.8408  -13.1008 H   0  0  0  0  0  0  0  0  0  0  0  0
  1  2  1  0
  2  3  2  0
  3  4  1  0
  4  5  1  0
  5  6  2  0
  6  7  1  0
  7  8  1  0
  8  9  2  0
  9 10  1  0
 10 11  1  0
 11 12  1  0
 12 13  1  0
 13 14  1  0
 14 15  2  0
 15 16  1  0
 16 17  2  0
 17 18  1  0
 18 19  2  0
 12 20  1  0
 20 21  1  0
 21 22  2  0
 21 23  1  0
 23 24  2  0
 24 25  1  0
 25 26  2  0
 26 27  1  0
 27 28  1  0
 27 29  2  0
 29 30  1  0
 30 31  2  0
 31 32  1  0
 32 33  1  0
 33 34  2  0
 34 35  1  0
 35 36  2  0
 11 37  2  0
  7 38  2  0
 38 39  1  0
 39 40  2  0
 40  2  1  0
 40  5  1  0
 37  8  1  0
 19 14  1  0
 31 25  1  0
 36 32  1  0
  1 41  1  0
  1 42  1  0
  3 43  1  0
  4 44  1  0
  6 45  1  0
  9 46  1  0
 10 47  1  0
 12 48  1  1
 13 49  1  0
 13 50  1  0
 15 51  1  0
 16 52  1  0
 17 53  1  0
 18 54  1  0
 19 55  1  0
 20 56  1  0
 23 57  1  0
 24 58  1  0
 26 59  1  0
 29 60  1  0
 30 61  1  0
 33 62  1  0
 38 63  1  0
 39 64  1  0
M  CHG  1   3   1
M  END
>  <meeko>  (7) 
{"is_sidechain": [false], "free_energy": -8.746, "intermolecular_energy": -13.273, "internal_energy": -1.623}

$$$$
4x6p_ligand
     RDKit          3D

 64 69  0  0  0  0  0  0  0  0999 V2000
    4.7580   16.5050   -9.9490 N   0  0  0  0  0  0  0  0  0  0  0  0
    4.0050   15.7570   -9.0790 C   0  0  0  0  0  0  0  0  0  0  0  0
    3.0030   16.2690   -8.2370 N   0  0  0  0  0  0  0  0  0  0  0  0
    2.4300   15.1210   -7.4540 N   0  0  0  0  0  0  0  0  0  0  0  0
    3.1120   13.9640   -7.8590 C   0  0  0  0  0  0  0  0  0  0  0  0
    2.9720   12.6490   -7.4550 C   0  0  0  0  0  0  0  0  0  0  0  0
    3.8080   11.6810   -8.0460 C   0  0  0  0  0  0  0  0  0  0  0  0
    3.6370   10.2970   -7.6230 C   0  0  0  0  0  0  0  0  0  0  0  0
    2.6480    9.4230   -8.0100 C   0  0  0  0  0  0  0  0  0  0  0  0
    2.9120    8.2600   -7.3400 N   0  0  0  0  0  0  0  0  0  0  0  0
    4.0420    8.4550   -6.5780 C   0  0  0  0  0  0  0  0  0  0  0  0
    4.6000    7.3900   -5.6730 C   0  0  2  0  0  0  0  0  0  0  0  0
    5.8570    7.8250   -4.8950 C   0  0  0  0  0  0  0  0  0  0  0  0
    5.5610    8.2190   -3.4630 C   0  0  0  0  0  0  0  0  0  0  0  0
    6.2870    9.2460   -2.8470 C   0  0  0  0  0  0  0  0  0  0  0  0
    6.0220    9.6050   -1.5250 C   0  0  0  0  0  0  0  0  0  0  0  0
    5.0320    8.9390   -0.8050 C   0  0  0  0  0  0  0  0  0  0  0  0
    4.3060    7.9130   -1.4080 C   0  0  0  0  0  0  0  0  0  0  0  0
    4.5690    7.5520   -2.7310 C   0  0  0  0  0  0  0  0  0  0  0  0
    4.7910    6.1660   -6.4580 N   0  0  0  0  0  0  0  0  0  0  0  0
    5.6190    6.0880   -7.5450 C   0  0  0  0  0  0  0  0  0  0  0  0
    6.3450    6.9990   -7.9270 O   0  0  0  0  0  0  0  0  0  0  0  0
    5.4930    4.8100   -8.2860 C   0  0  0  0  0  0  0  0  0  0  0  0
    5.6230    4.8090   -9.6210 C   0  0  0  0  0  0  0  0  0  0  0  0
    5.4290    3.5840  -10.4020 C   0  0  0  0  0  0  0  0  0  0  0  0
    6.2480    2.4990  -10.0290 C   0  0  0  0  0  0  0  0  0  0  0  0
    6.0920    1.2490  -10.6240 C   0  0  0  0  0  0  0  0  0  0  0  0
    7.1000   -0.0580  -10.1430 Cl  0  0  0  0  0  0  0  0  0  0  0  0
    5.1150    1.0510  -11.5910 C   0  0  0  0  0  0  0  0  0  0  0  0
    4.2980    2.1160  -11.9770 C   0  0  0  0  0  0  0  0  0  0  0  0
    4.4530    3.3970  -11.4040 C   0  0  0  0  0  0  0  0  0  0  0  0
    3.6030    4.4330  -11.8830 N   0  0  0  0  0  0  0  0  0  0  0  0
    3.8490    5.5010  -12.7120 C   0  0  0  0  0  0  0  0  0  0  0  0
    2.7590    6.2250  -12.8410 N   0  0  0  0  0  0  0  0  0  0  0  0
    1.8000    5.5790  -12.1130 N   0  0  0  0  0  0  0  0  0  0  0  0
    2.2880    4.4850  -11.5490 N   0  0  0  0  0  0  0  0  0  0  0  0
    4.4960    9.6850   -6.7370 N   0  0  0  0  0  0  0  0  0  0  0  0
    4.7710   12.0320   -9.0300 C   0  0  0  0  0  0  0  0  0  0  0  0
    4.9690   13.3470   -9.4850 C   0  0  0  0  0  0  0  0  0  0  0  0
    4.1290   14.3070   -8.8900 C   0  0  0  0  0  0  0  0  0  0  0  0
    5.1200   16.2090  -10.8520 H   0  0  0  0  0  0  0  0  0  0  0  0
    5.0560   17.4580   -9.7380 H   0  0  0  0  0  0  0  0  0  0  0  0
    2.7050   17.2400   -8.1610 H   0  0  0  0  0  0  0  0  0  0  0  0
    1.6830   15.1910   -6.7630 H   0  0  0  0  0  0  0  0  0  0  0  0
    2.2294   12.3668   -6.6942 H   0  0  0  0  0  0  0  0  0  0  0  0
    1.8213    9.6177   -8.7090 H   0  0  0  0  0  0  0  0  0  0  0  0
    2.3530    7.4130   -7.3320 H   0  0  0  0  0  0  0  0  0  0  0  0
    3.8714    7.1931   -4.8727 H   0  0  0  0  0  0  0  0  0  0  0  0
    6.5714    6.9886   -4.8877 H   0  0  0  0  0  0  0  0  0  0  0  0
    6.2667    8.7113   -5.4017 H   0  0  0  0  0  0  0  0  0  0  0  0
    7.0717    9.7733   -3.4093 H   0  0  0  0  0  0  0  0  0  0  0  0
    6.5954   10.4149   -1.0504 H   0  0  0  0  0  0  0  0  0  0  0  0
    4.8238    9.2224    0.2373 H   0  0  0  0  0  0  0  0  0  0  0  0
    3.5244    7.3867   -0.8405 H   0  0  0  0  0  0  0  0  0  0  0  0
    3.9948    6.7401   -3.2012 H   0  0  0  0  0  0  0  0  0  0  0  0
    4.1120    5.4350   -6.2960 H   0  0  0  0  0  0  0  0  0  0  0  0
    5.2949    3.8721   -7.7464 H   0  0  0  0  0  0  0  0  0  0  0  0
    5.8799    5.7447  -10.1392 H   0  0  0  0  0  0  0  0  0  0  0  0
    7.0200    2.6411   -9.2584 H   0  0  0  0  0  0  0  0  0  0  0  0
    4.9853    0.0601  -12.0507 H   0  0  0  0  0  0  0  0  0  0  0  0
    3.5217    1.9542  -12.7393 H   0  0  0  0  0  0  0  0  0  0  0  0
    4.8131    5.7177  -13.1952 H   0  0  0  0  0  0  0  0  0  0  0  0
    5.3941   11.2329   -9.4580 H   0  0  0  0  0  0  0  0  0  0  0  0
    5.7206   13.6054  -10.2455 H   0  0  0  0  0  0  0  0  0  0  0  0
  1  2  1  0
  2  3  2  0
  3  4  1  0
  4  5  1  0
  5  6  2  0
  6  7  1  0
  7  8  1  0
  8  9  2  0
  9 10  1  0
 10 11  1  0
 11 12  1  0
 12 13  1  0
 13 14  1  0
 14 15  2  0
 15 16  1  0
 16 17  2  0
 17 18  1  0
 18 19  2  0
 12 20  1  0
 20 21  1  0
 21 22  2  0
 21 23  1  0
 23 24  2  0
 24 25  1  0
 25 26  2  0
 26 27  1  0
 27 28  1  0
 27 29  2  0
 29 30  1  0
 30 31  2  0
 31 32  1  0
 32 33  1  0
 33 34  2  0
 34 35  1  0
 35 36  2  0
 11 37  2  0
  7 38  2  0
 38 39  1  0
 39 40  2  0
 40  2  1  0
 40  5  1  0
 37  8  1  0
 19 14  1  0
 31 25  1  0
 36 32  1  0
  1 41  1  0
  1 42  1  0
  3 43  1  0
  4 44  1  0
  6 45  1  0
  9 46  1  0
 10 47  1  0
 12 48  1  1
 13 49  1  0
 13 50  1  0
 15 51  1  0
 16 52  1  0
 17 53  1  0
 18 54  1  0
 19 55  1  0
 20 56  1  0
 23 57  1  0
 24 58  1  0
 26 59  1  0
 29 60  1  0
 30 61  1  0
 33 62  1  0
 38 63  1  0
 39 64  1  0
M  CHG  1   3   1
M  END
>  <meeko>  (8) 
{"is_sidechain": [false], "free_energy": -8.698, "intermolecular_energy": -13.672, "internal_energy": -1.152}

$$$$
4x6p_ligand
     RDKit          3D

 64 69  0  0  0  0  0  0  0  0999 V2000
   -3.8840    8.0550  -13.0970 N   0  0  0  0  0  0  0  0  0  0  0  0
   -2.6800    7.4630  -12.8080 C   0  0  0  0  0  0  0  0  0  0  0  0
   -2.3080    6.1660  -13.2010 N   0  0  0  0  0  0  0  0  0  0  0  0
   -0.9190    5.9090  -12.6840 N   0  0  0  0  0  0  0  0  0  0  0  0
   -0.5140    7.0660  -12.0000 C   0  0  0  0  0  0  0  0  0  0  0  0
    0.6680    7.3560  -11.3450 C   0  0  0  0  0  0  0  0  0  0  0  0
    0.7990    8.6210  -10.7400 C   0  0  0  0  0  0  0  0  0  0  0  0
    2.0560    8.9190  -10.0670 C   0  0  0  0  0  0  0  0  0  0  0  0
    2.4210   10.1010   -9.4650 C   0  0  0  0  0  0  0  0  0  0  0  0
    3.6850    9.8880   -8.9890 N   0  0  0  0  0  0  0  0  0  0  0  0
    4.0480    8.5980   -9.3050 C   0  0  0  0  0  0  0  0  0  0  0  0
    5.4020    8.0340   -8.9680 C   0  0  2  0  0  0  0  0  0  0  0  0
    6.5710    8.7520   -9.6690 C   0  0  0  0  0  0  0  0  0  0  0  0
    7.8370    8.7710   -8.8390 C   0  0  0  0  0  0  0  0  0  0  0  0
    7.7670    8.7430   -7.4400 C   0  0  0  0  0  0  0  0  0  0  0  0
    8.9320    8.7700   -6.6720 C   0  0  0  0  0  0  0  0  0  0  0  0
   10.1770    8.8290   -7.2950 C   0  0  0  0  0  0  0  0  0  0  0  0
   10.2580    8.8610   -8.6860 C   0  0  0  0  0  0  0  0  0  0  0  0
    9.0940    8.8340   -9.4560 C   0  0  0  0  0  0  0  0  0  0  0  0
    5.3750    6.5880   -9.2060 N   0  0  0  0  0  0  0  0  0  0  0  0
    5.5350    5.6570   -8.2150 C   0  0  0  0  0  0  0  0  0  0  0  0
    5.6360    5.9270   -7.0240 O   0  0  0  0  0  0  0  0  0  0  0  0
    5.6680    4.2730   -8.7290 C   0  0  0  0  0  0  0  0  0  0  0  0
    5.6190    4.0560  -10.0520 C   0  0  0  0  0  0  0  0  0  0  0  0
    5.6680    2.6980  -10.6020 C   0  0  0  0  0  0  0  0  0  0  0  0
    6.6490    1.8580  -10.0380 C   0  0  0  0  0  0  0  0  0  0  0  0
    6.7320    0.5160  -10.4000 C   0  0  0  0  0  0  0  0  0  0  0  0
    7.9340   -0.4880   -9.6900 Cl  0  0  0  0  0  0  0  0  0  0  0  0
    5.8390   -0.0190  -11.3200 C   0  0  0  0  0  0  0  0  0  0  0  0
    4.8640    0.8000  -11.8920 C   0  0  0  0  0  0  0  0  0  0  0  0
    4.7740    2.1690  -11.5580 C   0  0  0  0  0  0  0  0  0  0  0  0
    3.7740    2.9390  -12.2170 N   0  0  0  0  0  0  0  0  0  0  0  0
    3.8390    3.7680  -13.3110 C   0  0  0  0  0  0  0  0  0  0  0  0
    2.6600    4.3040  -13.5330 N   0  0  0  0  0  0  0  0  0  0  0  0
    1.8290    3.7710  -12.5880 N   0  0  0  0  0  0  0  0  0  0  0  0
    2.4810    2.9280  -11.8030 N   0  0  0  0  0  0  0  0  0  0  0  0
    3.0720    7.9950   -9.9590 N   0  0  0  0  0  0  0  0  0  0  0  0
   -0.2470    9.5820  -10.7950 C   0  0  0  0  0  0  0  0  0  0  0  0
   -1.4740    9.3550  -11.4420 C   0  0  0  0  0  0  0  0  0  0  0  0
   -1.5950    8.0880  -12.0440 C   0  0  0  0  0  0  0  0  0  0  0  0
   -4.8100    7.6800  -12.9050 H   0  0  0  0  0  0  0  0  0  0  0  0
   -3.9530    8.9520  -13.5780 H   0  0  0  0  0  0  0  0  0  0  0  0
   -2.8650    5.5060  -13.7400 H   0  0  0  0  0  0  0  0  0  0  0  0
   -0.3880    5.0500  -12.8170 H   0  0  0  0  0  0  0  0  0  0  0  0
    1.4836    6.6194  -11.2976 H   0  0  0  0  0  0  0  0  0  0  0  0
    1.8235   11.0210   -9.3839 H   0  0  0  0  0  0  0  0  0  0  0  0
    4.2970   10.5640   -8.5410 H   0  0  0  0  0  0  0  0  0  0  0  0
    5.6038    8.2186   -7.9025 H   0  0  0  0  0  0  0  0  0  0  0  0
    6.7813    8.2357  -10.6173 H   0  0  0  0  0  0  0  0  0  0  0  0
    6.2668    9.7969   -9.8289 H   0  0  0  0  0  0  0  0  0  0  0  0
    6.7865    8.6994   -6.9432 H   0  0  0  0  0  0  0  0  0  0  0  0
    8.8674    8.7447   -5.5742 H   0  0  0  0  0  0  0  0  0  0  0  0
   11.0951    8.8503   -6.6895 H   0  0  0  0  0  0  0  0  0  0  0  0
   11.2408    8.9076   -9.1779 H   0  0  0  0  0  0  0  0  0  0  0  0
    9.1636    8.8623  -10.5534 H   0  0  0  0  0  0  0  0  0  0  0  0
    5.4550    6.3040  -10.1720 H   0  0  0  0  0  0  0  0  0  0  0  0
    5.8055    3.4325   -8.0328 H   0  0  0  0  0  0  0  0  0  0  0  0
    5.5406    4.9132  -10.7369 H   0  0  0  0  0  0  0  0  0  0  0  0
    7.3576    2.2674   -9.3030 H   0  0  0  0  0  0  0  0  0  0  0  0
    5.8999   -1.0820  -11.5961 H   0  0  0  0  0  0  0  0  0  0  0  0
    4.1540    0.3718  -12.6149 H   0  0  0  0  0  0  0  0  0  0  0  0
    4.7421    3.9548  -13.9106 H   0  0  0  0  0  0  0  0  0  0  0  0
   -0.0879   10.5542  -10.3056 H   0  0  0  0  0  0  0  0  0  0  0  0
   -2.2758   10.1073  -11.4754 H   0  0  0  0  0  0  0  0  0  0  0  0
  1  2  1  0
  2  3  2  0
  3  4  1  0
  4  5  1  0
  5  6  2  0
  6  7  1  0
  7  8  1  0
  8  9  2  0
  9 10  1  0
 10 11  1  0
 11 12  1  0
 12 13  1  0
 13 14  1  0
 14 15  2  0
 15 16  1  0
 16 17  2  0
 17 18  1  0
 18 19  2  0
 12 20  1  0
 20 21  1  0
 21 22  2  0
 21 23  1  0
 23 24  2  0
 24 25  1  0
 25 26  2  0
 26 27  1  0
 27 28  1  0
 27 29  2  0
 29 30  1  0
 30 31  2  0
 31 32  1  0
 32 33  1  0
 33 34  2  0
 34 35  1  0
 35 36  2  0
 11 37  2  0
  7 38  2  0
 38 39  1  0
 39 40  2  0
 40  2  1  0
 40  5  1  0
 37  8  1  0
 19 14  1  0
 31 25  1  0
 36 32  1  0
  1 41  1  0
  1 42  1  0
  3 43  1  0
  4 44  1  0
  6 45  1  0
  9 46  1  0
 10 47  1  0
 12 48  1  1
 13 49  1  0
 13 50  1  0
 15 51  1  0
 16 52  1  0
 17 53  1  0
 18 54  1  0
 19 55  1  0
 20 56  1  0
 23 57  1  0
 24 58  1  0
 26 59  1  0
 29 60  1  0
 30 61  1  0
 33 62  1  0
 38 63  1  0
 39 64  1  0
M  CHG  1   3   1
M  END
>  <meeko>  (9) 
{"is_sidechain": [false], "free_energy": -8.624, "intermolecular_energy": -12.609, "internal_energy": -2.104}

$$$$
