4agp_ligand
     RDKit          3D

 62 64  0  0  0  0  0  0  0  0999 V2000
   -0.8720    2.5100   17.9060 C   0  0  0  0  0  0  0  0  0  0  0  0
   -0.2730    1.1630   18.2700 C   0  0  0  0  0  0  0  0  0  0  0  0
    0.2400    0.4590   17.0200 N   0  0  0  0  0  0  0  0  0  0  0  0
    0.1530    1.3400   15.7850 C   0  0  0  0  0  0  0  0  0  0  0  0
   -0.4730    0.5730   14.6330 C   0  0  0  0  0  0  0  0  0  0  0  0
   -0.3690   -0.9420   16.8480 C   0  0  0  0  0  0  0  0  0  0  0  0
   -1.4720   -1.1650   17.8930 C   0  0  0  0  0  0  0  0  0  0  0  0
   -1.7570   -2.6580   18.1060 C   0  0  0  0  0  0  0  0  0  0  0  0
   -1.4240   -3.3920   16.8930 N   0  0  0  0  0  0  0  0  0  0  0  0
   -2.0670   -4.7220   16.8150 C   0  0  0  0  0  0  0  0  0  0  0  0
   -2.6780   -5.1140   15.4860 C   0  0  0  0  0  0  0  0  0  0  0  0
   -1.9620   -5.9580   14.6170 C   0  0  0  0  0  0  0  0  0  0  0  0
   -2.4950   -6.3480   13.3850 C   0  0  0  0  0  0  0  0  0  0  0  0
   -1.7520   -7.2330   12.5440 C   0  0  0  0  0  0  0  0  0  0  0  0
   -1.1180   -7.9940   11.8640 C   0  0  0  0  0  0  0  0  0  0  0  0
   -0.3430   -8.9460   11.0580 C   0  0  0  0  0  0  0  0  0  0  0  0
   -0.0850  -10.1450   11.7940 O   0  0  0  0  0  0  0  0  0  0  0  0
   -1.0670  -11.0950   11.8490 C   0  0  0  0  0  0  0  0  0  0  0  0
   -1.5530  -11.7130   13.0030 C   0  0  0  0  0  0  0  0  0  0  0  0
   -2.5640  -12.6760   12.9110 C   0  0  0  0  0  0  0  0  0  0  0  0
   -3.0860  -13.0300   11.6690 C   0  0  0  0  0  0  0  0  0  0  0  0
   -2.5970  -12.4260   10.5140 C   0  0  0  0  0  0  0  0  0  0  0  0
   -1.5880  -11.4650   10.6070 C   0  0  0  0  0  0  0  0  0  0  0  0
   -3.7490   -5.8870   12.9870 C   0  0  0  0  0  0  0  0  0  0  0  0
   -4.4640   -5.0330   13.8270 C   0  0  0  0  0  0  0  0  0  0  0  0
   -6.3390   -4.3570   13.1950 I   0  0  0  0  0  0  0  0  0  0  0  0
   -3.9330   -4.6480   15.0670 C   0  0  0  0  0  0  0  0  0  0  0  0
   -4.6190   -3.8000   15.8960 O   0  0  0  0  0  0  0  0  0  0  0  0
    0.0100   -3.4070   16.5980 C   0  0  0  0  0  0  0  0  0  0  0  0
    0.6770   -2.0530   16.8850 C   0  0  0  0  0  0  0  0  0  0  0  0
   -1.1177    3.0624   18.8250 H   0  0  0  0  0  0  0  0  0  0  0  0
   -0.1455    3.0866   17.3147 H   0  0  0  0  0  0  0  0  0  0  0  0
   -1.7868    2.3567   17.3147 H   0  0  0  0  0  0  0  0  0  0  0  0
    0.5618    1.3141   18.9702 H   0  0  0  0  0  0  0  0  0  0  0  0
   -1.0492    0.5405   18.7390 H   0  0  0  0  0  0  0  0  0  0  0  0
    1.2440    0.2950   17.1790 H   0  0  0  0  0  0  0  0  0  0  0  0
   -0.4639    2.2221   16.0113 H   0  0  0  0  0  0  0  0  0  0  0  0
    1.1673    1.6532   15.4969 H   0  0  0  0  0  0  0  0  0  0  0  0
   -1.1214   -0.2215   15.0309 H   0  0  0  0  0  0  0  0  0  0  0  0
   -1.0713    1.2604   14.0169 H   0  0  0  0  0  0  0  0  0  0  0  0
    0.3204    0.1246   14.0169 H   0  0  0  0  0  0  0  0  0  0  0  0
   -0.8156   -0.9890   15.8438 H   0  0  0  0  0  0  0  0  0  0  0  0
   -1.1529   -0.7229   18.8484 H   0  0  0  0  0  0  0  0  0  0  0  0
   -2.3933   -0.6883   17.5270 H   0  0  0  0  0  0  0  0  0  0  0  0
   -1.1466   -3.0327   18.9409 H   0  0  0  0  0  0  0  0  0  0  0  0
   -2.8226   -2.7989   18.3398 H   0  0  0  0  0  0  0  0  0  0  0  0
   -1.3042   -5.4744   17.0642 H   0  0  0  0  0  0  0  0  0  0  0  0
   -2.9143   -4.6708   17.5146 H   0  0  0  0  0  0  0  0  0  0  0  0
   -0.9652   -6.3172   14.9124 H   0  0  0  0  0  0  0  0  0  0  0  0
   -0.9114   -9.1958   10.1500 H   0  0  0  0  0  0  0  0  0  0  0  0
    0.6185   -8.4819   10.7932 H   0  0  0  0  0  0  0  0  0  0  0  0
   -1.1404  -11.4423   13.9861 H   0  0  0  0  0  0  0  0  0  0  0  0
   -2.9482  -13.1555   13.8234 H   0  0  0  0  0  0  0  0  0  0  0  0
   -3.8829  -13.7852   11.6010 H   0  0  0  0  0  0  0  0  0  0  0  0
   -3.0042  -12.7049    9.5309 H   0  0  0  0  0  0  0  0  0  0  0  0
   -1.1992  -10.9942    9.6920 H   0  0  0  0  0  0  0  0  0  0  0  0
   -4.1711   -6.1941   12.0187 H   0  0  0  0  0  0  0  0  0  0  0  0
   -4.2140   -2.9180   15.8100 H   0  0  0  0  0  0  0  0  0  0  0  0
    0.4911   -4.1773   17.2187 H   0  0  0  0  0  0  0  0  0  0  0  0
    0.1315   -3.6222   15.5261 H   0  0  0  0  0  0  0  0  0  0  0  0
    1.1453   -2.0804   17.8800 H   0  0  0  0  0  0  0  0  0  0  0  0
    1.4424   -1.8562   16.1199 H   0  0  0  0  0  0  0  0  0  0  0  0
  1  2  1  0
  2  3  1  0
  3  4  1  0
  4  5  1  0
  3  6  1  0
  6  7  1  0
  7  8  1  0
  8  9  1  0
  9 10  1  0
 10 11  1  0
 11 12  2  0
 12 13  1  0
 13 14  1  0
 14 15  3  0
 15 16  1  0
 16 17  1  0
 17 18  1  0
 18 19  2  0
 19 20  1  0
 20 21  2  0
 21 22  1  0
 22 23  2  0
 13 24  2  0
 24 25  1  0
 25 26  1  0
 25 27  2  0
 27 28  1  0
  9 29  1  0
 29 30  1  0
 30  6  1  0
 27 11  1  0
 23 18  1  0
  1 31  1  0
  1 32  1  0
  1 33  1  0
  2 34  1  0
  2 35  1  0
  3 36  1  0
  4 37  1  0
  4 38  1  0
  5 39  1  0
  5 40  1  0
  5 41  1  0
  6 42  1  0
  7 43  1  0
  7 44  1  0
  8 45  1  0
  8 46  1  0
 10 47  1  0
 10 48  1  0
 12 49  1  0
 16 50  1  0
 16 51  1  0
 19 52  1  0
 20 53  1  0
 21 54  1  0
 22 55  1  0
 23 56  1  0
 24 57  1  0
 28 58  1  0
 29 59  1  0
 29 60  1  0
 30 61  1  0
 30 62  1  0
M  CHG  1   3   1
M  END
>  <meeko>  (1) 
{"is_sidechain": [false], "free_energy": -6.356, "intermolecular_energy": -9.515, "internal_energy": -1.379}

$$$$
4agp_ligand
     RDKit          3D

 62 64  0  0  0  0  0  0  0  0999 V2000
   -0.7270  -11.9850    9.4320 C   0  0  0  0  0  0  0  0  0  0  0  0
   -1.6020  -11.4930   10.5710 C   0  0  0  0  0  0  0  0  0  0  0  0
   -1.3730  -10.0050   10.8080 N   0  0  0  0  0  0  0  0  0  0  0  0
   -0.0570   -9.7300   11.5190 C   0  0  0  0  0  0  0  0  0  0  0  0
   -0.2310   -9.8710   13.0220 C   0  0  0  0  0  0  0  0  0  0  0  0
   -2.5940   -9.3190   11.4410 C   0  0  0  0  0  0  0  0  0  0  0  0
   -3.7590  -10.3150   11.5420 C   0  0  0  0  0  0  0  0  0  0  0  0
   -5.1080   -9.5970   11.6790 C   0  0  0  0  0  0  0  0  0  0  0  0
   -4.9030   -8.2970   12.3020 N   0  0  0  0  0  0  0  0  0  0  0  0
   -6.1340   -7.7260   12.8920 C   0  0  0  0  0  0  0  0  0  0  0  0
   -6.0190   -6.3610   13.5370 C   0  0  0  0  0  0  0  0  0  0  0  0
   -4.8760   -6.0480   14.2960 C   0  0  0  0  0  0  0  0  0  0  0  0
   -4.7300   -4.7970   14.9020 C   0  0  0  0  0  0  0  0  0  0  0  0
   -3.5400   -4.5040   15.6380 C   0  0  0  0  0  0  0  0  0  0  0  0
   -2.5220   -4.2740   16.2330 C   0  0  0  0  0  0  0  0  0  0  0  0
   -1.2940   -3.9680   16.9770 C   0  0  0  0  0  0  0  0  0  0  0  0
   -1.4890   -2.8480   17.8440 O   0  0  0  0  0  0  0  0  0  0  0  0
   -0.8810   -1.6650   17.5240 C   0  0  0  0  0  0  0  0  0  0  0  0
    0.2820   -1.1540   18.1020 C   0  0  0  0  0  0  0  0  0  0  0  0
    0.7950    0.0770   17.6770 C   0  0  0  0  0  0  0  0  0  0  0  0
    0.1460    0.8020   16.6800 C   0  0  0  0  0  0  0  0  0  0  0  0
   -1.0210    0.3020   16.1070 C   0  0  0  0  0  0  0  0  0  0  0  0
   -1.5320   -0.9260   16.5330 C   0  0  0  0  0  0  0  0  0  0  0  0
   -5.7330   -3.8370   14.7760 C   0  0  0  0  0  0  0  0  0  0  0  0
   -6.8820   -4.1370   14.0430 C   0  0  0  0  0  0  0  0  0  0  0  0
   -8.3680   -2.6750   13.8810 I   0  0  0  0  0  0  0  0  0  0  0  0
   -7.0250   -5.3900   13.4290 C   0  0  0  0  0  0  0  0  0  0  0  0
   -8.1530   -5.7020   12.7180 O   0  0  0  0  0  0  0  0  0  0  0  0
   -4.1570   -7.3600   11.4590 C   0  0  0  0  0  0  0  0  0  0  0  0
   -3.0050   -8.0440   10.7090 C   0  0  0  0  0  0  0  0  0  0  0  0
    0.1625  -12.4852    9.8426 H   0  0  0  0  0  0  0  0  0  0  0  0
   -1.2950  -12.6960    8.8141 H   0  0  0  0  0  0  0  0  0  0  0  0
   -0.4146  -11.1303    8.8141 H   0  0  0  0  0  0  0  0  0  0  0  0
   -2.6587  -11.6616   10.3160 H   0  0  0  0  0  0  0  0  0  0  0  0
   -1.3429  -12.0455   11.4862 H   0  0  0  0  0  0  0  0  0  0  0  0
   -1.2820   -9.5800    9.8750 H   0  0  0  0  0  0  0  0  0  0  0  0
    0.7001  -10.4487   11.1722 H   0  0  0  0  0  0  0  0  0  0  0  0
    0.2658   -8.7036   11.2906 H   0  0  0  0  0  0  0  0  0  0  0  0
    0.5240   -9.2592   13.5375 H   0  0  0  0  0  0  0  0  0  0  0  0
   -1.2369   -9.5301   13.3082 H   0  0  0  0  0  0  0  0  0  0  0  0
   -0.1060  -10.9257   13.3082 H   0  0  0  0  0  0  0  0  0  0  0  0
   -2.3078   -9.0005   12.4542 H   0  0  0  0  0  0  0  0  0  0  0  0
   -3.7764  -10.9367   10.6347 H   0  0  0  0  0  0  0  0  0  0  0  0
   -3.6060  -10.9324   12.4395 H   0  0  0  0  0  0  0  0  0  0  0  0
   -5.5538   -9.4603   10.6827 H   0  0  0  0  0  0  0  0  0  0  0  0
   -5.7838  -10.2007   12.3025 H   0  0  0  0  0  0  0  0  0  0  0  0
   -6.8828   -7.6516   12.0896 H   0  0  0  0  0  0  0  0  0  0  0  0
   -6.3997   -8.4080   13.7131 H   0  0  0  0  0  0  0  0  0  0  0  0
   -4.0833   -6.8014   14.4145 H   0  0  0  0  0  0  0  0  0  0  0  0
   -1.0095   -4.8439   17.5785 H   0  0  0  0  0  0  0  0  0  0  0  0
   -0.4991   -3.7216   16.2576 H   0  0  0  0  0  0  0  0  0  0  0  0
    0.7964   -1.7196   18.8929 H   0  0  0  0  0  0  0  0  0  0  0  0
    1.7145    0.4737   18.1322 H   0  0  0  0  0  0  0  0  0  0  0  0
    0.5543    1.7673   16.3460 H   0  0  0  0  0  0  0  0  0  0  0  0
   -1.5384    0.8724   15.3216 H   0  0  0  0  0  0  0  0  0  0  0  0
   -2.4572   -1.3156   16.0833 H   0  0  0  0  0  0  0  0  0  0  0  0
   -5.6197   -2.8511   15.2505 H   0  0  0  0  0  0  0  0  0  0  0  0
   -8.9190   -5.5410   13.3000 H   0  0  0  0  0  0  0  0  0  0  0  0
   -4.8462   -6.9195   10.7235 H   0  0  0  0  0  0  0  0  0  0  0  0
   -3.7231   -6.5895   12.1133 H   0  0  0  0  0  0  0  0  0  0  0  0
   -3.3327   -8.2978    9.6901 H   0  0  0  0  0  0  0  0  0  0  0  0
   -2.1453   -7.3593   10.6630 H   0  0  0  0  0  0  0  0  0  0  0  0
  1  2  1  0
  2  3  1  0
  3  4  1  0
  4  5  1  0
  3  6  1  0
  6  7  1  0
  7  8  1  0
  8  9  1  0
  9 10  1  0
 10 11  1  0
 11 12  2  0
 12 13  1  0
 13 14  1  0
 14 15  3  0
 15 16  1  0
 16 17  1  0
 17 18  1  0
 18 19  2  0
 19 20  1  0
 20 21  2  0
 21 22  1  0
 22 23  2  0
 13 24  2  0
 24 25  1  0
 25 26  1  0
 25 27  2  0
 27 28  1  0
  9 29  1  0
 29 30  1  0
 30  6  1  0
 27 11  1  0
 23 18  1  0
  1 31  1  0
  1 32  1  0
  1 33  1  0
  2 34  1  0
  2 35  1  0
  3 36  1  0
  4 37  1  0
  4 38  1  0
  5 39  1  0
  5 40  1  0
  5 41  1  0
  6 42  1  0
  7 43  1  0
  7 44  1  0
  8 45  1  0
  8 46  1  0
 10 47  1  0
 10 48  1  0
 12 49  1  0
 16 50  1  0
 16 51  1  0
 19 52  1  0
 20 53  1  0
 21 54  1  0
 22 55  1  0
 23 56  1  0
 24 57  1  0
 28 58  1  0
 29 59  1  0
 29 60  1  0
 30 61  1  0
 30 62  1  0
M  CHG  1   3   1
M  END
>  <meeko>  (2) 
{"is_sidechain": [false], "free_energy": -6.158, "intermolecular_energy": -9.799, "internal_energy": -0.798}

$$$$
4agp_ligand
     RDKit          3D

 62 64  0  0  0  0  0  0  0  0999 V2000
   -0.6620    3.4550   20.5370 C   0  0  0  0  0  0  0  0  0  0  0  0
    0.0200    2.6320   19.4590 C   0  0  0  0  0  0  0  0  0  0  0  0
   -0.9540    2.3370   18.3250 N   0  0  0  0  0  0  0  0  0  0  0  0
   -2.2940    3.0300   18.5210 C   0  0  0  0  0  0  0  0  0  0  0  0
   -3.4260    2.1260   18.0630 C   0  0  0  0  0  0  0  0  0  0  0  0
   -1.0530    0.8340   18.0160 C   0  0  0  0  0  0  0  0  0  0  0  0
   -0.8810    0.0230   19.3090 C   0  0  0  0  0  0  0  0  0  0  0  0
   -0.4720   -1.4270   19.0170 C   0  0  0  0  0  0  0  0  0  0  0  0
   -0.9630   -1.8140   17.7010 N   0  0  0  0  0  0  0  0  0  0  0  0
   -1.0320   -3.2780   17.5070 C   0  0  0  0  0  0  0  0  0  0  0  0
   -1.9760   -3.7860   16.4370 C   0  0  0  0  0  0  0  0  0  0  0  0
   -1.5430   -4.7910   15.5530 C   0  0  0  0  0  0  0  0  0  0  0  0
   -2.3860   -5.2920   14.5560 C   0  0  0  0  0  0  0  0  0  0  0  0
   -1.9230   -6.3360   13.6980 C   0  0  0  0  0  0  0  0  0  0  0  0
   -1.5180   -7.2290   13.0030 C   0  0  0  0  0  0  0  0  0  0  0  0
   -1.0510   -8.3360   12.1600 C   0  0  0  0  0  0  0  0  0  0  0  0
   -2.0040   -9.4020   12.1460 O   0  0  0  0  0  0  0  0  0  0  0  0
   -1.8300  -10.4160   11.2440 C   0  0  0  0  0  0  0  0  0  0  0  0
   -2.7870  -11.3620   10.8730 C   0  0  0  0  0  0  0  0  0  0  0  0
   -2.4690  -12.3510    9.9350 C   0  0  0  0  0  0  0  0  0  0  0  0
   -1.1960  -12.4010    9.3710 C   0  0  0  0  0  0  0  0  0  0  0  0
   -0.2340  -11.4670    9.7460 C   0  0  0  0  0  0  0  0  0  0  0  0
   -0.5520  -10.4810   10.6830 C   0  0  0  0  0  0  0  0  0  0  0  0
   -3.6760   -4.7830   14.4120 C   0  0  0  0  0  0  0  0  0  0  0  0
   -4.1160   -3.7710   15.2670 C   0  0  0  0  0  0  0  0  0  0  0  0
   -6.0540   -3.0290   15.0160 I   0  0  0  0  0  0  0  0  0  0  0  0
   -3.2710   -3.2750   16.2710 C   0  0  0  0  0  0  0  0  0  0  0  0
   -3.6850   -2.2740   17.1100 O   0  0  0  0  0  0  0  0  0  0  0  0
   -0.3080   -1.0980   16.6040 C   0  0  0  0  0  0  0  0  0  0  0  0
   -0.0760    0.3840   16.9340 C   0  0  0  0  0  0  0  0  0  0  0  0
   -0.3568    3.0867   21.5276 H   0  0  0  0  0  0  0  0  0  0  0  0
   -0.3701    4.5104   20.4323 H   0  0  0  0  0  0  0  0  0  0  0  0
   -1.7532    3.3642   20.4323 H   0  0  0  0  0  0  0  0  0  0  0  0
    0.8792    3.1931   19.0629 H   0  0  0  0  0  0  0  0  0  0  0  0
    0.3603    1.6814   19.8955 H   0  0  0  0  0  0  0  0  0  0  0  0
   -0.5420    2.7550   17.4800 H   0  0  0  0  0  0  0  0  0  0  0  0
   -2.4275    3.2674   19.5867 H   0  0  0  0  0  0  0  0  0  0  0  0
   -2.3100    3.9542   17.9247 H   0  0  0  0  0  0  0  0  0  0  0  0
   -3.9435    1.7128   18.9413 H   0  0  0  0  0  0  0  0  0  0  0  0
   -4.1375    2.7072   17.4580 H   0  0  0  0  0  0  0  0  0  0  0  0
   -3.0166    1.3036   17.4580 H   0  0  0  0  0  0  0  0  0  0  0  0
   -2.0561    0.6442   17.6063 H   0  0  0  0  0  0  0  0  0  0  0  0
   -0.1028    0.4959   19.9260 H   0  0  0  0  0  0  0  0  0  0  0  0
   -1.8461    0.0083   19.8365 H   0  0  0  0  0  0  0  0  0  0  0  0
    0.6246   -1.5101   19.0383 H   0  0  0  0  0  0  0  0  0  0  0  0
   -0.9047   -2.0909   19.7798 H   0  0  0  0  0  0  0  0  0  0  0  0
   -0.0208   -3.6268   17.2502 H   0  0  0  0  0  0  0  0  0  0  0  0
   -1.4326   -3.6729   18.4523 H   0  0  0  0  0  0  0  0  0  0  0  0
   -0.5224   -5.1902   15.6478 H   0  0  0  0  0  0  0  0  0  0  0  0
   -0.9045   -7.9700   11.1331 H   0  0  0  0  0  0  0  0  0  0  0  0
   -0.1038   -8.7159   12.5705 H   0  0  0  0  0  0  0  0  0  0  0  0
   -3.7923  -11.3302   11.3184 H   0  0  0  0  0  0  0  0  0  0  0  0
   -3.2274  -13.0919    9.6419 H   0  0  0  0  0  0  0  0  0  0  0  0
   -0.9514  -13.1770    8.6307 H   0  0  0  0  0  0  0  0  0  0  0  0
    0.7733  -11.5054    9.3058 H   0  0  0  0  0  0  0  0  0  0  0  0
    0.2117   -9.7481   10.9823 H   0  0  0  0  0  0  0  0  0  0  0  0
   -4.3424   -5.1761   13.6301 H   0  0  0  0  0  0  0  0  0  0  0  0
   -4.0670   -1.5690   16.5550 H   0  0  0  0  0  0  0  0  0  0  0  0
    0.6638   -1.5721   16.4021 H   0  0  0  0  0  0  0  0  0  0  0  0
   -0.9688   -1.1486   15.7261 H   0  0  0  0  0  0  0  0  0  0  0  0
    0.9546    0.5207   17.2934 H   0  0  0  0  0  0  0  0  0  0  0  0
   -0.2366    0.9864   16.0277 H   0  0  0  0  0  0  0  0  0  0  0  0
  1  2  1  0
  2  3  1  0
  3  4  1  0
  4  5  1  0
  3  6  1  0
  6  7  1  0
  7  8  1  0
  8  9  1  0
  9 10  1  0
 10 11  1  0
 11 12  2  0
 12 13  1  0
 13 14  1  0
 14 15  3  0
 15 16  1  0
 16 17  1  0
 17 18  1  0
 18 19  2  0
 19 20  1  0
 20 21  2  0
 21 22  1  0
 22 23  2  0
 13 24  2  0
 24 25  1  0
 25 26  1  0
 25 27  2  0
 27 28  1  0
  9 29  1  0
 29 30  1  0
 30  6  1  0
 27 11  1  0
 23 18  1  0
  1 31  1  0
  1 32  1  0
  1 33  1  0
  2 34  1  0
  2 35  1  0
  3 36  1  0
  4 37  1  0
  4 38  1  0
  5 39  1  0
  5 40  1  0
  5 41  1  0
  6 42  1  0
  7 43  1  0
  7 44  1  0
  8 45  1  0
  8 46  1  0
 10 47  1  0
 10 48  1  0
 12 49  1  0
 16 50  1  0
 16 51  1  0
 19 52  1  0
 20 53  1  0
 21 54  1  0
 22 55  1  0
 23 56  1  0
 24 57  1  0
 28 58  1  0
 29 59  1  0
 29 60  1  0
 30 61  1  0
 30 62  1  0
M  CHG  1   3   1
M  END
>  <meeko>  (3) 
{"is_sidechain": [false], "free_energy": -6.126, "intermolecular_energy": -9.38, "internal_energy": -1.169}

$$$$
4agp_ligand
     RDKit          3D

 62 64  0  0  0  0  0  0  0  0999 V2000
   -0.3610  -10.9980   10.6670 C   0  0  0  0  0  0  0  0  0  0  0  0
   -0.9140  -11.0350   12.0810 C   0  0  0  0  0  0  0  0  0  0  0  0
   -2.3810  -10.6210   12.0850 N   0  0  0  0  0  0  0  0  0  0  0  0
   -3.1290  -11.1380   10.8670 C   0  0  0  0  0  0  0  0  0  0  0  0
   -3.6410  -12.5460   11.1210 C   0  0  0  0  0  0  0  0  0  0  0  0
   -2.5620   -9.1180   12.3530 C   0  0  0  0  0  0  0  0  0  0  0  0
   -2.6330   -8.3540   11.0230 C   0  0  0  0  0  0  0  0  0  0  0  0
   -2.3100   -6.8650   11.2070 C   0  0  0  0  0  0  0  0  0  0  0  0
   -2.6510   -6.4600   12.5640 N   0  0  0  0  0  0  0  0  0  0  0  0
   -2.8150   -4.9980   12.7170 C   0  0  0  0  0  0  0  0  0  0  0  0
   -4.0480   -4.5170   13.4540 C   0  0  0  0  0  0  0  0  0  0  0  0
   -3.9290   -3.4810   14.3970 C   0  0  0  0  0  0  0  0  0  0  0  0
   -5.0440   -3.0050   15.0940 C   0  0  0  0  0  0  0  0  0  0  0  0
   -4.8900   -1.9280   16.0210 C   0  0  0  0  0  0  0  0  0  0  0  0
   -4.7390   -1.0090   16.7800 C   0  0  0  0  0  0  0  0  0  0  0  0
   -4.5290    0.0990   17.7200 C   0  0  0  0  0  0  0  0  0  0  0  0
   -3.4240   -0.1720   18.5870 O   0  0  0  0  0  0  0  0  0  0  0  0
   -2.2090   -0.4430   18.0220 C   0  0  0  0  0  0  0  0  0  0  0  0
   -1.5450    0.3410   17.0760 C   0  0  0  0  0  0  0  0  0  0  0  0
   -0.3010   -0.0620   16.5790 C   0  0  0  0  0  0  0  0  0  0  0  0
    0.2810   -1.2490   17.0190 C   0  0  0  0  0  0  0  0  0  0  0  0
   -0.3810   -2.0410   17.9540 C   0  0  0  0  0  0  0  0  0  0  0  0
   -1.6240   -1.6380   18.4490 C   0  0  0  0  0  0  0  0  0  0  0  0
   -6.3000   -3.5690   14.8730 C   0  0  0  0  0  0  0  0  0  0  0  0
   -6.4330   -4.6120   13.9550 C   0  0  0  0  0  0  0  0  0  0  0  0
   -8.3300   -5.4370   13.6550 I   0  0  0  0  0  0  0  0  0  0  0  0
   -5.3140   -5.0840   13.2510 C   0  0  0  0  0  0  0  0  0  0  0  0
   -5.4280   -6.1150   12.3560 O   0  0  0  0  0  0  0  0  0  0  0  0
   -1.7970   -7.0730   13.5840 C   0  0  0  0  0  0  0  0  0  0  0  0
   -1.4890   -8.5460   13.2750 C   0  0  0  0  0  0  0  0  0  0  0  0
    0.7359  -10.9246   10.7041 H   0  0  0  0  0  0  0  0  0  0  0  0
   -0.6492  -11.9174   10.1364 H   0  0  0  0  0  0  0  0  0  0  0  0
   -0.7692  -10.1252   10.1364 H   0  0  0  0  0  0  0  0  0  0  0  0
   -0.8239  -12.0563   12.4795 H   0  0  0  0  0  0  0  0  0  0  0  0
   -0.3423  -10.3347   12.7078 H   0  0  0  0  0  0  0  0  0  0  0  0
   -2.8060  -11.0890   12.8960 H   0  0  0  0  0  0  0  0  0  0  0  0
   -3.9807  -10.4748   10.6557 H   0  0  0  0  0  0  0  0  0  0  0  0
   -2.4433  -11.1563   10.0071 H   0  0  0  0  0  0  0  0  0  0  0  0
   -3.7053  -12.7228   12.2048 H   0  0  0  0  0  0  0  0  0  0  0  0
   -4.6382  -12.6603   10.6710 H   0  0  0  0  0  0  0  0  0  0  0  0
   -2.9501  -13.2741   10.6710 H   0  0  0  0  0  0  0  0  0  0  0  0
   -3.5138   -8.9887   12.8891 H   0  0  0  0  0  0  0  0  0  0  0  0
   -1.9083   -8.7921   10.3209 H   0  0  0  0  0  0  0  0  0  0  0  0
   -3.6583   -8.4373   10.6335 H   0  0  0  0  0  0  0  0  0  0  0  0
   -1.2368   -6.6981   11.0329 H   0  0  0  0  0  0  0  0  0  0  0  0
   -2.8939   -6.2709   10.4886 H   0  0  0  0  0  0  0  0  0  0  0  0
   -1.9358   -4.6206   13.2598 H   0  0  0  0  0  0  0  0  0  0  0  0
   -2.9275   -4.6147   11.6921 H   0  0  0  0  0  0  0  0  0  0  0  0
   -2.9413   -3.0370   14.5900 H   0  0  0  0  0  0  0  0  0  0  0  0
   -4.3250    1.0192   17.1528 H   0  0  0  0  0  0  0  0  0  0  0  0
   -5.4355    0.2187   18.3315 H   0  0  0  0  0  0  0  0  0  0  0  0
   -2.0010    1.2770   16.7211 H   0  0  0  0  0  0  0  0  0  0  0  0
    0.2202    0.5612   15.8373 H   0  0  0  0  0  0  0  0  0  0  0  0
    1.2613   -1.5600   16.6287 H   0  0  0  0  0  0  0  0  0  0  0  0
    0.0731   -2.9806   18.3016 H   0  0  0  0  0  0  0  0  0  0  0  0
   -2.1477   -2.2683   19.1828 H   0  0  0  0  0  0  0  0  0  0  0  0
   -7.1792   -3.1948   15.4179 H   0  0  0  0  0  0  0  0  0  0  0  0
   -4.7760   -6.7930   12.6100 H   0  0  0  0  0  0  0  0  0  0  0  0
   -0.8497   -6.5161   13.6341 H   0  0  0  0  0  0  0  0  0  0  0  0
   -2.3355   -7.0347   14.5424 H   0  0  0  0  0  0  0  0  0  0  0  0
   -0.5082   -8.6180   12.7821 H   0  0  0  0  0  0  0  0  0  0  0  0
   -1.4757   -9.1182   14.2143 H   0  0  0  0  0  0  0  0  0  0  0  0
  1  2  1  0
  2  3  1  0
  3  4  1  0
  4  5  1  0
  3  6  1  0
  6  7  1  0
  7  8  1  0
  8  9  1  0
  9 10  1  0
 10 11  1  0
 11 12  2  0
 12 13  1  0
 13 14  1  0
 14 15  3  0
 15 16  1  0
 16 17  1  0
 17 18  1  0
 18 19  2  0
 19 20  1  0
 20 21  2  0
 21 22  1  0
 22 23  2  0
 13 24  2  0
 24 25  1  0
 25 26  1  0
 25 27  2  0
 27 28  1  0
  9 29  1  0
 29 30  1  0
 30  6  1  0
 27 11  1  0
 23 18  1  0
  1 31  1  0
  1 32  1  0
  1 33  1  0
  2 34  1  0
  2 35  1  0
  3 36  1  0
  4 37  1  0
  4 38  1  0
  5 39  1  0
  5 40  1  0
  5 41  1  0
  6 42  1  0
  7 43  1  0
  7 44  1  0
  8 45  1  0
  8 46  1  0
 10 47  1  0
 10 48  1  0
 12 49  1  0
 16 50  1  0
 16 51  1  0
 19 52  1  0
 20 53  1  0
 21 54  1  0
 22 55  1  0
 23 56  1  0
 24 57  1  0
 28 58  1  0
 29 59  1  0
 29 60  1  0
 30 61  1  0
 30 62  1  0
M  CHG  1   3   1
M  END
>  <meeko>  (4) 
{"is_sidechain": [false], "free_energy": -6.058, "intermolecular_energy": -9.049, "internal_energy": -1.398}

$$$$
4agp_ligand
     RDKit          3D

 62 64  0  0  0  0  0  0  0  0999 V2000
   -2.3990  -12.8380   13.1370 C   0  0  0  0  0  0  0  0  0  0  0  0
   -3.0600  -11.4750   13.0370 C   0  0  0  0  0  0  0  0  0  0  0  0
   -2.3080  -10.5950   12.0450 N   0  0  0  0  0  0  0  0  0  0  0  0
   -0.8570  -11.0200   11.8820 C   0  0  0  0  0  0  0  0  0  0  0  0
   -0.5100  -11.1560   10.4100 C   0  0  0  0  0  0  0  0  0  0  0  0
   -2.5060   -9.0970   12.3260 C   0  0  0  0  0  0  0  0  0  0  0  0
   -2.4620   -8.3070   11.0100 C   0  0  0  0  0  0  0  0  0  0  0  0
   -2.1500   -6.8240   11.2490 C   0  0  0  0  0  0  0  0  0  0  0  0
   -2.6020   -6.4430   12.5800 N   0  0  0  0  0  0  0  0  0  0  0  0
   -2.7730   -4.9830   12.7470 C   0  0  0  0  0  0  0  0  0  0  0  0
   -4.0150   -4.5150   13.4750 C   0  0  0  0  0  0  0  0  0  0  0  0
   -3.9110   -3.4830   14.4260 C   0  0  0  0  0  0  0  0  0  0  0  0
   -5.0360   -3.0180   15.1150 C   0  0  0  0  0  0  0  0  0  0  0  0
   -4.8970   -1.9460   16.0500 C   0  0  0  0  0  0  0  0  0  0  0  0
   -4.7590   -1.0300   16.8150 C   0  0  0  0  0  0  0  0  0  0  0  0
   -4.5630    0.0990   17.7330 C   0  0  0  0  0  0  0  0  0  0  0  0
   -3.4120    0.8630   17.3630 O   0  0  0  0  0  0  0  0  0  0  0  0
   -2.1780    0.2950   17.5240 C   0  0  0  0  0  0  0  0  0  0  0  0
   -1.6320   -0.1640   18.7250 C   0  0  0  0  0  0  0  0  0  0  0  0
   -0.3500   -0.7230   18.7440 C   0  0  0  0  0  0  0  0  0  0  0  0
    0.3930   -0.8200   17.5690 C   0  0  0  0  0  0  0  0  0  0  0  0
   -0.1420   -0.3530   16.3710 C   0  0  0  0  0  0  0  0  0  0  0  0
   -1.4220    0.2050   16.3530 C   0  0  0  0  0  0  0  0  0  0  0  0
   -6.2860   -3.5890   14.8800 C   0  0  0  0  0  0  0  0  0  0  0  0
   -6.4040   -4.6270   13.9550 C   0  0  0  0  0  0  0  0  0  0  0  0
   -8.2930   -5.4620   13.6320 I   0  0  0  0  0  0  0  0  0  0  0  0
   -5.2760   -5.0880   13.2580 C   0  0  0  0  0  0  0  0  0  0  0  0
   -5.3750   -6.1140   12.3570 O   0  0  0  0  0  0  0  0  0  0  0  0
   -1.8390   -7.0790   13.6560 C   0  0  0  0  0  0  0  0  0  0  0  0
   -1.5120   -8.5480   13.3460 C   0  0  0  0  0  0  0  0  0  0  0  0
   -2.2692  -13.1057   14.1960 H   0  0  0  0  0  0  0  0  0  0  0  0
   -3.0326  -13.5898   12.6437 H   0  0  0  0  0  0  0  0  0  0  0  0
   -1.4163  -12.8060   12.6437 H   0  0  0  0  0  0  0  0  0  0  0  0
   -4.0988  -11.5993   12.6972 H   0  0  0  0  0  0  0  0  0  0  0  0
   -3.0427  -10.9949   14.0266 H   0  0  0  0  0  0  0  0  0  0  0  0
   -2.7520  -10.7550   11.1300 H   0  0  0  0  0  0  0  0  0  0  0  0
   -0.2035  -10.2632   12.3405 H   0  0  0  0  0  0  0  0  0  0  0  0
   -0.7113  -11.9923   12.3753 H   0  0  0  0  0  0  0  0  0  0  0  0
    0.5098  -11.5557   10.3091 H   0  0  0  0  0  0  0  0  0  0  0  0
   -1.2220  -11.8416    9.9273 H   0  0  0  0  0  0  0  0  0  0  0  0
   -0.5665  -10.1692    9.9273 H   0  0  0  0  0  0  0  0  0  0  0  0
   -3.4992   -8.9735   12.7824 H   0  0  0  0  0  0  0  0  0  0  0  0
   -1.6826   -8.7355   10.3628 H   0  0  0  0  0  0  0  0  0  0  0  0
   -3.4515   -8.3771   10.5345 H   0  0  0  0  0  0  0  0  0  0  0  0
   -1.0653   -6.6596   11.1687 H   0  0  0  0  0  0  0  0  0  0  0  0
   -2.6693   -6.2132   10.4958 H   0  0  0  0  0  0  0  0  0  0  0  0
   -1.9013   -4.6084   13.3035 H   0  0  0  0  0  0  0  0  0  0  0  0
   -2.8754   -4.5888   11.7252 H   0  0  0  0  0  0  0  0  0  0  0  0
   -2.9279   -3.0342   14.6311 H   0  0  0  0  0  0  0  0  0  0  0  0
   -5.4511    0.7473   17.7015 H   0  0  0  0  0  0  0  0  0  0  0  0
   -4.4116   -0.2956   18.7485 H   0  0  0  0  0  0  0  0  0  0  0  0
   -2.2110   -0.0857   19.6570 H   0  0  0  0  0  0  0  0  0  0  0  0
    0.0739   -1.0879   19.6912 H   0  0  0  0  0  0  0  0  0  0  0  0
    1.3992   -1.2642   17.5877 H   0  0  0  0  0  0  0  0  0  0  0  0
    0.4421   -0.4235   15.4415 H   0  0  0  0  0  0  0  0  0  0  0  0
   -1.8395    0.5778   15.4061 H   0  0  0  0  0  0  0  0  0  0  0  0
   -7.1724   -3.2240   15.4196 H   0  0  0  0  0  0  0  0  0  0  0  0
   -6.3010   -6.4210   12.3660 H   0  0  0  0  0  0  0  0  0  0  0  0
   -0.8971   -6.5283   13.7956 H   0  0  0  0  0  0  0  0  0  0  0  0
   -2.4555   -7.0553   14.5667 H   0  0  0  0  0  0  0  0  0  0  0  0
   -0.4935   -8.6164   12.9362 H   0  0  0  0  0  0  0  0  0  0  0  0
   -1.5803   -9.1376   14.2721 H   0  0  0  0  0  0  0  0  0  0  0  0
  1  2  1  0
  2  3  1  0
  3  4  1  0
  4  5  1  0
  3  6  1  0
  6  7  1  0
  7  8  1  0
  8  9  1  0
  9 10  1  0
 10 11  1  0
 11 12  2  0
 12 13  1  0
 13 14  1  0
 14 15  3  0
 15 16  1  0
 16 17  1  0
 17 18  1  0
 18 19  2  0
 19 20  1  0
 20 21  2  0
 21 22  1  0
 22 23  2  0
 13 24  2  0
 24 25  1  0
 25 26  1  0
 25 27  2  0
 27 28  1  0
  9 29  1  0
 29 30  1  0
 30  6  1  0
 27 11  1  0
 23 18  1  0
  1 31  1  0
  1 32  1  0
  1 33  1  0
  2 34  1  0
  2 35  1  0
  3 36  1  0
  4 37  1  0
  4 38  1  0
  5 39  1  0
  5 40  1  0
  5 41  1  0
  6 42  1  0
  7 43  1  0
  7 44  1  0
  8 45  1  0
  8 46  1  0
 10 47  1  0
 10 48  1  0
 12 49  1  0
 16 50  1  0
 16 51  1  0
 19 52  1  0
 20 53  1  0
 21 54  1  0
 22 55  1  0
 23 56  1  0
 24 57  1  0
 28 58  1  0
 29 59  1  0
 29 60  1  0
 30 61  1  0
 30 62  1  0
M  CHG  1   3   1
M  END
>  <meeko>  (5) 
{"is_sidechain": [false], "free_energy": -6.039, "intermolecular_energy": -8.985, "internal_energy": -1.434}

$$$$
4agp_ligand
     RDKit          3D

 62 64  0  0  0  0  0  0  0  0999 V2000
   -5.4490  -13.5990   10.7400 C   0  0  0  0  0  0  0  0  0  0  0  0
   -4.9960  -13.7510   12.1810 C   0  0  0  0  0  0  0  0  0  0  0  0
   -3.4940  -13.5190   12.2890 N   0  0  0  0  0  0  0  0  0  0  0  0
   -2.8730  -14.2920   13.4420 C   0  0  0  0  0  0  0  0  0  0  0  0
   -3.9250  -15.1410   14.1350 C   0  0  0  0  0  0  0  0  0  0  0  0
   -3.1300  -12.0250   12.2550 C   0  0  0  0  0  0  0  0  0  0  0  0
   -2.1700  -11.7480   11.0890 C   0  0  0  0  0  0  0  0  0  0  0  0
   -1.3940  -10.4400   11.2940 C   0  0  0  0  0  0  0  0  0  0  0  0
   -2.1770   -9.5370   12.1260 N   0  0  0  0  0  0  0  0  0  0  0  0
   -1.7580   -8.1230   12.0140 C   0  0  0  0  0  0  0  0  0  0  0  0
   -2.5330   -7.1090   12.8290 C   0  0  0  0  0  0  0  0  0  0  0  0
   -1.8760   -6.3880   13.8430 C   0  0  0  0  0  0  0  0  0  0  0  0
   -2.5560   -5.4390   14.6120 C   0  0  0  0  0  0  0  0  0  0  0  0
   -1.8470   -4.7020   15.6110 C   0  0  0  0  0  0  0  0  0  0  0  0
   -1.2240   -4.0810   16.4300 C   0  0  0  0  0  0  0  0  0  0  0  0
   -0.4530   -3.3020   17.4070 C   0  0  0  0  0  0  0  0  0  0  0  0
    0.2720   -2.2520   16.7620 O   0  0  0  0  0  0  0  0  0  0  0  0
    0.0250   -0.9630   17.1460 C   0  0  0  0  0  0  0  0  0  0  0  0
    0.8980   -0.1290   17.8480 C   0  0  0  0  0  0  0  0  0  0  0  0
    0.5100    1.1730   18.1790 C   0  0  0  0  0  0  0  0  0  0  0  0
   -0.7510    1.6450   17.8180 C   0  0  0  0  0  0  0  0  0  0  0  0
   -1.6300    0.8150   17.1280 C   0  0  0  0  0  0  0  0  0  0  0  0
   -1.2420   -0.4860   16.7980 C   0  0  0  0  0  0  0  0  0  0  0  0
   -3.9120   -5.2030   14.3950 C   0  0  0  0  0  0  0  0  0  0  0  0
   -4.5850   -5.9240   13.4070 C   0  0  0  0  0  0  0  0  0  0  0  0
   -6.6210   -5.5490   13.1150 I   0  0  0  0  0  0  0  0  0  0  0  0
   -3.9010   -6.8710   12.6300 C   0  0  0  0  0  0  0  0  0  0  0  0
   -4.5520   -7.5940   11.6660 O   0  0  0  0  0  0  0  0  0  0  0  0
   -2.3320  -10.0040   13.5050 C   0  0  0  0  0  0  0  0  0  0  0  0
   -2.5680  -11.5200   13.5810 C   0  0  0  0  0  0  0  0  0  0  0  0
   -6.4917  -13.2491   10.7184 H   0  0  0  0  0  0  0  0  0  0  0  0
   -4.8061  -12.8674   10.2288 H   0  0  0  0  0  0  0  0  0  0  0  0
   -5.3775  -14.5703   10.2288 H   0  0  0  0  0  0  0  0  0  0  0  0
   -5.5229  -13.0156   12.8068 H   0  0  0  0  0  0  0  0  0  0  0  0
   -5.2267  -14.7705   12.5235 H   0  0  0  0  0  0  0  0  0  0  0  0
   -3.0830  -13.9120   11.4320 H   0  0  0  0  0  0  0  0  0  0  0  0
   -2.0774  -14.9452   13.0542 H   0  0  0  0  0  0  0  0  0  0  0  0
   -2.4548  -13.5783   14.1671 H   0  0  0  0  0  0  0  0  0  0  0  0
   -3.8108  -15.0488   15.2252 H   0  0  0  0  0  0  0  0  0  0  0  0
   -4.9271  -14.7956   13.8408 H   0  0  0  0  0  0  0  0  0  0  0  0
   -3.7989  -16.1934   13.8408 H   0  0  0  0  0  0  0  0  0  0  0  0
   -4.0597  -11.4598   12.0933 H   0  0  0  0  0  0  0  0  0  0  0  0
   -1.4539  -12.5793   11.0111 H   0  0  0  0  0  0  0  0  0  0  0  0
   -2.7650  -11.6541   10.1686 H   0  0  0  0  0  0  0  0  0  0  0  0
   -0.4354  -10.6559   11.7885 H   0  0  0  0  0  0  0  0  0  0  0  0
   -1.2050   -9.9687   10.3182 H   0  0  0  0  0  0  0  0  0  0  0  0
   -0.7047   -8.0635   12.3253 H   0  0  0  0  0  0  0  0  0  0  0  0
   -1.9480   -7.8513   10.9651 H   0  0  0  0  0  0  0  0  0  0  0  0
   -0.8088   -6.5743   14.0340 H   0  0  0  0  0  0  0  0  0  0  0  0
   -1.1426   -2.8641   18.1437 H   0  0  0  0  0  0  0  0  0  0  0  0
    0.2644   -3.9716   17.9040 H   0  0  0  0  0  0  0  0  0  0  0  0
    1.8924   -0.4969   18.1410 H   0  0  0  0  0  0  0  0  0  0  0  0
    1.2033    1.8280   18.7270 H   0  0  0  0  0  0  0  0  0  0  0  0
   -1.0507    2.6710   18.0778 H   0  0  0  0  0  0  0  0  0  0  0  0
   -2.6271    1.1823   16.8434 H   0  0  0  0  0  0  0  0  0  0  0  0
   -1.9411   -1.1420   16.2585 H   0  0  0  0  0  0  0  0  0  0  0  0
   -4.4479   -4.4546   14.9973 H   0  0  0  0  0  0  0  0  0  0  0  0
   -5.2700   -8.0860   12.1050 H   0  0  0  0  0  0  0  0  0  0  0  0
   -1.4185   -9.7591   14.0668 H   0  0  0  0  0  0  0  0  0  0  0  0
   -3.2123   -9.5032   13.9343 H   0  0  0  0  0  0  0  0  0  0  0  0
   -1.6148  -12.0275   13.7901 H   0  0  0  0  0  0  0  0  0  0  0  0
   -3.2876  -11.7348   14.3848 H   0  0  0  0  0  0  0  0  0  0  0  0
  1  2  1  0
  2  3  1  0
  3  4  1  0
  4  5  1  0
  3  6  1  0
  6  7  1  0
  7  8  1  0
  8  9  1  0
  9 10  1  0
 10 11  1  0
 11 12  2  0
 12 13  1  0
 13 14  1  0
 14 15  3  0
 15 16  1  0
 16 17  1  0
 17 18  1  0
 18 19  2  0
 19 20  1  0
 20 21  2  0
 21 22  1  0
 22 23  2  0
 13 24  2  0
 24 25  1  0
 25 26  1  0
 25 27  2  0
 27 28  1  0
  9 29  1  0
 29 30  1  0
 30  6  1  0
 27 11  1  0
 23 18  1  0
  1 31  1  0
  1 32  1  0
  1 33  1  0
  2 34  1  0
  2 35  1  0
  3 36  1  0
  4 37  1  0
  4 38  1  0
  5 39  1  0
  5 40  1  0
  5 41  1  0
  6 42  1  0
  7 43  1  0
  7 44  1  0
  8 45  1  0
  8 46  1  0
 10 47  1  0
 10 48  1  0
 12 49  1  0
 16 50  1  0
 16 51  1  0
 19 52  1  0
 20 53  1  0
 21 54  1  0
 22 55  1  0
 23 56  1  0
 24 57  1  0
 28 58  1  0
 29 59  1  0
 29 60  1  0
 30 61  1  0
 30 62  1  0
M  CHG  1   3   1
M  END
>  <meeko>  (6) 
{"is_sidechain": [false], "free_energy": -6.008, "intermolecular_energy": -9.165, "internal_energy": -1.207}

$$$$
4agp_ligand
     RDKit          3D

 62 64  0  0  0  0  0  0  0  0999 V2000
   -0.4530   -8.8480   13.4390 C   0  0  0  0  0  0  0  0  0  0  0  0
   -0.4630  -10.2760   12.9220 C   0  0  0  0  0  0  0  0  0  0  0  0
   -1.8130  -10.6000   12.2930 N   0  0  0  0  0  0  0  0  0  0  0  0
   -1.6720  -11.2140   10.9090 C   0  0  0  0  0  0  0  0  0  0  0  0
   -0.2550  -11.0310   10.3930 C   0  0  0  0  0  0  0  0  0  0  0  0
   -2.7920   -9.4160   12.3690 C   0  0  0  0  0  0  0  0  0  0  0  0
   -4.0300   -9.8140   13.1850 C   0  0  0  0  0  0  0  0  0  0  0  0
   -5.2250   -8.9000   12.8830 C   0  0  0  0  0  0  0  0  0  0  0  0
   -4.7400   -7.5960   12.4510 N   0  0  0  0  0  0  0  0  0  0  0  0
   -5.7500   -6.5230   12.5730 C   0  0  0  0  0  0  0  0  0  0  0  0
   -5.4180   -5.3660   13.4920 C   0  0  0  0  0  0  0  0  0  0  0  0
   -4.1650   -5.3270   14.1300 C   0  0  0  0  0  0  0  0  0  0  0  0
   -3.8170   -4.2730   14.9810 C   0  0  0  0  0  0  0  0  0  0  0  0
   -2.5220   -4.2510   15.5850 C   0  0  0  0  0  0  0  0  0  0  0  0
   -1.4210   -4.2440   16.0650 C   0  0  0  0  0  0  0  0  0  0  0  0
   -0.0710   -4.2040   16.6410 C   0  0  0  0  0  0  0  0  0  0  0  0
    0.5200   -2.9140   16.4630 O   0  0  0  0  0  0  0  0  0  0  0  0
   -0.0740   -1.8390   17.0650 C   0  0  0  0  0  0  0  0  0  0  0  0
   -0.3370   -0.6030   16.4730 C   0  0  0  0  0  0  0  0  0  0  0  0
   -0.9520    0.4130   17.2130 C   0  0  0  0  0  0  0  0  0  0  0  0
   -1.2990    0.2010   18.5460 C   0  0  0  0  0  0  0  0  0  0  0  0
   -1.0280   -1.0260   19.1450 C   0  0  0  0  0  0  0  0  0  0  0  0
   -0.4140   -2.0390   18.4060 C   0  0  0  0  0  0  0  0  0  0  0  0
   -4.7250   -3.2430   15.2250 C   0  0  0  0  0  0  0  0  0  0  0  0
   -5.9800   -3.2760   14.6170 C   0  0  0  0  0  0  0  0  0  0  0  0
   -7.3180   -1.7180   15.0110 I   0  0  0  0  0  0  0  0  0  0  0  0
   -6.3250   -4.3300   13.7580 C   0  0  0  0  0  0  0  0  0  0  0  0
   -7.5590   -4.3810   13.1630 O   0  0  0  0  0  0  0  0  0  0  0  0
   -4.0610   -7.6290   11.1540 C   0  0  0  0  0  0  0  0  0  0  0  0
   -3.1720   -8.8720   10.9950 C   0  0  0  0  0  0  0  0  0  0  0  0
   -0.4531   -8.8563   14.5390 H   0  0  0  0  0  0  0  0  0  0  0  0
    0.4488   -8.3330   13.0762 H   0  0  0  0  0  0  0  0  0  0  0  0
   -1.3475   -8.3204   13.0762 H   0  0  0  0  0  0  0  0  0  0  0  0
    0.3275  -10.3941   12.1662 H   0  0  0  0  0  0  0  0  0  0  0  0
   -0.2853  -10.9628   13.7627 H   0  0  0  0  0  0  0  0  0  0  0  0
   -2.2330  -11.3310   12.8840 H   0  0  0  0  0  0  0  0  0  0  0  0
   -1.9025  -12.2882   10.9634 H   0  0  0  0  0  0  0  0  0  0  0  0
   -2.3703  -10.7130   10.2224 H   0  0  0  0  0  0  0  0  0  0  0  0
    0.4364  -10.9417   11.2439 H   0  0  0  0  0  0  0  0  0  0  0  0
    0.0274  -11.9001    9.7807 H   0  0  0  0  0  0  0  0  0  0  0  0
   -0.2027  -10.1186    9.7807 H   0  0  0  0  0  0  0  0  0  0  0  0
   -2.2776   -8.5904   12.8826 H   0  0  0  0  0  0  0  0  0  0  0  0
   -4.3023  -10.8506   12.9375 H   0  0  0  0  0  0  0  0  0  0  0  0
   -3.7838   -9.7160   14.2526 H   0  0  0  0  0  0  0  0  0  0  0  0
   -5.8364   -9.3469   12.0852 H   0  0  0  0  0  0  0  0  0  0  0  0
   -5.8361   -8.7826   13.7900 H   0  0  0  0  0  0  0  0  0  0  0  0
   -5.9182   -6.1100   11.5674 H   0  0  0  0  0  0  0  0  0  0  0  0
   -6.6264   -7.0068   13.0289 H   0  0  0  0  0  0  0  0  0  0  0  0
   -3.4454   -6.1406   13.9564 H   0  0  0  0  0  0  0  0  0  0  0  0
   -0.1311   -4.4277   17.7163 H   0  0  0  0  0  0  0  0  0  0  0  0
    0.5529   -4.9510   16.1284 H   0  0  0  0  0  0  0  0  0  0  0  0
   -0.0604   -0.4271   15.4230 H   0  0  0  0  0  0  0  0  0  0  0  0
   -1.1626    1.3837   16.7403 H   0  0  0  0  0  0  0  0  0  0  0  0
   -1.7857    1.0010   19.1232 H   0  0  0  0  0  0  0  0  0  0  0  0
   -1.2969   -1.1970   20.1978 H   0  0  0  0  0  0  0  0  0  0  0  0
   -0.1954   -3.0051   18.8843 H   0  0  0  0  0  0  0  0  0  0  0  0
   -4.4537   -2.4111   15.8916 H   0  0  0  0  0  0  0  0  0  0  0  0
   -8.2000   -3.9980   13.7910 H   0  0  0  0  0  0  0  0  0  0  0  0
   -4.8194   -7.6318   10.3572 H   0  0  0  0  0  0  0  0  0  0  0  0
   -3.4146   -6.7413   11.0889 H   0  0  0  0  0  0  0  0  0  0  0  0
   -3.7207   -9.6441   10.4357 H   0  0  0  0  0  0  0  0  0  0  0  0
   -2.2580   -8.5968   10.4483 H   0  0  0  0  0  0  0  0  0  0  0  0
  1  2  1  0
  2  3  1  0
  3  4  1  0
  4  5  1  0
  3  6  1  0
  6  7  1  0
  7  8  1  0
  8  9  1  0
  9 10  1  0
 10 11  1  0
 11 12  2  0
 12 13  1  0
 13 14  1  0
 14 15  3  0
 15 16  1  0
 16 17  1  0
 17 18  1  0
 18 19  2  0
 19 20  1  0
 20 21  2  0
 21 22  1  0
 22 23  2  0
 13 24  2  0
 24 25  1  0
 25 26  1  0
 25 27  2  0
 27 28  1  0
  9 29  1  0
 29 30  1  0
 30  6  1  0
 27 11  1  0
 23 18  1  0
  1 31  1  0
  1 32  1  0
  1 33  1  0
  2 34  1  0
  2 35  1  0
  3 36  1  0
  4 37  1  0
  4 38  1  0
  5 39  1  0
  5 40  1  0
  5 41  1  0
  6 42  1  0
  7 43  1  0
  7 44  1  0
  8 45  1  0
  8 46  1  0
 10 47  1  0
 10 48  1  0
 12 49  1  0
 16 50  1  0
 16 51  1  0
 19 52  1  0
 20 53  1  0
 21 54  1  0
 22 55  1  0
 23 56  1  0
 24 57  1  0
 28 58  1  0
 29 59  1  0
 29 60  1  0
 30 61  1  0
 30 62  1  0
M  CHG  1   3   1
M  END
>  <meeko>  (7) 
{"is_sidechain": [false], "free_energy": -5.996, "intermolecular_energy": -9.076, "internal_energy": -1.278}

$$$$
4agp_ligand
     RDKit          3D

 62 64  0  0  0  0  0  0  0  0999 V2000
   -0.2050    0.7980   16.0230 C   0  0  0  0  0  0  0  0  0  0  0  0
    0.1950   -0.3350   16.9520 C   0  0  0  0  0  0  0  0  0  0  0  0
   -1.0400   -0.9340   17.6150 N   0  0  0  0  0  0  0  0  0  0  0  0
   -0.6960   -1.7180   18.8710 C   0  0  0  0  0  0  0  0  0  0  0  0
   -1.3080   -1.0520   20.0920 C   0  0  0  0  0  0  0  0  0  0  0  0
   -1.9310   -1.6900   16.6160 C   0  0  0  0  0  0  0  0  0  0  0  0
   -3.3590   -1.1270   16.6590 C   0  0  0  0  0  0  0  0  0  0  0  0
   -4.3780   -2.1250   16.0930 C   0  0  0  0  0  0  0  0  0  0  0  0
   -3.7200   -2.9940   15.1280 N   0  0  0  0  0  0  0  0  0  0  0  0
   -4.6600   -3.6660   14.2050 C   0  0  0  0  0  0  0  0  0  0  0  0
   -4.5820   -5.1760   14.1220 C   0  0  0  0  0  0  0  0  0  0  0  0
   -3.5990   -5.7750   13.3140 C   0  0  0  0  0  0  0  0  0  0  0  0
   -3.4900   -7.1660   13.2160 C   0  0  0  0  0  0  0  0  0  0  0  0
   -2.4570   -7.7380   12.4110 C   0  0  0  0  0  0  0  0  0  0  0  0
   -1.5680   -8.1950   11.7440 C   0  0  0  0  0  0  0  0  0  0  0  0
   -0.4810   -8.7810   10.9510 C   0  0  0  0  0  0  0  0  0  0  0  0
   -0.0690  -10.0350   11.4990 O   0  0  0  0  0  0  0  0  0  0  0  0
   -1.0090  -11.0170   11.6490 C   0  0  0  0  0  0  0  0  0  0  0  0
   -1.4410  -11.5680   12.8570 C   0  0  0  0  0  0  0  0  0  0  0  0
   -2.4120  -12.5740   12.8620 C   0  0  0  0  0  0  0  0  0  0  0  0
   -2.9500  -13.0380   11.6630 C   0  0  0  0  0  0  0  0  0  0  0  0
   -2.5150  -12.5010   10.4550 C   0  0  0  0  0  0  0  0  0  0  0  0
   -1.5450  -11.4970   10.4510 C   0  0  0  0  0  0  0  0  0  0  0  0
   -4.3760   -7.9870   13.9130 C   0  0  0  0  0  0  0  0  0  0  0  0
   -5.3700   -7.4100   14.7030 C   0  0  0  0  0  0  0  0  0  0  0  0
   -6.6840   -8.6730   15.7280 I   0  0  0  0  0  0  0  0  0  0  0  0
   -5.4740   -6.0150   14.8070 C   0  0  0  0  0  0  0  0  0  0  0  0
   -6.4530   -5.4350   15.5700 O   0  0  0  0  0  0  0  0  0  0  0  0
   -2.7350   -3.8930   15.7330 C   0  0  0  0  0  0  0  0  0  0  0  0
   -1.9130   -3.2010   16.8300 C   0  0  0  0  0  0  0  0  0  0  0  0
   -0.5127    1.6697   16.6192 H   0  0  0  0  0  0  0  0  0  0  0  0
    0.6509    1.0714   15.3885 H   0  0  0  0  0  0  0  0  0  0  0  0
   -1.0429    0.4734   15.3885 H   0  0  0  0  0  0  0  0  0  0  0  0
    0.7106   -1.1150   16.3725 H   0  0  0  0  0  0  0  0  0  0  0  0
    0.8645    0.0591   17.7307 H   0  0  0  0  0  0  0  0  0  0  0  0
   -1.6090   -0.1350   17.9280 H   0  0  0  0  0  0  0  0  0  0  0  0
   -1.0901   -2.7409   18.7797 H   0  0  0  0  0  0  0  0  0  0  0  0
    0.3974   -1.7448   18.9881 H   0  0  0  0  0  0  0  0  0  0  0  0
   -0.8918   -1.5049   21.0040 H   0  0  0  0  0  0  0  0  0  0  0  0
   -1.0763    0.0232   20.0780 H   0  0  0  0  0  0  0  0  0  0  0  0
   -2.3989   -1.1922   20.0780 H   0  0  0  0  0  0  0  0  0  0  0  0
   -1.5149   -1.5282   15.6107 H   0  0  0  0  0  0  0  0  0  0  0  0
   -3.6224   -0.9016   17.7029 H   0  0  0  0  0  0  0  0  0  0  0  0
   -3.3886   -0.2177   16.0407 H   0  0  0  0  0  0  0  0  0  0  0  0
   -4.7906   -2.7324   16.9121 H   0  0  0  0  0  0  0  0  0  0  0  0
   -5.1927   -1.5766   15.5975 H   0  0  0  0  0  0  0  0  0  0  0  0
   -5.6802   -3.4035   14.5215 H   0  0  0  0  0  0  0  0  0  0  0  0
   -4.3789   -3.3103   13.2028 H   0  0  0  0  0  0  0  0  0  0  0  0
   -2.9030   -5.1378   12.7487 H   0  0  0  0  0  0  0  0  0  0  0  0
   -0.8307   -8.9361    9.9197 H   0  0  0  0  0  0  0  0  0  0  0  0
    0.3763   -8.0920   10.9664 H   0  0  0  0  0  0  0  0  0  0  0  0
   -1.0166  -11.2100   13.8066 H   0  0  0  0  0  0  0  0  0  0  0  0
   -2.7528  -13.0012   13.8166 H   0  0  0  0  0  0  0  0  0  0  0  0
   -3.7166  -13.8268   11.6714 H   0  0  0  0  0  0  0  0  0  0  0  0
   -2.9343  -12.8666    9.5060 H   0  0  0  0  0  0  0  0  0  0  0  0
   -1.1988  -11.0791    9.4942 H   0  0  0  0  0  0  0  0  0  0  0  0
   -4.2915   -9.0813   13.8402 H   0  0  0  0  0  0  0  0  0  0  0  0
   -7.0030   -6.1540   15.9330 H   0  0  0  0  0  0  0  0  0  0  0  0
   -3.2630   -4.7511   16.1744 H   0  0  0  0  0  0  0  0  0  0  0  0
   -2.0403   -4.2131   14.9424 H   0  0  0  0  0  0  0  0  0  0  0  0
   -2.3464   -3.4355   17.8135 H   0  0  0  0  0  0  0  0  0  0  0  0
   -0.8745   -3.5610   16.7865 H   0  0  0  0  0  0  0  0  0  0  0  0
  1  2  1  0
  2  3  1  0
  3  4  1  0
  4  5  1  0
  3  6  1  0
  6  7  1  0
  7  8  1  0
  8  9  1  0
  9 10  1  0
 10 11  1  0
 11 12  2  0
 12 13  1  0
 13 14  1  0
 14 15  3  0
 15 16  1  0
 16 17  1  0
 17 18  1  0
 18 19  2  0
 19 20  1  0
 20 21  2  0
 21 22  1  0
 22 23  2  0
 13 24  2  0
 24 25  1  0
 25 26  1  0
 25 27  2  0
 27 28  1  0
  9 29  1  0
 29 30  1  0
 30  6  1  0
 27 11  1  0
 23 18  1  0
  1 31  1  0
  1 32  1  0
  1 33  1  0
  2 34  1  0
  2 35  1  0
  3 36  1  0
  4 37  1  0
  4 38  1  0
  5 39  1  0
  5 40  1  0
  5 41  1  0
  6 42  1  0
  7 43  1  0
  7 44  1  0
  8 45  1  0
  8 46  1  0
 10 47  1  0
 10 48  1  0
 12 49  1  0
 16 50  1  0
 16 51  1  0
 19 52  1  0
 20 53  1  0
 21 54  1  0
 22 55  1  0
 23 56  1  0
 24 57  1  0
 28 58  1  0
 29 59  1  0
 29 60  1  0
 30 61  1  0
 30 62  1  0
M  CHG  1   3   1
M  END
>  <meeko>  (8) 
{"is_sidechain": [false], "free_energy": -5.828, "intermolecular_energy": -9.113, "internal_energy": -0.989}

$$$$
4agp_ligand
     RDKit          3D

 62 64  0  0  0  0  0  0  0  0999 V2000
   -1.4880   -0.9160   16.8710 C   0  0  0  0  0  0  0  0  0  0  0  0
   -2.7450   -1.6990   17.2060 C   0  0  0  0  0  0  0  0  0  0  0  0
   -2.4840   -3.1950   17.0750 N   0  0  0  0  0  0  0  0  0  0  0  0
   -1.0310   -3.5010   16.7470 C   0  0  0  0  0  0  0  0  0  0  0  0
   -0.8100   -5.0020   16.6820 C   0  0  0  0  0  0  0  0  0  0  0  0
   -3.5040   -3.8870   16.1560 C   0  0  0  0  0  0  0  0  0  0  0  0
   -3.4990   -3.2200   14.7730 C   0  0  0  0  0  0  0  0  0  0  0  0
   -4.7940   -3.5060   14.0010 C   0  0  0  0  0  0  0  0  0  0  0  0
   -5.3570   -4.7710   14.4520 N   0  0  0  0  0  0  0  0  0  0  0  0
   -6.3170   -5.3620   13.4940 C   0  0  0  0  0  0  0  0  0  0  0  0
   -6.0080   -6.7510   12.9780 C   0  0  0  0  0  0  0  0  0  0  0  0
   -4.7010   -7.0570   12.5560 C   0  0  0  0  0  0  0  0  0  0  0  0
   -4.3740   -8.3300   12.0790 C   0  0  0  0  0  0  0  0  0  0  0  0
   -3.0280   -8.6140   11.6910 C   0  0  0  0  0  0  0  0  0  0  0  0
   -1.8860   -8.8340   11.3900 C   0  0  0  0  0  0  0  0  0  0  0  0
   -0.4970   -9.1360   11.0200 C   0  0  0  0  0  0  0  0  0  0  0  0
   -0.3170  -10.5410   10.8240 O   0  0  0  0  0  0  0  0  0  0  0  0
   -1.2080  -11.3970   11.4090 C   0  0  0  0  0  0  0  0  0  0  0  0
   -1.2570  -11.7380   12.7620 C   0  0  0  0  0  0  0  0  0  0  0  0
   -2.2260  -12.6350   13.2250 C   0  0  0  0  0  0  0  0  0  0  0  0
   -3.1440  -13.1970   12.3400 C   0  0  0  0  0  0  0  0  0  0  0  0
   -3.0920  -12.8700   10.9880 C   0  0  0  0  0  0  0  0  0  0  0  0
   -2.1240  -11.9750   10.5260 C   0  0  0  0  0  0  0  0  0  0  0  0
   -5.3530   -9.3200   11.9980 C   0  0  0  0  0  0  0  0  0  0  0  0
   -6.6590   -9.0280   12.3940 C   0  0  0  0  0  0  0  0  0  0  0  0
   -8.1010  -10.5340   12.2520 I   0  0  0  0  0  0  0  0  0  0  0  0
   -6.9850   -7.7520   12.8790 C   0  0  0  0  0  0  0  0  0  0  0  0
   -8.2650   -7.4490   13.2590 O   0  0  0  0  0  0  0  0  0  0  0  0
   -5.8420   -4.7310   15.8330 C   0  0  0  0  0  0  0  0  0  0  0  0
   -4.9070   -3.9330   16.7540 C   0  0  0  0  0  0  0  0  0  0  0  0
   -0.9902   -0.6059   17.8016 H   0  0  0  0  0  0  0  0  0  0  0  0
   -0.8067   -1.5497   16.2843 H   0  0  0  0  0  0  0  0  0  0  0  0
   -1.7564   -0.0251   16.2843 H   0  0  0  0  0  0  0  0  0  0  0  0
   -3.0499   -1.4724   18.2383 H   0  0  0  0  0  0  0  0  0  0  0  0
   -3.5439   -1.4115   16.5067 H   0  0  0  0  0  0  0  0  0  0  0  0
   -2.6520   -3.5960   18.0080 H   0  0  0  0  0  0  0  0  0  0  0  0
   -0.7767   -3.0544   15.7744 H   0  0  0  0  0  0  0  0  0  0  0  0
   -0.3898   -3.0788   17.5348 H   0  0  0  0  0  0  0  0  0  0  0  0
   -0.7502   -5.4083   17.7024 H   0  0  0  0  0  0  0  0  0  0  0  0
   -1.6484   -5.4733   16.1482 H   0  0  0  0  0  0  0  0  0  0  0  0
    0.1287   -5.2116   16.1482 H   0  0  0  0  0  0  0  0  0  0  0  0
   -3.1934   -4.9366   16.0467 H   0  0  0  0  0  0  0  0  0  0  0  0
   -3.3934   -2.1327   14.9019 H   0  0  0  0  0  0  0  0  0  0  0  0
   -2.6576   -3.6319   14.1964 H   0  0  0  0  0  0  0  0  0  0  0  0
   -5.5165   -2.6969   14.1838 H   0  0  0  0  0  0  0  0  0  0  0  0
   -4.5747   -3.5645   12.9247 H   0  0  0  0  0  0  0  0  0  0  0  0
   -7.2978   -5.4032   13.9903 H   0  0  0  0  0  0  0  0  0  0  0  0
   -6.2719   -4.7121   12.6077 H   0  0  0  0  0  0  0  0  0  0  0  0
   -3.9228   -6.2810   12.6022 H   0  0  0  0  0  0  0  0  0  0  0  0
   -0.2492   -8.6073   10.0878 H   0  0  0  0  0  0  0  0  0  0  0  0
    0.1643   -8.8064   11.8349 H   0  0  0  0  0  0  0  0  0  0  0  0
   -0.5327  -11.3008   13.4651 H   0  0  0  0  0  0  0  0  0  0  0  0
   -2.2633  -12.8977   14.2925 H   0  0  0  0  0  0  0  0  0  0  0  0
   -3.9079  -13.8973   12.7089 H   0  0  0  0  0  0  0  0  0  0  0  0
   -3.8114  -13.3153   10.2850 H   0  0  0  0  0  0  0  0  0  0  0  0
   -2.0824  -11.7226    9.4561 H   0  0  0  0  0  0  0  0  0  0  0  0
   -5.0978  -10.3229   11.6250 H   0  0  0  0  0  0  0  0  0  0  0  0
   -8.2120   -6.9750   14.1090 H   0  0  0  0  0  0  0  0  0  0  0  0
   -6.8367   -4.2616   15.8455 H   0  0  0  0  0  0  0  0  0  0  0  0
   -5.8821   -5.7648   16.2067 H   0  0  0  0  0  0  0  0  0  0  0  0
   -5.2906   -2.9079   16.8635 H   0  0  0  0  0  0  0  0  0  0  0  0
   -4.8651   -4.4215   17.7387 H   0  0  0  0  0  0  0  0  0  0  0  0
  1  2  1  0
  2  3  1  0
  3  4  1  0
  4  5  1  0
  3  6  1  0
  6  7  1  0
  7  8  1  0
  8  9  1  0
  9 10  1  0
 10 11  1  0
 11 12  2  0
 12 13  1  0
 13 14  1  0
 14 15  3  0
 15 16  1  0
 16 17  1  0
 17 18  1  0
 18 19  2  0
 19 20  1  0
 20 21  2  0
 21 22  1  0
 22 23  2  0
 13 24  2  0
 24 25  1  0
 25 26  1  0
 25 27  2  0
 27 28  1  0
  9 29  1  0
 29 30  1  0
 30  6  1  0
 27 11  1  0
 23 18  1  0
  1 31  1  0
  1 32  1  0
  1 33  1  0
  2 34  1  0
  2 35  1  0
  3 36  1  0
  4 37  1  0
  4 38  1  0
  5 39  1  0
  5 40  1  0
  5 41  1  0
  6 42  1  0
  7 43  1  0
  7 44  1  0
  8 45  1  0
  8 46  1  0
 10 47  1  0
 10 48  1  0
 12 49  1  0
 16 50  1  0
 16 51  1  0
 19 52  1  0
 20 53  1  0
 21 54  1  0
 22 55  1  0
 23 56  1  0
 24 57  1  0
 28 58  1  0
 29 59  1  0
 29 60  1  0
 30 61  1  0
 30 62  1  0
M  CHG  1   3   1
M  END
>  <meeko>  (9) 
{"is_sidechain": [false], "free_energy": -5.797, "intermolecular_energy": -8.922, "internal_energy": -1.134}

$$$$
