
     RDKit          3D

 44 47  0  0  0  0  0  0  0  0999 V2000
    1.0270    8.3170  -12.0240 C   0  0  0  0  0  0  0  0  0  0  0  0
    0.7440    8.9580  -10.6670 C   0  0  2  0  0  0  0  0  0  0  0  0
   -0.6260    8.7070  -10.2790 N   0  0  0  0  0  0  0  0  0  0  0  0
   -1.0670    8.8840   -9.0110 C   0  0  0  0  0  0  0  0  0  0  0  0
   -0.3630    9.2360   -8.0820 O   0  0  0  0  0  0  0  0  0  0  0  0
   -2.5530    8.6780   -8.8240 C   0  0  2  0  0  0  0  0  0  0  0  0
   -3.2930   10.0140   -9.1050 C   0  0  0  0  0  0  0  0  0  0  0  0
   -2.8500    8.1990   -7.5000 N   0  0  0  0  0  0  0  0  0  0  0  0
   -2.9640    6.8930   -7.2570 C   0  0  0  0  0  0  0  0  0  0  0  0
   -2.8160    6.0490   -8.1180 O   0  0  0  0  0  0  0  0  0  0  0  0
   -3.4180    6.5420   -5.8510 C   0  0  2  0  0  0  0  0  0  0  0  0
   -2.5500    5.4440   -5.2280 C   0  0  0  0  0  0  0  0  0  0  0  0
   -1.2140    5.8050   -4.7170 C   0  0  0  0  0  0  0  0  0  0  0  0
   -0.7420    6.8890   -3.9980 C   0  0  0  0  0  0  0  0  0  0  0  0
    0.5940    6.5930   -3.6930 C   0  0  0  0  0  0  0  0  0  0  0  0
    1.5460    7.3670   -2.8970 C   0  0  0  0  0  0  0  0  0  0  0  0
    1.1460    8.5460   -2.2820 C   0  0  0  0  0  0  0  0  0  0  0  0
    2.0520    9.2800   -1.4990 C   0  0  0  0  0  0  0  0  0  0  0  0
    3.3720    8.8610   -1.3160 C   0  0  0  0  0  0  0  0  0  0  0  0
    4.2760    9.6390   -0.4690 C   0  0  0  0  0  0  0  0  0  0  0  0
    4.0790   11.0360   -0.3210 C   0  0  0  0  0  0  0  0  0  0  0  0
    4.9060   11.8220    0.5080 C   0  0  0  0  0  0  0  0  0  0  0  0
    5.9350   11.2130    1.2130 C   0  0  0  0  0  0  0  0  0  0  0  0
    6.1330    9.8490    1.0950 C   0  0  0  0  0  0  0  0  0  0  0  0
    7.4000    9.1020    2.0150 Cl  0  0  0  0  0  0  0  0  0  0  0  0
    5.3140    9.0590    0.2620 C   0  0  0  0  0  0  0  0  0  0  0  0
    3.7670    7.6910   -1.9460 C   0  0  0  0  0  0  0  0  0  0  0  0
    2.8650    6.9250   -2.7330 C   0  0  0  0  0  0  0  0  0  0  0  0
    0.9030    5.4210   -4.2550 N   0  0  0  0  0  0  0  0  0  0  0  0
   -0.2340    4.9290   -4.8710 O   0  0  0  0  0  0  0  0  0  0  0  0
   -4.8550    6.0640   -6.0370 C   0  0  0  0  0  0  0  0  0  0  0  0
   -5.8710    5.9270   -4.6280 P   0  0  0  0  0  0  0  0  0  0  0  0
   -5.9020    7.2400   -3.9470 O   0  0  0  0  0  0  0  0  0  0  0  0
   -5.3550    4.8130   -3.7760 O   0  0  0  0  0  0  0  0  0  0  0  0
   -7.4700    5.5090   -5.1820 C   0  0  0  0  0  0  0  0  0  0  0  0
   -8.4890    5.6720   -4.3110 C   0  0  0  0  0  0  0  0  0  0  0  0
   -9.7810    5.3220   -4.7200 C   0  0  0  0  0  0  0  0  0  0  0  0
   -9.9630    4.8320   -5.9960 C   0  0  0  0  0  0  0  0  0  0  0  0
  -11.7430    4.3310   -6.5510 Br  0  0  0  0  0  0  0  0  0  0  0  0
   -8.9240    4.6720   -6.8680 C   0  0  0  0  0  0  0  0  0  0  0  0
   -7.6630    5.0110   -6.4410 C   0  0  0  0  0  0  0  0  0  0  0  0
    1.0410   10.4420  -10.7130 C   0  0  0  0  0  0  0  0  0  0  0  0
    0.0830   11.2550  -11.1760 N   0  0  0  0  0  0  0  0  0  0  0  0
    2.1540   10.8610  -10.3670 O   0  0  0  0  0  0  0  0  0  0  0  0
  2  1  1  6
  3  2  1  0
  4  3  1  0
  5  4  2  0
  6  4  1  0
  6  7  1  1
  8  6  1  0
  9  8  1  0
 10  9  2  0
 11  9  1  0
 11 12  1  6
 13 12  1  0
 14 13  2  0
 15 14  1  0
 16 15  1  0
 17 16  2  0
 18 17  1  0
 19 18  2  0
 20 19  1  0
 21 20  2  0
 22 21  1  0
 23 22  2  0
 24 23  1  0
 25 24  1  0
 26 20  1  0
 26 24  2  0
 27 19  1  0
 28 27  2  0
 28 16  1  0
 29 15  2  0
 30 29  1  0
 30 13  1  0
 31 11  1  0
 32 31  1  0
 33 32  2  0
 34 32  1  0
 35 32  1  0
 36 35  2  0
 37 36  1  0
 38 37  2  0
 39 38  1  0
 40 38  1  0
 41 40  2  0
 41 35  1  0
 42  2  1  0
 43 42  1  0
 44 42  2  0
M  CHG  1  34  -1
M  END
$$$$
