1lpg_ligand
     RDKit          3D

 78 82  0  0  0  0  0  0  0  0999 V2000
   16.7630  -10.7240    1.2500 C   0  0  0  0  0  0  0  0  0  0  0  0
   15.7240  -11.7330    0.7690 N   0  0  0  0  0  0  0  0  0  0  0  0
   14.7590  -11.0920   -0.2250 C   0  0  0  0  0  0  0  0  0  0  0  0
   16.4620  -12.8550    0.0440 C   0  0  0  0  0  0  0  0  0  0  0  0
   14.9340  -12.2340    1.9670 C   0  0  0  0  0  0  0  0  0  0  0  0
   13.5420  -12.3900    1.8610 C   0  0  0  0  0  0  0  0  0  0  0  0
   12.7790  -12.8580    2.9390 C   0  0  0  0  0  0  0  0  0  0  0  0
   13.3910  -13.1900    4.1510 C   0  0  0  0  0  0  0  0  0  0  0  0
   12.5810  -13.6930    5.3210 C   0  0  0  0  0  0  0  0  0  0  0  0
   11.4670  -14.4970    4.8780 N   0  0  0  0  0  0  0  0  0  0  0  0
   11.5260  -15.8720    4.8260 C   0  0  0  0  0  0  0  0  0  0  0  0
   12.5490  -16.4740    5.1420 O   0  0  0  0  0  0  0  0  0  0  0  0
   10.2950  -16.5340    4.4060 C   0  0  0  0  0  0  0  0  0  0  0  0
    9.2730  -17.0560    5.1880 C   0  0  0  0  0  0  0  0  0  0  0  0
    8.3090  -17.6740    4.3520 C   0  0  0  0  0  0  0  0  0  0  0  0
    7.1120  -18.3770    4.6120 C   0  0  0  0  0  0  0  0  0  0  0  0
    6.3810  -18.9130    3.5480 C   0  0  0  0  0  0  0  0  0  0  0  0
    5.2200  -19.6290    3.6480 O   0  0  0  0  0  0  0  0  0  0  0  0
    3.9930  -18.9320    3.8850 C   0  0  0  0  0  0  0  0  0  0  0  0
    2.8750  -19.8160    4.3900 C   0  0  0  0  0  0  0  0  0  0  0  0
    3.1380  -20.9670    5.1470 C   0  0  0  0  0  0  0  0  0  0  0  0
    2.0960  -21.7930    5.5700 C   0  0  0  0  0  0  0  0  0  0  0  0
    0.7800  -21.4870    5.2320 C   0  0  0  0  0  0  0  0  0  0  0  0
    0.5050  -20.3550    4.4670 C   0  0  0  0  0  0  0  0  0  0  0  0
    1.5460  -19.5280    4.0420 C   0  0  0  0  0  0  0  0  0  0  0  0
    6.8470  -18.7560    2.2450 C   0  0  0  0  0  0  0  0  0  0  0  0
    8.0260  -18.0580    1.9630 C   0  0  0  0  0  0  0  0  0  0  0  0
    8.7430  -17.5120    3.0400 C   0  0  0  0  0  0  0  0  0  0  0  0
    9.9080  -16.7560    3.0860 N   0  0  0  0  0  0  0  0  0  0  0  0
   10.6140  -16.2890    1.8900 C   0  0  0  0  0  0  0  0  0  0  0  0
   10.1170  -14.9360    1.4210 C   0  0  0  0  0  0  0  0  0  0  0  0
    9.2990  -14.1640    2.2580 C   0  0  0  0  0  0  0  0  0  0  0  0
    8.8450  -12.9090    1.8550 C   0  0  0  0  0  0  0  0  0  0  0  0
    9.2040  -12.4000    0.6080 C   0  0  0  0  0  0  0  0  0  0  0  0
   10.0260  -13.1420   -0.2510 C   0  0  0  0  0  0  0  0  0  0  0  0
   10.4040  -12.6110   -1.5690 C   0  0  0  0  0  0  0  0  0  0  0  0
   11.5120  -11.9140   -1.6910 N   0  0  0  0  0  0  0  0  0  0  0  0
    9.6270  -12.8440   -2.6030 N   0  0  0  0  0  0  0  0  0  0  0  0
   10.4810  -14.4050    0.1690 C   0  0  0  0  0  0  0  0  0  0  0  0
   14.7760  -13.0220    4.2670 C   0  0  0  0  0  0  0  0  0  0  0  0
   15.5390  -12.5520    3.1890 C   0  0  0  0  0  0  0  0  0  0  0  0
   16.7781  -10.7093    2.3498 H   0  0  0  0  0  0  0  0  0  0  0  0
   17.7556  -11.0120    0.8735 H   0  0  0  0  0  0  0  0  0  0  0  0
   16.5042   -9.7234    0.8735 H   0  0  0  0  0  0  0  0  0  0  0  0
   13.9647  -10.5644    0.3233 H   0  0  0  0  0  0  0  0  0  0  0  0
   15.3054  -10.3767   -0.8573 H   0  0  0  0  0  0  0  0  0  0  0  0
   14.3115  -11.8730   -0.8573 H   0  0  0  0  0  0  0  0  0  0  0  0
   16.9100  -13.5362    0.7824 H   0  0  0  0  0  0  0  0  0  0  0  0
   15.7536  -13.4123   -0.5865 H   0  0  0  0  0  0  0  0  0  0  0  0
   17.2543  -12.4252   -0.5865 H   0  0  0  0  0  0  0  0  0  0  0  0
   13.0415  -12.1400    0.9139 H   0  0  0  0  0  0  0  0  0  0  0  0
   11.6896  -12.9650    2.8306 H   0  0  0  0  0  0  0  0  0  0  0  0
   13.2277  -14.3023    5.9695 H   0  0  0  0  0  0  0  0  0  0  0  0
   12.1873  -12.8253    5.8706 H   0  0  0  0  0  0  0  0  0  0  0  0
   10.5850  -14.0330    4.7330 H   0  0  0  0  0  0  0  0  0  0  0  0
    9.2197  -16.9989    6.2852 H   0  0  0  0  0  0  0  0  0  0  0  0
    6.7571  -18.5020    5.6456 H   0  0  0  0  0  0  0  0  0  0  0  0
    4.1791  -18.1473    4.6331 H   0  0  0  0  0  0  0  0  0  0  0  0
    3.6654  -18.5234    2.9177 H   0  0  0  0  0  0  0  0  0  0  0  0
    4.1755  -21.2210    5.4097 H   0  0  0  0  0  0  0  0  0  0  0  0
    2.3144  -22.6876    6.1716 H   0  0  0  0  0  0  0  0  0  0  0  0
   -0.0408  -22.1376    5.5682 H   0  0  0  0  0  0  0  0  0  0  0  0
   -0.5337  -20.1130    4.1978 H   0  0  0  0  0  0  0  0  0  0  0  0
    1.3229  -18.6425    3.4288 H   0  0  0  0  0  0  0  0  0  0  0  0
    6.2723  -19.1928    1.4150 H   0  0  0  0  0  0  0  0  0  0  0  0
    8.3809  -17.9403    0.9285 H   0  0  0  0  0  0  0  0  0  0  0  0
   11.6869  -16.2116    2.1200 H   0  0  0  0  0  0  0  0  0  0  0  0
   10.4276  -17.0142    1.0842 H   0  0  0  0  0  0  0  0  0  0  0  0
    9.0116  -14.5537    3.2457 H   0  0  0  0  0  0  0  0  0  0  0  0
    8.2012  -12.3184    2.5234 H   0  0  0  0  0  0  0  0  0  0  0  0
    8.8399  -11.4099    0.2963 H   0  0  0  0  0  0  0  0  0  0  0  0
   12.0810  -11.7190   -0.8740 H   0  0  0  0  0  0  0  0  0  0  0  0
   11.8200  -11.5290   -2.5740 H   0  0  0  0  0  0  0  0  0  0  0  0
    8.7880  -13.4060   -2.4890 H   0  0  0  0  0  0  0  0  0  0  0  0
    9.8370  -12.5050   -3.5320 H   0  0  0  0  0  0  0  0  0  0  0  0
   11.1348  -14.9899   -0.4946 H   0  0  0  0  0  0  0  0  0  0  0  0
   15.2730  -13.2624    5.2184 H   0  0  0  0  0  0  0  0  0  0  0  0
   16.6263  -12.4316    3.3046 H   0  0  0  0  0  0  0  0  0  0  0  0
  1  2  1  0
  2  3  1  0
  2  4  1  0
  2  5  1  0
  5  6  2  0
  6  7  1  0
  7  8  2  0
  8  9  1  0
  9 10  1  0
 10 11  1  0
 11 12  2  0
 11 13  1  0
 13 14  2  0
 14 15  1  0
 15 16  2  0
 16 17  1  0
 17 18  1  0
 18 19  1  0
 19 20  1  0
 20 21  2  0
 21 22  1  0
 22 23  2  0
 23 24  1  0
 24 25  2  0
 17 26  2  0
 26 27  1  0
 27 28  2  0
 28 29  1  0
 29 30  1  0
 30 31  1  0
 31 32  2  0
 32 33  1  0
 33 34  2  0
 34 35  1  0
 35 36  1  0
 36 37  1  0
 36 38  2  0
 35 39  2  0
  8 40  1  0
 40 41  2  0
 41  5  1  0
 29 13  1  0
 39 31  1  0
 28 15  1  0
 25 20  1  0
  1 42  1  0
  1 43  1  0
  1 44  1  0
  3 45  1  0
  3 46  1  0
  3 47  1  0
  4 48  1  0
  4 49  1  0
  4 50  1  0
  6 51  1  0
  7 52  1  0
  9 53  1  0
  9 54  1  0
 10 55  1  0
 14 56  1  0
 16 57  1  0
 19 58  1  0
 19 59  1  0
 21 60  1  0
 22 61  1  0
 23 62  1  0
 24 63  1  0
 25 64  1  0
 26 65  1  0
 27 66  1  0
 30 67  1  0
 30 68  1  0
 32 69  1  0
 33 70  1  0
 34 71  1  0
 37 72  1  0
 37 73  1  0
 38 74  1  0
 38 75  1  0
 39 76  1  0
 40 77  1  0
 41 78  1  0
M  CHG  2   2   1  38   1
M  END
>  <meeko>  (1) 
{"is_sidechain": [false], "free_energy": -8.117, "intermolecular_energy": -12.863, "internal_energy": -2.493}

$$$$
1lpg_ligand
     RDKit          3D

 78 82  0  0  0  0  0  0  0  0999 V2000
   14.1170  -11.5780    0.2220 C   0  0  0  0  0  0  0  0  0  0  0  0
   15.0570  -12.3590    1.1360 N   0  0  0  0  0  0  0  0  0  0  0  0
   15.7840  -13.4570    0.3620 C   0  0  0  0  0  0  0  0  0  0  0  0
   16.1080  -11.3880    1.6660 C   0  0  0  0  0  0  0  0  0  0  0  0
   14.2410  -13.0000    2.2470 C   0  0  0  0  0  0  0  0  0  0  0  0
   13.1550  -12.3000    2.8000 C   0  0  0  0  0  0  0  0  0  0  0  0
   12.3730  -12.8600    3.8170 C   0  0  0  0  0  0  0  0  0  0  0  0
   12.6520  -14.1400    4.3060 C   0  0  0  0  0  0  0  0  0  0  0  0
   11.8190  -14.7540    5.4050 C   0  0  0  0  0  0  0  0  0  0  0  0
   10.6700  -15.4410    4.8660 N   0  0  0  0  0  0  0  0  0  0  0  0
   10.4000  -16.7620    5.1520 C   0  0  0  0  0  0  0  0  0  0  0  0
   11.1480  -17.4180    5.8710 O   0  0  0  0  0  0  0  0  0  0  0  0
    9.1700  -17.2870    4.5690 C   0  0  0  0  0  0  0  0  0  0  0  0
    7.8950  -17.3390    5.1180 C   0  0  0  0  0  0  0  0  0  0  0  0
    7.0230  -18.0050    4.2220 C   0  0  0  0  0  0  0  0  0  0  0  0
    5.6570  -18.3590    4.2840 C   0  0  0  0  0  0  0  0  0  0  0  0
    5.0760  -19.0640    3.2260 C   0  0  0  0  0  0  0  0  0  0  0  0
    3.7780  -19.4880    3.1560 O   0  0  0  0  0  0  0  0  0  0  0  0
    3.4670  -20.6450    2.3730 C   0  0  0  0  0  0  0  0  0  0  0  0
    2.3880  -20.4130    1.3400 C   0  0  0  0  0  0  0  0  0  0  0  0
    1.0500  -20.7480    1.5930 C   0  0  0  0  0  0  0  0  0  0  0  0
    0.0740  -20.5640    0.6120 C   0  0  0  0  0  0  0  0  0  0  0  0
    0.4250  -20.0550   -0.6360 C   0  0  0  0  0  0  0  0  0  0  0  0
    1.7530  -19.7330   -0.9070 C   0  0  0  0  0  0  0  0  0  0  0  0
    2.7310  -19.9160    0.0730 C   0  0  0  0  0  0  0  0  0  0  0  0
    5.8550  -19.4180    2.1260 C   0  0  0  0  0  0  0  0  0  0  0  0
    7.2070  -19.0710    2.0390 C   0  0  0  0  0  0  0  0  0  0  0  0
    7.7740  -18.3500    3.1020 C   0  0  0  0  0  0  0  0  0  0  0  0
    9.0530  -17.8440    3.2970 N   0  0  0  0  0  0  0  0  0  0  0  0
   10.1120  -17.9180    2.2880 C   0  0  0  0  0  0  0  0  0  0  0  0
   10.4120  -16.5670    1.6690 C   0  0  0  0  0  0  0  0  0  0  0  0
   11.6170  -16.3670    0.9820 C   0  0  0  0  0  0  0  0  0  0  0  0
   11.9060  -15.1380    0.3890 C   0  0  0  0  0  0  0  0  0  0  0  0
   10.9940  -14.0870    0.4700 C   0  0  0  0  0  0  0  0  0  0  0  0
    9.7770  -14.2560    1.1440 C   0  0  0  0  0  0  0  0  0  0  0  0
    8.8130  -13.1490    1.2360 C   0  0  0  0  0  0  0  0  0  0  0  0
    8.0440  -12.8750    0.2060 N   0  0  0  0  0  0  0  0  0  0  0  0
    8.7370  -12.4530    2.3490 N   0  0  0  0  0  0  0  0  0  0  0  0
    9.4950  -15.5010    1.7340 C   0  0  0  0  0  0  0  0  0  0  0  0
   13.7420  -14.8350    3.7700 C   0  0  0  0  0  0  0  0  0  0  0  0
   14.5260  -14.2750    2.7510 C   0  0  0  0  0  0  0  0  0  0  0  0
   13.4134  -10.9934    0.8329 H   0  0  0  0  0  0  0  0  0  0  0  0
   14.7040  -10.8980   -0.4129 H   0  0  0  0  0  0  0  0  0  0  0  0
   13.5561  -12.2796   -0.4129 H   0  0  0  0  0  0  0  0  0  0  0  0
   16.2486  -14.1587    1.0703 H   0  0  0  0  0  0  0  0  0  0  0  0
   15.0646  -13.9973   -0.2708 H   0  0  0  0  0  0  0  0  0  0  0  0
   16.5623  -13.0056   -0.2708 H   0  0  0  0  0  0  0  0  0  0  0  0
   16.0960  -11.3991    2.7659 H   0  0  0  0  0  0  0  0  0  0  0  0
   17.1023  -11.6921    1.3071 H   0  0  0  0  0  0  0  0  0  0  0  0
   15.8834  -10.3728    1.3071 H   0  0  0  0  0  0  0  0  0  0  0  0
   12.9151  -11.2935    2.4267 H   0  0  0  0  0  0  0  0  0  0  0  0
   11.5316  -12.2881    4.2352 H   0  0  0  0  0  0  0  0  0  0  0  0
   12.4364  -15.4718    5.9650 H   0  0  0  0  0  0  0  0  0  0  0  0
   11.4655  -13.9488    6.0659 H   0  0  0  0  0  0  0  0  0  0  0  0
    9.9830  -14.8900    4.3770 H   0  0  0  0  0  0  0  0  0  0  0  0
    7.6072  -16.9270    6.0965 H   0  0  0  0  0  0  0  0  0  0  0  0
    5.0533  -18.0812    5.1606 H   0  0  0  0  0  0  0  0  0  0  0  0
    4.3811  -20.9672    1.8528 H   0  0  0  0  0  0  0  0  0  0  0  0
    3.0855  -21.4078    3.0677 H   0  0  0  0  0  0  0  0  0  0  0  0
    0.7670  -21.1594    2.5731 H   0  0  0  0  0  0  0  0  0  0  0  0
   -0.9740  -20.8214    0.8250 H   0  0  0  0  0  0  0  0  0  0  0  0
   -0.3456  -19.9074   -1.4069 H   0  0  0  0  0  0  0  0  0  0  0  0
    2.0315  -19.3343   -1.8936 H   0  0  0  0  0  0  0  0  0  0  0  0
    3.7793  -19.6685   -0.1500 H   0  0  0  0  0  0  0  0  0  0  0  0
    5.3941  -19.9856    1.3041 H   0  0  0  0  0  0  0  0  0  0  0  0
    7.8088  -19.3548    1.1630 H   0  0  0  0  0  0  0  0  0  0  0  0
   11.0273  -18.3005    2.7632 H   0  0  0  0  0  0  0  0  0  0  0  0
    9.7665  -18.5866    1.4858 H   0  0  0  0  0  0  0  0  0  0  0  0
   12.3439  -17.1894    0.9095 H   0  0  0  0  0  0  0  0  0  0  0  0
   12.8575  -14.9976   -0.1448 H   0  0  0  0  0  0  0  0  0  0  0  0
   11.2308  -13.1199    0.0024 H   0  0  0  0  0  0  0  0  0  0  0  0
    8.1410  -13.4040   -0.6540 H   0  0  0  0  0  0  0  0  0  0  0  0
    7.3640  -12.1270    0.2170 H   0  0  0  0  0  0  0  0  0  0  0  0
    9.3250  -12.6990    3.1410 H   0  0  0  0  0  0  0  0  0  0  0  0
    8.0930  -11.6830    2.4690 H   0  0  0  0  0  0  0  0  0  0  0  0
    8.5381  -15.6448    2.2571 H   0  0  0  0  0  0  0  0  0  0  0  0
   13.9876  -15.8361    4.1540 H   0  0  0  0  0  0  0  0  0  0  0  0
   15.3745  -14.8438    2.3430 H   0  0  0  0  0  0  0  0  0  0  0  0
  1  2  1  0
  2  3  1  0
  2  4  1  0
  2  5  1  0
  5  6  2  0
  6  7  1  0
  7  8  2  0
  8  9  1  0
  9 10  1  0
 10 11  1  0
 11 12  2  0
 11 13  1  0
 13 14  2  0
 14 15  1  0
 15 16  2  0
 16 17  1  0
 17 18  1  0
 18 19  1  0
 19 20  1  0
 20 21  2  0
 21 22  1  0
 22 23  2  0
 23 24  1  0
 24 25  2  0
 17 26  2  0
 26 27  1  0
 27 28  2  0
 28 29  1  0
 29 30  1  0
 30 31  1  0
 31 32  2  0
 32 33  1  0
 33 34  2  0
 34 35  1  0
 35 36  1  0
 36 37  1  0
 36 38  2  0
 35 39  2  0
  8 40  1  0
 40 41  2  0
 41  5  1  0
 29 13  1  0
 39 31  1  0
 28 15  1  0
 25 20  1  0
  1 42  1  0
  1 43  1  0
  1 44  1  0
  3 45  1  0
  3 46  1  0
  3 47  1  0
  4 48  1  0
  4 49  1  0
  4 50  1  0
  6 51  1  0
  7 52  1  0
  9 53  1  0
  9 54  1  0
 10 55  1  0
 14 56  1  0
 16 57  1  0
 19 58  1  0
 19 59  1  0
 21 60  1  0
 22 61  1  0
 23 62  1  0
 24 63  1  0
 25 64  1  0
 26 65  1  0
 27 66  1  0
 30 67  1  0
 30 68  1  0
 32 69  1  0
 33 70  1  0
 34 71  1  0
 37 72  1  0
 37 73  1  0
 38 74  1  0
 38 75  1  0
 39 76  1  0
 40 77  1  0
 41 78  1  0
M  CHG  2   2   1  38   1
M  END
>  <meeko>  (2) 
{"is_sidechain": [false], "free_energy": -7.666, "intermolecular_energy": -11.53, "internal_energy": -3.11}

$$$$
1lpg_ligand
     RDKit          3D

 78 82  0  0  0  0  0  0  0  0999 V2000
   15.7480  -13.3990    0.3760 C   0  0  0  0  0  0  0  0  0  0  0  0
   15.0720  -12.2750    1.1550 N   0  0  0  0  0  0  0  0  0  0  0  0
   16.1080  -11.3590    1.8020 C   0  0  0  0  0  0  0  0  0  0  0  0
   14.2640  -11.4400    0.1660 C   0  0  0  0  0  0  0  0  0  0  0  0
   14.2070  -12.8850    2.2460 C   0  0  0  0  0  0  0  0  0  0  0  0
   14.5430  -14.1430    2.7730 C   0  0  0  0  0  0  0  0  0  0  0  0
   13.7780  -14.7340    3.7860 C   0  0  0  0  0  0  0  0  0  0  0  0
   12.6580  -14.0790    4.3050 C   0  0  0  0  0  0  0  0  0  0  0  0
   11.8230  -14.7050    5.3950 C   0  0  0  0  0  0  0  0  0  0  0  0
   10.7140  -15.4470    4.8430 N   0  0  0  0  0  0  0  0  0  0  0  0
   10.5240  -16.7870    5.1000 C   0  0  0  0  0  0  0  0  0  0  0  0
   11.3120  -17.4140    5.8040 O   0  0  0  0  0  0  0  0  0  0  0  0
    9.3260  -17.3710    4.5090 C   0  0  0  0  0  0  0  0  0  0  0  0
    8.0460  -17.4680    5.0400 C   0  0  0  0  0  0  0  0  0  0  0  0
    7.2150  -18.1830    4.1410 C   0  0  0  0  0  0  0  0  0  0  0  0
    5.8650  -18.5920    4.1900 C   0  0  0  0  0  0  0  0  0  0  0  0
    5.3290  -19.3360    3.1340 C   0  0  0  0  0  0  0  0  0  0  0  0
    4.0510  -19.8140    3.0520 O   0  0  0  0  0  0  0  0  0  0  0  0
    2.9960  -19.0890    3.6930 C   0  0  0  0  0  0  0  0  0  0  0  0
    1.9450  -19.9710    4.3290 C   0  0  0  0  0  0  0  0  0  0  0  0
    2.2840  -21.1890    4.9370 C   0  0  0  0  0  0  0  0  0  0  0  0
    1.2960  -22.0090    5.4830 C   0  0  0  0  0  0  0  0  0  0  0  0
   -0.0430  -21.6290    5.4180 C   0  0  0  0  0  0  0  0  0  0  0  0
   -0.3950  -20.4300    4.8030 C   0  0  0  0  0  0  0  0  0  0  0  0
    0.5920  -19.6080    4.2550 C   0  0  0  0  0  0  0  0  0  0  0  0
    6.1370  -19.6720    2.0510 C   0  0  0  0  0  0  0  0  0  0  0  0
    7.4760  -19.2710    1.9770 C   0  0  0  0  0  0  0  0  0  0  0  0
    7.9960  -18.5120    3.0380 C   0  0  0  0  0  0  0  0  0  0  0  0
    9.2500  -17.9500    3.2430 N   0  0  0  0  0  0  0  0  0  0  0  0
   10.3260  -17.9950    2.2500 C   0  0  0  0  0  0  0  0  0  0  0  0
   10.5990  -16.6360    1.6370 C   0  0  0  0  0  0  0  0  0  0  0  0
   11.7820  -16.4200    0.9170 C   0  0  0  0  0  0  0  0  0  0  0  0
   12.0460  -15.1840    0.3280 C   0  0  0  0  0  0  0  0  0  0  0  0
   11.1290  -14.1410    0.4460 C   0  0  0  0  0  0  0  0  0  0  0  0
    9.9320  -14.3250    1.1530 C   0  0  0  0  0  0  0  0  0  0  0  0
    8.9640  -13.2260    1.2830 C   0  0  0  0  0  0  0  0  0  0  0  0
    8.2590  -12.8580    0.2360 N   0  0  0  0  0  0  0  0  0  0  0  0
    8.8180  -12.6320    2.4470 N   0  0  0  0  0  0  0  0  0  0  0  0
    9.6770  -15.5780    1.7380 C   0  0  0  0  0  0  0  0  0  0  0  0
   12.3090  -12.8310    3.7740 C   0  0  0  0  0  0  0  0  0  0  0  0
   13.0750  -12.2400    2.7590 C   0  0  0  0  0  0  0  0  0  0  0  0
   16.1834  -14.1230    1.0804 H   0  0  0  0  0  0  0  0  0  0  0  0
   15.0043  -13.9051   -0.2571 H   0  0  0  0  0  0  0  0  0  0  0  0
   16.5437  -12.9793   -0.2571 H   0  0  0  0  0  0  0  0  0  0  0  0
   16.0276  -11.4301    2.8967 H   0  0  0  0  0  0  0  0  0  0  0  0
   17.1164  -11.6663    1.4877 H   0  0  0  0  0  0  0  0  0  0  0  0
   15.9265  -10.3206    1.4877 H   0  0  0  0  0  0  0  0  0  0  0  0
   13.6024  -10.7563    0.7181 H   0  0  0  0  0  0  0  0  0  0  0  0
   14.9490  -10.8563   -0.4665 H   0  0  0  0  0  0  0  0  0  0  0  0
   13.6581  -12.1054   -0.4665 H   0  0  0  0  0  0  0  0  0  0  0  0
   15.4237  -14.6739    2.3825 H   0  0  0  0  0  0  0  0  0  0  0  0
   14.0611  -15.7225    4.1767 H   0  0  0  0  0  0  0  0  0  0  0  0
   12.4541  -15.3876    5.9830 H   0  0  0  0  0  0  0  0  0  0  0  0
   11.4223  -13.9020    6.0311 H   0  0  0  0  0  0  0  0  0  0  0  0
    9.9950  -14.9260    4.3680 H   0  0  0  0  0  0  0  0  0  0  0  0
    7.7267  -17.0542    6.0079 H   0  0  0  0  0  0  0  0  0  0  0  0
    5.2379  -18.3270    5.0540 H   0  0  0  0  0  0  0  0  0  0  0  0
    3.4373  -18.4558    4.4768 H   0  0  0  0  0  0  0  0  0  0  0  0
    2.4906  -18.5028    2.9114 H   0  0  0  0  0  0  0  0  0  0  0  0
    3.3380  -21.5003    4.9837 H   0  0  0  0  0  0  0  0  0  0  0  0
    1.5747  -22.9573    5.9657 H   0  0  0  0  0  0  0  0  0  0  0  0
   -0.8207  -22.2749    5.8517 H   0  0  0  0  0  0  0  0  0  0  0  0
   -1.4519  -20.1301    4.7488 H   0  0  0  0  0  0  0  0  0  0  0  0
    0.3060  -18.6677    3.7610 H   0  0  0  0  0  0  0  0  0  0  0  0
    5.7113  -20.2690    1.2310 H   0  0  0  0  0  0  0  0  0  0  0  0
    8.1019  -19.5421    1.1140 H   0  0  0  0  0  0  0  0  0  0  0  0
   11.2439  -18.3536    2.7388 H   0  0  0  0  0  0  0  0  0  0  0  0
   10.0108  -18.6718    1.4422 H   0  0  0  0  0  0  0  0  0  0  0  0
   12.5120  -17.2365    0.8152 H   0  0  0  0  0  0  0  0  0  0  0  0
   12.9808  -15.0316   -0.2315 H   0  0  0  0  0  0  0  0  0  0  0  0
   11.3456  -13.1676   -0.0183 H   0  0  0  0  0  0  0  0  0  0  0  0
    8.4100  -13.3090   -0.6600 H   0  0  0  0  0  0  0  0  0  0  0  0
    7.5790  -12.1110    0.2710 H   0  0  0  0  0  0  0  0  0  0  0  0
    9.3560  -12.9490    3.2480 H   0  0  0  0  0  0  0  0  0  0  0  0
    8.1670  -11.8720    2.5940 H   0  0  0  0  0  0  0  0  0  0  0  0
    8.7364  -15.7344    2.2864 H   0  0  0  0  0  0  0  0  0  0  0  0
   11.4215  -12.3070    4.1585 H   0  0  0  0  0  0  0  0  0  0  0  0
   12.7829  -11.2571    2.3607 H   0  0  0  0  0  0  0  0  0  0  0  0
  1  2  1  0
  2  3  1  0
  2  4  1  0
  2  5  1  0
  5  6  2  0
  6  7  1  0
  7  8  2  0
  8  9  1  0
  9 10  1  0
 10 11  1  0
 11 12  2  0
 11 13  1  0
 13 14  2  0
 14 15  1  0
 15 16  2  0
 16 17  1  0
 17 18  1  0
 18 19  1  0
 19 20  1  0
 20 21  2  0
 21 22  1  0
 22 23  2  0
 23 24  1  0
 24 25  2  0
 17 26  2  0
 26 27  1  0
 27 28  2  0
 28 29  1  0
 29 30  1  0
 30 31  1  0
 31 32  2  0
 32 33  1  0
 33 34  2  0
 34 35  1  0
 35 36  1  0
 36 37  1  0
 36 38  2  0
 35 39  2  0
  8 40  1  0
 40 41  2  0
 41  5  1  0
 29 13  1  0
 39 31  1  0
 28 15  1  0
 25 20  1  0
  1 42  1  0
  1 43  1  0
  1 44  1  0
  3 45  1  0
  3 46  1  0
  3 47  1  0
  4 48  1  0
  4 49  1  0
  4 50  1  0
  6 51  1  0
  7 52  1  0
  9 53  1  0
  9 54  1  0
 10 55  1  0
 14 56  1  0
 16 57  1  0
 19 58  1  0
 19 59  1  0
 21 60  1  0
 22 61  1  0
 23 62  1  0
 24 63  1  0
 25 64  1  0
 26 65  1  0
 27 66  1  0
 30 67  1  0
 30 68  1  0
 32 69  1  0
 33 70  1  0
 34 71  1  0
 37 72  1  0
 37 73  1  0
 38 74  1  0
 38 75  1  0
 39 76  1  0
 40 77  1  0
 41 78  1  0
M  CHG  2   2   1  38   1
M  END
>  <meeko>  (3) 
{"is_sidechain": [false], "free_energy": -7.651, "intermolecular_energy": -11.603, "internal_energy": -3.013}

$$$$
1lpg_ligand
     RDKit          3D

 78 82  0  0  0  0  0  0  0  0999 V2000
   17.4940  -10.5210    1.7660 C   0  0  0  0  0  0  0  0  0  0  0  0
   17.0520  -11.9410    1.4240 N   0  0  0  0  0  0  0  0  0  0  0  0
   17.6910  -12.4120    0.1190 C   0  0  0  0  0  0  0  0  0  0  0  0
   17.5360  -12.8630    2.5390 C   0  0  0  0  0  0  0  0  0  0  0  0
   15.5410  -11.9610    1.2650 C   0  0  0  0  0  0  0  0  0  0  0  0
   14.9800  -11.9660   -0.0230 C   0  0  0  0  0  0  0  0  0  0  0  0
   13.5930  -11.9960   -0.2120 C   0  0  0  0  0  0  0  0  0  0  0  0
   12.7270  -12.0270    0.8850 C   0  0  0  0  0  0  0  0  0  0  0  0
   11.2300  -12.0560    0.6970 C   0  0  0  0  0  0  0  0  0  0  0  0
   10.7020  -13.3810    0.9180 N   0  0  0  0  0  0  0  0  0  0  0  0
   10.1510  -13.7620    2.1220 C   0  0  0  0  0  0  0  0  0  0  0  0
   10.1050  -12.9830    3.0710 O   0  0  0  0  0  0  0  0  0  0  0  0
    9.6150  -15.1180    2.1610 C   0  0  0  0  0  0  0  0  0  0  0  0
    8.3560  -15.5720    1.7850 C   0  0  0  0  0  0  0  0  0  0  0  0
    8.2520  -16.9570    2.0680 C   0  0  0  0  0  0  0  0  0  0  0  0
    7.2080  -17.8970    1.9250 C   0  0  0  0  0  0  0  0  0  0  0  0
    7.4050  -19.2180    2.3400 C   0  0  0  0  0  0  0  0  0  0  0  0
    6.4840  -20.2270    2.2800 O   0  0  0  0  0  0  0  0  0  0  0  0
    6.2940  -20.9200    1.0420 C   0  0  0  0  0  0  0  0  0  0  0  0
    5.1380  -20.3970    0.2200 C   0  0  0  0  0  0  0  0  0  0  0  0
    5.3250  -19.9310   -1.0890 C   0  0  0  0  0  0  0  0  0  0  0  0
    4.2530  -19.4140   -1.8190 C   0  0  0  0  0  0  0  0  0  0  0  0
    2.9860  -19.3440   -1.2450 C   0  0  0  0  0  0  0  0  0  0  0  0
    2.7890  -19.7880    0.0610 C   0  0  0  0  0  0  0  0  0  0  0  0
    3.8590  -20.3060    0.7920 C   0  0  0  0  0  0  0  0  0  0  0  0
    8.6260  -19.5880    2.8990 C   0  0  0  0  0  0  0  0  0  0  0  0
    9.6770  -18.6760    3.0440 C   0  0  0  0  0  0  0  0  0  0  0  0
    9.4700  -17.3560    2.6100 C   0  0  0  0  0  0  0  0  0  0  0  0
   10.3080  -16.2480    2.5900 N   0  0  0  0  0  0  0  0  0  0  0  0
   11.7170  -16.2950    2.9900 C   0  0  0  0  0  0  0  0  0  0  0  0
   12.6460  -16.4550    1.8020 C   0  0  0  0  0  0  0  0  0  0  0  0
   13.6740  -15.5260    1.5910 C   0  0  0  0  0  0  0  0  0  0  0  0
   14.5520  -15.6640    0.5160 C   0  0  0  0  0  0  0  0  0  0  0  0
   14.4200  -16.7360   -0.3650 C   0  0  0  0  0  0  0  0  0  0  0  0
   13.4070  -17.6870   -0.1780 C   0  0  0  0  0  0  0  0  0  0  0  0
   13.2620  -18.8170   -1.1080 C   0  0  0  0  0  0  0  0  0  0  0  0
   13.1660  -20.0380   -0.6310 N   0  0  0  0  0  0  0  0  0  0  0  0
   13.2280  -18.5850   -2.4020 N   0  0  0  0  0  0  0  0  0  0  0  0
   12.5310  -17.5390    0.9120 C   0  0  0  0  0  0  0  0  0  0  0  0
   13.2800  -12.0070    2.1710 C   0  0  0  0  0  0  0  0  0  0  0  0
   14.6690  -11.9770    2.3600 C   0  0  0  0  0  0  0  0  0  0  0  0
   17.5311  -10.4017    2.8589 H   0  0  0  0  0  0  0  0  0  0  0  0
   18.4923  -10.3358    1.3428 H   0  0  0  0  0  0  0  0  0  0  0  0
   16.7772   -9.8019    1.3428 H   0  0  0  0  0  0  0  0  0  0  0  0
   18.5576  -13.0508    0.3447 H   0  0  0  0  0  0  0  0  0  0  0  0
   16.9549  -12.9852   -0.4638 H   0  0  0  0  0  0  0  0  0  0  0  0
   18.0207  -11.5392   -0.4638 H   0  0  0  0  0  0  0  0  0  0  0  0
   17.3000  -12.4135    3.5148 H   0  0  0  0  0  0  0  0  0  0  0  0
   17.0332  -13.8376    2.4530 H   0  0  0  0  0  0  0  0  0  0  0  0
   18.6237  -13.0027    2.4530 H   0  0  0  0  0  0  0  0  0  0  0  0
   15.6434  -11.9460   -0.9002 H   0  0  0  0  0  0  0  0  0  0  0  0
   13.1813  -11.9952   -1.2321 H   0  0  0  0  0  0  0  0  0  0  0  0
   10.7651  -11.3607    1.4114 H   0  0  0  0  0  0  0  0  0  0  0  0
   11.0029  -11.7585   -0.3374 H   0  0  0  0  0  0  0  0  0  0  0  0
   10.6190  -13.9900    0.1200 H   0  0  0  0  0  0  0  0  0  0  0  0
    7.5642  -14.9531    1.3377 H   0  0  0  0  0  0  0  0  0  0  0  0
    6.2450  -17.5919    1.4896 H   0  0  0  0  0  0  0  0  0  0  0  0
    7.2139  -20.8244    0.4465 H   0  0  0  0  0  0  0  0  0  0  0  0
    6.0610  -21.9653    1.2930 H   0  0  0  0  0  0  0  0  0  0  0  0
    6.3252  -19.9731   -1.5449 H   0  0  0  0  0  0  0  0  0  0  0  0
    4.4094  -19.0614   -2.8492 H   0  0  0  0  0  0  0  0  0  0  0  0
    2.1417  -18.9387   -1.8220 H   0  0  0  0  0  0  0  0  0  0  0  0
    1.7893  -19.7302    0.5162 H   0  0  0  0  0  0  0  0  0  0  0  0
    3.6989  -20.6461    1.8258 H   0  0  0  0  0  0  0  0  0  0  0  0
    8.7678  -20.6256    3.2356 H   0  0  0  0  0  0  0  0  0  0  0  0
   10.6368  -18.9834    3.4847 H   0  0  0  0  0  0  0  0  0  0  0  0
   11.9681  -15.3601    3.5124 H   0  0  0  0  0  0  0  0  0  0  0  0
   11.8528  -17.1688    3.6443 H   0  0  0  0  0  0  0  0  0  0  0  0
   13.7898  -14.6777    2.2816 H   0  0  0  0  0  0  0  0  0  0  0  0
   15.3515  -14.9241    0.3629 H   0  0  0  0  0  0  0  0  0  0  0  0
   15.1147  -16.8364   -1.2119 H   0  0  0  0  0  0  0  0  0  0  0  0
   13.2250  -20.1970    0.3690 H   0  0  0  0  0  0  0  0  0  0  0  0
   13.0620  -20.8490   -1.2250 H   0  0  0  0  0  0  0  0  0  0  0  0
   13.2800  -17.6300   -2.7460 H   0  0  0  0  0  0  0  0  0  0  0  0
   13.1290  -19.3220   -3.0860 H   0  0  0  0  0  0  0  0  0  0  0  0
   11.7395  -18.2859    1.0723 H   0  0  0  0  0  0  0  0  0  0  0  0
   12.6144  -12.0149    3.0468 H   0  0  0  0  0  0  0  0  0  0  0  0
   15.0784  -11.9659    3.3809 H   0  0  0  0  0  0  0  0  0  0  0  0
  1  2  1  0
  2  3  1  0
  2  4  1  0
  2  5  1  0
  5  6  2  0
  6  7  1  0
  7  8  2  0
  8  9  1  0
  9 10  1  0
 10 11  1  0
 11 12  2  0
 11 13  1  0
 13 14  2  0
 14 15  1  0
 15 16  2  0
 16 17  1  0
 17 18  1  0
 18 19  1  0
 19 20  1  0
 20 21  2  0
 21 22  1  0
 22 23  2  0
 23 24  1  0
 24 25  2  0
 17 26  2  0
 26 27  1  0
 27 28  2  0
 28 29  1  0
 29 30  1  0
 30 31  1  0
 31 32  2  0
 32 33  1  0
 33 34  2  0
 34 35  1  0
 35 36  1  0
 36 37  1  0
 36 38  2  0
 35 39  2  0
  8 40  1  0
 40 41  2  0
 41  5  1  0
 29 13  1  0
 39 31  1  0
 28 15  1  0
 25 20  1  0
  1 42  1  0
  1 43  1  0
  1 44  1  0
  3 45  1  0
  3 46  1  0
  3 47  1  0
  4 48  1  0
  4 49  1  0
  4 50  1  0
  6 51  1  0
  7 52  1  0
  9 53  1  0
  9 54  1  0
 10 55  1  0
 14 56  1  0
 16 57  1  0
 19 58  1  0
 19 59  1  0
 21 60  1  0
 22 61  1  0
 23 62  1  0
 24 63  1  0
 25 64  1  0
 26 65  1  0
 27 66  1  0
 30 67  1  0
 30 68  1  0
 32 69  1  0
 33 70  1  0
 34 71  1  0
 37 72  1  0
 37 73  1  0
 38 74  1  0
 38 75  1  0
 39 76  1  0
 40 77  1  0
 41 78  1  0
M  CHG  2   2   1  38   1
M  END
>  <meeko>  (4) 
{"is_sidechain": [false], "free_energy": -7.384, "intermolecular_energy": -11.222, "internal_energy": -2.971}

$$$$
1lpg_ligand
     RDKit          3D

 78 82  0  0  0  0  0  0  0  0999 V2000
   -0.5570  -20.2000   -2.7190 C   0  0  0  0  0  0  0  0  0  0  0  0
    0.6530  -21.0710   -2.3950 N   0  0  0  0  0  0  0  0  0  0  0  0
    0.2770  -22.5510   -2.4030 C   0  0  0  0  0  0  0  0  0  0  0  0
    1.6960  -20.8500   -3.4870 C   0  0  0  0  0  0  0  0  0  0  0  0
    1.1680  -20.7030   -1.0130 C   0  0  0  0  0  0  0  0  0  0  0  0
    2.2220  -19.7820   -0.8900 C   0  0  0  0  0  0  0  0  0  0  0  0
    2.7180  -19.4090    0.3650 C   0  0  0  0  0  0  0  0  0  0  0  0
    2.1670  -19.9430    1.5340 C   0  0  0  0  0  0  0  0  0  0  0  0
    2.6940  -19.5510    2.8930 C   0  0  0  0  0  0  0  0  0  0  0  0
    4.0100  -18.9680    2.7950 N   0  0  0  0  0  0  0  0  0  0  0  0
    4.9790  -19.1700    3.7540 C   0  0  0  0  0  0  0  0  0  0  0  0
    4.7480  -19.8490    4.7520 O   0  0  0  0  0  0  0  0  0  0  0  0
    6.2710  -18.5540    3.4760 C   0  0  0  0  0  0  0  0  0  0  0  0
    6.6320  -17.2140    3.5390 C   0  0  0  0  0  0  0  0  0  0  0  0
    7.9750  -17.0670    3.1090 C   0  0  0  0  0  0  0  0  0  0  0  0
    8.8200  -15.9480    2.9430 C   0  0  0  0  0  0  0  0  0  0  0  0
   10.1170  -16.1280    2.4530 C   0  0  0  0  0  0  0  0  0  0  0  0
   11.0370  -15.1430    2.2240 O   0  0  0  0  0  0  0  0  0  0  0  0
   11.8180  -15.1860    1.0250 C   0  0  0  0  0  0  0  0  0  0  0  0
   11.8020  -13.8950    0.2380 C   0  0  0  0  0  0  0  0  0  0  0  0
   10.7520  -13.5860   -0.6380 C   0  0  0  0  0  0  0  0  0  0  0  0
   10.7740  -12.4090   -1.3870 C   0  0  0  0  0  0  0  0  0  0  0  0
   11.8530  -11.5330   -1.2800 C   0  0  0  0  0  0  0  0  0  0  0  0
   12.9120  -11.8360   -0.4260 C   0  0  0  0  0  0  0  0  0  0  0  0
   12.8910  -13.0130    0.3240 C   0  0  0  0  0  0  0  0  0  0  0  0
   10.5560  -17.4090    2.1240 C   0  0  0  0  0  0  0  0  0  0  0  0
    9.7390  -18.5330    2.2870 C   0  0  0  0  0  0  0  0  0  0  0  0
    8.4440  -18.3390    2.7940 C   0  0  0  0  0  0  0  0  0  0  0  0
    7.4240  -19.2350    3.0920 N   0  0  0  0  0  0  0  0  0  0  0  0
    7.5730  -20.6880    2.9880 C   0  0  0  0  0  0  0  0  0  0  0  0
    6.6280  -21.2910    1.9670 C   0  0  0  0  0  0  0  0  0  0  0  0
    5.7530  -22.3170    2.3470 C   0  0  0  0  0  0  0  0  0  0  0  0
    4.8620  -22.8740    1.4290 C   0  0  0  0  0  0  0  0  0  0  0  0
    4.8280  -22.4110    0.1140 C   0  0  0  0  0  0  0  0  0  0  0  0
    5.6860  -21.3810   -0.2970 C   0  0  0  0  0  0  0  0  0  0  0  0
    5.6570  -20.8930   -1.6830 C   0  0  0  0  0  0  0  0  0  0  0  0
    5.8250  -19.6110   -1.9210 N   0  0  0  0  0  0  0  0  0  0  0  0
    5.4650  -21.7490   -2.6630 N   0  0  0  0  0  0  0  0  0  0  0  0
    6.5760  -20.8260    0.6390 C   0  0  0  0  0  0  0  0  0  0  0  0
    1.1280  -20.8730    1.4170 C   0  0  0  0  0  0  0  0  0  0  0  0
    0.6310  -21.2470    0.1600 C   0  0  0  0  0  0  0  0  0  0  0  0
   -1.0265  -19.8620   -1.7834 H   0  0  0  0  0  0  0  0  0  0  0  0
   -0.2337  -19.3261   -3.3036 H   0  0  0  0  0  0  0  0  0  0  0  0
   -1.2831  -20.7839   -3.3036 H   0  0  0  0  0  0  0  0  0  0  0  0
    0.1854  -22.9116   -1.3678 H   0  0  0  0  0  0  0  0  0  0  0  0
   -0.6831  -22.6826   -2.9235 H   0  0  0  0  0  0  0  0  0  0  0  0
    1.0579  -23.1249   -2.9235 H   0  0  0  0  0  0  0  0  0  0  0  0
    2.6725  -20.6431   -3.0249 H   0  0  0  0  0  0  0  0  0  0  0  0
    1.7698  -21.7525   -4.1116 H   0  0  0  0  0  0  0  0  0  0  0  0
    1.3974  -19.9952   -4.1116 H   0  0  0  0  0  0  0  0  0  0  0  0
    2.6659  -19.3457   -1.7970 H   0  0  0  0  0  0  0  0  0  0  0  0
    3.5478  -18.6901    0.4320 H   0  0  0  0  0  0  0  0  0  0  0  0
    2.0098  -18.8179    3.3452 H   0  0  0  0  0  0  0  0  0  0  0  0
    2.7598  -20.4559    3.5149 H   0  0  0  0  0  0  0  0  0  0  0  0
    4.2560  -18.5130    1.9310 H   0  0  0  0  0  0  0  0  0  0  0  0
    5.9776  -16.3945    3.8709 H   0  0  0  0  0  0  0  0  0  0  0  0
    8.4599  -14.9403    3.1978 H   0  0  0  0  0  0  0  0  0  0  0  0
   12.8593  -15.4128    1.2976 H   0  0  0  0  0  0  0  0  0  0  0  0
   11.3728  -15.9586    0.3809 H   0  0  0  0  0  0  0  0  0  0  0  0
    9.9026  -14.2781   -0.7358 H   0  0  0  0  0  0  0  0  0  0  0  0
    9.9389  -12.1721   -2.0627 H   0  0  0  0  0  0  0  0  0  0  0  0
   11.8687  -10.6039   -1.8687 H   0  0  0  0  0  0  0  0  0  0  0  0
   13.7653  -11.1468   -0.3430 H   0  0  0  0  0  0  0  0  0  0  0  0
   13.7348  -13.2516    0.9881 H   0  0  0  0  0  0  0  0  0  0  0  0
   11.5728  -17.5400    1.7252 H   0  0  0  0  0  0  0  0  0  0  0  0
   10.1003  -19.5386    2.0258 H   0  0  0  0  0  0  0  0  0  0  0  0
    8.6072  -20.9174    2.6918 H   0  0  0  0  0  0  0  0  0  0  0  0
    7.3308  -21.1225    3.9691 H   0  0  0  0  0  0  0  0  0  0  0  0
    5.7686  -22.6882    3.3823 H   0  0  0  0  0  0  0  0  0  0  0  0
    4.1841  -23.6811    1.7436 H   0  0  0  0  0  0  0  0  0  0  0  0
    4.1243  -22.8562   -0.6047 H   0  0  0  0  0  0  0  0  0  0  0  0
    5.9410  -18.9630   -1.1480 H   0  0  0  0  0  0  0  0  0  0  0  0
    5.8170  -19.2230   -2.8540 H   0  0  0  0  0  0  0  0  0  0  0  0
    5.3610  -22.7380   -2.4570 H   0  0  0  0  0  0  0  0  0  0  0  0
    5.4360  -21.4700   -3.6340 H   0  0  0  0  0  0  0  0  0  0  0  0
    7.2460  -20.0112    0.3273 H   0  0  0  0  0  0  0  0  0  0  0  0
    0.6944  -21.3176    2.3249 H   0  0  0  0  0  0  0  0  0  0  0  0
   -0.1901  -21.9761    0.0949 H   0  0  0  0  0  0  0  0  0  0  0  0
  1  2  1  0
  2  3  1  0
  2  4  1  0
  2  5  1  0
  5  6  2  0
  6  7  1  0
  7  8  2  0
  8  9  1  0
  9 10  1  0
 10 11  1  0
 11 12  2  0
 11 13  1  0
 13 14  2  0
 14 15  1  0
 15 16  2  0
 16 17  1  0
 17 18  1  0
 18 19  1  0
 19 20  1  0
 20 21  2  0
 21 22  1  0
 22 23  2  0
 23 24  1  0
 24 25  2  0
 17 26  2  0
 26 27  1  0
 27 28  2  0
 28 29  1  0
 29 30  1  0
 30 31  1  0
 31 32  2  0
 32 33  1  0
 33 34  2  0
 34 35  1  0
 35 36  1  0
 36 37  1  0
 36 38  2  0
 35 39  2  0
  8 40  1  0
 40 41  2  0
 41  5  1  0
 29 13  1  0
 39 31  1  0
 28 15  1  0
 25 20  1  0
  1 42  1  0
  1 43  1  0
  1 44  1  0
  3 45  1  0
  3 46  1  0
  3 47  1  0
  4 48  1  0
  4 49  1  0
  4 50  1  0
  6 51  1  0
  7 52  1  0
  9 53  1  0
  9 54  1  0
 10 55  1  0
 14 56  1  0
 16 57  1  0
 19 58  1  0
 19 59  1  0
 21 60  1  0
 22 61  1  0
 23 62  1  0
 24 63  1  0
 25 64  1  0
 26 65  1  0
 27 66  1  0
 30 67  1  0
 30 68  1  0
 32 69  1  0
 33 70  1  0
 34 71  1  0
 37 72  1  0
 37 73  1  0
 38 74  1  0
 38 75  1  0
 39 76  1  0
 40 77  1  0
 41 78  1  0
M  CHG  2   2   1  38   1
M  END
>  <meeko>  (5) 
{"is_sidechain": [false], "free_energy": -7.257, "intermolecular_energy": -11.086, "internal_energy": -2.906}

$$$$
1lpg_ligand
     RDKit          3D

 78 82  0  0  0  0  0  0  0  0999 V2000
   17.3170  -12.4510   -0.5210 C   0  0  0  0  0  0  0  0  0  0  0  0
   16.4440  -12.1530    0.6950 N   0  0  0  0  0  0  0  0  0  0  0  0
   16.8170  -13.0550    1.8680 C   0  0  0  0  0  0  0  0  0  0  0  0
   16.7040  -10.7090    1.1160 C   0  0  0  0  0  0  0  0  0  0  0  0
   14.9900  -12.4010    0.3280 C   0  0  0  0  0  0  0  0  0  0  0  0
   14.4520  -13.6910    0.4660 C   0  0  0  0  0  0  0  0  0  0  0  0
   13.1140  -13.9580    0.1500 C   0  0  0  0  0  0  0  0  0  0  0  0
   12.2750  -12.9380   -0.3090 C   0  0  0  0  0  0  0  0  0  0  0  0
   10.8320  -13.2120   -0.6560 C   0  0  0  0  0  0  0  0  0  0  0  0
   10.3340  -14.3660    0.0530 N   0  0  0  0  0  0  0  0  0  0  0  0
    9.8100  -14.2800    1.3240 C   0  0  0  0  0  0  0  0  0  0  0  0
    9.7630  -13.2060    1.9170 O   0  0  0  0  0  0  0  0  0  0  0  0
    9.3030  -15.5320    1.8750 C   0  0  0  0  0  0  0  0  0  0  0  0
    7.9870  -15.9470    2.0360 C   0  0  0  0  0  0  0  0  0  0  0  0
    7.9660  -17.2070    2.6860 C   0  0  0  0  0  0  0  0  0  0  0  0
    6.9230  -18.0540    3.1190 C   0  0  0  0  0  0  0  0  0  0  0  0
    7.2310  -19.2470    3.7800 C   0  0  0  0  0  0  0  0  0  0  0  0
    6.3310  -20.1530    4.2700 O   0  0  0  0  0  0  0  0  0  0  0  0
    5.4010  -19.7340    5.2740 C   0  0  0  0  0  0  0  0  0  0  0  0
    3.9600  -20.0480    4.9430 C   0  0  0  0  0  0  0  0  0  0  0  0
    3.2850  -21.1150    5.5540 C   0  0  0  0  0  0  0  0  0  0  0  0
    1.9680  -21.4150    5.2070 C   0  0  0  0  0  0  0  0  0  0  0  0
    1.3120  -20.6620    4.2350 C   0  0  0  0  0  0  0  0  0  0  0  0
    1.9760  -19.6100    3.6070 C   0  0  0  0  0  0  0  0  0  0  0  0
    3.2940  -19.3080    3.9540 C   0  0  0  0  0  0  0  0  0  0  0  0
    8.5630  -19.5810    4.0120 C   0  0  0  0  0  0  0  0  0  0  0  0
    9.6130  -18.7610    3.5850 C   0  0  0  0  0  0  0  0  0  0  0  0
    9.2900  -17.5720    2.9100 C   0  0  0  0  0  0  0  0  0  0  0  0
   10.0870  -16.5830    2.3470 N   0  0  0  0  0  0  0  0  0  0  0  0
   11.5490  -16.6600    2.2920 C   0  0  0  0  0  0  0  0  0  0  0  0
   12.2060  -15.9800    3.4770 C   0  0  0  0  0  0  0  0  0  0  0  0
   12.4600  -16.7080    4.6470 C   0  0  0  0  0  0  0  0  0  0  0  0
   13.0800  -16.1080    5.7420 C   0  0  0  0  0  0  0  0  0  0  0  0
   13.4610  -14.7690    5.6870 C   0  0  0  0  0  0  0  0  0  0  0  0
   13.2280  -14.0130    4.5290 C   0  0  0  0  0  0  0  0  0  0  0  0
   13.6240  -12.5980    4.4670 C   0  0  0  0  0  0  0  0  0  0  0  0
   13.1120  -11.8240    3.5360 N   0  0  0  0  0  0  0  0  0  0  0  0
   14.4840  -12.1320    5.3460 N   0  0  0  0  0  0  0  0  0  0  0  0
   12.6060  -14.6310    3.4300 C   0  0  0  0  0  0  0  0  0  0  0  0
   12.8100  -11.6530   -0.4630 C   0  0  0  0  0  0  0  0  0  0  0  0
   14.1490  -11.3860   -0.1460 C   0  0  0  0  0  0  0  0  0  0  0  0
   18.3087  -12.7895   -0.1863 H   0  0  0  0  0  0  0  0  0  0  0  0
   16.8456  -13.2391   -1.1265 H   0  0  0  0  0  0  0  0  0  0  0  0
   17.4259  -11.5391   -1.1265 H   0  0  0  0  0  0  0  0  0  0  0  0
   16.6020  -12.5350    2.8132 H   0  0  0  0  0  0  0  0  0  0  0  0
   16.2290  -13.9833    1.8182 H   0  0  0  0  0  0  0  0  0  0  0  0
   17.8889  -13.2969    1.8182 H   0  0  0  0  0  0  0  0  0  0  0  0
   16.7158  -10.6436    2.2140 H   0  0  0  0  0  0  0  0  0  0  0  0
   17.6757  -10.3805    0.7187 H   0  0  0  0  0  0  0  0  0  0  0  0
   15.9079  -10.0622    0.7187 H   0  0  0  0  0  0  0  0  0  0  0  0
   15.0938  -14.5072    0.8292 H   0  0  0  0  0  0  0  0  0  0  0  0
   12.7199  -14.9786    0.2639 H   0  0  0  0  0  0  0  0  0  0  0  0
   10.2253  -12.3353   -0.3852 H   0  0  0  0  0  0  0  0  0  0  0  0
   10.7656  -13.4116   -1.7357 H   0  0  0  0  0  0  0  0  0  0  0  0
   10.2520  -15.2290   -0.4600 H   0  0  0  0  0  0  0  0  0  0  0  0
    7.0992  -15.3854    1.7099 H   0  0  0  0  0  0  0  0  0  0  0  0
    5.8740  -17.7771    2.9374 H   0  0  0  0  0  0  0  0  0  0  0  0
    5.6579  -20.2393    6.2167 H   0  0  0  0  0  0  0  0  0  0  0  0
    5.4808  -18.6393    5.3464 H   0  0  0  0  0  0  0  0  0  0  0  0
    3.7995  -21.7211    6.3143 H   0  0  0  0  0  0  0  0  0  0  0  0
    1.4460  -22.2475    5.7014 H   0  0  0  0  0  0  0  0  0  0  0  0
    0.2722  -20.8975    3.9641 H   0  0  0  0  0  0  0  0  0  0  0  0
    1.4610  -19.0169    2.8370 H   0  0  0  0  0  0  0  0  0  0  0  0
    3.8153  -18.4824    3.4475 H   0  0  0  0  0  0  0  0  0  0  0  0
    8.7957  -20.5145    4.5453 H   0  0  0  0  0  0  0  0  0  0  0  0
   10.6607  -19.0391    3.7723 H   0  0  0  0  0  0  0  0  0  0  0  0
   11.8473  -17.7187    2.2816 H   0  0  0  0  0  0  0  0  0  0  0  0
   11.8793  -16.1406    1.3803 H   0  0  0  0  0  0  0  0  0  0  0  0
   12.1664  -17.7667    4.7022 H   0  0  0  0  0  0  0  0  0  0  0  0
   13.2692  -16.6942    6.6533 H   0  0  0  0  0  0  0  0  0  0  0  0
   13.9471  -14.3023    6.5564 H   0  0  0  0  0  0  0  0  0  0  0  0
   12.4750  -12.2120    2.8480 H   0  0  0  0  0  0  0  0  0  0  0  0
   13.3480  -10.8450    3.4500 H   0  0  0  0  0  0  0  0  0  0  0  0
   14.8470  -12.7430    6.0720 H   0  0  0  0  0  0  0  0  0  0  0  0
   14.7910  -11.1690    5.3520 H   0  0  0  0  0  0  0  0  0  0  0  0
   12.4281  -14.0482    2.5142 H   0  0  0  0  0  0  0  0  0  0  0  0
   12.1698  -10.8410   -0.8384 H   0  0  0  0  0  0  0  0  0  0  0  0
   14.5442  -10.3671   -0.2710 H   0  0  0  0  0  0  0  0  0  0  0  0
  1  2  1  0
  2  3  1  0
  2  4  1  0
  2  5  1  0
  5  6  2  0
  6  7  1  0
  7  8  2  0
  8  9  1  0
  9 10  1  0
 10 11  1  0
 11 12  2  0
 11 13  1  0
 13 14  2  0
 14 15  1  0
 15 16  2  0
 16 17  1  0
 17 18  1  0
 18 19  1  0
 19 20  1  0
 20 21  2  0
 21 22  1  0
 22 23  2  0
 23 24  1  0
 24 25  2  0
 17 26  2  0
 26 27  1  0
 27 28  2  0
 28 29  1  0
 29 30  1  0
 30 31  1  0
 31 32  2  0
 32 33  1  0
 33 34  2  0
 34 35  1  0
 35 36  1  0
 36 37  1  0
 36 38  2  0
 35 39  2  0
  8 40  1  0
 40 41  2  0
 41  5  1  0
 29 13  1  0
 39 31  1  0
 28 15  1  0
 25 20  1  0
  1 42  1  0
  1 43  1  0
  1 44  1  0
  3 45  1  0
  3 46  1  0
  3 47  1  0
  4 48  1  0
  4 49  1  0
  4 50  1  0
  6 51  1  0
  7 52  1  0
  9 53  1  0
  9 54  1  0
 10 55  1  0
 14 56  1  0
 16 57  1  0
 19 58  1  0
 19 59  1  0
 21 60  1  0
 22 61  1  0
 23 62  1  0
 24 63  1  0
 25 64  1  0
 26 65  1  0
 27 66  1  0
 30 67  1  0
 30 68  1  0
 32 69  1  0
 33 70  1  0
 34 71  1  0
 37 72  1  0
 37 73  1  0
 38 74  1  0
 38 75  1  0
 39 76  1  0
 40 77  1  0
 41 78  1  0
M  CHG  2   2   1  38   1
M  END
>  <meeko>  (6) 
{"is_sidechain": [false], "free_energy": -7.243, "intermolecular_energy": -11.533, "internal_energy": -2.436}

$$$$
1lpg_ligand
     RDKit          3D

 78 82  0  0  0  0  0  0  0  0999 V2000
   14.8630  -12.2470    0.8470 C   0  0  0  0  0  0  0  0  0  0  0  0
   13.3740  -12.5810    0.8330 N   0  0  0  0  0  0  0  0  0  0  0  0
   12.6310  -11.8080    1.9190 C   0  0  0  0  0  0  0  0  0  0  0  0
   12.8100  -12.1470   -0.5170 C   0  0  0  0  0  0  0  0  0  0  0  0
   13.2020  -14.0700    1.0850 C   0  0  0  0  0  0  0  0  0  0  0  0
   12.1790  -14.7700    0.4230 C   0  0  0  0  0  0  0  0  0  0  0  0
   11.9940  -16.1440    0.6210 C   0  0  0  0  0  0  0  0  0  0  0  0
   12.8320  -16.8570    1.4820 C   0  0  0  0  0  0  0  0  0  0  0  0
   12.6430  -18.3380    1.7060 C   0  0  0  0  0  0  0  0  0  0  0  0
   11.2440  -18.6920    1.7000 N   0  0  0  0  0  0  0  0  0  0  0  0
   10.7470  -19.7450    2.4380 C   0  0  0  0  0  0  0  0  0  0  0  0
   11.4910  -20.4420    3.1240 O   0  0  0  0  0  0  0  0  0  0  0  0
    9.3030  -19.9330    2.3620 C   0  0  0  0  0  0  0  0  0  0  0  0
    8.5570  -20.5900    1.3920 C   0  0  0  0  0  0  0  0  0  0  0  0
    7.1770  -20.4570    1.6890 C   0  0  0  0  0  0  0  0  0  0  0  0
    6.0010  -20.8880    1.0360 C   0  0  0  0  0  0  0  0  0  0  0  0
    4.7530  -20.5610    1.5720 C   0  0  0  0  0  0  0  0  0  0  0  0
    3.5360  -20.8910    1.0430 O   0  0  0  0  0  0  0  0  0  0  0  0
    2.5450  -19.8700    0.8910 C   0  0  0  0  0  0  0  0  0  0  0  0
    2.0760  -19.6790   -0.5340 C   0  0  0  0  0  0  0  0  0  0  0  0
    0.7480  -19.9310   -0.9070 C   0  0  0  0  0  0  0  0  0  0  0  0
    0.3430  -19.7880   -2.2350 C   0  0  0  0  0  0  0  0  0  0  0  0
    1.2630  -19.4050   -3.2080 C   0  0  0  0  0  0  0  0  0  0  0  0
    2.5900  -19.1680   -2.8550 C   0  0  0  0  0  0  0  0  0  0  0  0
    2.9970  -19.3100   -1.5270 C   0  0  0  0  0  0  0  0  0  0  0  0
    4.6830  -19.8050    2.7400 C   0  0  0  0  0  0  0  0  0  0  0  0
    5.8340  -19.3740    3.4090 C   0  0  0  0  0  0  0  0  0  0  0  0
    7.0820  -19.7220    2.8660 C   0  0  0  0  0  0  0  0  0  0  0  0
    8.3790  -19.4760    3.3000 N   0  0  0  0  0  0  0  0  0  0  0  0
    8.6930  -18.8100    4.5660 C   0  0  0  0  0  0  0  0  0  0  0  0
    9.4130  -17.4920    4.3590 C   0  0  0  0  0  0  0  0  0  0  0  0
   10.6050  -17.2330    5.0490 C   0  0  0  0  0  0  0  0  0  0  0  0
   11.2940  -16.0350    4.8600 C   0  0  0  0  0  0  0  0  0  0  0  0
   10.8060  -15.0760    3.9740 C   0  0  0  0  0  0  0  0  0  0  0  0
    9.6200  -15.3070    3.2630 C   0  0  0  0  0  0  0  0  0  0  0  0
    9.0990  -14.2960    2.3310 C   0  0  0  0  0  0  0  0  0  0  0  0
    8.5360  -14.6830    1.2070 N   0  0  0  0  0  0  0  0  0  0  0  0
    9.2030  -13.0220    2.6390 N   0  0  0  0  0  0  0  0  0  0  0  0
    8.9370  -16.5200    3.4590 C   0  0  0  0  0  0  0  0  0  0  0  0
   13.8440  -16.1620    2.1560 C   0  0  0  0  0  0  0  0  0  0  0  0
   14.0290  -14.7870    1.9580 C   0  0  0  0  0  0  0  0  0  0  0  0
   15.2115  -12.1688    1.8874 H   0  0  0  0  0  0  0  0  0  0  0  0
   15.4220  -13.0421    0.3318 H   0  0  0  0  0  0  0  0  0  0  0  0
   15.0288  -11.2893    0.3318 H   0  0  0  0  0  0  0  0  0  0  0  0
   12.9639  -12.1544    2.9085 H   0  0  0  0  0  0  0  0  0  0  0  0
   12.8443  -10.7338    1.8156 H   0  0  0  0  0  0  0  0  0  0  0  0
   11.5492  -11.9786    1.8156 H   0  0  0  0  0  0  0  0  0  0  0  0
   11.9474  -11.4832   -0.3577 H   0  0  0  0  0  0  0  0  0  0  0  0
   13.5858  -11.6107   -1.0832 H   0  0  0  0  0  0  0  0  0  0  0  0
   12.4903  -13.0343   -1.0832 H   0  0  0  0  0  0  0  0  0  0  0  0
   11.5112  -14.2287   -0.2634 H   0  0  0  0  0  0  0  0  0  0  0  0
   11.1819  -16.6663    0.0941 H   0  0  0  0  0  0  0  0  0  0  0  0
   13.1564  -18.8905    0.9053 H   0  0  0  0  0  0  0  0  0  0  0  0
   13.0641  -18.5984    2.6883 H   0  0  0  0  0  0  0  0  0  0  0  0
   10.6040  -18.0610    1.2450 H   0  0  0  0  0  0  0  0  0  0  0  0
    8.9721  -21.1295    0.5279 H   0  0  0  0  0  0  0  0  0  0  0  0
    6.0675  -21.4781    0.1101 H   0  0  0  0  0  0  0  0  0  0  0  0
    1.6751  -20.1368    1.5092 H   0  0  0  0  0  0  0  0  0  0  0  0
    3.0107  -18.9237    1.2036 H   0  0  0  0  0  0  0  0  0  0  0  0
    0.0184  -20.2444   -0.1457 H   0  0  0  0  0  0  0  0  0  0  0  0
   -0.7041  -19.9780   -2.5135 H   0  0  0  0  0  0  0  0  0  0  0  0
    0.9424  -19.2897   -4.2539 H   0  0  0  0  0  0  0  0  0  0  0  0
    3.3178  -18.8687   -3.6236 H   0  0  0  0  0  0  0  0  0  0  0  0
    4.0482  -19.1312   -1.2566 H   0  0  0  0  0  0  0  0  0  0  0  0
    3.6963  -19.5397    3.1474 H   0  0  0  0  0  0  0  0  0  0  0  0
    5.7637  -18.7805    4.3325 H   0  0  0  0  0  0  0  0  0  0  0  0
    7.7548  -18.6194    5.1078 H   0  0  0  0  0  0  0  0  0  0  0  0
    9.3598  -19.4717    5.1383 H   0  0  0  0  0  0  0  0  0  0  0  0
   11.0021  -17.9836    5.7482 H   0  0  0  0  0  0  0  0  0  0  0  0
   12.2263  -15.8463    5.4124 H   0  0  0  0  0  0  0  0  0  0  0  0
   11.3543  -14.1330    3.8319 H   0  0  0  0  0  0  0  0  0  0  0  0
    8.4940  -15.6690    0.9750 H   0  0  0  0  0  0  0  0  0  0  0  0
    8.1590  -14.0300    0.5330 H   0  0  0  0  0  0  0  0  0  0  0  0
    9.6200  -12.7480    3.5240 H   0  0  0  0  0  0  0  0  0  0  0  0
    8.8620  -12.2850    2.0370 H   0  0  0  0  0  0  0  0  0  0  0  0
    8.0112  -16.7136    2.8973 H   0  0  0  0  0  0  0  0  0  0  0  0
   14.5031  -16.7032    2.8508 H   0  0  0  0  0  0  0  0  0  0  0  0
   14.8342  -14.2645    2.4953 H   0  0  0  0  0  0  0  0  0  0  0  0
  1  2  1  0
  2  3  1  0
  2  4  1  0
  2  5  1  0
  5  6  2  0
  6  7  1  0
  7  8  2  0
  8  9  1  0
  9 10  1  0
 10 11  1  0
 11 12  2  0
 11 13  1  0
 13 14  2  0
 14 15  1  0
 15 16  2  0
 16 17  1  0
 17 18  1  0
 18 19  1  0
 19 20  1  0
 20 21  2  0
 21 22  1  0
 22 23  2  0
 23 24  1  0
 24 25  2  0
 17 26  2  0
 26 27  1  0
 27 28  2  0
 28 29  1  0
 29 30  1  0
 30 31  1  0
 31 32  2  0
 32 33  1  0
 33 34  2  0
 34 35  1  0
 35 36  1  0
 36 37  1  0
 36 38  2  0
 35 39  2  0
  8 40  1  0
 40 41  2  0
 41  5  1  0
 29 13  1  0
 39 31  1  0
 28 15  1  0
 25 20  1  0
  1 42  1  0
  1 43  1  0
  1 44  1  0
  3 45  1  0
  3 46  1  0
  3 47  1  0
  4 48  1  0
  4 49  1  0
  4 50  1  0
  6 51  1  0
  7 52  1  0
  9 53  1  0
  9 54  1  0
 10 55  1  0
 14 56  1  0
 16 57  1  0
 19 58  1  0
 19 59  1  0
 21 60  1  0
 22 61  1  0
 23 62  1  0
 24 63  1  0
 25 64  1  0
 26 65  1  0
 27 66  1  0
 30 67  1  0
 30 68  1  0
 32 69  1  0
 33 70  1  0
 34 71  1  0
 37 72  1  0
 37 73  1  0
 38 74  1  0
 38 75  1  0
 39 76  1  0
 40 77  1  0
 41 78  1  0
M  CHG  2   2   1  38   1
M  END
>  <meeko>  (7) 
{"is_sidechain": [false], "free_energy": -7.191, "intermolecular_energy": -10.654, "internal_energy": -3.234}

$$$$
1lpg_ligand
     RDKit          3D

 78 82  0  0  0  0  0  0  0  0999 V2000
   16.6710  -12.6920    1.5290 C   0  0  0  0  0  0  0  0  0  0  0  0
   15.1470  -12.7480    1.5900 N   0  0  0  0  0  0  0  0  0  0  0  0
   14.6280  -12.0890    2.8650 C   0  0  0  0  0  0  0  0  0  0  0  0
   14.6030  -11.9580    0.4030 C   0  0  0  0  0  0  0  0  0  0  0  0
   14.7070  -14.2020    1.5740 C   0  0  0  0  0  0  0  0  0  0  0  0
   15.1460  -15.0690    2.5880 C   0  0  0  0  0  0  0  0  0  0  0  0
   14.7540  -16.4130    2.6150 C   0  0  0  0  0  0  0  0  0  0  0  0
   13.9060  -16.9260    1.6300 C   0  0  0  0  0  0  0  0  0  0  0  0
   13.4770  -18.3730    1.6450 C   0  0  0  0  0  0  0  0  0  0  0  0
   12.0530  -18.4940    1.8420 N   0  0  0  0  0  0  0  0  0  0  0  0
   11.5110  -19.2720    2.8420 C   0  0  0  0  0  0  0  0  0  0  0  0
   12.2300  -19.9160    3.6020 O   0  0  0  0  0  0  0  0  0  0  0  0
   10.0560  -19.2410    2.9370 C   0  0  0  0  0  0  0  0  0  0  0  0
    9.1190  -20.0230    2.2730 C   0  0  0  0  0  0  0  0  0  0  0  0
    7.8140  -19.5910    2.6190 C   0  0  0  0  0  0  0  0  0  0  0  0
    6.5230  -19.9990    2.2190 C   0  0  0  0  0  0  0  0  0  0  0  0
    5.4010  -19.3350    2.7240 C   0  0  0  0  0  0  0  0  0  0  0  0
    4.0970  -19.6060    2.4140 O   0  0  0  0  0  0  0  0  0  0  0  0
    3.8090  -20.6190    1.4440 C   0  0  0  0  0  0  0  0  0  0  0  0
    3.5350  -20.0790    0.0590 C   0  0  0  0  0  0  0  0  0  0  0  0
    2.2540  -19.6510   -0.3190 C   0  0  0  0  0  0  0  0  0  0  0  0
    2.0110  -19.1940   -1.6140 C   0  0  0  0  0  0  0  0  0  0  0  0
    3.0410  -19.1710   -2.5520 C   0  0  0  0  0  0  0  0  0  0  0  0
    4.3150  -19.6080   -2.1960 C   0  0  0  0  0  0  0  0  0  0  0  0
    4.5600  -20.0660   -0.9000 C   0  0  0  0  0  0  0  0  0  0  0  0
    5.5710  -18.2720    3.6080 C   0  0  0  0  0  0  0  0  0  0  0  0
    6.8400  -17.8560    4.0240 C   0  0  0  0  0  0  0  0  0  0  0  0
    7.9570  -18.5410    3.5200 C   0  0  0  0  0  0  0  0  0  0  0  0
    9.3180  -18.3900    3.7590 N   0  0  0  0  0  0  0  0  0  0  0  0
    9.8660  -17.4450    4.7340 C   0  0  0  0  0  0  0  0  0  0  0  0
   10.3400  -16.1590    4.0850 C   0  0  0  0  0  0  0  0  0  0  0  0
   11.3500  -15.4020    4.6930 C   0  0  0  0  0  0  0  0  0  0  0  0
   11.8140  -14.2260    4.1050 C   0  0  0  0  0  0  0  0  0  0  0  0
   11.2790  -13.7870    2.8950 C   0  0  0  0  0  0  0  0  0  0  0  0
   10.2720  -14.5250    2.2570 C   0  0  0  0  0  0  0  0  0  0  0  0
    9.7020  -14.0640    0.9820 C   0  0  0  0  0  0  0  0  0  0  0  0
    8.5870  -13.3670    0.9880 N   0  0  0  0  0  0  0  0  0  0  0  0
   10.3180  -14.3560   -0.1420 N   0  0  0  0  0  0  0  0  0  0  0  0
    9.8160  -15.7110    2.8580 C   0  0  0  0  0  0  0  0  0  0  0  0
   13.4770  -16.0700    0.6080 C   0  0  0  0  0  0  0  0  0  0  0  0
   13.8700  -14.7240    0.5810 C   0  0  0  0  0  0  0  0  0  0  0  0
   17.0785  -12.6770    2.5506 H   0  0  0  0  0  0  0  0  0  0  0  0
   17.0494  -13.5768    0.9962 H   0  0  0  0  0  0  0  0  0  0  0  0
   16.9834  -11.7818    0.9962 H   0  0  0  0  0  0  0  0  0  0  0  0
   15.0394  -12.6113    3.7413 H   0  0  0  0  0  0  0  0  0  0  0  0
   14.9409  -11.0347    2.8863 H   0  0  0  0  0  0  0  0  0  0  0  0
   13.5297  -12.1460    2.8863 H   0  0  0  0  0  0  0  0  0  0  0  0
   14.0148  -11.1038    0.7696 H   0  0  0  0  0  0  0  0  0  0  0  0
   15.4408  -11.5910   -0.2081 H   0  0  0  0  0  0  0  0  0  0  0  0
   13.9613  -12.6098   -0.2081 H   0  0  0  0  0  0  0  0  0  0  0  0
   15.8105  -14.6849    3.3760 H   0  0  0  0  0  0  0  0  0  0  0  0
   15.1168  -17.0707    3.4186 H   0  0  0  0  0  0  0  0  0  0  0  0
   13.7469  -18.8370    0.6849 H   0  0  0  0  0  0  0  0  0  0  0  0
   13.9876  -18.8786    2.4779 H   0  0  0  0  0  0  0  0  0  0  0  0
   11.4540  -17.8810    1.3120 H   0  0  0  0  0  0  0  0  0  0  0  0
    9.3534  -20.8491    1.5855 H   0  0  0  0  0  0  0  0  0  0  0  0
    6.4006  -20.8345    1.5141 H   0  0  0  0  0  0  0  0  0  0  0  0
    4.6717  -21.2990    1.3864 H   0  0  0  0  0  0  0  0  0  0  0  0
    2.8921  -21.1281    1.7759 H   0  0  0  0  0  0  0  0  0  0  0  0
    1.4332  -19.6760    0.4129 H   0  0  0  0  0  0  0  0  0  0  0  0
    1.0044  -18.8511   -1.8954 H   0  0  0  0  0  0  0  0  0  0  0  0
    2.8485  -18.8082   -3.5724 H   0  0  0  0  0  0  0  0  0  0  0  0
    5.1284  -19.5922   -2.9364 H   0  0  0  0  0  0  0  0  0  0  0  0
    5.5654  -20.4199   -0.6280 H   0  0  0  0  0  0  0  0  0  0  0  0
    4.6835  -17.7456    3.9891 H   0  0  0  0  0  0  0  0  0  0  0  0
    6.9592  -17.0170    4.7253 H   0  0  0  0  0  0  0  0  0  0  0  0
    9.0849  -17.2030    5.4698 H   0  0  0  0  0  0  0  0  0  0  0  0
   10.7348  -17.9208    5.2124 H   0  0  0  0  0  0  0  0  0  0  0  0
   11.7824  -15.7397    5.6464 H   0  0  0  0  0  0  0  0  0  0  0  0
   12.6054  -13.6423    4.5979 H   0  0  0  0  0  0  0  0  0  0  0  0
   11.6487  -12.8570    2.4385 H   0  0  0  0  0  0  0  0  0  0  0  0
    8.1110  -13.1800    1.8640 H   0  0  0  0  0  0  0  0  0  0  0  0
    8.1540  -13.0240    0.1410 H   0  0  0  0  0  0  0  0  0  0  0  0
   11.1910  -14.8760   -0.1200 H   0  0  0  0  0  0  0  0  0  0  0  0
    9.9720  -14.0650   -1.0460 H   0  0  0  0  0  0  0  0  0  0  0  0
    9.0333  -16.3013    2.3590 H   0  0  0  0  0  0  0  0  0  0  0  0
   12.8220  -16.4592   -0.1854 H   0  0  0  0  0  0  0  0  0  0  0  0
   13.5162  -14.0707   -0.2302 H   0  0  0  0  0  0  0  0  0  0  0  0
  1  2  1  0
  2  3  1  0
  2  4  1  0
  2  5  1  0
  5  6  2  0
  6  7  1  0
  7  8  2  0
  8  9  1  0
  9 10  1  0
 10 11  1  0
 11 12  2  0
 11 13  1  0
 13 14  2  0
 14 15  1  0
 15 16  2  0
 16 17  1  0
 17 18  1  0
 18 19  1  0
 19 20  1  0
 20 21  2  0
 21 22  1  0
 22 23  2  0
 23 24  1  0
 24 25  2  0
 17 26  2  0
 26 27  1  0
 27 28  2  0
 28 29  1  0
 29 30  1  0
 30 31  1  0
 31 32  2  0
 32 33  1  0
 33 34  2  0
 34 35  1  0
 35 36  1  0
 36 37  1  0
 36 38  2  0
 35 39  2  0
  8 40  1  0
 40 41  2  0
 41  5  1  0
 29 13  1  0
 39 31  1  0
 28 15  1  0
 25 20  1  0
  1 42  1  0
  1 43  1  0
  1 44  1  0
  3 45  1  0
  3 46  1  0
  3 47  1  0
  4 48  1  0
  4 49  1  0
  4 50  1  0
  6 51  1  0
  7 52  1  0
  9 53  1  0
  9 54  1  0
 10 55  1  0
 14 56  1  0
 16 57  1  0
 19 58  1  0
 19 59  1  0
 21 60  1  0
 22 61  1  0
 23 62  1  0
 24 63  1  0
 25 64  1  0
 26 65  1  0
 27 66  1  0
 30 67  1  0
 30 68  1  0
 32 69  1  0
 33 70  1  0
 34 71  1  0
 37 72  1  0
 37 73  1  0
 38 74  1  0
 38 75  1  0
 39 76  1  0
 40 77  1  0
 41 78  1  0
M  CHG  2   2   1  38   1
M  END
>  <meeko>  (8) 
{"is_sidechain": [false], "free_energy": -7.154, "intermolecular_energy": -10.437, "internal_energy": -3.392}

$$$$
1lpg_ligand
     RDKit          3D

 78 82  0  0  0  0  0  0  0  0999 V2000
   16.8370  -12.3710   -0.2470 C   0  0  0  0  0  0  0  0  0  0  0  0
   15.4900  -12.3640    0.4700 N   0  0  0  0  0  0  0  0  0  0  0  0
   15.6510  -11.9460    1.9300 C   0  0  0  0  0  0  0  0  0  0  0  0
   14.6010  -11.3290   -0.2150 C   0  0  0  0  0  0  0  0  0  0  0  0
   14.8990  -13.7630    0.4220 C   0  0  0  0  0  0  0  0  0  0  0  0
   13.5100  -13.9330    0.5560 C   0  0  0  0  0  0  0  0  0  0  0  0
   12.9260  -15.2040    0.5060 C   0  0  0  0  0  0  0  0  0  0  0  0
   13.7150  -16.3420    0.3150 C   0  0  0  0  0  0  0  0  0  0  0  0
   13.0990  -17.7190    0.2620 C   0  0  0  0  0  0  0  0  0  0  0  0
   11.8110  -17.7400    0.9130 N   0  0  0  0  0  0  0  0  0  0  0  0
   11.4990  -18.6470    1.9010 C   0  0  0  0  0  0  0  0  0  0  0  0
   12.3120  -19.4970    2.2580 O   0  0  0  0  0  0  0  0  0  0  0  0
   10.1740  -18.4970    2.4910 C   0  0  0  0  0  0  0  0  0  0  0  0
    8.9740  -19.0830    2.1070 C   0  0  0  0  0  0  0  0  0  0  0  0
    7.9260  -18.5880    2.9230 C   0  0  0  0  0  0  0  0  0  0  0  0
    6.5320  -18.8120    2.9480 C   0  0  0  0  0  0  0  0  0  0  0  0
    5.7380  -18.1290    3.8740 C   0  0  0  0  0  0  0  0  0  0  0  0
    4.3800  -18.2300    4.0020 O   0  0  0  0  0  0  0  0  0  0  0  0
    3.6840  -19.2260    3.2460 C   0  0  0  0  0  0  0  0  0  0  0  0
    2.6520  -19.9900    4.0430 C   0  0  0  0  0  0  0  0  0  0  0  0
    2.9970  -21.1300    4.7840 C   0  0  0  0  0  0  0  0  0  0  0  0
    2.0240  -21.8460    5.4820 C   0  0  0  0  0  0  0  0  0  0  0  0
    0.6920  -21.4400    5.4370 C   0  0  0  0  0  0  0  0  0  0  0  0
    0.3310  -20.3190    4.6920 C   0  0  0  0  0  0  0  0  0  0  0  0
    1.3040  -19.6010    3.9940 C   0  0  0  0  0  0  0  0  0  0  0  0
    6.3310  -17.2280    4.7560 C   0  0  0  0  0  0  0  0  0  0  0  0
    7.7110  -16.9960    4.7540 C   0  0  0  0  0  0  0  0  0  0  0  0
    8.4980  -17.6990    3.8280 C   0  0  0  0  0  0  0  0  0  0  0  0
    9.8690  -17.7120    3.6020 N   0  0  0  0  0  0  0  0  0  0  0  0
   10.8290  -16.9740    4.4260 C   0  0  0  0  0  0  0  0  0  0  0  0
   10.9660  -15.5270    3.9940 C   0  0  0  0  0  0  0  0  0  0  0  0
   11.8550  -14.6790    4.6680 C   0  0  0  0  0  0  0  0  0  0  0  0
   12.0110  -13.3500    4.2760 C   0  0  0  0  0  0  0  0  0  0  0  0
   11.2820  -12.8450    3.2010 C   0  0  0  0  0  0  0  0  0  0  0  0
   10.3900  -13.6680    2.5010 C   0  0  0  0  0  0  0  0  0  0  0  0
    9.6160  -13.1390    1.3680 C   0  0  0  0  0  0  0  0  0  0  0  0
   10.0980  -12.1360    0.6680 N   0  0  0  0  0  0  0  0  0  0  0  0
    8.4540  -13.6800    1.0740 N   0  0  0  0  0  0  0  0  0  0  0  0
   10.2450  -15.0080    2.9030 C   0  0  0  0  0  0  0  0  0  0  0  0
   15.1010  -16.1810    0.1970 C   0  0  0  0  0  0  0  0  0  0  0  0
   15.6860  -14.9070    0.2470 C   0  0  0  0  0  0  0  0  0  0  0  0
   17.6480  -12.3752    0.4962 H   0  0  0  0  0  0  0  0  0  0  0  0
   16.9124  -13.2695   -0.8770 H   0  0  0  0  0  0  0  0  0  0  0  0
   16.9217  -11.4733   -0.8770 H   0  0  0  0  0  0  0  0  0  0  0  0
   15.3333  -12.7709    2.5847 H   0  0  0  0  0  0  0  0  0  0  0  0
   16.7060  -11.7058    2.1284 H   0  0  0  0  0  0  0  0  0  0  0  0
   15.0297  -11.0602    2.1284 H   0  0  0  0  0  0  0  0  0  0  0  0
   14.0843  -10.7274    0.5473 H   0  0  0  0  0  0  0  0  0  0  0  0
   15.2204  -10.6717   -0.8429 H   0  0  0  0  0  0  0  0  0  0  0  0
   13.8578  -11.8421   -0.8429 H   0  0  0  0  0  0  0  0  0  0  0  0
   12.8700  -13.0505    0.7029 H   0  0  0  0  0  0  0  0  0  0  0  0
   11.8367  -15.3083    0.6180 H   0  0  0  0  0  0  0  0  0  0  0  0
   12.9743  -18.0161   -0.7898 H   0  0  0  0  0  0  0  0  0  0  0  0
   13.7658  -18.4193    0.7864 H   0  0  0  0  0  0  0  0  0  0  0  0
   11.1790  -16.9790    0.7220 H   0  0  0  0  0  0  0  0  0  0  0  0
    8.8558  -19.8168    1.2961 H   0  0  0  0  0  0  0  0  0  0  0  0
    6.0732  -19.5203    2.2425 H   0  0  0  0  0  0  0  0  0  0  0  0
    3.1755  -18.7305    2.4059 H   0  0  0  0  0  0  0  0  0  0  0  0
    4.4355  -19.9570    2.9131 H   0  0  0  0  0  0  0  0  0  0  0  0
    4.0450  -21.4627    4.8151 H   0  0  0  0  0  0  0  0  0  0  0  0
    2.3088  -22.7320    6.0685 H   0  0  0  0  0  0  0  0  0  0  0  0
   -0.0742  -22.0039    5.9892 H   0  0  0  0  0  0  0  0  0  0  0  0
   -0.7209  -19.9997    4.6538 H   0  0  0  0  0  0  0  0  0  0  0  0
    1.0116  -18.7224    3.4002 H   0  0  0  0  0  0  0  0  0  0  0  0
    5.6977  -16.6847    5.4728 H   0  0  0  0  0  0  0  0  0  0  0  0
    8.1660  -16.2834    5.4577 H   0  0  0  0  0  0  0  0  0  0  0  0
   10.4906  -17.0002    5.4723 H   0  0  0  0  0  0  0  0  0  0  0  0
   11.8117  -17.4544    4.3092 H   0  0  0  0  0  0  0  0  0  0  0  0
   12.4371  -15.0667    5.5170 H   0  0  0  0  0  0  0  0  0  0  0  0
   12.7121  -12.6977    4.8173 H   0  0  0  0  0  0  0  0  0  0  0  0
   11.4076  -11.7944    2.9004 H   0  0  0  0  0  0  0  0  0  0  0  0
   10.9820  -11.7130    0.9310 H   0  0  0  0  0  0  0  0  0  0  0  0
    9.6090  -11.7360   -0.1210 H   0  0  0  0  0  0  0  0  0  0  0  0
    8.1120  -14.4700    1.6140 H   0  0  0  0  0  0  0  0  0  0  0  0
    7.8800  -13.3570    0.3070 H   0  0  0  0  0  0  0  0  0  0  0  0
    9.5538  -15.6636    2.3532 H   0  0  0  0  0  0  0  0  0  0  0  0
   15.7402  -17.0662    0.0632 H   0  0  0  0  0  0  0  0  0  0  0  0
   16.7768  -14.8059    0.1474 H   0  0  0  0  0  0  0  0  0  0  0  0
  1  2  1  0
  2  3  1  0
  2  4  1  0
  2  5  1  0
  5  6  2  0
  6  7  1  0
  7  8  2  0
  8  9  1  0
  9 10  1  0
 10 11  1  0
 11 12  2  0
 11 13  1  0
 13 14  2  0
 14 15  1  0
 15 16  2  0
 16 17  1  0
 17 18  1  0
 18 19  1  0
 19 20  1  0
 20 21  2  0
 21 22  1  0
 22 23  2  0
 23 24  1  0
 24 25  2  0
 17 26  2  0
 26 27  1  0
 27 28  2  0
 28 29  1  0
 29 30  1  0
 30 31  1  0
 31 32  2  0
 32 33  1  0
 33 34  2  0
 34 35  1  0
 35 36  1  0
 36 37  1  0
 36 38  2  0
 35 39  2  0
  8 40  1  0
 40 41  2  0
 41  5  1  0
 29 13  1  0
 39 31  1  0
 28 15  1  0
 25 20  1  0
  1 42  1  0
  1 43  1  0
  1 44  1  0
  3 45  1  0
  3 46  1  0
  3 47  1  0
  4 48  1  0
  4 49  1  0
  4 50  1  0
  6 51  1  0
  7 52  1  0
  9 53  1  0
  9 54  1  0
 10 55  1  0
 14 56  1  0
 16 57  1  0
 19 58  1  0
 19 59  1  0
 21 60  1  0
 22 61  1  0
 23 62  1  0
 24 63  1  0
 25 64  1  0
 26 65  1  0
 27 66  1  0
 30 67  1  0
 30 68  1  0
 32 69  1  0
 33 70  1  0
 34 71  1  0
 37 72  1  0
 37 73  1  0
 38 74  1  0
 38 75  1  0
 39 76  1  0
 40 77  1  0
 41 78  1  0
M  CHG  2   2   1  38   1
M  END
>  <meeko>  (9) 
{"is_sidechain": [false], "free_energy": -7.094, "intermolecular_energy": -11.097, "internal_energy": -2.637}

$$$$
