
     RDKit          3D

 14 14  0  0  0  0  0  0  0  0999 V2000
    9.5790   13.2390  -13.5970 C   0  0  0  0  0  0  0  0  0  0  0  0
    8.3510   12.8740  -14.1830 O   0  0  0  0  0  0  0  0  0  0  0  0
    8.3350   11.8670  -15.1110 C   0  0  0  0  0  0  0  0  0  0  0  0
    9.4840   11.2710  -15.6090 C   0  0  0  0  0  0  0  0  0  0  0  0
    9.4270   10.2510  -16.5530 C   0  0  0  0  0  0  0  0  0  0  0  0
   10.6120    9.6960  -17.0020 N   0  0  0  0  0  0  0  0  0  0  0  0
    8.1690    9.8060  -17.0340 C   0  0  0  0  0  0  0  0  0  0  0  0
    8.0620    8.7160  -18.0500 C   0  0  0  0  0  0  0  0  0  0  0  0
    9.0840    8.3080  -18.6410 O   0  0  0  0  0  0  0  0  0  0  0  0
    6.9550    8.2270  -18.2780 O   0  0  0  0  0  0  0  0  0  0  0  0
    7.0270   10.4210  -16.5310 C   0  0  0  0  0  0  0  0  0  0  0  0
    7.0930   11.4330  -15.5740 C   0  0  0  0  0  0  0  0  0  0  0  0
    5.9910   12.0480  -15.0410 O   0  0  0  0  0  0  0  0  0  0  0  0
    4.6930   11.5650  -15.4150 C   0  0  0  0  0  0  0  0  0  0  0  0
  2  1  1  0
  3  2  1  0
  4  3  2  0
  5  4  1  0
  6  5  1  0
  7  5  2  0
  8  7  1  0
  9  8  2  0
 10  8  1  0
 11  7  1  0
 12 11  2  0
 12  3  1  0
 13 12  1  0
 14 13  1  0
M  CHG  1  10  -1
M  END
$$$$
