
     RDKit          3D

 14 14  0  0  0  0  0  0  0  0999 V2000
    4.8210    7.1980    5.4080 O   0  0  0  0  0  0  0  0  0  0  0  0
    5.3550    6.1580    5.8230 C   0  0  0  0  0  0  0  0  0  0  0  0
    5.2450    5.0780    5.2200 O   0  0  0  0  0  0  0  0  0  0  0  0
    6.1220    6.1700    7.1290 C   0  0  0  0  0  0  0  0  0  0  0  0
    6.8560    4.9930    7.2950 O   0  0  0  0  0  0  0  0  0  0  0  0
    7.1840    4.6740    8.5930 C   0  0  0  0  0  0  0  0  0  0  0  0
    6.2080    4.3380    9.5270 C   0  0  0  0  0  0  0  0  0  0  0  0
    4.4170    4.2810    9.0800 Br  0  0  0  0  0  0  0  0  0  0  0  0
    6.6770    4.0360   10.7920 C   0  0  0  0  0  0  0  0  0  0  0  0
    8.3780    4.1800   10.8100 S   0  0  0  0  0  0  0  0  0  0  0  0
    8.4680    4.6420    9.1490 C   0  0  0  0  0  0  0  0  0  0  0  0
    9.7500    4.9230    8.4580 C   0  0  0  0  0  0  0  0  0  0  0  0
   10.6980    5.3680    9.1140 O   0  0  0  0  0  0  0  0  0  0  0  0
    9.8440    4.6700    7.2420 O   0  0  0  0  0  0  0  0  0  0  0  0
  2  1  1  0
  3  2  2  0
  4  2  1  0
  5  4  1  0
  6  5  1  0
  7  6  1  0
  8  7  1  0
  9  7  2  0
 10  9  1  0
 11 10  1  0
 11  6  2  0
 12 11  1  0
 13 12  2  0
 14 12  1  0
M  CHG  2   1  -1  14  -1
M  END
$$$$
