3uri_ligand
     RDKit          3D

131134  0  0  0  0  0  0  0  0999 V2000
   15.4490   -4.7690   -6.5680 C   0  0  0  0  0  0  0  0  0  0  0  0
   15.3600   -5.4660   -4.8970 S   0  0  0  0  0  0  0  0  0  0  0  0
   15.5530   -3.9160   -3.9640 C   0  0  0  0  0  0  0  0  0  0  0  0
   14.3970   -2.9700   -4.2960 C   0  0  0  0  0  0  0  0  0  0  0  0
   13.5650   -2.5100   -3.0890 C   0  0  2  0  0  0  0  0  0  0  0  0
   12.0900   -2.5410   -3.3710 N   0  0  0  0  0  0  0  0  0  0  0  0
   11.1360   -2.1250   -2.3210 C   0  0  0  0  0  0  0  0  0  0  0  0
   10.9450   -3.1760   -1.1810 C   0  0  2  0  0  0  0  0  0  0  0  0
   10.7210   -4.6400   -1.6420 C   0  0  0  0  0  0  0  0  0  0  0  0
   11.7430   -5.6700   -1.2080 C   0  0  0  0  0  0  0  0  0  0  0  0
   11.7720   -6.2010    0.0860 C   0  0  0  0  0  0  0  0  0  0  0  0
   12.7170   -7.1700    0.4330 C   0  0  0  0  0  0  0  0  0  0  0  0
   13.6510   -7.6070   -0.5030 C   0  0  0  0  0  0  0  0  0  0  0  0
   13.6500   -7.0690   -1.7860 C   0  0  0  0  0  0  0  0  0  0  0  0
   12.7070   -6.1030   -2.1350 C   0  0  0  0  0  0  0  0  0  0  0  0
    9.8860   -2.7970   -0.2260 N   0  0  0  0  0  0  0  0  0  0  0  0
   10.1590   -2.4710    1.0900 C   0  0  0  0  0  0  0  0  0  0  0  0
   11.3080   -2.3440    1.5060 O   0  0  0  0  0  0  0  0  0  0  0  0
    8.9360   -2.4450    2.0260 C   0  0  2  0  0  0  0  0  0  0  0  0
    8.6620   -0.9880    2.4150 C   0  0  0  0  0  0  0  0  0  0  0  0
    9.8880   -0.3690    2.8410 O   0  0  0  0  0  0  0  0  0  0  0  0
    9.1630   -3.2460    3.2350 N   0  0  0  0  0  0  0  0  0  0  0  0
    9.1880   -4.6190    3.1990 C   0  0  0  0  0  0  0  0  0  0  0  0
    8.9980   -5.2380    2.1510 O   0  0  0  0  0  0  0  0  0  0  0  0
    9.3800   -5.3300    4.5700 C   0  0  2  0  0  0  0  0  0  0  0  0
    9.5130   -6.8620    4.4730 C   0  0  0  0  0  0  0  0  0  0  0  0
   10.7790   -7.5010    5.0860 C   0  0  0  0  0  0  0  0  0  0  0  0
   10.9760   -8.9540    4.6520 C   0  0  0  0  0  0  0  0  0  0  0  0
   12.0550   -6.6960    4.8430 C   0  0  0  0  0  0  0  0  0  0  0  0
    8.3460   -4.8440    5.4850 N   0  0  0  0  0  0  0  0  0  0  0  0
    7.0050   -5.1100    5.2880 C   0  0  0  0  0  0  0  0  0  0  0  0
    6.5900   -5.9300    4.4710 O   0  0  0  0  0  0  0  0  0  0  0  0
    6.0240   -4.2050    6.0630 C   0  0  2  0  0  0  0  0  0  0  0  0
    6.6280   -2.7870    6.1990 C   0  0  0  0  0  0  0  0  0  0  0  0
    5.6990   -1.7160    5.7250 C   0  0  0  0  0  0  0  0  0  0  0  0
    5.9080   -0.4500    5.2220 C   0  0  0  0  0  0  0  0  0  0  0  0
    4.7390    0.0850    4.7620 N   0  0  0  0  0  0  0  0  0  0  0  0
    3.8010   -0.7660    5.1120 C   0  0  0  0  0  0  0  0  0  0  0  0
    4.3320   -1.8700    5.7140 N   0  0  0  0  0  0  0  0  0  0  0  0
    5.5050   -4.7690    7.3380 N   0  0  0  0  0  0  0  0  0  0  0  0
    4.1610   -5.0340    7.5340 C   0  0  0  0  0  0  0  0  0  0  0  0
    3.2770   -4.5210    6.8570 O   0  0  0  0  0  0  0  0  0  0  0  0
    3.8790   -5.9500    8.7470 C   0  0  2  0  0  0  0  0  0  0  0  0
    2.6330   -5.5570    9.5330 C   0  0  0  0  0  0  0  0  0  0  0  0
    3.1530   -4.5860   10.5770 C   0  0  0  0  0  0  0  0  0  0  0  0
    4.4530   -5.2190   11.0200 C   0  0  0  0  0  0  0  0  0  0  0  0
    5.0060   -5.8430    9.7720 N   0  0  0  0  0  0  0  0  0  0  0  0
   13.9750   -1.0950   -2.5900 C   0  0  0  0  0  0  0  0  0  0  0  0
   14.8460   -0.9010   -1.7460 O   0  0  0  0  0  0  0  0  0  0  0  0
   13.3400   -0.0460   -3.2360 N   0  0  0  0  0  0  0  0  0  0  0  0
   13.8040    1.3460   -3.1480 C   0  0  1  0  0  0  0  0  0  0  0  0
   13.6310    2.1630   -4.4220 C   0  0  0  0  0  0  0  0  0  0  0  0
   13.1860    2.0150   -1.8970 C   0  0  0  0  0  0  0  0  0  0  0  0
   13.7100    1.9290   -0.7880 O   0  0  0  0  0  0  0  0  0  0  0  0
   11.9930    2.6840   -2.1060 N   0  0  0  0  0  0  0  0  0  0  0  0
   10.9810    2.7420   -1.0170 C   0  0  1  0  0  0  0  0  0  0  0  0
   10.5060    1.3420   -0.6330 C   0  0  0  0  0  0  0  0  0  0  0  0
    9.0390    1.2480   -0.4180 C   0  0  0  0  0  0  0  0  0  0  0  0
    8.1390    2.0060    0.2930 C   0  0  0  0  0  0  0  0  0  0  0  0
    6.9010    1.4220    0.1370 N   0  0  0  0  0  0  0  0  0  0  0  0
    6.9920    0.3380   -0.6340 C   0  0  0  0  0  0  0  0  0  0  0  0
    8.2780    0.2230   -0.9740 N   0  0  0  0  0  0  0  0  0  0  0  0
   11.5320    3.4750    0.2440 C   0  0  0  0  0  0  0  0  0  0  0  0
   11.5900    2.8310    1.3200 O   0  0  0  0  0  0  0  0  0  0  0  0
   11.9560    4.6600    0.0430 O   0  0  0  0  0  0  0  0  0  0  0  0
   15.5881   -3.6797   -6.5040 H   0  0  0  0  0  0  0  0  0  0  0  0
   16.2974   -5.2159   -7.1070 H   0  0  0  0  0  0  0  0  0  0  0  0
   14.5155   -4.9884   -7.1070 H   0  0  0  0  0  0  0  0  0  0  0  0
   15.5491   -4.1347   -2.8860 H   0  0  0  0  0  0  0  0  0  0  0  0
   16.5055   -3.4398   -4.2396 H   0  0  0  0  0  0  0  0  0  0  0  0
   14.8164   -2.0764   -4.7814 H   0  0  0  0  0  0  0  0  0  0  0  0
   13.7117   -3.5382   -4.9422 H   0  0  0  0  0  0  0  0  0  0  0  0
   13.7819   -3.2331   -2.2889 H   0  0  0  0  0  0  0  0  0  0  0  0
   11.9230   -2.0110   -4.2310 H   0  0  0  0  0  0  0  0  0  0  0  0
   11.8520   -3.4960   -3.7680 H   0  0  0  0  0  0  0  0  0  0  0  0
   11.5027   -1.1904   -1.8715 H   0  0  0  0  0  0  0  0  0  0  0  0
   10.1579   -2.0057   -2.8099 H   0  0  0  0  0  0  0  0  0  0  0  0
   11.9235   -3.1572   -0.6789 H   0  0  0  0  0  0  0  0  0  0  0  0
    9.7429   -4.9620   -1.2552 H   0  0  0  0  0  0  0  0  0  0  0  0
   10.8030   -4.6060   -2.7384 H   0  0  0  0  0  0  0  0  0  0  0  0
   11.0458   -5.8533    0.8355 H   0  0  0  0  0  0  0  0  0  0  0  0
   12.7232   -7.5895    1.4499 H   0  0  0  0  0  0  0  0  0  0  0  0
   14.3881   -8.3760   -0.2284 H   0  0  0  0  0  0  0  0  0  0  0  0
   14.3926   -7.4054   -2.5245 H   0  0  0  0  0  0  0  0  0  0  0  0
   12.7175   -5.6745   -3.1481 H   0  0  0  0  0  0  0  0  0  0  0  0
    8.9850   -3.2570   -0.3370 H   0  0  0  0  0  0  0  0  0  0  0  0
    8.0734   -2.8798    1.4997 H   0  0  0  0  0  0  0  0  0  0  0  0
    8.2594   -0.4458    1.5467 H   0  0  0  0  0  0  0  0  0  0  0  0
    7.9306   -0.9581    3.2360 H   0  0  0  0  0  0  0  0  0  0  0  0
   10.5290   -1.0960    2.9750 H   0  0  0  0  0  0  0  0  0  0  0  0
    9.3140   -2.7260    4.0920 H   0  0  0  0  0  0  0  0  0  0  0  0
   10.3599   -5.0593    4.9902 H   0  0  0  0  0  0  0  0  0  0  0  0
    8.6416   -7.3025    4.9795 H   0  0  0  0  0  0  0  0  0  0  0  0
    9.5822   -7.0730    3.3956 H   0  0  0  0  0  0  0  0  0  0  0  0
   10.5926   -7.4883    6.1700 H   0  0  0  0  0  0  0  0  0  0  0  0
   11.0628   -9.5941    5.5424 H   0  0  0  0  0  0  0  0  0  0  0  0
   10.1135   -9.2772    4.0507 H   0  0  0  0  0  0  0  0  0  0  0  0
   11.8935   -9.0359    4.0507 H   0  0  0  0  0  0  0  0  0  0  0  0
   12.5006   -6.4149    5.8086 H   0  0  0  0  0  0  0  0  0  0  0  0
   12.7707   -7.3065    4.2727 H   0  0  0  0  0  0  0  0  0  0  0  0
   11.8122   -5.7872    4.2727 H   0  0  0  0  0  0  0  0  0  0  0  0
    8.5340   -3.9200    5.8760 H   0  0  0  0  0  0  0  0  0  0  0  0
    5.1051   -4.1384    5.4620 H   0  0  0  0  0  0  0  0  0  0  0  0
    6.8637   -2.6050    7.2579 H   0  0  0  0  0  0  0  0  0  0  0  0
    7.5289   -2.7479    5.5690 H   0  0  0  0  0  0  0  0  0  0  0  0
    6.8826    0.0594    5.1948 H   0  0  0  0  0  0  0  0  0  0  0  0
    2.7257   -0.6089    4.9417 H   0  0  0  0  0  0  0  0  0  0  0  0
    3.8080   -2.6600    6.0720 H   0  0  0  0  0  0  0  0  0  0  0  0
    6.1540   -5.4360    7.7430 H   0  0  0  0  0  0  0  0  0  0  0  0
    3.7666   -6.9527    8.3089 H   0  0  0  0  0  0  0  0  0  0  0  0
    1.8946   -5.0703    8.8788 H   0  0  0  0  0  0  0  0  0  0  0  0
    2.1198   -6.4230    9.9765 H   0  0  0  0  0  0  0  0  0  0  0  0
    3.3272   -3.5920   10.1392 H   0  0  0  0  0  0  0  0  0  0  0  0
    2.4475   -4.4243   11.4053 H   0  0  0  0  0  0  0  0  0  0  0  0
    5.1427   -4.4579   11.4137 H   0  0  0  0  0  0  0  0  0  0  0  0
    4.3098   -5.9514   11.8281 H   0  0  0  0  0  0  0  0  0  0  0  0
    5.7650   -5.2590    9.3910 H   0  0  0  0  0  0  0  0  0  0  0  0
    5.4090   -6.7660    9.9790 H   0  0  0  0  0  0  0  0  0  0  0  0
   12.6210   -0.2210   -3.9290 H   0  0  0  0  0  0  0  0  0  0  0  0
   14.8975    1.3174   -3.0322 H   0  0  0  0  0  0  0  0  0  0  0  0
   13.4097    3.2082   -4.1601 H   0  0  0  0  0  0  0  0  0  0  0  0
   14.5579    2.1214   -5.0129 H   0  0  0  0  0  0  0  0  0  0  0  0
   12.8005    1.7493   -5.0129 H   0  0  0  0  0  0  0  0  0  0  0  0
   11.5820    2.5330   -3.0310 H   0  0  0  0  0  0  0  0  0  0  0  0
   10.1266    3.3159   -1.4050 H   0  0  0  0  0  0  0  0  0  0  0  0
   10.7842    0.6474   -1.4393 H   0  0  0  0  0  0  0  0  0  0  0  0
   10.9882    1.0895    0.3229 H   0  0  0  0  0  0  0  0  0  0  0  0
    8.3652    2.9101    0.8774 H   0  0  0  0  0  0  0  0  0  0  0  0
    6.0380    1.7630    0.5520 H   0  0  0  0  0  0  0  0  0  0  0  0
    6.1699   -0.3297   -0.9313 H   0  0  0  0  0  0  0  0  0  0  0  0
    8.6570   -0.5180   -1.5590 H   0  0  0  0  0  0  0  0  0  0  0  0
  1  2  1  0
  2  3  1  0
  3  4  1  0
  4  5  1  0
  5  6  1  0
  6  7  1  0
  7  8  1  0
  8  9  1  0
  9 10  1  0
 10 11  2  0
 11 12  1  0
 12 13  2  0
 13 14  1  0
 14 15  2  0
  8 16  1  0
 16 17  1  0
 17 18  2  0
 17 19  1  0
 19 20  1  0
 20 21  1  0
 19 22  1  0
 22 23  1  0
 23 24  2  0
 23 25  1  0
 25 26  1  0
 26 27  1  0
 27 28  1  0
 27 29  1  0
 25 30  1  0
 30 31  1  0
 31 32  2  0
 31 33  1  0
 33 34  1  0
 34 35  1  0
 35 36  2  0
 36 37  1  0
 37 38  2  0
 38 39  1  0
 33 40  1  0
 40 41  1  0
 41 42  2  0
 41 43  1  0
 43 44  1  0
 44 45  1  0
 45 46  1  0
 46 47  1  0
  5 48  1  0
 48 49  2  0
 48 50  1  0
 50 51  1  0
 51 52  1  0
 51 53  1  0
 53 54  2  0
 53 55  1  0
 55 56  1  0
 56 57  1  0
 57 58  1  0
 58 59  2  0
 59 60  1  0
 60 61  2  0
 61 62  1  0
 56 63  1  0
 63 64  2  0
 63 65  1  0
 15 10  1  0
 39 35  1  0
 47 43  1  0
 62 58  1  0
  1 66  1  0
  1 67  1  0
  1 68  1  0
  3 69  1  0
  3 70  1  0
  4 71  1  0
  4 72  1  0
  5 73  1  1
  6 74  1  0
  6 75  1  0
  7 76  1  0
  7 77  1  0
  8 78  1  1
  9 79  1  0
  9 80  1  0
 11 81  1  0
 12 82  1  0
 13 83  1  0
 14 84  1  0
 15 85  1  0
 16 86  1  0
 19 87  1  6
 20 88  1  0
 20 89  1  0
 21 90  1  0
 22 91  1  0
 25 92  1  1
 26 93  1  0
 26 94  1  0
 27 95  1  0
 28 96  1  0
 28 97  1  0
 28 98  1  0
 29 99  1  0
 29100  1  0
 29101  1  0
 30102  1  0
 33103  1  6
 34104  1  0
 34105  1  0
 36106  1  0
 38107  1  0
 39108  1  0
 40109  1  0
 43110  1  6
 44111  1  0
 44112  1  0
 45113  1  0
 45114  1  0
 46115  1  0
 46116  1  0
 47117  1  0
 47118  1  0
 50119  1  0
 51120  1  1
 52121  1  0
 52122  1  0
 52123  1  0
 55124  1  0
 56125  1  6
 57126  1  0
 57127  1  0
 59128  1  0
 60129  1  0
 61130  1  0
 62131  1  0
M  CHG  4   6   1  47   1  60   1  65  -1
M  END
>  <meeko>  (1) 
{"is_sidechain": [false], "free_energy": -8.563, "intermolecular_energy": -22.83, "internal_energy": -4.636}

$$$$
3uri_ligand
     RDKit          3D

131134  0  0  0  0  0  0  0  0999 V2000
   13.4350   -2.6260   -2.0750 C   0  0  0  0  0  0  0  0  0  0  0  0
   15.2400   -2.7200   -2.2060 S   0  0  0  0  0  0  0  0  0  0  0  0
   15.5080   -4.1010   -1.0530 C   0  0  0  0  0  0  0  0  0  0  0  0
   16.4290   -3.6510    0.0830 C   0  0  0  0  0  0  0  0  0  0  0  0
   15.9240   -3.9730    1.4980 C   0  0  2  0  0  0  0  0  0  0  0  0
   15.1310   -5.2480    1.5410 N   0  0  0  0  0  0  0  0  0  0  0  0
   15.8360   -6.5480    1.5150 C   0  0  0  0  0  0  0  0  0  0  0  0
   14.9100   -7.7810    1.7610 C   0  0  2  0  0  0  0  0  0  0  0  0
   14.5460   -8.6140    0.5040 C   0  0  0  0  0  0  0  0  0  0  0  0
   14.3830   -7.8660   -0.8020 C   0  0  0  0  0  0  0  0  0  0  0  0
   15.3920   -7.8170   -1.7710 C   0  0  0  0  0  0  0  0  0  0  0  0
   15.1860   -7.1370   -2.9740 C   0  0  0  0  0  0  0  0  0  0  0  0
   13.9780   -6.4860   -3.2160 C   0  0  0  0  0  0  0  0  0  0  0  0
   12.9760   -6.5040   -2.2510 C   0  0  0  0  0  0  0  0  0  0  0  0
   13.1790   -7.1840   -1.0500 C   0  0  0  0  0  0  0  0  0  0  0  0
   13.6760   -7.4320    2.4910 N   0  0  0  0  0  0  0  0  0  0  0  0
   13.4920   -7.7480    3.8250 C   0  0  0  0  0  0  0  0  0  0  0  0
   14.3950   -8.2120    4.5170 O   0  0  0  0  0  0  0  0  0  0  0  0
   12.0420   -7.6330    4.3310 C   0  0  2  0  0  0  0  0  0  0  0  0
   11.3740   -9.0050    4.1850 C   0  0  0  0  0  0  0  0  0  0  0  0
   11.8520   -9.6440    2.9890 O   0  0  0  0  0  0  0  0  0  0  0  0
   11.2830   -6.6300    3.5730 N   0  0  0  0  0  0  0  0  0  0  0  0
   10.2130   -5.9670    4.1210 C   0  0  0  0  0  0  0  0  0  0  0  0
    9.8290   -6.2030    5.2670 O   0  0  0  0  0  0  0  0  0  0  0  0
    9.4720   -4.9770    3.1760 C   0  0  2  0  0  0  0  0  0  0  0  0
   10.2800   -4.5730    1.9270 C   0  0  0  0  0  0  0  0  0  0  0  0
    9.7980   -5.1240    0.5660 C   0  0  0  0  0  0  0  0  0  0  0  0
    8.2750   -5.2240    0.4770 C   0  0  0  0  0  0  0  0  0  0  0  0
   10.3530   -4.3640   -0.6380 C   0  0  0  0  0  0  0  0  0  0  0  0
    8.9650   -3.8660    3.9840 N   0  0  0  0  0  0  0  0  0  0  0  0
    7.6620   -3.8230    4.4410 C   0  0  0  0  0  0  0  0  0  0  0  0
    6.8960   -4.7830    4.3930 O   0  0  0  0  0  0  0  0  0  0  0  0
    7.1610   -2.4370    4.8990 C   0  0  2  0  0  0  0  0  0  0  0  0
    8.3540   -1.4550    4.9740 C   0  0  0  0  0  0  0  0  0  0  0  0
    8.0310   -0.1090    4.4100 C   0  0  0  0  0  0  0  0  0  0  0  0
    8.7840    1.0280    4.2080 C   0  0  0  0  0  0  0  0  0  0  0  0
    8.0760    1.9540    3.4960 N   0  0  0  0  0  0  0  0  0  0  0  0
    6.8620    1.4650    3.3920 C   0  0  0  0  0  0  0  0  0  0  0  0
    6.7780    0.2200    3.9460 N   0  0  0  0  0  0  0  0  0  0  0  0
    6.2970   -2.4380    6.1100 N   0  0  0  0  0  0  0  0  0  0  0  0
    4.9880   -1.9880    6.0830 C   0  0  0  0  0  0  0  0  0  0  0  0
    4.5570   -1.2510    5.2030 O   0  0  0  0  0  0  0  0  0  0  0  0
    4.1590   -2.4160    7.3160 C   0  0  2  0  0  0  0  0  0  0  0  0
    4.8290   -3.4960    8.1570 C   0  0  0  0  0  0  0  0  0  0  0  0
    4.3220   -4.7930    7.5540 C   0  0  0  0  0  0  0  0  0  0  0  0
    2.8640   -4.5010    7.2830 C   0  0  0  0  0  0  0  0  0  0  0  0
    2.8440   -3.0560    6.8800 N   0  0  0  0  0  0  0  0  0  0  0  0
   15.0860   -2.8130    2.1080 C   0  0  0  0  0  0  0  0  0  0  0  0
   14.8180   -2.7280    3.3030 O   0  0  0  0  0  0  0  0  0  0  0  0
   14.7320   -1.8200    1.2090 N   0  0  0  0  0  0  0  0  0  0  0  0
   14.2280   -0.5040    1.6280 C   0  0  1  0  0  0  0  0  0  0  0  0
   15.1010    0.6770    1.2250 C   0  0  0  0  0  0  0  0  0  0  0  0
   12.7510   -0.3570    1.1920 C   0  0  0  0  0  0  0  0  0  0  0  0
   11.9880   -1.3210    1.1450 O   0  0  0  0  0  0  0  0  0  0  0  0
   12.3600    0.9190    0.8290 N   0  0  0  0  0  0  0  0  0  0  0  0
   11.3140    1.1010   -0.2130 C   0  0  1  0  0  0  0  0  0  0  0  0
    9.9640    1.4400    0.4180 C   0  0  0  0  0  0  0  0  0  0  0  0
    8.9860    0.3230    0.3700 C   0  0  0  0  0  0  0  0  0  0  0  0
    7.8040    0.1320   -0.3080 C   0  0  0  0  0  0  0  0  0  0  0  0
    7.3210   -1.1060    0.0580 N   0  0  0  0  0  0  0  0  0  0  0  0
    8.1450   -1.6880    0.9300 C   0  0  0  0  0  0  0  0  0  0  0  0
    9.1520   -0.8350    1.1260 N   0  0  0  0  0  0  0  0  0  0  0  0
   11.7070    2.2060   -1.2390 C   0  0  0  0  0  0  0  0  0  0  0  0
   12.1500    1.8410   -2.3550 O   0  0  0  0  0  0  0  0  0  0  0  0
   11.4630    3.4010   -0.8710 O   0  0  0  0  0  0  0  0  0  0  0  0
   13.1447   -2.6109   -1.0141 H   0  0  0  0  0  0  0  0  0  0  0  0
   13.0791   -1.7081   -2.5657 H   0  0  0  0  0  0  0  0  0  0  0  0
   12.9856   -3.5020   -2.5657 H   0  0  0  0  0  0  0  0  0  0  0  0
   14.5422   -4.4220   -0.6357 H   0  0  0  0  0  0  0  0  0  0  0  0
   15.9744   -4.9398   -1.5904 H   0  0  0  0  0  0  0  0  0  0  0  0
   17.4027   -4.1447   -0.0519 H   0  0  0  0  0  0  0  0  0  0  0  0
   16.4813   -2.5541    0.0187 H   0  0  0  0  0  0  0  0  0  0  0  0
   16.8281   -4.1034    2.1108 H   0  0  0  0  0  0  0  0  0  0  0  0
   14.5040   -5.2020    2.3480 H   0  0  0  0  0  0  0  0  0  0  0  0
   14.3780   -5.1910    0.7970 H   0  0  0  0  0  0  0  0  0  0  0  0
   16.3107   -6.6638    0.5295 H   0  0  0  0  0  0  0  0  0  0  0  0
   16.5650   -6.5298    2.3385 H   0  0  0  0  0  0  0  0  0  0  0  0
   15.5421   -8.4281    2.3869 H   0  0  0  0  0  0  0  0  0  0  0  0
   15.3415   -9.3600    0.3603 H   0  0  0  0  0  0  0  0  0  0  0  0
   13.5496   -9.0276    0.7185 H   0  0  0  0  0  0  0  0  0  0  0  0
   16.3536   -8.3173   -1.5841 H   0  0  0  0  0  0  0  0  0  0  0  0
   15.9812   -7.1154   -3.7337 H   0  0  0  0  0  0  0  0  0  0  0  0
   13.8170   -5.9590   -4.1680 H   0  0  0  0  0  0  0  0  0  0  0  0
   12.0250   -5.9827   -2.4348 H   0  0  0  0  0  0  0  0  0  0  0  0
   12.3866   -7.1866   -0.2870 H   0  0  0  0  0  0  0  0  0  0  0  0
   12.8090   -7.4560    1.9600 H   0  0  0  0  0  0  0  0  0  0  0  0
   12.0544   -7.3121    5.3831 H   0  0  0  0  0  0  0  0  0  0  0  0
   11.6205   -9.6279    5.0575 H   0  0  0  0  0  0  0  0  0  0  0  0
   10.2831   -8.8778    4.1228 H   0  0  0  0  0  0  0  0  0  0  0  0
   11.4450  -10.5330    2.9730 H   0  0  0  0  0  0  0  0  0  0  0  0
   11.6050   -6.4480    2.6290 H   0  0  0  0  0  0  0  0  0  0  0  0
    8.6105   -5.4837    2.7167 H   0  0  0  0  0  0  0  0  0  0  0  0
   10.2647   -3.4749    1.8637 H   0  0  0  0  0  0  0  0  0  0  0  0
   11.2750   -5.0174    2.0767 H   0  0  0  0  0  0  0  0  0  0  0  0
   10.2125   -6.1419    0.5213 H   0  0  0  0  0  0  0  0  0  0  0  0
    7.8495   -5.2519    1.4910 H   0  0  0  0  0  0  0  0  0  0  0  0
    7.8810   -4.3498   -0.0620 H   0  0  0  0  0  0  0  0  0  0  0  0
    7.9987   -6.1422   -0.0620 H   0  0  0  0  0  0  0  0  0  0  0  0
   10.9681   -3.5218   -0.2882 H   0  0  0  0  0  0  0  0  0  0  0  0
   10.9706   -5.0413   -1.2462 H   0  0  0  0  0  0  0  0  0  0  0  0
    9.5199   -3.9819   -1.2462 H   0  0  0  0  0  0  0  0  0  0  0  0
    9.3460   -2.9540    3.7270 H   0  0  0  0  0  0  0  0  0  0  0  0
    6.4610   -2.0782    4.1300 H   0  0  0  0  0  0  0  0  0  0  0  0
    8.6443   -1.3342    6.0281 H   0  0  0  0  0  0  0  0  0  0  0  0
    9.1713   -1.8794    4.3724 H   0  0  0  0  0  0  0  0  0  0  0  0
    9.8129    1.1699    4.5702 H   0  0  0  0  0  0  0  0  0  0  0  0
    6.0199    1.9913    2.9188 H   0  0  0  0  0  0  0  0  0  0  0  0
    5.9450   -0.3540    3.9900 H   0  0  0  0  0  0  0  0  0  0  0  0
    6.4780   -3.2450    6.6970 H   0  0  0  0  0  0  0  0  0  0  0  0
    4.0347   -1.4888    7.8947 H   0  0  0  0  0  0  0  0  0  0  0  0
    5.9242   -3.4298    8.0792 H   0  0  0  0  0  0  0  0  0  0  0  0
    4.5959   -3.4059    9.2282 H   0  0  0  0  0  0  0  0  0  0  0  0
    4.8566   -5.0304    6.6224 H   0  0  0  0  0  0  0  0  0  0  0  0
    4.4730   -5.6623    8.2110 H   0  0  0  0  0  0  0  0  0  0  0  0
    2.4836   -5.1374    6.4704 H   0  0  0  0  0  0  0  0  0  0  0  0
    2.2257   -4.7027    8.1559 H   0  0  0  0  0  0  0  0  0  0  0  0
    2.7410   -2.9750    5.8580 H   0  0  0  0  0  0  0  0  0  0  0  0
    2.0390   -2.5750    7.3030 H   0  0  0  0  0  0  0  0  0  0  0  0
   14.9580   -1.9040    0.2250 H   0  0  0  0  0  0  0  0  0  0  0  0
   14.2791   -0.4715    2.7263 H   0  0  0  0  0  0  0  0  0  0  0  0
   15.4743    1.1820    2.1281 H   0  0  0  0  0  0  0  0  0  0  0  0
   15.9519    0.3171    0.6279 H   0  0  0  0  0  0  0  0  0  0  0  0
   14.5074    1.3849    0.6279 H   0  0  0  0  0  0  0  0  0  0  0  0
   13.1300    1.5890    0.7490 H   0  0  0  0  0  0  0  0  0  0  0  0
   11.2289    0.1452   -0.7507 H   0  0  0  0  0  0  0  0  0  0  0  0
   10.1309    1.7107    1.4710 H   0  0  0  0  0  0  0  0  0  0  0  0
    9.5352    2.2684   -0.1650 H   0  0  0  0  0  0  0  0  0  0  0  0
    7.3329    0.8354   -1.0104 H   0  0  0  0  0  0  0  0  0  0  0  0
    6.4570   -1.5190   -0.2840 H   0  0  0  0  0  0  0  0  0  0  0  0
    8.0193   -2.6765    1.3959 H   0  0  0  0  0  0  0  0  0  0  0  0
    9.9380   -1.0020    1.7500 H   0  0  0  0  0  0  0  0  0  0  0  0
  1  2  1  0
  2  3  1  0
  3  4  1  0
  4  5  1  0
  5  6  1  0
  6  7  1  0
  7  8  1  0
  8  9  1  0
  9 10  1  0
 10 11  2  0
 11 12  1  0
 12 13  2  0
 13 14  1  0
 14 15  2  0
  8 16  1  0
 16 17  1  0
 17 18  2  0
 17 19  1  0
 19 20  1  0
 20 21  1  0
 19 22  1  0
 22 23  1  0
 23 24  2  0
 23 25  1  0
 25 26  1  0
 26 27  1  0
 27 28  1  0
 27 29  1  0
 25 30  1  0
 30 31  1  0
 31 32  2  0
 31 33  1  0
 33 34  1  0
 34 35  1  0
 35 36  2  0
 36 37  1  0
 37 38  2  0
 38 39  1  0
 33 40  1  0
 40 41  1  0
 41 42  2  0
 41 43  1  0
 43 44  1  0
 44 45  1  0
 45 46  1  0
 46 47  1  0
  5 48  1  0
 48 49  2  0
 48 50  1  0
 50 51  1  0
 51 52  1  0
 51 53  1  0
 53 54  2  0
 53 55  1  0
 55 56  1  0
 56 57  1  0
 57 58  1  0
 58 59  2  0
 59 60  1  0
 60 61  2  0
 61 62  1  0
 56 63  1  0
 63 64  2  0
 63 65  1  0
 15 10  1  0
 39 35  1  0
 47 43  1  0
 62 58  1  0
  1 66  1  0
  1 67  1  0
  1 68  1  0
  3 69  1  0
  3 70  1  0
  4 71  1  0
  4 72  1  0
  5 73  1  1
  6 74  1  0
  6 75  1  0
  7 76  1  0
  7 77  1  0
  8 78  1  1
  9 79  1  0
  9 80  1  0
 11 81  1  0
 12 82  1  0
 13 83  1  0
 14 84  1  0
 15 85  1  0
 16 86  1  0
 19 87  1  1
 20 88  1  0
 20 89  1  0
 21 90  1  0
 22 91  1  0
 25 92  1  6
 26 93  1  0
 26 94  1  0
 27 95  1  0
 28 96  1  0
 28 97  1  0
 28 98  1  0
 29 99  1  0
 29100  1  0
 29101  1  0
 30102  1  0
 33103  1  6
 34104  1  0
 34105  1  0
 36106  1  0
 38107  1  0
 39108  1  0
 40109  1  0
 43110  1  1
 44111  1  0
 44112  1  0
 45113  1  0
 45114  1  0
 46115  1  0
 46116  1  0
 47117  1  0
 47118  1  0
 50119  1  0
 51120  1  1
 52121  1  0
 52122  1  0
 52123  1  0
 55124  1  0
 56125  1  6
 57126  1  0
 57127  1  0
 59128  1  0
 60129  1  0
 61130  1  0
 62131  1  0
M  CHG  4   6   1  47   1  60   1  65  -1
M  END
>  <meeko>  (2) 
{"is_sidechain": [false], "free_energy": -8.476, "intermolecular_energy": -20.3, "internal_energy": -6.935}

$$$$
3uri_ligand
     RDKit          3D

131134  0  0  0  0  0  0  0  0999 V2000
   14.8650   -2.9640   -1.0320 C   0  0  0  0  0  0  0  0  0  0  0  0
   16.3740   -3.8730   -0.6040 S   0  0  0  0  0  0  0  0  0  0  0  0
   16.5750   -3.2480    1.0930 C   0  0  0  0  0  0  0  0  0  0  0  0
   16.1010   -4.3080    2.0900 C   0  0  0  0  0  0  0  0  0  0  0  0
   14.9550   -3.8680    3.0130 C   0  0  2  0  0  0  0  0  0  0  0  0
   13.6220   -4.3820    2.5480 N   0  0  0  0  0  0  0  0  0  0  0  0
   13.5620   -5.3400    1.4230 C   0  0  0  0  0  0  0  0  0  0  0  0
   13.2680   -6.8120    1.8550 C   0  0  2  0  0  0  0  0  0  0  0  0
   13.0390   -7.8210    0.7000 C   0  0  0  0  0  0  0  0  0  0  0  0
   13.5960   -7.4580   -0.6610 C   0  0  0  0  0  0  0  0  0  0  0  0
   12.8420   -6.7800   -1.6250 C   0  0  0  0  0  0  0  0  0  0  0  0
   13.4060   -6.4420   -2.8580 C   0  0  0  0  0  0  0  0  0  0  0  0
   14.7240   -6.7900   -3.1460 C   0  0  0  0  0  0  0  0  0  0  0  0
   15.4770   -7.4880   -2.2070 C   0  0  0  0  0  0  0  0  0  0  0  0
   14.9160   -7.8250   -0.9750 C   0  0  0  0  0  0  0  0  0  0  0  0
   12.1560   -6.9130    2.8190 N   0  0  0  0  0  0  0  0  0  0  0  0
   12.3030   -7.5150    4.0560 C   0  0  0  0  0  0  0  0  0  0  0  0
   13.3970   -7.8760    4.4810 O   0  0  0  0  0  0  0  0  0  0  0  0
   10.9860   -7.8470    4.7830 C   0  0  2  0  0  0  0  0  0  0  0  0
   10.6780   -9.3320    4.5600 C   0  0  0  0  0  0  0  0  0  0  0  0
   11.3870   -9.7980    3.3990 O   0  0  0  0  0  0  0  0  0  0  0  0
    9.8730   -7.0300    4.2840 N   0  0  0  0  0  0  0  0  0  0  0  0
    8.9350   -6.4920    5.1310 C   0  0  0  0  0  0  0  0  0  0  0  0
    8.9750   -6.6930    6.3460 O   0  0  0  0  0  0  0  0  0  0  0  0
    7.7810   -5.7000    4.4500 C   0  0  2  0  0  0  0  0  0  0  0  0
    8.0480   -5.3400    2.9760 C   0  0  0  0  0  0  0  0  0  0  0  0
    8.5540   -3.9110    2.6780 C   0  0  0  0  0  0  0  0  0  0  0  0
   10.0800   -3.8140    2.6810 C   0  0  0  0  0  0  0  0  0  0  0  0
    7.9850   -3.3110    1.3930 C   0  0  0  0  0  0  0  0  0  0  0  0
    7.4250   -4.5750    5.3180 N   0  0  0  0  0  0  0  0  0  0  0  0
    6.1940   -4.4840    5.9370 C   0  0  0  0  0  0  0  0  0  0  0  0
    5.3900   -5.4130    5.9840 O   0  0  0  0  0  0  0  0  0  0  0  0
    5.8090   -3.0830    6.4560 C   0  0  2  0  0  0  0  0  0  0  0  0
    4.3630   -3.1150    7.0050 C   0  0  0  0  0  0  0  0  0  0  0  0
    4.1530   -2.1610    8.1360 C   0  0  0  0  0  0  0  0  0  0  0  0
    4.7230   -2.0500    9.3860 C   0  0  0  0  0  0  0  0  0  0  0  0
    4.3210   -0.8970    9.9980 N   0  0  0  0  0  0  0  0  0  0  0  0
    3.4020   -0.3830    9.2120 C   0  0  0  0  0  0  0  0  0  0  0  0
    3.2520   -1.1220    8.0740 N   0  0  0  0  0  0  0  0  0  0  0  0
    6.0780   -1.9580    5.5200 N   0  0  0  0  0  0  0  0  0  0  0  0
    7.3620   -1.6040    5.1440 C   0  0  0  0  0  0  0  0  0  0  0  0
    8.3560   -1.9240    5.7870 O   0  0  0  0  0  0  0  0  0  0  0  0
    7.4130   -0.6850    3.9010 C   0  0  2  0  0  0  0  0  0  0  0  0
    8.8030   -0.1320    3.6080 C   0  0  0  0  0  0  0  0  0  0  0  0
    8.8480    1.1700    4.3870 C   0  0  0  0  0  0  0  0  0  0  0  0
    7.4730    1.7560    4.1600 C   0  0  0  0  0  0  0  0  0  0  0  0
    6.5630    0.5640    4.1240 N   0  0  0  0  0  0  0  0  0  0  0  0
   14.8920   -2.3230    3.1850 C   0  0  0  0  0  0  0  0  0  0  0  0
   15.6070   -1.7000    3.9650 O   0  0  0  0  0  0  0  0  0  0  0  0
   14.0210   -1.6790    2.3210 N   0  0  0  0  0  0  0  0  0  0  0  0
   14.0440   -0.2260    2.0980 C   0  0  1  0  0  0  0  0  0  0  0  0
   15.1670    0.2680    1.1950 C   0  0  0  0  0  0  0  0  0  0  0  0
   12.6400    0.2480    1.6530 C   0  0  0  0  0  0  0  0  0  0  0  0
   11.7190   -0.5440    1.4560 O   0  0  0  0  0  0  0  0  0  0  0  0
   12.5030    1.6100    1.4610 N   0  0  0  0  0  0  0  0  0  0  0  0
   11.5570    2.1170    0.4310 C   0  0  1  0  0  0  0  0  0  0  0  0
   10.2780    2.6520    1.0750 C   0  0  0  0  0  0  0  0  0  0  0  0
    9.0470    1.9500    0.6290 C   0  0  0  0  0  0  0  0  0  0  0  0
    7.7140    2.2900    0.6320 C   0  0  0  0  0  0  0  0  0  0  0  0
    7.0210    1.2230    0.1020 N   0  0  0  0  0  0  0  0  0  0  0  0
    7.8610    0.2400   -0.2260 C   0  0  0  0  0  0  0  0  0  0  0  0
    9.0850    0.6680    0.0890 N   0  0  0  0  0  0  0  0  0  0  0  0
   12.2050    3.2270   -0.4510 C   0  0  0  0  0  0  0  0  0  0  0  0
   12.5900    2.9120   -1.6030 O   0  0  0  0  0  0  0  0  0  0  0  0
   12.2110    4.3940    0.0610 O   0  0  0  0  0  0  0  0  0  0  0  0
   14.3501   -2.6538   -0.1108 H   0  0  0  0  0  0  0  0  0  0  0  0
   15.1281   -2.0740   -1.6225 H   0  0  0  0  0  0  0  0  0  0  0  0
   14.2012   -3.6127   -1.6225 H   0  0  0  0  0  0  0  0  0  0  0  0
   17.6356   -3.0212    1.2764 H   0  0  0  0  0  0  0  0  0  0  0  0
   15.9759   -2.3341    1.2191 H   0  0  0  0  0  0  0  0  0  0  0  0
   15.7614   -5.1849    1.5193 H   0  0  0  0  0  0  0  0  0  0  0  0
   16.9591   -4.5175    2.7455 H   0  0  0  0  0  0  0  0  0  0  0  0
   15.1775   -4.3146    3.9933 H   0  0  0  0  0  0  0  0  0  0  0  0
   13.1300   -4.7590    3.3620 H   0  0  0  0  0  0  0  0  0  0  0  0
   12.9850   -3.5480    2.3950 H   0  0  0  0  0  0  0  0  0  0  0  0
   12.7668   -5.0162    0.7354 H   0  0  0  0  0  0  0  0  0  0  0  0
   14.5562   -5.3397    0.9523 H   0  0  0  0  0  0  0  0  0  0  0  0
   14.2099   -7.1068    2.3408 H   0  0  0  0  0  0  0  0  0  0  0  0
   13.4958   -8.7756    0.9999 H   0  0  0  0  0  0  0  0  0  0  0  0
   11.9482   -7.8474    0.5605 H   0  0  0  0  0  0  0  0  0  0  0  0
   11.7972   -6.5109   -1.4107 H   0  0  0  0  0  0  0  0  0  0  0  0
   12.8071   -5.8991   -3.6041 H   0  0  0  0  0  0  0  0  0  0  0  0
   15.1683   -6.5135   -4.1136 H   0  0  0  0  0  0  0  0  0  0  0  0
   16.5142   -7.7740   -2.4360 H   0  0  0  0  0  0  0  0  0  0  0  0
   15.5138   -8.3846   -0.2405 H   0  0  0  0  0  0  0  0  0  0  0  0
   11.2240   -7.0390    2.4310 H   0  0  0  0  0  0  0  0  0  0  0  0
   11.1026   -7.6268    5.8544 H   0  0  0  0  0  0  0  0  0  0  0  0
   10.9965   -9.9091    5.4406 H   0  0  0  0  0  0  0  0  0  0  0  0
    9.5966   -9.4640    4.4076 H   0  0  0  0  0  0  0  0  0  0  0  0
   12.1120   -9.1590    3.2480 H   0  0  0  0  0  0  0  0  0  0  0  0
    9.8470   -6.8750    3.2830 H   0  0  0  0  0  0  0  0  0  0  0  0
    6.8975   -6.3482    4.3536 H   0  0  0  0  0  0  0  0  0  0  0  0
    8.8023   -6.0442    2.5949 H   0  0  0  0  0  0  0  0  0  0  0  0
    7.0644   -5.3999    2.4872 H   0  0  0  0  0  0  0  0  0  0  0  0
    8.1692   -3.3058    3.5120 H   0  0  0  0  0  0  0  0  0  0  0  0
   10.4439   -3.7909    3.7188 H   0  0  0  0  0  0  0  0  0  0  0  0
   10.5039   -4.6870    2.1632 H   0  0  0  0  0  0  0  0  0  0  0  0
   10.3900   -2.8943    2.1632 H   0  0  0  0  0  0  0  0  0  0  0  0
    7.2483   -2.5342    1.6459 H   0  0  0  0  0  0  0  0  0  0  0  0
    8.8002   -2.8654    0.8041 H   0  0  0  0  0  0  0  0  0  0  0  0
    7.4968   -4.1015    0.8041 H   0  0  0  0  0  0  0  0  0  0  0  0
    7.8060   -3.6780    5.0160 H   0  0  0  0  0  0  0  0  0  0  0  0
    6.4935   -2.8486    7.2846 H   0  0  0  0  0  0  0  0  0  0  0  0
    3.6717   -2.8526    6.1906 H   0  0  0  0  0  0  0  0  0  0  0  0
    4.1757   -4.1292    7.3874 H   0  0  0  0  0  0  0  0  0  0  0  0
    5.4073   -2.7882    9.8296 H   0  0  0  0  0  0  0  0  0  0  0  0
    2.8271    0.5263    9.4416 H   0  0  0  0  0  0  0  0  0  0  0  0
    2.6040   -0.9260    7.3210 H   0  0  0  0  0  0  0  0  0  0  0  0
    5.3690   -1.8950    4.7980 H   0  0  0  0  0  0  0  0  0  0  0  0
    7.0623   -1.3233    3.0766 H   0  0  0  0  0  0  0  0  0  0  0  0
    9.5820   -0.8251    3.9583 H   0  0  0  0  0  0  0  0  0  0  0  0
    8.9857    0.0099    2.5326 H   0  0  0  0  0  0  0  0  0  0  0  0
    9.0258    0.9839    5.4565 H   0  0  0  0  0  0  0  0  0  0  0  0
    9.6602    1.8379    4.0643 H   0  0  0  0  0  0  0  0  0  0  0  0
    7.1970    2.4322    4.9826 H   0  0  0  0  0  0  0  0  0  0  0  0
    7.4182    2.3544    3.2386 H   0  0  0  0  0  0  0  0  0  0  0  0
    6.0540    0.4810    5.0160 H   0  0  0  0  0  0  0  0  0  0  0  0
    5.8590    0.6710    3.3820 H   0  0  0  0  0  0  0  0  0  0  0  0
   13.4350   -2.2060    1.6840 H   0  0  0  0  0  0  0  0  0  0  0  0
   14.2895    0.2464    3.0606 H   0  0  0  0  0  0  0  0  0  0  0  0
   16.0000    0.6344    1.8129 H   0  0  0  0  0  0  0  0  0  0  0  0
   15.5176   -0.5590    0.5600 H   0  0  0  0  0  0  0  0  0  0  0  0
   14.7943    1.0853    0.5600 H   0  0  0  0  0  0  0  0  0  0  0  0
   13.3840    2.1310    1.4910 H   0  0  0  0  0  0  0  0  0  0  0  0
   11.3030    1.2647   -0.2164 H   0  0  0  0  0  0  0  0  0  0  0  0
   10.3655    2.5408    2.1659 H   0  0  0  0  0  0  0  0  0  0  0  0
   10.1783    3.7034    0.7674 H   0  0  0  0  0  0  0  0  0  0  0  0
    7.2821    3.2361    0.9903 H   0  0  0  0  0  0  0  0  0  0  0  0
    6.0130    1.1850   -0.0210 H   0  0  0  0  0  0  0  0  0  0  0  0
    7.5968   -0.7317   -0.6688 H   0  0  0  0  0  0  0  0  0  0  0  0
    9.9380    0.1280   -0.0420 H   0  0  0  0  0  0  0  0  0  0  0  0
  1  2  1  0
  2  3  1  0
  3  4  1  0
  4  5  1  0
  5  6  1  0
  6  7  1  0
  7  8  1  0
  8  9  1  0
  9 10  1  0
 10 11  2  0
 11 12  1  0
 12 13  2  0
 13 14  1  0
 14 15  2  0
  8 16  1  0
 16 17  1  0
 17 18  2  0
 17 19  1  0
 19 20  1  0
 20 21  1  0
 19 22  1  0
 22 23  1  0
 23 24  2  0
 23 25  1  0
 25 26  1  0
 26 27  1  0
 27 28  1  0
 27 29  1  0
 25 30  1  0
 30 31  1  0
 31 32  2  0
 31 33  1  0
 33 34  1  0
 34 35  1  0
 35 36  2  0
 36 37  1  0
 37 38  2  0
 38 39  1  0
 33 40  1  0
 40 41  1  0
 41 42  2  0
 41 43  1  0
 43 44  1  0
 44 45  1  0
 45 46  1  0
 46 47  1  0
  5 48  1  0
 48 49  2  0
 48 50  1  0
 50 51  1  0
 51 52  1  0
 51 53  1  0
 53 54  2  0
 53 55  1  0
 55 56  1  0
 56 57  1  0
 57 58  1  0
 58 59  2  0
 59 60  1  0
 60 61  2  0
 61 62  1  0
 56 63  1  0
 63 64  2  0
 63 65  1  0
 15 10  1  0
 39 35  1  0
 47 43  1  0
 62 58  1  0
  1 66  1  0
  1 67  1  0
  1 68  1  0
  3 69  1  0
  3 70  1  0
  4 71  1  0
  4 72  1  0
  5 73  1  1
  6 74  1  0
  6 75  1  0
  7 76  1  0
  7 77  1  0
  8 78  1  1
  9 79  1  0
  9 80  1  0
 11 81  1  0
 12 82  1  0
 13 83  1  0
 14 84  1  0
 15 85  1  0
 16 86  1  0
 19 87  1  1
 20 88  1  0
 20 89  1  0
 21 90  1  0
 22 91  1  0
 25 92  1  6
 26 93  1  0
 26 94  1  0
 27 95  1  0
 28 96  1  0
 28 97  1  0
 28 98  1  0
 29 99  1  0
 29100  1  0
 29101  1  0
 30102  1  0
 33103  1  1
 34104  1  0
 34105  1  0
 36106  1  0
 38107  1  0
 39108  1  0
 40109  1  0
 43110  1  6
 44111  1  0
 44112  1  0
 45113  1  0
 45114  1  0
 46115  1  0
 46116  1  0
 47117  1  0
 47118  1  0
 50119  1  0
 51120  1  1
 52121  1  0
 52122  1  0
 52123  1  0
 55124  1  0
 56125  1  6
 57126  1  0
 57127  1  0
 59128  1  0
 60129  1  0
 61130  1  0
 62131  1  0
M  CHG  4   6   1  47   1  60   1  65  -1
M  END
>  <meeko>  (3) 
{"is_sidechain": [false], "free_energy": -8.155, "intermolecular_energy": -20.482, "internal_energy": -5.898}

$$$$
3uri_ligand
     RDKit          3D

131134  0  0  0  0  0  0  0  0999 V2000
   15.5410   -8.1030    4.0970 C   0  0  0  0  0  0  0  0  0  0  0  0
   15.0560   -9.4170    2.9470 S   0  0  0  0  0  0  0  0  0  0  0  0
   15.3150   -8.5070    1.3940 C   0  0  0  0  0  0  0  0  0  0  0  0
   13.9610   -8.1140    0.7970 C   0  0  0  0  0  0  0  0  0  0  0  0
   13.4540   -6.7190    1.1950 C   0  0  2  0  0  0  0  0  0  0  0  0
   12.1160   -6.7750    1.8770 N   0  0  0  0  0  0  0  0  0  0  0  0
   12.0450   -7.0900    3.3200 C   0  0  0  0  0  0  0  0  0  0  0  0
   10.9660   -6.2720    4.0990 C   0  0  2  0  0  0  0  0  0  0  0  0
   10.4820   -6.8920    5.4350 C   0  0  0  0  0  0  0  0  0  0  0  0
   11.4100   -7.8720    6.1230 C   0  0  0  0  0  0  0  0  0  0  0  0
   11.1510   -9.2460    6.1700 C   0  0  0  0  0  0  0  0  0  0  0  0
   12.0500  -10.1160    6.7930 C   0  0  0  0  0  0  0  0  0  0  0  0
   13.2090   -9.6210    7.3870 C   0  0  0  0  0  0  0  0  0  0  0  0
   13.4660   -8.2540    7.3710 C   0  0  0  0  0  0  0  0  0  0  0  0
   12.5700   -7.3840    6.7480 C   0  0  0  0  0  0  0  0  0  0  0  0
    9.7960   -5.9330    3.2660 N   0  0  0  0  0  0  0  0  0  0  0  0
    9.7110   -4.7460    2.5590 C   0  0  0  0  0  0  0  0  0  0  0  0
   10.6580   -3.9700    2.4710 O   0  0  0  0  0  0  0  0  0  0  0  0
    8.3060   -4.3960    2.0360 C   0  0  2  0  0  0  0  0  0  0  0  0
    8.4170   -4.0790    0.5400 C   0  0  0  0  0  0  0  0  0  0  0  0
    8.0390   -2.7110    0.3120 O   0  0  0  0  0  0  0  0  0  0  0  0
    7.7380   -3.2420    2.7450 N   0  0  0  0  0  0  0  0  0  0  0  0
    7.2310   -3.3530    4.0170 C   0  0  0  0  0  0  0  0  0  0  0  0
    7.2110   -4.4330    4.6080 O   0  0  0  0  0  0  0  0  0  0  0  0
    6.6100   -2.0570    4.6150 C   0  0  2  0  0  0  0  0  0  0  0  0
    7.6450   -0.9910    5.0210 C   0  0  0  0  0  0  0  0  0  0  0  0
    7.7620    0.2590    4.1200 C   0  0  0  0  0  0  0  0  0  0  0  0
    6.5790    1.2130    4.2790 C   0  0  0  0  0  0  0  0  0  0  0  0
    9.0810    1.0140    4.2830 C   0  0  0  0  0  0  0  0  0  0  0  0
    5.6620   -2.4460    5.6610 N   0  0  0  0  0  0  0  0  0  0  0  0
    4.4640   -1.7850    5.8500 C   0  0  0  0  0  0  0  0  0  0  0  0
    4.0040   -0.9740    5.0490 O   0  0  0  0  0  0  0  0  0  0  0  0
    3.7830   -2.0150    7.2160 C   0  0  2  0  0  0  0  0  0  0  0  0
    4.7120   -1.5130    8.3470 C   0  0  0  0  0  0  0  0  0  0  0  0
    3.9610   -1.1110    9.5760 C   0  0  0  0  0  0  0  0  0  0  0  0
    3.9500   -1.5940   10.8660 C   0  0  0  0  0  0  0  0  0  0  0  0
    3.2200   -0.7750   11.6810 N   0  0  0  0  0  0  0  0  0  0  0  0
    2.6640    0.1080   10.8840 C   0  0  0  0  0  0  0  0  0  0  0  0
    3.0700   -0.0630    9.5910 N   0  0  0  0  0  0  0  0  0  0  0  0
    3.2400   -3.3820    7.4370 N   0  0  0  0  0  0  0  0  0  0  0  0
    4.0540   -4.4570    7.7490 C   0  0  0  0  0  0  0  0  0  0  0  0
    5.2600   -4.4640    7.5260 O   0  0  0  0  0  0  0  0  0  0  0  0
    3.2850   -5.6780    8.3040 C   0  0  2  0  0  0  0  0  0  0  0  0
    2.0920   -5.3030    9.1750 C   0  0  0  0  0  0  0  0  0  0  0  0
    2.6760   -5.2240   10.5750 C   0  0  0  0  0  0  0  0  0  0  0  0
    3.6150   -6.4080   10.6250 C   0  0  0  0  0  0  0  0  0  0  0  0
    4.1770   -6.4940    9.2360 N   0  0  0  0  0  0  0  0  0  0  0  0
   13.3870   -5.7450   -0.0150 C   0  0  0  0  0  0  0  0  0  0  0  0
   14.2720   -5.6560   -0.8610 O   0  0  0  0  0  0  0  0  0  0  0  0
   12.2020   -5.0350   -0.1220 N   0  0  0  0  0  0  0  0  0  0  0  0
   11.8080   -4.3150   -1.3430 C   0  0  1  0  0  0  0  0  0  0  0  0
   10.7010   -4.9790   -2.1520 C   0  0  0  0  0  0  0  0  0  0  0  0
   11.5170   -2.8360   -0.9950 C   0  0  0  0  0  0  0  0  0  0  0  0
   11.1830   -2.0200   -1.8530 O   0  0  0  0  0  0  0  0  0  0  0  0
   11.6890   -2.4900    0.3330 N   0  0  0  0  0  0  0  0  0  0  0  0
   12.1340   -1.1140    0.6840 C   0  0  1  0  0  0  0  0  0  0  0  0
   11.0200   -0.3390    1.3870 C   0  0  0  0  0  0  0  0  0  0  0  0
   10.1380    0.4120    0.4580 C   0  0  0  0  0  0  0  0  0  0  0  0
    8.8370    0.8520    0.5400 C   0  0  0  0  0  0  0  0  0  0  0  0
    8.5450    1.4860   -0.6480 N   0  0  0  0  0  0  0  0  0  0  0  0
    9.6020    1.4580   -1.4610 C   0  0  0  0  0  0  0  0  0  0  0  0
   10.5670    0.8120   -0.8040 N   0  0  0  0  0  0  0  0  0  0  0  0
   13.4090   -1.1310    1.5800 C   0  0  0  0  0  0  0  0  0  0  0  0
   13.8590   -0.0310    1.9830 O   0  0  0  0  0  0  0  0  0  0  0  0
   13.8390   -2.2900    1.8910 O   0  0  0  0  0  0  0  0  0  0  0  0
   15.4112   -8.4545    5.1312 H   0  0  0  0  0  0  0  0  0  0  0  0
   16.5956   -7.8394    3.9289 H   0  0  0  0  0  0  0  0  0  0  0  0
   14.9105   -7.2175    3.9289 H   0  0  0  0  0  0  0  0  0  0  0  0
   15.9036   -7.5998    1.5951 H   0  0  0  0  0  0  0  0  0  0  0  0
   15.8564   -9.1468    0.6816 H   0  0  0  0  0  0  0  0  0  0  0  0
   14.0499   -8.1445   -0.2990 H   0  0  0  0  0  0  0  0  0  0  0  0
   13.2296   -8.8317    1.1970 H   0  0  0  0  0  0  0  0  0  0  0  0
   14.1934   -6.3287    1.9098 H   0  0  0  0  0  0  0  0  0  0  0  0
   11.6270   -5.8980    1.6810 H   0  0  0  0  0  0  0  0  0  0  0  0
   11.4810   -7.4010    1.3030 H   0  0  0  0  0  0  0  0  0  0  0  0
   11.8129   -8.1597    3.4291 H   0  0  0  0  0  0  0  0  0  0  0  0
   13.0202   -6.8207    3.7518 H   0  0  0  0  0  0  0  0  0  0  0  0
   11.5132   -5.3556    4.3650 H   0  0  0  0  0  0  0  0  0  0  0  0
   10.2974   -6.0643    6.1356 H   0  0  0  0  0  0  0  0  0  0  0  0
    9.5949   -7.4844    5.1663 H   0  0  0  0  0  0  0  0  0  0  0  0
   10.2331   -9.6445    5.7133 H   0  0  0  0  0  0  0  0  0  0  0  0
   11.8417  -11.1959    6.8145 H   0  0  0  0  0  0  0  0  0  0  0  0
   13.9194  -10.3098    7.8676 H   0  0  0  0  0  0  0  0  0  0  0  0
   14.3746   -7.8591    7.8489 H   0  0  0  0  0  0  0  0  0  0  0  0
   12.7744   -6.3032    6.7462 H   0  0  0  0  0  0  0  0  0  0  0  0
    8.8900   -6.2570    3.5960 H   0  0  0  0  0  0  0  0  0  0  0  0
    7.6367   -5.2520    2.2074 H   0  0  0  0  0  0  0  0  0  0  0  0
    9.4544   -4.2332    0.2083 H   0  0  0  0  0  0  0  0  0  0  0  0
    7.7488   -4.7440   -0.0268 H   0  0  0  0  0  0  0  0  0  0  0  0
    8.1510   -2.5530   -0.6460 H   0  0  0  0  0  0  0  0  0  0  0  0
    7.7560   -2.3600    2.2460 H   0  0  0  0  0  0  0  0  0  0  0  0
    6.0519   -1.5218    3.8326 H   0  0  0  0  0  0  0  0  0  0  0  0
    7.3856   -0.6464    6.0329 H   0  0  0  0  0  0  0  0  0  0  0  0
    8.6192   -1.4945    4.9352 H   0  0  0  0  0  0  0  0  0  0  0  0
    7.7452   -0.1404    3.0952 H   0  0  0  0  0  0  0  0  0  0  0  0
    6.3791    1.3742    5.3486 H   0  0  0  0  0  0  0  0  0  0  0  0
    6.8169    2.1749    3.8014 H   0  0  0  0  0  0  0  0  0  0  0  0
    5.6893    0.7767    3.8014 H   0  0  0  0  0  0  0  0  0  0  0  0
    9.3014    1.1402    5.3533 H   0  0  0  0  0  0  0  0  0  0  0  0
    9.8916    0.4431    3.8065 H   0  0  0  0  0  0  0  0  0  0  0  0
    8.9992    2.0021    3.8065 H   0  0  0  0  0  0  0  0  0  0  0  0
    6.1010   -2.7670    6.5240 H   0  0  0  0  0  0  0  0  0  0  0  0
    2.8644   -1.4099    7.2234 H   0  0  0  0  0  0  0  0  0  0  0  0
    5.4124   -2.3191    8.6107 H   0  0  0  0  0  0  0  0  0  0  0  0
    5.2383   -0.6222    7.9734 H   0  0  0  0  0  0  0  0  0  0  0  0
    4.4586   -2.5122   11.1948 H   0  0  0  0  0  0  0  0  0  0  0  0
    1.9608    0.8863   11.2153 H   0  0  0  0  0  0  0  0  0  0  0  0
    2.7750    0.4940    8.7990 H   0  0  0  0  0  0  0  0  0  0  0  0
    2.3400   -3.3560    7.9040 H   0  0  0  0  0  0  0  0  0  0  0  0
    2.9591   -6.2245    7.4067 H   0  0  0  0  0  0  0  0  0  0  0  0
    1.6735   -4.3326    8.8697 H   0  0  0  0  0  0  0  0  0  0  0  0
    1.2660   -6.0254    9.0988 H   0  0  0  0  0  0  0  0  0  0  0  0
    3.2225   -4.2807   10.7218 H   0  0  0  0  0  0  0  0  0  0  0  0
    1.9098   -5.2475   11.3639 H   0  0  0  0  0  0  0  0  0  0  0  0
    4.4160   -6.2394   11.3598 H   0  0  0  0  0  0  0  0  0  0  0  0
    3.1074   -7.3346   10.9313 H   0  0  0  0  0  0  0  0  0  0  0  0
    5.1350   -6.1140    9.2180 H   0  0  0  0  0  0  0  0  0  0  0  0
    4.2350   -7.4750    8.9320 H   0  0  0  0  0  0  0  0  0  0  0  0
   11.4810   -5.1160    0.5850 H   0  0  0  0  0  0  0  0  0  0  0  0
   12.6623   -4.3557   -2.0347 H   0  0  0  0  0  0  0  0  0  0  0  0
    9.9623   -5.4221   -1.4679 H   0  0  0  0  0  0  0  0  0  0  0  0
   10.2087   -4.2270   -2.7861 H   0  0  0  0  0  0  0  0  0  0  0  0
   11.1327   -5.7674   -2.7861 H   0  0  0  0  0  0  0  0  0  0  0  0
   12.1320   -3.2150    0.9030 H   0  0  0  0  0  0  0  0  0  0  0  0
   12.3820   -0.6076   -0.2605 H   0  0  0  0  0  0  0  0  0  0  0  0
   10.4024   -1.0534    1.9511 H   0  0  0  0  0  0  0  0  0  0  0  0
   11.5056    0.4019    2.0391 H   0  0  0  0  0  0  0  0  0  0  0  0
    8.1568    0.7219    1.3946 H   0  0  0  0  0  0  0  0  0  0  0  0
    7.6520    1.9130   -0.8770 H   0  0  0  0  0  0  0  0  0  0  0  0
    9.6656    1.8835   -2.4734 H   0  0  0  0  0  0  0  0  0  0  0  0
   11.4970    0.6290   -1.1760 H   0  0  0  0  0  0  0  0  0  0  0  0
  1  2  1  0
  2  3  1  0
  3  4  1  0
  4  5  1  0
  5  6  1  0
  6  7  1  0
  7  8  1  0
  8  9  1  0
  9 10  1  0
 10 11  2  0
 11 12  1  0
 12 13  2  0
 13 14  1  0
 14 15  2  0
  8 16  1  0
 16 17  1  0
 17 18  2  0
 17 19  1  0
 19 20  1  0
 20 21  1  0
 19 22  1  0
 22 23  1  0
 23 24  2  0
 23 25  1  0
 25 26  1  0
 26 27  1  0
 27 28  1  0
 27 29  1  0
 25 30  1  0
 30 31  1  0
 31 32  2  0
 31 33  1  0
 33 34  1  0
 34 35  1  0
 35 36  2  0
 36 37  1  0
 37 38  2  0
 38 39  1  0
 33 40  1  0
 40 41  1  0
 41 42  2  0
 41 43  1  0
 43 44  1  0
 44 45  1  0
 45 46  1  0
 46 47  1  0
  5 48  1  0
 48 49  2  0
 48 50  1  0
 50 51  1  0
 51 52  1  0
 51 53  1  0
 53 54  2  0
 53 55  1  0
 55 56  1  0
 56 57  1  0
 57 58  1  0
 58 59  2  0
 59 60  1  0
 60 61  2  0
 61 62  1  0
 56 63  1  0
 63 64  2  0
 63 65  1  0
 15 10  1  0
 39 35  1  0
 47 43  1  0
 62 58  1  0
  1 66  1  0
  1 67  1  0
  1 68  1  0
  3 69  1  0
  3 70  1  0
  4 71  1  0
  4 72  1  0
  5 73  1  1
  6 74  1  0
  6 75  1  0
  7 76  1  0
  7 77  1  0
  8 78  1  1
  9 79  1  0
  9 80  1  0
 11 81  1  0
 12 82  1  0
 13 83  1  0
 14 84  1  0
 15 85  1  0
 16 86  1  0
 19 87  1  6
 20 88  1  0
 20 89  1  0
 21 90  1  0
 22 91  1  0
 25 92  1  6
 26 93  1  0
 26 94  1  0
 27 95  1  0
 28 96  1  0
 28 97  1  0
 28 98  1  0
 29 99  1  0
 29100  1  0
 29101  1  0
 30102  1  0
 33103  1  6
 34104  1  0
 34105  1  0
 36106  1  0
 38107  1  0
 39108  1  0
 40109  1  0
 43110  1  6
 44111  1  0
 44112  1  0
 45113  1  0
 45114  1  0
 46115  1  0
 46116  1  0
 47117  1  0
 47118  1  0
 50119  1  0
 51120  1  6
 52121  1  0
 52122  1  0
 52123  1  0
 55124  1  0
 56125  1  6
 57126  1  0
 57127  1  0
 59128  1  0
 60129  1  0
 61130  1  0
 62131  1  0
M  CHG  4   6   1  47   1  60   1  65  -1
M  END
>  <meeko>  (4) 
{"is_sidechain": [false], "free_energy": -8.148, "intermolecular_energy": -20.463, "internal_energy": -5.896}

$$$$
3uri_ligand
     RDKit          3D

131134  0  0  0  0  0  0  0  0999 V2000
    1.2080    2.1810   11.9880 C   0  0  0  0  0  0  0  0  0  0  0  0
    2.2690    1.4170   13.2440 S   0  0  0  0  0  0  0  0  0  0  0  0
    1.2550   -0.0570   13.5720 C   0  0  0  0  0  0  0  0  0  0  0  0
    1.9620   -1.2990   13.0220 C   0  0  0  0  0  0  0  0  0  0  0  0
    3.4970   -1.2460   13.0620 C   0  0  2  0  0  0  0  0  0  0  0  0
    4.1080   -1.4910   11.7120 N   0  0  0  0  0  0  0  0  0  0  0  0
    3.2420   -1.5300   10.5140 C   0  0  0  0  0  0  0  0  0  0  0  0
    3.7650   -2.4660    9.3790 C   0  0  2  0  0  0  0  0  0  0  0  0
    4.8760   -3.4690    9.7880 C   0  0  0  0  0  0  0  0  0  0  0  0
    4.4350   -4.8160   10.3190 C   0  0  0  0  0  0  0  0  0  0  0  0
    3.1030   -5.0990   10.6390 C   0  0  0  0  0  0  0  0  0  0  0  0
    2.7380   -6.3660   11.1010 C   0  0  0  0  0  0  0  0  0  0  0  0
    3.7020   -7.3590   11.2620 C   0  0  0  0  0  0  0  0  0  0  0  0
    5.0350   -7.0840   10.9730 C   0  0  0  0  0  0  0  0  0  0  0  0
    5.4000   -5.8200   10.5110 C   0  0  0  0  0  0  0  0  0  0  0  0
    4.1950   -1.7230    8.1790 N   0  0  0  0  0  0  0  0  0  0  0  0
    4.2820   -2.3170    6.9320 C   0  0  0  0  0  0  0  0  0  0  0  0
    3.8750   -3.4570    6.7230 O   0  0  0  0  0  0  0  0  0  0  0  0
    5.0680   -1.5160    5.8780 C   0  0  2  0  0  0  0  0  0  0  0  0
    4.0700   -0.6770    5.0720 C   0  0  0  0  0  0  0  0  0  0  0  0
    2.7730   -0.7550    5.6880 O   0  0  0  0  0  0  0  0  0  0  0  0
    5.8160   -2.3990    4.9750 N   0  0  0  0  0  0  0  0  0  0  0  0
    7.1720   -2.2710    4.7980 C   0  0  0  0  0  0  0  0  0  0  0  0
    7.8150   -1.3910    5.3730 O   0  0  0  0  0  0  0  0  0  0  0  0
    7.8150   -3.2400    3.7640 C   0  0  2  0  0  0  0  0  0  0  0  0
    8.7530   -4.2930    4.3850 C   0  0  0  0  0  0  0  0  0  0  0  0
    8.3500   -5.7770    4.2290 C   0  0  0  0  0  0  0  0  0  0  0  0
    9.3170   -6.7280    4.9340 C   0  0  0  0  0  0  0  0  0  0  0  0
    6.9110   -6.0720    4.6520 C   0  0  0  0  0  0  0  0  0  0  0  0
    8.3960   -2.4390    2.6850 N   0  0  0  0  0  0  0  0  0  0  0  0
    8.4510   -2.8900    1.3810 C   0  0  0  0  0  0  0  0  0  0  0  0
    7.8460   -3.8820    0.9820 O   0  0  0  0  0  0  0  0  0  0  0  0
    9.4440   -2.1500    0.4590 C   0  0  2  0  0  0  0  0  0  0  0  0
   10.8530   -2.7690    0.6180 C   0  0  0  0  0  0  0  0  0  0  0  0
   11.1020   -3.8910   -0.3380 C   0  0  0  0  0  0  0  0  0  0  0  0
   11.7940   -5.0780   -0.2290 C   0  0  0  0  0  0  0  0  0  0  0  0
   11.5860   -5.8590   -1.3300 N   0  0  0  0  0  0  0  0  0  0  0  0
   10.9080   -5.1110   -2.1700 C   0  0  0  0  0  0  0  0  0  0  0  0
   10.6020   -3.8990   -1.6200 N   0  0  0  0  0  0  0  0  0  0  0  0
    9.4180   -0.6660    0.5530 N   0  0  0  0  0  0  0  0  0  0  0  0
    8.2690    0.0680    0.3190 C   0  0  0  0  0  0  0  0  0  0  0  0
    7.3120   -0.3770   -0.3060 O   0  0  0  0  0  0  0  0  0  0  0  0
    8.3490    1.5260    0.8270 C   0  0  2  0  0  0  0  0  0  0  0  0
    9.1920    1.6880    2.0860 C   0  0  0  0  0  0  0  0  0  0  0  0
    8.1950    1.5080    3.2170 C   0  0  0  0  0  0  0  0  0  0  0  0
    6.9780    2.2600    2.7280 C   0  0  0  0  0  0  0  0  0  0  0  0
    6.9670    2.0240    1.2460 N   0  0  0  0  0  0  0  0  0  0  0  0
    4.0980   -2.2360   14.1000 C   0  0  0  0  0  0  0  0  0  0  0  0
    4.3730   -1.9210   15.2540 O   0  0  0  0  0  0  0  0  0  0  0  0
    4.2230   -3.5400   13.6500 N   0  0  0  0  0  0  0  0  0  0  0  0
    4.4620   -4.6780   14.5520 C   0  0  1  0  0  0  0  0  0  0  0  0
    3.2790   -5.6230   14.7200 C   0  0  0  0  0  0  0  0  0  0  0  0
    5.7700   -5.3930   14.1400 C   0  0  0  0  0  0  0  0  0  0  0  0
    5.9830   -6.5720   14.4230 O   0  0  0  0  0  0  0  0  0  0  0  0
    6.6920   -4.6130   13.4670 N   0  0  0  0  0  0  0  0  0  0  0  0
    8.1450   -4.8810   13.6310 C   0  0  1  0  0  0  0  0  0  0  0  0
    8.7620   -5.3870   12.3280 C   0  0  0  0  0  0  0  0  0  0  0  0
    8.7440   -6.8650   12.1930 C   0  0  0  0  0  0  0  0  0  0  0  0
    8.8660   -7.7170   11.1200 C   0  0  0  0  0  0  0  0  0  0  0  0
    8.7540   -9.0020   11.6040 N   0  0  0  0  0  0  0  0  0  0  0  0
    8.5660   -8.9860   12.9250 C   0  0  0  0  0  0  0  0  0  0  0  0
    8.5580   -7.7030   13.2900 N   0  0  0  0  0  0  0  0  0  0  0  0
    8.9140   -3.6160   14.1210 C   0  0  0  0  0  0  0  0  0  0  0  0
    9.9140   -3.7860   14.8610 O   0  0  0  0  0  0  0  0  0  0  0  0
    8.4940   -2.5090   13.6510 O   0  0  0  0  0  0  0  0  0  0  0  0
    0.4104    2.7553   12.4819 H   0  0  0  0  0  0  0  0  0  0  0  0
    1.8098    2.8544   11.3600 H   0  0  0  0  0  0  0  0  0  0  0  0
    0.7601    1.3967   11.3600 H   0  0  0  0  0  0  0  0  0  0  0  0
    1.1106   -0.1681   14.6568 H   0  0  0  0  0  0  0  0  0  0  0  0
    0.2775    0.0550   13.0802 H   0  0  0  0  0  0  0  0  0  0  0  0
    1.6354   -2.1671   13.6134 H   0  0  0  0  0  0  0  0  0  0  0  0
    1.6851   -1.3640   11.9594 H   0  0  0  0  0  0  0  0  0  0  0  0
    3.7494   -0.2230   13.3777 H   0  0  0  0  0  0  0  0  0  0  0  0
    4.8630   -0.8140   11.5810 H   0  0  0  0  0  0  0  0  0  0  0  0
    4.7260   -2.3510   11.7830 H   0  0  0  0  0  0  0  0  0  0  0  0
    2.2454   -1.8813   10.8196 H   0  0  0  0  0  0  0  0  0  0  0  0
    3.2253   -0.5104   10.1016 H   0  0  0  0  0  0  0  0  0  0  0  0
    2.8759   -3.0698    9.1447 H   0  0  0  0  0  0  0  0  0  0  0  0
    5.4990   -3.6519    8.9001 H   0  0  0  0  0  0  0  0  0  0  0  0
    5.3929   -2.9887   10.6319 H   0  0  0  0  0  0  0  0  0  0  0  0
    2.3369   -4.3178   10.5260 H   0  0  0  0  0  0  0  0  0  0  0  0
    1.6856   -6.5804   11.3385 H   0  0  0  0  0  0  0  0  0  0  0  0
    3.4098   -8.3584   11.6169 H   0  0  0  0  0  0  0  0  0  0  0  0
    5.7999   -7.8627   11.1088 H   0  0  0  0  0  0  0  0  0  0  0  0
    6.4569   -5.6057   10.2939 H   0  0  0  0  0  0  0  0  0  0  0  0
    4.8960   -0.9990    8.3170 H   0  0  0  0  0  0  0  0  0  0  0  0
    5.7987   -0.8722    6.3895 H   0  0  0  0  0  0  0  0  0  0  0  0
    4.4040    0.3709    5.0513 H   0  0  0  0  0  0  0  0  0  0  0  0
    4.0120   -1.0629    4.0435 H   0  0  0  0  0  0  0  0  0  0  0  0
    2.7620   -0.0740    6.3890 H   0  0  0  0  0  0  0  0  0  0  0  0
    5.2760   -3.1150    4.5040 H   0  0  0  0  0  0  0  0  0  0  0  0
    7.0343   -3.8810    3.3285 H   0  0  0  0  0  0  0  0  0  0  0  0
    9.7430   -4.1684    3.9221 H   0  0  0  0  0  0  0  0  0  0  0  0
    8.7172   -4.1016    5.4676 H   0  0  0  0  0  0  0  0  0  0  0  0
    8.4120   -5.9640    3.1468 H   0  0  0  0  0  0  0  0  0  0  0  0
    9.2079   -6.6207    6.0233 H   0  0  0  0  0  0  0  0  0  0  0  0
    9.0897   -7.7642    4.6430 H   0  0  0  0  0  0  0  0  0  0  0  0
   10.3492   -6.4835    4.6430 H   0  0  0  0  0  0  0  0  0  0  0  0
    6.8470   -6.0851    5.7501 H   0  0  0  0  0  0  0  0  0  0  0  0
    6.2449   -5.2917    4.2552 H   0  0  0  0  0  0  0  0  0  0  0  0
    6.6056   -7.0514    4.2552 H   0  0  0  0  0  0  0  0  0  0  0  0
    9.2040   -1.8810    2.9670 H   0  0  0  0  0  0  0  0  0  0  0  0
    9.1052   -2.3105   -0.5751 H   0  0  0  0  0  0  0  0  0  0  0  0
   11.6038   -1.9844    0.4428 H   0  0  0  0  0  0  0  0  0  0  0  0
   10.9226   -3.1789    1.6364 H   0  0  0  0  0  0  0  0  0  0  0  0
   12.4264   -5.3577    0.6265 H   0  0  0  0  0  0  0  0  0  0  0  0
   10.6231   -5.4210   -3.1863 H   0  0  0  0  0  0  0  0  0  0  0  0
   10.0890   -3.1540   -2.0760 H   0  0  0  0  0  0  0  0  0  0  0  0
   10.0180   -0.3280    1.2970 H   0  0  0  0  0  0  0  0  0  0  0  0
    8.7883    2.0825   -0.0140 H   0  0  0  0  0  0  0  0  0  0  0  0
    9.9789    0.9207    2.1318 H   0  0  0  0  0  0  0  0  0  0  0  0
    9.7113    2.6568    2.1277 H   0  0  0  0  0  0  0  0  0  0  0  0
    7.9644    0.4439    3.3739 H   0  0  0  0  0  0  0  0  0  0  0  0
    8.5690    1.8751    4.1841 H   0  0  0  0  0  0  0  0  0  0  0  0
    6.0628    1.8642    3.1924 H   0  0  0  0  0  0  0  0  0  0  0  0
    7.0143    3.3294    2.9830 H   0  0  0  0  0  0  0  0  0  0  0  0
    6.2570    1.3160    1.0060 H   0  0  0  0  0  0  0  0  0  0  0  0
    6.7160    2.8860    0.7460 H   0  0  0  0  0  0  0  0  0  0  0  0
    3.9950   -3.7860   12.6940 H   0  0  0  0  0  0  0  0  0  0  0  0
    4.5849   -4.2700   15.5661 H   0  0  0  0  0  0  0  0  0  0  0  0
    3.0836   -5.7791   15.7912 H   0  0  0  0  0  0  0  0  0  0  0  0
    2.3890   -5.1844   14.2451 H   0  0  0  0  0  0  0  0  0  0  0  0
    3.5101   -6.5879   14.2451 H   0  0  0  0  0  0  0  0  0  0  0  0
    6.4650   -3.6150   13.4490 H   0  0  0  0  0  0  0  0  0  0  0  0
    8.2402   -5.6626   14.3991 H   0  0  0  0  0  0  0  0  0  0  0  0
    8.2000   -4.9547   11.4870 H   0  0  0  0  0  0  0  0  0  0  0  0
    9.8176   -5.0776   12.3311 H   0  0  0  0  0  0  0  0  0  0  0  0
    9.0236   -7.4264   10.0708 H   0  0  0  0  0  0  0  0  0  0  0  0
    8.8030   -9.8450   11.0390 H   0  0  0  0  0  0  0  0  0  0  0  0
    8.4421   -9.8586   13.5831 H   0  0  0  0  0  0  0  0  0  0  0  0
    8.4270   -7.3740   14.2440 H   0  0  0  0  0  0  0  0  0  0  0  0
  1  2  1  0
  2  3  1  0
  3  4  1  0
  4  5  1  0
  5  6  1  0
  6  7  1  0
  7  8  1  0
  8  9  1  0
  9 10  1  0
 10 11  2  0
 11 12  1  0
 12 13  2  0
 13 14  1  0
 14 15  2  0
  8 16  1  0
 16 17  1  0
 17 18  2  0
 17 19  1  0
 19 20  1  0
 20 21  1  0
 19 22  1  0
 22 23  1  0
 23 24  2  0
 23 25  1  0
 25 26  1  0
 26 27  1  0
 27 28  1  0
 27 29  1  0
 25 30  1  0
 30 31  1  0
 31 32  2  0
 31 33  1  0
 33 34  1  0
 34 35  1  0
 35 36  2  0
 36 37  1  0
 37 38  2  0
 38 39  1  0
 33 40  1  0
 40 41  1  0
 41 42  2  0
 41 43  1  0
 43 44  1  0
 44 45  1  0
 45 46  1  0
 46 47  1  0
  5 48  1  0
 48 49  2  0
 48 50  1  0
 50 51  1  0
 51 52  1  0
 51 53  1  0
 53 54  2  0
 53 55  1  0
 55 56  1  0
 56 57  1  0
 57 58  1  0
 58 59  2  0
 59 60  1  0
 60 61  2  0
 61 62  1  0
 56 63  1  0
 63 64  2  0
 63 65  1  0
 15 10  1  0
 39 35  1  0
 47 43  1  0
 62 58  1  0
  1 66  1  0
  1 67  1  0
  1 68  1  0
  3 69  1  0
  3 70  1  0
  4 71  1  0
  4 72  1  0
  5 73  1  1
  6 74  1  0
  6 75  1  0
  7 76  1  0
  7 77  1  0
  8 78  1  6
  9 79  1  0
  9 80  1  0
 11 81  1  0
 12 82  1  0
 13 83  1  0
 14 84  1  0
 15 85  1  0
 16 86  1  0
 19 87  1  1
 20 88  1  0
 20 89  1  0
 21 90  1  0
 22 91  1  0
 25 92  1  6
 26 93  1  0
 26 94  1  0
 27 95  1  0
 28 96  1  0
 28 97  1  0
 28 98  1  0
 29 99  1  0
 29100  1  0
 29101  1  0
 30102  1  0
 33103  1  6
 34104  1  0
 34105  1  0
 36106  1  0
 38107  1  0
 39108  1  0
 40109  1  0
 43110  1  6
 44111  1  0
 44112  1  0
 45113  1  0
 45114  1  0
 46115  1  0
 46116  1  0
 47117  1  0
 47118  1  0
 50119  1  0
 51120  1  1
 52121  1  0
 52122  1  0
 52123  1  0
 55124  1  0
 56125  1  1
 57126  1  0
 57127  1  0
 59128  1  0
 60129  1  0
 61130  1  0
 62131  1  0
M  CHG  4   6   1  47   1  60   1  65  -1
M  END
>  <meeko>  (5) 
{"is_sidechain": [false], "free_energy": -8.131, "intermolecular_energy": -20.599, "internal_energy": -5.714}

$$$$
3uri_ligand
     RDKit          3D

131134  0  0  0  0  0  0  0  0999 V2000
   15.8720   -4.0640   -4.7630 C   0  0  0  0  0  0  0  0  0  0  0  0
   15.2040   -2.3890   -4.5780 S   0  0  0  0  0  0  0  0  0  0  0  0
   13.8160   -2.7880   -3.4730 C   0  0  0  0  0  0  0  0  0  0  0  0
   14.3530   -3.3670   -2.1620 C   0  0  0  0  0  0  0  0  0  0  0  0
   13.5410   -3.0040   -0.9090 C   0  0  2  0  0  0  0  0  0  0  0  0
   12.1620   -2.5150   -1.2480 N   0  0  0  0  0  0  0  0  0  0  0  0
   10.9930   -3.3780   -0.9750 C   0  0  0  0  0  0  0  0  0  0  0  0
   11.2510   -4.4780    0.1040 C   0  0  2  0  0  0  0  0  0  0  0  0
   11.2830   -5.9390   -0.4150 C   0  0  0  0  0  0  0  0  0  0  0  0
   12.5370   -6.3950   -1.1310 C   0  0  0  0  0  0  0  0  0  0  0  0
   13.6780   -6.8280   -0.4470 C   0  0  0  0  0  0  0  0  0  0  0  0
   14.8030   -7.2660   -1.1510 C   0  0  0  0  0  0  0  0  0  0  0  0
   14.8050   -7.2630   -2.5440 C   0  0  0  0  0  0  0  0  0  0  0  0
   13.6870   -6.8110   -3.2370 C   0  0  0  0  0  0  0  0  0  0  0  0
   12.5630   -6.3740   -2.5360 C   0  0  0  0  0  0  0  0  0  0  0  0
   10.3230   -4.3850    1.2470 N   0  0  0  0  0  0  0  0  0  0  0  0
   10.2580   -3.2650    2.0580 C   0  0  0  0  0  0  0  0  0  0  0  0
   10.8670   -2.2320    1.7940 O   0  0  0  0  0  0  0  0  0  0  0  0
    9.5080   -3.4640    3.3880 C   0  0  2  0  0  0  0  0  0  0  0  0
    9.1240   -4.9430    3.5050 C   0  0  0  0  0  0  0  0  0  0  0  0
    7.9130   -5.1810    2.7680 O   0  0  0  0  0  0  0  0  0  0  0  0
    8.3010   -2.6320    3.4580 N   0  0  0  0  0  0  0  0  0  0  0  0
    7.8710   -2.0780    4.6390 C   0  0  0  0  0  0  0  0  0  0  0  0
    8.4700   -2.2770    5.6970 O   0  0  0  0  0  0  0  0  0  0  0  0
    6.5430   -1.2700    4.5660 C   0  0  2  0  0  0  0  0  0  0  0  0
    6.7340    0.2590    4.5720 C   0  0  0  0  0  0  0  0  0  0  0  0
    7.7990    0.8410    3.6150 C   0  0  0  0  0  0  0  0  0  0  0  0
    7.3890    2.1920    3.0300 C   0  0  0  0  0  0  0  0  0  0  0  0
    9.1960    0.9290    4.2290 C   0  0  0  0  0  0  0  0  0  0  0  0
    5.6320   -1.7940    5.5850 N   0  0  0  0  0  0  0  0  0  0  0  0
    4.3280   -1.3540    5.7040 C   0  0  0  0  0  0  0  0  0  0  0  0
    3.7690   -0.6580    4.8580 O   0  0  0  0  0  0  0  0  0  0  0  0
    3.6370   -1.6670    7.0470 C   0  0  2  0  0  0  0  0  0  0  0  0
    4.5480   -1.2150    8.2140 C   0  0  0  0  0  0  0  0  0  0  0  0
    3.7960   -1.0170    9.4910 C   0  0  0  0  0  0  0  0  0  0  0  0
    3.7740   -1.7100   10.6820 C   0  0  0  0  0  0  0  0  0  0  0  0
    3.0490   -1.0310   11.6200 N   0  0  0  0  0  0  0  0  0  0  0  0
    2.5050   -0.0200   10.9810 C   0  0  0  0  0  0  0  0  0  0  0  0
    2.9160    0.0240    9.6800 N   0  0  0  0  0  0  0  0  0  0  0  0
    3.1110   -3.0510    7.1880 N   0  0  0  0  0  0  0  0  0  0  0  0
    3.9390   -4.1340    7.4240 C   0  0  0  0  0  0  0  0  0  0  0  0
    5.1430   -4.1140    7.1900 O   0  0  0  0  0  0  0  0  0  0  0  0
    3.1880   -5.3960    7.9100 C   0  0  2  0  0  0  0  0  0  0  0  0
    2.0540   -5.0940    8.8820 C   0  0  0  0  0  0  0  0  0  0  0  0
    2.7200   -5.1500   10.2450 C   0  0  0  0  0  0  0  0  0  0  0  0
    3.6460   -6.3410   10.1290 C   0  0  0  0  0  0  0  0  0  0  0  0
    4.1240   -6.3010    8.7070 N   0  0  0  0  0  0  0  0  0  0  0  0
   14.2660   -1.9570   -0.0160 C   0  0  0  0  0  0  0  0  0  0  0  0
   15.4470   -1.6520   -0.1540 O   0  0  0  0  0  0  0  0  0  0  0  0
   13.4510   -1.3170    0.9040 N   0  0  0  0  0  0  0  0  0  0  0  0
   13.8510   -0.0920    1.6120 C   0  0  1  0  0  0  0  0  0  0  0  0
   15.1130   -0.2190    2.4550 C   0  0  0  0  0  0  0  0  0  0  0  0
   13.8950    1.0880    0.6110 C   0  0  0  0  0  0  0  0  0  0  0  0
   14.8780    1.8210    0.5120 O   0  0  0  0  0  0  0  0  0  0  0  0
   12.7460    1.2800   -0.1340 N   0  0  0  0  0  0  0  0  0  0  0  0
   12.3640    2.6550   -0.5570 C   0  0  1  0  0  0  0  0  0  0  0  0
   11.2550    2.6180   -1.6080 C   0  0  0  0  0  0  0  0  0  0  0  0
   10.1930    1.6210   -1.3200 C   0  0  0  0  0  0  0  0  0  0  0  0
    9.9910    0.3170   -1.7110 C   0  0  0  0  0  0  0  0  0  0  0  0
    8.8110   -0.1020   -1.1370 N   0  0  0  0  0  0  0  0  0  0  0  0
    8.2720    0.8790   -0.4120 C   0  0  0  0  0  0  0  0  0  0  0  0
    9.0970    1.9230   -0.5160 N   0  0  0  0  0  0  0  0  0  0  0  0
   11.9110    3.5250    0.6550 C   0  0  0  0  0  0  0  0  0  0  0  0
   12.1450    4.7580    0.6120 O   0  0  0  0  0  0  0  0  0  0  0  0
   11.2620    2.9050    1.5580 O   0  0  0  0  0  0  0  0  0  0  0  0
   16.0463   -4.5011   -3.7687 H   0  0  0  0  0  0  0  0  0  0  0  0
   15.1533   -4.6864   -5.3163 H   0  0  0  0  0  0  0  0  0  0  0  0
   16.8218   -4.0209   -5.3163 H   0  0  0  0  0  0  0  0  0  0  0  0
   13.2421   -1.8737   -3.2614 H   0  0  0  0  0  0  0  0  0  0  0  0
   13.1636   -3.5284   -3.9590 H   0  0  0  0  0  0  0  0  0  0  0  0
   14.3666   -4.4631   -2.2537 H   0  0  0  0  0  0  0  0  0  0  0  0
   15.3511   -2.9273   -2.0186 H   0  0  0  0  0  0  0  0  0  0  0  0
   13.4474   -3.9386   -0.3365 H   0  0  0  0  0  0  0  0  0  0  0  0
   12.0360   -1.5990   -0.8090 H   0  0  0  0  0  0  0  0  0  0  0  0
   12.1740   -2.1690   -2.2510 H   0  0  0  0  0  0  0  0  0  0  0  0
   10.1665   -2.7406   -0.6278 H   0  0  0  0  0  0  0  0  0  0  0  0
   10.7595   -3.9024   -1.9134 H   0  0  0  0  0  0  0  0  0  0  0  0
   12.2741   -4.2466    0.4353 H   0  0  0  0  0  0  0  0  0  0  0  0
   11.1384   -6.6007    0.4518 H   0  0  0  0  0  0  0  0  0  0  0  0
   10.4907   -5.9853   -1.1766 H   0  0  0  0  0  0  0  0  0  0  0  0
   13.6897   -6.8237    0.6529 H   0  0  0  0  0  0  0  0  0  0  0  0
   15.6907   -7.6146   -0.6028 H   0  0  0  0  0  0  0  0  0  0  0  0
   15.6888   -7.6173   -3.0947 H   0  0  0  0  0  0  0  0  0  0  0  0
   13.6892   -6.7981   -4.3369 H   0  0  0  0  0  0  0  0  0  0  0  0
   11.6858   -6.0083   -3.0899 H   0  0  0  0  0  0  0  0  0  0  0  0
   10.1340   -5.2470    1.7540 H   0  0  0  0  0  0  0  0  0  0  0  0
   10.1648   -3.1625    4.2173 H   0  0  0  0  0  0  0  0  0  0  0  0
    9.9323   -5.5658    3.0940 H   0  0  0  0  0  0  0  0  0  0  0  0
    8.9669   -5.1995    4.5631 H   0  0  0  0  0  0  0  0  0  0  0  0
    7.3670   -5.7740    3.3220 H   0  0  0  0  0  0  0  0  0  0  0  0
    7.8140   -2.4790    2.5820 H   0  0  0  0  0  0  0  0  0  0  0  0
    6.0753   -1.4216    3.5820 H   0  0  0  0  0  0  0  0  0  0  0  0
    5.7680    0.7143    4.3084 H   0  0  0  0  0  0  0  0  0  0  0  0
    7.1005    0.4952    5.5819 H   0  0  0  0  0  0  0  0  0  0  0  0
    7.8549    0.1127    2.7925 H   0  0  0  0  0  0  0  0  0  0  0  0
    7.1753    2.8960    3.8477 H   0  0  0  0  0  0  0  0  0  0  0  0
    8.2077    2.5870    2.4106 H   0  0  0  0  0  0  0  0  0  0  0  0
    6.4888    2.0654    2.4106 H   0  0  0  0  0  0  0  0  0  0  0  0
    9.1153    0.9239    5.3260 H   0  0  0  0  0  0  0  0  0  0  0  0
    9.7955    0.0668    3.9014 H   0  0  0  0  0  0  0  0  0  0  0  0
    9.6825    1.8596    3.9014 H   0  0  0  0  0  0  0  0  0  0  0  0
    6.0810   -2.0100    6.4760 H   0  0  0  0  0  0  0  0  0  0  0  0
    2.7100   -1.0756    7.0769 H   0  0  0  0  0  0  0  0  0  0  0  0
    5.3195   -1.9823    8.3755 H   0  0  0  0  0  0  0  0  0  0  0  0
    4.9888   -0.2466    7.9349 H   0  0  0  0  0  0  0  0  0  0  0  0
    4.2713   -2.6760   10.8536 H   0  0  0  0  0  0  0  0  0  0  0  0
    1.8077    0.6988   11.4361 H   0  0  0  0  0  0  0  0  0  0  0  0
    2.6300    0.7090    8.9910 H   0  0  0  0  0  0  0  0  0  0  0  0
    2.2150   -3.0630    7.6640 H   0  0  0  0  0  0  0  0  0  0  0  0
    2.8016   -5.8551    6.9881 H   0  0  0  0  0  0  0  0  0  0  0  0
    1.6314   -4.0961    8.6931 H   0  0  0  0  0  0  0  0  0  0  0  0
    1.2153   -5.7997    8.7893 H   0  0  0  0  0  0  0  0  0  0  0  0
    3.2860   -4.2284   10.4455 H   0  0  0  0  0  0  0  0  0  0  0  0
    2.0013   -5.2415   11.0727 H   0  0  0  0  0  0  0  0  0  0  0  0
    4.4910   -6.2472   10.8270 H   0  0  0  0  0  0  0  0  0  0  0  0
    3.1458   -7.2885   10.3780 H   0  0  0  0  0  0  0  0  0  0  0  0
    5.0830   -5.9290    8.6670 H   0  0  0  0  0  0  0  0  0  0  0  0
    4.1500   -7.2500    8.3100 H   0  0  0  0  0  0  0  0  0  0  0  0
   12.4780   -1.5800    1.0090 H   0  0  0  0  0  0  0  0  0  0  0  0
   13.0798    0.1114    2.3695 H   0  0  0  0  0  0  0  0  0  0  0  0
   14.8457   -0.1921    3.5217 H   0  0  0  0  0  0  0  0  0  0  0  0
   15.6125   -1.1719    2.2261 H   0  0  0  0  0  0  0  0  0  0  0  0
   15.7924    0.6153    2.2261 H   0  0  0  0  0  0  0  0  0  0  0  0
   11.9490    0.7140    0.1670 H   0  0  0  0  0  0  0  0  0  0  0  0
   13.2604    3.1153   -0.9982 H   0  0  0  0  0  0  0  0  0  0  0  0
   10.7915    3.6143   -1.6590 H   0  0  0  0  0  0  0  0  0  0  0  0
   11.7230    2.3237   -2.5590 H   0  0  0  0  0  0  0  0  0  0  0  0
   10.6489   -0.2792   -2.3605 H   0  0  0  0  0  0  0  0  0  0  0  0
    8.4030   -1.0260   -1.2490 H   0  0  0  0  0  0  0  0  0  0  0  0
    7.3328    0.8362    0.1590 H   0  0  0  0  0  0  0  0  0  0  0  0
    8.9460    2.8260   -0.0720 H   0  0  0  0  0  0  0  0  0  0  0  0
  1  2  1  0
  2  3  1  0
  3  4  1  0
  4  5  1  0
  5  6  1  0
  6  7  1  0
  7  8  1  0
  8  9  1  0
  9 10  1  0
 10 11  2  0
 11 12  1  0
 12 13  2  0
 13 14  1  0
 14 15  2  0
  8 16  1  0
 16 17  1  0
 17 18  2  0
 17 19  1  0
 19 20  1  0
 20 21  1  0
 19 22  1  0
 22 23  1  0
 23 24  2  0
 23 25  1  0
 25 26  1  0
 26 27  1  0
 27 28  1  0
 27 29  1  0
 25 30  1  0
 30 31  1  0
 31 32  2  0
 31 33  1  0
 33 34  1  0
 34 35  1  0
 35 36  2  0
 36 37  1  0
 37 38  2  0
 38 39  1  0
 33 40  1  0
 40 41  1  0
 41 42  2  0
 41 43  1  0
 43 44  1  0
 44 45  1  0
 45 46  1  0
 46 47  1  0
  5 48  1  0
 48 49  2  0
 48 50  1  0
 50 51  1  0
 51 52  1  0
 51 53  1  0
 53 54  2  0
 53 55  1  0
 55 56  1  0
 56 57  1  0
 57 58  1  0
 58 59  2  0
 59 60  1  0
 60 61  2  0
 61 62  1  0
 56 63  1  0
 63 64  2  0
 63 65  1  0
 15 10  1  0
 39 35  1  0
 47 43  1  0
 62 58  1  0
  1 66  1  0
  1 67  1  0
  1 68  1  0
  3 69  1  0
  3 70  1  0
  4 71  1  0
  4 72  1  0
  5 73  1  1
  6 74  1  0
  6 75  1  0
  7 76  1  0
  7 77  1  0
  8 78  1  1
  9 79  1  0
  9 80  1  0
 11 81  1  0
 12 82  1  0
 13 83  1  0
 14 84  1  0
 15 85  1  0
 16 86  1  0
 19 87  1  1
 20 88  1  0
 20 89  1  0
 21 90  1  0
 22 91  1  0
 25 92  1  6
 26 93  1  0
 26 94  1  0
 27 95  1  0
 28 96  1  0
 28 97  1  0
 28 98  1  0
 29 99  1  0
 29100  1  0
 29101  1  0
 30102  1  0
 33103  1  6
 34104  1  0
 34105  1  0
 36106  1  0
 38107  1  0
 39108  1  0
 40109  1  0
 43110  1  6
 44111  1  0
 44112  1  0
 45113  1  0
 45114  1  0
 46115  1  0
 46116  1  0
 47117  1  0
 47118  1  0
 50119  1  0
 51120  1  1
 52121  1  0
 52122  1  0
 52123  1  0
 55124  1  0
 56125  1  6
 57126  1  0
 57127  1  0
 59128  1  0
 60129  1  0
 61130  1  0
 62131  1  0
M  CHG  4   6   1  47   1  60   1  65  -1
M  END
>  <meeko>  (6) 
{"is_sidechain": [false], "free_energy": -8.127, "intermolecular_energy": -21.569, "internal_energy": -4.734}

$$$$
3uri_ligand
     RDKit          3D

131134  0  0  0  0  0  0  0  0999 V2000
   15.7050   -1.4260   -4.9990 C   0  0  0  0  0  0  0  0  0  0  0  0
   16.7080   -2.9340   -4.9250 S   0  0  0  0  0  0  0  0  0  0  0  0
   16.0530   -3.6000   -3.3640 C   0  0  0  0  0  0  0  0  0  0  0  0
   14.7830   -2.8400   -2.9750 C   0  0  0  0  0  0  0  0  0  0  0  0
   14.7490   -2.3270   -1.5270 C   0  0  2  0  0  0  0  0  0  0  0  0
   13.6080   -2.9130   -0.7440 N   0  0  0  0  0  0  0  0  0  0  0  0
   12.9020   -4.1040   -1.2630 C   0  0  0  0  0  0  0  0  0  0  0  0
   13.2540   -5.4300   -0.5160 C   0  0  2  0  0  0  0  0  0  0  0  0
   13.1490   -6.7280   -1.3580 C   0  0  0  0  0  0  0  0  0  0  0  0
   14.2810   -7.0290   -2.3180 C   0  0  0  0  0  0  0  0  0  0  0  0
   14.2040   -6.7410   -3.6850 C   0  0  0  0  0  0  0  0  0  0  0  0
   15.2850   -7.0110   -4.5280 C   0  0  0  0  0  0  0  0  0  0  0  0
   16.4480   -7.5840   -4.0180 C   0  0  0  0  0  0  0  0  0  0  0  0
   16.5290   -7.9000   -2.6650 C   0  0  0  0  0  0  0  0  0  0  0  0
   15.4510   -7.6300   -1.8220 C   0  0  0  0  0  0  0  0  0  0  0  0
   12.4960   -5.5970    0.7380 N   0  0  0  0  0  0  0  0  0  0  0  0
   13.1140   -5.8800    1.9440 C   0  0  0  0  0  0  0  0  0  0  0  0
   14.3350   -5.8710    2.0690 O   0  0  0  0  0  0  0  0  0  0  0  0
   12.1730   -6.3650    3.0630 C   0  0  2  0  0  0  0  0  0  0  0  0
   12.3160   -7.8860    3.1820 C   0  0  0  0  0  0  0  0  0  0  0  0
   12.0970   -8.4890    1.8950 O   0  0  0  0  0  0  0  0  0  0  0  0
   10.7750   -6.0190    2.7810 N   0  0  0  0  0  0  0  0  0  0  0  0
    9.8790   -5.7540    3.7870 C   0  0  0  0  0  0  0  0  0  0  0  0
   10.2060   -5.8180    4.9730 O   0  0  0  0  0  0  0  0  0  0  0  0
    8.4180   -5.4610    3.3350 C   0  0  2  0  0  0  0  0  0  0  0  0
    8.3080   -4.7850    1.9550 C   0  0  0  0  0  0  0  0  0  0  0  0
    8.8950   -3.3620    1.8170 C   0  0  0  0  0  0  0  0  0  0  0  0
    9.3360   -3.0420    0.3890 C   0  0  0  0  0  0  0  0  0  0  0  0
    7.9760   -2.2630    2.3490 C   0  0  0  0  0  0  0  0  0  0  0  0
    7.7300   -4.7730    4.4290 N   0  0  0  0  0  0  0  0  0  0  0  0
    6.8580   -5.4280    5.2780 C   0  0  0  0  0  0  0  0  0  0  0  0
    6.7480   -6.6510    5.3220 O   0  0  0  0  0  0  0  0  0  0  0  0
    5.9070   -4.5210    6.0870 C   0  0  2  0  0  0  0  0  0  0  0  0
    6.4740   -3.0830    6.1270 C   0  0  0  0  0  0  0  0  0  0  0  0
    5.4240   -2.0410    5.9060 C   0  0  0  0  0  0  0  0  0  0  0  0
    5.1430   -1.2040    4.8480 C   0  0  0  0  0  0  0  0  0  0  0  0
    3.9640   -0.5460    5.0550 N   0  0  0  0  0  0  0  0  0  0  0  0
    3.6020   -0.8500    6.2810 C   0  0  0  0  0  0  0  0  0  0  0  0
    4.4650   -1.7440    6.8460 N   0  0  0  0  0  0  0  0  0  0  0  0
    5.4960   -5.0500    7.4150 N   0  0  0  0  0  0  0  0  0  0  0  0
    4.1690   -5.1370    7.7970 C   0  0  0  0  0  0  0  0  0  0  0  0
    3.2790   -4.4890    7.2570 O   0  0  0  0  0  0  0  0  0  0  0  0
    3.9340   -6.0440    9.0270 C   0  0  2  0  0  0  0  0  0  0  0  0
    2.6690   -5.7030    9.8040 C   0  0  0  0  0  0  0  0  0  0  0  0
    3.1350   -4.6870   10.8310 C   0  0  0  0  0  0  0  0  0  0  0  0
    4.4660   -5.2410   11.2850 C   0  0  0  0  0  0  0  0  0  0  0  0
    5.0530   -5.8580   10.0490 N   0  0  0  0  0  0  0  0  0  0  0  0
   14.6970   -0.7750   -1.4490 C   0  0  0  0  0  0  0  0  0  0  0  0
   15.5940   -0.0920   -0.9630 O   0  0  0  0  0  0  0  0  0  0  0  0
   13.5900   -0.2010   -2.0530 N   0  0  0  0  0  0  0  0  0  0  0  0
   13.5050    1.2320   -2.3710 C   0  0  1  0  0  0  0  0  0  0  0  0
   13.3030    1.5530   -3.8460 C   0  0  0  0  0  0  0  0  0  0  0  0
   12.4610    1.9020   -1.4460 C   0  0  0  0  0  0  0  0  0  0  0  0
   12.6800    2.9780   -0.8910 O   0  0  0  0  0  0  0  0  0  0  0  0
   11.2870    1.1960   -1.2600 N   0  0  0  0  0  0  0  0  0  0  0  0
   10.5600    1.3020    0.0340 C   0  0  1  0  0  0  0  0  0  0  0  0
    9.0500    1.1930   -0.1750 C   0  0  0  0  0  0  0  0  0  0  0  0
    8.2550    1.9770    0.8050 C   0  0  0  0  0  0  0  0  0  0  0  0
    7.9270    3.3090    0.9040 C   0  0  0  0  0  0  0  0  0  0  0  0
    7.1710    3.4590    2.0460 N   0  0  0  0  0  0  0  0  0  0  0  0
    7.0160    2.2840    2.6580 C   0  0  0  0  0  0  0  0  0  0  0  0
    7.6670    1.3840    1.9190 N   0  0  0  0  0  0  0  0  0  0  0  0
   11.0300    0.2180    1.0500 C   0  0  0  0  0  0  0  0  0  0  0  0
   10.6280    0.3110    2.2360 O   0  0  0  0  0  0  0  0  0  0  0  0
   11.7300   -0.7250    0.5550 O   0  0  0  0  0  0  0  0  0  0  0  0
   15.4787   -1.0857   -3.9777 H   0  0  0  0  0  0  0  0  0  0  0  0
   16.2617   -0.6412   -5.5321 H   0  0  0  0  0  0  0  0  0  0  0  0
   14.7660   -1.6360   -5.5321 H   0  0  0  0  0  0  0  0  0  0  0  0
   15.8168   -4.6667   -3.4915 H   0  0  0  0  0  0  0  0  0  0  0  0
   16.8067   -3.4822   -2.5715 H   0  0  0  0  0  0  0  0  0  0  0  0
   14.6851   -1.9738   -3.6459 H   0  0  0  0  0  0  0  0  0  0  0  0
   13.9555   -3.5592   -3.0651 H   0  0  0  0  0  0  0  0  0  0  0  0
   15.6927   -2.6630   -1.0725 H   0  0  0  0  0  0  0  0  0  0  0  0
   13.9370   -3.0840    0.2100 H   0  0  0  0  0  0  0  0  0  0  0  0
   12.9380   -2.1280   -0.5040 H   0  0  0  0  0  0  0  0  0  0  0  0
   11.8196   -3.9319   -1.1697 H   0  0  0  0  0  0  0  0  0  0  0  0
   13.2232   -4.2332   -2.3071 H   0  0  0  0  0  0  0  0  0  0  0  0
   14.3221   -5.2958   -0.2899 H   0  0  0  0  0  0  0  0  0  0  0  0
   13.0784   -7.5719   -0.6560 H   0  0  0  0  0  0  0  0  0  0  0  0
   12.2684   -6.5768   -1.9997 H   0  0  0  0  0  0  0  0  0  0  0  0
   13.2858   -6.2988   -4.0990 H   0  0  0  0  0  0  0  0  0  0  0  0
   15.2175   -6.7701   -5.5992 H   0  0  0  0  0  0  0  0  0  0  0  0
   17.3004   -7.7862   -4.6832 H   0  0  0  0  0  0  0  0  0  0  0  0
   17.4419   -8.3620   -2.2610 H   0  0  0  0  0  0  0  0  0  0  0  0
   15.5173   -7.8907   -0.7554 H   0  0  0  0  0  0  0  0  0  0  0  0
   11.5740   -6.0220    0.6620 H   0  0  0  0  0  0  0  0  0  0  0  0
   12.4513   -5.8699    4.0050 H   0  0  0  0  0  0  0  0  0  0  0  0
   13.3280   -8.1328    3.5354 H   0  0  0  0  0  0  0  0  0  0  0  0
   11.5745   -8.2696    3.8982 H   0  0  0  0  0  0  0  0  0  0  0  0
   11.1310   -8.4610    1.7420 H   0  0  0  0  0  0  0  0  0  0  0  0
   10.5150   -5.9740    1.8020 H   0  0  0  0  0  0  0  0  0  0  0  0
    7.8949   -6.4105    3.1482 H   0  0  0  0  0  0  0  0  0  0  0  0
    8.8262   -5.4286    1.2289 H   0  0  0  0  0  0  0  0  0  0  0  0
    7.2282   -4.6642    1.7836 H   0  0  0  0  0  0  0  0  0  0  0  0
    9.7888   -3.3720    2.4582 H   0  0  0  0  0  0  0  0  0  0  0  0
   10.2260   -2.3962    0.4161 H   0  0  0  0  0  0  0  0  0  0  0  0
    9.5772   -3.9767   -0.1384 H   0  0  0  0  0  0  0  0  0  0  0  0
    8.5222   -2.5228   -0.1384 H   0  0  0  0  0  0  0  0  0  0  0  0
    7.9871   -2.2763    3.4489 H   0  0  0  0  0  0  0  0  0  0  0  0
    8.3287   -1.2847    1.9905 H   0  0  0  0  0  0  0  0  0  0  0  0
    6.9507   -2.4370    1.9905 H   0  0  0  0  0  0  0  0  0  0  0  0
    7.4590   -3.8130    4.2140 H   0  0  0  0  0  0  0  0  0  0  0  0
    4.9467   -4.5028    5.5509 H   0  0  0  0  0  0  0  0  0  0  0  0
    6.9354   -2.9141    7.1112 H   0  0  0  0  0  0  0  0  0  0  0  0
    7.2076   -2.9928    5.3123 H   0  0  0  0  0  0  0  0  0  0  0  0
    5.7801   -1.0825    3.9595 H   0  0  0  0  0  0  0  0  0  0  0  0
    2.7170   -0.4370    6.7871 H   0  0  0  0  0  0  0  0  0  0  0  0
    4.3950   -2.1230    7.7830 H   0  0  0  0  0  0  0  0  0  0  0  0
    6.0970   -5.8100    7.7170 H   0  0  0  0  0  0  0  0  0  0  0  0
    3.8747   -7.0596    8.6087 H   0  0  0  0  0  0  0  0  0  0  0  0
    1.9073   -5.2677    9.1404 H   0  0  0  0  0  0  0  0  0  0  0  0
    2.2015   -6.5867   10.2629 H   0  0  0  0  0  0  0  0  0  0  0  0
    3.2560   -3.6929   10.3758 H   0  0  0  0  0  0  0  0  0  0  0  0
    2.4209   -4.5489   11.6562 H   0  0  0  0  0  0  0  0  0  0  0  0
    5.1137   -4.4368   11.6642 H   0  0  0  0  0  0  0  0  0  0  0  0
    4.3613   -5.9649   12.1066 H   0  0  0  0  0  0  0  0  0  0  0  0
    5.7810   -5.2430    9.6580 H   0  0  0  0  0  0  0  0  0  0  0  0
    5.5030   -6.7550   10.2740 H   0  0  0  0  0  0  0  0  0  0  0  0
   12.8560   -0.7770   -2.4480 H   0  0  0  0  0  0  0  0  0  0  0  0
   14.4939    1.6685   -2.1672 H   0  0  0  0  0  0  0  0  0  0  0  0
   12.7194    2.4804   -3.9428 H   0  0  0  0  0  0  0  0  0  0  0  0
   14.2820    1.6836   -4.3303 H   0  0  0  0  0  0  0  0  0  0  0  0
   12.7617    0.7269   -4.3303 H   0  0  0  0  0  0  0  0  0  0  0  0
   11.3040    0.2440   -1.6360 H   0  0  0  0  0  0  0  0  0  0  0  0
   10.7937    2.2920    0.4526 H   0  0  0  0  0  0  0  0  0  0  0  0
    8.8119    1.5562   -1.1856 H   0  0  0  0  0  0  0  0  0  0  0  0
    8.7809    0.1355   -0.0357 H   0  0  0  0  0  0  0  0  0  0  0  0
    8.2146    4.1059    0.2023 H   0  0  0  0  0  0  0  0  0  0  0  0
    6.7860    4.3380    2.3800 H   0  0  0  0  0  0  0  0  0  0  0  0
    6.4609    2.0944    3.5885 H   0  0  0  0  0  0  0  0  0  0  0  0
    7.7320    0.3920    2.1390 H   0  0  0  0  0  0  0  0  0  0  0  0
  1  2  1  0
  2  3  1  0
  3  4  1  0
  4  5  1  0
  5  6  1  0
  6  7  1  0
  7  8  1  0
  8  9  1  0
  9 10  1  0
 10 11  2  0
 11 12  1  0
 12 13  2  0
 13 14  1  0
 14 15  2  0
  8 16  1  0
 16 17  1  0
 17 18  2  0
 17 19  1  0
 19 20  1  0
 20 21  1  0
 19 22  1  0
 22 23  1  0
 23 24  2  0
 23 25  1  0
 25 26  1  0
 26 27  1  0
 27 28  1  0
 27 29  1  0
 25 30  1  0
 30 31  1  0
 31 32  2  0
 31 33  1  0
 33 34  1  0
 34 35  1  0
 35 36  2  0
 36 37  1  0
 37 38  2  0
 38 39  1  0
 33 40  1  0
 40 41  1  0
 41 42  2  0
 41 43  1  0
 43 44  1  0
 44 45  1  0
 45 46  1  0
 46 47  1  0
  5 48  1  0
 48 49  2  0
 48 50  1  0
 50 51  1  0
 51 52  1  0
 51 53  1  0
 53 54  2  0
 53 55  1  0
 55 56  1  0
 56 57  1  0
 57 58  1  0
 58 59  2  0
 59 60  1  0
 60 61  2  0
 61 62  1  0
 56 63  1  0
 63 64  2  0
 63 65  1  0
 15 10  1  0
 39 35  1  0
 47 43  1  0
 62 58  1  0
  1 66  1  0
  1 67  1  0
  1 68  1  0
  3 69  1  0
  3 70  1  0
  4 71  1  0
  4 72  1  0
  5 73  1  1
  6 74  1  0
  6 75  1  0
  7 76  1  0
  7 77  1  0
  8 78  1  1
  9 79  1  0
  9 80  1  0
 11 81  1  0
 12 82  1  0
 13 83  1  0
 14 84  1  0
 15 85  1  0
 16 86  1  0
 19 87  1  1
 20 88  1  0
 20 89  1  0
 21 90  1  0
 22 91  1  0
 25 92  1  6
 26 93  1  0
 26 94  1  0
 27 95  1  0
 28 96  1  0
 28 97  1  0
 28 98  1  0
 29 99  1  0
 29100  1  0
 29101  1  0
 30102  1  0
 33103  1  6
 34104  1  0
 34105  1  0
 36106  1  0
 38107  1  0
 39108  1  0
 40109  1  0
 43110  1  6
 44111  1  0
 44112  1  0
 45113  1  0
 45114  1  0
 46115  1  0
 46116  1  0
 47117  1  0
 47118  1  0
 50119  1  0
 51120  1  1
 52121  1  0
 52122  1  0
 52123  1  0
 55124  1  0
 56125  1  1
 57126  1  0
 57127  1  0
 59128  1  0
 60129  1  0
 61130  1  0
 62131  1  0
M  CHG  4   6   1  47   1  60   1  65  -1
M  END
>  <meeko>  (7) 
{"is_sidechain": [false], "free_energy": -8.065, "intermolecular_energy": -20.409, "internal_energy": -5.73}

$$$$
3uri_ligand
     RDKit          3D

131134  0  0  0  0  0  0  0  0999 V2000
   13.6020   -5.1910   -1.2670 C   0  0  0  0  0  0  0  0  0  0  0  0
   11.9870   -5.6200   -1.9700 S   0  0  0  0  0  0  0  0  0  0  0  0
   11.0370   -5.6630   -0.4190 C   0  0  0  0  0  0  0  0  0  0  0  0
    9.8240   -4.7370   -0.5350 C   0  0  0  0  0  0  0  0  0  0  0  0
    9.7370   -3.6400    0.5370 C   0  0  2  0  0  0  0  0  0  0  0  0
    8.3520   -3.0690    0.6540 N   0  0  0  0  0  0  0  0  0  0  0  0
    8.0200   -2.1850    1.7920 C   0  0  0  0  0  0  0  0  0  0  0  0
    7.6860   -2.9450    3.1140 C   0  0  2  0  0  0  0  0  0  0  0  0
    7.5740   -4.4880    2.9960 C   0  0  0  0  0  0  0  0  0  0  0  0
    8.3740   -5.3200    3.9760 C   0  0  0  0  0  0  0  0  0  0  0  0
    7.8050   -5.8810    5.1250 C   0  0  0  0  0  0  0  0  0  0  0  0
    8.5770   -6.6650    5.9870 C   0  0  0  0  0  0  0  0  0  0  0  0
    9.9260   -6.8840    5.7190 C   0  0  0  0  0  0  0  0  0  0  0  0
   10.5110   -6.3110    4.5940 C   0  0  0  0  0  0  0  0  0  0  0  0
    9.7420   -5.5300    3.7310 C   0  0  0  0  0  0  0  0  0  0  0  0
    6.4840   -2.4180    3.7880 N   0  0  0  0  0  0  0  0  0  0  0  0
    6.4160   -2.2600    5.1610 C   0  0  0  0  0  0  0  0  0  0  0  0
    7.3950   -2.4160    5.8860 O   0  0  0  0  0  0  0  0  0  0  0  0
    5.0000   -2.0390    5.7240 C   0  0  2  0  0  0  0  0  0  0  0  0
    4.5230   -0.6480    5.2900 C   0  0  0  0  0  0  0  0  0  0  0  0
    3.1340   -0.7110    4.9240 O   0  0  0  0  0  0  0  0  0  0  0  0
    4.9800   -2.1330    7.1890 N   0  0  0  0  0  0  0  0  0  0  0  0
    4.4160   -3.2040    7.8370 C   0  0  0  0  0  0  0  0  0  0  0  0
    3.8810   -4.1220    7.2150 O   0  0  0  0  0  0  0  0  0  0  0  0
    4.4190   -3.1350    9.3920 C   0  0  2  0  0  0  0  0  0  0  0  0
    4.8980   -1.7860    9.9630 C   0  0  0  0  0  0  0  0  0  0  0  0
    3.8770   -0.9610   10.7790 C   0  0  0  0  0  0  0  0  0  0  0  0
    3.6470    0.4340   10.1990 C   0  0  0  0  0  0  0  0  0  0  0  0
    2.5420   -1.6740   10.9950 C   0  0  0  0  0  0  0  0  0  0  0  0
    5.1170   -4.3170    9.9020 N   0  0  0  0  0  0  0  0  0  0  0  0
    4.4410   -5.3990   10.4310 C   0  0  0  0  0  0  0  0  0  0  0  0
    3.2250   -5.5530   10.3310 O   0  0  0  0  0  0  0  0  0  0  0  0
    5.2870   -6.3570   11.2960 C   0  0  2  0  0  0  0  0  0  0  0  0
    6.6430   -6.6210   10.5980 C   0  0  0  0  0  0  0  0  0  0  0  0
    7.7850   -6.6830   11.5610 C   0  0  0  0  0  0  0  0  0  0  0  0
    9.0680   -7.1750   11.4600 C   0  0  0  0  0  0  0  0  0  0  0  0
    9.8000   -6.8410   12.5650 N   0  0  0  0  0  0  0  0  0  0  0  0
    8.9470   -6.2900   13.3980 C   0  0  0  0  0  0  0  0  0  0  0  0
    7.7050   -6.1850   12.8410 N   0  0  0  0  0  0  0  0  0  0  0  0
    4.5900   -7.5880   11.7540 N   0  0  0  0  0  0  0  0  0  0  0  0
    4.4680   -7.9110   13.0950 C   0  0  0  0  0  0  0  0  0  0  0  0
    5.1930   -7.4350   13.9610 O   0  0  0  0  0  0  0  0  0  0  0  0
    3.4070   -9.0000   13.3770 C   0  0  2  0  0  0  0  0  0  0  0  0
    2.2510   -8.9970   12.3840 C   0  0  0  0  0  0  0  0  0  0  0  0
    1.2360   -8.0580   13.0100 C   0  0  0  0  0  0  0  0  0  0  0  0
    1.2900   -8.4190   14.4770 C   0  0  0  0  0  0  0  0  0  0  0  0
    2.7320   -8.7530   14.7240 N   0  0  0  0  0  0  0  0  0  0  0  0
   10.7600   -2.4930    0.2970 C   0  0  0  0  0  0  0  0  0  0  0  0
   11.4460   -2.0020    1.1890 O   0  0  0  0  0  0  0  0  0  0  0  0
   10.9090   -2.1180   -1.0280 N   0  0  0  0  0  0  0  0  0  0  0  0
   12.0310   -1.2960   -1.5050 C   0  0  1  0  0  0  0  0  0  0  0  0
   12.7150   -1.8110   -2.7650 C   0  0  0  0  0  0  0  0  0  0  0  0
   11.5790    0.1800   -1.6090 C   0  0  0  0  0  0  0  0  0  0  0  0
   11.5420    0.7750   -2.6850 O   0  0  0  0  0  0  0  0  0  0  0  0
   11.2530    0.7900   -0.4110 N   0  0  0  0  0  0  0  0  0  0  0  0
   11.4920    2.2490   -0.2390 C   0  0  1  0  0  0  0  0  0  0  0  0
   10.8060    2.7720    1.0230 C   0  0  0  0  0  0  0  0  0  0  0  0
    9.3850    2.3590    1.1440 C   0  0  0  0  0  0  0  0  0  0  0  0
    8.3130    2.4010    0.2830 C   0  0  0  0  0  0  0  0  0  0  0  0
    7.2270    1.8890    0.9580 N   0  0  0  0  0  0  0  0  0  0  0  0
    7.5740    1.5340    2.1960 C   0  0  0  0  0  0  0  0  0  0  0  0
    8.8730    1.8140    2.3190 N   0  0  0  0  0  0  0  0  0  0  0  0
   13.0140    2.5820   -0.1870 C   0  0  0  0  0  0  0  0  0  0  0  0
   13.4500    3.4590   -0.9730 O   0  0  0  0  0  0  0  0  0  0  0  0
   13.6720    1.9790    0.7210 O   0  0  0  0  0  0  0  0  0  0  0  0
   13.5400   -5.2075   -0.1689 H   0  0  0  0  0  0  0  0  0  0  0  0
   14.3536   -5.9206   -1.6028 H   0  0  0  0  0  0  0  0  0  0  0  0
   13.8924   -4.1846   -1.6028 H   0  0  0  0  0  0  0  0  0  0  0  0
   10.6959   -6.6910   -0.2268 H   0  0  0  0  0  0  0  0  0  0  0  0
   11.6760   -5.3263    0.4106 H   0  0  0  0  0  0  0  0  0  0  0  0
    9.8609   -4.2488   -1.5200 H   0  0  0  0  0  0  0  0  0  0  0  0
    8.9380   -5.3736   -0.3946 H   0  0  0  0  0  0  0  0  0  0  0  0
    9.9913   -4.1344    1.4861 H   0  0  0  0  0  0  0  0  0  0  0  0
    8.1270   -2.6070   -0.2310 H   0  0  0  0  0  0  0  0  0  0  0  0
    7.6600   -3.8660    0.5550 H   0  0  0  0  0  0  0  0  0  0  0  0
    8.8808   -1.5265    1.9803 H   0  0  0  0  0  0  0  0  0  0  0  0
    7.1139   -1.6297    1.5081 H   0  0  0  0  0  0  0  0  0  0  0  0
    8.5754   -2.7462    3.7300 H   0  0  0  0  0  0  0  0  0  0  0  0
    6.5143   -4.7531    3.1257 H   0  0  0  0  0  0  0  0  0  0  0  0
    7.9992   -4.7271    2.0101 H   0  0  0  0  0  0  0  0  0  0  0  0
    6.7432   -5.7038    5.3512 H   0  0  0  0  0  0  0  0  0  0  0  0
    8.1170   -7.1110    6.8811 H   0  0  0  0  0  0  0  0  0  0  0  0
   10.5279   -7.5087    6.3954 H   0  0  0  0  0  0  0  0  0  0  0  0
   11.5787   -6.4737    4.3854 H   0  0  0  0  0  0  0  0  0  0  0  0
   10.2121   -5.0728    2.8478 H   0  0  0  0  0  0  0  0  0  0  0  0
    5.5860   -2.6610    3.3770 H   0  0  0  0  0  0  0  0  0  0  0  0
    4.3340   -2.8223    5.3331 H   0  0  0  0  0  0  0  0  0  0  0  0
    4.6513    0.0599    6.1221 H   0  0  0  0  0  0  0  0  0  0  0  0
    5.1150   -0.3098    4.4268 H   0  0  0  0  0  0  0  0  0  0  0  0
    2.7050   -1.2910    5.5840 H   0  0  0  0  0  0  0  0  0  0  0  0
    5.4200   -1.3690    7.6910 H   0  0  0  0  0  0  0  0  0  0  0  0
    3.3834   -3.1664    9.7615 H   0  0  0  0  0  0  0  0  0  0  0  0
    5.7573   -1.9907   10.6186 H   0  0  0  0  0  0  0  0  0  0  0  0
    5.1208   -1.1681    9.0806 H   0  0  0  0  0  0  0  0  0  0  0  0
    4.3457   -0.8483   11.7678 H   0  0  0  0  0  0  0  0  0  0  0  0
    3.5278    1.1571   11.0193 H   0  0  0  0  0  0  0  0  0  0  0  0
    4.5100    0.7206    9.5801 H   0  0  0  0  0  0  0  0  0  0  0  0
    2.7376    0.4284    9.5801 H   0  0  0  0  0  0  0  0  0  0  0  0
    2.3511   -1.7760   12.0735 H   0  0  0  0  0  0  0  0  0  0  0  0
    1.7341   -1.0873   10.5335 H   0  0  0  0  0  0  0  0  0  0  0  0
    2.5803   -2.6718   10.5335 H   0  0  0  0  0  0  0  0  0  0  0  0
    6.0020   -4.1110   10.3670 H   0  0  0  0  0  0  0  0  0  0  0  0
    5.4781   -5.8446   12.2504 H   0  0  0  0  0  0  0  0  0  0  0  0
    6.5822   -7.5796   10.0620 H   0  0  0  0  0  0  0  0  0  0  0  0
    6.8322   -5.7825    9.9116 H   0  0  0  0  0  0  0  0  0  0  0  0
    9.4504   -7.7562   10.6079 H   0  0  0  0  0  0  0  0  0  0  0  0
    9.2009   -5.9558   14.4148 H   0  0  0  0  0  0  0  0  0  0  0  0
    6.8850   -5.7970   13.2900 H   0  0  0  0  0  0  0  0  0  0  0  0
    3.7900   -7.8040   11.1700 H   0  0  0  0  0  0  0  0  0  0  0  0
    3.9673   -9.9452   13.3244 H   0  0  0  0  0  0  0  0  0  0  0  0
    2.5784   -8.6221   11.4031 H   0  0  0  0  0  0  0  0  0  0  0  0
    1.8440  -10.0028   12.2030 H   0  0  0  0  0  0  0  0  0  0  0  0
    1.5205   -7.0073   12.8516 H   0  0  0  0  0  0  0  0  0  0  0  0
    0.2298   -8.1601   12.5775 H   0  0  0  0  0  0  0  0  0  0  0  0
    0.9749   -7.5685   15.0994 H   0  0  0  0  0  0  0  0  0  0  0  0
    0.6166   -9.2512   14.7300 H   0  0  0  0  0  0  0  0  0  0  0  0
    3.1980   -7.9700   15.2060 H   0  0  0  0  0  0  0  0  0  0  0  0
    2.8120   -9.5750   15.3360 H   0  0  0  0  0  0  0  0  0  0  0  0
   10.3340   -2.5300   -1.7530 H   0  0  0  0  0  0  0  0  0  0  0  0
   12.8306   -1.3711   -0.7533 H   0  0  0  0  0  0  0  0  0  0  0  0
   13.5649   -2.4509   -2.4854 H   0  0  0  0  0  0  0  0  0  0  0  0
   11.9968   -2.3945   -3.3597 H   0  0  0  0  0  0  0  0  0  0  0  0
   13.0772   -0.9595   -3.3597 H   0  0  0  0  0  0  0  0  0  0  0  0
   11.4910    0.2410    0.4190 H   0  0  0  0  0  0  0  0  0  0  0  0
   11.0585    2.7503   -1.1169 H   0  0  0  0  0  0  0  0  0  0  0  0
   11.3536    2.3931    1.8985 H   0  0  0  0  0  0  0  0  0  0  0  0
   10.8179    3.8704    0.9640 H   0  0  0  0  0  0  0  0  0  0  0  0
    8.3215    2.7740   -0.7518 H   0  0  0  0  0  0  0  0  0  0  0  0
    6.2910    1.7950    0.5730 H   0  0  0  0  0  0  0  0  0  0  0  0
    6.9189    1.0968    2.9639 H   0  0  0  0  0  0  0  0  0  0  0  0
    9.4220    1.6560    3.1620 H   0  0  0  0  0  0  0  0  0  0  0  0
  1  2  1  0
  2  3  1  0
  3  4  1  0
  4  5  1  0
  5  6  1  0
  6  7  1  0
  7  8  1  0
  8  9  1  0
  9 10  1  0
 10 11  2  0
 11 12  1  0
 12 13  2  0
 13 14  1  0
 14 15  2  0
  8 16  1  0
 16 17  1  0
 17 18  2  0
 17 19  1  0
 19 20  1  0
 20 21  1  0
 19 22  1  0
 22 23  1  0
 23 24  2  0
 23 25  1  0
 25 26  1  0
 26 27  1  0
 27 28  1  0
 27 29  1  0
 25 30  1  0
 30 31  1  0
 31 32  2  0
 31 33  1  0
 33 34  1  0
 34 35  1  0
 35 36  2  0
 36 37  1  0
 37 38  2  0
 38 39  1  0
 33 40  1  0
 40 41  1  0
 41 42  2  0
 41 43  1  0
 43 44  1  0
 44 45  1  0
 45 46  1  0
 46 47  1  0
  5 48  1  0
 48 49  2  0
 48 50  1  0
 50 51  1  0
 51 52  1  0
 51 53  1  0
 53 54  2  0
 53 55  1  0
 55 56  1  0
 56 57  1  0
 57 58  1  0
 58 59  2  0
 59 60  1  0
 60 61  2  0
 61 62  1  0
 56 63  1  0
 63 64  2  0
 63 65  1  0
 15 10  1  0
 39 35  1  0
 47 43  1  0
 62 58  1  0
  1 66  1  0
  1 67  1  0
  1 68  1  0
  3 69  1  0
  3 70  1  0
  4 71  1  0
  4 72  1  0
  5 73  1  1
  6 74  1  0
  6 75  1  0
  7 76  1  0
  7 77  1  0
  8 78  1  1
  9 79  1  0
  9 80  1  0
 11 81  1  0
 12 82  1  0
 13 83  1  0
 14 84  1  0
 15 85  1  0
 16 86  1  0
 19 87  1  6
 20 88  1  0
 20 89  1  0
 21 90  1  0
 22 91  1  0
 25 92  1  1
 26 93  1  0
 26 94  1  0
 27 95  1  0
 28 96  1  0
 28 97  1  0
 28 98  1  0
 29 99  1  0
 29100  1  0
 29101  1  0
 30102  1  0
 33103  1  1
 34104  1  0
 34105  1  0
 36106  1  0
 38107  1  0
 39108  1  0
 40109  1  0
 43110  1  1
 44111  1  0
 44112  1  0
 45113  1  0
 45114  1  0
 46115  1  0
 46116  1  0
 47117  1  0
 47118  1  0
 50119  1  0
 51120  1  1
 52121  1  0
 52122  1  0
 52123  1  0
 55124  1  0
 56125  1  6
 57126  1  0
 57127  1  0
 59128  1  0
 60129  1  0
 61130  1  0
 62131  1  0
M  CHG  4   6   1  47   1  60   1  65  -1
M  END
>  <meeko>  (8) 
{"is_sidechain": [false], "free_energy": -8.028, "intermolecular_energy": -21.248, "internal_energy": -4.792}

$$$$
3uri_ligand
     RDKit          3D

131134  0  0  0  0  0  0  0  0999 V2000
   13.8720    1.8620   -4.4310 C   0  0  0  0  0  0  0  0  0  0  0  0
   12.8570    1.7100   -2.9370 S   0  0  0  0  0  0  0  0  0  0  0  0
   14.1080    0.9550   -1.8540 C   0  0  0  0  0  0  0  0  0  0  0  0
   13.7430   -0.5080   -1.5890 C   0  0  0  0  0  0  0  0  0  0  0  0
   12.3320   -0.9190   -2.0400 C   0  0  2  0  0  0  0  0  0  0  0  0
   11.3110   -0.7260   -0.9550 N   0  0  0  0  0  0  0  0  0  0  0  0
   11.3540   -1.5840    0.2480 C   0  0  0  0  0  0  0  0  0  0  0  0
   10.2680   -1.2390    1.3160 C   0  0  2  0  0  0  0  0  0  0  0  0
   10.5720   -0.0140    2.2180 C   0  0  0  0  0  0  0  0  0  0  0  0
    9.3890    0.7550    2.7670 C   0  0  0  0  0  0  0  0  0  0  0  0
    8.9410    0.6050    4.0840 C   0  0  0  0  0  0  0  0  0  0  0  0
    7.8620    1.3570    4.5550 C   0  0  0  0  0  0  0  0  0  0  0  0
    7.2100    2.2560    3.7130 C   0  0  0  0  0  0  0  0  0  0  0  0
    7.6290    2.3960    2.3940 C   0  0  0  0  0  0  0  0  0  0  0  0
    8.7070    1.6470    1.9220 C   0  0  0  0  0  0  0  0  0  0  0  0
    9.9120   -2.3940    2.1630 N   0  0  0  0  0  0  0  0  0  0  0  0
    8.6180   -2.8780    2.2480 C   0  0  0  0  0  0  0  0  0  0  0  0
    7.7180   -2.4660    1.5210 O   0  0  0  0  0  0  0  0  0  0  0  0
    8.3560   -3.8400    3.4210 C   0  0  2  0  0  0  0  0  0  0  0  0
    8.0540   -5.2280    2.8430 C   0  0  0  0  0  0  0  0  0  0  0  0
    8.3920   -5.2470    1.4450 O   0  0  0  0  0  0  0  0  0  0  0  0
    7.2270   -3.3920    4.2450 N   0  0  0  0  0  0  0  0  0  0  0  0
    6.9540   -3.9590    5.4670 C   0  0  0  0  0  0  0  0  0  0  0  0
    7.6330   -4.8850    5.9110 O   0  0  0  0  0  0  0  0  0  0  0  0
    5.6910   -3.4180    6.1980 C   0  0  2  0  0  0  0  0  0  0  0  0
    5.6220   -1.8820    6.2860 C   0  0  0  0  0  0  0  0  0  0  0  0
    4.3250   -1.2030    5.7880 C   0  0  0  0  0  0  0  0  0  0  0  0
    3.3540   -0.8840    6.9240 C   0  0  0  0  0  0  0  0  0  0  0  0
    4.5690    0.0390    4.9320 C   0  0  0  0  0  0  0  0  0  0  0  0
    5.5610   -4.1280    7.4720 N   0  0  0  0  0  0  0  0  0  0  0  0
    4.3320   -4.4730    8.0000 C   0  0  0  0  0  0  0  0  0  0  0  0
    3.2800   -4.4050    7.3680 O   0  0  0  0  0  0  0  0  0  0  0  0
    4.3260   -4.8210    9.5040 C   0  0  2  0  0  0  0  0  0  0  0  0
    4.0610   -6.3350    9.6820 C   0  0  0  0  0  0  0  0  0  0  0  0
    4.4210   -6.8280   11.0460 C   0  0  0  0  0  0  0  0  0  0  0  0
    5.5490   -6.6880   11.8250 C   0  0  0  0  0  0  0  0  0  0  0  0
    5.3310   -7.1800   13.0810 N   0  0  0  0  0  0  0  0  0  0  0  0
    4.1490   -7.7510   13.0350 C   0  0  0  0  0  0  0  0  0  0  0  0
    3.5610   -7.5790   11.8150 N   0  0  0  0  0  0  0  0  0  0  0  0
    3.4740   -3.9510   10.3580 N   0  0  0  0  0  0  0  0  0  0  0  0
    3.9910   -2.8840   11.0720 C   0  0  0  0  0  0  0  0  0  0  0  0
    5.1830   -2.7810   11.3420 O   0  0  0  0  0  0  0  0  0  0  0  0
    2.9150   -1.8970   11.5790 C   0  0  2  0  0  0  0  0  0  0  0  0
    2.4470   -0.9070   10.5190 C   0  0  0  0  0  0  0  0  0  0  0  0
    3.3890    0.2720   10.6810 C   0  0  0  0  0  0  0  0  0  0  0  0
    3.5220    0.4050   12.1810 C   0  0  0  0  0  0  0  0  0  0  0  0
    3.4830   -1.0080   12.6840 N   0  0  0  0  0  0  0  0  0  0  0  0
   12.2800   -2.3840   -2.5580 C   0  0  0  0  0  0  0  0  0  0  0  0
   11.2520   -2.9220   -2.9630 O   0  0  0  0  0  0  0  0  0  0  0  0
   13.5070   -3.0240   -2.6140 N   0  0  0  0  0  0  0  0  0  0  0  0
   13.7250   -4.2730   -3.3580 C   0  0  1  0  0  0  0  0  0  0  0  0
   14.9910   -4.3040   -4.2040 C   0  0  0  0  0  0  0  0  0  0  0  0
   13.5990   -5.4750   -2.3920 C   0  0  0  0  0  0  0  0  0  0  0  0
   13.5420   -6.6340   -2.8000 O   0  0  0  0  0  0  0  0  0  0  0  0
   13.5230   -5.1560   -1.0490 N   0  0  0  0  0  0  0  0  0  0  0  0
   12.7360   -6.0210   -0.1300 C   0  0  1  0  0  0  0  0  0  0  0  0
   13.5770   -6.4580    1.0690 C   0  0  0  0  0  0  0  0  0  0  0  0
   13.3440   -7.8660    1.4810 C   0  0  0  0  0  0  0  0  0  0  0  0
   13.9840   -9.0500    1.1980 C   0  0  0  0  0  0  0  0  0  0  0  0
   13.3020  -10.0490    1.8570 N   0  0  0  0  0  0  0  0  0  0  0  0
   12.2690   -9.5410    2.5320 C   0  0  0  0  0  0  0  0  0  0  0  0
   12.2850   -8.2250    2.3110 N   0  0  0  0  0  0  0  0  0  0  0  0
   11.4420   -5.3080    0.3680 C   0  0  0  0  0  0  0  0  0  0  0  0
   10.5430   -5.0680   -0.4740 O   0  0  0  0  0  0  0  0  0  0  0  0
   11.3840   -5.1010    1.6240 O   0  0  0  0  0  0  0  0  0  0  0  0
   14.9227    2.0193   -4.1460 H   0  0  0  0  0  0  0  0  0  0  0  0
   13.7876    0.9412   -5.0268 H   0  0  0  0  0  0  0  0  0  0  0  0
   13.5216    2.7177   -5.0268 H   0  0  0  0  0  0  0  0  0  0  0  0
   15.0924    1.0039   -2.3424 H   0  0  0  0  0  0  0  0  0  0  0  0
   14.1425    1.5013   -0.8999 H   0  0  0  0  0  0  0  0  0  0  0  0
   14.4687   -1.1419   -2.1195 H   0  0  0  0  0  0  0  0  0  0  0  0
   13.7657   -0.6369   -0.4968 H   0  0  0  0  0  0  0  0  0  0  0  0
   12.0811   -0.2496   -2.8760 H   0  0  0  0  0  0  0  0  0  0  0  0
   11.3200    0.2610   -0.6870 H   0  0  0  0  0  0  0  0  0  0  0  0
   10.3510   -0.7220   -1.4060 H   0  0  0  0  0  0  0  0  0  0  0  0
   11.2095   -2.6280   -0.0669 H   0  0  0  0  0  0  0  0  0  0  0  0
   12.3315   -1.4152    0.7234 H   0  0  0  0  0  0  0  0  0  0  0  0
    9.4075   -0.9559    0.6920 H   0  0  0  0  0  0  0  0  0  0  0  0
   11.1595   -0.3731    3.0758 H   0  0  0  0  0  0  0  0  0  0  0  0
   11.0914    0.6987    1.5605 H   0  0  0  0  0  0  0  0  0  0  0  0
    9.4419   -0.1100    4.7532 H   0  0  0  0  0  0  0  0  0  0  0  0
    7.5254    1.2390    5.5955 H   0  0  0  0  0  0  0  0  0  0  0  0
    6.3667    2.8530    4.0903 H   0  0  0  0  0  0  0  0  0  0  0  0
    7.1105    3.0971    1.7234 H   0  0  0  0  0  0  0  0  0  0  0  0
    9.0272    1.7560    0.8753 H   0  0  0  0  0  0  0  0  0  0  0  0
   10.4260   -2.4970    3.0340 H   0  0  0  0  0  0  0  0  0  0  0  0
    9.2461   -3.8680    4.0667 H   0  0  0  0  0  0  0  0  0  0  0  0
    8.6495   -5.9846    3.3749 H   0  0  0  0  0  0  0  0  0  0  0  0
    6.9841   -5.4523    2.9655 H   0  0  0  0  0  0  0  0  0  0  0  0
    7.8310   -4.5680    1.0200 H   0  0  0  0  0  0  0  0  0  0  0  0
    6.6730   -2.6320    3.8680 H   0  0  0  0  0  0  0  0  0  0  0  0
    4.7972   -3.6354    5.5948 H   0  0  0  0  0  0  0  0  0  0  0  0
    5.7562   -1.6047    7.3420 H   0  0  0  0  0  0  0  0  0  0  0  0
    6.4088   -1.5235    5.6059 H   0  0  0  0  0  0  0  0  0  0  0  0
    3.8565   -1.9548    5.1359 H   0  0  0  0  0  0  0  0  0  0  0  0
    3.8535   -1.0481    7.8902 H   0  0  0  0  0  0  0  0  0  0  0  0
    3.0351    0.1661    6.8498 H   0  0  0  0  0  0  0  0  0  0  0  0
    2.4745   -1.5404    6.8498 H   0  0  0  0  0  0  0  0  0  0  0  0
    4.7395    0.9071    5.5857 H   0  0  0  0  0  0  0  0  0  0  0  0
    5.4529   -0.1211    4.2971 H   0  0  0  0  0  0  0  0  0  0  0  0
    3.6903    0.2251    4.2971 H   0  0  0  0  0  0  0  0  0  0  0  0
    6.2550   -3.8620    8.1710 H   0  0  0  0  0  0  0  0  0  0  0  0
    5.3302   -4.5929    9.8907 H   0  0  0  0  0  0  0  0  0  0  0  0
    2.9919   -6.5276    9.5092 H   0  0  0  0  0  0  0  0  0  0  0  0
    4.6934   -6.8699    8.9582 H   0  0  0  0  0  0  0  0  0  0  0  0
    6.4945   -6.2418   11.4830 H   0  0  0  0  0  0  0  0  0  0  0  0
    3.6914   -8.2979   13.8725 H   0  0  0  0  0  0  0  0  0  0  0  0
    2.6520   -7.9310   11.5400 H   0  0  0  0  0  0  0  0  0  0  0  0
    2.5560   -3.8110    9.9500 H   0  0  0  0  0  0  0  0  0  0  0  0
    2.0865   -2.5426   11.9059 H   0  0  0  0  0  0  0  0  0  0  0  0
    2.5331   -1.3415    9.5121 H   0  0  0  0  0  0  0  0  0  0  0  0
    1.3902   -0.6257   10.6378 H   0  0  0  0  0  0  0  0  0  0  0  0
    4.3639    0.0647   10.2155 H   0  0  0  0  0  0  0  0  0  0  0  0
    3.0196    1.1886   10.1979 H   0  0  0  0  0  0  0  0  0  0  0  0
    4.4746    0.8868   12.4464 H   0  0  0  0  0  0  0  0  0  0  0  0
    2.7291    1.0289   12.6193 H   0  0  0  0  0  0  0  0  0  0  0  0
    4.4330   -1.3230   12.9270 H   0  0  0  0  0  0  0  0  0  0  0  0
    2.9150   -1.0700   13.5390 H   0  0  0  0  0  0  0  0  0  0  0  0
   14.3470   -2.5700   -2.2740 H   0  0  0  0  0  0  0  0  0  0  0  0
   12.9314   -4.3421   -4.1166 H   0  0  0  0  0  0  0  0  0  0  0  0
   15.8717   -4.3256   -3.5453 H   0  0  0  0  0  0  0  0  0  0  0  0
   14.9859   -5.2023   -4.8389 H   0  0  0  0  0  0  0  0  0  0  0  0
   15.0298   -3.4065   -4.8389 H   0  0  0  0  0  0  0  0  0  0  0  0
   13.4090   -4.1570   -0.8590 H   0  0  0  0  0  0  0  0  0  0  0  0
   12.4411   -6.9113   -0.7047 H   0  0  0  0  0  0  0  0  0  0  0  0
   14.6395   -6.3439    0.8079 H   0  0  0  0  0  0  0  0  0  0  0  0
   13.2823   -5.8222    1.9169 H   0  0  0  0  0  0  0  0  0  0  0  0
   14.8741   -9.1757    0.5640 H   0  0  0  0  0  0  0  0  0  0  0  0
   13.5440  -11.0360    1.8330 H   0  0  0  0  0  0  0  0  0  0  0  0
   11.5472  -10.0969    3.1485 H   0  0  0  0  0  0  0  0  0  0  0  0
   11.6100   -7.5660    2.6930 H   0  0  0  0  0  0  0  0  0  0  0  0
  1  2  1  0
  2  3  1  0
  3  4  1  0
  4  5  1  0
  5  6  1  0
  6  7  1  0
  7  8  1  0
  8  9  1  0
  9 10  1  0
 10 11  2  0
 11 12  1  0
 12 13  2  0
 13 14  1  0
 14 15  2  0
  8 16  1  0
 16 17  1  0
 17 18  2  0
 17 19  1  0
 19 20  1  0
 20 21  1  0
 19 22  1  0
 22 23  1  0
 23 24  2  0
 23 25  1  0
 25 26  1  0
 26 27  1  0
 27 28  1  0
 27 29  1  0
 25 30  1  0
 30 31  1  0
 31 32  2  0
 31 33  1  0
 33 34  1  0
 34 35  1  0
 35 36  2  0
 36 37  1  0
 37 38  2  0
 38 39  1  0
 33 40  1  0
 40 41  1  0
 41 42  2  0
 41 43  1  0
 43 44  1  0
 44 45  1  0
 45 46  1  0
 46 47  1  0
  5 48  1  0
 48 49  2  0
 48 50  1  0
 50 51  1  0
 51 52  1  0
 51 53  1  0
 53 54  2  0
 53 55  1  0
 55 56  1  0
 56 57  1  0
 57 58  1  0
 58 59  2  0
 59 60  1  0
 60 61  2  0
 61 62  1  0
 56 63  1  0
 63 64  2  0
 63 65  1  0
 15 10  1  0
 39 35  1  0
 47 43  1  0
 62 58  1  0
  1 66  1  0
  1 67  1  0
  1 68  1  0
  3 69  1  0
  3 70  1  0
  4 71  1  0
  4 72  1  0
  5 73  1  6
  6 74  1  0
  6 75  1  0
  7 76  1  0
  7 77  1  0
  8 78  1  6
  9 79  1  0
  9 80  1  0
 11 81  1  0
 12 82  1  0
 13 83  1  0
 14 84  1  0
 15 85  1  0
 16 86  1  0
 19 87  1  1
 20 88  1  0
 20 89  1  0
 21 90  1  0
 22 91  1  0
 25 92  1  6
 26 93  1  0
 26 94  1  0
 27 95  1  0
 28 96  1  0
 28 97  1  0
 28 98  1  0
 29 99  1  0
 29100  1  0
 29101  1  0
 30102  1  0
 33103  1  1
 34104  1  0
 34105  1  0
 36106  1  0
 38107  1  0
 39108  1  0
 40109  1  0
 43110  1  1
 44111  1  0
 44112  1  0
 45113  1  0
 45114  1  0
 46115  1  0
 46116  1  0
 47117  1  0
 47118  1  0
 50119  1  0
 51120  1  6
 52121  1  0
 52122  1  0
 52123  1  0
 55124  1  0
 56125  1  6
 57126  1  0
 57127  1  0
 59128  1  0
 60129  1  0
 61130  1  0
 62131  1  0
M  CHG  4   6   1  47   1  60   1  65  -1
M  END
>  <meeko>  (9) 
{"is_sidechain": [false], "free_energy": -7.948, "intermolecular_energy": -20.222, "internal_energy": -5.606}

$$$$
