4k18_ligand
     RDKit          3D

 43 46  0  0  0  0  0  0  0  0999 V2000
  -10.0570   -6.7500   -5.5540 N   0  0  0  0  0  0  0  0  0  0  0  0
   -8.9520   -6.5620   -5.8520 C   0  0  0  0  0  0  0  0  0  0  0  0
   -7.5860   -6.3330   -6.2220 C   0  0  0  0  0  0  0  0  0  0  0  0
   -6.5680   -6.4760   -5.2740 C   0  0  0  0  0  0  0  0  0  0  0  0
   -5.2360   -6.2520   -5.6350 C   0  0  0  0  0  0  0  0  0  0  0  0
   -4.9080   -5.8820   -6.9470 C   0  0  0  0  0  0  0  0  0  0  0  0
   -3.4680   -5.6180   -7.3340 C   0  0  0  0  0  0  0  0  0  0  0  0
   -3.3180   -4.4890   -8.3360 C   0  0  0  0  0  0  0  0  0  0  0  0
   -2.3330   -4.5020   -9.2570 C   0  0  0  0  0  0  0  0  0  0  0  0
   -2.2000   -3.3800  -10.2310 C   0  0  0  0  0  0  0  0  0  0  0  0
   -1.3290   -3.3330  -11.0900 O   0  0  0  0  0  0  0  0  0  0  0  0
   -3.1680   -2.3740  -10.0800 N   0  0  0  0  0  0  0  0  0  0  0  0
   -3.2400   -1.2670  -10.8660 N   0  0  0  0  0  0  0  0  0  0  0  0
   -4.2970   -0.6060  -10.3840 C   0  0  0  0  0  0  0  0  0  0  0  0
   -4.9280   -1.2520   -9.2920 C   0  0  0  0  0  0  0  0  0  0  0  0
   -6.0880   -0.8940   -8.4830 C   0  0  0  0  0  0  0  0  0  0  0  0
   -6.0110    0.0230   -7.6710 O   0  0  0  0  0  0  0  0  0  0  0  0
   -7.2130   -1.6630   -8.7210 N   0  0  0  0  0  0  0  0  0  0  0  0
   -8.4770   -1.5550   -8.1000 C   0  0  0  0  0  0  0  0  0  0  0  0
   -9.2010   -0.3640   -7.9880 C   0  0  0  0  0  0  0  0  0  0  0  0
  -10.4480   -0.3500   -7.3550 C   0  0  0  0  0  0  0  0  0  0  0  0
  -10.9730   -1.5250   -6.8360 C   0  0  0  0  0  0  0  0  0  0  0  0
  -12.1670   -1.5080   -6.2310 F   0  0  0  0  0  0  0  0  0  0  0  0
  -10.2720   -2.7190   -6.9360 C   0  0  0  0  0  0  0  0  0  0  0  0
   -9.0250   -2.7340   -7.5680 C   0  0  0  0  0  0  0  0  0  0  0  0
   -4.1640   -2.3880   -9.1250 C   0  0  0  0  0  0  0  0  0  0  0  0
   -4.2150   -3.4320   -8.2650 N   0  0  0  0  0  0  0  0  0  0  0  0
   -5.9350   -5.7370   -7.8910 C   0  0  0  0  0  0  0  0  0  0  0  0
   -7.2660   -5.9620   -7.5320 C   0  0  0  0  0  0  0  0  0  0  0  0
   -6.8157   -6.7653   -4.2421 H   0  0  0  0  0  0  0  0  0  0  0  0
   -4.4399   -6.3668   -4.8846 H   0  0  0  0  0  0  0  0  0  0  0  0
   -2.9037   -5.3577   -6.4263 H   0  0  0  0  0  0  0  0  0  0  0  0
   -3.0837   -6.5321   -7.8102 H   0  0  0  0  0  0  0  0  0  0  0  0
   -1.6249   -5.3432   -9.2901 H   0  0  0  0  0  0  0  0  0  0  0  0
   -4.6453    0.3521  -10.7973 H   0  0  0  0  0  0  0  0  0  0  0  0
   -7.1390   -2.3940   -9.4130 H   0  0  0  0  0  0  0  0  0  0  0  0
   -8.7871    0.5680   -8.4004 H   0  0  0  0  0  0  0  0  0  0  0  0
  -11.0116    0.5907   -7.2687 H   0  0  0  0  0  0  0  0  0  0  0  0
  -10.6944   -3.6461   -6.5212 H   0  0  0  0  0  0  0  0  0  0  0  0
   -8.4673   -3.6786   -7.6495 H   0  0  0  0  0  0  0  0  0  0  0  0
   -4.9720   -3.4980   -7.5780 H   0  0  0  0  0  0  0  0  0  0  0  0
   -5.6903   -5.4437   -8.9226 H   0  0  0  0  0  0  0  0  0  0  0  0
   -8.0637   -5.8472   -8.2807 H   0  0  0  0  0  0  0  0  0  0  0  0
  1  2  3  0
  2  3  1  0
  3  4  2  0
  4  5  1  0
  5  6  2  0
  6  7  1  0
  7  8  1  0
  8  9  2  0
  9 10  1  0
 10 11  2  0
 10 12  1  0
 12 13  1  0
 13 14  2  0
 14 15  1  0
 15 16  1  0
 16 17  2  0
 16 18  1  0
 18 19  1  0
 19 20  2  0
 20 21  1  0
 21 22  2  0
 22 23  1  0
 22 24  1  0
 24 25  2  0
 15 26  2  0
 26 27  1  0
  6 28  1  0
 28 29  2  0
 29  3  1  0
 27  8  1  0
 26 12  1  0
 25 19  1  0
  4 30  1  0
  5 31  1  0
  7 32  1  0
  7 33  1  0
  9 34  1  0
 14 35  1  0
 18 36  1  0
 20 37  1  0
 21 38  1  0
 24 39  1  0
 25 40  1  0
 27 41  1  0
 28 42  1  0
 29 43  1  0
M  END
>  <meeko>  (1) 
{"is_sidechain": [false], "free_energy": -9.775, "intermolecular_energy": -12.06, "internal_energy": -0.773}

$$$$
4k18_ligand
     RDKit          3D

 43 46  0  0  0  0  0  0  0  0999 V2000
   -2.3130   -5.8570   -7.5360 N   0  0  0  0  0  0  0  0  0  0  0  0
   -3.4380   -5.9450   -7.2640 C   0  0  0  0  0  0  0  0  0  0  0  0
   -4.8270   -6.0500   -6.9280 C   0  0  0  0  0  0  0  0  0  0  0  0
   -5.2130   -6.3230   -5.6120 C   0  0  0  0  0  0  0  0  0  0  0  0
   -6.5680   -6.4250   -5.2840 C   0  0  0  0  0  0  0  0  0  0  0  0
   -7.5520   -6.2570   -6.2690 C   0  0  0  0  0  0  0  0  0  0  0  0
   -9.0190   -6.3890   -5.9200 C   0  0  0  0  0  0  0  0  0  0  0  0
   -9.9080   -5.4510   -6.7160 C   0  0  0  0  0  0  0  0  0  0  0  0
  -11.2440   -5.6310   -6.7640 C   0  0  0  0  0  0  0  0  0  0  0  0
  -12.0990   -4.7000   -7.5550 C   0  0  0  0  0  0  0  0  0  0  0  0
  -13.3160   -4.8080   -7.6380 O   0  0  0  0  0  0  0  0  0  0  0  0
  -11.3850   -3.6770   -8.2000 N   0  0  0  0  0  0  0  0  0  0  0  0
  -11.9660   -2.7140   -8.9650 N   0  0  0  0  0  0  0  0  0  0  0  0
  -10.9350   -1.9620   -9.3610 C   0  0  0  0  0  0  0  0  0  0  0  0
   -9.6800   -2.4070   -8.8750 C   0  0  0  0  0  0  0  0  0  0  0  0
   -8.3260   -1.8950   -9.0530 C   0  0  0  0  0  0  0  0  0  0  0  0
   -8.0350   -0.7720   -8.6530 O   0  0  0  0  0  0  0  0  0  0  0  0
   -7.4620   -2.7690   -9.6880 N   0  0  0  0  0  0  0  0  0  0  0  0
   -6.1000   -2.5600   -9.9980 C   0  0  0  0  0  0  0  0  0  0  0  0
   -5.6250   -2.2110  -11.2670 C   0  0  0  0  0  0  0  0  0  0  0  0
   -4.2560   -2.0240  -11.4840 C   0  0  0  0  0  0  0  0  0  0  0  0
   -3.3620   -2.1840  -10.4350 C   0  0  0  0  0  0  0  0  0  0  0  0
   -2.0520   -2.0030  -10.6460 F   0  0  0  0  0  0  0  0  0  0  0  0
   -3.8110   -2.5290   -9.1680 C   0  0  0  0  0  0  0  0  0  0  0  0
   -5.1790   -2.7180   -8.9500 C   0  0  0  0  0  0  0  0  0  0  0  0
  -10.0160   -3.5210   -8.1340 C   0  0  0  0  0  0  0  0  0  0  0  0
   -9.3020   -4.4120   -7.4080 N   0  0  0  0  0  0  0  0  0  0  0  0
   -7.1570   -5.9860   -7.5880 C   0  0  0  0  0  0  0  0  0  0  0  0
   -5.8030   -5.8820   -7.9150 C   0  0  0  0  0  0  0  0  0  0  0  0
   -4.4483   -6.4578   -4.8328 H   0  0  0  0  0  0  0  0  0  0  0  0
   -6.8644   -6.6385   -4.2464 H   0  0  0  0  0  0  0  0  0  0  0  0
   -9.3345   -7.4237   -6.1197 H   0  0  0  0  0  0  0  0  0  0  0  0
   -9.1285   -6.1221   -4.8585 H   0  0  0  0  0  0  0  0  0  0  0  0
  -11.7043   -6.4675   -6.2177 H   0  0  0  0  0  0  0  0  0  0  0  0
  -11.0497   -1.0780  -10.0055 H   0  0  0  0  0  0  0  0  0  0  0  0
   -7.8320   -3.6630   -9.9740 H   0  0  0  0  0  0  0  0  0  0  0  0
   -6.3328   -2.0829  -12.0993 H   0  0  0  0  0  0  0  0  0  0  0  0
   -3.8888   -1.7506  -12.4842 H   0  0  0  0  0  0  0  0  0  0  0  0
   -3.0959   -2.6528   -8.3414 H   0  0  0  0  0  0  0  0  0  0  0  0
   -5.5375   -2.9933   -7.9472 H   0  0  0  0  0  0  0  0  0  0  0  0
   -8.2900   -4.2940   -7.2970 H   0  0  0  0  0  0  0  0  0  0  0  0
   -7.9192   -5.8545   -8.3701 H   0  0  0  0  0  0  0  0  0  0  0  0
   -5.5038   -5.6674   -8.9516 H   0  0  0  0  0  0  0  0  0  0  0  0
  1  2  3  0
  2  3  1  0
  3  4  2  0
  4  5  1  0
  5  6  2  0
  6  7  1  0
  7  8  1  0
  8  9  2  0
  9 10  1  0
 10 11  2  0
 10 12  1  0
 12 13  1  0
 13 14  2  0
 14 15  1  0
 15 16  1  0
 16 17  2  0
 16 18  1  0
 18 19  1  0
 19 20  2  0
 20 21  1  0
 21 22  2  0
 22 23  1  0
 22 24  1  0
 24 25  2  0
 15 26  2  0
 26 27  1  0
  6 28  1  0
 28 29  2  0
 29  3  1  0
 27  8  1  0
 26 12  1  0
 25 19  1  0
  4 30  1  0
  5 31  1  0
  7 32  1  0
  7 33  1  0
  9 34  1  0
 14 35  1  0
 18 36  1  0
 20 37  1  0
 21 38  1  0
 24 39  1  0
 25 40  1  0
 27 41  1  0
 28 42  1  0
 29 43  1  0
M  END
>  <meeko>  (2) 
{"is_sidechain": [false], "free_energy": -9.523, "intermolecular_energy": -11.939, "internal_energy": -0.584}

$$$$
4k18_ligand
     RDKit          3D

 43 46  0  0  0  0  0  0  0  0999 V2000
   -6.0960    2.8730   -8.9980 N   0  0  0  0  0  0  0  0  0  0  0  0
   -5.6710    1.7940   -9.0390 C   0  0  0  0  0  0  0  0  0  0  0  0
   -5.1430    0.4620   -9.0900 C   0  0  0  0  0  0  0  0  0  0  0  0
   -5.5170   -0.4030  -10.1220 C   0  0  0  0  0  0  0  0  0  0  0  0
   -5.0030   -1.7010  -10.1730 C   0  0  0  0  0  0  0  0  0  0  0  0
   -4.1080   -2.1500   -9.1910 C   0  0  0  0  0  0  0  0  0  0  0  0
   -3.5660   -3.5630   -9.2310 C   0  0  0  0  0  0  0  0  0  0  0  0
   -4.1510   -4.4560   -8.1530 C   0  0  0  0  0  0  0  0  0  0  0  0
   -3.3570   -5.0860   -7.2630 C   0  0  0  0  0  0  0  0  0  0  0  0
   -3.9510   -5.9630   -6.2150 C   0  0  0  0  0  0  0  0  0  0  0  0
   -3.2860   -6.5620   -5.3790 O   0  0  0  0  0  0  0  0  0  0  0  0
   -5.3520   -6.0440   -6.2640 N   0  0  0  0  0  0  0  0  0  0  0  0
   -6.1000   -6.7780   -5.3970 N   0  0  0  0  0  0  0  0  0  0  0  0
   -7.3550   -6.5580   -5.7990 C   0  0  0  0  0  0  0  0  0  0  0  0
   -7.4560   -5.6920   -6.9170 C   0  0  0  0  0  0  0  0  0  0  0  0
   -8.6050   -5.1920   -7.6650 C   0  0  0  0  0  0  0  0  0  0  0  0
   -8.4900   -4.9170   -8.8550 O   0  0  0  0  0  0  0  0  0  0  0  0
   -9.7650   -5.0700   -6.9210 N   0  0  0  0  0  0  0  0  0  0  0  0
  -11.0280   -4.6190   -7.3630 C   0  0  0  0  0  0  0  0  0  0  0  0
  -11.2360   -3.4340   -8.0760 C   0  0  0  0  0  0  0  0  0  0  0  0
  -12.5240   -3.0640   -8.4750 C   0  0  0  0  0  0  0  0  0  0  0  0
  -13.6040   -3.8780   -8.1630 C   0  0  0  0  0  0  0  0  0  0  0  0
  -14.8360   -3.5220   -8.5470 F   0  0  0  0  0  0  0  0  0  0  0  0
  -13.4210   -5.0600   -7.4580 C   0  0  0  0  0  0  0  0  0  0  0  0
  -12.1330   -5.4290   -7.0580 C   0  0  0  0  0  0  0  0  0  0  0  0
   -6.1390   -5.3880   -7.1890 C   0  0  0  0  0  0  0  0  0  0  0  0
   -5.5290   -4.6200   -8.1210 N   0  0  0  0  0  0  0  0  0  0  0  0
   -3.7380   -1.2770   -8.1560 C   0  0  0  0  0  0  0  0  0  0  0  0
   -4.2520    0.0210   -8.1070 C   0  0  0  0  0  0  0  0  0  0  0  0
   -6.2186   -0.0606  -10.8969 H   0  0  0  0  0  0  0  0  0  0  0  0
   -5.3023   -2.3754  -10.9888 H   0  0  0  0  0  0  0  0  0  0  0  0
   -3.8003   -4.0001  -10.2128 H   0  0  0  0  0  0  0  0  0  0  0  0
   -2.4819   -3.5034   -9.0546 H   0  0  0  0  0  0  0  0  0  0  0  0
   -2.2663   -4.9518   -7.3111 H   0  0  0  0  0  0  0  0  0  0  0  0
   -8.2302   -7.0078   -5.3073 H   0  0  0  0  0  0  0  0  0  0  0  0
   -9.7200   -5.3250   -5.9450 H   0  0  0  0  0  0  0  0  0  0  0  0
  -10.3806   -2.7887   -8.3246 H   0  0  0  0  0  0  0  0  0  0  0  0
  -12.6809   -2.1302   -9.0347 H   0  0  0  0  0  0  0  0  0  0  0  0
  -14.2819   -5.7007   -7.2162 H   0  0  0  0  0  0  0  0  0  0  0  0
  -11.9841   -6.3642   -6.4983 H   0  0  0  0  0  0  0  0  0  0  0  0
   -6.0870   -4.0790   -8.7890 H   0  0  0  0  0  0  0  0  0  0  0  0
   -3.0385   -1.6173   -7.3782 H   0  0  0  0  0  0  0  0  0  0  0  0
   -3.9548    0.6981   -7.2926 H   0  0  0  0  0  0  0  0  0  0  0  0
  1  2  3  0
  2  3  1  0
  3  4  2  0
  4  5  1  0
  5  6  2  0
  6  7  1  0
  7  8  1  0
  8  9  2  0
  9 10  1  0
 10 11  2  0
 10 12  1  0
 12 13  1  0
 13 14  2  0
 14 15  1  0
 15 16  1  0
 16 17  2  0
 16 18  1  0
 18 19  1  0
 19 20  2  0
 20 21  1  0
 21 22  2  0
 22 23  1  0
 22 24  1  0
 24 25  2  0
 15 26  2  0
 26 27  1  0
  6 28  1  0
 28 29  2  0
 29  3  1  0
 27  8  1  0
 26 12  1  0
 25 19  1  0
  4 30  1  0
  5 31  1  0
  7 32  1  0
  7 33  1  0
  9 34  1  0
 14 35  1  0
 18 36  1  0
 20 37  1  0
 21 38  1  0
 24 39  1  0
 25 40  1  0
 27 41  1  0
 28 42  1  0
 29 43  1  0
M  END
>  <meeko>  (3) 
{"is_sidechain": [false], "free_energy": -9.463, "intermolecular_energy": -11.468, "internal_energy": -0.98}

$$$$
4k18_ligand
     RDKit          3D

 43 46  0  0  0  0  0  0  0  0999 V2000
  -11.8910   -3.9350   -8.0360 N   0  0  0  0  0  0  0  0  0  0  0  0
  -10.9660   -3.2510   -8.1900 C   0  0  0  0  0  0  0  0  0  0  0  0
   -9.8270   -2.4030   -8.3790 C   0  0  0  0  0  0  0  0  0  0  0  0
   -9.3290   -2.1710   -9.6650 C   0  0  0  0  0  0  0  0  0  0  0  0
   -8.2170   -1.3440   -9.8500 C   0  0  0  0  0  0  0  0  0  0  0  0
   -7.5900   -0.7400   -8.7500 C   0  0  0  0  0  0  0  0  0  0  0  0
   -6.3730    0.1380   -8.9460 C   0  0  0  0  0  0  0  0  0  0  0  0
   -5.1510   -0.6320   -9.4130 C   0  0  0  0  0  0  0  0  0  0  0  0
   -4.2890   -0.0980  -10.3020 C   0  0  0  0  0  0  0  0  0  0  0  0
   -3.0970   -0.8730  -10.7510 C   0  0  0  0  0  0  0  0  0  0  0  0
   -2.2780   -0.4460  -11.5540 O   0  0  0  0  0  0  0  0  0  0  0  0
   -2.9900   -2.1460  -10.1670 N   0  0  0  0  0  0  0  0  0  0  0  0
   -1.9770   -3.0160  -10.4260 N   0  0  0  0  0  0  0  0  0  0  0  0
   -2.2660   -4.0730   -9.6610 C   0  0  0  0  0  0  0  0  0  0  0  0
   -3.4510   -3.9230   -8.8990 C   0  0  0  0  0  0  0  0  0  0  0  0
   -4.1230   -4.8060   -7.9520 C   0  0  0  0  0  0  0  0  0  0  0  0
   -3.4640   -5.5550   -7.2360 O   0  0  0  0  0  0  0  0  0  0  0  0
   -5.5030   -4.7080   -7.9550 N   0  0  0  0  0  0  0  0  0  0  0  0
   -6.4190   -5.4270   -7.1560 C   0  0  0  0  0  0  0  0  0  0  0  0
   -6.0600   -6.2000   -6.0480 C   0  0  0  0  0  0  0  0  0  0  0  0
   -7.0370   -6.8800   -5.3130 C   0  0  0  0  0  0  0  0  0  0  0  0
   -8.3710   -6.7870   -5.6830 C   0  0  0  0  0  0  0  0  0  0  0  0
   -9.3030   -7.4380   -4.9770 F   0  0  0  0  0  0  0  0  0  0  0  0
   -8.7490   -6.0240   -6.7790 C   0  0  0  0  0  0  0  0  0  0  0  0
   -7.7740   -5.3450   -7.5160 C   0  0  0  0  0  0  0  0  0  0  0  0
   -3.8900   -2.6660   -9.2610 C   0  0  0  0  0  0  0  0  0  0  0  0
   -4.9580   -1.9110   -8.9100 N   0  0  0  0  0  0  0  0  0  0  0  0
   -8.0930   -0.9800   -7.4630 C   0  0  0  0  0  0  0  0  0  0  0  0
   -9.2050   -1.8050   -7.2780 C   0  0  0  0  0  0  0  0  0  0  0  0
   -9.8137   -2.6406  -10.5337 H   0  0  0  0  0  0  0  0  0  0  0  0
   -7.8313   -1.1658  -10.8646 H   0  0  0  0  0  0  0  0  0  0  0  0
   -6.6120    0.9045   -9.6979 H   0  0  0  0  0  0  0  0  0  0  0  0
   -6.1277    0.5807   -7.9693 H   0  0  0  0  0  0  0  0  0  0  0  0
   -4.4659    0.9131  -10.6974 H   0  0  0  0  0  0  0  0  0  0  0  0
   -1.6407   -4.9773   -9.6261 H   0  0  0  0  0  0  0  0  0  0  0  0
   -5.9210   -4.0550   -8.6020 H   0  0  0  0  0  0  0  0  0  0  0  0
   -5.0031   -6.2740   -5.7523 H   0  0  0  0  0  0  0  0  0  0  0  0
   -6.7480   -7.4877   -4.4428 H   0  0  0  0  0  0  0  0  0  0  0  0
   -9.8086   -5.9539   -7.0659 H   0  0  0  0  0  0  0  0  0  0  0  0
   -8.0710   -4.7409   -8.3860 H   0  0  0  0  0  0  0  0  0  0  0  0
   -5.6160   -2.2470   -8.2000 H   0  0  0  0  0  0  0  0  0  0  0  0
   -7.6079   -0.5148   -6.5922 H   0  0  0  0  0  0  0  0  0  0  0  0
   -9.5924   -1.9848   -6.2643 H   0  0  0  0  0  0  0  0  0  0  0  0
  1  2  3  0
  2  3  1  0
  3  4  2  0
  4  5  1  0
  5  6  2  0
  6  7  1  0
  7  8  1  0
  8  9  2  0
  9 10  1  0
 10 11  2  0
 10 12  1  0
 12 13  1  0
 13 14  2  0
 14 15  1  0
 15 16  1  0
 16 17  2  0
 16 18  1  0
 18 19  1  0
 19 20  2  0
 20 21  1  0
 21 22  2  0
 22 23  1  0
 22 24  1  0
 24 25  2  0
 15 26  2  0
 26 27  1  0
  6 28  1  0
 28 29  2  0
 29  3  1  0
 27  8  1  0
 26 12  1  0
 25 19  1  0
  4 30  1  0
  5 31  1  0
  7 32  1  0
  7 33  1  0
  9 34  1  0
 14 35  1  0
 18 36  1  0
 20 37  1  0
 21 38  1  0
 24 39  1  0
 25 40  1  0
 27 41  1  0
 28 42  1  0
 29 43  1  0
M  END
>  <meeko>  (4) 
{"is_sidechain": [false], "free_energy": -9.329, "intermolecular_energy": -11.439, "internal_energy": -0.845}

$$$$
4k18_ligand
     RDKit          3D

 43 46  0  0  0  0  0  0  0  0999 V2000
   -9.0720   -7.4860   -5.0880 N   0  0  0  0  0  0  0  0  0  0  0  0
   -8.1600   -6.9970   -5.6150 C   0  0  0  0  0  0  0  0  0  0  0  0
   -7.0340   -6.3980   -6.2670 C   0  0  0  0  0  0  0  0  0  0  0  0
   -5.7930   -6.3530   -5.6260 C   0  0  0  0  0  0  0  0  0  0  0  0
   -4.6940   -5.7670   -6.2620 C   0  0  0  0  0  0  0  0  0  0  0  0
   -4.8250   -5.2200   -7.5460 C   0  0  0  0  0  0  0  0  0  0  0  0
   -3.6420   -4.5660   -8.2270 C   0  0  0  0  0  0  0  0  0  0  0  0
   -3.9470   -3.1720   -8.7440 C   0  0  0  0  0  0  0  0  0  0  0  0
   -3.0250   -2.4660   -9.4300 C   0  0  0  0  0  0  0  0  0  0  0  0
   -3.3430   -1.0970   -9.9250 C   0  0  0  0  0  0  0  0  0  0  0  0
   -2.5510   -0.4050  -10.5530 O   0  0  0  0  0  0  0  0  0  0  0  0
   -4.6410   -0.6630   -9.6110 N   0  0  0  0  0  0  0  0  0  0  0  0
   -5.1440    0.5480   -9.9740 N   0  0  0  0  0  0  0  0  0  0  0  0
   -6.3880    0.5310   -9.4860 C   0  0  0  0  0  0  0  0  0  0  0  0
   -6.7220   -0.6670   -8.8060 C   0  0  0  0  0  0  0  0  0  0  0  0
   -7.9420   -1.1030   -8.1360 C   0  0  0  0  0  0  0  0  0  0  0  0
   -8.3900   -0.4570   -7.1940 O   0  0  0  0  0  0  0  0  0  0  0  0
   -8.4990   -2.2580   -8.6540 N   0  0  0  0  0  0  0  0  0  0  0  0
   -9.6710   -2.9190   -8.2220 C   0  0  0  0  0  0  0  0  0  0  0  0
   -9.7360   -3.7570   -7.1050 C   0  0  0  0  0  0  0  0  0  0  0  0
  -10.9410   -4.3710   -6.7490 C   0  0  0  0  0  0  0  0  0  0  0  0
  -12.0810   -4.1470   -7.5080 C   0  0  0  0  0  0  0  0  0  0  0  0
  -13.2330   -4.7360   -7.1650 F   0  0  0  0  0  0  0  0  0  0  0  0
  -12.0390   -3.3180   -8.6210 C   0  0  0  0  0  0  0  0  0  0  0  0
  -10.8350   -2.7040   -8.9780 C   0  0  0  0  0  0  0  0  0  0  0  0
   -5.5630   -1.4080   -8.9050 C   0  0  0  0  0  0  0  0  0  0  0  0
   -5.1990   -2.6380   -8.4740 N   0  0  0  0  0  0  0  0  0  0  0  0
   -6.0740   -5.2660   -8.1820 C   0  0  0  0  0  0  0  0  0  0  0  0
   -7.1720   -5.8520   -7.5470 C   0  0  0  0  0  0  0  0  0  0  0  0
   -5.6803   -6.7797   -4.6184 H   0  0  0  0  0  0  0  0  0  0  0  0
   -3.7203   -5.7351   -5.7513 H   0  0  0  0  0  0  0  0  0  0  0  0
   -2.8158   -4.4980   -7.5040 H   0  0  0  0  0  0  0  0  0  0  0  0
   -3.3797   -5.1874   -9.0959 H   0  0  0  0  0  0  0  0  0  0  0  0
   -2.0343   -2.9026   -9.6248 H   0  0  0  0  0  0  0  0  0  0  0  0
   -7.0892    1.3706   -9.6016 H   0  0  0  0  0  0  0  0  0  0  0  0
   -8.0240   -2.6970   -9.4290 H   0  0  0  0  0  0  0  0  0  0  0  0
   -8.8333   -3.9346   -6.5020 H   0  0  0  0  0  0  0  0  0  0  0  0
  -10.9851   -5.0300   -5.8694 H   0  0  0  0  0  0  0  0  0  0  0  0
  -12.9469   -3.1456   -9.2177 H   0  0  0  0  0  0  0  0  0  0  0  0
  -10.7989   -2.0464   -9.8591 H   0  0  0  0  0  0  0  0  0  0  0  0
   -5.8770   -3.2370   -7.9920 H   0  0  0  0  0  0  0  0  0  0  0  0
   -6.1902   -4.8375   -9.1884 H   0  0  0  0  0  0  0  0  0  0  0  0
   -8.1471   -5.8839   -8.0550 H   0  0  0  0  0  0  0  0  0  0  0  0
  1  2  3  0
  2  3  1  0
  3  4  2  0
  4  5  1  0
  5  6  2  0
  6  7  1  0
  7  8  1  0
  8  9  2  0
  9 10  1  0
 10 11  2  0
 10 12  1  0
 12 13  1  0
 13 14  2  0
 14 15  1  0
 15 16  1  0
 16 17  2  0
 16 18  1  0
 18 19  1  0
 19 20  2  0
 20 21  1  0
 21 22  2  0
 22 23  1  0
 22 24  1  0
 24 25  2  0
 15 26  2  0
 26 27  1  0
  6 28  1  0
 28 29  2  0
 29  3  1  0
 27  8  1  0
 26 12  1  0
 25 19  1  0
  4 30  1  0
  5 31  1  0
  7 32  1  0
  7 33  1  0
  9 34  1  0
 14 35  1  0
 18 36  1  0
 20 37  1  0
 21 38  1  0
 24 39  1  0
 25 40  1  0
 27 41  1  0
 28 42  1  0
 29 43  1  0
M  END
>  <meeko>  (5) 
{"is_sidechain": [false], "free_energy": -9.288, "intermolecular_energy": -11.505, "internal_energy": -0.728}

$$$$
4k18_ligand
     RDKit          3D

 43 46  0  0  0  0  0  0  0  0999 V2000
   -8.8320   -7.4370   -5.1610 N   0  0  0  0  0  0  0  0  0  0  0  0
   -8.0330   -6.8230   -5.7360 C   0  0  0  0  0  0  0  0  0  0  0  0
   -7.0460   -6.0620   -6.4440 C   0  0  0  0  0  0  0  0  0  0  0  0
   -7.3820   -5.4110   -7.6350 C   0  0  0  0  0  0  0  0  0  0  0  0
   -6.4200   -4.6690   -8.3260 C   0  0  0  0  0  0  0  0  0  0  0  0
   -5.1110   -4.5700   -7.8340 C   0  0  0  0  0  0  0  0  0  0  0  0
   -4.0620   -3.7850   -8.5930 C   0  0  0  0  0  0  0  0  0  0  0  0
   -4.3440   -2.2950   -8.6300 C   0  0  0  0  0  0  0  0  0  0  0  0
   -3.3840   -1.4120   -8.9730 C   0  0  0  0  0  0  0  0  0  0  0  0
   -3.6800    0.0490   -8.9990 C   0  0  0  0  0  0  0  0  0  0  0  0
   -2.8540    0.9000   -9.3020 O   0  0  0  0  0  0  0  0  0  0  0  0
   -5.0010    0.3700   -8.6470 N   0  0  0  0  0  0  0  0  0  0  0  0
   -5.4900    1.6390   -8.6150 N   0  0  0  0  0  0  0  0  0  0  0  0
   -6.7640    1.4770   -8.2480 C   0  0  0  0  0  0  0  0  0  0  0  0
   -7.1320    0.1250   -8.0350 C   0  0  0  0  0  0  0  0  0  0  0  0
   -8.3920   -0.4940   -7.6360 C   0  0  0  0  0  0  0  0  0  0  0  0
   -9.0390   -0.0270   -6.7040 O   0  0  0  0  0  0  0  0  0  0  0  0
   -8.7490   -1.6020   -8.3850 N   0  0  0  0  0  0  0  0  0  0  0  0
   -9.9020   -2.4040   -8.2400 C   0  0  0  0  0  0  0  0  0  0  0  0
  -11.0290   -2.3190   -9.0630 C   0  0  0  0  0  0  0  0  0  0  0  0
  -12.1300   -3.1550   -8.8470 C   0  0  0  0  0  0  0  0  0  0  0  0
  -12.1040   -4.0760   -7.8090 C   0  0  0  0  0  0  0  0  0  0  0  0
  -13.1580   -4.8750   -7.6040 F   0  0  0  0  0  0  0  0  0  0  0  0
  -10.9950   -4.1780   -6.9800 C   0  0  0  0  0  0  0  0  0  0  0  0
   -9.8950   -3.3420   -7.1950 C   0  0  0  0  0  0  0  0  0  0  0  0
   -5.9620   -0.5560   -8.2980 C   0  0  0  0  0  0  0  0  0  0  0  0
   -5.6170   -1.8650   -8.2820 N   0  0  0  0  0  0  0  0  0  0  0  0
   -4.7800   -5.2280   -6.6410 C   0  0  0  0  0  0  0  0  0  0  0  0
   -5.7420   -5.9690   -5.9490 C   0  0  0  0  0  0  0  0  0  0  0  0
   -8.4064   -5.4830   -8.0292 H   0  0  0  0  0  0  0  0  0  0  0  0
   -6.6918   -4.1593   -9.2621 H   0  0  0  0  0  0  0  0  0  0  0  0
   -3.0872   -3.9448   -8.1091 H   0  0  0  0  0  0  0  0  0  0  0  0
   -4.0705   -4.1461   -9.6320 H   0  0  0  0  0  0  0  0  0  0  0  0
   -2.3779   -1.7714   -9.2348 H   0  0  0  0  0  0  0  0  0  0  0  0
   -7.4638    2.3164   -8.1225 H   0  0  0  0  0  0  0  0  0  0  0  0
   -8.1210   -1.8870   -9.1220 H   0  0  0  0  0  0  0  0  0  0  0  0
  -11.0503   -1.5897   -9.8862 H   0  0  0  0  0  0  0  0  0  0  0  0
  -13.0137   -3.0825   -9.4980 H   0  0  0  0  0  0  0  0  0  0  0  0
  -10.9818   -4.9111   -6.1600 H   0  0  0  0  0  0  0  0  0  0  0  0
   -9.0154   -3.4199   -6.5390 H   0  0  0  0  0  0  0  0  0  0  0  0
   -6.3210   -2.5810   -8.0780 H   0  0  0  0  0  0  0  0  0  0  0  0
   -3.7553   -5.1605   -6.2466 H   0  0  0  0  0  0  0  0  0  0  0  0
   -5.4725   -6.4801   -5.0130 H   0  0  0  0  0  0  0  0  0  0  0  0
  1  2  3  0
  2  3  1  0
  3  4  2  0
  4  5  1  0
  5  6  2  0
  6  7  1  0
  7  8  1  0
  8  9  2  0
  9 10  1  0
 10 11  2  0
 10 12  1  0
 12 13  1  0
 13 14  2  0
 14 15  1  0
 15 16  1  0
 16 17  2  0
 16 18  1  0
 18 19  1  0
 19 20  2  0
 20 21  1  0
 21 22  2  0
 22 23  1  0
 22 24  1  0
 24 25  2  0
 15 26  2  0
 26 27  1  0
  6 28  1  0
 28 29  2  0
 29  3  1  0
 27  8  1  0
 26 12  1  0
 25 19  1  0
  4 30  1  0
  5 31  1  0
  7 32  1  0
  7 33  1  0
  9 34  1  0
 14 35  1  0
 18 36  1  0
 20 37  1  0
 21 38  1  0
 24 39  1  0
 25 40  1  0
 27 41  1  0
 28 42  1  0
 29 43  1  0
M  END
>  <meeko>  (6) 
{"is_sidechain": [false], "free_energy": -9.253, "intermolecular_energy": -11.497, "internal_energy": -0.693}

$$$$
4k18_ligand
     RDKit          3D

 43 46  0  0  0  0  0  0  0  0999 V2000
   -2.5640   -5.6840   -7.5170 N   0  0  0  0  0  0  0  0  0  0  0  0
   -3.7040   -5.7510   -7.3090 C   0  0  0  0  0  0  0  0  0  0  0  0
   -5.1110   -5.8380   -7.0520 C   0  0  0  0  0  0  0  0  0  0  0  0
   -6.0290   -5.4540   -8.0340 C   0  0  0  0  0  0  0  0  0  0  0  0
   -7.4020   -5.5380   -7.7840 C   0  0  0  0  0  0  0  0  0  0  0  0
   -7.8710   -6.0070   -6.5480 C   0  0  0  0  0  0  0  0  0  0  0  0
   -9.3570   -6.0790   -6.2680 C   0  0  0  0  0  0  0  0  0  0  0  0
  -10.1210   -4.8760   -6.7900 C   0  0  0  0  0  0  0  0  0  0  0  0
  -11.4380   -4.9550   -7.0710 C   0  0  0  0  0  0  0  0  0  0  0  0
  -12.1690   -3.7630   -7.5870 C   0  0  0  0  0  0  0  0  0  0  0  0
  -13.3620   -3.7700   -7.8610 O   0  0  0  0  0  0  0  0  0  0  0  0
  -11.3670   -2.6200   -7.7330 N   0  0  0  0  0  0  0  0  0  0  0  0
  -11.8300   -1.4210   -8.1780 N   0  0  0  0  0  0  0  0  0  0  0  0
  -10.7500   -0.6350   -8.1470 C   0  0  0  0  0  0  0  0  0  0  0  0
   -9.5780   -1.2880   -7.6900 C   0  0  0  0  0  0  0  0  0  0  0  0
   -8.2090   -0.8200   -7.5000 C   0  0  0  0  0  0  0  0  0  0  0  0
   -7.8890   -0.2630   -6.4540 O   0  0  0  0  0  0  0  0  0  0  0  0
   -7.3670   -1.0610   -8.5710 N   0  0  0  0  0  0  0  0  0  0  0  0
   -5.9980   -0.7290   -8.6820 C   0  0  0  0  0  0  0  0  0  0  0  0
   -4.9510   -1.6390   -8.5110 C   0  0  0  0  0  0  0  0  0  0  0  0
   -3.6220   -1.2220   -8.6400 C   0  0  0  0  0  0  0  0  0  0  0  0
   -3.3390    0.1030   -8.9400 C   0  0  0  0  0  0  0  0  0  0  0  0
   -2.0670    0.4990   -9.0630 F   0  0  0  0  0  0  0  0  0  0  0  0
   -4.3640    1.0230   -9.1150 C   0  0  0  0  0  0  0  0  0  0  0  0
   -5.6920    0.6080   -8.9850 C   0  0  0  0  0  0  0  0  0  0  0  0
  -10.0200   -2.5700   -7.4390 C   0  0  0  0  0  0  0  0  0  0  0  0
   -9.4180   -3.6950   -6.9880 N   0  0  0  0  0  0  0  0  0  0  0  0
   -6.9440   -6.3880   -5.5670 C   0  0  0  0  0  0  0  0  0  0  0  0
   -5.5720   -6.3050   -5.8180 C   0  0  0  0  0  0  0  0  0  0  0  0
   -5.6701   -5.0848   -9.0060 H   0  0  0  0  0  0  0  0  0  0  0  0
   -8.1188   -5.2345   -8.5612 H   0  0  0  0  0  0  0  0  0  0  0  0
   -9.7598   -6.9839   -6.7465 H   0  0  0  0  0  0  0  0  0  0  0  0
   -9.4840   -6.0989   -5.1755 H   0  0  0  0  0  0  0  0  0  0  0  0
  -11.9747   -5.9031   -6.9187 H   0  0  0  0  0  0  0  0  0  0  0  0
  -10.7687    0.4227   -8.4487 H   0  0  0  0  0  0  0  0  0  0  0  0
   -7.7600   -1.5230   -9.3780 H   0  0  0  0  0  0  0  0  0  0  0  0
   -5.1735   -2.6898   -8.2735 H   0  0  0  0  0  0  0  0  0  0  0  0
   -2.8026   -1.9432   -8.5039 H   0  0  0  0  0  0  0  0  0  0  0  0
   -4.1323    2.0714   -9.3543 H   0  0  0  0  0  0  0  0  0  0  0  0
   -6.5057    1.3355   -9.1213 H   0  0  0  0  0  0  0  0  0  0  0  0
   -8.4320   -3.6780   -6.7110 H   0  0  0  0  0  0  0  0  0  0  0  0
   -7.2996   -6.7548   -4.5929 H   0  0  0  0  0  0  0  0  0  0  0  0
   -4.8530   -6.6079   -5.0426 H   0  0  0  0  0  0  0  0  0  0  0  0
  1  2  3  0
  2  3  1  0
  3  4  2  0
  4  5  1  0
  5  6  2  0
  6  7  1  0
  7  8  1  0
  8  9  2  0
  9 10  1  0
 10 11  2  0
 10 12  1  0
 12 13  1  0
 13 14  2  0
 14 15  1  0
 15 16  1  0
 16 17  2  0
 16 18  1  0
 18 19  1  0
 19 20  2  0
 20 21  1  0
 21 22  2  0
 22 23  1  0
 22 24  1  0
 24 25  2  0
 15 26  2  0
 26 27  1  0
  6 28  1  0
 28 29  2  0
 29  3  1  0
 27  8  1  0
 26 12  1  0
 25 19  1  0
  4 30  1  0
  5 31  1  0
  7 32  1  0
  7 33  1  0
  9 34  1  0
 14 35  1  0
 18 36  1  0
 20 37  1  0
 21 38  1  0
 24 39  1  0
 25 40  1  0
 27 41  1  0
 28 42  1  0
 29 43  1  0
M  END
>  <meeko>  (7) 
{"is_sidechain": [false], "free_energy": -9.188, "intermolecular_energy": -11.415, "internal_energy": -0.694}

$$$$
4k18_ligand
     RDKit          3D

 43 46  0  0  0  0  0  0  0  0999 V2000
   -1.2660   -3.1760  -11.3390 N   0  0  0  0  0  0  0  0  0  0  0  0
   -1.8820   -3.5930  -10.4480 C   0  0  0  0  0  0  0  0  0  0  0  0
   -2.6450   -4.1100   -9.3510 C   0  0  0  0  0  0  0  0  0  0  0  0
   -3.3330   -3.2390   -8.5010 C   0  0  0  0  0  0  0  0  0  0  0  0
   -4.0770   -3.7420   -7.4310 C   0  0  0  0  0  0  0  0  0  0  0  0
   -4.1420   -5.1240   -7.1980 C   0  0  0  0  0  0  0  0  0  0  0  0
   -4.9300   -5.6700   -6.0260 C   0  0  0  0  0  0  0  0  0  0  0  0
   -6.4300   -5.6430   -6.2520 C   0  0  0  0  0  0  0  0  0  0  0  0
   -7.2240   -6.6200   -5.7700 C   0  0  0  0  0  0  0  0  0  0  0  0
   -8.6950   -6.5780   -6.0070 C   0  0  0  0  0  0  0  0  0  0  0  0
   -9.4700   -7.4330   -5.5960 O   0  0  0  0  0  0  0  0  0  0  0  0
   -9.1240   -5.4630   -6.7450 N   0  0  0  0  0  0  0  0  0  0  0  0
  -10.4220   -5.2200   -7.0670 N   0  0  0  0  0  0  0  0  0  0  0  0
  -10.3690   -4.0710   -7.7480 C   0  0  0  0  0  0  0  0  0  0  0  0
   -9.0600   -3.5460   -7.8850 C   0  0  0  0  0  0  0  0  0  0  0  0
   -8.5530   -2.3420   -8.5350 C   0  0  0  0  0  0  0  0  0  0  0  0
   -8.9360   -2.0450   -9.6620 O   0  0  0  0  0  0  0  0  0  0  0  0
   -7.6450   -1.6210   -7.7790 N   0  0  0  0  0  0  0  0  0  0  0  0
   -6.9890   -0.4220   -8.1340 C   0  0  0  0  0  0  0  0  0  0  0  0
   -7.5280    0.8550   -7.9520 C   0  0  0  0  0  0  0  0  0  0  0  0
   -6.8050    1.9900   -8.3340 C   0  0  0  0  0  0  0  0  0  0  0  0
   -5.5450    1.8490   -8.8970 C   0  0  0  0  0  0  0  0  0  0  0  0
   -4.8550    2.9370   -9.2610 F   0  0  0  0  0  0  0  0  0  0  0  0
   -4.9900    0.5910   -9.0870 C   0  0  0  0  0  0  0  0  0  0  0  0
   -5.7120   -0.5440   -8.7060 C   0  0  0  0  0  0  0  0  0  0  0  0
   -8.2850   -4.4790   -7.2280 C   0  0  0  0  0  0  0  0  0  0  0  0
   -6.9580   -4.5910   -6.9870 N   0  0  0  0  0  0  0  0  0  0  0  0
   -3.4470   -5.9920   -8.0530 C   0  0  0  0  0  0  0  0  0  0  0  0
   -2.7050   -5.4890   -9.1240 C   0  0  0  0  0  0  0  0  0  0  0  0
   -3.2883   -2.1538   -8.6754 H   0  0  0  0  0  0  0  0  0  0  0  0
   -4.6154   -3.0500   -6.7668 H   0  0  0  0  0  0  0  0  0  0  0  0
   -4.6211   -6.7112   -5.8513 H   0  0  0  0  0  0  0  0  0  0  0  0
   -4.7175   -5.0261   -5.1599 H   0  0  0  0  0  0  0  0  0  0  0  0
   -6.7846   -7.4515   -5.1995 H   0  0  0  0  0  0  0  0  0  0  0  0
  -11.2601   -3.5781   -8.1640 H   0  0  0  0  0  0  0  0  0  0  0  0
   -7.4100   -1.9820   -6.8660 H   0  0  0  0  0  0  0  0  0  0  0  0
   -8.5270    0.9680   -7.5056 H   0  0  0  0  0  0  0  0  0  0  0  0
   -7.2346    2.9921   -8.1883 H   0  0  0  0  0  0  0  0  0  0  0  0
   -3.9901    0.4879   -9.5338 H   0  0  0  0  0  0  0  0  0  0  0  0
   -5.2756   -1.5426   -8.8557 H   0  0  0  0  0  0  0  0  0  0  0  0
   -6.3150   -3.8510   -7.2860 H   0  0  0  0  0  0  0  0  0  0  0  0
   -3.4867   -7.0774   -7.8786 H   0  0  0  0  0  0  0  0  0  0  0  0
   -2.1666   -6.1788   -9.7905 H   0  0  0  0  0  0  0  0  0  0  0  0
  1  2  3  0
  2  3  1  0
  3  4  2  0
  4  5  1  0
  5  6  2  0
  6  7  1  0
  7  8  1  0
  8  9  2  0
  9 10  1  0
 10 11  2  0
 10 12  1  0
 12 13  1  0
 13 14  2  0
 14 15  1  0
 15 16  1  0
 16 17  2  0
 16 18  1  0
 18 19  1  0
 19 20  2  0
 20 21  1  0
 21 22  2  0
 22 23  1  0
 22 24  1  0
 24 25  2  0
 15 26  2  0
 26 27  1  0
  6 28  1  0
 28 29  2  0
 29  3  1  0
 27  8  1  0
 26 12  1  0
 25 19  1  0
  4 30  1  0
  5 31  1  0
  7 32  1  0
  7 33  1  0
  9 34  1  0
 14 35  1  0
 18 36  1  0
 20 37  1  0
 21 38  1  0
 24 39  1  0
 25 40  1  0
 27 41  1  0
 28 42  1  0
 29 43  1  0
M  END
>  <meeko>  (8) 
{"is_sidechain": [false], "free_energy": -9.152, "intermolecular_energy": -11.256, "internal_energy": -0.809}

$$$$
4k18_ligand
     RDKit          3D

 43 46  0  0  0  0  0  0  0  0999 V2000
   -4.0470    1.0300   -8.4530 N   0  0  0  0  0  0  0  0  0  0  0  0
   -5.1110    0.5930   -8.6040 C   0  0  0  0  0  0  0  0  0  0  0  0
   -6.4250    0.0500   -8.7870 C   0  0  0  0  0  0  0  0  0  0  0  0
   -6.7330   -0.6650   -9.9480 C   0  0  0  0  0  0  0  0  0  0  0  0
   -8.0150   -1.1950  -10.1280 C   0  0  0  0  0  0  0  0  0  0  0  0
   -9.0020   -1.0140   -9.1490 C   0  0  0  0  0  0  0  0  0  0  0  0
  -10.3960   -1.5680   -9.3520 C   0  0  0  0  0  0  0  0  0  0  0  0
  -10.6710   -2.8090   -8.5240 C   0  0  0  0  0  0  0  0  0  0  0  0
  -11.9310   -3.2390   -8.3080 C   0  0  0  0  0  0  0  0  0  0  0  0
  -12.1800   -4.4580   -7.4880 C   0  0  0  0  0  0  0  0  0  0  0  0
  -13.2980   -4.8990   -7.2560 O   0  0  0  0  0  0  0  0  0  0  0  0
  -11.0120   -5.0670   -7.0010 N   0  0  0  0  0  0  0  0  0  0  0  0
  -11.0050   -6.1950   -6.2410 N   0  0  0  0  0  0  0  0  0  0  0  0
   -9.7070   -6.4180   -6.0190 C   0  0  0  0  0  0  0  0  0  0  0  0
   -8.8490   -5.4610   -6.6170 C   0  0  0  0  0  0  0  0  0  0  0  0
   -7.3970   -5.3240   -6.6330 C   0  0  0  0  0  0  0  0  0  0  0  0
   -6.7600   -5.4140   -5.5880 O   0  0  0  0  0  0  0  0  0  0  0  0
   -6.8560   -5.0930   -7.8850 N   0  0  0  0  0  0  0  0  0  0  0  0
   -5.4940   -4.9200   -8.2160 C   0  0  0  0  0  0  0  0  0  0  0  0
   -4.5290   -5.9280   -8.1290 C   0  0  0  0  0  0  0  0  0  0  0  0
   -3.1990   -5.6670   -8.4790 C   0  0  0  0  0  0  0  0  0  0  0  0
   -2.8350   -4.4020   -8.9160 C   0  0  0  0  0  0  0  0  0  0  0  0
   -1.5630   -4.1560   -9.2510 F   0  0  0  0  0  0  0  0  0  0  0  0
   -3.7780   -3.3870   -9.0110 C   0  0  0  0  0  0  0  0  0  0  0  0
   -5.1060   -3.6460   -8.6610 C   0  0  0  0  0  0  0  0  0  0  0  0
   -9.7340   -4.6030   -7.2370 C   0  0  0  0  0  0  0  0  0  0  0  0
   -9.5850   -3.4810   -7.9790 N   0  0  0  0  0  0  0  0  0  0  0  0
   -8.6860   -0.2930   -7.9880 C   0  0  0  0  0  0  0  0  0  0  0  0
   -7.4050    0.2350   -7.8080 C   0  0  0  0  0  0  0  0  0  0  0  0
   -5.9653   -0.8113  -10.7221 H   0  0  0  0  0  0  0  0  0  0  0  0
   -8.2502   -1.7574  -11.0436 H   0  0  0  0  0  0  0  0  0  0  0  0
  -11.1247   -0.7927   -9.0729 H   0  0  0  0  0  0  0  0  0  0  0  0
  -10.4835   -1.8545  -10.4104 H   0  0  0  0  0  0  0  0  0  0  0  0
  -12.7791   -2.6870   -8.7394 H   0  0  0  0  0  0  0  0  0  0  0  0
   -9.3372   -7.2674   -5.4258 H   0  0  0  0  0  0  0  0  0  0  0  0
   -7.4960   -5.0330   -8.6640 H   0  0  0  0  0  0  0  0  0  0  0  0
   -4.8166   -6.9320   -7.7835 H   0  0  0  0  0  0  0  0  0  0  0  0
   -2.4439   -6.4637   -8.4076 H   0  0  0  0  0  0  0  0  0  0  0  0
   -3.4819   -2.3865   -9.3592 H   0  0  0  0  0  0  0  0  0  0  0  0
   -5.8549   -2.8437   -8.7349 H   0  0  0  0  0  0  0  0  0  0  0  0
   -8.6480   -3.1390   -8.2150 H   0  0  0  0  0  0  0  0  0  0  0  0
   -9.4524   -0.1422   -7.2135 H   0  0  0  0  0  0  0  0  0  0  0  0
   -7.1672    0.7978   -6.8933 H   0  0  0  0  0  0  0  0  0  0  0  0
  1  2  3  0
  2  3  1  0
  3  4  2  0
  4  5  1  0
  5  6  2  0
  6  7  1  0
  7  8  1  0
  8  9  2  0
  9 10  1  0
 10 11  2  0
 10 12  1  0
 12 13  1  0
 13 14  2  0
 14 15  1  0
 15 16  1  0
 16 17  2  0
 16 18  1  0
 18 19  1  0
 19 20  2  0
 20 21  1  0
 21 22  2  0
 22 23  1  0
 22 24  1  0
 24 25  2  0
 15 26  2  0
 26 27  1  0
  6 28  1  0
 28 29  2  0
 29  3  1  0
 27  8  1  0
 26 12  1  0
 25 19  1  0
  4 30  1  0
  5 31  1  0
  7 32  1  0
  7 33  1  0
  9 34  1  0
 14 35  1  0
 18 36  1  0
 20 37  1  0
 21 38  1  0
 24 39  1  0
 25 40  1  0
 27 41  1  0
 28 42  1  0
 29 43  1  0
M  END
>  <meeko>  (9) 
{"is_sidechain": [false], "free_energy": -9.07, "intermolecular_energy": -10.808, "internal_energy": -1.155}

$$$$
