1u1b_ligand
     RDKit          3D

 74 78  0  0  0  0  0  0  0  0999 V2000
    5.7910    2.6730   -3.0000 C   0  0  0  0  0  0  0  0  0  0  0  0
    5.9880    3.5780   -4.1710 C   0  0  0  0  0  0  0  0  0  0  0  0
    5.1730    4.6010   -4.4580 C   0  0  0  0  0  0  0  0  0  0  0  0
    5.3830    5.4580   -5.5270 N   0  0  0  0  0  0  0  0  0  0  0  0
    4.4420    6.5540   -5.8030 C   0  0  1  0  0  0  0  0  0  0  0  0
    3.0280    6.2910   -5.2890 C   0  0  0  0  0  0  0  0  0  0  0  0
    2.5350    7.6920   -4.9910 C   0  0  2  0  0  0  0  0  0  0  0  0
    2.1670    8.2960   -6.2360 O   0  0  0  0  0  0  0  0  0  0  0  0
    0.7130    9.0450   -6.4010 P   0  0  2  0  0  5  0  0  0  0  0  0
    0.3170    8.8000   -7.8420 O   0  0  0  0  0  0  0  0  0  0  0  0
    0.9250   10.4610   -5.9030 O   0  0  0  0  0  0  0  0  0  0  0  0
   -0.1500    8.1570   -5.3870 O   0  0  0  0  0  0  0  0  0  0  0  0
   -1.2220    8.4830   -4.2370 P   0  0  2  0  0  5  0  0  0  0  0  0
   -2.5230    9.0390   -4.7770 O   0  0  0  0  0  0  0  0  0  0  0  0
   -0.5130    9.2880   -3.1550 O   0  0  0  0  0  0  0  0  0  0  0  0
   -1.5260    7.0130   -3.5850 O   0  0  0  0  0  0  0  0  0  0  0  0
   -0.5180    6.0110   -3.7970 C   0  0  0  0  0  0  0  0  0  0  0  0
   -1.0620    4.8300   -4.6230 C   0  0  1  0  0  0  0  0  0  0  0  0
   -1.4230    3.7460   -3.7180 O   0  0  0  0  0  0  0  0  0  0  0  0
   -2.6160    3.1200   -4.2120 C   0  0  1  0  0  0  0  0  0  0  0  0
   -3.6720    3.2330   -3.2160 N   0  0  0  0  0  0  0  0  0  0  0  0
   -3.6580    3.9440   -2.0410 C   0  0  0  0  0  0  0  0  0  0  0  0
   -4.8130    3.8650   -1.3980 N   0  0  0  0  0  0  0  0  0  0  0  0
   -5.5870    3.0460   -2.1830 C   0  0  0  0  0  0  0  0  0  0  0  0
   -6.9200    2.6170   -2.0590 C   0  0  0  0  0  0  0  0  0  0  0  0
   -7.7480    3.0290   -1.0040 N   0  0  0  0  0  0  0  0  0  0  0  0
   -7.4530    1.8330   -3.0240 N   0  0  0  0  0  0  0  0  0  0  0  0
   -6.6440    1.4780   -4.0500 C   0  0  0  0  0  0  0  0  0  0  0  0
   -5.3540    1.7920   -4.2580 N   0  0  0  0  0  0  0  0  0  0  0  0
   -4.8940    2.6130   -3.2980 C   0  0  0  0  0  0  0  0  0  0  0  0
   -2.9590    3.7500   -5.5590 C   0  0  2  0  0  0  0  0  0  0  0  0
   -2.3460    2.9710   -6.6110 O   0  0  0  0  0  0  0  0  0  0  0  0
   -2.3410    5.1410   -5.4300 C   0  0  2  0  0  0  0  0  0  0  0  0
   -2.1230    5.8070   -6.6660 O   0  0  0  0  0  0  0  0  0  0  0  0
   -3.4290    6.4640   -7.4180 P   0  0  0  0  0  0  0  0  0  0  0  0
   -3.8870    5.3440   -8.3490 O   0  0  0  0  0  0  0  0  0  0  0  0
   -4.4170    6.7590   -6.2990 O   0  0  0  0  0  0  0  0  0  0  0  0
   -2.9020    7.6880   -8.1460 O   0  0  0  0  0  0  0  0  0  0  0  0
    3.8160    8.3560   -4.4400 C   0  0  1  0  0  0  0  0  0  0  0  0
    4.0550    8.0950   -2.9270 C   0  0  0  0  0  0  0  0  0  0  0  0
    5.1290    8.8990   -2.4320 O   0  0  0  0  0  0  0  0  0  0  0  0
    4.8580    9.7790   -1.0700 P   0  0  0  0  0  0  0  0  0  0  0  0
    4.7000    8.7330    0.0300 O   0  0  0  0  0  0  0  0  0  0  0  0
    6.0940   10.6520   -0.9150 O   0  0  0  0  0  0  0  0  0  0  0  0
    3.5780   10.5570   -1.3490 O   0  0  0  0  0  0  0  0  0  0  0  0
    4.9080    7.7770   -5.2160 O   0  0  0  0  0  0  0  0  0  0  0  0
    6.4440    5.2750   -6.3900 C   0  0  0  0  0  0  0  0  0  0  0  0
    6.7450    5.9990   -7.3360 O   0  0  0  0  0  0  0  0  0  0  0  0
    7.2440    4.1900   -6.1290 N   0  0  0  0  0  0  0  0  0  0  0  0
    7.1480    3.3550   -5.0540 C   0  0  0  0  0  0  0  0  0  0  0  0
    7.9950    2.4870   -4.8410 O   0  0  0  0  0  0  0  0  0  0  0  0
    5.9156    3.2455   -2.0691 H   0  0  0  0  0  0  0  0  0  0  0  0
    4.7785    2.2444   -3.0341 H   0  0  0  0  0  0  0  0  0  0  0  0
    6.5337    1.8623   -3.0341 H   0  0  0  0  0  0  0  0  0  0  0  0
    4.2961    4.7691   -3.8155 H   0  0  0  0  0  0  0  0  0  0  0  0
    4.3963    6.6301   -6.8994 H   0  0  0  0  0  0  0  0  0  0  0  0
    2.4081    5.8040   -6.0562 H   0  0  0  0  0  0  0  0  0  0  0  0
    2.9899    5.6140   -4.4228 H   0  0  0  0  0  0  0  0  0  0  0  0
    1.6737    7.7622   -4.3104 H   0  0  0  0  0  0  0  0  0  0  0  0
    0.3285    6.4634   -4.3344 H   0  0  0  0  0  0  0  0  0  0  0  0
   -0.1992    5.6287   -2.8161 H   0  0  0  0  0  0  0  0  0  0  0  0
   -0.2568    4.5801   -5.3296 H   0  0  0  0  0  0  0  0  0  0  0  0
   -2.4780    2.0419   -4.3815 H   0  0  0  0  0  0  0  0  0  0  0  0
   -2.7894    4.5123   -1.6768 H   0  0  0  0  0  0  0  0  0  0  0  0
   -7.1520    3.2430   -0.2040 H   0  0  0  0  0  0  0  0  0  0  0  0
   -8.3270    3.7890   -1.3360 H   0  0  0  0  0  0  0  0  0  0  0  0
   -7.1072    0.8443   -4.8206 H   0  0  0  0  0  0  0  0  0  0  0  0
   -4.0309    3.7919   -5.8025 H   0  0  0  0  0  0  0  0  0  0  0  0
   -2.8900    3.2480   -7.4140 H   0  0  0  0  0  0  0  0  0  0  0  0
   -2.9982    5.8734   -4.9385 H   0  0  0  0  0  0  0  0  0  0  0  0
    3.7361    9.4491   -4.5337 H   0  0  0  0  0  0  0  0  0  0  0  0
    3.1377    8.3380   -2.3707 H   0  0  0  0  0  0  0  0  0  0  0  0
    4.3186    7.0357   -2.7913 H   0  0  0  0  0  0  0  0  0  0  0  0
    8.0250    4.0750   -6.7470 H   0  0  0  0  0  0  0  0  0  0  0  0
  1  2  1  0
  2  3  2  0
  3  4  1  0
  4  5  1  0
  5  6  1  0
  6  7  1  0
  7  8  1  0
  8  9  1  0
  9 10  2  0
  9 11  1  1
  9 12  1  0
 12 13  1  0
 13 14  2  0
 13 15  1  1
 13 16  1  0
 16 17  1  0
 17 18  1  0
 18 19  1  0
 19 20  1  0
 20 21  1  0
 21 22  1  0
 22 23  2  0
 23 24  1  0
 24 25  2  0
 25 26  1  0
 25 27  1  0
 27 28  2  0
 28 29  1  0
 29 30  2  0
 20 31  1  0
 31 32  1  0
 31 33  1  0
 33 34  1  0
 34 35  1  0
 35 36  2  0
 35 37  1  0
 35 38  1  0
  7 39  1  0
 39 40  1  0
 40 41  1  0
 41 42  1  0
 42 43  2  0
 42 44  1  0
 42 45  1  0
 39 46  1  0
  4 47  1  0
 47 48  2  0
 47 49  1  0
 49 50  1  0
 50 51  2  0
 50  2  1  0
 46  5  1  0
 33 18  1  0
 30 21  1  0
 30 24  1  0
  1 52  1  0
  1 53  1  0
  1 54  1  0
  3 55  1  0
  5 56  1  6
  6 57  1  0
  6 58  1  0
  7 59  1  1
 17 60  1  0
 17 61  1  0
 18 62  1  6
 20 63  1  6
 22 64  1  0
 26 65  1  0
 26 66  1  0
 28 67  1  0
 31 68  1  6
 32 69  1  0
 33 70  1  1
 39 71  1  1
 40 72  1  0
 40 73  1  0
 49 74  1  0
M  CHG  6  11  -1  15  -1  37  -1  38  -1  44  -1  45  -1
M  END
>  <meeko>  (1) 
{"is_sidechain": [false], "free_energy": -7.329, "intermolecular_energy": -13.755, "internal_energy": -3.155}

$$$$
1u1b_ligand
     RDKit          3D

 74 78  0  0  0  0  0  0  0  0999 V2000
    5.7950    2.7120   -2.8740 C   0  0  0  0  0  0  0  0  0  0  0  0
    5.7380    3.6370   -4.0440 C   0  0  0  0  0  0  0  0  0  0  0  0
    4.7980    4.5790   -4.1950 C   0  0  0  0  0  0  0  0  0  0  0  0
    4.7720    5.4570   -5.2670 N   0  0  0  0  0  0  0  0  0  0  0  0
    3.7030    6.4580   -5.3890 C   0  0  1  0  0  0  0  0  0  0  0  0
    2.5050    6.1890   -4.4810 C   0  0  0  0  0  0  0  0  0  0  0  0
    1.9940    7.5880   -4.2090 C   0  0  2  0  0  0  0  0  0  0  0  0
    1.2570    8.0110   -5.3620 O   0  0  0  0  0  0  0  0  0  0  0  0
    0.3900    9.4080   -5.3290 P   0  0  2  0  0  5  0  0  0  0  0  0
    1.2540   10.4130   -6.0620 O   0  0  0  0  0  0  0  0  0  0  0  0
    0.0340    9.6330   -3.8730 O   0  0  0  0  0  0  0  0  0  0  0  0
   -0.8660    8.9500   -6.2080 O   0  0  0  0  0  0  0  0  0  0  0  0
   -2.2710    8.2430   -5.8820 P   0  0  2  0  0  5  0  0  0  0  0  0
   -3.3800    9.2310   -5.5880 O   0  0  0  0  0  0  0  0  0  0  0  0
   -2.0140    7.1530   -4.8490 O   0  0  0  0  0  0  0  0  0  0  0  0
   -2.6310    7.4710   -7.2780 O   0  0  0  0  0  0  0  0  0  0  0  0
   -1.5100    7.0510   -8.0720 C   0  0  0  0  0  0  0  0  0  0  0  0
   -1.4970    5.5220   -8.2670 C   0  0  1  0  0  0  0  0  0  0  0  0
   -1.1430    4.8870   -7.0040 O   0  0  0  0  0  0  0  0  0  0  0  0
   -1.9180    3.6870   -6.8670 C   0  0  1  0  0  0  0  0  0  0  0  0
   -2.7450    3.7770   -5.6710 N   0  0  0  0  0  0  0  0  0  0  0  0
   -4.1160    3.8050   -5.5880 C   0  0  0  0  0  0  0  0  0  0  0  0
   -4.5370    3.8410   -4.3330 N   0  0  0  0  0  0  0  0  0  0  0  0
   -3.3850    3.8630   -3.5860 C   0  0  0  0  0  0  0  0  0  0  0  0
   -3.1710    3.8620   -2.1960 C   0  0  0  0  0  0  0  0  0  0  0  0
   -4.2250    3.8120   -1.2720 N   0  0  0  0  0  0  0  0  0  0  0  0
   -1.9030    3.8400   -1.7250 N   0  0  0  0  0  0  0  0  0  0  0  0
   -0.9020    3.8530   -2.6370 C   0  0  0  0  0  0  0  0  0  0  0  0
   -0.9820    3.8920   -3.9780 N   0  0  0  0  0  0  0  0  0  0  0  0
   -2.2610    3.8590   -4.3900 C   0  0  0  0  0  0  0  0  0  0  0  0
   -2.7080    3.4830   -8.1560 C   0  0  2  0  0  0  0  0  0  0  0  0
   -1.9370    2.6510   -9.0520 O   0  0  0  0  0  0  0  0  0  0  0  0
   -2.8560    4.9130   -8.6730 C   0  0  2  0  0  0  0  0  0  0  0  0
   -3.1680    5.0110  -10.0560 O   0  0  0  0  0  0  0  0  0  0  0  0
   -4.5000    5.8790  -10.4760 P   0  0  0  0  0  0  0  0  0  0  0  0
   -5.4260    5.6850   -9.2790 O   0  0  0  0  0  0  0  0  0  0  0  0
   -4.0030    7.3090  -10.6270 O   0  0  0  0  0  0  0  0  0  0  0  0
   -5.0110    5.2400  -11.7560 O   0  0  0  0  0  0  0  0  0  0  0  0
    3.3150    8.3820   -4.1050 C   0  0  1  0  0  0  0  0  0  0  0  0
    3.9700    8.3240   -2.6970 C   0  0  0  0  0  0  0  0  0  0  0  0
    4.7060    9.5200   -2.4260 O   0  0  0  0  0  0  0  0  0  0  0  0
    4.7930   10.0240   -0.8640 P   0  0  0  0  0  0  0  0  0  0  0  0
    3.5880   10.9450   -0.6960 O   0  0  0  0  0  0  0  0  0  0  0  0
    4.7110    8.7490   -0.0350 O   0  0  0  0  0  0  0  0  0  0  0  0
    6.1270   10.7520   -0.7560 O   0  0  0  0  0  0  0  0  0  0  0  0
    4.2050    7.7680   -5.0860 O   0  0  0  0  0  0  0  0  0  0  0  0
    5.7130    5.3790   -6.2740 C   0  0  0  0  0  0  0  0  0  0  0  0
    5.8070    6.1330   -7.2410 O   0  0  0  0  0  0  0  0  0  0  0  0
    6.6400    4.3750   -6.1480 N   0  0  0  0  0  0  0  0  0  0  0  0
    6.7770    3.5300   -5.0860 C   0  0  0  0  0  0  0  0  0  0  0  0
    7.7230    2.7450   -5.0100 O   0  0  0  0  0  0  0  0  0  0  0  0
    5.7590    3.2962   -1.9426 H   0  0  0  0  0  0  0  0  0  0  0  0
    4.9376    2.0238   -2.9085 H   0  0  0  0  0  0  0  0  0  0  0  0
    6.7304    2.1343   -2.9085 H   0  0  0  0  0  0  0  0  0  0  0  0
    4.0095    4.6596   -3.4323 H   0  0  0  0  0  0  0  0  0  0  0  0
    3.3595    6.3929   -6.4320 H   0  0  0  0  0  0  0  0  0  0  0  0
    1.7457    5.5787   -4.9918 H   0  0  0  0  0  0  0  0  0  0  0  0
    2.7568    5.6246   -3.5710 H   0  0  0  0  0  0  0  0  0  0  0  0
    1.3434    7.6980   -3.3289 H   0  0  0  0  0  0  0  0  0  0  0  0
   -1.5680    7.5365   -9.0574 H   0  0  0  0  0  0  0  0  0  0  0  0
   -0.5876    7.3398   -7.5468 H   0  0  0  0  0  0  0  0  0  0  0  0
   -0.7780    5.3421   -9.0798 H   0  0  0  0  0  0  0  0  0  0  0  0
   -1.2841    2.7988   -6.7281 H   0  0  0  0  0  0  0  0  0  0  0  0
   -4.7851    3.7983   -6.4611 H   0  0  0  0  0  0  0  0  0  0  0  0
   -3.8450    4.0330   -0.3510 H   0  0  0  0  0  0  0  0  0  0  0  0
   -4.9620    4.4210   -1.6010 H   0  0  0  0  0  0  0  0  0  0  0  0
    0.1169    3.8282   -2.2232 H   0  0  0  0  0  0  0  0  0  0  0  0
   -3.6794    2.9800   -8.0407 H   0  0  0  0  0  0  0  0  0  0  0  0
   -1.4430    2.0560   -8.4040 H   0  0  0  0  0  0  0  0  0  0  0  0
   -3.7177    5.4503   -8.2503 H   0  0  0  0  0  0  0  0  0  0  0  0
    3.1218    9.4493   -4.2882 H   0  0  0  0  0  0  0  0  0  0  0  0
    3.1824    8.2062   -1.9382 H   0  0  0  0  0  0  0  0  0  0  0  0
    4.6635    7.4706   -2.6673 H   0  0  0  0  0  0  0  0  0  0  0  0
    7.3320    4.3370   -6.8730 H   0  0  0  0  0  0  0  0  0  0  0  0
  1  2  1  0
  2  3  2  0
  3  4  1  0
  4  5  1  0
  5  6  1  0
  6  7  1  0
  7  8  1  0
  8  9  1  0
  9 10  2  0
  9 11  1  1
  9 12  1  0
 12 13  1  0
 13 14  2  0
 13 15  1  1
 13 16  1  0
 16 17  1  0
 17 18  1  0
 18 19  1  0
 19 20  1  0
 20 21  1  0
 21 22  1  0
 22 23  2  0
 23 24  1  0
 24 25  2  0
 25 26  1  0
 25 27  1  0
 27 28  2  0
 28 29  1  0
 29 30  2  0
 20 31  1  0
 31 32  1  0
 31 33  1  0
 33 34  1  0
 34 35  1  0
 35 36  2  0
 35 37  1  0
 35 38  1  0
  7 39  1  0
 39 40  1  0
 40 41  1  0
 41 42  1  0
 42 43  2  0
 42 44  1  0
 42 45  1  0
 39 46  1  0
  4 47  1  0
 47 48  2  0
 47 49  1  0
 49 50  1  0
 50 51  2  0
 50  2  1  0
 46  5  1  0
 33 18  1  0
 30 21  1  0
 30 24  1  0
  1 52  1  0
  1 53  1  0
  1 54  1  0
  3 55  1  0
  5 56  1  6
  6 57  1  0
  6 58  1  0
  7 59  1  1
 17 60  1  0
 17 61  1  0
 18 62  1  6
 20 63  1  1
 22 64  1  0
 26 65  1  0
 26 66  1  0
 28 67  1  0
 31 68  1  1
 32 69  1  0
 33 70  1  1
 39 71  1  6
 40 72  1  0
 40 73  1  0
 49 74  1  0
M  CHG  6  11  -1  15  -1  37  -1  38  -1  44  -1  45  -1
M  END
>  <meeko>  (2) 
{"is_sidechain": [false], "free_energy": -7.292, "intermolecular_energy": -13.748, "internal_energy": -3.093}

$$$$
1u1b_ligand
     RDKit          3D

 74 78  0  0  0  0  0  0  0  0999 V2000
    6.6140    4.1910   -5.5220 C   0  0  0  0  0  0  0  0  0  0  0  0
    5.2720    4.3440   -4.8870 C   0  0  0  0  0  0  0  0  0  0  0  0
    4.4650    5.3900   -5.1110 C   0  0  0  0  0  0  0  0  0  0  0  0
    3.2050    5.5080   -4.5450 N   0  0  0  0  0  0  0  0  0  0  0  0
    2.3730    6.6900   -4.8120 C   0  0  1  0  0  0  0  0  0  0  0  0
    3.1590    7.9980   -4.8470 C   0  0  0  0  0  0  0  0  0  0  0  0
    2.3490    8.8280   -5.8220 C   0  0  2  0  0  0  0  0  0  0  0  0
    1.2030    9.3230   -5.1210 O   0  0  0  0  0  0  0  0  0  0  0  0
    0.1840   10.3940   -5.8420 P   0  0  2  0  0  5  0  0  0  0  0  0
    1.0190   11.0470   -6.9250 O   0  0  0  0  0  0  0  0  0  0  0  0
   -0.3890   11.2320   -4.7170 O   0  0  0  0  0  0  0  0  0  0  0  0
   -0.8800    9.3650   -6.4500 O   0  0  0  0  0  0  0  0  0  0  0  0
   -2.0310    8.4360   -5.8250 P   0  0  2  0  0  5  0  0  0  0  0  0
   -3.2360    9.2200   -5.3500 O   0  0  0  0  0  0  0  0  0  0  0  0
   -1.3750    7.4900   -4.8270 O   0  0  0  0  0  0  0  0  0  0  0  0
   -2.4910    7.5110   -7.0940 O   0  0  0  0  0  0  0  0  0  0  0  0
   -1.4420    7.1020   -7.9860 C   0  0  0  0  0  0  0  0  0  0  0  0
   -1.4150    5.5710   -8.1620 C   0  0  1  0  0  0  0  0  0  0  0  0
   -1.2280    4.9490   -6.8580 O   0  0  0  0  0  0  0  0  0  0  0  0
   -2.0220    3.7550   -6.8070 C   0  0  1  0  0  0  0  0  0  0  0  0
   -2.9930    3.8620   -5.7260 N   0  0  0  0  0  0  0  0  0  0  0  0
   -4.3350    4.1410   -5.8160 C   0  0  0  0  0  0  0  0  0  0  0  0
   -4.9290    4.1120   -4.6330 N   0  0  0  0  0  0  0  0  0  0  0  0
   -3.9170    3.8300   -3.7490 C   0  0  0  0  0  0  0  0  0  0  0  0
   -3.9200    3.6280   -2.3570 C   0  0  0  0  0  0  0  0  0  0  0  0
   -5.0950    3.6740   -1.5920 N   0  0  0  0  0  0  0  0  0  0  0  0
   -2.7610    3.3120   -1.7350 N   0  0  0  0  0  0  0  0  0  0  0  0
   -1.6460    3.2390   -2.5010 C   0  0  0  0  0  0  0  0  0  0  0  0
   -1.5130    3.4450   -3.8220 N   0  0  0  0  0  0  0  0  0  0  0  0
   -2.7010    3.7040   -4.3950 C   0  0  0  0  0  0  0  0  0  0  0  0
   -2.6440    3.5400   -8.1840 C   0  0  2  0  0  0  0  0  0  0  0  0
   -1.7720    2.6940   -8.9660 O   0  0  0  0  0  0  0  0  0  0  0  0
   -2.7160    4.9640   -8.7300 C   0  0  2  0  0  0  0  0  0  0  0  0
   -2.8500    5.0490  -10.1420 O   0  0  0  0  0  0  0  0  0  0  0  0
   -4.0280    6.0290  -10.7380 P   0  0  0  0  0  0  0  0  0  0  0  0
   -4.9860    6.1700   -9.5580 O   0  0  0  0  0  0  0  0  0  0  0  0
   -3.3150    7.3250  -11.0930 O   0  0  0  0  0  0  0  0  0  0  0  0
   -4.6180    5.2790  -11.9190 O   0  0  0  0  0  0  0  0  0  0  0  0
    1.9190    7.7580   -6.8500 C   0  0  1  0  0  0  0  0  0  0  0  0
    2.9860    7.4760   -7.9430 C   0  0  0  0  0  0  0  0  0  0  0  0
    3.0210    6.0860   -8.2790 O   0  0  0  0  0  0  0  0  0  0  0  0
    3.0000    5.6850   -9.8720 P   0  0  0  0  0  0  0  0  0  0  0  0
    3.8700    4.4350   -9.9590 O   0  0  0  0  0  0  0  0  0  0  0  0
    1.5330    5.4370  -10.1950 O   0  0  0  0  0  0  0  0  0  0  0  0
    3.6000    6.8870  -10.5920 O   0  0  0  0  0  0  0  0  0  0  0  0
    1.6880    6.5490   -6.0660 O   0  0  0  0  0  0  0  0  0  0  0  0
    2.7230    4.5520   -3.6740 C   0  0  0  0  0  0  0  0  0  0  0  0
    1.6090    4.5380   -3.1550 O   0  0  0  0  0  0  0  0  0  0  0  0
    3.5750    3.5120   -3.3990 N   0  0  0  0  0  0  0  0  0  0  0  0
    4.7890    3.2870   -3.9790 C   0  0  0  0  0  0  0  0  0  0  0  0
    5.4220    2.2530   -3.7590 O   0  0  0  0  0  0  0  0  0  0  0  0
    7.3821    4.1034   -4.7395 H   0  0  0  0  0  0  0  0  0  0  0  0
    6.6228    3.2860   -6.1473 H   0  0  0  0  0  0  0  0  0  0  0  0
    6.8262    5.0708   -6.1473 H   0  0  0  0  0  0  0  0  0  0  0  0
    4.8188    6.1925   -5.7750 H   0  0  0  0  0  0  0  0  0  0  0  0
    1.6639    6.7433   -3.9728 H   0  0  0  0  0  0  0  0  0  0  0  0
    3.1940    8.4697   -3.8539 H   0  0  0  0  0  0  0  0  0  0  0  0
    4.2122    7.8742   -5.1391 H   0  0  0  0  0  0  0  0  0  0  0  0
    2.8709    9.6861   -6.2706 H   0  0  0  0  0  0  0  0  0  0  0  0
   -1.6039    7.5718   -8.9674 H   0  0  0  0  0  0  0  0  0  0  0  0
   -0.4802    7.4168   -7.5550 H   0  0  0  0  0  0  0  0  0  0  0  0
   -0.6006    5.3783   -8.8758 H   0  0  0  0  0  0  0  0  0  0  0  0
   -1.4164    2.8654   -6.5792 H   0  0  0  0  0  0  0  0  0  0  0  0
   -4.8549    4.3624   -6.7597 H   0  0  0  0  0  0  0  0  0  0  0  0
   -5.0740    2.8900   -0.9400 H   0  0  0  0  0  0  0  0  0  0  0  0
   -5.1620    4.5920   -1.1740 H   0  0  0  0  0  0  0  0  0  0  0  0
   -0.7212    2.9743   -1.9674 H   0  0  0  0  0  0  0  0  0  0  0  0
   -3.6254    3.0431   -8.1875 H   0  0  0  0  0  0  0  0  0  0  0  0
   -0.9060    2.7610   -8.4520 H   0  0  0  0  0  0  0  0  0  0  0  0
   -3.6210    5.5097   -8.4248 H   0  0  0  0  0  0  0  0  0  0  0  0
    1.0317    8.1070   -7.3986 H   0  0  0  0  0  0  0  0  0  0  0  0
    2.7406    8.0577   -8.8438 H   0  0  0  0  0  0  0  0  0  0  0  0
    3.9725    7.7671   -7.5530 H   0  0  0  0  0  0  0  0  0  0  0  0
    3.2090    2.8100   -2.7830 H   0  0  0  0  0  0  0  0  0  0  0  0
  1  2  1  0
  2  3  2  0
  3  4  1  0
  4  5  1  0
  5  6  1  0
  6  7  1  0
  7  8  1  0
  8  9  1  0
  9 10  2  0
  9 11  1  1
  9 12  1  0
 12 13  1  0
 13 14  2  0
 13 15  1  1
 13 16  1  0
 16 17  1  0
 17 18  1  0
 18 19  1  0
 19 20  1  0
 20 21  1  0
 21 22  1  0
 22 23  2  0
 23 24  1  0
 24 25  2  0
 25 26  1  0
 25 27  1  0
 27 28  2  0
 28 29  1  0
 29 30  2  0
 20 31  1  0
 31 32  1  0
 31 33  1  0
 33 34  1  0
 34 35  1  0
 35 36  2  0
 35 37  1  0
 35 38  1  0
  7 39  1  0
 39 40  1  0
 40 41  1  0
 41 42  1  0
 42 43  2  0
 42 44  1  0
 42 45  1  0
 39 46  1  0
  4 47  1  0
 47 48  2  0
 47 49  1  0
 49 50  1  0
 50 51  2  0
 50  2  1  0
 46  5  1  0
 33 18  1  0
 30 21  1  0
 30 24  1  0
  1 52  1  0
  1 53  1  0
  1 54  1  0
  3 55  1  0
  5 56  1  1
  6 57  1  0
  6 58  1  0
  7 59  1  6
 17 60  1  0
 17 61  1  0
 18 62  1  6
 20 63  1  1
 22 64  1  0
 26 65  1  0
 26 66  1  0
 28 67  1  0
 31 68  1  1
 32 69  1  0
 33 70  1  1
 39 71  1  6
 40 72  1  0
 40 73  1  0
 49 74  1  0
M  CHG  6  11  -1  15  -1  37  -1  38  -1  44  -1  45  -1
M  END
>  <meeko>  (3) 
{"is_sidechain": [false], "free_energy": -7.145, "intermolecular_energy": -12.587, "internal_energy": -3.978}

$$$$
1u1b_ligand
     RDKit          3D

 74 78  0  0  0  0  0  0  0  0999 V2000
    5.6190    2.6890   -3.0360 C   0  0  0  0  0  0  0  0  0  0  0  0
    5.5030    3.7330   -4.0960 C   0  0  0  0  0  0  0  0  0  0  0  0
    4.5180    4.6400   -4.1340 C   0  0  0  0  0  0  0  0  0  0  0  0
    4.4360    5.6280   -5.1030 N   0  0  0  0  0  0  0  0  0  0  0  0
    3.3200    6.5840   -5.1040 C   0  0  1  0  0  0  0  0  0  0  0  0
    2.3380    6.3770   -6.2550 C   0  0  0  0  0  0  0  0  0  0  0  0
    1.0360    6.8610   -5.6500 C   0  0  2  0  0  0  0  0  0  0  0  0
    1.0510    8.2930   -5.6790 O   0  0  0  0  0  0  0  0  0  0  0  0
   -0.1740    9.1250   -6.3920 P   0  0  2  0  0  5  0  0  0  0  0  0
    0.3470   10.5420   -6.5170 O   0  0  0  0  0  0  0  0  0  0  0  0
   -1.4030    8.8400   -5.5530 O   0  0  0  0  0  0  0  0  0  0  0  0
   -0.2040    8.3750   -7.8060 O   0  0  0  0  0  0  0  0  0  0  0  0
    0.4220    8.6770   -9.2530 P   0  0  2  0  0  5  0  0  0  0  0  0
    1.8470    9.1850   -9.1910 O   0  0  0  0  0  0  0  0  0  0  0  0
   -0.5850    9.5170  -10.0300 O   0  0  0  0  0  0  0  0  0  0  0  0
    0.4340    7.2050   -9.9670 O   0  0  0  0  0  0  0  0  0  0  0  0
   -0.5200    7.0120  -11.0240 C   0  0  0  0  0  0  0  0  0  0  0  0
   -0.4850    5.5660  -11.5570 C   0  0  1  0  0  0  0  0  0  0  0  0
    0.8020    5.3290  -12.1990 O   0  0  0  0  0  0  0  0  0  0  0  0
    1.2160    3.9870  -11.9040 C   0  0  1  0  0  0  0  0  0  0  0  0
    2.4810    4.0150  -11.1840 N   0  0  0  0  0  0  0  0  0  0  0  0
    2.9940    5.0270  -10.4090 C   0  0  0  0  0  0  0  0  0  0  0  0
    4.1520    4.6950   -9.8600 N   0  0  0  0  0  0  0  0  0  0  0  0
    4.4000    3.4270  -10.3260 C   0  0  0  0  0  0  0  0  0  0  0  0
    5.4480    2.5240  -10.0700 C   0  0  0  0  0  0  0  0  0  0  0  0
    6.4960    2.8190   -9.1850 N   0  0  0  0  0  0  0  0  0  0  0  0
    5.4160    1.2980  -10.6410 N   0  0  0  0  0  0  0  0  0  0  0  0
    4.3750    1.0250  -11.4640 C   0  0  0  0  0  0  0  0  0  0  0  0
    3.3430    1.8120  -11.8110 N   0  0  0  0  0  0  0  0  0  0  0  0
    3.3990    2.9950  -11.1750 C   0  0  0  0  0  0  0  0  0  0  0  0
    0.0840    3.2980  -11.1480 C   0  0  2  0  0  0  0  0  0  0  0  0
   -0.7700    2.6200  -12.0970 O   0  0  0  0  0  0  0  0  0  0  0  0
   -0.6170    4.4750  -10.4730 C   0  0  2  0  0  0  0  0  0  0  0  0
   -1.9470    4.2080  -10.0500 O   0  0  0  0  0  0  0  0  0  0  0  0
   -2.3070    4.4560   -8.4650 P   0  0  0  0  0  0  0  0  0  0  0  0
   -2.2990    3.0430   -7.8870 O   0  0  0  0  0  0  0  0  0  0  0  0
   -1.1760    5.3270   -7.9390 O   0  0  0  0  0  0  0  0  0  0  0  0
   -3.6760    5.1120   -8.4600 O   0  0  0  0  0  0  0  0  0  0  0  0
    1.1700    6.3600   -4.1950 C   0  0  1  0  0  0  0  0  0  0  0  0
    0.7350    4.8810   -4.0010 C   0  0  0  0  0  0  0  0  0  0  0  0
   -0.3640    4.5540   -4.8540 O   0  0  0  0  0  0  0  0  0  0  0  0
   -1.8770    4.6420   -4.2180 P   0  0  0  0  0  0  0  0  0  0  0  0
   -1.6470    4.9020   -2.7320 O   0  0  0  0  0  0  0  0  0  0  0  0
   -2.5430    5.7990   -4.9480 O   0  0  0  0  0  0  0  0  0  0  0  0
   -2.5060    3.2830   -4.5010 O   0  0  0  0  0  0  0  0  0  0  0  0
    2.5860    6.5010   -3.8730 O   0  0  0  0  0  0  0  0  0  0  0  0
    5.3660    5.7070   -6.1200 C   0  0  0  0  0  0  0  0  0  0  0  0
    5.4110    6.5650   -6.9980 O   0  0  0  0  0  0  0  0  0  0  0  0
    6.3400    4.7400   -6.1140 N   0  0  0  0  0  0  0  0  0  0  0  0
    6.5310    3.7910   -5.1520 C   0  0  0  0  0  0  0  0  0  0  0  0
    7.5140    3.0500   -5.1710 O   0  0  0  0  0  0  0  0  0  0  0  0
    5.5662    3.1646   -2.0456 H   0  0  0  0  0  0  0  0  0  0  0  0
    4.7955    1.9672   -3.1406 H   0  0  0  0  0  0  0  0  0  0  0  0
    6.5808    2.1656   -3.1406 H   0  0  0  0  0  0  0  0  0  0  0  0
    3.7375    4.5989   -3.3599 H   0  0  0  0  0  0  0  0  0  0  0  0
    3.7833    7.5741   -5.2265 H   0  0  0  0  0  0  0  0  0  0  0  0
    2.6186    6.9780   -7.1326 H   0  0  0  0  0  0  0  0  0  0  0  0
    2.2979    5.3410   -6.6226 H   0  0  0  0  0  0  0  0  0  0  0  0
    0.1183    6.5195   -6.1512 H   0  0  0  0  0  0  0  0  0  0  0  0
   -1.5280    7.2274  -10.6399 H   0  0  0  0  0  0  0  0  0  0  0  0
   -0.2632    7.6915  -11.8501 H   0  0  0  0  0  0  0  0  0  0  0  0
   -1.3485    5.4895  -12.2342 H   0  0  0  0  0  0  0  0  0  0  0  0
    1.4039    3.4022  -12.8165 H   0  0  0  0  0  0  0  0  0  0  0  0
    2.5004    5.9990  -10.2620 H   0  0  0  0  0  0  0  0  0  0  0  0
    6.2860    2.3720   -8.2920 H   0  0  0  0  0  0  0  0  0  0  0  0
    7.3640    2.5400   -9.6230 H   0  0  0  0  0  0  0  0  0  0  0  0
    4.3748    0.0195  -11.9099 H   0  0  0  0  0  0  0  0  0  0  0  0
    0.3975    2.5308  -10.4248 H   0  0  0  0  0  0  0  0  0  0  0  0
   -0.2450    2.7200  -12.9520 H   0  0  0  0  0  0  0  0  0  0  0  0
   -0.1713    4.7617   -9.5091 H   0  0  0  0  0  0  0  0  0  0  0  0
    0.5065    6.9433   -3.5397 H   0  0  0  0  0  0  0  0  0  0  0  0
    1.5833    4.2224   -4.2389 H   0  0  0  0  0  0  0  0  0  0  0  0
    0.4207    4.7425   -2.9560 H   0  0  0  0  0  0  0  0  0  0  0  0
    7.0240    4.8160   -6.8430 H   0  0  0  0  0  0  0  0  0  0  0  0
  1  2  1  0
  2  3  2  0
  3  4  1  0
  4  5  1  0
  5  6  1  0
  6  7  1  0
  7  8  1  0
  8  9  1  0
  9 10  2  0
  9 11  1  1
  9 12  1  0
 12 13  1  0
 13 14  2  0
 13 15  1  6
 13 16  1  0
 16 17  1  0
 17 18  1  0
 18 19  1  0
 19 20  1  0
 20 21  1  0
 21 22  1  0
 22 23  2  0
 23 24  1  0
 24 25  2  0
 25 26  1  0
 25 27  1  0
 27 28  2  0
 28 29  1  0
 29 30  2  0
 20 31  1  0
 31 32  1  0
 31 33  1  0
 33 34  1  0
 34 35  1  0
 35 36  2  0
 35 37  1  0
 35 38  1  0
  7 39  1  0
 39 40  1  0
 40 41  1  0
 41 42  1  0
 42 43  2  0
 42 44  1  0
 42 45  1  0
 39 46  1  0
  4 47  1  0
 47 48  2  0
 47 49  1  0
 49 50  1  0
 50 51  2  0
 50  2  1  0
 46  5  1  0
 33 18  1  0
 30 21  1  0
 30 24  1  0
  1 52  1  0
  1 53  1  0
  1 54  1  0
  3 55  1  0
  5 56  1  6
  6 57  1  0
  6 58  1  0
  7 59  1  6
 17 60  1  0
 17 61  1  0
 18 62  1  6
 20 63  1  6
 22 64  1  0
 26 65  1  0
 26 66  1  0
 28 67  1  0
 31 68  1  1
 32 69  1  0
 33 70  1  1
 39 71  1  1
 40 72  1  0
 40 73  1  0
 49 74  1  0
M  CHG  6  11  -1  15  -1  37  -1  38  -1  44  -1  45  -1
M  END
>  <meeko>  (4) 
{"is_sidechain": [false], "free_energy": -6.988, "intermolecular_energy": -12.183, "internal_energy": -4.088}

$$$$
1u1b_ligand
     RDKit          3D

 74 78  0  0  0  0  0  0  0  0999 V2000
    7.2320    3.0810   -4.8740 C   0  0  0  0  0  0  0  0  0  0  0  0
    5.8740    3.5930   -4.5250 C   0  0  0  0  0  0  0  0  0  0  0  0
    5.4050    4.7790   -4.9330 C   0  0  0  0  0  0  0  0  0  0  0  0
    4.1300    5.2330   -4.6330 N   0  0  0  0  0  0  0  0  0  0  0  0
    3.6780    6.5540   -5.0930 C   0  0  1  0  0  0  0  0  0  0  0  0
    2.4150    7.0470   -4.3920 C   0  0  0  0  0  0  0  0  0  0  0  0
    2.6010    8.5500   -4.4240 C   0  0  2  0  0  0  0  0  0  0  0  0
    2.2660    9.0000   -5.7410 O   0  0  0  0  0  0  0  0  0  0  0  0
    0.8290    9.7460   -6.0260 P   0  0  2  0  0  5  0  0  0  0  0  0
    0.2520    9.0200   -7.2240 O   0  0  0  0  0  0  0  0  0  0  0  0
    1.1480   11.2240   -6.1160 O   0  0  0  0  0  0  0  0  0  0  0  0
    0.0670    9.3600   -4.6730 O   0  0  0  0  0  0  0  0  0  0  0  0
   -1.4750    9.2160   -4.2510 P   0  0  2  0  0  5  0  0  0  0  0  0
   -2.3910   10.1480   -5.0160 O   0  0  0  0  0  0  0  0  0  0  0  0
   -1.5480    9.2580   -2.7300 O   0  0  0  0  0  0  0  0  0  0  0  0
   -1.8360    7.6790   -4.6810 O   0  0  0  0  0  0  0  0  0  0  0  0
   -0.8910    6.6750   -4.2770 C   0  0  0  0  0  0  0  0  0  0  0  0
   -1.1780    5.3230   -4.9570 C   0  0  1  0  0  0  0  0  0  0  0  0
   -1.3070    4.2950   -3.9320 O   0  0  0  0  0  0  0  0  0  0  0  0
   -2.3450    3.3860   -4.3280 C   0  0  1  0  0  0  0  0  0  0  0  0
   -3.4020    3.3880   -3.3270 N   0  0  0  0  0  0  0  0  0  0  0  0
   -3.4130    4.0180   -2.1050 C   0  0  0  0  0  0  0  0  0  0  0  0
   -4.5610    3.8490   -1.4690 N   0  0  0  0  0  0  0  0  0  0  0  0
   -5.3040    3.0550   -2.3090 C   0  0  0  0  0  0  0  0  0  0  0  0
   -6.6190    2.5670   -2.2140 C   0  0  0  0  0  0  0  0  0  0  0  0
   -7.4600    2.8720   -1.1330 N   0  0  0  0  0  0  0  0  0  0  0  0
   -7.1230    1.8300   -3.2310 N   0  0  0  0  0  0  0  0  0  0  0  0
   -6.3040    1.5780   -4.2790 C   0  0  0  0  0  0  0  0  0  0  0  0
   -5.0280    1.9560   -4.4650 N   0  0  0  0  0  0  0  0  0  0  0  0
   -4.5980    2.7270   -3.4510 C   0  0  0  0  0  0  0  0  0  0  0  0
   -2.8100    3.7790   -5.7270 C   0  0  2  0  0  0  0  0  0  0  0  0
   -2.0490    3.0310   -6.7020 O   0  0  0  0  0  0  0  0  0  0  0  0
   -2.4930    5.2730   -5.7640 C   0  0  2  0  0  0  0  0  0  0  0  0
   -2.4180    5.8280   -7.0690 O   0  0  0  0  0  0  0  0  0  0  0  0
   -3.6990    6.7140   -7.5960 P   0  0  0  0  0  0  0  0  0  0  0  0
   -3.0970    8.1010   -7.7970 O   0  0  0  0  0  0  0  0  0  0  0  0
   -4.1260    6.0490   -8.8960 O   0  0  0  0  0  0  0  0  0  0  0  0
   -4.7230    6.6460   -6.4760 O   0  0  0  0  0  0  0  0  0  0  0  0
    4.1240    8.6730   -4.1950 C   0  0  1  0  0  0  0  0  0  0  0  0
    4.5370    8.6320   -2.6970 C   0  0  0  0  0  0  0  0  0  0  0  0
    5.1140    9.8760   -2.2910 O   0  0  0  0  0  0  0  0  0  0  0  0
    4.3150   10.7520   -1.1520 P   0  0  0  0  0  0  0  0  0  0  0  0
    4.4260    9.9130    0.1170 O   0  0  0  0  0  0  0  0  0  0  0  0
    5.0620   12.0760   -1.0810 O   0  0  0  0  0  0  0  0  0  0  0  0
    2.8880   10.8700   -1.6730 O   0  0  0  0  0  0  0  0  0  0  0  0
    4.7080    7.5340   -4.8950 O   0  0  0  0  0  0  0  0  0  0  0  0
    3.2730    4.4840   -3.8520 C   0  0  0  0  0  0  0  0  0  0  0  0
    2.1130    4.7710   -3.5650 O   0  0  0  0  0  0  0  0  0  0  0  0
    3.7770    3.2960   -3.3840 N   0  0  0  0  0  0  0  0  0  0  0  0
    4.9860    2.7490   -3.7040 C   0  0  0  0  0  0  0  0  0  0  0  0
    5.2930    1.6150   -3.3350 O   0  0  0  0  0  0  0  0  0  0  0  0
    7.7925    2.8697   -3.9514 H   0  0  0  0  0  0  0  0  0  0  0  0
    7.1353    2.1576   -5.4639 H   0  0  0  0  0  0  0  0  0  0  0  0
    7.7690    3.8384   -5.4639 H   0  0  0  0  0  0  0  0  0  0  0  0
    6.0626    5.4236   -5.5347 H   0  0  0  0  0  0  0  0  0  0  0  0
    3.4462    6.4283   -6.1609 H   0  0  0  0  0  0  0  0  0  0  0  0
    1.5103    6.7448   -4.9399 H   0  0  0  0  0  0  0  0  0  0  0  0
    2.2827    6.6387   -3.3792 H   0  0  0  0  0  0  0  0  0  0  0  0
    1.9981    9.1234   -3.7045 H   0  0  0  0  0  0  0  0  0  0  0  0
    0.1214    7.0057   -4.5522 H   0  0  0  0  0  0  0  0  0  0  0  0
   -0.9763    6.5389   -3.1888 H   0  0  0  0  0  0  0  0  0  0  0  0
   -0.3380    5.1671   -5.6499 H   0  0  0  0  0  0  0  0  0  0  0  0
   -1.9868    2.3474   -4.3822 H   0  0  0  0  0  0  0  0  0  0  0  0
   -2.5669    4.5948   -1.7032 H   0  0  0  0  0  0  0  0  0  0  0  0
   -8.4120    2.9550   -1.4910 H   0  0  0  0  0  0  0  0  0  0  0  0
   -7.3190    2.1720   -0.4170 H   0  0  0  0  0  0  0  0  0  0  0  0
   -6.7442    0.9808   -5.0912 H   0  0  0  0  0  0  0  0  0  0  0  0
   -3.8674    3.5725   -5.9491 H   0  0  0  0  0  0  0  0  0  0  0  0
   -2.5690    3.2110   -7.5480 H   0  0  0  0  0  0  0  0  0  0  0  0
   -3.2873    5.9050   -5.3402 H   0  0  0  0  0  0  0  0  0  0  0  0
    4.4755    9.6478   -4.5640 H   0  0  0  0  0  0  0  0  0  0  0  0
    3.6463    8.4312   -2.0835 H   0  0  0  0  0  0  0  0  0  0  0  0
    5.2853    7.8373   -2.5610 H   0  0  0  0  0  0  0  0  0  0  0  0
    3.1420    2.7480   -2.8350 H   0  0  0  0  0  0  0  0  0  0  0  0
  1  2  1  0
  2  3  2  0
  3  4  1  0
  4  5  1  0
  5  6  1  0
  6  7  1  0
  7  8  1  0
  8  9  1  0
  9 10  2  0
  9 11  1  6
  9 12  1  0
 12 13  1  0
 13 14  2  0
 13 15  1  1
 13 16  1  0
 16 17  1  0
 17 18  1  0
 18 19  1  0
 19 20  1  0
 20 21  1  0
 21 22  1  0
 22 23  2  0
 23 24  1  0
 24 25  2  0
 25 26  1  0
 25 27  1  0
 27 28  2  0
 28 29  1  0
 29 30  2  0
 20 31  1  0
 31 32  1  0
 31 33  1  0
 33 34  1  0
 34 35  1  0
 35 36  2  0
 35 37  1  0
 35 38  1  0
  7 39  1  0
 39 40  1  0
 40 41  1  0
 41 42  1  0
 42 43  2  0
 42 44  1  0
 42 45  1  0
 39 46  1  0
  4 47  1  0
 47 48  2  0
 47 49  1  0
 49 50  1  0
 50 51  2  0
 50  2  1  0
 46  5  1  0
 33 18  1  0
 30 21  1  0
 30 24  1  0
  1 52  1  0
  1 53  1  0
  1 54  1  0
  3 55  1  0
  5 56  1  6
  6 57  1  0
  6 58  1  0
  7 59  1  1
 17 60  1  0
 17 61  1  0
 18 62  1  6
 20 63  1  6
 22 64  1  0
 26 65  1  0
 26 66  1  0
 28 67  1  0
 31 68  1  1
 32 69  1  0
 33 70  1  1
 39 71  1  6
 40 72  1  0
 40 73  1  0
 49 74  1  0
M  CHG  6  11  -1  15  -1  37  -1  38  -1  44  -1  45  -1
M  END
>  <meeko>  (5) 
{"is_sidechain": [false], "free_energy": -6.947, "intermolecular_energy": -14.589, "internal_energy": -1.604}

$$$$
1u1b_ligand
     RDKit          3D

 74 78  0  0  0  0  0  0  0  0999 V2000
    5.9030   14.1470   -0.8960 C   0  0  0  0  0  0  0  0  0  0  0  0
    5.4620   12.7930   -0.4490 C   0  0  0  0  0  0  0  0  0  0  0  0
    5.0420   11.8390   -1.2900 C   0  0  0  0  0  0  0  0  0  0  0  0
    4.6670   10.5720   -0.8700 N   0  0  0  0  0  0  0  0  0  0  0  0
    4.1950    9.5720   -1.8390 C   0  0  1  0  0  0  0  0  0  0  0  0
    3.2110   10.1290   -2.8640 C   0  0  0  0  0  0  0  0  0  0  0  0
    3.4830    9.2540   -4.0710 C   0  0  2  0  0  0  0  0  0  0  0  0
    2.8280    7.9990   -3.8520 O   0  0  0  0  0  0  0  0  0  0  0  0
    1.7650    7.4100   -4.9600 P   0  0  2  0  0  5  0  0  0  0  0  0
    2.6110    7.1160   -6.1820 O   0  0  0  0  0  0  0  0  0  0  0  0
    0.6490    8.4320   -5.0390 O   0  0  0  0  0  0  0  0  0  0  0  0
    1.3240    6.0710   -4.2050 O   0  0  0  0  0  0  0  0  0  0  0  0
   -0.0730    5.3080   -3.9890 P   0  0  2  0  0  5  0  0  0  0  0  0
   -0.9340    5.9380   -2.9140 O   0  0  0  0  0  0  0  0  0  0  0  0
    0.2250    3.8190   -3.8620 O   0  0  0  0  0  0  0  0  0  0  0  0
   -0.8280    5.5010   -5.4270 O   0  0  0  0  0  0  0  0  0  0  0  0
   -1.3630    4.3070   -6.0210 C   0  0  0  0  0  0  0  0  0  0  0  0
   -2.8760    4.4370   -6.2840 C   0  0  1  0  0  0  0  0  0  0  0  0
   -3.5780    3.4120   -5.5230 O   0  0  0  0  0  0  0  0  0  0  0  0
   -4.8040    3.9720   -5.0290 C   0  0  1  0  0  0  0  0  0  0  0  0
   -4.8090    3.9250   -3.5740 N   0  0  0  0  0  0  0  0  0  0  0  0
   -3.7320    3.8690   -2.7230 C   0  0  0  0  0  0  0  0  0  0  0  0
   -4.1010    3.8880   -1.4520 N   0  0  0  0  0  0  0  0  0  0  0  0
   -5.4740    3.9310   -1.4940 C   0  0  0  0  0  0  0  0  0  0  0  0
   -6.4400    4.0080   -0.4750 C   0  0  0  0  0  0  0  0  0  0  0  0
   -6.0970    4.0810    0.8830 N   0  0  0  0  0  0  0  0  0  0  0  0
   -7.7480    4.0840   -0.8120 N   0  0  0  0  0  0  0  0  0  0  0  0
   -8.0510    4.0470   -2.1310 C   0  0  0  0  0  0  0  0  0  0  0  0
   -7.2260    3.9380   -3.1860 N   0  0  0  0  0  0  0  0  0  0  0  0
   -5.9390    3.9190   -2.7960 C   0  0  0  0  0  0  0  0  0  0  0  0
   -4.9490    5.3770   -5.6080 C   0  0  2  0  0  0  0  0  0  0  0  0
   -5.7040    5.3030   -6.8370 O   0  0  0  0  0  0  0  0  0  0  0  0
   -3.4940    5.7800   -5.8420 C   0  0  2  0  0  0  0  0  0  0  0  0
   -3.3190    6.8520   -6.7580 O   0  0  0  0  0  0  0  0  0  0  0  0
   -3.3020    8.3800   -6.1500 P   0  0  0  0  0  0  0  0  0  0  0  0
   -2.5860    9.1730   -7.2390 O   0  0  0  0  0  0  0  0  0  0  0  0
   -4.7680    8.7560   -5.9960 O   0  0  0  0  0  0  0  0  0  0  0  0
   -2.5250    8.2860   -4.8480 O   0  0  0  0  0  0  0  0  0  0  0  0
    5.0140    9.0730   -3.9790 C   0  0  1  0  0  0  0  0  0  0  0  0
    5.8210   10.2390   -4.6160 C   0  0  0  0  0  0  0  0  0  0  0  0
    6.9300   10.6050   -3.7900 O   0  0  0  0  0  0  0  0  0  0  0  0
    7.7050   12.0130   -4.1350 P   0  0  0  0  0  0  0  0  0  0  0  0
    8.4090   11.7420   -5.4610 O   0  0  0  0  0  0  0  0  0  0  0  0
    6.6010   13.0560   -4.2270 O   0  0  0  0  0  0  0  0  0  0  0  0
    8.6690   12.2280   -2.9750 O   0  0  0  0  0  0  0  0  0  0  0  0
    5.3030    9.0000   -2.5500 O   0  0  0  0  0  0  0  0  0  0  0  0
    4.6720   10.2340    0.4680 C   0  0  0  0  0  0  0  0  0  0  0  0
    4.4020    9.1320    0.9410 O   0  0  0  0  0  0  0  0  0  0  0  0
    5.0450   11.2320    1.3330 N   0  0  0  0  0  0  0  0  0  0  0  0
    5.5040   12.4710    0.9900 C   0  0  0  0  0  0  0  0  0  0  0  0
    5.9370   13.2510    1.8380 O   0  0  0  0  0  0  0  0  0  0  0  0
    6.1075   14.7750   -0.0163 H   0  0  0  0  0  0  0  0  0  0  0  0
    6.8172   14.0538   -1.5006 H   0  0  0  0  0  0  0  0  0  0  0  0
    5.1093   14.6101   -1.5006 H   0  0  0  0  0  0  0  0  0  0  0  0
    4.9922   12.0715   -2.3640 H   0  0  0  0  0  0  0  0  0  0  0  0
    3.6686    8.8125   -1.2424 H   0  0  0  0  0  0  0  0  0  0  0  0
    2.1719   10.0224   -2.5193 H   0  0  0  0  0  0  0  0  0  0  0  0
    3.3356   11.2044   -3.0591 H   0  0  0  0  0  0  0  0  0  0  0  0
    3.1431    9.6527   -5.0382 H   0  0  0  0  0  0  0  0  0  0  0  0
   -0.8488    4.1211   -6.9755 H   0  0  0  0  0  0  0  0  0  0  0  0
   -1.2043    3.4725   -5.3222 H   0  0  0  0  0  0  0  0  0  0  0  0
   -2.9866    4.3452   -7.3746 H   0  0  0  0  0  0  0  0  0  0  0  0
   -5.6825    3.3930   -5.3499 H   0  0  0  0  0  0  0  0  0  0  0  0
   -2.6858    3.8147   -3.0585 H   0  0  0  0  0  0  0  0  0  0  0  0
   -5.0860    4.2100    0.9440 H   0  0  0  0  0  0  0  0  0  0  0  0
   -6.6580    4.8050    1.3100 H   0  0  0  0  0  0  0  0  0  0  0  0
   -9.1219    4.1158   -2.3727 H   0  0  0  0  0  0  0  0  0  0  0  0
   -5.4832    6.0979   -4.9717 H   0  0  0  0  0  0  0  0  0  0  0  0
   -6.6500    5.2410   -6.4930 H   0  0  0  0  0  0  0  0  0  0  0  0
   -3.0059    6.2123   -4.9561 H   0  0  0  0  0  0  0  0  0  0  0  0
    5.3152    8.1753   -4.5388 H   0  0  0  0  0  0  0  0  0  0  0  0
    6.1949    9.9221   -5.6008 H   0  0  0  0  0  0  0  0  0  0  0  0
    5.1573   11.1102   -4.7184 H   0  0  0  0  0  0  0  0  0  0  0  0
    5.0670   10.9740    2.3020 H   0  0  0  0  0  0  0  0  0  0  0  0
  1  2  1  0
  2  3  2  0
  3  4  1  0
  4  5  1  0
  5  6  1  0
  6  7  1  0
  7  8  1  0
  8  9  1  0
  9 10  2  0
  9 11  1  6
  9 12  1  0
 12 13  1  0
 13 14  2  0
 13 15  1  1
 13 16  1  0
 16 17  1  0
 17 18  1  0
 18 19  1  0
 19 20  1  0
 20 21  1  0
 21 22  1  0
 22 23  2  0
 23 24  1  0
 24 25  2  0
 25 26  1  0
 25 27  1  0
 27 28  2  0
 28 29  1  0
 29 30  2  0
 20 31  1  0
 31 32  1  0
 31 33  1  0
 33 34  1  0
 34 35  1  0
 35 36  2  0
 35 37  1  0
 35 38  1  0
  7 39  1  0
 39 40  1  0
 40 41  1  0
 41 42  1  0
 42 43  2  0
 42 44  1  0
 42 45  1  0
 39 46  1  0
  4 47  1  0
 47 48  2  0
 47 49  1  0
 49 50  1  0
 50 51  2  0
 50  2  1  0
 46  5  1  0
 33 18  1  0
 30 21  1  0
 30 24  1  0
  1 52  1  0
  1 53  1  0
  1 54  1  0
  3 55  1  0
  5 56  1  1
  6 57  1  0
  6 58  1  0
  7 59  1  6
 17 60  1  0
 17 61  1  0
 18 62  1  6
 20 63  1  6
 22 64  1  0
 26 65  1  0
 26 66  1  0
 28 67  1  0
 31 68  1  1
 32 69  1  0
 33 70  1  1
 39 71  1  6
 40 72  1  0
 40 73  1  0
 49 74  1  0
M  CHG  6  11  -1  15  -1  37  -1  38  -1  44  -1  45  -1
M  END
>  <meeko>  (6) 
{"is_sidechain": [false], "free_energy": -6.934, "intermolecular_energy": -13.309, "internal_energy": -2.861}

$$$$
1u1b_ligand
     RDKit          3D

 74 78  0  0  0  0  0  0  0  0999 V2000
    7.5180    2.7970   -4.8170 C   0  0  0  0  0  0  0  0  0  0  0  0
    6.2730    3.6140   -4.7370 C   0  0  0  0  0  0  0  0  0  0  0  0
    5.9330    4.5350   -5.6490 C   0  0  0  0  0  0  0  0  0  0  0  0
    4.7580    5.2660   -5.5850 N   0  0  0  0  0  0  0  0  0  0  0  0
    4.4490    6.2770   -6.6070 C   0  0  1  0  0  0  0  0  0  0  0  0
    5.6090    7.2230   -6.9030 C   0  0  0  0  0  0  0  0  0  0  0  0
    5.3680    7.5750   -8.3560 C   0  0  2  0  0  0  0  0  0  0  0  0
    4.3220    8.5530   -8.3950 O   0  0  0  0  0  0  0  0  0  0  0  0
    4.5920   10.0360   -9.0520 P   0  0  2  0  0  5  0  0  0  0  0  0
    3.2100   10.5730   -9.3660 O   0  0  0  0  0  0  0  0  0  0  0  0
    5.5900    9.8120  -10.1690 O   0  0  0  0  0  0  0  0  0  0  0  0
    5.2390   10.7640   -7.7820 O   0  0  0  0  0  0  0  0  0  0  0  0
    6.7240   11.2280   -7.3870 P   0  0  2  0  0  5  0  0  0  0  0  0
    7.0820   12.5990   -7.9210 O   0  0  0  0  0  0  0  0  0  0  0  0
    7.6730   10.0810   -7.7150 O   0  0  0  0  0  0  0  0  0  0  0  0
    6.6640   11.3160   -5.7540 O   0  0  0  0  0  0  0  0  0  0  0  0
    5.3550   11.2260   -5.1680 C   0  0  0  0  0  0  0  0  0  0  0  0
    5.2360   10.0030   -4.2390 C   0  0  1  0  0  0  0  0  0  0  0  0
    5.9520   10.2780   -3.0000 O   0  0  0  0  0  0  0  0  0  0  0  0
    5.2100    9.7090   -1.9110 C   0  0  1  0  0  0  0  0  0  0  0  0
    4.8210   10.7620   -0.9840 N   0  0  0  0  0  0  0  0  0  0  0  0
    3.5890   11.3520   -0.8390 C   0  0  0  0  0  0  0  0  0  0  0  0
    3.5770   12.2450    0.1390 N   0  0  0  0  0  0  0  0  0  0  0  0
    4.8640   12.2430    0.6190 C   0  0  0  0  0  0  0  0  0  0  0  0
    5.4680   12.9430    1.6790 C   0  0  0  0  0  0  0  0  0  0  0  0
    4.7530   13.8280    2.5010 N   0  0  0  0  0  0  0  0  0  0  0  0
    6.7690   12.7090    1.9660 N   0  0  0  0  0  0  0  0  0  0  0  0
    7.4270   11.8240    1.1810 C   0  0  0  0  0  0  0  0  0  0  0  0
    6.9710   11.1270    0.1260 N   0  0  0  0  0  0  0  0  0  0  0  0
    5.6640   11.3590   -0.0800 C   0  0  0  0  0  0  0  0  0  0  0  0
    4.0370    8.9270   -2.4950 C   0  0  2  0  0  0  0  0  0  0  0  0
    4.4370    7.5520   -2.6860 O   0  0  0  0  0  0  0  0  0  0  0  0
    3.7930    9.6520   -3.8170 C   0  0  2  0  0  0  0  0  0  0  0  0
    3.0540    8.9040   -4.7720 O   0  0  0  0  0  0  0  0  0  0  0  0
    1.5490    9.4410   -5.1600 P   0  0  0  0  0  0  0  0  0  0  0  0
    1.8070   10.3460   -6.3620 O   0  0  0  0  0  0  0  0  0  0  0  0
    0.7640    8.1850   -5.5110 O   0  0  0  0  0  0  0  0  0  0  0  0
    1.0550   10.1820   -3.9300 O   0  0  0  0  0  0  0  0  0  0  0  0
    4.8550    6.2300   -8.9150 C   0  0  1  0  0  0  0  0  0  0  0  0
    5.9900    5.2480   -9.3200 C   0  0  0  0  0  0  0  0  0  0  0  0
    5.5660    3.8900   -9.1790 O   0  0  0  0  0  0  0  0  0  0  0  0
    5.1760    3.0670  -10.5470 P   0  0  0  0  0  0  0  0  0  0  0  0
    5.8920    3.8230  -11.6610 O   0  0  0  0  0  0  0  0  0  0  0  0
    5.7050    1.6580  -10.3210 O   0  0  0  0  0  0  0  0  0  0  0  0
    3.6570    3.1530  -10.6410 O   0  0  0  0  0  0  0  0  0  0  0  0
    4.0630    5.6460   -7.8370 O   0  0  0  0  0  0  0  0  0  0  0  0
    3.8740    5.1050   -4.5360 C   0  0  0  0  0  0  0  0  0  0  0  0
    2.7890    5.6670   -4.4070 O   0  0  0  0  0  0  0  0  0  0  0  0
    4.2530    4.2050   -3.5710 N   0  0  0  0  0  0  0  0  0  0  0  0
    5.3490    3.3940   -3.6080 C   0  0  0  0  0  0  0  0  0  0  0  0
    5.5320    2.5260   -2.7530 O   0  0  0  0  0  0  0  0  0  0  0  0
    7.8706    2.5656   -3.8011 H   0  0  0  0  0  0  0  0  0  0  0  0
    7.3081    1.8605   -5.3545 H   0  0  0  0  0  0  0  0  0  0  0  0
    8.2936    3.3623   -5.3545 H   0  0  0  0  0  0  0  0  0  0  0  0
    6.6196    4.7194   -6.4884 H   0  0  0  0  0  0  0  0  0  0  0  0
    3.6246    6.8731   -6.1887 H   0  0  0  0  0  0  0  0  0  0  0  0
    5.5683    8.1171   -6.2635 H   0  0  0  0  0  0  0  0  0  0  0  0
    6.5989    6.7828   -6.7124 H   0  0  0  0  0  0  0  0  0  0  0  0
    6.2334    7.9781   -8.9024 H   0  0  0  0  0  0  0  0  0  0  0  0
    5.1608   12.1382   -4.5848 H   0  0  0  0  0  0  0  0  0  0  0  0
    4.6202   11.1164   -5.9792 H   0  0  0  0  0  0  0  0  0  0  0  0
    5.6437    9.1618   -4.8187 H   0  0  0  0  0  0  0  0  0  0  0  0
    5.8142    9.0020   -1.3235 H   0  0  0  0  0  0  0  0  0  0  0  0
    2.7150   11.1111   -1.4620 H   0  0  0  0  0  0  0  0  0  0  0  0
    4.6860   14.7220    2.0130 H   0  0  0  0  0  0  0  0  0  0  0  0
    3.8740   13.3920    2.7430 H   0  0  0  0  0  0  0  0  0  0  0  0
    8.4813   11.6512    1.4428 H   0  0  0  0  0  0  0  0  0  0  0  0
    3.1339    8.8909   -1.8680 H   0  0  0  0  0  0  0  0  0  0  0  0
    5.0960    7.6350   -3.4450 H   0  0  0  0  0  0  0  0  0  0  0  0
    3.1399   10.5324   -3.7259 H   0  0  0  0  0  0  0  0  0  0  0  0
    4.2838    6.4068   -9.8383 H   0  0  0  0  0  0  0  0  0  0  0  0
    6.2674    5.4314  -10.3685 H   0  0  0  0  0  0  0  0  0  0  0  0
    6.8525    5.4167   -8.6585 H   0  0  0  0  0  0  0  0  0  0  0  0
    3.5970    4.0790   -2.8230 H   0  0  0  0  0  0  0  0  0  0  0  0
  1  2  1  0
  2  3  2  0
  3  4  1  0
  4  5  1  0
  5  6  1  0
  6  7  1  0
  7  8  1  0
  8  9  1  0
  9 10  2  0
  9 11  1  6
  9 12  1  0
 12 13  1  0
 13 14  2  0
 13 15  1  1
 13 16  1  0
 16 17  1  0
 17 18  1  0
 18 19  1  0
 19 20  1  0
 20 21  1  0
 21 22  1  0
 22 23  2  0
 23 24  1  0
 24 25  2  0
 25 26  1  0
 25 27  1  0
 27 28  2  0
 28 29  1  0
 29 30  2  0
 20 31  1  0
 31 32  1  0
 31 33  1  0
 33 34  1  0
 34 35  1  0
 35 36  2  0
 35 37  1  0
 35 38  1  0
  7 39  1  0
 39 40  1  0
 40 41  1  0
 41 42  1  0
 42 43  2  0
 42 44  1  0
 42 45  1  0
 39 46  1  0
  4 47  1  0
 47 48  2  0
 47 49  1  0
 49 50  1  0
 50 51  2  0
 50  2  1  0
 46  5  1  0
 33 18  1  0
 30 21  1  0
 30 24  1  0
  1 52  1  0
  1 53  1  0
  1 54  1  0
  3 55  1  0
  5 56  1  1
  6 57  1  0
  6 58  1  0
  7 59  1  6
 17 60  1  0
 17 61  1  0
 18 62  1  6
 20 63  1  1
 22 64  1  0
 26 65  1  0
 26 66  1  0
 28 67  1  0
 31 68  1  1
 32 69  1  0
 33 70  1  1
 39 71  1  6
 40 72  1  0
 40 73  1  0
 49 74  1  0
M  CHG  6  11  -1  15  -1  37  -1  38  -1  44  -1  45  -1
M  END
>  <meeko>  (7) 
{"is_sidechain": [false], "free_energy": -6.898, "intermolecular_energy": -12.358, "internal_energy": -3.744}

$$$$
1u1b_ligand
     RDKit          3D

 74 78  0  0  0  0  0  0  0  0999 V2000
    5.5380   14.0560    0.1900 C   0  0  0  0  0  0  0  0  0  0  0  0
    5.8180   12.6050    0.4020 C   0  0  0  0  0  0  0  0  0  0  0  0
    5.5260   11.6570   -0.4980 C   0  0  0  0  0  0  0  0  0  0  0  0
    5.8220   10.3170   -0.3070 N   0  0  0  0  0  0  0  0  0  0  0  0
    5.4590    9.3180   -1.3240 C   0  0  1  0  0  0  0  0  0  0  0  0
    4.0310    9.4660   -1.8440 C   0  0  0  0  0  0  0  0  0  0  0  0
    4.1550    8.9440   -3.2610 C   0  0  2  0  0  0  0  0  0  0  0  0
    4.1790    7.5140   -3.1940 O   0  0  0  0  0  0  0  0  0  0  0  0
    3.3510    6.6150   -4.2950 P   0  0  2  0  0  5  0  0  0  0  0  0
    3.6550    5.1790   -3.9230 O   0  0  0  0  0  0  0  0  0  0  0  0
    3.7630    7.1510   -5.6520 O   0  0  0  0  0  0  0  0  0  0  0  0
    1.8590    7.0310   -3.8950 O   0  0  0  0  0  0  0  0  0  0  0  0
    0.6780    7.8330   -4.6290 P   0  0  2  0  0  5  0  0  0  0  0  0
    0.7450    7.7410   -6.1390 O   0  0  0  0  0  0  0  0  0  0  0  0
    0.6120    9.2270   -4.0170 O   0  0  0  0  0  0  0  0  0  0  0  0
   -0.6700    7.0520   -4.1290 O   0  0  0  0  0  0  0  0  0  0  0  0
   -0.4660    5.7490   -3.5590 C   0  0  0  0  0  0  0  0  0  0  0  0
   -1.0370    4.6420   -4.4660 C   0  0  1  0  0  0  0  0  0  0  0  0
   -1.5090    3.5440   -3.6310 O   0  0  0  0  0  0  0  0  0  0  0  0
   -2.7110    3.0170   -4.2130 C   0  0  1  0  0  0  0  0  0  0  0  0
   -3.8090    3.1520   -3.2670 N   0  0  0  0  0  0  0  0  0  0  0  0
   -3.8380    3.8750   -2.0980 C   0  0  0  0  0  0  0  0  0  0  0  0
   -5.0210    3.8160   -1.5070 N   0  0  0  0  0  0  0  0  0  0  0  0
   -5.7700    2.9990   -2.3190 C   0  0  0  0  0  0  0  0  0  0  0  0
   -7.1130    2.5880   -2.2500 C   0  0  0  0  0  0  0  0  0  0  0  0
   -7.9820    3.0200   -1.2370 N   0  0  0  0  0  0  0  0  0  0  0  0
   -7.6120    1.8010   -3.2310 N   0  0  0  0  0  0  0  0  0  0  0  0
   -6.7630    1.4260   -4.2170 C   0  0  0  0  0  0  0  0  0  0  0  0
   -5.4610    1.7220   -4.3690 N   0  0  0  0  0  0  0  0  0  0  0  0
   -5.0330    2.5460   -3.3970 C   0  0  0  0  0  0  0  0  0  0  0  0
   -2.9440    3.7260   -5.5440 C   0  0  2  0  0  0  0  0  0  0  0  0
   -2.3260    2.9570   -6.6000 O   0  0  0  0  0  0  0  0  0  0  0  0
   -2.2500    5.0680   -5.3190 C   0  0  2  0  0  0  0  0  0  0  0  0
   -1.9280    5.7720   -6.5110 O   0  0  0  0  0  0  0  0  0  0  0  0
   -3.0290    6.8530   -7.0780 P   0  0  0  0  0  0  0  0  0  0  0  0
   -3.9160    7.1090   -5.8630 O   0  0  0  0  0  0  0  0  0  0  0  0
   -2.2090    8.0660   -7.4920 O   0  0  0  0  0  0  0  0  0  0  0  0
   -3.7410    6.1430   -8.2170 O   0  0  0  0  0  0  0  0  0  0  0  0
    5.5480    9.4770   -3.6610 C   0  0  1  0  0  0  0  0  0  0  0  0
    5.5320   10.9420   -4.1790 C   0  0  0  0  0  0  0  0  0  0  0  0
    6.8560   11.4770   -4.2440 O   0  0  0  0  0  0  0  0  0  0  0  0
    7.0170   13.1120   -4.2930 P   0  0  0  0  0  0  0  0  0  0  0  0
    8.4610   13.3630   -3.8690 O   0  0  0  0  0  0  0  0  0  0  0  0
    6.7250   13.4920   -5.7370 O   0  0  0  0  0  0  0  0  0  0  0  0
    5.9960   13.6410   -3.2920 O   0  0  0  0  0  0  0  0  0  0  0  0
    6.3510    9.3960   -2.4450 O   0  0  0  0  0  0  0  0  0  0  0  0
    6.4110    9.8760    0.8610 C   0  0  0  0  0  0  0  0  0  0  0  0
    6.7540    8.7220    1.1120 O   0  0  0  0  0  0  0  0  0  0  0  0
    6.6550   10.8400    1.8060 N   0  0  0  0  0  0  0  0  0  0  0  0
    6.4680   12.1840    1.6580 C   0  0  0  0  0  0  0  0  0  0  0  0
    6.8400   12.9810    2.5200 O   0  0  0  0  0  0  0  0  0  0  0  0
    5.4413   14.5570    1.1645 H   0  0  0  0  0  0  0  0  0  0  0  0
    6.3651   14.5103   -0.3754 H   0  0  0  0  0  0  0  0  0  0  0  0
    4.6013   14.1699   -0.3754 H   0  0  0  0  0  0  0  0  0  0  0  0
    5.0281   11.9562   -1.4321 H   0  0  0  0  0  0  0  0  0  0  0  0
    5.5373    8.3439   -0.8189 H   0  0  0  0  0  0  0  0  0  0  0  0
    3.3266    8.8600   -1.2552 H   0  0  0  0  0  0  0  0  0  0  0  0
    3.6412   10.4928   -1.7825 H   0  0  0  0  0  0  0  0  0  0  0  0
    3.3533    9.2401   -3.9535 H   0  0  0  0  0  0  0  0  0  0  0  0
    0.6130    5.5816   -3.4262 H   0  0  0  0  0  0  0  0  0  0  0  0
   -0.9896    5.7085   -2.5924 H   0  0  0  0  0  0  0  0  0  0  0  0
   -0.2134    4.3731   -5.1438 H   0  0  0  0  0  0  0  0  0  0  0  0
   -2.6297    1.9409   -4.4261 H   0  0  0  0  0  0  0  0  0  0  0  0
   -2.9795    4.4363   -1.7007 H   0  0  0  0  0  0  0  0  0  0  0  0
   -7.8410    2.4170   -0.4260 H   0  0  0  0  0  0  0  0  0  0  0  0
   -7.8210    4.0070   -1.0850 H   0  0  0  0  0  0  0  0  0  0  0  0
   -7.1995    0.7912   -5.0022 H   0  0  0  0  0  0  0  0  0  0  0  0
   -3.9971    3.8463   -5.8380 H   0  0  0  0  0  0  0  0  0  0  0  0
   -2.2990    3.6280   -7.3530 H   0  0  0  0  0  0  0  0  0  0  0  0
   -2.8855    5.8184   -4.8261 H   0  0  0  0  0  0  0  0  0  0  0  0
    5.9462    8.8810   -4.4954 H   0  0  0  0  0  0  0  0  0  0  0  0
    5.0857   10.9632   -5.1842 H   0  0  0  0  0  0  0  0  0  0  0  0
    4.9407   11.5538   -3.4818 H   0  0  0  0  0  0  0  0  0  0  0  0
    7.1020   10.5160    2.6430 H   0  0  0  0  0  0  0  0  0  0  0  0
  1  2  1  0
  2  3  2  0
  3  4  1  0
  4  5  1  0
  5  6  1  0
  6  7  1  0
  7  8  1  0
  8  9  1  0
  9 10  2  0
  9 11  1  6
  9 12  1  0
 12 13  1  0
 13 14  2  0
 13 15  1  6
 13 16  1  0
 16 17  1  0
 17 18  1  0
 18 19  1  0
 19 20  1  0
 20 21  1  0
 21 22  1  0
 22 23  2  0
 23 24  1  0
 24 25  2  0
 25 26  1  0
 25 27  1  0
 27 28  2  0
 28 29  1  0
 29 30  2  0
 20 31  1  0
 31 32  1  0
 31 33  1  0
 33 34  1  0
 34 35  1  0
 35 36  2  0
 35 37  1  0
 35 38  1  0
  7 39  1  0
 39 40  1  0
 40 41  1  0
 41 42  1  0
 42 43  2  0
 42 44  1  0
 42 45  1  0
 39 46  1  0
  4 47  1  0
 47 48  2  0
 47 49  1  0
 49 50  1  0
 50 51  2  0
 50  2  1  0
 46  5  1  0
 33 18  1  0
 30 21  1  0
 30 24  1  0
  1 52  1  0
  1 53  1  0
  1 54  1  0
  3 55  1  0
  5 56  1  1
  6 57  1  0
  6 58  1  0
  7 59  1  6
 17 60  1  0
 17 61  1  0
 18 62  1  6
 20 63  1  6
 22 64  1  0
 26 65  1  0
 26 66  1  0
 28 67  1  0
 31 68  1  6
 32 69  1  0
 33 70  1  1
 39 71  1  6
 40 72  1  0
 40 73  1  0
 49 74  1  0
M  CHG  6  11  -1  15  -1  37  -1  38  -1  44  -1  45  -1
M  END
>  <meeko>  (8) 
{"is_sidechain": [false], "free_energy": -6.879, "intermolecular_energy": -13.476, "internal_energy": -2.589}

$$$$
1u1b_ligand
     RDKit          3D

 74 78  0  0  0  0  0  0  0  0999 V2000
    5.7840    2.6810   -2.8400 C   0  0  0  0  0  0  0  0  0  0  0  0
    5.7340    3.6160   -4.0030 C   0  0  0  0  0  0  0  0  0  0  0  0
    4.8080    4.5730   -4.1420 C   0  0  0  0  0  0  0  0  0  0  0  0
    4.7890    5.4590   -5.2070 N   0  0  0  0  0  0  0  0  0  0  0  0
    3.7340    6.4770   -5.3160 C   0  0  1  0  0  0  0  0  0  0  0  0
    2.6060    6.3000   -4.3020 C   0  0  0  0  0  0  0  0  0  0  0  0
    2.1460    7.7280   -4.0890 C   0  0  2  0  0  0  0  0  0  0  0  0
    1.3300    8.0910   -5.2080 O   0  0  0  0  0  0  0  0  0  0  0  0
    0.3760    9.4290   -5.1440 P   0  0  2  0  0  5  0  0  0  0  0  0
    1.1010   10.4570   -5.9870 O   0  0  0  0  0  0  0  0  0  0  0  0
    0.1360    9.6890   -3.6710 O   0  0  0  0  0  0  0  0  0  0  0  0
   -0.9190    8.8550   -5.8890 O   0  0  0  0  0  0  0  0  0  0  0  0
   -1.9320    9.4350   -6.9920 P   0  0  2  0  0  5  0  0  0  0  0  0
   -1.3560    9.4260   -8.3920 O   0  0  0  0  0  0  0  0  0  0  0  0
   -2.4810   10.7570   -6.4700 O   0  0  0  0  0  0  0  0  0  0  0  0
   -3.1780    8.3750   -6.9450 O   0  0  0  0  0  0  0  0  0  0  0  0
   -3.2190    7.5030   -5.8040 C   0  0  0  0  0  0  0  0  0  0  0  0
   -3.3050    6.0240   -6.2270 C   0  0  1  0  0  0  0  0  0  0  0  0
   -3.1700    5.9380   -7.6760 O   0  0  0  0  0  0  0  0  0  0  0  0
   -2.4010    4.7680   -7.9920 C   0  0  1  0  0  0  0  0  0  0  0  0
   -1.1920    5.1590   -8.7040 N   0  0  0  0  0  0  0  0  0  0  0  0
   -0.2670    6.1100   -8.3460 C   0  0  0  0  0  0  0  0  0  0  0  0
    0.7400    6.1710   -9.2040 N   0  0  0  0  0  0  0  0  0  0  0  0
    0.4300    5.2380  -10.1630 C   0  0  0  0  0  0  0  0  0  0  0  0
    1.1230    4.8070  -11.3080 C   0  0  0  0  0  0  0  0  0  0  0  0
    2.3830    5.3130  -11.6600 N   0  0  0  0  0  0  0  0  0  0  0  0
    0.5940    3.8190  -12.0660 N   0  0  0  0  0  0  0  0  0  0  0  0
   -0.6070    3.3220  -11.6850 C   0  0  0  0  0  0  0  0  0  0  0  0
   -1.3760    3.6750  -10.6410 N   0  0  0  0  0  0  0  0  0  0  0  0
   -0.7780    4.6210   -9.8960 C   0  0  0  0  0  0  0  0  0  0  0  0
   -2.1410    4.0080   -6.6950 C   0  0  2  0  0  0  0  0  0  0  0  0
   -3.1890    3.0300   -6.5060 O   0  0  0  0  0  0  0  0  0  0  0  0
   -2.1920    5.1220   -5.6520 C   0  0  2  0  0  0  0  0  0  0  0  0
   -2.4100    4.6760   -4.3210 O   0  0  0  0  0  0  0  0  0  0  0  0
   -1.1730    4.8410   -3.2500 P   0  0  0  0  0  0  0  0  0  0  0  0
   -1.7600    4.2750   -1.9600 O   0  0  0  0  0  0  0  0  0  0  0  0
   -0.0460    3.9930   -3.8210 O   0  0  0  0  0  0  0  0  0  0  0  0
   -0.8860    6.3310   -3.1910 O   0  0  0  0  0  0  0  0  0  0  0  0
    3.4870    8.4930   -4.1430 C   0  0  1  0  0  0  0  0  0  0  0  0
    4.2490    8.5130   -2.7890 C   0  0  0  0  0  0  0  0  0  0  0  0
    3.7520    9.5480   -1.9370 O   0  0  0  0  0  0  0  0  0  0  0  0
    4.6920   10.0120   -0.6710 P   0  0  0  0  0  0  0  0  0  0  0  0
    6.0310   10.3730   -1.3060 O   0  0  0  0  0  0  0  0  0  0  0  0
    3.9640   11.1990   -0.0560 O   0  0  0  0  0  0  0  0  0  0  0  0
    4.7660    8.7900    0.2360 O   0  0  0  0  0  0  0  0  0  0  0  0
    4.2850    7.7920   -5.1430 O   0  0  0  0  0  0  0  0  0  0  0  0
    5.7240    5.3760   -6.2200 C   0  0  0  0  0  0  0  0  0  0  0  0
    5.8230    6.1350   -7.1810 O   0  0  0  0  0  0  0  0  0  0  0  0
    6.6360    4.3560   -6.1070 N   0  0  0  0  0  0  0  0  0  0  0  0
    6.7660    3.5010   -5.0510 C   0  0  0  0  0  0  0  0  0  0  0  0
    7.7010    2.7020   -4.9860 O   0  0  0  0  0  0  0  0  0  0  0  0
    5.7531    3.2581   -1.9040 H   0  0  0  0  0  0  0  0  0  0  0  0
    4.9210    2.0001   -2.8796 H   0  0  0  0  0  0  0  0  0  0  0  0
    6.7147    2.0960   -2.8796 H   0  0  0  0  0  0  0  0  0  0  0  0
    4.0251    4.6599   -3.3742 H   0  0  0  0  0  0  0  0  0  0  0  0
    3.3089    6.3513   -6.3227 H   0  0  0  0  0  0  0  0  0  0  0  0
    1.7968    5.6761   -4.7094 H   0  0  0  0  0  0  0  0  0  0  0  0
    2.9169    5.7919   -3.3773 H   0  0  0  0  0  0  0  0  0  0  0  0
    1.5690    7.9137   -3.1711 H   0  0  0  0  0  0  0  0  0  0  0  0
   -2.3069    7.6518   -5.2074 H   0  0  0  0  0  0  0  0  0  0  0  0
   -4.1158    7.7465   -5.2153 H   0  0  0  0  0  0  0  0  0  0  0  0
   -4.2728    5.6715   -5.8408 H   0  0  0  0  0  0  0  0  0  0  0  0
   -2.9408    4.0880   -8.6674 H   0  0  0  0  0  0  0  0  0  0  0  0
   -0.3528    6.7456   -7.4523 H   0  0  0  0  0  0  0  0  0  0  0  0
    2.8950    4.5720  -12.1380 H   0  0  0  0  0  0  0  0  0  0  0  0
    2.2430    6.1630  -12.1900 H   0  0  0  0  0  0  0  0  0  0  0  0
   -1.0089    2.5174  -12.3183 H   0  0  0  0  0  0  0  0  0  0  0  0
   -1.1957    3.4468   -6.6580 H   0  0  0  0  0  0  0  0  0  0  0  0
   -3.8680    3.3220   -7.1930 H   0  0  0  0  0  0  0  0  0  0  0  0
   -1.2339    5.6452   -5.5169 H   0  0  0  0  0  0  0  0  0  0  0  0
    3.3011    9.5497   -4.3854 H   0  0  0  0  0  0  0  0  0  0  0  0
    4.1193    7.5419   -2.2888 H   0  0  0  0  0  0  0  0  0  0  0  0
    5.3137    8.7043   -2.9887 H   0  0  0  0  0  0  0  0  0  0  0  0
    7.3240    4.3150   -6.8350 H   0  0  0  0  0  0  0  0  0  0  0  0
  1  2  1  0
  2  3  2  0
  3  4  1  0
  4  5  1  0
  5  6  1  0
  6  7  1  0
  7  8  1  0
  8  9  1  0
  9 10  2  0
  9 11  1  1
  9 12  1  0
 12 13  1  0
 13 14  2  0
 13 15  1  1
 13 16  1  0
 16 17  1  0
 17 18  1  0
 18 19  1  0
 19 20  1  0
 20 21  1  0
 21 22  1  0
 22 23  2  0
 23 24  1  0
 24 25  2  0
 25 26  1  0
 25 27  1  0
 27 28  2  0
 28 29  1  0
 29 30  2  0
 20 31  1  0
 31 32  1  0
 31 33  1  0
 33 34  1  0
 34 35  1  0
 35 36  2  0
 35 37  1  0
 35 38  1  0
  7 39  1  0
 39 40  1  0
 40 41  1  0
 41 42  1  0
 42 43  2  0
 42 44  1  0
 42 45  1  0
 39 46  1  0
  4 47  1  0
 47 48  2  0
 47 49  1  0
 49 50  1  0
 50 51  2  0
 50  2  1  0
 46  5  1  0
 33 18  1  0
 30 21  1  0
 30 24  1  0
  1 52  1  0
  1 53  1  0
  1 54  1  0
  3 55  1  0
  5 56  1  6
  6 57  1  0
  6 58  1  0
  7 59  1  1
 17 60  1  0
 17 61  1  0
 18 62  1  6
 20 63  1  6
 22 64  1  0
 26 65  1  0
 26 66  1  0
 28 67  1  0
 31 68  1  6
 32 69  1  0
 33 70  1  1
 39 71  1  6
 40 72  1  0
 40 73  1  0
 49 74  1  0
M  CHG  6  11  -1  15  -1  37  -1  38  -1  44  -1  45  -1
M  END
>  <meeko>  (9) 
{"is_sidechain": [false], "free_energy": -6.873, "intermolecular_energy": -12.598, "internal_energy": -3.458}

$$$$
