
     RDKit          3D

 41 43  0  0  0  0  0  0  0  0999 V2000
   -1.8320  -37.2880   16.3700 C   0  0  0  0  0  0  0  0  0  0  0  0
   -1.8220  -37.3640   14.8510 C   0  0  0  0  0  0  0  0  0  0  0  0
   -0.8490  -37.8680   14.2500 O   0  0  0  0  0  0  0  0  0  0  0  0
   -2.9200  -36.9400   14.2130 N   0  0  0  0  0  0  0  0  0  0  0  0
   -3.0440  -36.9290   12.7420 C   0  0  2  0  0  0  0  0  0  0  0  0
   -2.6540  -35.5300   12.2790 C   0  0  0  0  0  0  0  0  0  0  0  0
   -3.0660  -34.5190   12.8180 O   0  0  0  0  0  0  0  0  0  0  0  0
   -1.7670  -35.5230   11.2890 N   0  0  0  0  0  0  0  0  0  0  0  0
   -1.0730  -34.3130   10.8160 C   0  0  2  0  0  0  0  0  0  0  0  0
   -1.5570  -34.0360    9.3970 C   0  0  0  0  0  0  0  0  0  0  0  0
   -1.8760  -34.9680    8.6420 O   0  0  0  0  0  0  0  0  0  0  0  0
   -1.6050  -32.7630    8.9460 N   0  0  0  0  0  0  0  0  0  0  0  0
   -1.3370  -31.5490    9.7200 C   0  0  0  0  0  0  0  0  0  0  0  0
   -1.9920  -30.4450    8.9160 C   0  0  2  0  0  0  0  0  0  0  0  0
   -3.3960  -30.3730    9.2620 O   0  0  0  0  0  0  0  0  0  0  0  0
   -1.8800  -30.9230    7.4990 C   0  0  0  0  0  0  0  0  0  0  0  0
   -1.9870  -32.4280    7.5580 C   0  0  1  0  0  0  0  0  0  0  0  0
   -1.0540  -33.0350    6.5330 C   0  0  0  0  0  0  0  0  0  0  0  0
    0.1290  -33.2140    6.7460 O   0  0  0  0  0  0  0  0  0  0  0  0
   -1.6210  -33.2920    5.3120 N   0  0  0  0  0  0  0  0  0  0  0  0
   -0.8840  -33.7480    4.1550 C   0  0  0  0  0  0  0  0  0  0  0  0
   -0.3750  -32.6060    3.3010 C   0  0  0  0  0  0  0  0  0  0  0  0
    0.7230  -32.7880    2.4510 C   0  0  0  0  0  0  0  0  0  0  0  0
    1.1910  -31.7420    1.6460 C   0  0  0  0  0  0  0  0  0  0  0  0
    0.5600  -30.5000    1.6650 C   0  0  0  0  0  0  0  0  0  0  0  0
    1.0330  -29.4050    0.7990 C   0  0  0  0  0  0  0  0  0  0  0  0
    1.2610  -27.8140    1.3620 S   0  0  0  0  0  0  0  0  0  0  0  0
    1.7770  -27.2700   -0.1460 C   0  0  0  0  0  0  0  0  0  0  0  0
    1.7720  -28.2190   -1.0270 N   0  0  0  0  0  0  0  0  0  0  0  0
    1.3640  -29.4200   -0.5650 C   0  0  0  0  0  0  0  0  0  0  0  0
    1.2870  -30.6360   -1.4750 C   0  0  0  0  0  0  0  0  0  0  0  0
   -0.5160  -30.2880    2.5250 C   0  0  0  0  0  0  0  0  0  0  0  0
   -0.9810  -31.3490    3.3320 C   0  0  0  0  0  0  0  0  0  0  0  0
    0.4770  -34.5630   10.9520 C   0  0  2  0  0  0  0  0  0  0  0  0
    1.2990  -33.3340   10.6090 C   0  0  0  0  0  0  0  0  0  0  0  0
    0.9390  -35.7270   10.0390 C   0  0  0  0  0  0  0  0  0  0  0  0
    0.8150  -34.9290   12.4060 C   0  0  0  0  0  0  0  0  0  0  0  0
   -4.4620  -37.4250   12.3300 C   0  0  2  0  0  0  0  0  0  0  0  0
   -4.3620  -38.2520   11.0550 C   0  0  0  0  0  0  0  0  0  0  0  0
   -5.4420  -36.2800   12.1340 C   0  0  0  0  0  0  0  0  0  0  0  0
   -5.0260  -38.3310   13.4140 C   0  0  0  0  0  0  0  0  0  0  0  0
  2  1  1  0
  3  2  2  0
  4  2  1  0
  5  4  1  1
  6  5  1  0
  7  6  2  0
  8  6  1  0
  9  8  1  6
 10  9  1  0
 11 10  2  0
 12 10  1  0
 13 12  1  0
 14 13  1  0
 14 15  1  1
 16 14  1  0
 17 12  1  0
 17 16  1  0
 17 18  1  6
 19 18  2  0
 20 18  1  0
 21 20  1  0
 22 21  1  0
 23 22  2  0
 24 23  1  0
 25 24  2  0
 26 25  1  0
 27 26  1  0
 28 27  1  0
 29 28  2  0
 30 29  1  0
 30 26  2  0
 31 30  1  0
 32 25  1  0
 33 32  2  0
 33 22  1  0
 34  9  1  0
 34 35  1  6
 36 34  1  0
 37 34  1  0
 38  5  1  0
 38 39  1  6
 40 38  1  0
 41 38  1  0
M  END
$$$$
