3coz_ligand
     RDKit          3D

 54 56  0  0  0  0  0  0  0  0999 V2000
    6.1320   -8.6100   -8.5420 C   0  0  0  0  0  0  0  0  0  0  0  0
    7.2400   -9.1990   -9.4240 C   0  0  0  0  0  0  0  0  0  0  0  0
    8.3070   -8.1210   -9.6500 C   0  0  0  0  0  0  0  0  0  0  0  0
    7.8540  -10.4820   -8.8240 C   0  0  1  0  0  0  0  0  0  0  0  0
    7.5370  -10.5440   -7.3400 N   0  0  0  0  0  0  0  0  0  0  0  0
    7.2850  -11.7520   -9.4910 C   0  0  0  0  0  0  0  0  0  0  0  0
    6.0730  -11.8420   -9.6760 O   0  0  0  0  0  0  0  0  0  0  0  0
    8.1820  -12.7760   -9.7930 N   0  0  0  0  0  0  0  0  0  0  0  0
    7.6700  -14.3030  -10.2090 S   0  0  0  0  0  0  0  0  0  0  0  0
    7.1720  -14.1990  -11.5600 O   0  0  0  0  0  0  0  0  0  0  0  0
    6.8430  -14.7360   -9.1120 O   0  0  0  0  0  0  0  0  0  0  0  0
    9.0370  -15.1670  -10.2190 O   0  0  0  0  0  0  0  0  0  0  0  0
    9.3000  -16.0080   -9.1080 C   0  0  0  0  0  0  0  0  0  0  0  0
    9.3460  -17.4610   -9.5730 C   0  0  1  0  0  0  0  0  0  0  0  0
    8.0590  -18.0760   -9.3990 O   0  0  0  0  0  0  0  0  0  0  0  0
    7.8660  -19.0320  -10.4810 C   0  0  1  0  0  0  0  0  0  0  0  0
    6.6790  -18.6550  -11.2290 N   0  0  0  0  0  0  0  0  0  0  0  0
    6.0740  -17.4260  -11.2780 C   0  0  0  0  0  0  0  0  0  0  0  0
    5.0320  -17.4210  -12.0840 N   0  0  0  0  0  0  0  0  0  0  0  0
    4.9230  -18.7220  -12.5300 C   0  0  0  0  0  0  0  0  0  0  0  0
    4.0130  -19.3630  -13.3870 C   0  0  0  0  0  0  0  0  0  0  0  0
    2.9360  -18.7170  -13.9740 N   0  0  0  0  0  0  0  0  0  0  0  0
    4.2040  -20.6730  -13.6660 N   0  0  0  0  0  0  0  0  0  0  0  0
    5.2430  -21.3100  -13.0850 C   0  0  0  0  0  0  0  0  0  0  0  0
    6.1750  -20.8030  -12.2510 N   0  0  0  0  0  0  0  0  0  0  0  0
    5.9460  -19.5020  -12.0160 C   0  0  0  0  0  0  0  0  0  0  0  0
    9.1500  -19.0110  -11.3230 C   0  0  2  0  0  0  0  0  0  0  0  0
   10.0980  -19.9740  -10.8310 O   0  0  0  0  0  0  0  0  0  0  0  0
    9.6850  -17.6140  -11.0540 C   0  0  2  0  0  0  0  0  0  0  0  0
   11.0780  -17.5390  -11.3480 O   0  0  0  0  0  0  0  0  0  0  0  0
    6.3937   -8.7491   -7.4827 H   0  0  0  0  0  0  0  0  0  0  0  0
    6.0254   -7.5362   -8.7554 H   0  0  0  0  0  0  0  0  0  0  0  0
    5.1822   -9.1223   -8.7554 H   0  0  0  0  0  0  0  0  0  0  0  0
    6.8022   -9.5008  -10.3869 H   0  0  0  0  0  0  0  0  0  0  0  0
    8.6696   -7.7546   -8.6783 H   0  0  0  0  0  0  0  0  0  0  0  0
    9.1467   -8.5494  -10.2169 H   0  0  0  0  0  0  0  0  0  0  0  0
    7.8700   -7.2857  -10.2169 H   0  0  0  0  0  0  0  0  0  0  0  0
    8.9396  -10.4456   -8.9979 H   0  0  0  0  0  0  0  0  0  0  0  0
    6.5420  -10.6850   -7.1290 H   0  0  0  0  0  0  0  0  0  0  0  0
    8.0800  -11.3030   -6.8960 H   0  0  0  0  0  0  0  0  0  0  0  0
    7.8390   -9.6820   -6.8610 H   0  0  0  0  0  0  0  0  0  0  0  0
    9.1890  -12.7460   -9.6500 H   0  0  0  0  0  0  0  0  0  0  0  0
   10.2674  -15.7346   -8.6614 H   0  0  0  0  0  0  0  0  0  0  0  0
    8.5042  -15.8867   -8.3583 H   0  0  0  0  0  0  0  0  0  0  0  0
   10.1316  -17.9341   -8.9656 H   0  0  0  0  0  0  0  0  0  0  0  0
    7.6984  -20.0598  -10.1267 H   0  0  0  0  0  0  0  0  0  0  0  0
    6.4178  -16.5480  -10.7115 H   0  0  0  0  0  0  0  0  0  0  0  0
    2.2200  -19.3310  -14.3410 H   0  0  0  0  0  0  0  0  0  0  0  0
    2.6540  -17.8800  -13.4810 H   0  0  0  0  0  0  0  0  0  0  0  0
    5.3426  -22.3796  -13.3218 H   0  0  0  0  0  0  0  0  0  0  0  0
    8.9761  -19.2453  -12.3836 H   0  0  0  0  0  0  0  0  0  0  0  0
   10.9770  -19.5720  -10.9880 H   0  0  0  0  0  0  0  0  0  0  0  0
    9.2611  -16.8081  -11.6710 H   0  0  0  0  0  0  0  0  0  0  0  0
   11.5600  -17.5840  -10.4980 H   0  0  0  0  0  0  0  0  0  0  0  0
  1  2  1  0
  2  3  1  0
  2  4  1  0
  4  5  1  0
  4  6  1  0
  6  7  2  0
  6  8  1  0
  8  9  1  0
  9 10  2  0
  9 11  2  0
  9 12  1  0
 12 13  1  0
 13 14  1  0
 14 15  1  0
 15 16  1  0
 16 17  1  0
 17 18  1  0
 18 19  2  0
 19 20  1  0
 20 21  2  0
 21 22  1  0
 21 23  1  0
 23 24  2  0
 24 25  1  0
 25 26  2  0
 16 27  1  0
 27 28  1  0
 27 29  1  0
 29 30  1  0
 29 14  1  0
 26 17  1  0
 26 20  1  0
  1 31  1  0
  1 32  1  0
  1 33  1  0
  2 34  1  0
  3 35  1  0
  3 36  1  0
  3 37  1  0
  4 38  1  1
  5 39  1  0
  5 40  1  0
  5 41  1  0
  8 42  1  0
 13 43  1  0
 13 44  1  0
 14 45  1  1
 16 46  1  1
 18 47  1  0
 22 48  1  0
 22 49  1  0
 24 50  1  0
 27 51  1  6
 28 52  1  0
 29 53  1  6
 30 54  1  0
M  CHG  1   5   1
M  END
>  <meeko>  (1) 
{"is_sidechain": [false], "free_energy": -8.845, "intermolecular_energy": -13.498, "internal_energy": -1.046}

$$$$
3coz_ligand
     RDKit          3D

 54 56  0  0  0  0  0  0  0  0999 V2000
    5.5060  -10.3200   -8.4900 C   0  0  0  0  0  0  0  0  0  0  0  0
    6.9240  -10.7990   -8.8290 C   0  0  0  0  0  0  0  0  0  0  0  0
    7.7480   -9.5900   -9.2890 C   0  0  0  0  0  0  0  0  0  0  0  0
    7.6010  -11.5270   -7.6480 C   0  0  1  0  0  0  0  0  0  0  0  0
    6.6750  -11.5000   -6.4440 N   0  0  0  0  0  0  0  0  0  0  0  0
    7.9070  -13.0010   -7.9860 C   0  0  0  0  0  0  0  0  0  0  0  0
    8.1300  -13.3160   -9.1540 O   0  0  0  0  0  0  0  0  0  0  0  0
    7.8490  -13.9240   -6.9430 N   0  0  0  0  0  0  0  0  0  0  0  0
    7.8390  -15.5650   -7.2180 S   0  0  0  0  0  0  0  0  0  0  0  0
    7.4510  -16.1730   -5.9680 O   0  0  0  0  0  0  0  0  0  0  0  0
    9.0980  -15.8490   -7.8570 O   0  0  0  0  0  0  0  0  0  0  0  0
    6.6430  -15.7590   -8.2890 O   0  0  0  0  0  0  0  0  0  0  0  0
    6.9670  -16.3070   -9.5560 C   0  0  0  0  0  0  0  0  0  0  0  0
    5.7800  -16.1380  -10.4990 C   0  0  1  0  0  0  0  0  0  0  0  0
    6.0770  -16.7230  -11.7770 O   0  0  0  0  0  0  0  0  0  0  0  0
    4.8430  -17.2750  -12.3180 C   0  0  1  0  0  0  0  0  0  0  0  0
    5.0260  -18.7000  -12.5360 N   0  0  0  0  0  0  0  0  0  0  0  0
    6.1000  -19.4710  -12.1770 C   0  0  0  0  0  0  0  0  0  0  0  0
    5.9270  -20.7370  -12.4940 N   0  0  0  0  0  0  0  0  0  0  0  0
    4.7100  -20.7760  -13.1430 C   0  0  0  0  0  0  0  0  0  0  0  0
    3.9790  -21.8190  -13.7370 C   0  0  0  0  0  0  0  0  0  0  0  0
    4.4300  -23.1280  -13.7940 N   0  0  0  0  0  0  0  0  0  0  0  0
    2.7680  -21.5340  -14.2680 N   0  0  0  0  0  0  0  0  0  0  0  0
    2.3310  -20.2570  -14.2290 C   0  0  0  0  0  0  0  0  0  0  0  0
    2.9410  -19.1810  -13.6900 N   0  0  0  0  0  0  0  0  0  0  0  0
    4.1300  -19.5180  -13.1690 C   0  0  0  0  0  0  0  0  0  0  0  0
    3.7330  -16.9500  -11.3090 C   0  0  2  0  0  0  0  0  0  0  0  0
    3.1280  -15.6800  -11.6060 O   0  0  0  0  0  0  0  0  0  0  0  0
    4.5100  -16.8310  -10.0080 C   0  0  2  0  0  0  0  0  0  0  0  0
    3.7720  -16.0860   -9.0420 O   0  0  0  0  0  0  0  0  0  0  0  0
    5.3842  -10.2789   -7.3975 H   0  0  0  0  0  0  0  0  0  0  0  0
    5.3461   -9.3180   -8.9147 H   0  0  0  0  0  0  0  0  0  0  0  0
    4.7712  -11.0198   -8.9147 H   0  0  0  0  0  0  0  0  0  0  0  0
    6.8629  -11.5411   -9.6386 H   0  0  0  0  0  0  0  0  0  0  0  0
    8.1202   -9.0439   -8.4096 H   0  0  0  0  0  0  0  0  0  0  0  0
    8.5996   -9.9353   -9.8936 H   0  0  0  0  0  0  0  0  0  0  0  0
    7.1152   -8.9237   -9.8936 H   0  0  0  0  0  0  0  0  0  0  0  0
    8.5472  -11.0081   -7.4347 H   0  0  0  0  0  0  0  0  0  0  0  0
    7.0540  -10.9950   -5.6350 H   0  0  0  0  0  0  0  0  0  0  0  0
    5.7710  -11.0750   -6.7070 H   0  0  0  0  0  0  0  0  0  0  0  0
    6.4420  -12.4560   -6.1360 H   0  0  0  0  0  0  0  0  0  0  0  0
    7.6610  -13.7080   -5.9670 H   0  0  0  0  0  0  0  0  0  0  0  0
    7.8417  -15.7837   -9.9695 H   0  0  0  0  0  0  0  0  0  0  0  0
    7.1994  -17.3765   -9.4455 H   0  0  0  0  0  0  0  0  0  0  0  0
    5.6084  -15.0529  -10.5548 H   0  0  0  0  0  0  0  0  0  0  0  0
    4.5659  -16.8434  -13.2911 H   0  0  0  0  0  0  0  0  0  0  0  0
    7.0007  -19.0786  -11.6822 H   0  0  0  0  0  0  0  0  0  0  0  0
    4.1400  -23.6430  -14.6160 H   0  0  0  0  0  0  0  0  0  0  0  0
    5.3780  -23.2400  -13.4590 H   0  0  0  0  0  0  0  0  0  0  0  0
    1.3529  -20.0701  -14.6963 H   0  0  0  0  0  0  0  0  0  0  0  0
    2.9242  -17.6955  -11.3010 H   0  0  0  0  0  0  0  0  0  0  0  0
    3.1200  -15.6210  -12.5830 H   0  0  0  0  0  0  0  0  0  0  0  0
    4.7177  -17.7749   -9.4826 H   0  0  0  0  0  0  0  0  0  0  0  0
    4.4020  -15.4960   -8.5820 H   0  0  0  0  0  0  0  0  0  0  0  0
  1  2  1  0
  2  3  1  0
  2  4  1  0
  4  5  1  0
  4  6  1  0
  6  7  2  0
  6  8  1  0
  8  9  1  0
  9 10  2  0
  9 11  2  0
  9 12  1  0
 12 13  1  0
 13 14  1  0
 14 15  1  0
 15 16  1  0
 16 17  1  0
 17 18  1  0
 18 19  2  0
 19 20  1  0
 20 21  2  0
 21 22  1  0
 21 23  1  0
 23 24  2  0
 24 25  1  0
 25 26  2  0
 16 27  1  0
 27 28  1  0
 27 29  1  0
 29 30  1  0
 29 14  1  0
 26 17  1  0
 26 20  1  0
  1 31  1  0
  1 32  1  0
  1 33  1  0
  2 34  1  0
  3 35  1  0
  3 36  1  0
  3 37  1  0
  4 38  1  1
  5 39  1  0
  5 40  1  0
  5 41  1  0
  8 42  1  0
 13 43  1  0
 13 44  1  0
 14 45  1  6
 16 46  1  6
 18 47  1  0
 22 48  1  0
 22 49  1  0
 24 50  1  0
 27 51  1  1
 28 52  1  0
 29 53  1  1
 30 54  1  0
M  CHG  1   5   1
M  END
>  <meeko>  (2) 
{"is_sidechain": [false], "free_energy": -8.529, "intermolecular_energy": -13.262, "internal_energy": -0.799}

$$$$
3coz_ligand
     RDKit          3D

 54 56  0  0  0  0  0  0  0  0999 V2000
    3.7050  -16.1410   -9.8210 C   0  0  0  0  0  0  0  0  0  0  0  0
    3.8550  -15.0970  -10.9350 C   0  0  0  0  0  0  0  0  0  0  0  0
    4.4170  -13.8080  -10.3220 C   0  0  0  0  0  0  0  0  0  0  0  0
    4.7350  -15.5970  -12.1010 C   0  0  1  0  0  0  0  0  0  0  0  0
    6.1980  -15.3780  -11.7550 N   0  0  0  0  0  0  0  0  0  0  0  0
    4.5250  -17.1020  -12.3690 C   0  0  0  0  0  0  0  0  0  0  0  0
    3.4140  -17.5020  -12.7110 O   0  0  0  0  0  0  0  0  0  0  0  0
    5.6070  -17.9520  -12.1430 N   0  0  0  0  0  0  0  0  0  0  0  0
    5.4320  -19.6050  -12.0820 S   0  0  0  0  0  0  0  0  0  0  0  0
    5.1810  -20.0270  -13.4390 O   0  0  0  0  0  0  0  0  0  0  0  0
    4.4970  -19.8460  -11.0130 O   0  0  0  0  0  0  0  0  0  0  0  0
    6.8980  -20.1220  -11.6350 O   0  0  0  0  0  0  0  0  0  0  0  0
    7.4400  -19.6180  -10.4250 C   0  0  0  0  0  0  0  0  0  0  0  0
    8.6190  -18.7040  -10.7400 C   0  0  1  0  0  0  0  0  0  0  0  0
    8.1890  -17.3330  -10.7650 O   0  0  0  0  0  0  0  0  0  0  0  0
    9.2800  -16.5090  -10.2620 C   0  0  1  0  0  0  0  0  0  0  0  0
    8.8140  -15.7830   -9.0930 N   0  0  0  0  0  0  0  0  0  0  0  0
    8.7380  -16.2340   -7.8010 C   0  0  0  0  0  0  0  0  0  0  0  0
    8.3020  -15.3040   -6.9780 N   0  0  0  0  0  0  0  0  0  0  0  0
    8.0250  -14.2190   -7.7850 C   0  0  0  0  0  0  0  0  0  0  0  0
    7.5150  -12.9370   -7.5180 C   0  0  0  0  0  0  0  0  0  0  0  0
    7.1430  -12.5150   -6.2510 N   0  0  0  0  0  0  0  0  0  0  0  0
    7.3950  -12.0660   -8.5450 N   0  0  0  0  0  0  0  0  0  0  0  0
    7.7410  -12.4770   -9.7830 C   0  0  0  0  0  0  0  0  0  0  0  0
    8.2380  -13.6740  -10.1580 N   0  0  0  0  0  0  0  0  0  0  0  0
    8.3470  -14.4960   -9.1030 C   0  0  0  0  0  0  0  0  0  0  0  0
   10.4500  -17.4570   -9.9660 C   0  0  2  0  0  0  0  0  0  0  0  0
   11.2890  -17.6110  -11.1240 O   0  0  0  0  0  0  0  0  0  0  0  0
    9.7350  -18.7720   -9.6990 C   0  0  2  0  0  0  0  0  0  0  0  0
   10.6240  -19.8750   -9.8630 O   0  0  0  0  0  0  0  0  0  0  0  0
    3.7763  -15.6451   -8.8417 H   0  0  0  0  0  0  0  0  0  0  0  0
    2.7266  -16.6355   -9.9113 H   0  0  0  0  0  0  0  0  0  0  0  0
    4.5046  -16.8910   -9.9113 H   0  0  0  0  0  0  0  0  0  0  0  0
    2.8646  -14.9032  -11.3727 H   0  0  0  0  0  0  0  0  0  0  0  0
    4.3857  -13.8798   -9.2248 H   0  0  0  0  0  0  0  0  0  0  0  0
    5.4574  -13.6689  -10.6508 H   0  0  0  0  0  0  0  0  0  0  0  0
    3.8109  -12.9510  -10.6508 H   0  0  0  0  0  0  0  0  0  0  0  0
    4.4492  -15.0327  -13.0010 H   0  0  0  0  0  0  0  0  0  0  0  0
    6.4370  -15.5990  -10.7810 H   0  0  0  0  0  0  0  0  0  0  0  0
    6.7950  -15.9450  -12.3790 H   0  0  0  0  0  0  0  0  0  0  0  0
    6.4770  -14.4010  -11.9320 H   0  0  0  0  0  0  0  0  0  0  0  0
    6.5390  -17.6640  -11.8540 H   0  0  0  0  0  0  0  0  0  0  0  0
    6.6682  -19.0488   -9.8862 H   0  0  0  0  0  0  0  0  0  0  0  0
    7.7814  -20.4553   -9.7985 H   0  0  0  0  0  0  0  0  0  0  0  0
    9.0007  -19.0501  -11.7119 H   0  0  0  0  0  0  0  0  0  0  0  0
    9.6202  -15.7521  -10.9841 H   0  0  0  0  0  0  0  0  0  0  0  0
    9.0094  -17.2532   -7.4887 H   0  0  0  0  0  0  0  0  0  0  0  0
    6.1580  -12.6180   -6.0410 H   0  0  0  0  0  0  0  0  0  0  0  0
    7.8200  -12.7490   -5.5360 H   0  0  0  0  0  0  0  0  0  0  0  0
    7.5998  -11.7423  -10.5894 H   0  0  0  0  0  0  0  0  0  0  0  0
   11.0957  -17.1047   -9.1481 H   0  0  0  0  0  0  0  0  0  0  0  0
   11.6870  -16.7290  -11.2710 H   0  0  0  0  0  0  0  0  0  0  0  0
    9.3533  -18.9149   -8.6773 H   0  0  0  0  0  0  0  0  0  0  0  0
   11.1540  -19.7070  -10.6680 H   0  0  0  0  0  0  0  0  0  0  0  0
  1  2  1  0
  2  3  1  0
  2  4  1  0
  4  5  1  0
  4  6  1  0
  6  7  2  0
  6  8  1  0
  8  9  1  0
  9 10  2  0
  9 11  2  0
  9 12  1  0
 12 13  1  0
 13 14  1  0
 14 15  1  0
 15 16  1  0
 16 17  1  0
 17 18  1  0
 18 19  2  0
 19 20  1  0
 20 21  2  0
 21 22  1  0
 21 23  1  0
 23 24  2  0
 24 25  1  0
 25 26  2  0
 16 27  1  0
 27 28  1  0
 27 29  1  0
 29 30  1  0
 29 14  1  0
 26 17  1  0
 26 20  1  0
  1 31  1  0
  1 32  1  0
  1 33  1  0
  2 34  1  0
  3 35  1  0
  3 36  1  0
  3 37  1  0
  4 38  1  6
  5 39  1  0
  5 40  1  0
  5 41  1  0
  8 42  1  0
 13 43  1  0
 13 44  1  0
 14 45  1  6
 16 46  1  6
 18 47  1  0
 22 48  1  0
 22 49  1  0
 24 50  1  0
 27 51  1  1
 28 52  1  0
 29 53  1  1
 30 54  1  0
M  CHG  1   5   1
M  END
>  <meeko>  (3) 
{"is_sidechain": [false], "free_energy": -8.396, "intermolecular_energy": -12.219, "internal_energy": -1.64}

$$$$
3coz_ligand
     RDKit          3D

 54 56  0  0  0  0  0  0  0  0999 V2000
    2.0680  -21.2640  -12.9560 C   0  0  0  0  0  0  0  0  0  0  0  0
    3.5950  -21.1300  -12.9040 C   0  0  0  0  0  0  0  0  0  0  0  0
    4.2120  -22.2620  -13.7350 C   0  0  0  0  0  0  0  0  0  0  0  0
    4.0850  -19.7470  -13.3860 C   0  0  1  0  0  0  0  0  0  0  0  0
    2.9420  -19.0220  -14.0760 N   0  0  0  0  0  0  0  0  0  0  0  0
    4.5680  -18.8720  -12.2100 C   0  0  0  0  0  0  0  0  0  0  0  0
    4.7030  -19.3790  -11.0990 O   0  0  0  0  0  0  0  0  0  0  0  0
    4.7680  -17.5150  -12.4600 N   0  0  0  0  0  0  0  0  0  0  0  0
    4.9730  -16.4130  -11.2310 S   0  0  0  0  0  0  0  0  0  0  0  0
    3.7780  -16.4900  -10.4260 O   0  0  0  0  0  0  0  0  0  0  0  0
    5.3900  -15.1960  -11.8800 O   0  0  0  0  0  0  0  0  0  0  0  0
    6.2140  -17.0180  -10.3880 O   0  0  0  0  0  0  0  0  0  0  0  0
    7.3860  -16.2280  -10.2700 C   0  0  0  0  0  0  0  0  0  0  0  0
    8.5920  -17.0440  -10.7240 C   0  0  1  0  0  0  0  0  0  0  0  0
    9.6090  -17.0290   -9.7080 O   0  0  0  0  0  0  0  0  0  0  0  0
   10.2890  -18.3170   -9.7320 C   0  0  1  0  0  0  0  0  0  0  0  0
   10.1440  -18.9450   -8.4300 N   0  0  0  0  0  0  0  0  0  0  0  0
   10.3210  -20.2660   -8.1120 C   0  0  0  0  0  0  0  0  0  0  0  0
   10.1430  -20.4920   -6.8270 N   0  0  0  0  0  0  0  0  0  0  0  0
    9.7750  -19.2710   -6.3000 C   0  0  0  0  0  0  0  0  0  0  0  0
    9.4290  -18.8570   -5.0020 C   0  0  0  0  0  0  0  0  0  0  0  0
    9.3750  -19.7190   -3.9190 N   0  0  0  0  0  0  0  0  0  0  0  0
    9.1500  -17.5500   -4.7970 N   0  0  0  0  0  0  0  0  0  0  0  0
    9.1860  -16.7090   -5.8530 C   0  0  0  0  0  0  0  0  0  0  0  0
    9.5020  -16.9900   -7.1350 N   0  0  0  0  0  0  0  0  0  0  0  0
    9.7800  -18.2940   -7.2830 C   0  0  0  0  0  0  0  0  0  0  0  0
    9.6600  -19.1280  -10.8740 C   0  0  2  0  0  0  0  0  0  0  0  0
   10.3570  -18.8960  -12.1100 O   0  0  0  0  0  0  0  0  0  0  0  0
    8.2710  -18.5170  -10.9720 C   0  0  2  0  0  0  0  0  0  0  0  0
    7.6880  -18.7830  -12.2460 O   0  0  0  0  0  0  0  0  0  0  0  0
    1.6679  -21.2991  -11.9319 H   0  0  0  0  0  0  0  0  0  0  0  0
    1.6419  -20.3998  -13.4867 H   0  0  0  0  0  0  0  0  0  0  0  0
    1.7990  -22.1892  -13.4867 H   0  0  0  0  0  0  0  0  0  0  0  0
    3.9207  -21.2127  -11.8566 H   0  0  0  0  0  0  0  0  0  0  0  0
    4.6284  -23.0259  -13.0619 H   0  0  0  0  0  0  0  0  0  0  0  0
    3.4364  -22.7158  -14.3695 H   0  0  0  0  0  0  0  0  0  0  0  0
    5.0137  -21.8561  -14.3695 H   0  0  0  0  0  0  0  0  0  0  0  0
    4.9262  -19.9123  -14.0752 H   0  0  0  0  0  0  0  0  0  0  0  0
    2.5810  -18.2150  -13.5550 H   0  0  0  0  0  0  0  0  0  0  0  0
    3.2420  -18.7060  -15.0120 H   0  0  0  0  0  0  0  0  0  0  0  0
    2.1510  -19.6610  -14.2500 H   0  0  0  0  0  0  0  0  0  0  0  0
    4.6610  -17.0530  -13.3610 H   0  0  0  0  0  0  0  0  0  0  0  0
    7.2901  -15.3319  -10.9008 H   0  0  0  0  0  0  0  0  0  0  0  0
    7.5209  -15.9233   -9.2217 H   0  0  0  0  0  0  0  0  0  0  0  0
    8.9196  -16.5765  -11.6643 H   0  0  0  0  0  0  0  0  0  0  0  0
   11.3697  -18.2326   -9.9190 H   0  0  0  0  0  0  0  0  0  0  0  0
   10.5810  -21.0453   -8.8435 H   0  0  0  0  0  0  0  0  0  0  0  0
    9.4130  -19.2670   -3.0130 H   0  0  0  0  0  0  0  0  0  0  0  0
    8.7330  -20.4890   -4.0510 H   0  0  0  0  0  0  0  0  0  0  0  0
    8.9245  -15.6616   -5.6416 H   0  0  0  0  0  0  0  0  0  0  0  0
    9.6789  -20.2131  -10.6947 H   0  0  0  0  0  0  0  0  0  0  0  0
   11.3050  -18.8630  -11.8680 H   0  0  0  0  0  0  0  0  0  0  0  0
    7.5201  -18.9118  -10.2717 H   0  0  0  0  0  0  0  0  0  0  0  0
    8.2660  -19.4250  -12.7050 H   0  0  0  0  0  0  0  0  0  0  0  0
  1  2  1  0
  2  3  1  0
  2  4  1  0
  4  5  1  0
  4  6  1  0
  6  7  2  0
  6  8  1  0
  8  9  1  0
  9 10  2  0
  9 11  2  0
  9 12  1  0
 12 13  1  0
 13 14  1  0
 14 15  1  0
 15 16  1  0
 16 17  1  0
 17 18  1  0
 18 19  2  0
 19 20  1  0
 20 21  2  0
 21 22  1  0
 21 23  1  0
 23 24  2  0
 24 25  1  0
 25 26  2  0
 16 27  1  0
 27 28  1  0
 27 29  1  0
 29 30  1  0
 29 14  1  0
 26 17  1  0
 26 20  1  0
  1 31  1  0
  1 32  1  0
  1 33  1  0
  2 34  1  0
  3 35  1  0
  3 36  1  0
  3 37  1  0
  4 38  1  6
  5 39  1  0
  5 40  1  0
  5 41  1  0
  8 42  1  0
 13 43  1  0
 13 44  1  0
 14 45  1  6
 16 46  1  6
 18 47  1  0
 22 48  1  0
 22 49  1  0
 24 50  1  0
 27 51  1  1
 28 52  1  0
 29 53  1  1
 30 54  1  0
M  CHG  1   5   1
M  END
>  <meeko>  (4) 
{"is_sidechain": [false], "free_energy": -8.271, "intermolecular_energy": -12.909, "internal_energy": -0.76}

$$$$
3coz_ligand
     RDKit          3D

 54 56  0  0  0  0  0  0  0  0999 V2000
    5.1370  -20.6690  -12.8660 C   0  0  0  0  0  0  0  0  0  0  0  0
    5.0120  -19.1530  -12.6610 C   0  0  0  0  0  0  0  0  0  0  0  0
    3.7790  -18.6590  -13.4290 C   0  0  0  0  0  0  0  0  0  0  0  0
    4.9400  -18.7620  -11.1690 C   0  0  1  0  0  0  0  0  0  0  0  0
    6.1790  -19.2760  -10.4550 N   0  0  0  0  0  0  0  0  0  0  0  0
    4.8780  -17.2320  -10.9820 C   0  0  0  0  0  0  0  0  0  0  0  0
    3.8620  -16.7250  -10.5100 O   0  0  0  0  0  0  0  0  0  0  0  0
    5.9690  -16.4860  -11.4260 N   0  0  0  0  0  0  0  0  0  0  0  0
    5.9010  -14.8310  -11.5810 S   0  0  0  0  0  0  0  0  0  0  0  0
    4.8780  -14.5670  -12.5630 O   0  0  0  0  0  0  0  0  0  0  0  0
    7.2690  -14.4120  -11.7580 O   0  0  0  0  0  0  0  0  0  0  0  0
    5.3780  -14.3400  -10.1320 O   0  0  0  0  0  0  0  0  0  0  0  0
    6.0920  -13.2990   -9.4850 C   0  0  0  0  0  0  0  0  0  0  0  0
    6.6200  -13.8050   -8.1460 C   0  0  1  0  0  0  0  0  0  0  0  0
    6.5260  -15.2370   -8.0870 O   0  0  0  0  0  0  0  0  0  0  0  0
    7.6580  -15.7320   -7.3140 C   0  0  1  0  0  0  0  0  0  0  0  0
    8.4360  -16.6310   -8.1500 N   0  0  0  0  0  0  0  0  0  0  0  0
    8.8690  -16.4180   -9.4320 C   0  0  0  0  0  0  0  0  0  0  0  0
    9.5820  -17.4280   -9.8860 N   0  0  0  0  0  0  0  0  0  0  0  0
    9.5570  -18.3630   -8.8720 C   0  0  0  0  0  0  0  0  0  0  0  0
   10.1060  -19.6510   -8.7480 C   0  0  0  0  0  0  0  0  0  0  0  0
   10.8270  -20.2700   -9.7560 N   0  0  0  0  0  0  0  0  0  0  0  0
    9.9340  -20.3140   -7.5820 N   0  0  0  0  0  0  0  0  0  0  0  0
    9.2190  -19.7200   -6.6030 C   0  0  0  0  0  0  0  0  0  0  0  0
    8.6480  -18.4970   -6.6070 N   0  0  0  0  0  0  0  0  0  0  0  0
    8.8560  -17.8790   -7.7790 C   0  0  0  0  0  0  0  0  0  0  0  0
    8.4460  -14.5000   -6.8460 C   0  0  2  0  0  0  0  0  0  0  0  0
    7.9620  -14.0370   -5.5740 O   0  0  0  0  0  0  0  0  0  0  0  0
    8.0920  -13.4720   -7.9100 C   0  0  2  0  0  0  0  0  0  0  0  0
    8.3260  -12.1490   -7.4340 O   0  0  0  0  0  0  0  0  0  0  0  0
    5.1782  -21.1692  -11.8872 H   0  0  0  0  0  0  0  0  0  0  0  0
    4.2661  -21.0359  -13.4289 H   0  0  0  0  0  0  0  0  0  0  0  0
    6.0563  -20.8883  -13.4289 H   0  0  0  0  0  0  0  0  0  0  0  0
    5.9179  -18.6670  -13.0524 H   0  0  0  0  0  0  0  0  0  0  0  0
    3.0025  -18.3479  -12.7147 H   0  0  0  0  0  0  0  0  0  0  0  0
    4.0593  -17.8038  -14.0614 H   0  0  0  0  0  0  0  0  0  0  0  0
    3.3913  -19.4712  -14.0614 H   0  0  0  0  0  0  0  0  0  0  0  0
    4.0252  -19.2077  -10.7513 H   0  0  0  0  0  0  0  0  0  0  0  0
    6.6150  -18.5910   -9.8270 H   0  0  0  0  0  0  0  0  0  0  0  0
    5.9450  -20.1230   -9.9120 H   0  0  0  0  0  0  0  0  0  0  0  0
    6.8950  -19.5810  -11.1320 H   0  0  0  0  0  0  0  0  0  0  0  0
    6.8240  -16.8640  -11.8280 H   0  0  0  0  0  0  0  0  0  0  0  0
    6.9354  -12.9842  -10.1171 H   0  0  0  0  0  0  0  0  0  0  0  0
    5.4223  -12.4427   -9.3168 H   0  0  0  0  0  0  0  0  0  0  0  0
    6.0034  -13.3054   -7.3843 H   0  0  0  0  0  0  0  0  0  0  0  0
    7.3574  -16.3109   -6.4283 H   0  0  0  0  0  0  0  0  0  0  0  0
    8.6475  -15.5109  -10.0134 H   0  0  0  0  0  0  0  0  0  0  0  0
   10.7210  -21.2760   -9.7980 H   0  0  0  0  0  0  0  0  0  0  0  0
   10.8380  -19.7460  -10.6210 H   0  0  0  0  0  0  0  0  0  0  0  0
    9.0844  -20.3086   -5.6835 H   0  0  0  0  0  0  0  0  0  0  0  0
    9.5222  -14.6943   -6.7273 H   0  0  0  0  0  0  0  0  0  0  0  0
    8.7470  -14.0200   -4.9900 H   0  0  0  0  0  0  0  0  0  0  0  0
    8.6878  -13.5082   -8.8339 H   0  0  0  0  0  0  0  0  0  0  0  0
    8.3570  -12.1890   -6.4570 H   0  0  0  0  0  0  0  0  0  0  0  0
  1  2  1  0
  2  3  1  0
  2  4  1  0
  4  5  1  0
  4  6  1  0
  6  7  2  0
  6  8  1  0
  8  9  1  0
  9 10  2  0
  9 11  2  0
  9 12  1  0
 12 13  1  0
 13 14  1  0
 14 15  1  0
 15 16  1  0
 16 17  1  0
 17 18  1  0
 18 19  2  0
 19 20  1  0
 20 21  2  0
 21 22  1  0
 21 23  1  0
 23 24  2  0
 24 25  1  0
 25 26  2  0
 16 27  1  0
 27 28  1  0
 27 29  1  0
 29 30  1  0
 29 14  1  0
 26 17  1  0
 26 20  1  0
  1 31  1  0
  1 32  1  0
  1 33  1  0
  2 34  1  0
  3 35  1  0
  3 36  1  0
  3 37  1  0
  4 38  1  1
  5 39  1  0
  5 40  1  0
  5 41  1  0
  8 42  1  0
 13 43  1  0
 13 44  1  0
 14 45  1  1
 16 46  1  1
 18 47  1  0
 22 48  1  0
 22 49  1  0
 24 50  1  0
 27 51  1  1
 28 52  1  0
 29 53  1  6
 30 54  1  0
M  CHG  1   5   1
M  END
>  <meeko>  (5) 
{"is_sidechain": [false], "free_energy": -8.198, "intermolecular_energy": -12.382, "internal_energy": -1.175}

$$$$
3coz_ligand
     RDKit          3D

 54 56  0  0  0  0  0  0  0  0999 V2000
    5.2710  -10.5530   -8.2690 C   0  0  0  0  0  0  0  0  0  0  0  0
    6.5050  -11.3070   -8.7820 C   0  0  0  0  0  0  0  0  0  0  0  0
    7.3200  -10.3580   -9.6700 C   0  0  0  0  0  0  0  0  0  0  0  0
    7.3630  -11.8850   -7.6370 C   0  0  1  0  0  0  0  0  0  0  0  0
    6.7270  -11.5300   -6.3040 N   0  0  0  0  0  0  0  0  0  0  0  0
    7.4710  -13.4220   -7.7240 C   0  0  0  0  0  0  0  0  0  0  0  0
    6.7400  -14.0320   -8.5020 O   0  0  0  0  0  0  0  0  0  0  0  0
    8.3590  -14.0540   -6.8550 N   0  0  0  0  0  0  0  0  0  0  0  0
    8.3410  -15.7010   -6.6200 S   0  0  0  0  0  0  0  0  0  0  0  0
    7.1290  -15.9830   -5.8890 O   0  0  0  0  0  0  0  0  0  0  0  0
    9.6480  -16.0220   -6.1030 O   0  0  0  0  0  0  0  0  0  0  0  0
    8.2010  -16.2930   -8.1180 O   0  0  0  0  0  0  0  0  0  0  0  0
    9.3800  -16.4230   -8.8950 C   0  0  0  0  0  0  0  0  0  0  0  0
    9.4250  -17.8150   -9.5170 C   0  0  1  0  0  0  0  0  0  0  0  0
    8.1410  -18.4500   -9.4000 O   0  0  0  0  0  0  0  0  0  0  0  0
    7.9400  -19.2820  -10.5800 C   0  0  1  0  0  0  0  0  0  0  0  0
    6.7450  -18.8290  -11.2710 N   0  0  0  0  0  0  0  0  0  0  0  0
    6.1890  -17.5770  -11.2500 C   0  0  0  0  0  0  0  0  0  0  0  0
    5.1230  -17.4980  -12.0180 N   0  0  0  0  0  0  0  0  0  0  0  0
    4.9460  -18.7740  -12.5120 C   0  0  0  0  0  0  0  0  0  0  0  0
    3.9830  -19.3440  -13.3620 C   0  0  0  0  0  0  0  0  0  0  0  0
    2.9150  -18.6330  -13.8850 N   0  0  0  0  0  0  0  0  0  0  0  0
    4.1130  -20.6470  -13.6990 N   0  0  0  0  0  0  0  0  0  0  0  0
    5.1430  -21.3480  -13.1790 C   0  0  0  0  0  0  0  0  0  0  0  0
    6.1220  -20.9120  -12.3590 N   0  0  0  0  0  0  0  0  0  0  0  0
    5.9540  -19.6140  -12.0650 C   0  0  0  0  0  0  0  0  0  0  0  0
    9.2160  -19.1640  -11.4260 C   0  0  2  0  0  0  0  0  0  0  0  0
   10.1710  -20.1720  -11.0520 O   0  0  0  0  0  0  0  0  0  0  0  0
    9.7500  -17.8030  -11.0100 C   0  0  2  0  0  0  0  0  0  0  0  0
   11.1410  -17.6920  -11.3060 O   0  0  0  0  0  0  0  0  0  0  0  0
    5.2720  -10.5536   -7.1690 H   0  0  0  0  0  0  0  0  0  0  0  0
    5.2965   -9.5160   -8.6351 H   0  0  0  0  0  0  0  0  0  0  0  0
    4.3599  -11.0488   -8.6351 H   0  0  0  0  0  0  0  0  0  0  0  0
    6.1709  -12.1751   -9.3692 H   0  0  0  0  0  0  0  0  0  0  0  0
    7.9059   -9.6758   -9.0366 H   0  0  0  0  0  0  0  0  0  0  0  0
    8.0006  -10.9440  -10.3051 H   0  0  0  0  0  0  0  0  0  0  0  0
    6.6379   -9.7737  -10.3051 H   0  0  0  0  0  0  0  0  0  0  0  0
    8.3708  -11.4531   -7.7252 H   0  0  0  0  0  0  0  0  0  0  0  0
    6.9770  -12.1650   -5.5370 H   0  0  0  0  0  0  0  0  0  0  0  0
    6.9880  -10.5680   -6.0360 H   0  0  0  0  0  0  0  0  0  0  0  0
    5.6980  -11.5180   -6.3770 H   0  0  0  0  0  0  0  0  0  0  0  0
    8.9760  -13.5890   -6.1930 H   0  0  0  0  0  0  0  0  0  0  0  0
    9.3800  -15.6647   -9.6918 H   0  0  0  0  0  0  0  0  0  0  0  0
   10.2614  -16.2785   -8.2529 H   0  0  0  0  0  0  0  0  0  0  0  0
   10.2176  -18.3492   -8.9725 H   0  0  0  0  0  0  0  0  0  0  0  0
    7.7781  -20.3432  -10.3399 H   0  0  0  0  0  0  0  0  0  0  0  0
    6.5864  -16.7373  -10.6610 H   0  0  0  0  0  0  0  0  0  0  0  0
    2.4010  -19.1110  -14.6140 H   0  0  0  0  0  0  0  0  0  0  0  0
    2.3990  -18.1140  -13.1870 H   0  0  0  0  0  0  0  0  0  0  0  0
    5.1902  -22.4105  -13.4597 H   0  0  0  0  0  0  0  0  0  0  0  0
    9.0327  -19.2809  -12.5043 H   0  0  0  0  0  0  0  0  0  0  0  0
   10.7170  -20.3180  -11.8520 H   0  0  0  0  0  0  0  0  0  0  0  0
    9.3181  -16.9358  -11.5310 H   0  0  0  0  0  0  0  0  0  0  0  0
   11.2220  -17.2280  -12.1630 H   0  0  0  0  0  0  0  0  0  0  0  0
  1  2  1  0
  2  3  1  0
  2  4  1  0
  4  5  1  0
  4  6  1  0
  6  7  2  0
  6  8  1  0
  8  9  1  0
  9 10  2  0
  9 11  2  0
  9 12  1  0
 12 13  1  0
 13 14  1  0
 14 15  1  0
 15 16  1  0
 16 17  1  0
 17 18  1  0
 18 19  2  0
 19 20  1  0
 20 21  2  0
 21 22  1  0
 21 23  1  0
 23 24  2  0
 24 25  1  0
 25 26  2  0
 16 27  1  0
 27 28  1  0
 27 29  1  0
 29 30  1  0
 29 14  1  0
 26 17  1  0
 26 20  1  0
  1 31  1  0
  1 32  1  0
  1 33  1  0
  2 34  1  0
  3 35  1  0
  3 36  1  0
  3 37  1  0
  4 38  1  1
  5 39  1  0
  5 40  1  0
  5 41  1  0
  8 42  1  0
 13 43  1  0
 13 44  1  0
 14 45  1  1
 16 46  1  1
 18 47  1  0
 22 48  1  0
 22 49  1  0
 24 50  1  0
 27 51  1  6
 28 52  1  0
 29 53  1  6
 30 54  1  0
M  CHG  1   5   1
M  END
>  <meeko>  (6) 
{"is_sidechain": [false], "free_energy": -8.164, "intermolecular_energy": -12.799, "internal_energy": -0.706}

$$$$
3coz_ligand
     RDKit          3D

 54 56  0  0  0  0  0  0  0  0999 V2000
    5.8050  -12.1680   -8.8280 C   0  0  0  0  0  0  0  0  0  0  0  0
    7.0260  -13.0760   -8.6250 C   0  0  0  0  0  0  0  0  0  0  0  0
    7.8950  -13.0110   -9.8870 C   0  0  0  0  0  0  0  0  0  0  0  0
    7.8350  -12.7050   -7.3640 C   0  0  1  0  0  0  0  0  0  0  0  0
    7.0210  -11.7490   -6.5080 N   0  0  0  0  0  0  0  0  0  0  0  0
    8.1660  -13.9480   -6.5120 C   0  0  0  0  0  0  0  0  0  0  0  0
    8.0510  -13.8870   -5.2890 O   0  0  0  0  0  0  0  0  0  0  0  0
    8.6480  -15.0730   -7.1790 N   0  0  0  0  0  0  0  0  0  0  0  0
    9.3390  -16.3510   -6.3680 S   0  0  0  0  0  0  0  0  0  0  0  0
    8.2530  -17.2400   -6.0320 O   0  0  0  0  0  0  0  0  0  0  0  0
   10.1840  -15.7500   -5.3670 O   0  0  0  0  0  0  0  0  0  0  0  0
   10.2630  -17.0540   -7.4930 O   0  0  0  0  0  0  0  0  0  0  0  0
   10.2020  -18.4660   -7.6180 C   0  0  0  0  0  0  0  0  0  0  0  0
   10.0210  -18.8360   -9.0860 C   0  0  1  0  0  0  0  0  0  0  0  0
    8.6530  -19.1930   -9.3410 O   0  0  0  0  0  0  0  0  0  0  0  0
    8.3180  -18.7590  -10.6910 C   0  0  1  0  0  0  0  0  0  0  0  0
    7.2090  -17.8230  -10.6180 N   0  0  0  0  0  0  0  0  0  0  0  0
    7.0740  -16.7470   -9.7810 C   0  0  0  0  0  0  0  0  0  0  0  0
    5.9560  -16.0870  -10.0020 N   0  0  0  0  0  0  0  0  0  0  0  0
    5.3100  -16.8040  -10.9880 C   0  0  0  0  0  0  0  0  0  0  0  0
    4.0770  -16.6330  -11.6400 C   0  0  0  0  0  0  0  0  0  0  0  0
    3.1960  -15.6050  -11.3420 N   0  0  0  0  0  0  0  0  0  0  0  0
    3.7380  -17.5060  -12.6150 N   0  0  0  0  0  0  0  0  0  0  0  0
    4.5860  -18.5180  -12.8970 C   0  0  0  0  0  0  0  0  0  0  0  0
    5.7880  -18.7820  -12.3430 N   0  0  0  0  0  0  0  0  0  0  0  0
    6.0810  -17.8830  -11.3910 C   0  0  0  0  0  0  0  0  0  0  0  0
    9.5940  -18.1470  -11.2880 C   0  0  2  0  0  0  0  0  0  0  0  0
   10.3760  -19.1510  -11.9570 O   0  0  0  0  0  0  0  0  0  0  0  0
   10.3400  -17.6910  -10.0450 C   0  0  2  0  0  0  0  0  0  0  0  0
   11.7300  -17.5250  -10.3200 O   0  0  0  0  0  0  0  0  0  0  0  0
    5.4033  -11.8693   -7.8485 H   0  0  0  0  0  0  0  0  0  0  0  0
    6.1043  -11.2713   -9.3905 H   0  0  0  0  0  0  0  0  0  0  0  0
    5.0324  -12.7127   -9.3905 H   0  0  0  0  0  0  0  0  0  0  0  0
    6.6778  -14.1066   -8.4622 H   0  0  0  0  0  0  0  0  0  0  0  0
    8.9538  -12.9318   -9.5994 H   0  0  0  0  0  0  0  0  0  0  0  0
    7.7442  -13.9229  -10.4834 H   0  0  0  0  0  0  0  0  0  0  0  0
    7.6103  -12.1316  -10.4834 H   0  0  0  0  0  0  0  0  0  0  0  0
    8.7755  -12.2411   -7.6961 H   0  0  0  0  0  0  0  0  0  0  0  0
    6.3370  -12.2110   -5.8980 H   0  0  0  0  0  0  0  0  0  0  0  0
    7.6520  -11.1760   -5.9250 H   0  0  0  0  0  0  0  0  0  0  0  0
    6.5100  -11.0710   -7.0950 H   0  0  0  0  0  0  0  0  0  0  0  0
    8.7650  -15.1630   -8.1860 H   0  0  0  0  0  0  0  0  0  0  0  0
   11.1354  -18.9087   -7.2401 H   0  0  0  0  0  0  0  0  0  0  0  0
    9.3527  -18.8507   -7.0342 H   0  0  0  0  0  0  0  0  0  0  0  0
   10.7193  -19.6676   -9.2619 H   0  0  0  0  0  0  0  0  0  0  0  0
    7.9890  -19.5828  -11.3415 H   0  0  0  0  0  0  0  0  0  0  0  0
    7.8121  -16.4673   -9.0149 H   0  0  0  0  0  0  0  0  0  0  0  0
    3.5850  -14.6740  -11.4280 H   0  0  0  0  0  0  0  0  0  0  0  0
    2.2570  -15.7730  -11.6770 H   0  0  0  0  0  0  0  0  0  0  0  0
    4.2546  -19.2173  -13.6788 H   0  0  0  0  0  0  0  0  0  0  0  0
    9.3913  -17.3555  -12.0245 H   0  0  0  0  0  0  0  0  0  0  0  0
    9.9520  -20.0030  -11.7280 H   0  0  0  0  0  0  0  0  0  0  0  0
   10.0511  -16.7090   -9.6423 H   0  0  0  0  0  0  0  0  0  0  0  0
   12.2100  -18.2240   -9.8320 H   0  0  0  0  0  0  0  0  0  0  0  0
  1  2  1  0
  2  3  1  0
  2  4  1  0
  4  5  1  0
  4  6  1  0
  6  7  2  0
  6  8  1  0
  8  9  1  0
  9 10  2  0
  9 11  2  0
  9 12  1  0
 12 13  1  0
 13 14  1  0
 14 15  1  0
 15 16  1  0
 16 17  1  0
 17 18  1  0
 18 19  2  0
 19 20  1  0
 20 21  2  0
 21 22  1  0
 21 23  1  0
 23 24  2  0
 24 25  1  0
 25 26  2  0
 16 27  1  0
 27 28  1  0
 27 29  1  0
 29 30  1  0
 29 14  1  0
 26 17  1  0
 26 20  1  0
  1 31  1  0
  1 32  1  0
  1 33  1  0
  2 34  1  0
  3 35  1  0
  3 36  1  0
  3 37  1  0
  4 38  1  6
  5 39  1  0
  5 40  1  0
  5 41  1  0
  8 42  1  0
 13 43  1  0
 13 44  1  0
 14 45  1  6
 16 46  1  6
 18 47  1  0
 22 48  1  0
 22 49  1  0
 24 50  1  0
 27 51  1  6
 28 52  1  0
 29 53  1  1
 30 54  1  0
M  CHG  1   5   1
M  END
>  <meeko>  (7) 
{"is_sidechain": [false], "free_energy": -8.083, "intermolecular_energy": -12.202, "internal_energy": -1.18}

$$$$
3coz_ligand
     RDKit          3D

 54 56  0  0  0  0  0  0  0  0999 V2000
   10.0310  -21.2980   -6.4190 C   0  0  0  0  0  0  0  0  0  0  0  0
    9.4890  -19.8700   -6.2720 C   0  0  0  0  0  0  0  0  0  0  0  0
    9.5440  -19.4800   -4.7900 C   0  0  0  0  0  0  0  0  0  0  0  0
   10.2490  -18.8540   -7.1510 C   0  0  1  0  0  0  0  0  0  0  0  0
   11.4800  -19.5220   -7.7390 N   0  0  0  0  0  0  0  0  0  0  0  0
    9.3770  -18.3430   -8.3170 C   0  0  0  0  0  0  0  0  0  0  0  0
    8.2600  -18.8260   -8.4880 O   0  0  0  0  0  0  0  0  0  0  0  0
    9.9370  -17.3910   -9.1670 N   0  0  0  0  0  0  0  0  0  0  0  0
    9.2430  -16.9960  -10.6270 S   0  0  0  0  0  0  0  0  0  0  0  0
    8.8760  -18.2490  -11.2430 O   0  0  0  0  0  0  0  0  0  0  0  0
   10.1600  -16.0710  -11.2430 O   0  0  0  0  0  0  0  0  0  0  0  0
    7.8970  -16.2070  -10.2020 O   0  0  0  0  0  0  0  0  0  0  0  0
    7.2700  -15.3890  -11.1760 C   0  0  0  0  0  0  0  0  0  0  0  0
    5.7610  -15.6050  -11.1220 C   0  0  1  0  0  0  0  0  0  0  0  0
    5.3170  -16.2860  -12.3070 O   0  0  0  0  0  0  0  0  0  0  0  0
    4.2070  -17.1550  -11.9390 C   0  0  1  0  0  0  0  0  0  0  0  0
    4.5600  -18.5260  -12.2670 N   0  0  0  0  0  0  0  0  0  0  0  0
    5.7020  -19.2020  -11.9260 C   0  0  0  0  0  0  0  0  0  0  0  0
    5.6870  -20.4460  -12.3570 N   0  0  0  0  0  0  0  0  0  0  0  0
    4.5060  -20.5620  -13.0620 C   0  0  0  0  0  0  0  0  0  0  0  0
    3.9210  -21.6220  -13.7760 C   0  0  0  0  0  0  0  0  0  0  0  0
    4.5210  -22.8620  -13.9220 N   0  0  0  0  0  0  0  0  0  0  0  0
    2.7060  -21.4260  -14.3360 N   0  0  0  0  0  0  0  0  0  0  0  0
    2.1250  -20.2140  -14.2090 C   0  0  0  0  0  0  0  0  0  0  0  0
    2.5870  -19.1290  -13.5530 N   0  0  0  0  0  0  0  0  0  0  0  0
    3.7870  -19.3780  -13.0080 C   0  0  0  0  0  0  0  0  0  0  0  0
    3.9510  -16.9340  -10.4410 C   0  0  2  0  0  0  0  0  0  0  0  0
    3.0020  -15.8730  -10.2370 O   0  0  0  0  0  0  0  0  0  0  0  0
    5.3140  -16.4750   -9.9480 C   0  0  2  0  0  0  0  0  0  0  0  0
    5.1970  -15.7750   -8.7110 O   0  0  0  0  0  0  0  0  0  0  0  0
   10.1958  -21.7321   -5.4218 H   0  0  0  0  0  0  0  0  0  0  0  0
    9.3032  -21.9115   -6.9703 H   0  0  0  0  0  0  0  0  0  0  0  0
   10.9826  -21.2741   -6.9703 H   0  0  0  0  0  0  0  0  0  0  0  0
    8.4483  -19.8487   -6.6276 H   0  0  0  0  0  0  0  0  0  0  0  0
    9.4172  -20.3792   -4.1693 H   0  0  0  0  0  0  0  0  0  0  0  0
   10.5165  -19.0159   -4.5688 H   0  0  0  0  0  0  0  0  0  0  0  0
    8.7378  -18.7651   -4.5688 H   0  0  0  0  0  0  0  0  0  0  0  0
   10.5239  -18.0009   -6.5133 H   0  0  0  0  0  0  0  0  0  0  0  0
   11.7860  -19.1250   -8.6350 H   0  0  0  0  0  0  0  0  0  0  0  0
   12.2640  -19.4670   -7.0680 H   0  0  0  0  0  0  0  0  0  0  0  0
   11.3210  -20.5310   -7.8820 H   0  0  0  0  0  0  0  0  0  0  0  0
   10.8580  -16.9710   -9.0660 H   0  0  0  0  0  0  0  0  0  0  0  0
    7.4973  -14.3327  -10.9698 H   0  0  0  0  0  0  0  0  0  0  0  0
    7.6441  -15.6548  -12.1757 H   0  0  0  0  0  0  0  0  0  0  0  0
    5.3283  -14.5989  -11.0197 H   0  0  0  0  0  0  0  0  0  0  0  0
    3.2808  -16.9306  -12.4884 H   0  0  0  0  0  0  0  0  0  0  0  0
    6.5333  -18.7577  -11.3590 H   0  0  0  0  0  0  0  0  0  0  0  0
    5.2930  -22.8870  -14.5760 H   0  0  0  0  0  0  0  0  0  0  0  0
    4.6030  -23.3720  -13.0530 H   0  0  0  0  0  0  0  0  0  0  0  0
    1.1497  -20.0957  -14.7038 H   0  0  0  0  0  0  0  0  0  0  0  0
    3.5501  -17.8245   -9.9347 H   0  0  0  0  0  0  0  0  0  0  0  0
    2.1590  -16.3200  -10.0190 H   0  0  0  0  0  0  0  0  0  0  0  0
    6.0347  -17.2716   -9.7114 H   0  0  0  0  0  0  0  0  0  0  0  0
    5.4220  -16.4030   -7.9960 H   0  0  0  0  0  0  0  0  0  0  0  0
  1  2  1  0
  2  3  1  0
  2  4  1  0
  4  5  1  0
  4  6  1  0
  6  7  2  0
  6  8  1  0
  8  9  1  0
  9 10  2  0
  9 11  2  0
  9 12  1  0
 12 13  1  0
 13 14  1  0
 14 15  1  0
 15 16  1  0
 16 17  1  0
 17 18  1  0
 18 19  2  0
 19 20  1  0
 20 21  2  0
 21 22  1  0
 21 23  1  0
 23 24  2  0
 24 25  1  0
 25 26  2  0
 16 27  1  0
 27 28  1  0
 27 29  1  0
 29 30  1  0
 29 14  1  0
 26 17  1  0
 26 20  1  0
  1 31  1  0
  1 32  1  0
  1 33  1  0
  2 34  1  0
  3 35  1  0
  3 36  1  0
  3 37  1  0
  4 38  1  1
  5 39  1  0
  5 40  1  0
  5 41  1  0
  8 42  1  0
 13 43  1  0
 13 44  1  0
 14 45  1  1
 16 46  1  6
 18 47  1  0
 22 48  1  0
 22 49  1  0
 24 50  1  0
 27 51  1  1
 28 52  1  0
 29 53  1  1
 30 54  1  0
M  CHG  1   5   1
M  END
>  <meeko>  (8) 
{"is_sidechain": [false], "free_energy": -8.064, "intermolecular_energy": -12.469, "internal_energy": -0.884}

$$$$
3coz_ligand
     RDKit          3D

 54 56  0  0  0  0  0  0  0  0999 V2000
    5.6400  -11.0520   -7.5960 C   0  0  0  0  0  0  0  0  0  0  0  0
    6.0460  -11.3620   -9.0430 C   0  0  0  0  0  0  0  0  0  0  0  0
    7.0900  -10.3290   -9.4870 C   0  0  0  0  0  0  0  0  0  0  0  0
    6.5720  -12.8030   -9.2130 C   0  0  1  0  0  0  0  0  0  0  0  0
    6.7740  -13.4300   -7.8440 N   0  0  0  0  0  0  0  0  0  0  0  0
    5.5790  -13.6830  -10.0020 C   0  0  0  0  0  0  0  0  0  0  0  0
    4.4900  -13.2150  -10.3280 O   0  0  0  0  0  0  0  0  0  0  0  0
    5.9490  -15.0040  -10.2510 N   0  0  0  0  0  0  0  0  0  0  0  0
    4.8600  -16.1360  -10.7980 S   0  0  0  0  0  0  0  0  0  0  0  0
    4.8300  -15.9950  -12.2340 O   0  0  0  0  0  0  0  0  0  0  0  0
    3.6870  -15.9580   -9.9790 O   0  0  0  0  0  0  0  0  0  0  0  0
    5.5620  -17.5440  -10.4230 O   0  0  0  0  0  0  0  0  0  0  0  0
    5.8810  -18.4310  -11.4830 C   0  0  0  0  0  0  0  0  0  0  0  0
    7.3970  -18.5130  -11.6340 C   0  0  1  0  0  0  0  0  0  0  0  0
    8.0120  -17.3280  -11.1010 O   0  0  0  0  0  0  0  0  0  0  0  0
    9.2910  -17.7090  -10.5170 C   0  0  1  0  0  0  0  0  0  0  0  0
    9.2840  -17.3540   -9.1080 N   0  0  0  0  0  0  0  0  0  0  0  0
    8.2170  -16.9390   -8.3540 C   0  0  0  0  0  0  0  0  0  0  0  0
    8.5520  -16.7330   -7.0970 N   0  0  0  0  0  0  0  0  0  0  0  0
    9.9110  -16.9680   -7.0490 C   0  0  0  0  0  0  0  0  0  0  0  0
   10.8550  -16.8970   -6.0110 C   0  0  0  0  0  0  0  0  0  0  0  0
   10.5370  -16.5110   -4.7190 N   0  0  0  0  0  0  0  0  0  0  0  0
   12.1360  -17.2370   -6.2820 N   0  0  0  0  0  0  0  0  0  0  0  0
   12.4530  -17.5990   -7.5430 C   0  0  0  0  0  0  0  0  0  0  0  0
   11.6390  -17.7030   -8.6140 N   0  0  0  0  0  0  0  0  0  0  0  0
   10.3810  -17.3660   -8.2900 C   0  0  0  0  0  0  0  0  0  0  0  0
    9.4620  -19.2140  -10.7660 C   0  0  2  0  0  0  0  0  0  0  0  0
   10.1240  -19.4520  -12.0200 O   0  0  0  0  0  0  0  0  0  0  0  0
    8.0200  -19.6840  -10.8760 C   0  0  2  0  0  0  0  0  0  0  0  0
    7.9440  -20.9330  -11.5610 O   0  0  0  0  0  0  0  0  0  0  0  0
    6.3203  -11.5714   -6.9050 H   0  0  0  0  0  0  0  0  0  0  0  0
    5.6994   -9.9673   -7.4229 H   0  0  0  0  0  0  0  0  0  0  0  0
    4.6093  -11.3950   -7.4229 H   0  0  0  0  0  0  0  0  0  0  0  0
    5.1543  -11.2932   -9.6834 H   0  0  0  0  0  0  0  0  0  0  0  0
    7.5528   -9.8711   -8.6004 H   0  0  0  0  0  0  0  0  0  0  0  0
    7.8645  -10.8261  -10.0895 H   0  0  0  0  0  0  0  0  0  0  0  0
    6.6011   -9.5492  -10.0895 H   0  0  0  0  0  0  0  0  0  0  0  0
    7.5192  -12.7483   -9.7696 H   0  0  0  0  0  0  0  0  0  0  0  0
    7.4640  -12.9440   -7.2590 H   0  0  0  0  0  0  0  0  0  0  0  0
    5.8740  -13.4640   -7.3380 H   0  0  0  0  0  0  0  0  0  0  0  0
    7.0710  -14.4140   -7.9280 H   0  0  0  0  0  0  0  0  0  0  0  0
    6.8350  -15.4320   -9.9930 H   0  0  0  0  0  0  0  0  0  0  0  0
    5.4796  -19.4304  -11.2591 H   0  0  0  0  0  0  0  0  0  0  0  0
    5.4373  -18.0608  -12.4190 H   0  0  0  0  0  0  0  0  0  0  0  0
    7.5735  -18.6376  -12.7126 H   0  0  0  0  0  0  0  0  0  0  0  0
   10.1457  -17.1832  -10.9675 H   0  0  0  0  0  0  0  0  0  0  0  0
    7.2015  -16.7951   -8.7516 H   0  0  0  0  0  0  0  0  0  0  0  0
   10.3920  -15.5160   -4.5960 H   0  0  0  0  0  0  0  0  0  0  0  0
    9.9140  -17.1550   -4.2500 H   0  0  0  0  0  0  0  0  0  0  0  0
   13.5114  -17.8404   -7.7204 H   0  0  0  0  0  0  0  0  0  0  0  0
   10.0571  -19.7163   -9.9892 H   0  0  0  0  0  0  0  0  0  0  0  0
   10.1930  -18.5720  -12.4460 H   0  0  0  0  0  0  0  0  0  0  0  0
    7.5078  -19.8943   -9.9255 H   0  0  0  0  0  0  0  0  0  0  0  0
    8.6530  -21.5060  -11.2050 H   0  0  0  0  0  0  0  0  0  0  0  0
  1  2  1  0
  2  3  1  0
  2  4  1  0
  4  5  1  0
  4  6  1  0
  6  7  2  0
  6  8  1  0
  8  9  1  0
  9 10  2  0
  9 11  2  0
  9 12  1  0
 12 13  1  0
 13 14  1  0
 14 15  1  0
 15 16  1  0
 16 17  1  0
 17 18  1  0
 18 19  2  0
 19 20  1  0
 20 21  2  0
 21 22  1  0
 21 23  1  0
 23 24  2  0
 24 25  1  0
 25 26  2  0
 16 27  1  0
 27 28  1  0
 27 29  1  0
 29 30  1  0
 29 14  1  0
 26 17  1  0
 26 20  1  0
  1 31  1  0
  1 32  1  0
  1 33  1  0
  2 34  1  0
  3 35  1  0
  3 36  1  0
  3 37  1  0
  4 38  1  6
  5 39  1  0
  5 40  1  0
  5 41  1  0
  8 42  1  0
 13 43  1  0
 13 44  1  0
 14 45  1  6
 16 46  1  6
 18 47  1  0
 22 48  1  0
 22 49  1  0
 24 50  1  0
 27 51  1  1
 28 52  1  0
 29 53  1  1
 30 54  1  0
M  CHG  1   5   1
M  END
>  <meeko>  (9) 
{"is_sidechain": [false], "free_energy": -7.93, "intermolecular_energy": -11.912, "internal_energy": -1.235}

$$$$
