
     RDKit          3D

 36 39  0  0  0  0  0  0  0  0999 V2000
   -9.2020   -1.2140   -6.2220 N   0  0  0  0  0  0  0  0  0  0  0  0
   -9.5580   -2.3810   -6.6810 C   0  0  0  0  0  0  0  0  0  0  0  0
  -10.4760   -2.4580   -7.6530 N   0  0  0  0  0  0  0  0  0  0  0  0
   -8.8990   -3.6100   -6.1810 C   0  0  0  0  0  0  0  0  0  0  0  0
   -7.8970   -3.5340   -5.1980 C   0  0  0  0  0  0  0  0  0  0  0  0
   -7.2300   -4.6860   -4.7620 C   0  0  0  0  0  0  0  0  0  0  0  0
   -7.5660   -5.9140   -5.3140 C   0  0  0  0  0  0  0  0  0  0  0  0
   -8.5710   -6.0150   -6.2600 C   0  0  0  0  0  0  0  0  0  0  0  0
   -8.9240   -7.3320   -6.8660 C   0  0  0  0  0  0  0  0  0  0  0  0
  -10.0400   -8.0720   -6.0970 C   0  0  2  0  0  0  0  0  0  0  0  0
  -11.3560   -7.6940   -6.6730 N   0  0  0  0  0  0  0  0  0  0  0  0
  -12.4710   -8.9230   -6.8280 S   0  0  2  0  0  0  0  0  0  0  0  0
  -11.8640   -9.9660   -7.6460 O   0  0  0  0  0  0  0  0  0  0  0  0
  -13.7030   -8.3370   -7.3000 O   0  0  0  0  0  0  0  0  0  0  0  0
  -12.7170   -9.4890   -5.2040 C   0  0  0  0  0  0  0  0  0  0  0  0
  -12.4130  -10.8070   -4.9060 C   0  0  0  0  0  0  0  0  0  0  0  0
  -12.6210  -11.2910   -3.6230 C   0  0  0  0  0  0  0  0  0  0  0  0
  -13.1160  -10.4350   -2.6230 C   0  0  0  0  0  0  0  0  0  0  0  0
  -13.3340  -10.9010   -1.3110 C   0  0  0  0  0  0  0  0  0  0  0  0
  -13.8090  -10.0390   -0.3420 C   0  0  0  0  0  0  0  0  0  0  0  0
  -14.0930   -8.6960   -0.6380 C   0  0  0  0  0  0  0  0  0  0  0  0
  -13.8950   -8.2110   -1.9380 C   0  0  0  0  0  0  0  0  0  0  0  0
  -13.4140   -9.0830   -2.9310 C   0  0  0  0  0  0  0  0  0  0  0  0
  -13.2190   -8.6120   -4.2480 C   0  0  0  0  0  0  0  0  0  0  0  0
  -10.0330   -7.7410   -4.6160 C   0  0  0  0  0  0  0  0  0  0  0  0
  -10.6760   -6.8020   -4.2330 O   0  0  0  0  0  0  0  0  0  0  0  0
   -9.2880   -8.4780   -3.7150 N   0  0  0  0  0  0  0  0  0  0  0  0
   -9.2110   -8.0550   -2.3020 C   0  0  0  0  0  0  0  0  0  0  0  0
   -9.7110   -9.1410   -1.3760 C   0  0  0  0  0  0  0  0  0  0  0  0
   -8.9600  -10.4290   -1.6290 C   0  0  0  0  0  0  0  0  0  0  0  0
   -9.0950  -10.8550   -3.0770 C   0  0  0  0  0  0  0  0  0  0  0  0
   -8.6350   -9.7590   -4.0650 C   0  0  2  0  0  0  0  0  0  0  0  0
   -7.0980   -9.6160   -4.0510 C   0  0  0  0  0  0  0  0  0  0  0  0
   -6.5580   -8.8080   -3.3260 O   0  0  0  0  0  0  0  0  0  0  0  0
   -6.4780  -10.3590   -4.8490 O   0  0  0  0  0  0  0  0  0  0  0  0
   -9.2530   -4.8520   -6.7010 C   0  0  0  0  0  0  0  0  0  0  0  0
  2  1  2  0
  3  2  1  0
  4  2  1  0
  5  4  2  0
  6  5  1  0
  7  6  2  0
  8  7  1  0
  9  8  1  0
 10  9  1  6
 11 10  1  0
 12 11  1  1
 13 12  2  0
 14 12  2  0
 15 12  1  0
 16 15  2  0
 17 16  1  0
 18 17  2  0
 19 18  1  0
 20 19  2  0
 21 20  1  0
 22 21  2  0
 23 22  1  0
 23 18  1  0
 24 23  2  0
 24 15  1  0
 25 10  1  0
 26 25  2  0
 27 25  1  0
 28 27  1  0
 29 28  1  0
 30 29  1  0
 31 30  1  0
 32 31  1  0
 32 27  1  0
 32 33  1  1
 34 33  1  0
 35 33  2  0
 36  8  2  0
 36  4  1  0
M  CHG  2   1   1  34  -1
M  END
$$$$
