3e93_ligand
     RDKit          3D

 70 75  0  0  0  0  0  0  0  0999 V2000
   -6.2540    3.5020    8.2870 C   0  0  0  0  0  0  0  0  0  0  0  0
   -4.7700    3.6230    8.5220 C   0  0  0  0  0  0  0  0  0  0  0  0
   -4.0650    4.6500    7.8710 C   0  0  0  0  0  0  0  0  0  0  0  0
   -2.6900    4.8100    8.0590 C   0  0  0  0  0  0  0  0  0  0  0  0
   -1.9970    3.9310    8.8950 C   0  0  0  0  0  0  0  0  0  0  0  0
   -0.5340    4.0640    9.1460 C   0  0  0  0  0  0  0  0  0  0  0  0
    0.0900    4.8750    8.4710 O   0  0  0  0  0  0  0  0  0  0  0  0
   -0.0420    3.2700   10.1650 N   0  0  0  0  0  0  0  0  0  0  0  0
    1.3000    3.1510   10.5890 C   0  0  0  0  0  0  0  0  0  0  0  0
    1.6550    3.8110   11.7650 C   0  0  0  0  0  0  0  0  0  0  0  0
    2.9600    3.7320   12.2430 C   0  0  0  0  0  0  0  0  0  0  0  0
    3.9160    2.9870   11.5480 C   0  0  0  0  0  0  0  0  0  0  0  0
    3.6030    2.3010   10.3650 C   0  0  0  0  0  0  0  0  0  0  0  0
    4.5540    1.5650    9.6790 N   0  0  0  0  0  0  0  0  0  0  0  0
    5.5540    0.7360   10.3710 C   0  0  0  0  0  0  0  0  0  0  0  0
    5.9640   -0.4530    9.4830 C   0  0  0  0  0  0  0  0  0  0  0  0
    6.5170   -0.0740    8.2140 O   0  0  0  0  0  0  0  0  0  0  0  0
    6.0050    1.1730    7.7240 C   0  0  0  0  0  0  0  0  0  0  0  0
    4.5840    1.5050    8.2080 C   0  0  0  0  0  0  0  0  0  0  0  0
    2.2730    2.4030    9.9100 C   0  0  0  0  0  0  0  0  0  0  0  0
   -2.6930    2.9080    9.5510 C   0  0  0  0  0  0  0  0  0  0  0  0
   -4.0770    2.7330    9.3740 C   0  0  0  0  0  0  0  0  0  0  0  0
   -4.7470    1.6370   10.0920 C   0  0  0  0  0  0  0  0  0  0  0  0
   -5.6000    1.9230   11.1750 C   0  0  0  0  0  0  0  0  0  0  0  0
   -6.2420    0.9090   11.9070 C   0  0  0  0  0  0  0  0  0  0  0  0
   -6.0120   -0.4240   11.5350 C   0  0  0  0  0  0  0  0  0  0  0  0
   -6.4110   -1.7150   11.9660 C   0  0  0  0  0  0  0  0  0  0  0  0
   -7.3100   -2.0900   13.1040 C   0  0  0  0  0  0  0  0  0  0  0  0
   -6.5640   -2.0030   14.4490 C   0  0  0  0  0  0  0  0  0  0  0  0
   -7.4370   -2.4510   15.6080 C   0  0  0  0  0  0  0  0  0  0  0  0
   -7.9590   -3.8190   15.3300 N   0  0  0  0  0  0  0  0  0  0  0  0
   -8.7710   -3.9110   14.0830 C   0  0  0  0  0  0  0  0  0  0  0  0
   -7.9210   -3.4880   12.8990 C   0  0  0  0  0  0  0  0  0  0  0  0
   -5.8610   -2.6780   11.2130 N   0  0  0  0  0  0  0  0  0  0  0  0
   -5.0820   -2.0230   10.2730 O   0  0  0  0  0  0  0  0  0  0  0  0
   -5.1710   -0.6800   10.4660 C   0  0  0  0  0  0  0  0  0  0  0  0
   -4.5200    0.3010    9.7200 C   0  0  0  0  0  0  0  0  0  0  0  0
   -6.7761    3.4594    9.2542 H   0  0  0  0  0  0  0  0  0  0  0  0
   -6.6074    4.3743    7.7176 H   0  0  0  0  0  0  0  0  0  0  0  0
   -6.4614    2.5840    7.7176 H   0  0  0  0  0  0  0  0  0  0  0  0
   -4.6041    5.3382    7.2034 H   0  0  0  0  0  0  0  0  0  0  0  0
   -2.1547    5.6254    7.5505 H   0  0  0  0  0  0  0  0  0  0  0  0
   -0.7180    2.7680   10.7250 H   0  0  0  0  0  0  0  0  0  0  0  0
    0.9028    4.3949   12.3157 H   0  0  0  0  0  0  0  0  0  0  0  0
    3.2388    4.2566   13.1688 H   0  0  0  0  0  0  0  0  0  0  0  0
    4.9428    2.9369   11.9393 H   0  0  0  0  0  0  0  0  0  0  0  0
    6.4415    1.3467   10.5933 H   0  0  0  0  0  0  0  0  0  0  0  0
    5.1185    0.3530   11.3057 H   0  0  0  0  0  0  0  0  0  0  0  0
    6.7163   -1.0452   10.0246 H   0  0  0  0  0  0  0  0  0  0  0  0
    5.0466   -1.0220    9.2717 H   0  0  0  0  0  0  0  0  0  0  0  0
    6.6789    1.9767    8.0556 H   0  0  0  0  0  0  0  0  0  0  0  0
    5.9532    1.0848    6.6288 H   0  0  0  0  0  0  0  0  0  0  0  0
    4.2775    2.4784    7.7974 H   0  0  0  0  0  0  0  0  0  0  0  0
    3.8932    0.7209    7.8645 H   0  0  0  0  0  0  0  0  0  0  0  0
    1.9873    1.8761    8.9876 H   0  0  0  0  0  0  0  0  0  0  0  0
   -2.1454    2.2269   10.2189 H   0  0  0  0  0  0  0  0  0  0  0  0
   -5.7694    2.9726   11.4571 H   0  0  0  0  0  0  0  0  0  0  0  0
   -6.9066    1.1541   12.7486 H   0  0  0  0  0  0  0  0  0  0  0  0
   -8.1378   -1.3660   13.1278 H   0  0  0  0  0  0  0  0  0  0  0  0
   -5.6733   -2.6469   14.4045 H   0  0  0  0  0  0  0  0  0  0  0  0
   -6.2844   -0.9526   14.6176 H   0  0  0  0  0  0  0  0  0  0  0  0
   -6.8414   -2.4657   16.5327 H   0  0  0  0  0  0  0  0  0  0  0  0
   -8.2782   -1.7524   15.7278 H   0  0  0  0  0  0  0  0  0  0  0  0
   -7.1710   -4.4840   15.2780 H   0  0  0  0  0  0  0  0  0  0  0  0
   -8.5270   -4.1340   16.1290 H   0  0  0  0  0  0  0  0  0  0  0  0
   -9.1096   -4.9479   13.9406 H   0  0  0  0  0  0  0  0  0  0  0  0
   -9.6463   -3.2496   14.1634 H   0  0  0  0  0  0  0  0  0  0  0  0
   -7.1073   -4.2163   12.7667 H   0  0  0  0  0  0  0  0  0  0  0  0
   -8.5675   -3.4514   12.0098 H   0  0  0  0  0  0  0  0  0  0  0  0
   -3.8595    0.0416    8.8795 H   0  0  0  0  0  0  0  0  0  0  0  0
  1  2  1  0
  2  3  2  0
  3  4  1  0
  4  5  2  0
  5  6  1  0
  6  7  2  0
  6  8  1  0
  8  9  1  0
  9 10  2  0
 10 11  1  0
 11 12  2  0
 12 13  1  0
 13 14  1  0
 14 15  1  0
 15 16  1  0
 16 17  1  0
 17 18  1  0
 18 19  1  0
 13 20  2  0
  5 21  1  0
 21 22  2  0
 22 23  1  0
 23 24  2  0
 24 25  1  0
 25 26  2  0
 26 27  1  0
 27 28  1  0
 28 29  1  0
 29 30  1  0
 30 31  1  0
 31 32  1  0
 32 33  1  0
 27 34  2  0
 34 35  1  0
 35 36  1  0
 36 37  2  0
 22  2  1  0
 37 23  1  0
 20  9  1  0
 36 26  1  0
 19 14  1  0
 33 28  1  0
  1 38  1  0
  1 39  1  0
  1 40  1  0
  3 41  1  0
  4 42  1  0
  8 43  1  0
 10 44  1  0
 11 45  1  0
 12 46  1  0
 15 47  1  0
 15 48  1  0
 16 49  1  0
 16 50  1  0
 18 51  1  0
 18 52  1  0
 19 53  1  0
 19 54  1  0
 20 55  1  0
 21 56  1  0
 24 57  1  0
 25 58  1  0
 28 59  1  0
 29 60  1  0
 29 61  1  0
 30 62  1  0
 30 63  1  0
 31 64  1  0
 31 65  1  0
 32 66  1  0
 32 67  1  0
 33 68  1  0
 33 69  1  0
 37 70  1  0
M  CHG  1  31   1
M  END
>  <meeko>  (1) 
{"is_sidechain": [false], "free_energy": -8.795, "intermolecular_energy": -11.365, "internal_energy": -1.247}

$$$$
3e93_ligand
     RDKit          3D

 70 75  0  0  0  0  0  0  0  0999 V2000
   -5.6430    4.5720   10.7650 C   0  0  0  0  0  0  0  0  0  0  0  0
   -4.1700    4.4040   10.4940 C   0  0  0  0  0  0  0  0  0  0  0  0
   -3.3920    5.5500   10.2540 C   0  0  0  0  0  0  0  0  0  0  0  0
   -2.0220    5.4500   10.0040 C   0  0  0  0  0  0  0  0  0  0  0  0
   -1.4120    4.1930    9.9750 C   0  0  0  0  0  0  0  0  0  0  0  0
    0.0490    4.0270    9.7300 C   0  0  0  0  0  0  0  0  0  0  0  0
    0.5170    4.5200    8.7100 O   0  0  0  0  0  0  0  0  0  0  0  0
    0.7350    3.3560   10.7250 N   0  0  0  0  0  0  0  0  0  0  0  0
    2.1050    3.0120   10.7410 C   0  0  0  0  0  0  0  0  0  0  0  0
    2.8720    3.5080   11.7960 C   0  0  0  0  0  0  0  0  0  0  0  0
    4.2280    3.2050   11.8770 C   0  0  0  0  0  0  0  0  0  0  0  0
    4.8220    2.3980   10.9030 C   0  0  0  0  0  0  0  0  0  0  0  0
    4.0890    1.8700    9.8290 C   0  0  0  0  0  0  0  0  0  0  0  0
    4.6850    1.0720    8.8670 N   0  0  0  0  0  0  0  0  0  0  0  0
    5.4100    1.6350    7.7170 C   0  0  0  0  0  0  0  0  0  0  0  0
    6.5120    0.6640    7.2570 C   0  0  0  0  0  0  0  0  0  0  0  0
    6.0290   -0.6320    6.8740 O   0  0  0  0  0  0  0  0  0  0  0  0
    4.8380   -1.0210    7.5710 C   0  0  0  0  0  0  0  0  0  0  0  0
    4.6930   -0.3980    8.9690 C   0  0  0  0  0  0  0  0  0  0  0  0
    2.7200    2.1990    9.7790 C   0  0  0  0  0  0  0  0  0  0  0  0
   -2.1790    3.0470   10.2170 C   0  0  0  0  0  0  0  0  0  0  0  0
   -3.5600    3.1290   10.4710 C   0  0  0  0  0  0  0  0  0  0  0  0
   -4.3080    1.8850   10.7160 C   0  0  0  0  0  0  0  0  0  0  0  0
   -4.0940    1.1570   11.9020 C   0  0  0  0  0  0  0  0  0  0  0  0
   -4.7660   -0.0480   12.1680 C   0  0  0  0  0  0  0  0  0  0  0  0
   -5.6710   -0.5280   11.2100 C   0  0  0  0  0  0  0  0  0  0  0  0
   -6.5270   -1.6480   11.0460 C   0  0  0  0  0  0  0  0  0  0  0  0
   -6.7390   -2.8110   11.9650 C   0  0  0  0  0  0  0  0  0  0  0  0
   -7.6420   -2.4220   13.1510 C   0  0  0  0  0  0  0  0  0  0  0  0
   -7.8080   -3.5660   14.1340 C   0  0  0  0  0  0  0  0  0  0  0  0
   -6.4630   -4.0380   14.5700 N   0  0  0  0  0  0  0  0  0  0  0  0
   -5.6010   -4.5170   13.4510 C   0  0  0  0  0  0  0  0  0  0  0  0
   -5.3990   -3.3880   12.4570 C   0  0  0  0  0  0  0  0  0  0  0  0
   -7.1930   -1.5930    9.8840 N   0  0  0  0  0  0  0  0  0  0  0  0
   -6.7730   -0.4270    9.2640 O   0  0  0  0  0  0  0  0  0  0  0  0
   -5.8660    0.2070   10.0530 C   0  0  0  0  0  0  0  0  0  0  0  0
   -5.2170    1.4040    9.7590 C   0  0  0  0  0  0  0  0  0  0  0  0
   -5.8161    4.5917   11.8511 H   0  0  0  0  0  0  0  0  0  0  0  0
   -5.9922    5.5158   10.3208 H   0  0  0  0  0  0  0  0  0  0  0  0
   -6.1958    3.7311   10.3208 H   0  0  0  0  0  0  0  0  0  0  0  0
   -3.8699    6.5407   10.2633 H   0  0  0  0  0  0  0  0  0  0  0  0
   -1.4249    6.3574    9.8305 H   0  0  0  0  0  0  0  0  0  0  0  0
    0.2270    3.1460   11.5740 H   0  0  0  0  0  0  0  0  0  0  0  0
    2.4039    4.1398   12.5652 H   0  0  0  0  0  0  0  0  0  0  0  0
    4.8317    3.6005   12.7071 H   0  0  0  0  0  0  0  0  0  0  0  0
    5.8953    2.1700   10.9804 H   0  0  0  0  0  0  0  0  0  0  0  0
    4.7049    1.8028    6.8896 H   0  0  0  0  0  0  0  0  0  0  0  0
    5.8722    2.5876    8.0152 H   0  0  0  0  0  0  0  0  0  0  0  0
    7.0267    1.1099    6.3931 H   0  0  0  0  0  0  0  0  0  0  0  0
    7.1799    0.5118    8.1176 H   0  0  0  0  0  0  0  0  0  0  0  0
    3.9703   -0.7179    6.9667 H   0  0  0  0  0  0  0  0  0  0  0  0
    4.8980   -2.1098    7.7153 H   0  0  0  0  0  0  0  0  0  0  0  0
    3.7500   -0.7368    9.4228 H   0  0  0  0  0  0  0  0  0  0  0  0
    5.5418   -0.7121    9.5942 H   0  0  0  0  0  0  0  0  0  0  0  0
    2.1105    1.8027    8.9535 H   0  0  0  0  0  0  0  0  0  0  0  0
   -1.6911    2.0612   10.2083 H   0  0  0  0  0  0  0  0  0  0  0  0
   -3.3788    1.5434   12.6431 H   0  0  0  0  0  0  0  0  0  0  0  0
   -4.5871   -0.6001   13.1025 H   0  0  0  0  0  0  0  0  0  0  0  0
   -7.2513   -3.5984   11.3927 H   0  0  0  0  0  0  0  0  0  0  0  0
   -7.1923   -1.5655   13.6746 H   0  0  0  0  0  0  0  0  0  0  0  0
   -8.6355   -2.1665   12.7539 H   0  0  0  0  0  0  0  0  0  0  0  0
   -8.3775   -3.2193   15.0089 H   0  0  0  0  0  0  0  0  0  0  0  0
   -8.3504   -4.3921   13.6508 H   0  0  0  0  0  0  0  0  0  0  0  0
   -5.9800   -3.2800   15.0770 H   0  0  0  0  0  0  0  0  0  0  0  0
   -6.5750   -4.7950   15.2590 H   0  0  0  0  0  0  0  0  0  0  0  0
   -4.6261   -4.8360   13.8483 H   0  0  0  0  0  0  0  0  0  0  0  0
   -6.0856   -5.3679   12.9498 H   0  0  0  0  0  0  0  0  0  0  0  0
   -4.8228   -2.5861   12.9417 H   0  0  0  0  0  0  0  0  0  0  0  0
   -4.8610   -3.7917   11.5866 H   0  0  0  0  0  0  0  0  0  0  0  0
   -5.4073    1.9471    8.8215 H   0  0  0  0  0  0  0  0  0  0  0  0
  1  2  1  0
  2  3  2  0
  3  4  1  0
  4  5  2  0
  5  6  1  0
  6  7  2  0
  6  8  1  0
  8  9  1  0
  9 10  2  0
 10 11  1  0
 11 12  2  0
 12 13  1  0
 13 14  1  0
 14 15  1  0
 15 16  1  0
 16 17  1  0
 17 18  1  0
 18 19  1  0
 13 20  2  0
  5 21  1  0
 21 22  2  0
 22 23  1  0
 23 24  2  0
 24 25  1  0
 25 26  2  0
 26 27  1  0
 27 28  1  0
 28 29  1  0
 29 30  1  0
 30 31  1  0
 31 32  1  0
 32 33  1  0
 27 34  2  0
 34 35  1  0
 35 36  1  0
 36 37  2  0
 22  2  1  0
 37 23  1  0
 20  9  1  0
 36 26  1  0
 19 14  1  0
 33 28  1  0
  1 38  1  0
  1 39  1  0
  1 40  1  0
  3 41  1  0
  4 42  1  0
  8 43  1  0
 10 44  1  0
 11 45  1  0
 12 46  1  0
 15 47  1  0
 15 48  1  0
 16 49  1  0
 16 50  1  0
 18 51  1  0
 18 52  1  0
 19 53  1  0
 19 54  1  0
 20 55  1  0
 21 56  1  0
 24 57  1  0
 25 58  1  0
 28 59  1  0
 29 60  1  0
 29 61  1  0
 30 62  1  0
 30 63  1  0
 31 64  1  0
 31 65  1  0
 32 66  1  0
 32 67  1  0
 33 68  1  0
 33 69  1  0
 37 70  1  0
M  CHG  1  31   1
M  END
>  <meeko>  (2) 
{"is_sidechain": [false], "free_energy": -8.79, "intermolecular_energy": -11.56, "internal_energy": -1.047}

$$$$
3e93_ligand
     RDKit          3D

 70 75  0  0  0  0  0  0  0  0999 V2000
   -4.1310   -2.0250    9.7150 C   0  0  0  0  0  0  0  0  0  0  0  0
   -5.1870   -1.6840   10.7350 C   0  0  0  0  0  0  0  0  0  0  0  0
   -5.7490   -2.7220   11.4990 C   0  0  0  0  0  0  0  0  0  0  0  0
   -6.7250   -2.4590   12.4620 C   0  0  0  0  0  0  0  0  0  0  0  0
   -7.1660   -1.1480   12.6640 C   0  0  0  0  0  0  0  0  0  0  0  0
   -8.1930   -0.8070   13.6890 C   0  0  0  0  0  0  0  0  0  0  0  0
   -8.5220    0.3680   13.7990 O   0  0  0  0  0  0  0  0  0  0  0  0
   -8.7010   -1.8870   14.3870 N   0  0  0  0  0  0  0  0  0  0  0  0
   -9.6410   -1.8620   15.4410 C   0  0  0  0  0  0  0  0  0  0  0  0
  -10.5520   -2.9170   15.5040 C   0  0  0  0  0  0  0  0  0  0  0  0
  -11.5030   -2.9580   16.5200 C   0  0  0  0  0  0  0  0  0  0  0  0
  -11.5430   -1.9450   17.4810 C   0  0  0  0  0  0  0  0  0  0  0  0
  -10.6430   -0.8690   17.4620 C   0  0  0  0  0  0  0  0  0  0  0  0
  -10.6880    0.1320   18.4170 N   0  0  0  0  0  0  0  0  0  0  0  0
  -11.8760    0.9790   18.6120 C   0  0  0  0  0  0  0  0  0  0  0  0
  -11.9570    1.4520   20.0740 C   0  0  0  0  0  0  0  0  0  0  0  0
  -10.8140    2.1990   20.5130 O   0  0  0  0  0  0  0  0  0  0  0  0
   -9.6020    1.8270   19.8420 C   0  0  0  0  0  0  0  0  0  0  0  0
   -9.5750    0.3700   19.3520 C   0  0  0  0  0  0  0  0  0  0  0  0
   -9.6950   -0.8590   16.4200 C   0  0  0  0  0  0  0  0  0  0  0  0
   -6.6080   -0.1080   11.9110 C   0  0  0  0  0  0  0  0  0  0  0  0
   -5.6230   -0.3550   10.9370 C   0  0  0  0  0  0  0  0  0  0  0  0
   -5.0790    0.7840   10.1790 C   0  0  0  0  0  0  0  0  0  0  0  0
   -3.6860    0.9300   10.0320 C   0  0  0  0  0  0  0  0  0  0  0  0
   -3.1210    2.0140    9.3390 C   0  0  0  0  0  0  0  0  0  0  0  0
   -3.9850    2.9710    8.7860 C   0  0  0  0  0  0  0  0  0  0  0  0
   -3.8760    4.1790    8.0490 C   0  0  0  0  0  0  0  0  0  0  0  0
   -2.6410    4.8910    7.5900 C   0  0  0  0  0  0  0  0  0  0  0  0
   -2.5820    6.3210    8.1600 C   0  0  0  0  0  0  0  0  0  0  0  0
   -1.3750    7.0850    7.6450 C   0  0  0  0  0  0  0  0  0  0  0  0
   -1.3780    7.0620    6.1550 N   0  0  0  0  0  0  0  0  0  0  0  0
   -1.3340    5.6900    5.5730 C   0  0  0  0  0  0  0  0  0  0  0  0
   -2.5390    4.9040    6.0530 C   0  0  0  0  0  0  0  0  0  0  0  0
   -5.0800    4.7000    7.7750 N   0  0  0  0  0  0  0  0  0  0  0  0
   -6.0020    3.8330    8.3390 O   0  0  0  0  0  0  0  0  0  0  0  0
   -5.3500    2.8040    8.9420 C   0  0  0  0  0  0  0  0  0  0  0  0
   -5.9420    1.7430    9.6230 C   0  0  0  0  0  0  0  0  0  0  0  0
   -3.2062   -2.3236   10.2304 H   0  0  0  0  0  0  0  0  0  0  0  0
   -4.4840   -2.8548    9.0851 H   0  0  0  0  0  0  0  0  0  0  0  0
   -3.9320   -1.1454    9.0851 H   0  0  0  0  0  0  0  0  0  0  0  0
   -5.4146   -3.7571   11.3355 H   0  0  0  0  0  0  0  0  0  0  0  0
   -7.1457   -3.2809   13.0599 H   0  0  0  0  0  0  0  0  0  0  0  0
   -8.4330   -2.8090   14.0690 H   0  0  0  0  0  0  0  0  0  0  0  0
  -10.5188   -3.7173   14.7500 H   0  0  0  0  0  0  0  0  0  0  0  0
  -12.2231   -3.7883   16.5660 H   0  0  0  0  0  0  0  0  0  0  0  0
  -12.3021   -1.9923   18.2756 H   0  0  0  0  0  0  0  0  0  0  0  0
  -11.8105    1.8549   17.9498 H   0  0  0  0  0  0  0  0  0  0  0  0
  -12.7768    0.3944   18.3734 H   0  0  0  0  0  0  0  0  0  0  0  0
  -12.8477    2.0884   20.1821 H   0  0  0  0  0  0  0  0  0  0  0  0
  -12.0025    0.5470   20.6976 H   0  0  0  0  0  0  0  0  0  0  0  0
   -9.4735    2.4864   18.9710 H   0  0  0  0  0  0  0  0  0  0  0  0
   -8.7897    1.9286   20.5768 H   0  0  0  0  0  0  0  0  0  0  0  0
   -8.6211    0.1756   18.8398 H   0  0  0  0  0  0  0  0  0  0  0  0
   -9.6788   -0.3033   20.2157 H   0  0  0  0  0  0  0  0  0  0  0  0
   -8.9697   -0.0334   16.3723 H   0  0  0  0  0  0  0  0  0  0  0  0
   -6.9468    0.9241   12.0844 H   0  0  0  0  0  0  0  0  0  0  0  0
   -3.0206    0.1731   10.4727 H   0  0  0  0  0  0  0  0  0  0  0  0
   -2.0303    2.1097    9.2329 H   0  0  0  0  0  0  0  0  0  0  0  0
   -1.7739    4.3356    7.9769 H   0  0  0  0  0  0  0  0  0  0  0  0
   -3.4955    6.8590    7.8666 H   0  0  0  0  0  0  0  0  0  0  0  0
   -2.4992    6.2492    9.2545 H   0  0  0  0  0  0  0  0  0  0  0  0
   -1.4215    8.1262    7.9967 H   0  0  0  0  0  0  0  0  0  0  0  0
   -0.4536    6.6151    8.0194 H   0  0  0  0  0  0  0  0  0  0  0  0
   -2.2130    7.5580    5.8050 H   0  0  0  0  0  0  0  0  0  0  0  0
   -0.5760    7.6050    5.8060 H   0  0  0  0  0  0  0  0  0  0  0  0
   -1.3515    5.7557    4.4751 H   0  0  0  0  0  0  0  0  0  0  0  0
   -0.4117    5.1831    5.8928 H   0  0  0  0  0  0  0  0  0  0  0  0
   -3.4499    5.3619    5.6400 H   0  0  0  0  0  0  0  0  0  0  0  0
   -2.4271    3.8649    5.7099 H   0  0  0  0  0  0  0  0  0  0  0  0
   -7.0345    1.6598    9.7209 H   0  0  0  0  0  0  0  0  0  0  0  0
  1  2  1  0
  2  3  2  0
  3  4  1  0
  4  5  2  0
  5  6  1  0
  6  7  2  0
  6  8  1  0
  8  9  1  0
  9 10  2  0
 10 11  1  0
 11 12  2  0
 12 13  1  0
 13 14  1  0
 14 15  1  0
 15 16  1  0
 16 17  1  0
 17 18  1  0
 18 19  1  0
 13 20  2  0
  5 21  1  0
 21 22  2  0
 22 23  1  0
 23 24  2  0
 24 25  1  0
 25 26  2  0
 26 27  1  0
 27 28  1  0
 28 29  1  0
 29 30  1  0
 30 31  1  0
 31 32  1  0
 32 33  1  0
 27 34  2  0
 34 35  1  0
 35 36  1  0
 36 37  2  0
 22  2  1  0
 37 23  1  0
 20  9  1  0
 36 26  1  0
 19 14  1  0
 33 28  1  0
  1 38  1  0
  1 39  1  0
  1 40  1  0
  3 41  1  0
  4 42  1  0
  8 43  1  0
 10 44  1  0
 11 45  1  0
 12 46  1  0
 15 47  1  0
 15 48  1  0
 16 49  1  0
 16 50  1  0
 18 51  1  0
 18 52  1  0
 19 53  1  0
 19 54  1  0
 20 55  1  0
 21 56  1  0
 24 57  1  0
 25 58  1  0
 28 59  1  0
 29 60  1  0
 29 61  1  0
 30 62  1  0
 30 63  1  0
 31 64  1  0
 31 65  1  0
 32 66  1  0
 32 67  1  0
 33 68  1  0
 33 69  1  0
 37 70  1  0
M  CHG  1  31   1
M  END
>  <meeko>  (3) 
{"is_sidechain": [false], "free_energy": -8.342, "intermolecular_energy": -11.416, "internal_energy": -0.611}

$$$$
3e93_ligand
     RDKit          3D

 70 75  0  0  0  0  0  0  0  0999 V2000
   -4.3880   -2.0140    9.4520 C   0  0  0  0  0  0  0  0  0  0  0  0
   -5.2370   -1.7680   10.6740 C   0  0  0  0  0  0  0  0  0  0  0  0
   -5.6250   -2.8690   11.4570 C   0  0  0  0  0  0  0  0  0  0  0  0
   -6.4060   -2.6960   12.6030 C   0  0  0  0  0  0  0  0  0  0  0  0
   -6.8210   -1.4150   12.9720 C   0  0  0  0  0  0  0  0  0  0  0  0
   -7.6410   -1.1690   14.1930 C   0  0  0  0  0  0  0  0  0  0  0  0
   -7.2820   -1.7000   15.2380 O   0  0  0  0  0  0  0  0  0  0  0  0
   -8.7140   -0.3170   14.0140 N   0  0  0  0  0  0  0  0  0  0  0  0
   -9.6840    0.0560   14.9710 C   0  0  0  0  0  0  0  0  0  0  0  0
   -9.8660    1.4210   15.1930 C   0  0  0  0  0  0  0  0  0  0  0  0
  -10.8080    1.8590   16.1180 C   0  0  0  0  0  0  0  0  0  0  0  0
  -11.5780    0.9310   16.8240 C   0  0  0  0  0  0  0  0  0  0  0  0
  -11.4360   -0.4510   16.6290 C   0  0  0  0  0  0  0  0  0  0  0  0
  -12.2010   -1.3660   17.3320 N   0  0  0  0  0  0  0  0  0  0  0  0
  -13.4690   -1.8980   16.8070 C   0  0  0  0  0  0  0  0  0  0  0  0
  -13.7200   -3.3130   17.3570 C   0  0  0  0  0  0  0  0  0  0  0  0
  -13.7790   -3.3840   18.7890 O   0  0  0  0  0  0  0  0  0  0  0  0
  -12.9800   -2.3850   19.4380 C   0  0  0  0  0  0  0  0  0  0  0  0
  -11.7610   -1.9240   18.6220 C   0  0  0  0  0  0  0  0  0  0  0  0
  -10.4720   -0.8580   15.6850 C   0  0  0  0  0  0  0  0  0  0  0  0
   -6.4340   -0.3130   12.2000 C   0  0  0  0  0  0  0  0  0  0  0  0
   -5.6490   -0.4680   11.0440 C   0  0  0  0  0  0  0  0  0  0  0  0
   -5.2780    0.7320   10.2760 C   0  0  0  0  0  0  0  0  0  0  0  0
   -3.9230    1.0090   10.0140 C   0  0  0  0  0  0  0  0  0  0  0  0
   -3.5200    2.1550    9.3080 C   0  0  0  0  0  0  0  0  0  0  0  0
   -4.5110    3.0400    8.8590 C   0  0  0  0  0  0  0  0  0  0  0  0
   -4.5770    4.2680    8.1510 C   0  0  0  0  0  0  0  0  0  0  0  0
   -3.4560    5.1010    7.6090 C   0  0  0  0  0  0  0  0  0  0  0  0
   -2.7970    4.4190    6.3950 C   0  0  0  0  0  0  0  0  0  0  0  0
   -1.6110    5.2110    5.8770 C   0  0  0  0  0  0  0  0  0  0  0  0
   -0.6510    5.4440    6.9930 N   0  0  0  0  0  0  0  0  0  0  0  0
   -1.2340    6.1920    8.1430 C   0  0  0  0  0  0  0  0  0  0  0  0
   -2.4140    5.4160    8.6980 C   0  0  0  0  0  0  0  0  0  0  0  0
   -5.8420    4.6810    7.9960 N   0  0  0  0  0  0  0  0  0  0  0  0
   -6.6290    3.7210    8.6110 O   0  0  0  0  0  0  0  0  0  0  0  0
   -5.8370    2.7440    9.1260 C   0  0  0  0  0  0  0  0  0  0  0  0
   -6.2700    1.6190    9.8230 C   0  0  0  0  0  0  0  0  0  0  0  0
   -3.3745   -2.3077    9.7627 H   0  0  0  0  0  0  0  0  0  0  0  0
   -4.8351   -2.8195    8.8510 H   0  0  0  0  0  0  0  0  0  0  0  0
   -4.3352   -1.0942    8.8510 H   0  0  0  0  0  0  0  0  0  0  0  0
   -5.3095   -3.8811   11.1636 H   0  0  0  0  0  0  0  0  0  0  0  0
   -6.6927   -3.5660   13.2121 H   0  0  0  0  0  0  0  0  0  0  0  0
   -8.7830    0.1560   13.1230 H   0  0  0  0  0  0  0  0  0  0  0  0
   -9.2632    2.1528   14.6353 H   0  0  0  0  0  0  0  0  0  0  0  0
  -10.9468    2.9360   16.2937 H   0  0  0  0  0  0  0  0  0  0  0  0
  -12.3167    1.2945   17.5536 H   0  0  0  0  0  0  0  0  0  0  0  0
  -14.2942   -1.2378   17.1124 H   0  0  0  0  0  0  0  0  0  0  0  0
  -13.4117   -1.9445   15.7095 H   0  0  0  0  0  0  0  0  0  0  0  0
  -14.6770   -3.6755   16.9536 H   0  0  0  0  0  0  0  0  0  0  0  0
  -12.8653   -3.9307   17.0442 H   0  0  0  0  0  0  0  0  0  0  0  0
  -13.6155   -1.5087   19.6336 H   0  0  0  0  0  0  0  0  0  0  0  0
  -12.5890   -2.8424   20.3588 H   0  0  0  0  0  0  0  0  0  0  0  0
  -11.2157   -1.1527   19.1857 H   0  0  0  0  0  0  0  0  0  0  0  0
  -11.1029   -2.7858   18.4373 H   0  0  0  0  0  0  0  0  0  0  0  0
  -10.3324   -1.9335   15.5013 H   0  0  0  0  0  0  0  0  0  0  0  0
   -6.7508    0.6955   12.5044 H   0  0  0  0  0  0  0  0  0  0  0  0
   -3.1562    0.3068   10.3730 H   0  0  0  0  0  0  0  0  0  0  0  0
   -2.4557    2.3528    9.1127 H   0  0  0  0  0  0  0  0  0  0  0  0
   -3.8844    6.0561    7.2711 H   0  0  0  0  0  0  0  0  0  0  0  0
   -2.4533    3.4174    6.6928 H   0  0  0  0  0  0  0  0  0  0  0  0
   -3.5445    4.3582    5.5903 H   0  0  0  0  0  0  0  0  0  0  0  0
   -1.1130    4.6456    5.0756 H   0  0  0  0  0  0  0  0  0  0  0  0
   -1.9570    6.1767    5.4800 H   0  0  0  0  0  0  0  0  0  0  0  0
   -0.2800    4.5390    7.3230 H   0  0  0  0  0  0  0  0  0  0  0  0
    0.1680    5.9560    6.6350 H   0  0  0  0  0  0  0  0  0  0  0  0
   -0.4721    6.3131    8.9271 H   0  0  0  0  0  0  0  0  0  0  0  0
   -1.5702    7.1836    7.8059 H   0  0  0  0  0  0  0  0  0  0  0  0
   -2.0488    4.4704    9.1252 H   0  0  0  0  0  0  0  0  0  0  0  0
   -2.8996    6.0361    9.4659 H   0  0  0  0  0  0  0  0  0  0  0  0
   -7.3379    1.4332   10.0103 H   0  0  0  0  0  0  0  0  0  0  0  0
  1  2  1  0
  2  3  2  0
  3  4  1  0
  4  5  2  0
  5  6  1  0
  6  7  2  0
  6  8  1  0
  8  9  1  0
  9 10  2  0
 10 11  1  0
 11 12  2  0
 12 13  1  0
 13 14  1  0
 14 15  1  0
 15 16  1  0
 16 17  1  0
 17 18  1  0
 18 19  1  0
 13 20  2  0
  5 21  1  0
 21 22  2  0
 22 23  1  0
 23 24  2  0
 24 25  1  0
 25 26  2  0
 26 27  1  0
 27 28  1  0
 28 29  1  0
 29 30  1  0
 30 31  1  0
 31 32  1  0
 32 33  1  0
 27 34  2  0
 34 35  1  0
 35 36  1  0
 36 37  2  0
 22  2  1  0
 37 23  1  0
 20  9  1  0
 36 26  1  0
 19 14  1  0
 33 28  1  0
  1 38  1  0
  1 39  1  0
  1 40  1  0
  3 41  1  0
  4 42  1  0
  8 43  1  0
 10 44  1  0
 11 45  1  0
 12 46  1  0
 15 47  1  0
 15 48  1  0
 16 49  1  0
 16 50  1  0
 18 51  1  0
 18 52  1  0
 19 53  1  0
 19 54  1  0
 20 55  1  0
 21 56  1  0
 24 57  1  0
 25 58  1  0
 28 59  1  0
 29 60  1  0
 29 61  1  0
 30 62  1  0
 30 63  1  0
 31 64  1  0
 31 65  1  0
 32 66  1  0
 32 67  1  0
 33 68  1  0
 33 69  1  0
 37 70  1  0
M  CHG  1  31   1
M  END
>  <meeko>  (4) 
{"is_sidechain": [false], "free_energy": -8.298, "intermolecular_energy": -11.065, "internal_energy": -0.906}

$$$$
3e93_ligand
     RDKit          3D

 70 75  0  0  0  0  0  0  0  0999 V2000
   -0.6390    5.7290    8.6430 C   0  0  0  0  0  0  0  0  0  0  0  0
   -1.7450    4.9090    9.2570 C   0  0  0  0  0  0  0  0  0  0  0  0
   -3.0770    5.3100    9.0510 C   0  0  0  0  0  0  0  0  0  0  0  0
   -4.1390    4.5820    9.5920 C   0  0  0  0  0  0  0  0  0  0  0  0
   -3.8790    3.4460   10.3620 C   0  0  0  0  0  0  0  0  0  0  0  0
   -4.9740    2.6210   10.9500 C   0  0  0  0  0  0  0  0  0  0  0  0
   -5.7130    3.1530   11.7700 O   0  0  0  0  0  0  0  0  0  0  0  0
   -5.0590    1.3310   10.4610 N   0  0  0  0  0  0  0  0  0  0  0  0
   -5.9560    0.3170   10.8640 C   0  0  0  0  0  0  0  0  0  0  0  0
   -6.9300   -0.0720    9.9440 C   0  0  0  0  0  0  0  0  0  0  0  0
   -7.8430   -1.0690   10.2740 C   0  0  0  0  0  0  0  0  0  0  0  0
   -7.7840   -1.6850   11.5270 C   0  0  0  0  0  0  0  0  0  0  0  0
   -6.8180   -1.3310   12.4810 C   0  0  0  0  0  0  0  0  0  0  0  0
   -6.7640   -1.9450   13.7210 N   0  0  0  0  0  0  0  0  0  0  0  0
   -7.8630   -1.8450   14.6950 C   0  0  0  0  0  0  0  0  0  0  0  0
   -7.8970   -3.0990   15.5870 C   0  0  0  0  0  0  0  0  0  0  0  0
   -6.6860   -3.3300   16.3210 O   0  0  0  0  0  0  0  0  0  0  0  0
   -5.5170   -2.8340   15.6540 C   0  0  0  0  0  0  0  0  0  0  0  0
   -5.6330   -2.7990   14.1210 C   0  0  0  0  0  0  0  0  0  0  0  0
   -5.9100   -0.3190   12.1140 C   0  0  0  0  0  0  0  0  0  0  0  0
   -2.5560    3.0370   10.5680 C   0  0  0  0  0  0  0  0  0  0  0  0
   -1.4750    3.7580   10.0310 C   0  0  0  0  0  0  0  0  0  0  0  0
   -0.1080    3.2750   10.2870 C   0  0  0  0  0  0  0  0  0  0  0  0
    0.3470    2.0920    9.6720 C   0  0  0  0  0  0  0  0  0  0  0  0
    1.6340    1.5790    9.9060 C   0  0  0  0  0  0  0  0  0  0  0  0
    2.4770    2.2770   10.7830 C   0  0  0  0  0  0  0  0  0  0  0  0
    3.7890    2.1400   11.3070 C   0  0  0  0  0  0  0  0  0  0  0  0
    4.7940    1.0600   11.0510 C   0  0  0  0  0  0  0  0  0  0  0  0
    5.2040    1.0260    9.5660 C   0  0  0  0  0  0  0  0  0  0  0  0
    6.1660   -0.1110    9.2720 C   0  0  0  0  0  0  0  0  0  0  0  0
    5.5630   -1.3950    9.7290 N   0  0  0  0  0  0  0  0  0  0  0  0
    5.2490   -1.4280   11.1860 C   0  0  0  0  0  0  0  0  0  0  0  0
    4.2720   -0.3130   11.5120 C   0  0  0  0  0  0  0  0  0  0  0  0
    4.0930    3.1420   12.1430 N   0  0  0  0  0  0  0  0  0  0  0  0
    2.9710    3.9540   12.1820 O   0  0  0  0  0  0  0  0  0  0  0  0
    2.0080    3.4380   11.3740 C   0  0  0  0  0  0  0  0  0  0  0  0
    0.7390    3.9730   11.1640 C   0  0  0  0  0  0  0  0  0  0  0  0
   -0.0307    6.1800    9.4408 H   0  0  0  0  0  0  0  0  0  0  0  0
   -0.0047    5.0812    8.0201 H   0  0  0  0  0  0  0  0  0  0  0  0
   -1.0746    6.5241    8.0201 H   0  0  0  0  0  0  0  0  0  0  0  0
   -3.2856    6.2106    8.4548 H   0  0  0  0  0  0  0  0  0  0  0  0
   -5.1760    4.9019    9.4124 H   0  0  0  0  0  0  0  0  0  0  0  0
   -4.4670    1.0950    9.6760 H   0  0  0  0  0  0  0  0  0  0  0  0
   -6.9763    0.4101    8.9564 H   0  0  0  0  0  0  0  0  0  0  0  0
   -8.6117   -1.3725    9.5480 H   0  0  0  0  0  0  0  0  0  0  0  0
   -8.5153   -2.4693   11.7722 H   0  0  0  0  0  0  0  0  0  0  0  0
   -7.7115   -0.9554   15.3240 H   0  0  0  0  0  0  0  0  0  0  0  0
   -8.8169   -1.7633   14.1534 H   0  0  0  0  0  0  0  0  0  0  0  0
   -8.7213   -2.9883   16.3069 H   0  0  0  0  0  0  0  0  0  0  0  0
   -8.0304   -3.9609   14.9167 H   0  0  0  0  0  0  0  0  0  0  0  0
   -5.3255   -1.8106   16.0089 H   0  0  0  0  0  0  0  0  0  0  0  0
   -4.6981   -3.5284   15.8932 H   0  0  0  0  0  0  0  0  0  0  0  0
   -4.7029   -2.3953   13.6944 H   0  0  0  0  0  0  0  0  0  0  0  0
   -5.8019   -3.8200   13.7482 H   0  0  0  0  0  0  0  0  0  0  0  0
   -5.1358   -0.0158   12.8341 H   0  0  0  0  0  0  0  0  0  0  0  0
   -2.3581    2.1328   11.1623 H   0  0  0  0  0  0  0  0  0  0  0  0
   -0.3256    1.5537    8.9880 H   0  0  0  0  0  0  0  0  0  0  0  0
    1.9714    0.6546    9.4144 H   0  0  0  0  0  0  0  0  0  0  0  0
    5.6903    1.2920   11.6451 H   0  0  0  0  0  0  0  0  0  0  0  0
    4.3015    0.8969    8.9504 H   0  0  0  0  0  0  0  0  0  0  0  0
    5.7118    1.9728    9.3300 H   0  0  0  0  0  0  0  0  0  0  0  0
    6.3582   -0.1596    8.1900 H   0  0  0  0  0  0  0  0  0  0  0  0
    7.1141    0.0611    9.8026 H   0  0  0  0  0  0  0  0  0  0  0  0
    4.7060   -1.5860    9.1870 H   0  0  0  0  0  0  0  0  0  0  0  0
    6.2030   -2.1700    9.5030 H   0  0  0  0  0  0  0  0  0  0  0  0
    4.7991   -2.3982   11.4434 H   0  0  0  0  0  0  0  0  0  0  0  0
    6.1734   -1.2904   11.7662 H   0  0  0  0  0  0  0  0  0  0  0  0
    3.3166   -0.5182   11.0069 H   0  0  0  0  0  0  0  0  0  0  0  0
    4.1439   -0.2801   12.6040 H   0  0  0  0  0  0  0  0  0  0  0  0
    0.4152    4.8990   11.6617 H   0  0  0  0  0  0  0  0  0  0  0  0
  1  2  1  0
  2  3  2  0
  3  4  1  0
  4  5  2  0
  5  6  1  0
  6  7  2  0
  6  8  1  0
  8  9  1  0
  9 10  2  0
 10 11  1  0
 11 12  2  0
 12 13  1  0
 13 14  1  0
 14 15  1  0
 15 16  1  0
 16 17  1  0
 17 18  1  0
 18 19  1  0
 13 20  2  0
  5 21  1  0
 21 22  2  0
 22 23  1  0
 23 24  2  0
 24 25  1  0
 25 26  2  0
 26 27  1  0
 27 28  1  0
 28 29  1  0
 29 30  1  0
 30 31  1  0
 31 32  1  0
 32 33  1  0
 27 34  2  0
 34 35  1  0
 35 36  1  0
 36 37  2  0
 22  2  1  0
 37 23  1  0
 20  9  1  0
 36 26  1  0
 19 14  1  0
 33 28  1  0
  1 38  1  0
  1 39  1  0
  1 40  1  0
  3 41  1  0
  4 42  1  0
  8 43  1  0
 10 44  1  0
 11 45  1  0
 12 46  1  0
 15 47  1  0
 15 48  1  0
 16 49  1  0
 16 50  1  0
 18 51  1  0
 18 52  1  0
 19 53  1  0
 19 54  1  0
 20 55  1  0
 21 56  1  0
 24 57  1  0
 25 58  1  0
 28 59  1  0
 29 60  1  0
 29 61  1  0
 30 62  1  0
 30 63  1  0
 31 64  1  0
 31 65  1  0
 32 66  1  0
 32 67  1  0
 33 68  1  0
 33 69  1  0
 37 70  1  0
M  CHG  1  31   1
M  END
>  <meeko>  (5) 
{"is_sidechain": [false], "free_energy": -8.27, "intermolecular_energy": -10.742, "internal_energy": -1.192}

$$$$
3e93_ligand
     RDKit          3D

 70 75  0  0  0  0  0  0  0  0999 V2000
   -5.8140    3.6310    8.4370 C   0  0  0  0  0  0  0  0  0  0  0  0
   -4.4230    3.1700    8.7910 C   0  0  0  0  0  0  0  0  0  0  0  0
   -3.3610    3.5050    7.9320 C   0  0  0  0  0  0  0  0  0  0  0  0
   -2.0530    3.1090    8.2180 C   0  0  0  0  0  0  0  0  0  0  0  0
   -1.7910    2.3550    9.3640 C   0  0  0  0  0  0  0  0  0  0  0  0
   -0.4120    1.9190    9.7270 C   0  0  0  0  0  0  0  0  0  0  0  0
   -0.1920    0.7150    9.7910 O   0  0  0  0  0  0  0  0  0  0  0  0
    0.4940    2.9460    9.9140 N   0  0  0  0  0  0  0  0  0  0  0  0
    1.8460    2.8370   10.3090 C   0  0  0  0  0  0  0  0  0  0  0  0
    2.2360    3.5520   11.4410 C   0  0  0  0  0  0  0  0  0  0  0  0
    3.5520    3.4870   11.8890 C   0  0  0  0  0  0  0  0  0  0  0  0
    4.4840    2.7000   11.2070 C   0  0  0  0  0  0  0  0  0  0  0  0
    4.1360    1.9580   10.0690 C   0  0  0  0  0  0  0  0  0  0  0  0
    5.0640    1.1800    9.3970 N   0  0  0  0  0  0  0  0  0  0  0  0
    6.0800    0.3840   10.1030 C   0  0  0  0  0  0  0  0  0  0  0  0
    6.4590   -0.8530    9.2690 C   0  0  0  0  0  0  0  0  0  0  0  0
    6.9760   -0.5460    7.9670 O   0  0  0  0  0  0  0  0  0  0  0  0
    6.4560    0.6760    7.4250 C   0  0  0  0  0  0  0  0  0  0  0  0
    5.0510    1.0420    7.9310 C   0  0  0  0  0  0  0  0  0  0  0  0
    2.7960    2.0480    9.6440 C   0  0  0  0  0  0  0  0  0  0  0  0
   -2.8420    2.0210   10.2270 C   0  0  0  0  0  0  0  0  0  0  0  0
   -4.1650    2.4130    9.9560 C   0  0  0  0  0  0  0  0  0  0  0  0
   -5.2240    2.0270   10.9030 C   0  0  0  0  0  0  0  0  0  0  0  0
   -5.7770    2.9890   11.7700 C   0  0  0  0  0  0  0  0  0  0  0  0
   -6.7710    2.6630   12.7080 C   0  0  0  0  0  0  0  0  0  0  0  0
   -7.2110    1.3320   12.7720 C   0  0  0  0  0  0  0  0  0  0  0  0
   -8.1390    0.5710   13.5290 C   0  0  0  0  0  0  0  0  0  0  0  0
   -9.0380    1.0210   14.6400 C   0  0  0  0  0  0  0  0  0  0  0  0
   -8.8150    0.1750   15.9080 C   0  0  0  0  0  0  0  0  0  0  0  0
   -9.7690    0.5660   17.0220 C   0  0  0  0  0  0  0  0  0  0  0  0
  -11.1700    0.4860   16.5190 N   0  0  0  0  0  0  0  0  0  0  0  0
  -11.4420    1.3730   15.3520 C   0  0  0  0  0  0  0  0  0  0  0  0
  -10.5160    0.9950   14.2110 C   0  0  0  0  0  0  0  0  0  0  0  0
   -8.1480   -0.7140   13.1500 N   0  0  0  0  0  0  0  0  0  0  0  0
   -7.2130   -0.8130   12.1330 O   0  0  0  0  0  0  0  0  0  0  0  0
   -6.6540    0.4050   11.9090 C   0  0  0  0  0  0  0  0  0  0  0  0
   -5.6680    0.6950   10.9680 C   0  0  0  0  0  0  0  0  0  0  0  0
   -6.3835    3.8197    9.3590 H   0  0  0  0  0  0  0  0  0  0  0  0
   -5.7542    4.5574    7.8469 H   0  0  0  0  0  0  0  0  0  0  0  0
   -6.3193    2.8523    7.8469 H   0  0  0  0  0  0  0  0  0  0  0  0
   -3.5639    4.0876    7.0213 H   0  0  0  0  0  0  0  0  0  0  0  0
   -1.2314    3.3900    7.5428 H   0  0  0  0  0  0  0  0  0  0  0  0
    0.1880    3.8800    9.6760 H   0  0  0  0  0  0  0  0  0  0  0  0
    1.5021    4.1685   11.9808 H   0  0  0  0  0  0  0  0  0  0  0  0
    3.8586    4.0550   12.7798 H   0  0  0  0  0  0  0  0  0  0  0  0
    5.5205    2.6614   11.5734 H   0  0  0  0  0  0  0  0  0  0  0  0
    6.9761    1.0008   10.2663 H   0  0  0  0  0  0  0  0  0  0  0  0
    5.6704    0.0542   11.0691 H   0  0  0  0  0  0  0  0  0  0  0  0
    7.2243   -1.4195    9.8197 H   0  0  0  0  0  0  0  0  0  0  0  0
    5.5335   -1.4273    9.1152 H   0  0  0  0  0  0  0  0  0  0  0  0
    7.1428    1.4923    7.6933 H   0  0  0  0  0  0  0  0  0  0  0  0
    6.3724    0.5295    6.3380 H   0  0  0  0  0  0  0  0  0  0  0  0
    4.7373    1.9941    7.4782 H   0  0  0  0  0  0  0  0  0  0  0  0
    4.3468    0.2452    7.6495 H   0  0  0  0  0  0  0  0  0  0  0  0
    2.4828    1.4779    8.7570 H   0  0  0  0  0  0  0  0  0  0  0  0
   -2.6282    1.4397   11.1361 H   0  0  0  0  0  0  0  0  0  0  0  0
   -5.4198    4.0277   11.7111 H   0  0  0  0  0  0  0  0  0  0  0  0
   -7.1928    3.4302   13.3740 H   0  0  0  0  0  0  0  0  0  0  0  0
   -8.7788    2.0634   14.8772 H   0  0  0  0  0  0  0  0  0  0  0  0
   -8.9720   -0.8853   15.6607 H   0  0  0  0  0  0  0  0  0  0  0  0
   -7.7879    0.3512   16.2601 H   0  0  0  0  0  0  0  0  0  0  0  0
   -9.6435   -0.1211   17.8718 H   0  0  0  0  0  0  0  0  0  0  0  0
   -9.5525    1.5934   17.3500 H   0  0  0  0  0  0  0  0  0  0  0  0
  -11.3910   -0.4910   16.2700 H   0  0  0  0  0  0  0  0  0  0  0  0
  -11.8190    0.7230   17.2840 H   0  0  0  0  0  0  0  0  0  0  0  0
  -12.4876    1.2509   15.0330 H   0  0  0  0  0  0  0  0  0  0  0  0
  -11.2688    2.4213   15.6365 H   0  0  0  0  0  0  0  0  0  0  0  0
  -10.7692   -0.0191   13.8683 H   0  0  0  0  0  0  0  0  0  0  0  0
  -10.6503    1.7307   13.4044 H   0  0  0  0  0  0  0  0  0  0  0  0
   -5.2565   -0.0820   10.3071 H   0  0  0  0  0  0  0  0  0  0  0  0
  1  2  1  0
  2  3  2  0
  3  4  1  0
  4  5  2  0
  5  6  1  0
  6  7  2  0
  6  8  1  0
  8  9  1  0
  9 10  2  0
 10 11  1  0
 11 12  2  0
 12 13  1  0
 13 14  1  0
 14 15  1  0
 15 16  1  0
 16 17  1  0
 17 18  1  0
 18 19  1  0
 13 20  2  0
  5 21  1  0
 21 22  2  0
 22 23  1  0
 23 24  2  0
 24 25  1  0
 25 26  2  0
 26 27  1  0
 27 28  1  0
 28 29  1  0
 29 30  1  0
 30 31  1  0
 31 32  1  0
 32 33  1  0
 27 34  2  0
 34 35  1  0
 35 36  1  0
 36 37  2  0
 22  2  1  0
 37 23  1  0
 20  9  1  0
 36 26  1  0
 19 14  1  0
 33 28  1  0
  1 38  1  0
  1 39  1  0
  1 40  1  0
  3 41  1  0
  4 42  1  0
  8 43  1  0
 10 44  1  0
 11 45  1  0
 12 46  1  0
 15 47  1  0
 15 48  1  0
 16 49  1  0
 16 50  1  0
 18 51  1  0
 18 52  1  0
 19 53  1  0
 19 54  1  0
 20 55  1  0
 21 56  1  0
 24 57  1  0
 25 58  1  0
 28 59  1  0
 29 60  1  0
 29 61  1  0
 30 62  1  0
 30 63  1  0
 31 64  1  0
 31 65  1  0
 32 66  1  0
 32 67  1  0
 33 68  1  0
 33 69  1  0
 37 70  1  0
M  CHG  1  31   1
M  END
>  <meeko>  (6) 
{"is_sidechain": [false], "free_energy": -8.26, "intermolecular_energy": -10.849, "internal_energy": -1.072}

$$$$
3e93_ligand
     RDKit          3D

 70 75  0  0  0  0  0  0  0  0999 V2000
   -3.7300    4.6690   10.2260 C   0  0  0  0  0  0  0  0  0  0  0  0
   -2.3440    4.0850   10.1280 C   0  0  0  0  0  0  0  0  0  0  0  0
   -1.2830    4.9250    9.7490 C   0  0  0  0  0  0  0  0  0  0  0  0
    0.0220    4.4350    9.6500 C   0  0  0  0  0  0  0  0  0  0  0  0
    0.2790    3.0880    9.9150 C   0  0  0  0  0  0  0  0  0  0  0  0
    1.6530    2.5150    9.8400 C   0  0  0  0  0  0  0  0  0  0  0  0
    2.5630    3.2560    9.4850 O   0  0  0  0  0  0  0  0  0  0  0  0
    1.7560    1.1920   10.2300 N   0  0  0  0  0  0  0  0  0  0  0  0
    2.9110    0.3800   10.2170 C   0  0  0  0  0  0  0  0  0  0  0  0
    3.3610   -0.1040   11.4450 C   0  0  0  0  0  0  0  0  0  0  0  0
    4.4910   -0.9140   11.5050 C   0  0  0  0  0  0  0  0  0  0  0  0
    5.1750   -1.2470   10.3330 C   0  0  0  0  0  0  0  0  0  0  0  0
    4.7550   -0.7900    9.0750 C   0  0  0  0  0  0  0  0  0  0  0  0
    5.4370   -1.1230    7.9170 N   0  0  0  0  0  0  0  0  0  0  0  0
    4.9020   -0.8310    6.5780 C   0  0  0  0  0  0  0  0  0  0  0  0
    6.0550   -0.6240    5.5790 C   0  0  0  0  0  0  0  0  0  0  0  0
    6.9350   -1.7500    5.4580 O   0  0  0  0  0  0  0  0  0  0  0  0
    7.0250   -2.5290    6.6590 C   0  0  0  0  0  0  0  0  0  0  0  0
    6.7790   -1.7300    7.9490 C   0  0  0  0  0  0  0  0  0  0  0  0
    3.6080    0.0280    9.0520 C   0  0  0  0  0  0  0  0  0  0  0  0
   -0.7720    2.2460   10.2970 C   0  0  0  0  0  0  0  0  0  0  0  0
   -2.0910    2.7220   10.4030 C   0  0  0  0  0  0  0  0  0  0  0  0
   -3.1500    1.7830   10.8080 C   0  0  0  0  0  0  0  0  0  0  0  0
   -3.2820    1.4120   12.1600 C   0  0  0  0  0  0  0  0  0  0  0  0
   -4.2610    0.5000   12.5900 C   0  0  0  0  0  0  0  0  0  0  0  0
   -5.1220   -0.0500   11.6290 C   0  0  0  0  0  0  0  0  0  0  0  0
   -6.2000   -0.9730   11.5940 C   0  0  0  0  0  0  0  0  0  0  0  0
   -6.8130   -1.7440   12.7230 C   0  0  0  0  0  0  0  0  0  0  0  0
   -7.5040   -3.0210   12.2090 C   0  0  0  0  0  0  0  0  0  0  0  0
   -8.1960   -3.7780   13.3270 C   0  0  0  0  0  0  0  0  0  0  0  0
   -9.1380   -2.8610   14.0320 N   0  0  0  0  0  0  0  0  0  0  0  0
   -8.4790   -1.6640   14.6280 C   0  0  0  0  0  0  0  0  0  0  0  0
   -7.7920   -0.8730   13.5300 C   0  0  0  0  0  0  0  0  0  0  0  0
   -6.6710   -1.1330   10.3500 N   0  0  0  0  0  0  0  0  0  0  0  0
   -5.8980   -0.3130    9.5460 O   0  0  0  0  0  0  0  0  0  0  0  0
   -4.9740    0.3310   10.3070 C   0  0  0  0  0  0  0  0  0  0  0  0
   -4.0150    1.2320    9.8480 C   0  0  0  0  0  0  0  0  0  0  0  0
   -4.0050    4.7849   11.2847 H   0  0  0  0  0  0  0  0  0  0  0  0
   -3.7495    5.6518    9.7324 H   0  0  0  0  0  0  0  0  0  0  0  0
   -4.4470    3.9965    9.7324 H   0  0  0  0  0  0  0  0  0  0  0  0
   -1.4827    5.9837    9.5270 H   0  0  0  0  0  0  0  0  0  0  0  0
    0.8440    5.1079    9.3643 H   0  0  0  0  0  0  0  0  0  0  0  0
    0.9340    0.7680   10.6400 H   0  0  0  0  0  0  0  0  0  0  0  0
    2.8217    0.1550   12.3681 H   0  0  0  0  0  0  0  0  0  0  0  0
    4.8457   -1.2921   12.4751 H   0  0  0  0  0  0  0  0  0  0  0  0
    6.0682   -1.8857   10.3987 H   0  0  0  0  0  0  0  0  0  0  0  0
    4.2786   -1.6735    6.2440 H   0  0  0  0  0  0  0  0  0  0  0  0
    4.2981    0.0872    6.6249 H   0  0  0  0  0  0  0  0  0  0  0  0
    5.6215   -0.4166    4.5895 H   0  0  0  0  0  0  0  0  0  0  0  0
    6.6599    0.2112    5.9618 H   0  0  0  0  0  0  0  0  0  0  0  0
    6.2778   -3.3344    6.6044 H   0  0  0  0  0  0  0  0  0  0  0  0
    8.0565   -2.9071    6.7136 H   0  0  0  0  0  0  0  0  0  0  0  0
    6.8534   -2.4042    8.8150 H   0  0  0  0  0  0  0  0  0  0  0  0
    7.5337   -0.9339    8.0304 H   0  0  0  0  0  0  0  0  0  0  0  0
    3.2457    0.4046    8.0841 H   0  0  0  0  0  0  0  0  0  0  0  0
   -0.5616    1.1894   10.5190 H   0  0  0  0  0  0  0  0  0  0  0  0
   -2.5980    1.8494   12.9022 H   0  0  0  0  0  0  0  0  0  0  0  0
   -4.3496    0.2250   13.6514 H   0  0  0  0  0  0  0  0  0  0  0  0
   -6.0004   -2.0465   13.3999 H   0  0  0  0  0  0  0  0  0  0  0  0
   -8.2521   -2.7409   11.4528 H   0  0  0  0  0  0  0  0  0  0  0  0
   -6.7327   -3.6770   11.7792 H   0  0  0  0  0  0  0  0  0  0  0  0
   -8.7551   -4.6264   12.9055 H   0  0  0  0  0  0  0  0  0  0  0  0
   -7.4454   -4.1539   14.0379 H   0  0  0  0  0  0  0  0  0  0  0  0
   -9.8770   -2.5580   13.3780 H   0  0  0  0  0  0  0  0  0  0  0  0
   -9.6290   -3.3820   14.7720 H   0  0  0  0  0  0  0  0  0  0  0  0
   -9.2356   -1.0331   15.1174 H   0  0  0  0  0  0  0  0  0  0  0  0
   -7.7355   -1.9843   15.3727 H   0  0  0  0  0  0  0  0  0  0  0  0
   -8.5568   -0.4724   12.8483 H   0  0  0  0  0  0  0  0  0  0  0  0
   -7.2179   -0.0619   14.0018 H   0  0  0  0  0  0  0  0  0  0  0  0
   -3.9389    1.4992    8.7837 H   0  0  0  0  0  0  0  0  0  0  0  0
  1  2  1  0
  2  3  2  0
  3  4  1  0
  4  5  2  0
  5  6  1  0
  6  7  2  0
  6  8  1  0
  8  9  1  0
  9 10  2  0
 10 11  1  0
 11 12  2  0
 12 13  1  0
 13 14  1  0
 14 15  1  0
 15 16  1  0
 16 17  1  0
 17 18  1  0
 18 19  1  0
 13 20  2  0
  5 21  1  0
 21 22  2  0
 22 23  1  0
 23 24  2  0
 24 25  1  0
 25 26  2  0
 26 27  1  0
 27 28  1  0
 28 29  1  0
 29 30  1  0
 30 31  1  0
 31 32  1  0
 32 33  1  0
 27 34  2  0
 34 35  1  0
 35 36  1  0
 36 37  2  0
 22  2  1  0
 37 23  1  0
 20  9  1  0
 36 26  1  0
 19 14  1  0
 33 28  1  0
  1 38  1  0
  1 39  1  0
  1 40  1  0
  3 41  1  0
  4 42  1  0
  8 43  1  0
 10 44  1  0
 11 45  1  0
 12 46  1  0
 15 47  1  0
 15 48  1  0
 16 49  1  0
 16 50  1  0
 18 51  1  0
 18 52  1  0
 19 53  1  0
 19 54  1  0
 20 55  1  0
 21 56  1  0
 24 57  1  0
 25 58  1  0
 28 59  1  0
 29 60  1  0
 29 61  1  0
 30 62  1  0
 30 63  1  0
 31 64  1  0
 31 65  1  0
 32 66  1  0
 32 67  1  0
 33 68  1  0
 33 69  1  0
 37 70  1  0
M  CHG  1  31   1
M  END
>  <meeko>  (7) 
{"is_sidechain": [false], "free_energy": -8.06, "intermolecular_energy": -10.371, "internal_energy": -1.292}

$$$$
3e93_ligand
     RDKit          3D

 70 75  0  0  0  0  0  0  0  0999 V2000
   -5.3320   -0.7720    9.6870 C   0  0  0  0  0  0  0  0  0  0  0  0
   -3.9550   -1.3370    9.9290 C   0  0  0  0  0  0  0  0  0  0  0  0
   -3.8400   -2.6520   10.4110 C   0  0  0  0  0  0  0  0  0  0  0  0
   -2.5880   -3.2250   10.6460 C   0  0  0  0  0  0  0  0  0  0  0  0
   -1.4300   -2.4790   10.4150 C   0  0  0  0  0  0  0  0  0  0  0  0
   -0.0670   -3.0450   10.6320 C   0  0  0  0  0  0  0  0  0  0  0  0
    0.3390   -3.1300   11.7860 O   0  0  0  0  0  0  0  0  0  0  0  0
    0.5830   -3.4580    9.4840 N   0  0  0  0  0  0  0  0  0  0  0  0
    1.8900   -3.9830    9.3790 C   0  0  0  0  0  0  0  0  0  0  0  0
    2.0520   -5.3420    9.6490 C   0  0  0  0  0  0  0  0  0  0  0  0
    3.3130   -5.9250    9.5600 C   0  0  0  0  0  0  0  0  0  0  0  0
    4.4180   -5.1510    9.1960 C   0  0  0  0  0  0  0  0  0  0  0  0
    4.3010   -3.7830    8.9080 C   0  0  0  0  0  0  0  0  0  0  0  0
    5.3990   -3.0210    8.5480 N   0  0  0  0  0  0  0  0  0  0  0  0
    6.5610   -3.5960    7.8510 C   0  0  0  0  0  0  0  0  0  0  0  0
    7.2370   -2.5270    6.9750 C   0  0  0  0  0  0  0  0  0  0  0  0
    7.6930   -1.3770    7.7010 O   0  0  0  0  0  0  0  0  0  0  0  0
    6.9090   -1.0980    8.8690 C   0  0  0  0  0  0  0  0  0  0  0  0
    5.4480   -1.5660    8.7750 C   0  0  0  0  0  0  0  0  0  0  0  0
    3.0110   -3.2260    9.0090 C   0  0  0  0  0  0  0  0  0  0  0  0
   -1.5350   -1.1700    9.9300 C   0  0  0  0  0  0  0  0  0  0  0  0
   -2.7880   -0.5780    9.6880 C   0  0  0  0  0  0  0  0  0  0  0  0
   -2.8280    0.8040    9.1810 C   0  0  0  0  0  0  0  0  0  0  0  0
   -1.8090    1.2710    8.3280 C   0  0  0  0  0  0  0  0  0  0  0  0
   -1.7920    2.5880    7.8400 C   0  0  0  0  0  0  0  0  0  0  0  0
   -2.8280    3.4520    8.2250 C   0  0  0  0  0  0  0  0  0  0  0  0
   -3.2030    4.8020    8.0030 C   0  0  0  0  0  0  0  0  0  0  0  0
   -2.5060    5.8490    7.1900 C   0  0  0  0  0  0  0  0  0  0  0  0
   -1.8470    5.2330    5.9420 C   0  0  0  0  0  0  0  0  0  0  0  0
   -1.0720    6.2650    5.1440 C   0  0  0  0  0  0  0  0  0  0  0  0
   -0.0870    6.9390    6.0380 N   0  0  0  0  0  0  0  0  0  0  0  0
   -0.7080    7.6320    7.2030 C   0  0  0  0  0  0  0  0  0  0  0  0
   -1.4760    6.6220    8.0350 C   0  0  0  0  0  0  0  0  0  0  0  0
   -4.3360    5.1120    8.6490 N   0  0  0  0  0  0  0  0  0  0  0  0
   -4.7180    3.9580    9.3130 O   0  0  0  0  0  0  0  0  0  0  0  0
   -3.8190    2.9690    9.0620 C   0  0  0  0  0  0  0  0  0  0  0  0
   -3.8660    1.6700    9.5640 C   0  0  0  0  0  0  0  0  0  0  0  0
   -5.8208   -0.5714   10.6518 H   0  0  0  0  0  0  0  0  0  0  0  0
   -5.2489    0.1647    9.1163 H   0  0  0  0  0  0  0  0  0  0  0  0
   -5.9308   -1.4971    9.1163 H   0  0  0  0  0  0  0  0  0  0  0  0
   -4.7496   -3.2389   10.6062 H   0  0  0  0  0  0  0  0  0  0  0  0
   -2.5143   -4.2598   11.0116 H   0  0  0  0  0  0  0  0  0  0  0  0
    0.0480   -3.4580    8.6260 H   0  0  0  0  0  0  0  0  0  0  0  0
    1.1826   -5.9534    9.9325 H   0  0  0  0  0  0  0  0  0  0  0  0
    3.4397   -6.9960    9.7764 H   0  0  0  0  0  0  0  0  0  0  0  0
    5.4074   -5.6277    9.1335 H   0  0  0  0  0  0  0  0  0  0  0  0
    7.2829   -3.9673    8.5933 H   0  0  0  0  0  0  0  0  0  0  0  0
    6.2222   -4.4235    7.2104 H   0  0  0  0  0  0  0  0  0  0  0  0
    8.1032   -2.9864    6.4763 H   0  0  0  0  0  0  0  0  0  0  0  0
    6.4762   -2.1720    6.2643 H   0  0  0  0  0  0  0  0  0  0  0  0
    7.3778   -1.6016    9.7273 H   0  0  0  0  0  0  0  0  0  0  0  0
    6.8835   -0.0037    8.9780 H   0  0  0  0  0  0  0  0  0  0  0  0
    4.9274   -1.3260    9.7138 H   0  0  0  0  0  0  0  0  0  0  0  0
    4.9575   -1.0526    7.9349 H   0  0  0  0  0  0  0  0  0  0  0  0
    2.8779   -2.1564    8.7892 H   0  0  0  0  0  0  0  0  0  0  0  0
   -0.6193   -0.5927    9.7342 H   0  0  0  0  0  0  0  0  0  0  0  0
   -1.0019    0.5833    8.0351 H   0  0  0  0  0  0  0  0  0  0  0  0
   -0.9876    2.9328    7.1736 H   0  0  0  0  0  0  0  0  0  0  0  0
   -3.2663    6.5683    6.8516 H   0  0  0  0  0  0  0  0  0  0  0  0
   -1.1568    4.4377    6.2601 H   0  0  0  0  0  0  0  0  0  0  0  0
   -2.6439    4.8322    5.2983 H   0  0  0  0  0  0  0  0  0  0  0  0
   -0.5402    5.7684    4.3191 H   0  0  0  0  0  0  0  0  0  0  0  0
   -1.7673    7.0111    4.7318 H   0  0  0  0  0  0  0  0  0  0  0  0
    0.6010    6.2470    6.3740 H   0  0  0  0  0  0  0  0  0  0  0  0
    0.4590    7.6190    5.4900 H   0  0  0  0  0  0  0  0  0  0  0  0
    0.0785    8.0932    7.8184 H   0  0  0  0  0  0  0  0  0  0  0  0
   -1.3947    8.4130    6.8445 H   0  0  0  0  0  0  0  0  0  0  0  0
   -0.7644    5.9058    8.4716 H   0  0  0  0  0  0  0  0  0  0  0  0
   -2.0192    7.1685    8.8200 H   0  0  0  0  0  0  0  0  0  0  0  0
   -4.6773    1.3383   10.2286 H   0  0  0  0  0  0  0  0  0  0  0  0
  1  2  1  0
  2  3  2  0
  3  4  1  0
  4  5  2  0
  5  6  1  0
  6  7  2  0
  6  8  1  0
  8  9  1  0
  9 10  2  0
 10 11  1  0
 11 12  2  0
 12 13  1  0
 13 14  1  0
 14 15  1  0
 15 16  1  0
 16 17  1  0
 17 18  1  0
 18 19  1  0
 13 20  2  0
  5 21  1  0
 21 22  2  0
 22 23  1  0
 23 24  2  0
 24 25  1  0
 25 26  2  0
 26 27  1  0
 27 28  1  0
 28 29  1  0
 29 30  1  0
 30 31  1  0
 31 32  1  0
 32 33  1  0
 27 34  2  0
 34 35  1  0
 35 36  1  0
 36 37  2  0
 22  2  1  0
 37 23  1  0
 20  9  1  0
 36 26  1  0
 19 14  1  0
 33 28  1  0
  1 38  1  0
  1 39  1  0
  1 40  1  0
  3 41  1  0
  4 42  1  0
  8 43  1  0
 10 44  1  0
 11 45  1  0
 12 46  1  0
 15 47  1  0
 15 48  1  0
 16 49  1  0
 16 50  1  0
 18 51  1  0
 18 52  1  0
 19 53  1  0
 19 54  1  0
 20 55  1  0
 21 56  1  0
 24 57  1  0
 25 58  1  0
 28 59  1  0
 29 60  1  0
 29 61  1  0
 30 62  1  0
 30 63  1  0
 31 64  1  0
 31 65  1  0
 32 66  1  0
 32 67  1  0
 33 68  1  0
 33 69  1  0
 37 70  1  0
M  CHG  1  31   1
M  END
>  <meeko>  (8) 
{"is_sidechain": [false], "free_energy": -8.056, "intermolecular_energy": -11.285, "internal_energy": -0.372}

$$$$
3e93_ligand
     RDKit          3D

 70 75  0  0  0  0  0  0  0  0999 V2000
   -4.8150    4.7490    9.5560 C   0  0  0  0  0  0  0  0  0  0  0  0
   -3.3710    4.4030    9.8130 C   0  0  0  0  0  0  0  0  0  0  0  0
   -2.3860    5.3690    9.5410 C   0  0  0  0  0  0  0  0  0  0  0  0
   -1.0340    5.1010    9.7670 C   0  0  0  0  0  0  0  0  0  0  0  0
   -0.6470    3.8510   10.2550 C   0  0  0  0  0  0  0  0  0  0  0  0
    0.7790    3.5150   10.5300 C   0  0  0  0  0  0  0  0  0  0  0  0
    1.3100    4.0340   11.5050 O   0  0  0  0  0  0  0  0  0  0  0  0
    1.3430    2.6030    9.6570 N   0  0  0  0  0  0  0  0  0  0  0  0
    2.6770    2.1400    9.6420 C   0  0  0  0  0  0  0  0  0  0  0  0
    3.6180    2.9360    8.9900 C   0  0  0  0  0  0  0  0  0  0  0  0
    4.9530    2.5430    8.9410 C   0  0  0  0  0  0  0  0  0  0  0  0
    5.3520    1.3500    9.5500 C   0  0  0  0  0  0  0  0  0  0  0  0
    4.4420    0.5220   10.2240 C   0  0  0  0  0  0  0  0  0  0  0  0
    4.8450   -0.6590   10.8260 N   0  0  0  0  0  0  0  0  0  0  0  0
    6.2530   -0.9380   11.1460 C   0  0  0  0  0  0  0  0  0  0  0  0
    6.3450   -1.8720   12.3660 C   0  0  0  0  0  0  0  0  0  0  0  0
    5.6830   -3.1320   12.1910 O   0  0  0  0  0  0  0  0  0  0  0  0
    4.5620   -3.0630   11.2980 C   0  0  0  0  0  0  0  0  0  0  0  0
    3.8790   -1.6870   11.2510 C   0  0  0  0  0  0  0  0  0  0  0  0
    3.1010    0.9510   10.2530 C   0  0  0  0  0  0  0  0  0  0  0  0
   -1.6220    2.8840   10.5320 C   0  0  0  0  0  0  0  0  0  0  0  0
   -2.9880    3.1370   10.3110 C   0  0  0  0  0  0  0  0  0  0  0  0
   -3.9610    2.0770   10.6220 C   0  0  0  0  0  0  0  0  0  0  0  0
   -3.9310    1.4410   11.8780 C   0  0  0  0  0  0  0  0  0  0  0  0
   -4.8230    0.4080   12.2110 C   0  0  0  0  0  0  0  0  0  0  0  0
   -5.7630    0.0070   11.2490 C   0  0  0  0  0  0  0  0  0  0  0  0
   -6.8020   -0.9520   11.1360 C   0  0  0  0  0  0  0  0  0  0  0  0
   -7.2600   -1.9630   12.1410 C   0  0  0  0  0  0  0  0  0  0  0  0
   -7.7150   -1.2810   13.4450 C   0  0  0  0  0  0  0  0  0  0  0  0
   -8.1120   -2.2940   14.5030 C   0  0  0  0  0  0  0  0  0  0  0  0
   -6.9870   -3.2480   14.7180 N   0  0  0  0  0  0  0  0  0  0  0  0
   -6.5920   -3.9980   13.4910 C   0  0  0  0  0  0  0  0  0  0  0  0
   -6.1690   -3.0130   12.4170 C   0  0  0  0  0  0  0  0  0  0  0  0
   -7.4000   -0.8920    9.9380 N   0  0  0  0  0  0  0  0  0  0  0  0
   -6.7490    0.1140    9.2420 O   0  0  0  0  0  0  0  0  0  0  0  0
   -5.7730    0.6490   10.0220 C   0  0  0  0  0  0  0  0  0  0  0  0
   -4.9040    1.6760    9.6610 C   0  0  0  0  0  0  0  0  0  0  0  0
   -5.3383    4.8744   10.5154 H   0  0  0  0  0  0  0  0  0  0  0  0
   -4.8711    5.6860    8.9825 H   0  0  0  0  0  0  0  0  0  0  0  0
   -5.2896    3.9392    8.9825 H   0  0  0  0  0  0  0  0  0  0  0  0
   -2.6848    6.3505    9.1443 H   0  0  0  0  0  0  0  0  0  0  0  0
   -0.2767    5.8718    9.5613 H   0  0  0  0  0  0  0  0  0  0  0  0
    0.7230    2.1560    8.9950 H   0  0  0  0  0  0  0  0  0  0  0  0
    3.3051    3.8766    8.5132 H   0  0  0  0  0  0  0  0  0  0  0  0
    5.6930    3.1710    8.4234 H   0  0  0  0  0  0  0  0  0  0  0  0
    6.4096    1.0518    9.4994 H   0  0  0  0  0  0  0  0  0  0  0  0
    6.7335   -1.4203   10.2820 H   0  0  0  0  0  0  0  0  0  0  0  0
    6.7629    0.0085   11.3789 H   0  0  0  0  0  0  0  0  0  0  0  0
    7.4078   -2.0661   12.5729 H   0  0  0  0  0  0  0  0  0  0  0  0
    5.8368   -1.3597   13.1962 H   0  0  0  0  0  0  0  0  0  0  0  0
    4.9122   -3.3093   10.2847 H   0  0  0  0  0  0  0  0  0  0  0  0
    3.8131   -3.7754   11.6744 H   0  0  0  0  0  0  0  0  0  0  0  0
    3.0434   -1.7193   10.5363 H   0  0  0  0  0  0  0  0  0  0  0  0
    3.5028   -1.4363   12.2538 H   0  0  0  0  0  0  0  0  0  0  0  0
    2.3579    0.3300   10.7747 H   0  0  0  0  0  0  0  0  0  0  0  0
   -1.3130    1.9065   10.9306 H   0  0  0  0  0  0  0  0  0  0  0  0
   -3.1865    1.7628   12.6210 H   0  0  0  0  0  0  0  0  0  0  0  0
   -4.7857   -0.0737   13.1992 H   0  0  0  0  0  0  0  0  0  0  0  0
   -8.1269   -2.4882   11.7135 H   0  0  0  0  0  0  0  0  0  0  0  0
   -6.8887   -0.6669   13.8325 H   0  0  0  0  0  0  0  0  0  0  0  0
   -8.5953   -0.6619   13.2175 H   0  0  0  0  0  0  0  0  0  0  0  0
   -8.3368   -1.7725   15.4451 H   0  0  0  0  0  0  0  0  0  0  0  0
   -9.0038   -2.8449   14.1696 H   0  0  0  0  0  0  0  0  0  0  0  0
   -6.1690   -2.7380   15.0890 H   0  0  0  0  0  0  0  0  0  0  0  0
   -7.2460   -3.9170   15.4570 H   0  0  0  0  0  0  0  0  0  0  0  0
   -5.7529   -4.6698   13.7249 H   0  0  0  0  0  0  0  0  0  0  0  0
   -7.4448   -4.5924   13.1313 H   0  0  0  0  0  0  0  0  0  0  0  0
   -5.2547   -2.4979   12.7468 H   0  0  0  0  0  0  0  0  0  0  0  0
   -5.9936   -3.5753   11.4880 H   0  0  0  0  0  0  0  0  0  0  0  0
   -4.9538    2.1508    8.6700 H   0  0  0  0  0  0  0  0  0  0  0  0
  1  2  1  0
  2  3  2  0
  3  4  1  0
  4  5  2  0
  5  6  1  0
  6  7  2  0
  6  8  1  0
  8  9  1  0
  9 10  2  0
 10 11  1  0
 11 12  2  0
 12 13  1  0
 13 14  1  0
 14 15  1  0
 15 16  1  0
 16 17  1  0
 17 18  1  0
 18 19  1  0
 13 20  2  0
  5 21  1  0
 21 22  2  0
 22 23  1  0
 23 24  2  0
 24 25  1  0
 25 26  2  0
 26 27  1  0
 27 28  1  0
 28 29  1  0
 29 30  1  0
 30 31  1  0
 31 32  1  0
 32 33  1  0
 27 34  2  0
 34 35  1  0
 35 36  1  0
 36 37  2  0
 22  2  1  0
 37 23  1  0
 20  9  1  0
 36 26  1  0
 19 14  1  0
 33 28  1  0
  1 38  1  0
  1 39  1  0
  1 40  1  0
  3 41  1  0
  4 42  1  0
  8 43  1  0
 10 44  1  0
 11 45  1  0
 12 46  1  0
 15 47  1  0
 15 48  1  0
 16 49  1  0
 16 50  1  0
 18 51  1  0
 18 52  1  0
 19 53  1  0
 19 54  1  0
 20 55  1  0
 21 56  1  0
 24 57  1  0
 25 58  1  0
 28 59  1  0
 29 60  1  0
 29 61  1  0
 30 62  1  0
 30 63  1  0
 31 64  1  0
 31 65  1  0
 32 66  1  0
 32 67  1  0
 33 68  1  0
 33 69  1  0
 37 70  1  0
M  CHG  1  31   1
M  END
>  <meeko>  (9) 
{"is_sidechain": [false], "free_energy": -8.029, "intermolecular_energy": -10.731, "internal_energy": -0.892}

$$$$
