
     RDKit          3D

 23 25  0  0  0  0  0  0  0  0999 V2000
    0.3080  -17.4900   -4.0670 O   0  0  0  0  0  0  0  0  0  0  0  0
    1.1400  -17.4810   -3.0030 C   0  0  0  0  0  0  0  0  0  0  0  0
    1.4360  -16.2810   -2.3380 C   0  0  0  0  0  0  0  0  0  0  0  0
    0.6350  -14.6470   -2.9040 Br  0  0  0  0  0  0  0  0  0  0  0  0
    2.3120  -16.2880   -1.2710 C   0  0  0  0  0  0  0  0  0  0  0  0
    2.8670  -17.4550   -0.8460 C   0  0  0  0  0  0  0  0  0  0  0  0
    3.9140  -17.4330    0.4870 Cl  0  0  0  0  0  0  0  0  0  0  0  0
    2.5690  -18.6600   -1.4850 C   0  0  0  0  0  0  0  0  0  0  0  0
    1.7080  -18.6750   -2.5650 C   0  0  0  0  0  0  0  0  0  0  0  0
    1.4030  -19.9710   -3.2170 C   0  0  0  0  0  0  0  0  0  0  0  0
    1.1880  -19.9770   -4.6660 N   0  0  0  0  0  0  0  0  0  0  0  0
    2.4330  -19.7360   -5.4200 C   0  0  0  0  0  0  0  0  0  0  0  0
    2.1730  -19.8140   -6.9270 C   0  0  0  0  0  0  0  0  0  0  0  0
    1.5460  -21.1410   -7.2990 C   0  0  2  0  0  0  0  0  0  0  0  0
    1.1340  -21.2540   -8.6900 N   0  0  0  0  0  0  0  0  0  0  0  0
    1.2010  -22.6820   -9.0870 C   0  0  0  0  0  0  0  0  0  0  0  0
    0.6880  -22.8930  -10.4900 C   0  0  0  0  0  0  0  0  0  0  0  0
    1.4650  -22.0620  -11.4990 C   0  0  1  0  0  0  0  0  0  0  0  0
    0.8820  -22.2100  -12.7810 O   0  0  0  0  0  0  0  0  0  0  0  0
    1.3950  -20.6080  -11.0630 C   0  0  0  0  0  0  0  0  0  0  0  0
    1.9160  -20.4300   -9.6450 C   0  0  0  0  0  0  0  0  0  0  0  0
    0.3100  -21.3710   -6.4780 C   0  0  0  0  0  0  0  0  0  0  0  0
    0.6170  -21.2850   -5.0010 C   0  0  0  0  0  0  0  0  0  0  0  0
  2  1  1  0
  3  2  2  0
  4  3  1  0
  5  3  1  0
  6  5  2  0
  7  6  1  0
  8  6  1  0
  9  8  2  0
  9  2  1  0
 10  9  1  0
 11 10  1  0
 12 11  1  0
 13 12  1  0
 14 13  1  0
 14 15  1  6
 16 15  1  0
 17 16  1  0
 18 17  1  0
 18 19  1  6
 20 18  1  0
 21 20  1  0
 21 15  1  0
 22 14  1  0
 23 22  1  0
 23 11  1  0
M  CHG  1  15   1
M  END
$$$$
