
     RDKit          3D

 32 36  0  0  0  0  0  0  0  0999 V2000
   -1.4220    2.2420   16.3420 C   0  0  0  0  0  0  0  0  0  0  0  0
   -0.0540    2.1280   17.0290 C   0  0  2  0  0  0  0  0  0  0  0  0
    0.0260    3.2120   18.1090 C   0  0  0  0  0  0  0  0  0  0  0  0
    0.1080    4.6230   17.4810 C   0  0  0  0  0  0  0  0  0  0  0  0
    1.3140    4.7190   16.5190 C   0  0  2  0  0  0  0  0  0  0  0  0
    1.5520    6.1060   15.9640 C   0  0  0  0  0  0  0  0  0  0  0  0
    1.2980    7.2430   16.7230 C   0  0  0  0  0  0  0  0  0  0  0  0
    1.5410    8.5150   16.2340 C   0  0  0  0  0  0  0  0  0  0  0  0
    2.0670    8.6830   14.9660 C   0  0  0  0  0  0  0  0  0  0  0  0
    2.2960    9.9350   14.4710 O   0  0  0  0  0  0  0  0  0  0  0  0
    2.3670    7.5780   14.1890 C   0  0  0  0  0  0  0  0  0  0  0  0
    2.1190    6.2900   14.6710 C   0  0  0  0  0  0  0  0  0  0  0  0
    2.4380    5.1310   13.8030 C   0  0  0  0  0  0  0  0  0  0  0  0
    2.3570    3.8030   14.4480 C   0  0  0  0  0  0  0  0  0  0  0  0
    1.1840    3.6760   15.4170 C   0  0  1  0  0  0  0  0  0  0  0  0
    1.1230    2.2980   16.0470 C   0  0  2  0  0  0  0  0  0  0  0  0
    1.0180    1.0650   15.1580 C   0  0  0  0  0  0  0  0  0  0  0  0
    0.5340   -0.0700   16.1060 C   0  0  0  0  0  0  0  0  0  0  0  0
    0.2040    0.6360   17.4680 C   0  0  2  0  0  0  0  0  0  0  0  0
   -0.9200    0.0450   18.0680 O   0  0  0  0  0  0  0  0  0  0  0  0
    1.3650    0.5600   18.4380 C   0  0  0  0  0  0  0  0  0  0  0  0
    2.6180    0.3100   18.0810 C   0  0  0  0  0  0  0  0  0  0  0  0
    3.7770    0.3130   18.9660 C   0  0  0  0  0  0  0  0  0  0  0  0
    3.6480    0.1130   20.3160 C   0  0  0  0  0  0  0  0  0  0  0  0
    4.7730    0.0990   21.1400 C   0  0  0  0  0  0  0  0  0  0  0  0
    6.0260    0.2800   20.5990 C   0  0  0  0  0  0  0  0  0  0  0  0
    6.1690    0.4950   19.2210 C   0  0  0  0  0  0  0  0  0  0  0  0
    5.0560    0.5280   18.3950 C   0  0  0  0  0  0  0  0  0  0  0  0
    5.2130    0.7810   16.9110 C   0  0  2  0  0  0  0  0  0  0  0  0
    4.5410    1.8880   16.5330 F   0  0  0  0  0  0  0  0  0  0  0  0
    4.7440   -0.2510   16.1960 F   0  0  0  0  0  0  0  0  0  0  0  0
    6.4740    0.9480   16.5570 F   0  0  0  0  0  0  0  0  0  0  0  0
  2  1  1  6
  3  2  1  0
  4  3  1  0
  5  4  1  6
  6  5  1  0
  7  6  2  0
  8  7  1  0
  9  8  2  0
 10  9  1  0
 11  9  1  0
 12 11  2  0
 12  6  1  0
 13 12  1  0
 14 13  1  0
 15 14  1  6
 15  5  1  0
 16 15  1  0
 16  2  1  0
 16 17  1  6
 18 17  1  0
 19 18  1  0
 19  2  1  0
 19 20  1  1
 21 19  1  0
 22 21  2  3
 23 22  1  0
 24 23  2  0
 25 24  1  0
 26 25  2  0
 27 26  1  0
 28 23  1  0
 28 27  2  0
 29 28  1  0
 29 30  1  6
 31 29  1  0
 32 29  1  0
M  END
$$$$
