
     RDKit          3D

 12 13  0  0  0  0  0  0  0  0999 V2000
    6.6540   -3.5060   -3.4650 C   0  0  0  0  0  0  0  0  0  0  0  0
    6.7620   -4.4610   -4.6360 C   0  0  0  0  0  0  0  0  0  0  0  0
    5.6900   -4.6920   -5.5090 C   0  0  0  0  0  0  0  0  0  0  0  0
    4.4750   -4.0570   -5.3330 N   0  0  0  0  0  0  0  0  0  0  0  0
    5.8140   -5.5530   -6.5420 N   0  0  0  0  0  0  0  0  0  0  0  0
    6.9850   -6.1970   -6.7410 C   0  0  0  0  0  0  0  0  0  0  0  0
    7.0690   -7.1350   -7.8900 C   0  0  1  0  0  0  0  0  0  0  0  0
    8.3870   -7.5190   -8.4380 C   0  0  0  0  0  0  0  0  0  0  0  0
    7.6060   -8.5140   -7.6290 C   0  0  0  0  0  0  0  0  0  0  0  0
    8.0430   -6.0110   -5.9400 N   0  0  0  0  0  0  0  0  0  0  0  0
    7.9400   -5.1600   -4.9010 C   0  0  0  0  0  0  0  0  0  0  0  0
    9.3470   -4.9780   -3.8920 Cl  0  0  0  0  0  0  0  0  0  0  0  0
  2  1  1  0
  3  2  2  0
  4  3  1  0
  5  3  1  0
  6  5  2  0
  7  6  1  1
  8  7  1  0
  9  8  1  0
  9  7  1  0
 10  6  1  0
 11 10  2  0
 11  2  1  0
 12 11  1  0
M  END
$$$$
