
     RDKit          3D

 19 20  0  0  0  0  0  0  0  0999 V2000
  -15.6760   12.7350  -27.4300 C   0  0  0  0  0  0  0  0  0  0  0  0
  -14.5650   13.6070  -27.1240 N   0  0  0  0  0  0  0  0  0  0  0  0
  -14.6700   14.6220  -26.2320 C   0  0  0  0  0  0  0  0  0  0  0  0
  -15.7150   14.8850  -25.6680 O   0  0  0  0  0  0  0  0  0  0  0  0
  -13.4270   15.4420  -26.0000 C   0  0  2  0  0  0  0  0  0  0  0  0
  -12.7520   15.0310  -24.6920 C   0  0  0  0  0  0  0  0  0  0  0  0
  -12.1940   16.3020  -24.1220 C   0  0  1  0  0  0  0  0  0  0  0  0
  -10.9440   16.5570  -24.7680 O   0  0  0  0  0  0  0  0  0  0  0  0
  -13.2050   17.3680  -24.5540 C   0  0  0  0  0  0  0  0  0  0  0  0
  -13.7270   16.8810  -25.8270 N   0  0  0  0  0  0  0  0  0  0  0  0
  -14.3630   17.6000  -26.7750 C   0  0  0  0  0  0  0  0  0  0  0  0
  -14.7790   17.0750  -27.8050 O   0  0  0  0  0  0  0  0  0  0  0  0
  -14.6110   19.0830  -26.6440 C   0  0  0  0  0  0  0  0  0  0  0  0
  -13.8670   19.7870  -27.7340 C   0  0  0  0  0  0  0  0  0  0  0  0
  -14.1410   19.7680  -29.0890 C   0  0  0  0  0  0  0  0  0  0  0  0
  -13.1120   20.5410  -29.6490 C   0  0  0  0  0  0  0  0  0  0  0  0
  -12.8840   20.8490  -31.0860 C   0  0  0  0  0  0  0  0  0  0  0  0
  -12.3090   20.9580  -28.6770 N   0  0  0  0  0  0  0  0  0  0  0  0
  -12.7480   20.5020  -27.4900 O   0  0  0  0  0  0  0  0  0  0  0  0
  2  1  1  0
  3  2  1  0
  4  3  2  0
  5  3  1  1
  6  5  1  0
  7  6  1  0
  7  8  1  6
  9  7  1  0
 10  5  1  0
 10  9  1  0
 11 10  1  0
 12 11  2  0
 13 11  1  0
 14 13  1  0
 15 14  2  0
 16 15  1  0
 17 16  1  0
 18 16  2  0
 19 18  1  0
 19 14  1  0
M  END
$$$$
