
     RDKit          3D

 36 39  0  0  0  0  0  0  0  0999 V2000
    6.2830    0.4260   -3.5820 O   0  0  0  0  0  0  0  0  0  0  0  0
    6.5300   -0.7730   -3.3830 C   0  0  0  0  0  0  0  0  0  0  0  0
    7.7930   -1.2440   -2.8960 C   0  0  0  0  0  0  0  0  0  0  0  0
    7.9960   -2.5940   -2.7000 C   0  0  0  0  0  0  0  0  0  0  0  0
    6.9600   -3.4920   -2.9760 C   0  0  0  0  0  0  0  0  0  0  0  0
    5.7200   -3.0010   -3.4310 C   0  0  0  0  0  0  0  0  0  0  0  0
    5.5320   -1.6840   -3.6380 N   0  0  0  0  0  0  0  0  0  0  0  0
    4.5510   -3.8920   -3.6940 C   0  0  0  0  0  0  0  0  0  0  0  0
    4.6870   -5.2230   -2.9950 C   0  0  0  0  0  0  0  0  0  0  0  0
    6.0490   -5.8350   -3.2610 C   0  0  0  0  0  0  0  0  0  0  0  0
    7.2190   -4.9640   -2.8270 C   0  0  2  0  0  0  0  0  0  0  0  0
    7.6410   -5.2910   -1.4740 N   0  0  0  0  0  0  0  0  0  0  0  0
    8.5280   -6.4410   -1.4430 C   0  0  0  0  0  0  0  0  0  0  0  0
    9.4840   -6.3570   -0.2930 C   0  0  0  0  0  0  0  0  0  0  0  0
    8.9030   -6.8270    1.0210 C   0  0  0  0  0  0  0  0  0  0  0  0
    9.9410   -6.6520    2.0710 C   0  0  0  0  0  0  0  0  0  0  0  0
    9.4540   -6.9480    3.4560 C   0  0  0  0  0  0  0  0  0  0  0  0
   10.2130   -6.1590    4.4910 C   0  0  0  0  0  0  0  0  0  0  0  0
   11.6960   -6.2030    4.2810 C   0  0  0  0  0  0  0  0  0  0  0  0
   12.3760   -5.1120    5.0520 C   0  0  0  0  0  0  0  0  0  0  0  0
   13.8430   -5.3870    5.2300 C   0  0  0  0  0  0  0  0  0  0  0  0
   14.3690   -4.5520    6.3460 C   0  0  0  0  0  0  0  0  0  0  0  0
   15.6390   -5.0850    6.9520 C   0  0  0  0  0  0  0  0  0  0  0  0
   15.6120   -4.8520    8.4330 C   0  0  0  0  0  0  0  0  0  0  0  0
   14.8910   -5.9280    9.0690 N   0  0  0  0  0  0  0  0  0  0  0  0
   14.0860   -5.5050   10.2180 C   0  0  2  0  0  0  0  0  0  0  0  0
   14.6940   -6.0630   11.4870 C   0  0  0  0  0  0  0  0  0  0  0  0
   13.7560   -5.9620   12.6760 C   0  0  0  0  0  0  0  0  0  0  0  0
   12.4920   -6.7810   12.4300 C   0  0  0  0  0  0  0  0  0  0  0  0
   11.8940   -6.5500   11.0730 C   0  0  0  0  0  0  0  0  0  0  0  0
   10.6000   -6.9300   10.8890 N   0  0  0  0  0  0  0  0  0  0  0  0
    9.9690   -6.7770    9.6530 C   0  0  0  0  0  0  0  0  0  0  0  0
    8.8000   -7.1530    9.5160 O   0  0  0  0  0  0  0  0  0  0  0  0
   10.6850   -6.1920    8.5890 C   0  0  0  0  0  0  0  0  0  0  0  0
   11.9940   -5.7930    8.7720 C   0  0  0  0  0  0  0  0  0  0  0  0
   12.6440   -5.9640   10.0260 C   0  0  0  0  0  0  0  0  0  0  0  0
  2  1  2  0
  3  2  1  0
  4  3  2  0
  5  4  1  0
  6  5  2  0
  7  6  1  0
  7  2  1  0
  8  6  1  0
  9  8  1  0
 10  9  1  0
 11 10  1  0
 11  5  1  0
 11 12  1  1
 13 12  1  0
 14 13  1  0
 15 14  1  0
 16 15  1  0
 17 16  1  0
 18 17  1  0
 19 18  1  0
 20 19  1  0
 21 20  1  0
 22 21  1  0
 23 22  1  0
 24 23  1  0
 25 24  1  0
 26 25  1  6
 27 26  1  0
 28 27  1  0
 29 28  1  0
 30 29  1  0
 31 30  1  0
 32 31  1  0
 33 32  2  0
 34 32  1  0
 35 34  2  0
 36 35  1  0
 36 26  1  0
 36 30  2  0
M  CHG  2  12   1  25   1
M  END
$$$$
