1ydt_ligand
     RDKit          3D

 48 50  0  0  0  0  0  0  0  0999 V2000
    3.8650   -7.3490    7.9030 O   0  0  0  0  0  0  0  0  0  0  0  0
    3.7260   -7.0770    6.4810 S   0  0  0  0  0  0  0  0  0  0  0  0
    2.5270   -6.4860    5.9450 O   0  0  0  0  0  0  0  0  0  0  0  0
    4.9710   -6.0000    6.1900 N   0  0  0  0  0  0  0  0  0  0  0  0
    4.8030   -4.8300    5.3180 C   0  0  0  0  0  0  0  0  0  0  0  0
    4.9860   -5.2260    3.8400 C   0  0  0  0  0  0  0  0  0  0  0  0
    3.6880   -5.6690    3.2350 N   0  0  0  0  0  0  0  0  0  0  0  0
    3.7280   -6.8730    2.3680 C   0  0  0  0  0  0  0  0  0  0  0  0
    4.7560   -6.7590    1.2920 C   0  0  0  0  0  0  0  0  0  0  0  0
    5.6100   -7.7420    0.9610 C   0  0  0  0  0  0  0  0  0  0  0  0
    6.6460   -7.6050   -0.0730 C   0  0  0  0  0  0  0  0  0  0  0  0
    6.3370   -7.5520   -1.4380 C   0  0  0  0  0  0  0  0  0  0  0  0
    7.3530   -7.4380   -2.3930 C   0  0  0  0  0  0  0  0  0  0  0  0
    8.6830   -7.3890   -1.9850 C   0  0  0  0  0  0  0  0  0  0  0  0
   10.0560   -7.2320   -3.2740 Br  0  0  0  0  0  0  0  0  0  0  0  0
    9.0070   -7.4580   -0.6330 C   0  0  0  0  0  0  0  0  0  0  0  0
    7.9910   -7.5720    0.3200 C   0  0  0  0  0  0  0  0  0  0  0  0
    4.1710   -8.5150    5.5480 C   0  0  0  0  0  0  0  0  0  0  0  0
    5.4830   -8.5710    5.0480 C   0  0  0  0  0  0  0  0  0  0  0  0
    5.8820   -9.6420    4.2580 C   0  0  0  0  0  0  0  0  0  0  0  0
    4.9760  -10.6560    3.9640 C   0  0  0  0  0  0  0  0  0  0  0  0
    3.6650  -10.6230    4.4710 C   0  0  0  0  0  0  0  0  0  0  0  0
    2.7610  -11.6460    4.1800 C   0  0  0  0  0  0  0  0  0  0  0  0
    1.4900  -11.6990    4.6330 N   0  0  0  0  0  0  0  0  0  0  0  0
    1.0970  -10.7020    5.4400 C   0  0  0  0  0  0  0  0  0  0  0  0
    1.9080   -9.6310    5.7880 C   0  0  0  0  0  0  0  0  0  0  0  0
    3.2330   -9.5560    5.2920 C   0  0  0  0  0  0  0  0  0  0  0  0
    5.8090   -6.1090    6.7670 H   0  0  0  0  0  0  0  0  0  0  0  0
    3.7939   -4.4155    5.4592 H   0  0  0  0  0  0  0  0  0  0  0  0
    5.5624   -4.0789    5.5811 H   0  0  0  0  0  0  0  0  0  0  0  0
    5.3658   -4.3587    3.2801 H   0  0  0  0  0  0  0  0  0  0  0  0
    5.6989   -6.0621    3.7881 H   0  0  0  0  0  0  0  0  0  0  0  0
    3.0020   -5.8700    3.9910 H   0  0  0  0  0  0  0  0  0  0  0  0
    3.2480   -4.8970    2.7220 H   0  0  0  0  0  0  0  0  0  0  0  0
    3.9618   -7.7497    2.9899 H   0  0  0  0  0  0  0  0  0  0  0  0
    2.7445   -6.9749    1.8860 H   0  0  0  0  0  0  0  0  0  0  0  0
    4.8183   -5.8120    0.7358 H   0  0  0  0  0  0  0  0  0  0  0  0
    5.5296   -8.7016    1.4927 H   0  0  0  0  0  0  0  0  0  0  0  0
    5.2869   -7.6004   -1.7619 H   0  0  0  0  0  0  0  0  0  0  0  0
    7.1017   -7.3873   -3.4627 H   0  0  0  0  0  0  0  0  0  0  0  0
   10.0596   -7.4229   -0.3156 H   0  0  0  0  0  0  0  0  0  0  0  0
    8.2491   -7.6364    1.3874 H   0  0  0  0  0  0  0  0  0  0  0  0
    6.1950   -7.7659    5.2823 H   0  0  0  0  0  0  0  0  0  0  0  0
    6.9091   -9.6880    3.8670 H   0  0  0  0  0  0  0  0  0  0  0  0
    5.2897  -11.4953    3.3259 H   0  0  0  0  0  0  0  0  0  0  0  0
    3.1086  -12.4672    3.5360 H   0  0  0  0  0  0  0  0  0  0  0  0
    0.0761  -10.7352    5.8482 H   0  0  0  0  0  0  0  0  0  0  0  0
    1.5222   -8.8406    6.4487 H   0  0  0  0  0  0  0  0  0  0  0  0
  1  2  2  0
  2  3  2  0
  2  4  1  0
  4  5  1  0
  5  6  1  0
  6  7  1  0
  7  8  1  0
  8  9  1  0
  9 10  2  0
 10 11  1  0
 11 12  2  0
 12 13  1  0
 13 14  2  0
 14 15  1  0
 14 16  1  0
 16 17  2  0
  2 18  1  0
 18 19  2  0
 19 20  1  0
 20 21  2  0
 21 22  1  0
 22 23  2  0
 23 24  1  0
 24 25  2  0
 25 26  1  0
 26 27  2  0
 17 11  1  0
 27 18  1  0
 27 22  1  0
  4 28  1  0
  5 29  1  0
  5 30  1  0
  6 31  1  0
  6 32  1  0
  7 33  1  0
  7 34  1  0
  8 35  1  0
  8 36  1  0
  9 37  1  0
 10 38  1  0
 12 39  1  0
 13 40  1  0
 16 41  1  0
 17 42  1  0
 19 43  1  0
 20 44  1  0
 21 45  1  0
 23 46  1  0
 25 47  1  0
 26 48  1  0
M  CHG  1   7   1
M  END
>  <meeko>  (1) 
{"is_sidechain": [false], "free_energy": -7.952, "intermolecular_energy": -11.671, "internal_energy": -1.46}

$$$$
1ydt_ligand
     RDKit          3D

 48 50  0  0  0  0  0  0  0  0999 V2000
    2.8650   -5.2100    5.4220 O   0  0  0  0  0  0  0  0  0  0  0  0
    4.1030   -5.9120    5.1200 S   0  0  0  0  0  0  0  0  0  0  0  0
    5.1940   -5.2510    4.4510 O   0  0  0  0  0  0  0  0  0  0  0  0
    4.6540   -6.3520    6.6350 N   0  0  0  0  0  0  0  0  0  0  0  0
    5.9840   -5.9660    7.1230 C   0  0  0  0  0  0  0  0  0  0  0  0
    7.0200   -7.0600    6.7970 C   0  0  0  0  0  0  0  0  0  0  0  0
    7.5190   -6.9270    5.3890 N   0  0  0  0  0  0  0  0  0  0  0  0
    7.2640   -8.0690    4.4760 C   0  0  0  0  0  0  0  0  0  0  0  0
    7.8100   -7.8310    3.1080 C   0  0  0  0  0  0  0  0  0  0  0  0
    7.0990   -7.9840    1.9780 C   0  0  0  0  0  0  0  0  0  0  0  0
    7.6580   -7.7860    0.6330 C   0  0  0  0  0  0  0  0  0  0  0  0
    6.8510   -7.5230   -0.4810 C   0  0  0  0  0  0  0  0  0  0  0  0
    7.4210   -7.3570   -1.7480 C   0  0  0  0  0  0  0  0  0  0  0  0
    8.8000   -7.4660   -1.9060 C   0  0  0  0  0  0  0  0  0  0  0  0
    9.5710   -7.2400   -3.6160 Br  0  0  0  0  0  0  0  0  0  0  0  0
    9.6140   -7.7450   -0.8110 C   0  0  0  0  0  0  0  0  0  0  0  0
    9.0430   -7.9110    0.4540 C   0  0  0  0  0  0  0  0  0  0  0  0
    3.7410   -7.4530    4.3260 C   0  0  0  0  0  0  0  0  0  0  0  0
    3.6120   -8.5820    5.1530 C   0  0  0  0  0  0  0  0  0  0  0  0
    3.3870   -9.8330    4.5920 C   0  0  0  0  0  0  0  0  0  0  0  0
    3.2940   -9.9630    3.2100 C   0  0  0  0  0  0  0  0  0  0  0  0
    3.4030   -8.8400    2.3710 C   0  0  0  0  0  0  0  0  0  0  0  0
    3.3010   -8.9720    0.9840 C   0  0  0  0  0  0  0  0  0  0  0  0
    3.3840   -7.9490    0.1080 N   0  0  0  0  0  0  0  0  0  0  0  0
    3.5500   -6.7230    0.6280 C   0  0  0  0  0  0  0  0  0  0  0  0
    3.6720   -6.4770    1.9880 C   0  0  0  0  0  0  0  0  0  0  0  0
    3.6140   -7.5500    2.9100 C   0  0  0  0  0  0  0  0  0  0  0  0
    3.9650   -6.7720    7.2640 H   0  0  0  0  0  0  0  0  0  0  0  0
    6.2873   -5.0254    6.6401 H   0  0  0  0  0  0  0  0  0  0  0  0
    5.9373   -5.8356    8.2142 H   0  0  0  0  0  0  0  0  0  0  0  0
    7.8696   -6.9684    7.4897 H   0  0  0  0  0  0  0  0  0  0  0  0
    6.5374   -8.0425    6.9059 H   0  0  0  0  0  0  0  0  0  0  0  0
    7.0920   -6.0890    4.9450 H   0  0  0  0  0  0  0  0  0  0  0  0
    8.5220   -6.7060    5.3840 H   0  0  0  0  0  0  0  0  0  0  0  0
    7.7374   -8.9694    4.8945 H   0  0  0  0  0  0  0  0  0  0  0  0
    6.1746   -8.1932    4.3874 H   0  0  0  0  0  0  0  0  0  0  0  0
    8.8586   -7.5107    3.0190 H   0  0  0  0  0  0  0  0  0  0  0  0
    6.0412   -8.2731    2.0642 H   0  0  0  0  0  0  0  0  0  0  0  0
    5.7605   -7.4463   -0.3589 H   0  0  0  0  0  0  0  0  0  0  0  0
    6.7816   -7.1410   -2.6166 H   0  0  0  0  0  0  0  0  0  0  0  0
   10.7026   -7.8344   -0.9412 H   0  0  0  0  0  0  0  0  0  0  0  0
    9.6857   -8.1417    1.3164 H   0  0  0  0  0  0  0  0  0  0  0  0
    3.6892   -8.4751    6.2451 H   0  0  0  0  0  0  0  0  0  0  0  0
    3.2828  -10.7172    5.2380 H   0  0  0  0  0  0  0  0  0  0  0  0
    3.1331  -10.9573    2.7679 H   0  0  0  0  0  0  0  0  0  0  0  0
    3.1417   -9.9815    0.5771 H   0  0  0  0  0  0  0  0  0  0  0  0
    3.5916   -5.8668   -0.0613 H   0  0  0  0  0  0  0  0  0  0  0  0
    3.8138   -5.4480    2.3501 H   0  0  0  0  0  0  0  0  0  0  0  0
  1  2  2  0
  2  3  2  0
  2  4  1  0
  4  5  1  0
  5  6  1  0
  6  7  1  0
  7  8  1  0
  8  9  1  0
  9 10  2  0
 10 11  1  0
 11 12  2  0
 12 13  1  0
 13 14  2  0
 14 15  1  0
 14 16  1  0
 16 17  2  0
  2 18  1  0
 18 19  2  0
 19 20  1  0
 20 21  2  0
 21 22  1  0
 22 23  2  0
 23 24  1  0
 24 25  2  0
 25 26  1  0
 26 27  2  0
 17 11  1  0
 27 18  1  0
 27 22  1  0
  4 28  1  0
  5 29  1  0
  5 30  1  0
  6 31  1  0
  6 32  1  0
  7 33  1  0
  7 34  1  0
  8 35  1  0
  8 36  1  0
  9 37  1  0
 10 38  1  0
 12 39  1  0
 13 40  1  0
 16 41  1  0
 17 42  1  0
 19 43  1  0
 20 44  1  0
 21 45  1  0
 23 46  1  0
 25 47  1  0
 26 48  1  0
M  CHG  1   7   1
M  END
>  <meeko>  (2) 
{"is_sidechain": [false], "free_energy": -7.85, "intermolecular_energy": -11.093, "internal_energy": -1.889}

$$$$
1ydt_ligand
     RDKit          3D

 48 50  0  0  0  0  0  0  0  0999 V2000
    2.1270   -9.1390    6.7130 O   0  0  0  0  0  0  0  0  0  0  0  0
    1.3220   -7.9990    6.3030 S   0  0  0  0  0  0  0  0  0  0  0  0
    1.7760   -6.6470    6.5100 O   0  0  0  0  0  0  0  0  0  0  0  0
    1.1850   -8.2200    4.6520 N   0  0  0  0  0  0  0  0  0  0  0  0
    1.6610   -9.4390    3.9870 C   0  0  0  0  0  0  0  0  0  0  0  0
    3.0270   -9.1920    3.3160 C   0  0  0  0  0  0  0  0  0  0  0  0
    2.9610   -8.0280    2.3720 N   0  0  0  0  0  0  0  0  0  0  0  0
    2.7040   -8.3370    0.9430 C   0  0  0  0  0  0  0  0  0  0  0  0
    3.9500   -8.2950    0.1230 C   0  0  0  0  0  0  0  0  0  0  0  0
    5.0440   -7.5900    0.4550 C   0  0  0  0  0  0  0  0  0  0  0  0
    6.2520   -7.5230   -0.3800 C   0  0  0  0  0  0  0  0  0  0  0  0
    7.5390   -7.4670    0.1700 C   0  0  0  0  0  0  0  0  0  0  0  0
    8.6630   -7.3880   -0.6600 C   0  0  0  0  0  0  0  0  0  0  0  0
    8.5020   -7.3530   -2.0420 C   0  0  0  0  0  0  0  0  0  0  0  0
   10.0190   -7.2480   -3.1630 Br  0  0  0  0  0  0  0  0  0  0  0  0
    7.2280   -7.3890   -2.6030 C   0  0  0  0  0  0  0  0  0  0  0  0
    6.1060   -7.4680   -1.7730 C   0  0  0  0  0  0  0  0  0  0  0  0
   -0.3340   -8.1870    6.9030 C   0  0  0  0  0  0  0  0  0  0  0  0
   -1.3430   -8.3770    5.9440 C   0  0  0  0  0  0  0  0  0  0  0  0
   -2.6710   -8.4730    6.3400 C   0  0  0  0  0  0  0  0  0  0  0  0
   -2.9960   -8.3770    7.6890 C   0  0  0  0  0  0  0  0  0  0  0  0
   -1.9970   -8.2060    8.6620 C   0  0  0  0  0  0  0  0  0  0  0  0
   -2.3260   -8.1180   10.0170 C   0  0  0  0  0  0  0  0  0  0  0  0
   -1.4310   -7.9630   11.0160 N   0  0  0  0  0  0  0  0  0  0  0  0
   -0.1370   -7.9200   10.6630 C   0  0  0  0  0  0  0  0  0  0  0  0
    0.3020   -7.9880    9.3490 C   0  0  0  0  0  0  0  0  0  0  0  0
   -0.6340   -8.1220    8.2940 C   0  0  0  0  0  0  0  0  0  0  0  0
    0.6180   -7.5330    4.1480 H   0  0  0  0  0  0  0  0  0  0  0  0
    1.7641  -10.2410    4.7327 H   0  0  0  0  0  0  0  0  0  0  0  0
    0.9335   -9.7293    3.2147 H   0  0  0  0  0  0  0  0  0  0  0  0
    3.7767   -8.9825    4.0932 H   0  0  0  0  0  0  0  0  0  0  0  0
    3.3039  -10.0904    2.7449 H   0  0  0  0  0  0  0  0  0  0  0  0
    2.2110   -7.3750    2.6760 H   0  0  0  0  0  0  0  0  0  0  0  0
    3.8100   -7.4570    2.4480 H   0  0  0  0  0  0  0  0  0  0  0  0
    2.2670   -9.3439    0.8716 H   0  0  0  0  0  0  0  0  0  0  0  0
    2.0166   -7.5728    0.5512 H   0  0  0  0  0  0  0  0  0  0  0  0
    3.9740   -8.8768   -0.8102 H   0  0  0  0  0  0  0  0  0  0  0  0
    5.0356   -7.0325    1.4032 H   0  0  0  0  0  0  0  0  0  0  0  0
    7.6672   -7.4853    1.2624 H   0  0  0  0  0  0  0  0  0  0  0  0
    9.6711   -7.3537   -0.2213 H   0  0  0  0  0  0  0  0  0  0  0  0
    7.1050   -7.3554   -3.6956 H   0  0  0  0  0  0  0  0  0  0  0  0
    5.0997   -7.4872   -2.2169 H   0  0  0  0  0  0  0  0  0  0  0  0
   -1.0810   -8.4498    4.8781 H   0  0  0  0  0  0  0  0  0  0  0  0
   -3.4617   -8.6242    5.5904 H   0  0  0  0  0  0  0  0  0  0  0  0
   -4.0500   -8.4358    7.9984 H   0  0  0  0  0  0  0  0  0  0  0  0
   -3.3900   -8.1794   10.2893 H   0  0  0  0  0  0  0  0  0  0  0  0
    0.6164   -7.8257   11.4589 H   0  0  0  0  0  0  0  0  0  0  0  0
    1.3780   -7.9378    9.1259 H   0  0  0  0  0  0  0  0  0  0  0  0
  1  2  2  0
  2  3  2  0
  2  4  1  0
  4  5  1  0
  5  6  1  0
  6  7  1  0
  7  8  1  0
  8  9  1  0
  9 10  2  0
 10 11  1  0
 11 12  2  0
 12 13  1  0
 13 14  2  0
 14 15  1  0
 14 16  1  0
 16 17  2  0
  2 18  1  0
 18 19  2  0
 19 20  1  0
 20 21  2  0
 21 22  1  0
 22 23  2  0
 23 24  1  0
 24 25  2  0
 25 26  1  0
 26 27  2  0
 17 11  1  0
 27 18  1  0
 27 22  1  0
  4 28  1  0
  5 29  1  0
  5 30  1  0
  6 31  1  0
  6 32  1  0
  7 33  1  0
  7 34  1  0
  8 35  1  0
  8 36  1  0
  9 37  1  0
 10 38  1  0
 12 39  1  0
 13 40  1  0
 16 41  1  0
 17 42  1  0
 19 43  1  0
 20 44  1  0
 21 45  1  0
 23 46  1  0
 25 47  1  0
 26 48  1  0
M  CHG  1   7   1
M  END
>  <meeko>  (3) 
{"is_sidechain": [false], "free_energy": -7.844, "intermolecular_energy": -12.396, "internal_energy": -0.577}

$$$$
1ydt_ligand
     RDKit          3D

 48 50  0  0  0  0  0  0  0  0999 V2000
    4.0220   -8.5130    1.3110 O   0  0  0  0  0  0  0  0  0  0  0  0
    4.7780   -7.3340    1.7020 S   0  0  0  0  0  0  0  0  0  0  0  0
    4.3930   -6.0170    1.2610 O   0  0  0  0  0  0  0  0  0  0  0  0
    4.6460   -7.3480    3.3680 N   0  0  0  0  0  0  0  0  0  0  0  0
    4.0180   -6.2470    4.1090 C   0  0  0  0  0  0  0  0  0  0  0  0
    3.6180   -6.7060    5.5260 C   0  0  0  0  0  0  0  0  0  0  0  0
    2.1560   -6.4800    5.7730 N   0  0  0  0  0  0  0  0  0  0  0  0
    1.4810   -7.4180    6.7040 C   0  0  0  0  0  0  0  0  0  0  0  0
    0.3710   -8.1670    6.0450 C   0  0  0  0  0  0  0  0  0  0  0  0
   -0.7820   -7.6040    5.6460 C   0  0  0  0  0  0  0  0  0  0  0  0
   -1.8850   -8.3580    5.0340 C   0  0  0  0  0  0  0  0  0  0  0  0
   -3.2190   -8.1800    5.4220 C   0  0  0  0  0  0  0  0  0  0  0  0
   -4.2390   -8.9300    4.8260 C   0  0  0  0  0  0  0  0  0  0  0  0
   -3.9250   -9.8690    3.8470 C   0  0  0  0  0  0  0  0  0  0  0  0
   -5.3020  -10.8800    3.0410 Br  0  0  0  0  0  0  0  0  0  0  0  0
   -2.6030  -10.0700    3.4630 C   0  0  0  0  0  0  0  0  0  0  0  0
   -1.5850   -9.3200    4.0600 C   0  0  0  0  0  0  0  0  0  0  0  0
    6.5040   -7.6000    1.4030 C   0  0  0  0  0  0  0  0  0  0  0  0
    7.3280   -7.7660    2.5280 C   0  0  0  0  0  0  0  0  0  0  0  0
    8.7000   -7.9200    2.3700 C   0  0  0  0  0  0  0  0  0  0  0  0
    9.2520   -7.9060    1.0930 C   0  0  0  0  0  0  0  0  0  0  0  0
    8.4380   -7.7580   -0.0440 C   0  0  0  0  0  0  0  0  0  0  0  0
    8.9940   -7.7510   -1.3250 C   0  0  0  0  0  0  0  0  0  0  0  0
    8.2870   -7.6250   -2.4680 N   0  0  0  0  0  0  0  0  0  0  0  0
    6.9550   -7.5260   -2.3430 C   0  0  0  0  0  0  0  0  0  0  0  0
    6.2970   -7.5130   -1.1220 C   0  0  0  0  0  0  0  0  0  0  0  0
    7.0360   -7.6160    0.0820 C   0  0  0  0  0  0  0  0  0  0  0  0
    4.8840   -8.2270    3.8340 H   0  0  0  0  0  0  0  0  0  0  0  0
    4.7292   -5.4114    4.1868 H   0  0  0  0  0  0  0  0  0  0  0  0
    3.1134   -5.9274    3.5708 H   0  0  0  0  0  0  0  0  0  0  0  0
    3.8390   -7.7783    5.6323 H   0  0  0  0  0  0  0  0  0  0  0  0
    4.1914   -6.1192    6.2587 H   0  0  0  0  0  0  0  0  0  0  0  0
    2.0110   -5.5240    6.1560 H   0  0  0  0  0  0  0  0  0  0  0  0
    1.6420   -6.4540    4.8850 H   0  0  0  0  0  0  0  0  0  0  0  0
    2.2219   -8.1398    7.0782 H   0  0  0  0  0  0  0  0  0  0  0  0
    1.0482   -6.8261    7.5240 H   0  0  0  0  0  0  0  0  0  0  0  0
    0.5049   -9.2456    5.8756 H   0  0  0  0  0  0  0  0  0  0  0  0
   -0.9070   -6.5200    5.7850 H   0  0  0  0  0  0  0  0  0  0  0  0
   -3.4669   -7.4446    6.2016 H   0  0  0  0  0  0  0  0  0  0  0  0
   -5.2853   -8.7783    5.1299 H   0  0  0  0  0  0  0  0  0  0  0  0
   -2.3594  -10.8163    2.6925 H   0  0  0  0  0  0  0  0  0  0  0  0
   -0.5392   -9.4866    3.7625 H   0  0  0  0  0  0  0  0  0  0  0  0
    6.8868   -7.7741    3.5356 H   0  0  0  0  0  0  0  0  0  0  0  0
    9.3464   -8.0523    3.2502 H   0  0  0  0  0  0  0  0  0  0  0  0
   10.3401   -8.0122    0.9711 H   0  0  0  0  0  0  0  0  0  0  0  0
   10.0858   -7.8556   -1.4086 H   0  0  0  0  0  0  0  0  0  0  0  0
    6.3513   -7.4510   -3.2594 H   0  0  0  0  0  0  0  0  0  0  0  0
    5.2012   -7.4227   -1.0887 H   0  0  0  0  0  0  0  0  0  0  0  0
  1  2  2  0
  2  3  2  0
  2  4  1  0
  4  5  1  0
  5  6  1  0
  6  7  1  0
  7  8  1  0
  8  9  1  0
  9 10  2  0
 10 11  1  0
 11 12  2  0
 12 13  1  0
 13 14  2  0
 14 15  1  0
 14 16  1  0
 16 17  2  0
  2 18  1  0
 18 19  2  0
 19 20  1  0
 20 21  2  0
 21 22  1  0
 22 23  2  0
 23 24  1  0
 24 25  2  0
 25 26  1  0
 26 27  2  0
 17 11  1  0
 27 18  1  0
 27 22  1  0
  4 28  1  0
  5 29  1  0
  5 30  1  0
  6 31  1  0
  6 32  1  0
  7 33  1  0
  7 34  1  0
  8 35  1  0
  8 36  1  0
  9 37  1  0
 10 38  1  0
 12 39  1  0
 13 40  1  0
 16 41  1  0
 17 42  1  0
 19 43  1  0
 20 44  1  0
 21 45  1  0
 23 46  1  0
 25 47  1  0
 26 48  1  0
M  CHG  1   7   1
M  END
>  <meeko>  (4) 
{"is_sidechain": [false], "free_energy": -7.746, "intermolecular_energy": -12.32, "internal_energy": -0.51}

$$$$
1ydt_ligand
     RDKit          3D

 48 50  0  0  0  0  0  0  0  0999 V2000
    4.0300   -8.5250    1.2930 O   0  0  0  0  0  0  0  0  0  0  0  0
    4.9330   -7.4900    1.7700 S   0  0  0  0  0  0  0  0  0  0  0  0
    4.5740   -6.0960    1.7090 O   0  0  0  0  0  0  0  0  0  0  0  0
    5.1140   -7.8760    3.3860 N   0  0  0  0  0  0  0  0  0  0  0  0
    4.2530   -8.8600    4.0530 C   0  0  0  0  0  0  0  0  0  0  0  0
    2.9680   -8.1890    4.5780 C   0  0  0  0  0  0  0  0  0  0  0  0
    1.7790   -8.5780    3.7500 N   0  0  0  0  0  0  0  0  0  0  0  0
    0.9210   -9.6670    4.2800 C   0  0  0  0  0  0  0  0  0  0  0  0
    0.6280   -9.4980    5.7330 C   0  0  0  0  0  0  0  0  0  0  0  0
   -0.3930   -8.7670    6.2140 C   0  0  0  0  0  0  0  0  0  0  0  0
   -0.6480   -8.5740    7.6480 C   0  0  0  0  0  0  0  0  0  0  0  0
    0.3870   -8.4780    8.5870 C   0  0  0  0  0  0  0  0  0  0  0  0
    0.1010   -8.3110    9.9460 C   0  0  0  0  0  0  0  0  0  0  0  0
   -1.2230   -8.2510   10.3720 C   0  0  0  0  0  0  0  0  0  0  0  0
   -1.6100   -8.0230   12.2070 Br  0  0  0  0  0  0  0  0  0  0  0  0
   -2.2630   -8.3630    9.4540 C   0  0  0  0  0  0  0  0  0  0  0  0
   -1.9760   -8.5300    8.0960 C   0  0  0  0  0  0  0  0  0  0  0  0
    6.5470   -7.7370    1.0830 C   0  0  0  0  0  0  0  0  0  0  0  0
    7.5880   -8.0190    1.9840 C   0  0  0  0  0  0  0  0  0  0  0  0
    8.8890   -8.1660    1.5210 C   0  0  0  0  0  0  0  0  0  0  0  0
    9.1560   -8.0300    0.1620 C   0  0  0  0  0  0  0  0  0  0  0  0
    8.1230   -7.7650   -0.7540 C   0  0  0  0  0  0  0  0  0  0  0  0
    8.3930   -7.6360   -2.1180 C   0  0  0  0  0  0  0  0  0  0  0  0
    7.4630   -7.3930   -3.0650 N   0  0  0  0  0  0  0  0  0  0  0  0
    6.1910   -7.2980   -2.6480 C   0  0  0  0  0  0  0  0  0  0  0  0
    5.8100   -7.4000   -1.3180 C   0  0  0  0  0  0  0  0  0  0  0  0
    6.7850   -7.6270   -0.3170 C   0  0  0  0  0  0  0  0  0  0  0  0
    5.9490   -7.5080    3.8500 H   0  0  0  0  0  0  0  0  0  0  0  0
    3.9819   -9.6485    3.3355 H   0  0  0  0  0  0  0  0  0  0  0  0
    4.8007   -9.2917    4.9037 H   0  0  0  0  0  0  0  0  0  0  0  0
    2.7988   -8.5018    5.6189 H   0  0  0  0  0  0  0  0  0  0  0  0
    3.0939   -7.0979    4.5180 H   0  0  0  0  0  0  0  0  0  0  0  0
    1.1630   -7.7510    3.6150 H   0  0  0  0  0  0  0  0  0  0  0  0
    2.0690   -8.8100    2.7930 H   0  0  0  0  0  0  0  0  0  0  0  0
   -0.0289   -9.6712    3.7253 H   0  0  0  0  0  0  0  0  0  0  0  0
    1.4632  -10.6157    4.1533 H   0  0  0  0  0  0  0  0  0  0  0  0
    1.2874  -10.0021    6.4549 H   0  0  0  0  0  0  0  0  0  0  0  0
   -1.0739   -8.2877    5.4952 H   0  0  0  0  0  0  0  0  0  0  0  0
    1.4335   -8.5344    8.2528 H   0  0  0  0  0  0  0  0  0  0  0  0
    0.9197   -8.2273   10.6759 H   0  0  0  0  0  0  0  0  0  0  0  0
   -3.3076   -8.3203    9.7959 H   0  0  0  0  0  0  0  0  0  0  0  0
   -2.7990   -8.6277    7.3727 H   0  0  0  0  0  0  0  0  0  0  0  0
    7.3720   -8.1234    3.0575 H   0  0  0  0  0  0  0  0  0  0  0  0
    9.7044   -8.3888    2.2249 H   0  0  0  0  0  0  0  0  0  0  0  0
   10.1896   -8.1313   -0.2005 H   0  0  0  0  0  0  0  0  0  0  0  0
    9.4385   -7.7399   -2.4437 H   0  0  0  0  0  0  0  0  0  0  0  0
    5.4078   -7.1301   -3.4019 H   0  0  0  0  0  0  0  0  0  0  0  0
    4.7497   -7.3044   -1.0410 H   0  0  0  0  0  0  0  0  0  0  0  0
  1  2  2  0
  2  3  2  0
  2  4  1  0
  4  5  1  0
  5  6  1  0
  6  7  1  0
  7  8  1  0
  8  9  1  0
  9 10  2  0
 10 11  1  0
 11 12  2  0
 12 13  1  0
 13 14  2  0
 14 15  1  0
 14 16  1  0
 16 17  2  0
  2 18  1  0
 18 19  2  0
 19 20  1  0
 20 21  2  0
 21 22  1  0
 22 23  2  0
 23 24  1  0
 24 25  2  0
 25 26  1  0
 26 27  2  0
 17 11  1  0
 27 18  1  0
 27 22  1  0
  4 28  1  0
  5 29  1  0
  5 30  1  0
  6 31  1  0
  6 32  1  0
  7 33  1  0
  7 34  1  0
  8 35  1  0
  8 36  1  0
  9 37  1  0
 10 38  1  0
 12 39  1  0
 13 40  1  0
 16 41  1  0
 17 42  1  0
 19 43  1  0
 20 44  1  0
 21 45  1  0
 23 46  1  0
 25 47  1  0
 26 48  1  0
M  CHG  1   7   1
M  END
>  <meeko>  (5) 
{"is_sidechain": [false], "free_energy": -7.745, "intermolecular_energy": -12.077, "internal_energy": -0.751}

$$$$
1ydt_ligand
     RDKit          3D

 48 50  0  0  0  0  0  0  0  0999 V2000
    4.0520   -8.4620    1.3420 O   0  0  0  0  0  0  0  0  0  0  0  0
    4.9430   -7.3720    1.7050 S   0  0  0  0  0  0  0  0  0  0  0  0
    4.5660   -5.9960    1.5010 O   0  0  0  0  0  0  0  0  0  0  0  0
    5.1340   -7.5850    3.3520 N   0  0  0  0  0  0  0  0  0  0  0  0
    4.0220   -7.4150    4.2940 C   0  0  0  0  0  0  0  0  0  0  0  0
    3.9500   -8.6080    5.2680 C   0  0  0  0  0  0  0  0  0  0  0  0
    4.3880   -8.2050    6.6450 N   0  0  0  0  0  0  0  0  0  0  0  0
    3.3270   -8.0750    7.6750 C   0  0  0  0  0  0  0  0  0  0  0  0
    1.9650   -7.9780    7.0730 C   0  0  0  0  0  0  0  0  0  0  0  0
    0.9100   -8.7050    7.4790 C   0  0  0  0  0  0  0  0  0  0  0  0
   -0.4170   -8.6310    6.8530 C   0  0  0  0  0  0  0  0  0  0  0  0
   -1.5900   -8.4670    7.6010 C   0  0  0  0  0  0  0  0  0  0  0  0
   -2.8360   -8.4180    6.9680 C   0  0  0  0  0  0  0  0  0  0  0  0
   -2.9140   -8.5460    5.5830 C   0  0  0  0  0  0  0  0  0  0  0  0
   -4.5970   -8.4780    4.7270 Br  0  0  0  0  0  0  0  0  0  0  0  0
   -1.7600   -8.7270    4.8270 C   0  0  0  0  0  0  0  0  0  0  0  0
   -0.5150   -8.7760    5.4620 C   0  0  0  0  0  0  0  0  0  0  0  0
    6.5580   -7.6690    1.0400 C   0  0  0  0  0  0  0  0  0  0  0  0
    7.5800   -7.9720    1.9550 C   0  0  0  0  0  0  0  0  0  0  0  0
    8.8820   -8.1590    1.5090 C   0  0  0  0  0  0  0  0  0  0  0  0
    9.1680   -8.0420    0.1520 C   0  0  0  0  0  0  0  0  0  0  0  0
    8.1540   -7.7570   -0.7780 C   0  0  0  0  0  0  0  0  0  0  0  0
    8.4430   -7.6480   -2.1400 C   0  0  0  0  0  0  0  0  0  0  0  0
    7.5310   -7.3880   -3.1000 N   0  0  0  0  0  0  0  0  0  0  0  0
    6.2580   -7.2550   -2.7000 C   0  0  0  0  0  0  0  0  0  0  0  0
    5.8580   -7.3340   -1.3730 C   0  0  0  0  0  0  0  0  0  0  0  0
    6.8150   -7.5790   -0.3590 C   0  0  0  0  0  0  0  0  0  0  0  0
    6.0250   -7.9880    3.6560 H   0  0  0  0  0  0  0  0  0  0  0  0
    4.1722   -6.4884    4.8675 H   0  0  0  0  0  0  0  0  0  0  0  0
    3.0810   -7.3625    3.7267 H   0  0  0  0  0  0  0  0  0  0  0  0
    2.9135   -8.9737    5.3128 H   0  0  0  0  0  0  0  0  0  0  0  0
    4.6223   -9.3988    4.9038 H   0  0  0  0  0  0  0  0  0  0  0  0
    5.0730   -8.8980    7.0100 H   0  0  0  0  0  0  0  0  0  0  0  0
    4.9340   -7.3370    6.6090 H   0  0  0  0  0  0  0  0  0  0  0  0
    3.3617   -8.9563    8.3323 H   0  0  0  0  0  0  0  0  0  0  0  0
    3.5142   -7.1482    8.2372 H   0  0  0  0  0  0  0  0  0  0  0  0
    1.8153   -7.2680    6.2463 H   0  0  0  0  0  0  0  0  0  0  0  0
    1.0477   -9.3929    8.3262 H   0  0  0  0  0  0  0  0  0  0  0  0
   -1.5305   -8.3760    8.6956 H   0  0  0  0  0  0  0  0  0  0  0  0
   -3.7515   -8.2788    7.5617 H   0  0  0  0  0  0  0  0  0  0  0  0
   -1.8267   -8.8312    3.7340 H   0  0  0  0  0  0  0  0  0  0  0  0
    0.3958   -8.9297    4.8646 H   0  0  0  0  0  0  0  0  0  0  0  0
    7.3487   -8.0613    3.0267 H   0  0  0  0  0  0  0  0  0  0  0  0
    9.6827   -8.3982    2.2243 H   0  0  0  0  0  0  0  0  0  0  0  0
   10.2026   -8.1745   -0.1974 H   0  0  0  0  0  0  0  0  0  0  0  0
    9.4889   -7.7838   -2.4526 H   0  0  0  0  0  0  0  0  0  0  0  0
    5.4888   -7.0734   -3.4651 H   0  0  0  0  0  0  0  0  0  0  0  0
    4.7977   -7.2063   -1.1095 H   0  0  0  0  0  0  0  0  0  0  0  0
  1  2  2  0
  2  3  2  0
  2  4  1  0
  4  5  1  0
  5  6  1  0
  6  7  1  0
  7  8  1  0
  8  9  1  0
  9 10  2  0
 10 11  1  0
 11 12  2  0
 12 13  1  0
 13 14  2  0
 14 15  1  0
 14 16  1  0
 16 17  2  0
  2 18  1  0
 18 19  2  0
 19 20  1  0
 20 21  2  0
 21 22  1  0
 22 23  2  0
 23 24  1  0
 24 25  2  0
 25 26  1  0
 26 27  2  0
 17 11  1  0
 27 18  1  0
 27 22  1  0
  4 28  1  0
  5 29  1  0
  5 30  1  0
  6 31  1  0
  6 32  1  0
  7 33  1  0
  7 34  1  0
  8 35  1  0
  8 36  1  0
  9 37  1  0
 10 38  1  0
 12 39  1  0
 13 40  1  0
 16 41  1  0
 17 42  1  0
 19 43  1  0
 20 44  1  0
 21 45  1  0
 23 46  1  0
 25 47  1  0
 26 48  1  0
M  CHG  1   7   1
M  END
>  <meeko>  (6) 
{"is_sidechain": [false], "free_energy": -7.731, "intermolecular_energy": -12.297, "internal_energy": -0.51}

$$$$
1ydt_ligand
     RDKit          3D

 48 50  0  0  0  0  0  0  0  0999 V2000
    1.5770   -9.0920    3.5590 O   0  0  0  0  0  0  0  0  0  0  0  0
    1.4910   -9.9210    4.7520 S   0  0  0  0  0  0  0  0  0  0  0  0
    1.3390  -11.3510    4.6610 O   0  0  0  0  0  0  0  0  0  0  0  0
    2.9560   -9.6340    5.5050 N   0  0  0  0  0  0  0  0  0  0  0  0
    3.8530   -8.5530    5.0770 C   0  0  0  0  0  0  0  0  0  0  0  0
    5.0480   -9.1230    4.2870 C   0  0  0  0  0  0  0  0  0  0  0  0
    6.3420   -8.8400    4.9900 N   0  0  0  0  0  0  0  0  0  0  0  0
    7.4050   -8.1730    4.1960 C   0  0  0  0  0  0  0  0  0  0  0  0
    7.0280   -8.0260    2.7600 C   0  0  0  0  0  0  0  0  0  0  0  0
    7.9120   -8.0160    1.7480 C   0  0  0  0  0  0  0  0  0  0  0  0
    7.5340   -7.8310    0.3400 C   0  0  0  0  0  0  0  0  0  0  0  0
    6.1970   -7.7670   -0.0730 C   0  0  0  0  0  0  0  0  0  0  0  0
    5.8790   -7.6060   -1.4260 C   0  0  0  0  0  0  0  0  0  0  0  0
    6.8980   -7.5190   -2.3710 C   0  0  0  0  0  0  0  0  0  0  0  0
    6.4680   -7.2990   -4.1980 Br  0  0  0  0  0  0  0  0  0  0  0  0
    8.2310   -7.5980   -1.9780 C   0  0  0  0  0  0  0  0  0  0  0  0
    8.5470   -7.7600   -0.6260 C   0  0  0  0  0  0  0  0  0  0  0  0
    0.2910   -9.2470    5.8670 C   0  0  0  0  0  0  0  0  0  0  0  0
    0.7090   -9.0130    7.1880 C   0  0  0  0  0  0  0  0  0  0  0  0
   -0.1960   -8.5410    8.1300 C   0  0  0  0  0  0  0  0  0  0  0  0
   -1.5160   -8.3050    7.7600 C   0  0  0  0  0  0  0  0  0  0  0  0
   -1.9450   -8.5180    6.4380 C   0  0  0  0  0  0  0  0  0  0  0  0
   -3.2690   -8.2730    6.0680 C   0  0  0  0  0  0  0  0  0  0  0  0
   -3.7610   -8.4400    4.8230 N   0  0  0  0  0  0  0  0  0  0  0  0
   -2.8940   -8.8460    3.8830 C   0  0  0  0  0  0  0  0  0  0  0  0
   -1.5600   -9.1270    4.1400 C   0  0  0  0  0  0  0  0  0  0  0  0
   -1.0450   -8.9810    5.4500 C   0  0  0  0  0  0  0  0  0  0  0  0
    3.1270  -10.1480    6.3730 H   0  0  0  0  0  0  0  0  0  0  0  0
    3.2964   -7.8532    4.4363 H   0  0  0  0  0  0  0  0  0  0  0  0
    4.2322   -8.0319    5.9684 H   0  0  0  0  0  0  0  0  0  0  0  0
    4.9250  -10.2113    4.1844 H   0  0  0  0  0  0  0  0  0  0  0  0
    5.0747   -8.6429    3.2977 H   0  0  0  0  0  0  0  0  0  0  0  0
    6.1650   -8.2360    5.8170 H   0  0  0  0  0  0  0  0  0  0  0  0
    6.7190   -9.6990    5.4060 H   0  0  0  0  0  0  0  0  0  0  0  0
    7.5882   -7.1739    4.6181 H   0  0  0  0  0  0  0  0  0  0  0  0
    8.3072   -8.8004    4.2456 H   0  0  0  0  0  0  0  0  0  0  0  0
    5.9610   -7.9193    2.5146 H   0  0  0  0  0  0  0  0  0  0  0  0
    8.9769   -8.1538    1.9866 H   0  0  0  0  0  0  0  0  0  0  0  0
    5.3912   -7.8439    0.6718 H   0  0  0  0  0  0  0  0  0  0  0  0
    4.8270   -7.5483   -1.7423 H   0  0  0  0  0  0  0  0  0  0  0  0
    9.0326   -7.5332   -2.7285 H   0  0  0  0  0  0  0  0  0  0  0  0
    9.6003   -7.8324   -0.3174 H   0  0  0  0  0  0  0  0  0  0  0  0
    1.7533   -9.2037    7.4762 H   0  0  0  0  0  0  0  0  0  0  0  0
    0.1296   -8.3546    9.1640 H   0  0  0  0  0  0  0  0  0  0  0  0
   -2.2343   -7.9467    8.5122 H   0  0  0  0  0  0  0  0  0  0  0  0
   -3.9600   -7.9186    6.8471 H   0  0  0  0  0  0  0  0  0  0  0  0
   -3.2609   -8.9624    2.8525 H   0  0  0  0  0  0  0  0  0  0  0  0
   -0.9022   -9.4635    3.3251 H   0  0  0  0  0  0  0  0  0  0  0  0
  1  2  2  0
  2  3  2  0
  2  4  1  0
  4  5  1  0
  5  6  1  0
  6  7  1  0
  7  8  1  0
  8  9  1  0
  9 10  2  0
 10 11  1  0
 11 12  2  0
 12 13  1  0
 13 14  2  0
 14 15  1  0
 14 16  1  0
 16 17  2  0
  2 18  1  0
 18 19  2  0
 19 20  1  0
 20 21  2  0
 21 22  1  0
 22 23  2  0
 23 24  1  0
 24 25  2  0
 25 26  1  0
 26 27  2  0
 17 11  1  0
 27 18  1  0
 27 22  1  0
  4 28  1  0
  5 29  1  0
  5 30  1  0
  6 31  1  0
  6 32  1  0
  7 33  1  0
  7 34  1  0
  8 35  1  0
  8 36  1  0
  9 37  1  0
 10 38  1  0
 12 39  1  0
 13 40  1  0
 16 41  1  0
 17 42  1  0
 19 43  1  0
 20 44  1  0
 21 45  1  0
 23 46  1  0
 25 47  1  0
 26 48  1  0
M  CHG  1   7   1
M  END
>  <meeko>  (7) 
{"is_sidechain": [false], "free_energy": -7.696, "intermolecular_energy": -12.258, "internal_energy": -0.499}

$$$$
1ydt_ligand
     RDKit          3D

 48 50  0  0  0  0  0  0  0  0999 V2000
    1.1010   -8.9660    3.8080 O   0  0  0  0  0  0  0  0  0  0  0  0
    1.1680   -8.7930    5.2510 S   0  0  0  0  0  0  0  0  0  0  0  0
    1.9480   -9.6790    6.0760 O   0  0  0  0  0  0  0  0  0  0  0  0
    1.8350   -7.2680    5.4070 N   0  0  0  0  0  0  0  0  0  0  0  0
    3.2170   -7.0650    5.8600 C   0  0  0  0  0  0  0  0  0  0  0  0
    4.1370   -6.7430    4.6650 C   0  0  0  0  0  0  0  0  0  0  0  0
    4.6070   -7.9990    3.9930 N   0  0  0  0  0  0  0  0  0  0  0  0
    6.0250   -8.3810    4.2030 C   0  0  0  0  0  0  0  0  0  0  0  0
    6.8560   -8.1640    2.9830 C   0  0  0  0  0  0  0  0  0  0  0  0
    6.3530   -7.8300    1.7820 C   0  0  0  0  0  0  0  0  0  0  0  0
    7.1770   -7.6580    0.5770 C   0  0  0  0  0  0  0  0  0  0  0  0
    6.6340   -7.2440   -0.6470 C   0  0  0  0  0  0  0  0  0  0  0  0
    7.4490   -7.1080   -1.7760 C   0  0  0  0  0  0  0  0  0  0  0  0
    8.8080   -7.3980   -1.6870 C   0  0  0  0  0  0  0  0  0  0  0  0
    9.9090   -7.2120   -3.2110 Br  0  0  0  0  0  0  0  0  0  0  0  0
    9.3590   -7.8280   -0.4830 C   0  0  0  0  0  0  0  0  0  0  0  0
    8.5430   -7.9630    0.6440 C   0  0  0  0  0  0  0  0  0  0  0  0
   -0.4660   -8.6200    5.9110 C   0  0  0  0  0  0  0  0  0  0  0  0
   -1.5240   -8.5510    4.9880 C   0  0  0  0  0  0  0  0  0  0  0  0
   -2.8250   -8.3560    5.4340 C   0  0  0  0  0  0  0  0  0  0  0  0
   -3.0740   -8.2270    6.7970 C   0  0  0  0  0  0  0  0  0  0  0  0
   -2.0300   -8.3120    7.7330 C   0  0  0  0  0  0  0  0  0  0  0  0
   -2.2840   -8.1890    9.1010 C   0  0  0  0  0  0  0  0  0  0  0  0
   -1.3450   -8.2680   10.0670 N   0  0  0  0  0  0  0  0  0  0  0  0
   -0.0870   -8.5070    9.6650 C   0  0  0  0  0  0  0  0  0  0  0  0
    0.2810   -8.6370    8.3330 C   0  0  0  0  0  0  0  0  0  0  0  0
   -0.6960   -8.5270    7.3140 C   0  0  0  0  0  0  0  0  0  0  0  0
    1.2870   -6.4930    5.0270 H   0  0  0  0  0  0  0  0  0  0  0  0
    3.2445   -6.2282    6.5735 H   0  0  0  0  0  0  0  0  0  0  0  0
    3.5716   -7.9877    6.3426 H   0  0  0  0  0  0  0  0  0  0  0  0
    3.5814   -6.1326    3.9379 H   0  0  0  0  0  0  0  0  0  0  0  0
    5.0155   -6.1956    5.0373 H   0  0  0  0  0  0  0  0  0  0  0  0
    4.0310   -8.8030    4.3140 H   0  0  0  0  0  0  0  0  0  0  0  0
    4.4110   -7.9620    2.9860 H   0  0  0  0  0  0  0  0  0  0  0  0
    6.4367   -7.7755    5.0239 H   0  0  0  0  0  0  0  0  0  0  0  0
    6.0527   -9.4542    4.4428 H   0  0  0  0  0  0  0  0  0  0  0  0
    7.9458   -8.2846    3.0717 H   0  0  0  0  0  0  0  0  0  0  0  0
    5.2670   -7.6773    1.6964 H   0  0  0  0  0  0  0  0  0  0  0  0
    5.5587   -7.0243   -0.7205 H   0  0  0  0  0  0  0  0  0  0  0  0
    7.0176   -6.7731   -2.7308 H   0  0  0  0  0  0  0  0  0  0  0  0
   10.4322   -8.0606   -0.4187 H   0  0  0  0  0  0  0  0  0  0  0  0
    8.9774   -8.3120    1.5924 H   0  0  0  0  0  0  0  0  0  0  0  0
   -1.3215   -8.6515    3.9115 H   0  0  0  0  0  0  0  0  0  0  0  0
   -3.6544   -8.3038    4.7133 H   0  0  0  0  0  0  0  0  0  0  0  0
   -4.1029   -8.0560    7.1464 H   0  0  0  0  0  0  0  0  0  0  0  0
   -3.3243   -8.0152    9.4134 H   0  0  0  0  0  0  0  0  0  0  0  0
    0.6947   -8.6052   10.4327 H   0  0  0  0  0  0  0  0  0  0  0  0
    1.3320   -8.8256    8.0689 H   0  0  0  0  0  0  0  0  0  0  0  0
  1  2  2  0
  2  3  2  0
  2  4  1  0
  4  5  1  0
  5  6  1  0
  6  7  1  0
  7  8  1  0
  8  9  1  0
  9 10  2  0
 10 11  1  0
 11 12  2  0
 12 13  1  0
 13 14  2  0
 14 15  1  0
 14 16  1  0
 16 17  2  0
  2 18  1  0
 18 19  2  0
 19 20  1  0
 20 21  2  0
 21 22  1  0
 22 23  2  0
 23 24  1  0
 24 25  2  0
 25 26  1  0
 26 27  2  0
 17 11  1  0
 27 18  1  0
 27 22  1  0
  4 28  1  0
  5 29  1  0
  5 30  1  0
  6 31  1  0
  6 32  1  0
  7 33  1  0
  7 34  1  0
  8 35  1  0
  8 36  1  0
  9 37  1  0
 10 38  1  0
 12 39  1  0
 13 40  1  0
 16 41  1  0
 17 42  1  0
 19 43  1  0
 20 44  1  0
 21 45  1  0
 23 46  1  0
 25 47  1  0
 26 48  1  0
M  CHG  1   7   1
M  END
>  <meeko>  (8) 
{"is_sidechain": [false], "free_energy": -7.663, "intermolecular_energy": -12.326, "internal_energy": -0.382}

$$$$
1ydt_ligand
     RDKit          3D

 48 50  0  0  0  0  0  0  0  0999 V2000
    5.1420   -6.9740    6.9970 O   0  0  0  0  0  0  0  0  0  0  0  0
    5.0410   -5.8020    6.1410 S   0  0  0  0  0  0  0  0  0  0  0  0
    4.3190   -4.6290    6.5610 O   0  0  0  0  0  0  0  0  0  0  0  0
    6.6380   -5.3480    5.9490 N   0  0  0  0  0  0  0  0  0  0  0  0
    7.6940   -5.8060    6.8610 C   0  0  0  0  0  0  0  0  0  0  0  0
    8.4450   -7.0100    6.2590 C   0  0  0  0  0  0  0  0  0  0  0  0
    8.2290   -7.0940    4.7780 N   0  0  0  0  0  0  0  0  0  0  0  0
    7.4680   -8.2650    4.2760 C   0  0  0  0  0  0  0  0  0  0  0  0
    7.1660   -8.1590    2.8180 C   0  0  0  0  0  0  0  0  0  0  0  0
    8.1010   -7.9900    1.8680 C   0  0  0  0  0  0  0  0  0  0  0  0
    7.7890   -7.8470    0.4380 C   0  0  0  0  0  0  0  0  0  0  0  0
    8.7860   -7.6750   -0.5310 C   0  0  0  0  0  0  0  0  0  0  0  0
    8.4470   -7.5260   -1.8800 C   0  0  0  0  0  0  0  0  0  0  0  0
    7.1080   -7.5360   -2.2620 C   0  0  0  0  0  0  0  0  0  0  0  0
    6.6500   -7.3370   -4.0840 Br  0  0  0  0  0  0  0  0  0  0  0  0
    6.1050   -7.6880   -1.3090 C   0  0  0  0  0  0  0  0  0  0  0  0
    6.4450   -7.8370    0.0390 C   0  0  0  0  0  0  0  0  0  0  0  0
    4.5300   -6.2870    4.5160 C   0  0  0  0  0  0  0  0  0  0  0  0
    4.8420   -5.4130    3.4620 C   0  0  0  0  0  0  0  0  0  0  0  0
    4.4200   -5.7020    2.1700 C   0  0  0  0  0  0  0  0  0  0  0  0
    3.6860   -6.8590    1.9270 C   0  0  0  0  0  0  0  0  0  0  0  0
    3.3820   -7.7520    2.9690 C   0  0  0  0  0  0  0  0  0  0  0  0
    2.6520   -8.9170    2.7210 C   0  0  0  0  0  0  0  0  0  0  0  0
    2.3250   -9.8320    3.6570 N   0  0  0  0  0  0  0  0  0  0  0  0
    2.7660   -9.6010    4.9040 C   0  0  0  0  0  0  0  0  0  0  0  0
    3.4910   -8.4740    5.2650 C   0  0  0  0  0  0  0  0  0  0  0  0
    3.8120   -7.4970    4.2920 C   0  0  0  0  0  0  0  0  0  0  0  0
    6.8690   -4.8620    5.0790 H   0  0  0  0  0  0  0  0  0  0  0  0
    8.4055   -4.9847    7.0320 H   0  0  0  0  0  0  0  0  0  0  0  0
    7.2334   -6.1139    7.8113 H   0  0  0  0  0  0  0  0  0  0  0  0
    9.5209   -6.8994    6.4596 H   0  0  0  0  0  0  0  0  0  0  0  0
    8.0585   -7.9301    6.7216 H   0  0  0  0  0  0  0  0  0  0  0  0
    7.7220   -6.2460    4.4510 H   0  0  0  0  0  0  0  0  0  0  0  0
    9.1250   -7.0340    4.2810 H   0  0  0  0  0  0  0  0  0  0  0  0
    8.0622   -9.1743    4.4494 H   0  0  0  0  0  0  0  0  0  0  0  0
    6.5110   -8.3026    4.8170 H   0  0  0  0  0  0  0  0  0  0  0  0
    6.1143   -8.2231    2.5022 H   0  0  0  0  0  0  0  0  0  0  0  0
    9.1564   -7.9568    2.1764 H   0  0  0  0  0  0  0  0  0  0  0  0
    9.8435   -7.6570   -0.2288 H   0  0  0  0  0  0  0  0  0  0  0  0
    9.2357   -7.4013   -2.6366 H   0  0  0  0  0  0  0  0  0  0  0  0
    5.0485   -7.6909   -1.6153 H   0  0  0  0  0  0  0  0  0  0  0  0
    5.6514   -7.9473    0.7927 H   0  0  0  0  0  0  0  0  0  0  0  0
    5.4210   -4.4988    3.6594 H   0  0  0  0  0  0  0  0  0  0  0  0
    4.6650   -5.0193    1.3430 H   0  0  0  0  0  0  0  0  0  0  0  0
    3.3392   -7.0775    0.9062 H   0  0  0  0  0  0  0  0  0  0  0  0
    2.3200   -9.1015    1.6886 H   0  0  0  0  0  0  0  0  0  0  0  0
    2.5404  -10.3455    5.6817 H   0  0  0  0  0  0  0  0  0  0  0  0
    3.8163   -8.3398    6.3072 H   0  0  0  0  0  0  0  0  0  0  0  0
  1  2  2  0
  2  3  2  0
  2  4  1  0
  4  5  1  0
  5  6  1  0
  6  7  1  0
  7  8  1  0
  8  9  1  0
  9 10  2  0
 10 11  1  0
 11 12  2  0
 12 13  1  0
 13 14  2  0
 14 15  1  0
 14 16  1  0
 16 17  2  0
  2 18  1  0
 18 19  2  0
 19 20  1  0
 20 21  2  0
 21 22  1  0
 22 23  2  0
 23 24  1  0
 24 25  2  0
 25 26  1  0
 26 27  2  0
 17 11  1  0
 27 18  1  0
 27 22  1  0
  4 28  1  0
  5 29  1  0
  5 30  1  0
  6 31  1  0
  6 32  1  0
  7 33  1  0
  7 34  1  0
  8 35  1  0
  8 36  1  0
  9 37  1  0
 10 38  1  0
 12 39  1  0
 13 40  1  0
 16 41  1  0
 17 42  1  0
 19 43  1  0
 20 44  1  0
 21 45  1  0
 23 46  1  0
 25 47  1  0
 26 48  1  0
M  CHG  1   7   1
M  END
>  <meeko>  (9) 
{"is_sidechain": [false], "free_energy": -7.642, "intermolecular_energy": -11.336, "internal_energy": -1.34}

$$$$
