2al5_ligand
     RDKit          3D

 23 23  0  0  0  0  0  0  0  0999 V2000
   -3.4240   13.1720    3.8770 N   0  0  0  0  0  0  0  0  0  0  0  0
   -4.8440   13.6190    3.5770 C   0  0  1  0  0  0  0  0  0  0  0  0
   -5.4690   14.3960    4.7430 C   0  0  0  0  0  0  0  0  0  0  0  0
   -6.4340   13.6500    5.5710 N   0  0  0  0  0  0  0  0  0  0  0  0
   -5.9920   13.0600    6.7460 C   0  0  0  0  0  0  0  0  0  0  0  0
   -6.8210   12.3920    7.5480 C   0  0  0  0  0  0  0  0  0  0  0  0
   -6.4160   11.8180    8.6950 F   0  0  0  0  0  0  0  0  0  0  0  0
   -8.2480   12.2750    7.1910 C   0  0  0  0  0  0  0  0  0  0  0  0
   -9.0670   11.6860    7.8870 O   0  0  0  0  0  0  0  0  0  0  0  0
   -8.6010   12.8810    6.0120 N   0  0  0  0  0  0  0  0  0  0  0  0
   -7.7520   13.5280    5.1550 C   0  0  0  0  0  0  0  0  0  0  0  0
   -8.1360   13.9400    4.0580 O   0  0  0  0  0  0  0  0  0  0  0  0
   -4.8590   14.5120    2.3160 C   0  0  0  0  0  0  0  0  0  0  0  0
   -5.7270   15.4340    2.4560 O   0  0  0  0  0  0  0  0  0  0  0  0
   -4.0760   14.2120    1.3890 O   0  0  0  0  0  0  0  0  0  0  0  0
   -2.9030   14.0730    3.7390 H   0  0  0  0  0  0  0  0  0  0  0  0
   -3.0440   12.5170    3.1950 H   0  0  0  0  0  0  0  0  0  0  0  0
   -3.2670   12.8720    4.8520 H   0  0  0  0  0  0  0  0  0  0  0  0
   -5.4405   12.7093    3.4141 H   0  0  0  0  0  0  0  0  0  0  0  0
   -4.6529   14.7338    5.3986 H   0  0  0  0  0  0  0  0  0  0  0  0
   -6.0424   15.2137    4.2820 H   0  0  0  0  0  0  0  0  0  0  0  0
   -4.9308   13.1455    7.0228 H   0  0  0  0  0  0  0  0  0  0  0  0
   -9.5630   12.7790    5.7320 H   0  0  0  0  0  0  0  0  0  0  0  0
  1  2  1  0
  2  3  1  0
  3  4  1  0
  4  5  1  0
  5  6  2  0
  6  7  1  0
  6  8  1  0
  8  9  2  0
  8 10  1  0
 10 11  1  0
 11 12  2  0
  2 13  1  0
 13 14  2  0
 13 15  1  0
 11  4  1  0
  1 16  1  0
  1 17  1  0
  1 18  1  0
  2 19  1  6
  3 20  1  0
  3 21  1  0
  5 22  1  0
 10 23  1  0
M  CHG  2   1   1  15  -1
M  END
>  <meeko>  (1) 
{"is_sidechain": [false], "free_energy": -6.146, "intermolecular_energy": -7.404, "internal_energy": -0.258}

$$$$
2al5_ligand
     RDKit          3D

 23 23  0  0  0  0  0  0  0  0999 V2000
   -3.7890   13.1610    3.4920 N   0  0  0  0  0  0  0  0  0  0  0  0
   -5.0980   13.7800    3.0330 C   0  0  1  0  0  0  0  0  0  0  0  0
   -5.7050   14.7100    4.0910 C   0  0  0  0  0  0  0  0  0  0  0  0
   -6.6480   14.0840    5.0360 N   0  0  0  0  0  0  0  0  0  0  0  0
   -8.0060   14.1390    4.7600 C   0  0  0  0  0  0  0  0  0  0  0  0
   -8.9060   13.5720    5.5640 C   0  0  0  0  0  0  0  0  0  0  0  0
  -10.2270   13.6080    5.3140 F   0  0  0  0  0  0  0  0  0  0  0  0
   -8.4590   12.8600    6.7760 C   0  0  0  0  0  0  0  0  0  0  0  0
   -9.2290   12.3070    7.5520 O   0  0  0  0  0  0  0  0  0  0  0  0
   -7.1010   12.8580    6.9780 N   0  0  0  0  0  0  0  0  0  0  0  0
   -6.1700   13.4760    6.1880 C   0  0  0  0  0  0  0  0  0  0  0  0
   -4.9810   13.5220    6.5110 O   0  0  0  0  0  0  0  0  0  0  0  0
   -4.8730   14.5820    1.7320 C   0  0  0  0  0  0  0  0  0  0  0  0
   -5.7990   15.4460    1.5980 O   0  0  0  0  0  0  0  0  0  0  0  0
   -3.8840   14.2790    1.0310 O   0  0  0  0  0  0  0  0  0  0  0  0
   -3.3920   12.8440    2.5730 H   0  0  0  0  0  0  0  0  0  0  0  0
   -3.9040   12.3210    4.0570 H   0  0  0  0  0  0  0  0  0  0  0  0
   -3.1190   13.8320    3.9010 H   0  0  0  0  0  0  0  0  0  0  0  0
   -5.8025   12.9530    2.8605 H   0  0  0  0  0  0  0  0  0  0  0  0
   -4.8783   15.1401    4.6754 H   0  0  0  0  0  0  0  0  0  0  0  0
   -6.2937   15.4519    3.5316 H   0  0  0  0  0  0  0  0  0  0  0  0
   -8.3490   14.6632    3.8558 H   0  0  0  0  0  0  0  0  0  0  0  0
   -6.7790   12.4100    7.8210 H   0  0  0  0  0  0  0  0  0  0  0  0
  1  2  1  0
  2  3  1  0
  3  4  1  0
  4  5  1  0
  5  6  2  0
  6  7  1  0
  6  8  1  0
  8  9  2  0
  8 10  1  0
 10 11  1  0
 11 12  2  0
  2 13  1  0
 13 14  2  0
 13 15  1  0
 11  4  1  0
  1 16  1  0
  1 17  1  0
  1 18  1  0
  2 19  1  6
  3 20  1  0
  3 21  1  0
  5 22  1  0
 10 23  1  0
M  CHG  2   1   1  15  -1
M  END
>  <meeko>  (2) 
{"is_sidechain": [false], "free_energy": -6.101, "intermolecular_energy": -7.19, "internal_energy": -0.418}

$$$$
2al5_ligand
     RDKit          3D

 23 23  0  0  0  0  0  0  0  0999 V2000
   -7.9710   11.5380    7.4280 N   0  0  0  0  0  0  0  0  0  0  0  0
   -6.7490   12.4130    7.2080 C   0  0  1  0  0  0  0  0  0  0  0  0
   -7.1100   13.7760    6.6050 C   0  0  0  0  0  0  0  0  0  0  0  0
   -6.8710   13.9240    5.1580 N   0  0  0  0  0  0  0  0  0  0  0  0
   -5.5780   14.1550    4.7130 C   0  0  0  0  0  0  0  0  0  0  0  0
   -5.2950   14.2750    3.4160 C   0  0  0  0  0  0  0  0  0  0  0  0
   -4.0470   14.4930    2.9620 F   0  0  0  0  0  0  0  0  0  0  0  0
   -6.3750   14.1560    2.4180 C   0  0  0  0  0  0  0  0  0  0  0  0
   -6.1850   14.2440    1.2110 O   0  0  0  0  0  0  0  0  0  0  0  0
   -7.6240   13.9340    2.9410 N   0  0  0  0  0  0  0  0  0  0  0  0
   -7.9360   13.8570    4.2710 C   0  0  0  0  0  0  0  0  0  0  0  0
   -9.1050   13.7740    4.6530 O   0  0  0  0  0  0  0  0  0  0  0  0
   -6.0150   12.6380    8.5490 C   0  0  0  0  0  0  0  0  0  0  0  0
   -6.2810   11.6820    9.3470 O   0  0  0  0  0  0  0  0  0  0  0  0
   -5.3190   13.6710    8.6590 O   0  0  0  0  0  0  0  0  0  0  0  0
   -8.2370   11.3240    6.4350 H   0  0  0  0  0  0  0  0  0  0  0  0
   -8.7640   12.0300    7.8360 H   0  0  0  0  0  0  0  0  0  0  0  0
   -7.7740   10.6380    7.8940 H   0  0  0  0  0  0  0  0  0  0  0  0
   -6.0987   11.8853    6.4948 H   0  0  0  0  0  0  0  0  0  0  0  0
   -8.1798   13.9535    6.7897 H   0  0  0  0  0  0  0  0  0  0  0  0
   -6.4436   14.5028    7.0924 H   0  0  0  0  0  0  0  0  0  0  0  0
   -4.7652   14.2414    5.4492 H   0  0  0  0  0  0  0  0  0  0  0  0
   -8.3810   13.8890    2.2770 H   0  0  0  0  0  0  0  0  0  0  0  0
  1  2  1  0
  2  3  1  0
  3  4  1  0
  4  5  1  0
  5  6  2  0
  6  7  1  0
  6  8  1  0
  8  9  2  0
  8 10  1  0
 10 11  1  0
 11 12  2  0
  2 13  1  0
 13 14  2  0
 13 15  1  0
 11  4  1  0
  1 16  1  0
  1 17  1  0
  1 18  1  0
  2 19  1  6
  3 20  1  0
  3 21  1  0
  5 22  1  0
 10 23  1  0
M  CHG  2   1   1  15  -1
M  END
>  <meeko>  (3) 
{"is_sidechain": [false], "free_energy": -6.058, "intermolecular_energy": -7.258, "internal_energy": -0.298}

$$$$
2al5_ligand
     RDKit          3D

 23 23  0  0  0  0  0  0  0  0999 V2000
  -11.4780   10.3160   -2.3010 N   0  0  0  0  0  0  0  0  0  0  0  0
  -11.4130    8.9280   -2.9160 C   0  0  1  0  0  0  0  0  0  0  0  0
  -10.9240    7.8710   -1.9180 C   0  0  0  0  0  0  0  0  0  0  0  0
   -9.6670    7.1850   -2.2700 N   0  0  0  0  0  0  0  0  0  0  0  0
   -9.6970    5.8200   -2.5160 C   0  0  0  0  0  0  0  0  0  0  0  0
   -8.5990    5.1480   -2.8610 C   0  0  0  0  0  0  0  0  0  0  0  0
   -8.6060    3.8260   -3.1100 F   0  0  0  0  0  0  0  0  0  0  0  0
   -7.3150    5.8620   -2.9930 C   0  0  0  0  0  0  0  0  0  0  0  0
   -6.2700    5.3100   -3.3170 O   0  0  0  0  0  0  0  0  0  0  0  0
   -7.3710    7.2070   -2.7260 N   0  0  0  0  0  0  0  0  0  0  0  0
   -8.4800    7.9010   -2.3250 C   0  0  0  0  0  0  0  0  0  0  0  0
   -8.4120    9.0860   -1.9920 O   0  0  0  0  0  0  0  0  0  0  0  0
  -12.8080    8.5170   -3.4350 C   0  0  0  0  0  0  0  0  0  0  0  0
  -13.4510    9.5550   -3.8010 O   0  0  0  0  0  0  0  0  0  0  0  0
  -13.0980    7.3020   -3.4110 O   0  0  0  0  0  0  0  0  0  0  0  0
  -11.5030   10.9110   -3.1660 H   0  0  0  0  0  0  0  0  0  0  0  0
  -10.6350   10.5850   -1.7960 H   0  0  0  0  0  0  0  0  0  0  0  0
  -12.3430   10.5080   -1.7710 H   0  0  0  0  0  0  0  0  0  0  0  0
  -10.6907    8.9762   -3.7442 H   0  0  0  0  0  0  0  0  0  0  0  0
  -10.7768    8.3668   -0.9472 H   0  0  0  0  0  0  0  0  0  0  0  0
  -11.6975    7.0890   -1.9101 H   0  0  0  0  0  0  0  0  0  0  0  0
  -10.6504    5.2791   -2.4241 H   0  0  0  0  0  0  0  0  0  0  0  0
   -6.4960    7.7050   -2.7730 H   0  0  0  0  0  0  0  0  0  0  0  0
  1  2  1  0
  2  3  1  0
  3  4  1  0
  4  5  1  0
  5  6  2  0
  6  7  1  0
  6  8  1  0
  8  9  2  0
  8 10  1  0
 10 11  1  0
 11 12  2  0
  2 13  1  0
 13 14  2  0
 13 15  1  0
 11  4  1  0
  1 16  1  0
  1 17  1  0
  1 18  1  0
  2 19  1  6
  3 20  1  0
  3 21  1  0
  5 22  1  0
 10 23  1  0
M  CHG  2   1   1  15  -1
M  END
>  <meeko>  (4) 
{"is_sidechain": [false], "free_energy": -6.035, "intermolecular_energy": -7.28, "internal_energy": -0.249}

$$$$
2al5_ligand
     RDKit          3D

 23 23  0  0  0  0  0  0  0  0999 V2000
   -7.5080   14.9440    8.1190 N   0  0  0  0  0  0  0  0  0  0  0  0
   -7.0680   14.4810    6.7410 C   0  0  1  0  0  0  0  0  0  0  0  0
   -5.7170   15.0810    6.3290 C   0  0  0  0  0  0  0  0  0  0  0  0
   -5.2850   14.8070    4.9470 N   0  0  0  0  0  0  0  0  0  0  0  0
   -6.0550   15.2860    3.8970 C   0  0  0  0  0  0  0  0  0  0  0  0
   -5.7040   15.0910    2.6260 C   0  0  0  0  0  0  0  0  0  0  0  0
   -6.4320   15.5510    1.5930 F   0  0  0  0  0  0  0  0  0  0  0  0
   -4.4660   14.3520    2.3140 C   0  0  0  0  0  0  0  0  0  0  0  0
   -4.0780   14.1450    1.1710 O   0  0  0  0  0  0  0  0  0  0  0  0
   -3.7670   13.9070    3.4080 N   0  0  0  0  0  0  0  0  0  0  0  0
   -4.1390   14.0580    4.7160 C   0  0  0  0  0  0  0  0  0  0  0  0
   -3.5090   13.5220    5.6310 O   0  0  0  0  0  0  0  0  0  0  0  0
   -6.9600   12.9400    6.7140 C   0  0  0  0  0  0  0  0  0  0  0  0
   -7.7700   12.4710    5.8500 O   0  0  0  0  0  0  0  0  0  0  0  0
   -6.1540   12.4050    7.5050 O   0  0  0  0  0  0  0  0  0  0  0  0
   -6.8820   15.7770    8.2530 H   0  0  0  0  0  0  0  0  0  0  0  0
   -7.2790   14.2920    8.8680 H   0  0  0  0  0  0  0  0  0  0  0  0
   -8.4820   15.2820    8.1650 H   0  0  0  0  0  0  0  0  0  0  0  0
   -7.8283   14.8281    6.0259 H   0  0  0  0  0  0  0  0  0  0  0  0
   -5.7815   16.1722    6.4517 H   0  0  0  0  0  0  0  0  0  0  0  0
   -4.9683   14.5998    6.9755 H   0  0  0  0  0  0  0  0  0  0  0  0
   -6.9786   15.8408    4.1190 H   0  0  0  0  0  0  0  0  0  0  0  0
   -2.9380   13.3660    3.2150 H   0  0  0  0  0  0  0  0  0  0  0  0
  1  2  1  0
  2  3  1  0
  3  4  1  0
  4  5  1  0
  5  6  2  0
  6  7  1  0
  6  8  1  0
  8  9  2  0
  8 10  1  0
 10 11  1  0
 11 12  2  0
  2 13  1  0
 13 14  2  0
 13 15  1  0
 11  4  1  0
  1 16  1  0
  1 17  1  0
  1 18  1  0
  2 19  1  6
  3 20  1  0
  3 21  1  0
  5 22  1  0
 10 23  1  0
M  CHG  2   1   1  15  -1
M  END
>  <meeko>  (5) 
{"is_sidechain": [false], "free_energy": -5.906, "intermolecular_energy": -6.966, "internal_energy": -0.406}

$$$$
2al5_ligand
     RDKit          3D

 23 23  0  0  0  0  0  0  0  0999 V2000
  -10.6310   12.1420   -3.0730 N   0  0  0  0  0  0  0  0  0  0  0  0
  -10.4040   10.7260   -3.5740 C   0  0  1  0  0  0  0  0  0  0  0  0
  -11.0390    9.6740   -2.6560 C   0  0  0  0  0  0  0  0  0  0  0  0
  -10.3970    8.3470   -2.6550 N   0  0  0  0  0  0  0  0  0  0  0  0
   -9.0120    8.2740   -2.6290 C   0  0  0  0  0  0  0  0  0  0  0  0
   -8.3730    7.1040   -2.6040 C   0  0  0  0  0  0  0  0  0  0  0  0
   -7.0320    7.0100   -2.5730 F   0  0  0  0  0  0  0  0  0  0  0  0
   -9.1480    5.8490   -2.5980 C   0  0  0  0  0  0  0  0  0  0  0  0
   -8.6270    4.7400   -2.5650 O   0  0  0  0  0  0  0  0  0  0  0  0
  -10.5100    6.0090   -2.6310 N   0  0  0  0  0  0  0  0  0  0  0  0
  -11.1770    7.2010   -2.7050 C   0  0  0  0  0  0  0  0  0  0  0  0
  -12.4010    7.2460   -2.8500 O   0  0  0  0  0  0  0  0  0  0  0  0
  -10.9920   10.5700   -4.9940 C   0  0  0  0  0  0  0  0  0  0  0  0
  -10.1680   11.0310   -5.8500 O   0  0  0  0  0  0  0  0  0  0  0  0
  -12.1290   10.0600   -5.0950 O   0  0  0  0  0  0  0  0  0  0  0  0
   -9.6570   12.4020   -2.7790 H   0  0  0  0  0  0  0  0  0  0  0  0
  -11.2060   12.1960   -2.2330 H   0  0  0  0  0  0  0  0  0  0  0  0
  -10.9220   12.8120   -3.8020 H   0  0  0  0  0  0  0  0  0  0  0  0
   -9.3169   10.5587   -3.5845 H   0  0  0  0  0  0  0  0  0  0  0  0
  -11.0100   10.0630   -1.6275 H   0  0  0  0  0  0  0  0  0  0  0  0
  -12.0544    9.5125   -3.0469 H   0  0  0  0  0  0  0  0  0  0  0  0
   -8.4260    9.2049   -2.6290 H   0  0  0  0  0  0  0  0  0  0  0  0
  -11.0550    5.1620   -2.6670 H   0  0  0  0  0  0  0  0  0  0  0  0
  1  2  1  0
  2  3  1  0
  3  4  1  0
  4  5  1  0
  5  6  2  0
  6  7  1  0
  6  8  1  0
  8  9  2  0
  8 10  1  0
 10 11  1  0
 11 12  2  0
  2 13  1  0
 13 14  2  0
 13 15  1  0
 11  4  1  0
  1 16  1  0
  1 17  1  0
  1 18  1  0
  2 19  1  6
  3 20  1  0
  3 21  1  0
  5 22  1  0
 10 23  1  0
M  CHG  2   1   1  15  -1
M  END
>  <meeko>  (6) 
{"is_sidechain": [false], "free_energy": -5.901, "intermolecular_energy": -7.03, "internal_energy": -0.337}

$$$$
2al5_ligand
     RDKit          3D

 23 23  0  0  0  0  0  0  0  0999 V2000
   -5.2550   13.9800    8.7330 N   0  0  0  0  0  0  0  0  0  0  0  0
   -5.9550   14.4330    7.4630 C   0  0  1  0  0  0  0  0  0  0  0  0
   -6.2940   13.2600    6.5340 C   0  0  0  0  0  0  0  0  0  0  0  0
   -6.3320   13.5690    5.0930 N   0  0  0  0  0  0  0  0  0  0  0  0
   -5.1540   13.9250    4.4530 C   0  0  0  0  0  0  0  0  0  0  0  0
   -5.1200   14.1930    3.1480 C   0  0  0  0  0  0  0  0  0  0  0  0
   -3.9880   14.5340    2.5070 F   0  0  0  0  0  0  0  0  0  0  0  0
   -6.3580   14.1080    2.3520 C   0  0  0  0  0  0  0  0  0  0  0  0
   -6.3980   14.3300    1.1470 O   0  0  0  0  0  0  0  0  0  0  0  0
   -7.4790   13.7550    3.0610 N   0  0  0  0  0  0  0  0  0  0  0  0
   -7.5380   13.5250    4.4080 C   0  0  0  0  0  0  0  0  0  0  0  0
   -8.6120   13.3300    4.9810 O   0  0  0  0  0  0  0  0  0  0  0  0
   -7.2580   15.1820    7.8190 C   0  0  0  0  0  0  0  0  0  0  0  0
   -7.0370   16.4360    7.8470 O   0  0  0  0  0  0  0  0  0  0  0  0
   -8.2790   14.4930    8.0310 O   0  0  0  0  0  0  0  0  0  0  0  0
   -5.9700   14.2470    9.4540 H   0  0  0  0  0  0  0  0  0  0  0  0
   -4.4150   14.5130    8.9540 H   0  0  0  0  0  0  0  0  0  0  0  0
   -5.1140   12.9600    8.8030 H   0  0  0  0  0  0  0  0  0  0  0  0
   -5.2591   15.0989    6.9318 H   0  0  0  0  0  0  0  0  0  0  0  0
   -5.5378   12.4767    6.6907 H   0  0  0  0  0  0  0  0  0  0  0  0
   -7.3172   12.9562    6.8000 H   0  0  0  0  0  0  0  0  0  0  0  0
   -4.2242   13.9877    5.0375 H   0  0  0  0  0  0  0  0  0  0  0  0
   -8.3430   13.7300    2.5420 H   0  0  0  0  0  0  0  0  0  0  0  0
  1  2  1  0
  2  3  1  0
  3  4  1  0
  4  5  1  0
  5  6  2  0
  6  7  1  0
  6  8  1  0
  8  9  2  0
  8 10  1  0
 10 11  1  0
 11 12  2  0
  2 13  1  0
 13 14  2  0
 13 15  1  0
 11  4  1  0
  1 16  1  0
  1 17  1  0
  1 18  1  0
  2 19  1  6
  3 20  1  0
  3 21  1  0
  5 22  1  0
 10 23  1  0
M  CHG  2   1   1  15  -1
M  END
>  <meeko>  (7) 
{"is_sidechain": [false], "free_energy": -5.811, "intermolecular_energy": -6.9, "internal_energy": -0.358}

$$$$
2al5_ligand
     RDKit          3D

 23 23  0  0  0  0  0  0  0  0999 V2000
   -9.8280   13.4820    4.7730 N   0  0  0  0  0  0  0  0  0  0  0  0
   -8.5300   13.4970    5.5620 C   0  0  1  0  0  0  0  0  0  0  0  0
   -7.6670   14.7240    5.2410 C   0  0  0  0  0  0  0  0  0  0  0  0
   -6.6740   14.5490    4.1650 N   0  0  0  0  0  0  0  0  0  0  0  0
   -7.1110   14.5200    2.8490 C   0  0  0  0  0  0  0  0  0  0  0  0
   -6.2590   14.3880    1.8320 C   0  0  0  0  0  0  0  0  0  0  0  0
   -6.6600   14.3640    0.5480 F   0  0  0  0  0  0  0  0  0  0  0  0
   -4.8130   14.2740    2.0990 C   0  0  0  0  0  0  0  0  0  0  0  0
   -3.9740   14.1610    1.2130 O   0  0  0  0  0  0  0  0  0  0  0  0
   -4.4660   14.3050    3.4270 N   0  0  0  0  0  0  0  0  0  0  0  0
   -5.3320   14.3920    4.4820 C   0  0  0  0  0  0  0  0  0  0  0  0
   -4.9390   14.2930    5.6470 O   0  0  0  0  0  0  0  0  0  0  0  0
   -8.8350   13.4840    7.0770 C   0  0  0  0  0  0  0  0  0  0  0  0
   -9.6600   12.5490    7.3380 O   0  0  0  0  0  0  0  0  0  0  0  0
   -8.2760   14.3480    7.7850 O   0  0  0  0  0  0  0  0  0  0  0  0
  -10.1090   12.4760    4.8810 H   0  0  0  0  0  0  0  0  0  0  0  0
   -9.7060   13.6370    3.7740 H   0  0  0  0  0  0  0  0  0  0  0  0
  -10.5820   14.0570    5.1800 H   0  0  0  0  0  0  0  0  0  0  0  0
   -7.9669   12.5975    5.2724 H   0  0  0  0  0  0  0  0  0  0  0  0
   -8.3408   15.5427    4.9480 H   0  0  0  0  0  0  0  0  0  0  0  0
   -7.0857   14.9260    6.1527 H   0  0  0  0  0  0  0  0  0  0  0  0
   -8.1872   14.6081    2.6391 H   0  0  0  0  0  0  0  0  0  0  0  0
   -3.4860   14.1890    3.6310 H   0  0  0  0  0  0  0  0  0  0  0  0
  1  2  1  0
  2  3  1  0
  3  4  1  0
  4  5  1  0
  5  6  2  0
  6  7  1  0
  6  8  1  0
  8  9  2  0
  8 10  1  0
 10 11  1  0
 11 12  2  0
  2 13  1  0
 13 14  2  0
 13 15  1  0
 11  4  1  0
  1 16  1  0
  1 17  1  0
  1 18  1  0
  2 19  1  6
  3 20  1  0
  3 21  1  0
  5 22  1  0
 10 23  1  0
M  CHG  2   1   1  15  -1
M  END
>  <meeko>  (8) 
{"is_sidechain": [false], "free_energy": -5.698, "intermolecular_energy": -6.918, "internal_energy": -0.205}

$$$$
2al5_ligand
     RDKit          3D

 23 23  0  0  0  0  0  0  0  0999 V2000
  -10.3080   10.5340   -5.3630 N   0  0  0  0  0  0  0  0  0  0  0  0
  -10.7760   11.5690   -4.3530 C   0  0  1  0  0  0  0  0  0  0  0  0
  -10.9190   10.9830   -2.9430 C   0  0  0  0  0  0  0  0  0  0  0  0
  -10.7570    9.5220   -2.8320 N   0  0  0  0  0  0  0  0  0  0  0  0
   -9.4870    9.0040   -2.6260 C   0  0  0  0  0  0  0  0  0  0  0  0
   -9.2790    7.6940   -2.4950 C   0  0  0  0  0  0  0  0  0  0  0  0
   -8.0570    7.1700   -2.2890 F   0  0  0  0  0  0  0  0  0  0  0  0
  -10.4200    6.7620   -2.5630 C   0  0  0  0  0  0  0  0  0  0  0  0
  -10.3030    5.5480   -2.4400 O   0  0  0  0  0  0  0  0  0  0  0  0
  -11.6390    7.3540   -2.7750 N   0  0  0  0  0  0  0  0  0  0  0  0
  -11.8610    8.6920   -2.9590 C   0  0  0  0  0  0  0  0  0  0  0  0
  -12.9760    9.1230   -3.2620 O   0  0  0  0  0  0  0  0  0  0  0  0
   -9.7770   12.7460   -4.3070 C   0  0  0  0  0  0  0  0  0  0  0  0
   -9.3460   12.8930   -3.1170 O   0  0  0  0  0  0  0  0  0  0  0  0
   -9.5590   13.3600   -5.3730 O   0  0  0  0  0  0  0  0  0  0  0  0
  -11.0330   10.6530   -6.1130 H   0  0  0  0  0  0  0  0  0  0  0  0
  -10.3910    9.5720   -5.0380 H   0  0  0  0  0  0  0  0  0  0  0  0
   -9.3900   10.7360   -5.7880 H   0  0  0  0  0  0  0  0  0  0  0  0
  -11.7673   11.9153   -4.6806 H   0  0  0  0  0  0  0  0  0  0  0  0
  -10.1592   11.4556   -2.3032 H   0  0  0  0  0  0  0  0  0  0  0  0
  -11.9554   11.1909   -2.6386 H   0  0  0  0  0  0  0  0  0  0  0  0
   -8.6301    9.6914   -2.5693 H   0  0  0  0  0  0  0  0  0  0  0  0
  -12.4260    6.7310   -2.8640 H   0  0  0  0  0  0  0  0  0  0  0  0
  1  2  1  0
  2  3  1  0
  3  4  1  0
  4  5  1  0
  5  6  2  0
  6  7  1  0
  6  8  1  0
  8  9  2  0
  8 10  1  0
 10 11  1  0
 11 12  2  0
  2 13  1  0
 13 14  2  0
 13 15  1  0
 11  4  1  0
  1 16  1  0
  1 17  1  0
  1 18  1  0
  2 19  1  6
  3 20  1  0
  3 21  1  0
  5 22  1  0
 10 23  1  0
M  CHG  2   1   1  15  -1
M  END
>  <meeko>  (9) 
{"is_sidechain": [false], "free_energy": -5.68, "intermolecular_energy": -7.035, "internal_energy": -0.066}

$$$$
