3p5o_ligand
     RDKit          3D

 52 55  0  0  0  0  0  0  0  0999 V2000
    2.9850   16.3370    4.5470 C   0  0  0  0  0  0  0  0  0  0  0  0
    1.8660   16.8050    5.4610 C   0  0  0  0  0  0  0  0  0  0  0  0
    1.5570   15.8190    6.4720 N   0  0  0  0  0  0  0  0  0  0  0  0
    1.9890   15.9520    7.7720 C   0  0  0  0  0  0  0  0  0  0  0  0
    2.7300   16.8540    8.1550 O   0  0  0  0  0  0  0  0  0  0  0  0
    1.4430   14.9120    8.7230 C   0  0  0  0  0  0  0  0  0  0  0  0
    1.9480   13.5220    8.3330 C   0  0  2  0  0  0  0  0  0  0  0  0
    3.1930   13.6940    7.5810 N   0  0  0  0  0  0  0  0  0  0  0  0
    3.9040   12.6640    7.2650 C   0  0  0  0  0  0  0  0  0  0  0  0
    5.1440   12.9250    6.4620 C   0  0  0  0  0  0  0  0  0  0  0  0
    6.0880   13.8390    6.9500 C   0  0  0  0  0  0  0  0  0  0  0  0
    7.2470   14.1110    6.2190 C   0  0  0  0  0  0  0  0  0  0  0  0
    7.4580   13.4780    4.9950 C   0  0  0  0  0  0  0  0  0  0  0  0
    8.8830   13.8120    4.0930 Cl  0  0  0  0  0  0  0  0  0  0  0  0
    6.5150   12.5800    4.4930 C   0  0  0  0  0  0  0  0  0  0  0  0
    5.3540   12.3070    5.2220 C   0  0  0  0  0  0  0  0  0  0  0  0
    3.5740   11.2480    7.6330 C   0  0  0  0  0  0  0  0  0  0  0  0
    4.6240   10.4470    8.1130 C   0  0  0  0  0  0  0  0  0  0  0  0
    4.4360    9.0900    8.3830 C   0  0  0  0  0  0  0  0  0  0  0  0
    5.5490    8.4370    8.8300 O   0  0  0  0  0  0  0  0  0  0  0  0
    5.4660    7.0230    8.9560 C   0  0  0  0  0  0  0  0  0  0  0  0
    3.1800    8.5250    8.1790 C   0  0  0  0  0  0  0  0  0  0  0  0
    2.1150    9.3140    7.7270 C   0  0  0  0  0  0  0  0  0  0  0  0
    2.2990   10.6780    7.4590 C   0  0  0  0  0  0  0  0  0  0  0  0
    1.1850   11.4740    7.0870 N   0  0  0  0  0  0  0  0  0  0  0  0
    0.0520   11.1420    6.3590 C   0  0  0  0  0  0  0  0  0  0  0  0
   -0.1770    9.8850    5.6090 C   0  0  0  0  0  0  0  0  0  0  0  0
   -0.7710   12.1730    6.3420 N   0  0  0  0  0  0  0  0  0  0  0  0
   -0.1850   13.2020    7.0170 N   0  0  0  0  0  0  0  0  0  0  0  0
    0.9790   12.7840    7.4680 C   0  0  0  0  0  0  0  0  0  0  0  0
    3.8310   15.9832    5.1546 H   0  0  0  0  0  0  0  0  0  0  0  0
    2.6207   15.5158    3.9122 H   0  0  0  0  0  0  0  0  0  0  0  0
    3.3138   17.1730    3.9122 H   0  0  0  0  0  0  0  0  0  0  0  0
    2.1752   17.7379    5.9550 H   0  0  0  0  0  0  0  0  0  0  0  0
    0.9658   16.9641    4.8491 H   0  0  0  0  0  0  0  0  0  0  0  0
    0.7340   15.2370    6.3170 H   0  0  0  0  0  0  0  0  0  0  0  0
    1.7744   15.1452    9.7456 H   0  0  0  0  0  0  0  0  0  0  0  0
    0.3442   14.9216    8.6727 H   0  0  0  0  0  0  0  0  0  0  0  0
    2.0895   12.9369    9.2536 H   0  0  0  0  0  0  0  0  0  0  0  0
    5.9156   14.3439    7.9120 H   0  0  0  0  0  0  0  0  0  0  0  0
    7.9906   14.8222    6.6079 H   0  0  0  0  0  0  0  0  0  0  0  0
    6.6852   12.0874    3.5243 H   0  0  0  0  0  0  0  0  0  0  0  0
    4.6053   11.6072    4.8224 H   0  0  0  0  0  0  0  0  0  0  0  0
    5.6135   10.8978    8.2793 H   0  0  0  0  0  0  0  0  0  0  0  0
    5.4500    6.7501   10.0215 H   0  0  0  0  0  0  0  0  0  0  0  0
    4.5453    6.6652    8.4720 H   0  0  0  0  0  0  0  0  0  0  0  0
    6.3385    6.5599    8.4720 H   0  0  0  0  0  0  0  0  0  0  0  0
    3.0235    7.4538    8.3738 H   0  0  0  0  0  0  0  0  0  0  0  0
    1.1242    8.8592    7.5807 H   0  0  0  0  0  0  0  0  0  0  0  0
   -0.3278    9.0574    6.3178 H   0  0  0  0  0  0  0  0  0  0  0  0
   -1.0702    9.9931    4.9762 H   0  0  0  0  0  0  0  0  0  0  0  0
    0.6970    9.6712    4.9762 H   0  0  0  0  0  0  0  0  0  0  0  0
  1  2  1  0
  2  3  1  0
  3  4  1  0
  4  5  2  0
  4  6  1  0
  6  7  1  0
  7  8  1  0
  8  9  2  0
  9 10  1  0
 10 11  2  0
 11 12  1  0
 12 13  2  0
 13 14  1  0
 13 15  1  0
 15 16  2  0
  9 17  1  0
 17 18  2  0
 18 19  1  0
 19 20  1  0
 20 21  1  0
 19 22  2  0
 22 23  1  0
 23 24  2  0
 24 25  1  0
 25 26  1  0
 26 27  1  0
 26 28  2  0
 28 29  1  0
 29 30  2  0
 30  7  1  0
 16 10  1  0
 24 17  1  0
 30 25  1  0
  1 31  1  0
  1 32  1  0
  1 33  1  0
  2 34  1  0
  2 35  1  0
  3 36  1  0
  6 37  1  0
  6 38  1  0
  7 39  1  1
 11 40  1  0
 12 41  1  0
 15 42  1  0
 16 43  1  0
 18 44  1  0
 21 45  1  0
 21 46  1  0
 21 47  1  0
 22 48  1  0
 23 49  1  0
 27 50  1  0
 27 51  1  0
 27 52  1  0
M  END
>  <meeko>  (1) 
{"is_sidechain": [false], "free_energy": -7.436, "intermolecular_energy": -9.61, "internal_energy": -1.46}

$$$$
3p5o_ligand
     RDKit          3D

 52 55  0  0  0  0  0  0  0  0999 V2000
   -0.6810    7.6090    3.9800 C   0  0  0  0  0  0  0  0  0  0  0  0
   -0.7900    9.1200    4.0990 C   0  0  0  0  0  0  0  0  0  0  0  0
   -0.0640    9.6170    5.2460 N   0  0  0  0  0  0  0  0  0  0  0  0
   -0.4640   10.7440    5.9270 C   0  0  0  0  0  0  0  0  0  0  0  0
   -1.4000   11.4570    5.5730 O   0  0  0  0  0  0  0  0  0  0  0  0
    0.3200   11.0260    7.1880 C   0  0  0  0  0  0  0  0  0  0  0  0
    1.5540   11.8690    6.8660 C   0  0  2  0  0  0  0  0  0  0  0  0
    2.6320   11.4430    7.7620 N   0  0  0  0  0  0  0  0  0  0  0  0
    3.8300   11.8960    7.5920 C   0  0  0  0  0  0  0  0  0  0  0  0
    4.8650   11.4380    8.5770 C   0  0  0  0  0  0  0  0  0  0  0  0
    4.8100   10.1220    9.0560 C   0  0  0  0  0  0  0  0  0  0  0  0
    5.7540    9.6710    9.9820 C   0  0  0  0  0  0  0  0  0  0  0  0
    6.7470   10.5380   10.4350 C   0  0  0  0  0  0  0  0  0  0  0  0
    7.9110    9.9850   11.5740 Cl  0  0  0  0  0  0  0  0  0  0  0  0
    6.8000   11.8540    9.9760 C   0  0  0  0  0  0  0  0  0  0  0  0
    5.8560   12.3080    9.0510 C   0  0  0  0  0  0  0  0  0  0  0  0
    4.2430   12.8380    6.5010 C   0  0  0  0  0  0  0  0  0  0  0  0
    5.4420   12.5530    5.8260 C   0  0  0  0  0  0  0  0  0  0  0  0
    5.9600   13.4270    4.8690 C   0  0  0  0  0  0  0  0  0  0  0  0
    7.1380   13.0240    4.3060 O   0  0  0  0  0  0  0  0  0  0  0  0
    8.1560   14.0050    4.1560 C   0  0  0  0  0  0  0  0  0  0  0  0
    5.2700   14.5990    4.5740 C   0  0  0  0  0  0  0  0  0  0  0  0
    4.0600   14.8870    5.2190 C   0  0  0  0  0  0  0  0  0  0  0  0
    3.5340   14.0100    6.1780 C   0  0  0  0  0  0  0  0  0  0  0  0
    2.2650   14.2800    6.7500 N   0  0  0  0  0  0  0  0  0  0  0  0
    1.6520   15.4910    7.0370 C   0  0  0  0  0  0  0  0  0  0  0  0
    2.2830   16.8310    6.9860 C   0  0  0  0  0  0  0  0  0  0  0  0
    0.4270   15.2670    7.4730 N   0  0  0  0  0  0  0  0  0  0  0  0
    0.2270   13.9190    7.5180 N   0  0  0  0  0  0  0  0  0  0  0  0
    1.3210   13.3300    7.0810 C   0  0  0  0  0  0  0  0  0  0  0  0
   -0.6489    7.1634    4.9852 H   0  0  0  0  0  0  0  0  0  0  0  0
   -1.5534    7.2203    3.4343 H   0  0  0  0  0  0  0  0  0  0  0  0
    0.2382    7.3495    3.4343 H   0  0  0  0  0  0  0  0  0  0  0  0
   -0.3781    9.5804    3.1889 H   0  0  0  0  0  0  0  0  0  0  0  0
   -1.8515    9.3796    4.2247 H   0  0  0  0  0  0  0  0  0  0  0  0
    0.5070    8.9460    5.7600 H   0  0  0  0  0  0  0  0  0  0  0  0
   -0.3182   11.5727    7.8978 H   0  0  0  0  0  0  0  0  0  0  0  0
    0.6429   10.0720    7.6304 H   0  0  0  0  0  0  0  0  0  0  0  0
    1.8036   11.7207    5.8050 H   0  0  0  0  0  0  0  0  0  0  0  0
    4.0212    9.4421    8.7018 H   0  0  0  0  0  0  0  0  0  0  0  0
    5.7138    8.6359   10.3521 H   0  0  0  0  0  0  0  0  0  0  0  0
    7.5838   12.5336   10.3416 H   0  0  0  0  0  0  0  0  0  0  0  0
    5.8908   13.3482    8.6950 H   0  0  0  0  0  0  0  0  0  0  0  0
    5.9828   11.6232    6.0562 H   0  0  0  0  0  0  0  0  0  0  0  0
    8.4973   14.3339    5.1486 H   0  0  0  0  0  0  0  0  0  0  0  0
    9.0024   13.5733    3.6017 H   0  0  0  0  0  0  0  0  0  0  0  0
    7.7559   14.8668    3.6017 H   0  0  0  0  0  0  0  0  0  0  0  0
    5.6761   15.3019    3.8317 H   0  0  0  0  0  0  0  0  0  0  0  0
    3.5171   15.8108    4.9704 H   0  0  0  0  0  0  0  0  0  0  0  0
    2.4543   17.1948    8.0099 H   0  0  0  0  0  0  0  0  0  0  0  0
    3.2441   16.7638    6.4551 H   0  0  0  0  0  0  0  0  0  0  0  0
    1.6190   17.5290    6.4551 H   0  0  0  0  0  0  0  0  0  0  0  0
  1  2  1  0
  2  3  1  0
  3  4  1  0
  4  5  2  0
  4  6  1  0
  6  7  1  0
  7  8  1  0
  8  9  2  0
  9 10  1  0
 10 11  2  0
 11 12  1  0
 12 13  2  0
 13 14  1  0
 13 15  1  0
 15 16  2  0
  9 17  1  0
 17 18  2  0
 18 19  1  0
 19 20  1  0
 20 21  1  0
 19 22  2  0
 22 23  1  0
 23 24  2  0
 24 25  1  0
 25 26  1  0
 26 27  1  0
 26 28  2  0
 28 29  1  0
 29 30  2  0
 30  7  1  0
 16 10  1  0
 24 17  1  0
 30 25  1  0
  1 31  1  0
  1 32  1  0
  1 33  1  0
  2 34  1  0
  2 35  1  0
  3 36  1  0
  6 37  1  0
  6 38  1  0
  7 39  1  6
 11 40  1  0
 12 41  1  0
 15 42  1  0
 16 43  1  0
 18 44  1  0
 21 45  1  0
 21 46  1  0
 21 47  1  0
 22 48  1  0
 23 49  1  0
 27 50  1  0
 27 51  1  0
 27 52  1  0
M  END
>  <meeko>  (2) 
{"is_sidechain": [false], "free_energy": -7.108, "intermolecular_energy": -9.776, "internal_energy": -0.87}

$$$$
3p5o_ligand
     RDKit          3D

 52 55  0  0  0  0  0  0  0  0999 V2000
    5.8380   14.8780   10.3860 C   0  0  0  0  0  0  0  0  0  0  0  0
    4.6360   15.7860   10.5870 C   0  0  0  0  0  0  0  0  0  0  0  0
    3.4200   15.1750   10.1020 N   0  0  0  0  0  0  0  0  0  0  0  0
    2.5920   15.8150    9.2080 C   0  0  0  0  0  0  0  0  0  0  0  0
    2.7660   16.9680    8.8240 O   0  0  0  0  0  0  0  0  0  0  0  0
    1.4510   14.9670    8.6930 C   0  0  0  0  0  0  0  0  0  0  0  0
    1.9560   13.5750    8.3120 C   0  0  2  0  0  0  0  0  0  0  0  0
    3.1940   13.7440    7.5470 N   0  0  0  0  0  0  0  0  0  0  0  0
    3.9050   12.7110    7.2350 C   0  0  0  0  0  0  0  0  0  0  0  0
    5.1370   12.9690    6.4180 C   0  0  0  0  0  0  0  0  0  0  0  0
    6.0370   13.9570    6.8410 C   0  0  0  0  0  0  0  0  0  0  0  0
    7.1870   14.2270    6.0960 C   0  0  0  0  0  0  0  0  0  0  0  0
    7.4330   13.5150    4.9220 C   0  0  0  0  0  0  0  0  0  0  0  0
    8.8480   13.8440    4.0030 Cl  0  0  0  0  0  0  0  0  0  0  0  0
    6.5350   12.5410    4.4850 C   0  0  0  0  0  0  0  0  0  0  0  0
    5.3830   12.2700    5.2290 C   0  0  0  0  0  0  0  0  0  0  0  0
    3.5820   11.2990    7.6200 C   0  0  0  0  0  0  0  0  0  0  0  0
    4.6380   10.5050    8.0980 C   0  0  0  0  0  0  0  0  0  0  0  0
    4.4560    9.1510    8.3820 C   0  0  0  0  0  0  0  0  0  0  0  0
    5.5740    8.5050    8.8260 O   0  0  0  0  0  0  0  0  0  0  0  0
    5.4930    7.0930    8.9780 C   0  0  0  0  0  0  0  0  0  0  0  0
    3.2000    8.5800    8.1950 C   0  0  0  0  0  0  0  0  0  0  0  0
    2.1290    9.3620    7.7450 C   0  0  0  0  0  0  0  0  0  0  0  0
    2.3070   10.7240    7.4620 C   0  0  0  0  0  0  0  0  0  0  0  0
    1.1870   11.5130    7.0920 N   0  0  0  0  0  0  0  0  0  0  0  0
    0.0490   11.1720    6.3780 C   0  0  0  0  0  0  0  0  0  0  0  0
   -0.1830    9.9060    5.6420 C   0  0  0  0  0  0  0  0  0  0  0  0
   -0.7770   12.2000    6.3570 N   0  0  0  0  0  0  0  0  0  0  0  0
   -0.1880   13.2380    7.0170 N   0  0  0  0  0  0  0  0  0  0  0  0
    0.9820   12.8260    7.4620 C   0  0  0  0  0  0  0  0  0  0  0  0
    6.2374   14.5763   11.3655 H   0  0  0  0  0  0  0  0  0  0  0  0
    5.5319   13.9836    9.8235 H   0  0  0  0  0  0  0  0  0  0  0  0
    6.6146   15.4169    9.8235 H   0  0  0  0  0  0  0  0  0  0  0  0
    4.5249   15.9986   11.6605 H   0  0  0  0  0  0  0  0  0  0  0  0
    4.8059   16.7121   10.0182 H   0  0  0  0  0  0  0  0  0  0  0  0
    3.3680   14.1560   10.1310 H   0  0  0  0  0  0  0  0  0  0  0  0
    0.6854   14.8734    9.4773 H   0  0  0  0  0  0  0  0  0  0  0  0
    1.0205   15.4482    7.8024 H   0  0  0  0  0  0  0  0  0  0  0  0
    2.1067   12.9989    9.2369 H   0  0  0  0  0  0  0  0  0  0  0  0
    5.8366   14.5219    7.7634 H   0  0  0  0  0  0  0  0  0  0  0  0
    7.8956   14.9977    6.4335 H   0  0  0  0  0  0  0  0  0  0  0  0
    6.7332   11.9867    3.5558 H   0  0  0  0  0  0  0  0  0  0  0  0
    4.6699   11.5082    4.8810 H   0  0  0  0  0  0  0  0  0  0  0  0
    5.6278   10.9597    8.2514 H   0  0  0  0  0  0  0  0  0  0  0  0
    5.4785    6.8397   10.0483 H   0  0  0  0  0  0  0  0  0  0  0  0
    4.5723    6.7251    8.5016 H   0  0  0  0  0  0  0  0  0  0  0  0
    6.3656    6.6223    8.5016 H   0  0  0  0  0  0  0  0  0  0  0  0
    3.0484    7.5103    8.4016 H   0  0  0  0  0  0  0  0  0  0  0  0
    1.1381    8.9033    7.6121 H   0  0  0  0  0  0  0  0  0  0  0  0
   -0.3332    9.0865    6.3603 H   0  0  0  0  0  0  0  0  0  0  0  0
   -1.0774   10.0080    5.0098 H   0  0  0  0  0  0  0  0  0  0  0  0
    0.6895    9.6842    5.0098 H   0  0  0  0  0  0  0  0  0  0  0  0
  1  2  1  0
  2  3  1  0
  3  4  1  0
  4  5  2  0
  4  6  1  0
  6  7  1  0
  7  8  1  0
  8  9  2  0
  9 10  1  0
 10 11  2  0
 11 12  1  0
 12 13  2  0
 13 14  1  0
 13 15  1  0
 15 16  2  0
  9 17  1  0
 17 18  2  0
 18 19  1  0
 19 20  1  0
 20 21  1  0
 19 22  2  0
 22 23  1  0
 23 24  2  0
 24 25  1  0
 25 26  1  0
 26 27  1  0
 26 28  2  0
 28 29  1  0
 29 30  2  0
 30  7  1  0
 16 10  1  0
 24 17  1  0
 30 25  1  0
  1 31  1  0
  1 32  1  0
  1 33  1  0
  2 34  1  0
  2 35  1  0
  3 36  1  0
  6 37  1  0
  6 38  1  0
  7 39  1  1
 11 40  1  0
 12 41  1  0
 15 42  1  0
 16 43  1  0
 18 44  1  0
 21 45  1  0
 21 46  1  0
 21 47  1  0
 22 48  1  0
 23 49  1  0
 27 50  1  0
 27 51  1  0
 27 52  1  0
M  END
>  <meeko>  (3) 
{"is_sidechain": [false], "free_energy": -7.097, "intermolecular_energy": -9.108, "internal_energy": -1.524}

$$$$
3p5o_ligand
     RDKit          3D

 52 55  0  0  0  0  0  0  0  0999 V2000
    3.6670   16.2530    4.0170 C   0  0  0  0  0  0  0  0  0  0  0  0
    2.2190   16.4080    4.4490 C   0  0  0  0  0  0  0  0  0  0  0  0
    1.8420   15.4050    5.4190 N   0  0  0  0  0  0  0  0  0  0  0  0
    1.9300   15.6350    6.7730 C   0  0  0  0  0  0  0  0  0  0  0  0
    2.4080   16.6560    7.2610 O   0  0  0  0  0  0  0  0  0  0  0  0
    1.3500   14.5370    7.6350 C   0  0  0  0  0  0  0  0  0  0  0  0
    2.4000   13.4540    7.8910 C   0  0  2  0  0  0  0  0  0  0  0  0
    3.5670   13.7600    7.0610 N   0  0  0  0  0  0  0  0  0  0  0  0
    4.6570   13.0820    7.2050 C   0  0  0  0  0  0  0  0  0  0  0  0
    5.7930   13.4350    6.2900 C   0  0  0  0  0  0  0  0  0  0  0  0
    5.9260   12.7440    5.0780 C   0  0  0  0  0  0  0  0  0  0  0  0
    6.9800   13.0430    4.2100 C   0  0  0  0  0  0  0  0  0  0  0  0
    7.9050   14.0260    4.5590 C   0  0  0  0  0  0  0  0  0  0  0  0
    9.2020   14.3970    3.4930 Cl  0  0  0  0  0  0  0  0  0  0  0  0
    7.7900   14.7070    5.7720 C   0  0  0  0  0  0  0  0  0  0  0  0
    6.7370   14.4090    6.6420 C   0  0  0  0  0  0  0  0  0  0  0  0
    4.8550   11.9780    8.2010 C   0  0  0  0  0  0  0  0  0  0  0  0
    6.0610   11.9720    8.9220 C   0  0  0  0  0  0  0  0  0  0  0  0
    6.3780   10.9290    9.7940 C   0  0  0  0  0  0  0  0  0  0  0  0
    7.5880   11.0530   10.4150 O   0  0  0  0  0  0  0  0  0  0  0  0
    8.1130    9.8950   11.0530 C   0  0  0  0  0  0  0  0  0  0  0  0
    5.4770    9.8800    9.9560 C   0  0  0  0  0  0  0  0  0  0  0  0
    4.2590    9.8820    9.2650 C   0  0  0  0  0  0  0  0  0  0  0  0
    3.9340   10.9310    8.3910 C   0  0  0  0  0  0  0  0  0  0  0  0
    2.6580   10.9540    7.7730 N   0  0  0  0  0  0  0  0  0  0  0  0
    1.8470    9.9100    7.3540 C   0  0  0  0  0  0  0  0  0  0  0  0
    2.2230    8.4790    7.2790 C   0  0  0  0  0  0  0  0  0  0  0  0
    0.6990   10.3960    6.9220 N   0  0  0  0  0  0  0  0  0  0  0  0
    0.7480   11.7560    7.0110 N   0  0  0  0  0  0  0  0  0  0  0  0
    1.9140   12.0900    7.5250 C   0  0  0  0  0  0  0  0  0  0  0  0
    4.3098   16.1842    4.9070 H   0  0  0  0  0  0  0  0  0  0  0  0
    3.7743   15.3382    3.4156 H   0  0  0  0  0  0  0  0  0  0  0  0
    3.9655   17.1243    3.4156 H   0  0  0  0  0  0  0  0  0  0  0  0
    2.0845   17.4044    4.8953 H   0  0  0  0  0  0  0  0  0  0  0  0
    1.5806   16.2851    3.5617 H   0  0  0  0  0  0  0  0  0  0  0  0
    1.1830   14.6890    5.1150 H   0  0  0  0  0  0  0  0  0  0  0  0
    1.0258   14.9628    8.5960 H   0  0  0  0  0  0  0  0  0  0  0  0
    0.4917   14.0879    7.1138 H   0  0  0  0  0  0  0  0  0  0  0  0
    2.6357   13.4501    8.9655 H   0  0  0  0  0  0  0  0  0  0  0  0
    5.1986   11.9639    4.8090 H   0  0  0  0  0  0  0  0  0  0  0  0
    7.0792   12.5050    3.2557 H   0  0  0  0  0  0  0  0  0  0  0  0
    8.5270   15.4773    6.0431 H   0  0  0  0  0  0  0  0  0  0  0  0
    6.6496   14.9387    7.6021 H   0  0  0  0  0  0  0  0  0  0  0  0
    6.7686   12.8048    8.7970 H   0  0  0  0  0  0  0  0  0  0  0  0
    8.0563   10.0201   12.1444 H   0  0  0  0  0  0  0  0  0  0  0  0
    7.5263    9.0139   10.7540 H   0  0  0  0  0  0  0  0  0  0  0  0
    9.1624    9.7556   10.7540 H   0  0  0  0  0  0  0  0  0  0  0  0
    5.7230    9.0460   10.6297 H   0  0  0  0  0  0  0  0  0  0  0  0
    3.5500    9.0533    9.4086 H   0  0  0  0  0  0  0  0  0  0  0  0
    2.3294    8.0740    8.2962 H   0  0  0  0  0  0  0  0  0  0  0  0
    1.4407    7.9220    6.7426 H   0  0  0  0  0  0  0  0  0  0  0  0
    3.1780    8.3785    6.7426 H   0  0  0  0  0  0  0  0  0  0  0  0
  1  2  1  0
  2  3  1  0
  3  4  1  0
  4  5  2  0
  4  6  1  0
  6  7  1  0
  7  8  1  0
  8  9  2  0
  9 10  1  0
 10 11  2  0
 11 12  1  0
 12 13  2  0
 13 14  1  0
 13 15  1  0
 15 16  2  0
  9 17  1  0
 17 18  2  0
 18 19  1  0
 19 20  1  0
 20 21  1  0
 19 22  2  0
 22 23  1  0
 23 24  2  0
 24 25  1  0
 25 26  1  0
 26 27  1  0
 26 28  2  0
 28 29  1  0
 29 30  2  0
 30  7  1  0
 16 10  1  0
 24 17  1  0
 30 25  1  0
  1 31  1  0
  1 32  1  0
  1 33  1  0
  2 34  1  0
  2 35  1  0
  3 36  1  0
  6 37  1  0
  6 38  1  0
  7 39  1  1
 11 40  1  0
 12 41  1  0
 15 42  1  0
 16 43  1  0
 18 44  1  0
 21 45  1  0
 21 46  1  0
 21 47  1  0
 22 48  1  0
 23 49  1  0
 27 50  1  0
 27 51  1  0
 27 52  1  0
M  END
>  <meeko>  (4) 
{"is_sidechain": [false], "free_energy": -6.648, "intermolecular_energy": -8.72, "internal_energy": -1.331}

$$$$
3p5o_ligand
     RDKit          3D

 52 55  0  0  0  0  0  0  0  0999 V2000
    2.6190    7.9380    8.8800 C   0  0  0  0  0  0  0  0  0  0  0  0
    2.0460    8.5000    7.5900 C   0  0  0  0  0  0  0  0  0  0  0  0
    1.7290    9.9050    7.7160 N   0  0  0  0  0  0  0  0  0  0  0  0
    0.7560   10.5010    6.9470 C   0  0  0  0  0  0  0  0  0  0  0  0
    0.1500    9.9250    6.0480 O   0  0  0  0  0  0  0  0  0  0  0  0
    0.4520   11.9340    7.3210 C   0  0  0  0  0  0  0  0  0  0  0  0
    1.5820   12.8540    6.8540 C   0  0  2  0  0  0  0  0  0  0  0  0
    2.7330   12.6250    7.7300 N   0  0  0  0  0  0  0  0  0  0  0  0
    3.8720   13.1700    7.4540 C   0  0  0  0  0  0  0  0  0  0  0  0
    4.9890   12.9150    8.4230 C   0  0  0  0  0  0  0  0  0  0  0  0
    5.3140   11.5910    8.7500 C   0  0  0  0  0  0  0  0  0  0  0  0
    6.3420   11.3240    9.6570 C   0  0  0  0  0  0  0  0  0  0  0  0
    7.0380   12.3790   10.2450 C   0  0  0  0  0  0  0  0  0  0  0  0
    8.3040   12.0520   11.3620 Cl  0  0  0  0  0  0  0  0  0  0  0  0
    6.7100   13.7000    9.9380 C   0  0  0  0  0  0  0  0  0  0  0  0
    5.6810   13.9700    9.0310 C   0  0  0  0  0  0  0  0  0  0  0  0
    4.1430   14.0310    6.2570 C   0  0  0  0  0  0  0  0  0  0  0  0
    5.3350   13.7940    5.5510 C   0  0  0  0  0  0  0  0  0  0  0  0
    5.7220   14.6110    4.4870 C   0  0  0  0  0  0  0  0  0  0  0  0
    6.9090   14.2660    3.9060 O   0  0  0  0  0  0  0  0  0  0  0  0
    8.0010   13.9900    4.7730 C   0  0  0  0  0  0  0  0  0  0  0  0
    4.9060   15.6760    4.1170 C   0  0  0  0  0  0  0  0  0  0  0  0
    3.7020   15.9120    4.7920 C   0  0  0  0  0  0  0  0  0  0  0  0
    3.3070   15.0910    5.8580 C   0  0  0  0  0  0  0  0  0  0  0  0
    2.0430   15.2970    6.4670 N   0  0  0  0  0  0  0  0  0  0  0  0
    1.3250   16.4670    6.6660 C   0  0  0  0  0  0  0  0  0  0  0  0
    1.8170   17.8480    6.4520 C   0  0  0  0  0  0  0  0  0  0  0  0
    0.1490   16.1730    7.1850 N   0  0  0  0  0  0  0  0  0  0  0  0
    0.0860   14.8240    7.3720 N   0  0  0  0  0  0  0  0  0  0  0  0
    1.2130   14.2990    6.9370 C   0  0  0  0  0  0  0  0  0  0  0  0
    2.1286    8.4190    9.7392 H   0  0  0  0  0  0  0  0  0  0  0  0
    2.4427    6.8529    8.9174 H   0  0  0  0  0  0  0  0  0  0  0  0
    3.7005    8.1353    8.9174 H   0  0  0  0  0  0  0  0  0  0  0  0
    2.7850    8.3716    6.7854 H   0  0  0  0  0  0  0  0  0  0  0  0
    1.1172    7.9570    7.3608 H   0  0  0  0  0  0  0  0  0  0  0  0
    1.9560   10.3550    8.6030 H   0  0  0  0  0  0  0  0  0  0  0  0
   -0.4890   12.2426    6.8421 H   0  0  0  0  0  0  0  0  0  0  0  0
    0.3589   12.0071    8.4146 H   0  0  0  0  0  0  0  0  0  0  0  0
    1.8011   12.6236    5.8010 H   0  0  0  0  0  0  0  0  0  0  0  0
    4.7579   10.7603    8.2910 H   0  0  0  0  0  0  0  0  0  0  0  0
    6.6016   10.2846    9.9065 H   0  0  0  0  0  0  0  0  0  0  0  0
    7.2603   14.5278   10.4090 H   0  0  0  0  0  0  0  0  0  0  0  0
    5.4149   15.0109    8.7949 H   0  0  0  0  0  0  0  0  0  0  0  0
    5.9754   12.9484    5.8424 H   0  0  0  0  0  0  0  0  0  0  0  0
    7.6694   14.0738    5.8185 H   0  0  0  0  0  0  0  0  0  0  0  0
    8.3693   12.9705    4.5857 H   0  0  0  0  0  0  0  0  0  0  0  0
    8.8094   14.7121    4.5857 H   0  0  0  0  0  0  0  0  0  0  0  0
    5.2083   16.3356    3.2903 H   0  0  0  0  0  0  0  0  0  0  0  0
    3.0597   16.7498    4.4829 H   0  0  0  0  0  0  0  0  0  0  0  0
    1.9890   18.3309    7.4253 H   0  0  0  0  0  0  0  0  0  0  0  0
    2.7597   17.8178    5.8859 H   0  0  0  0  0  0  0  0  0  0  0  0
    1.0676   18.4206    5.8859 H   0  0  0  0  0  0  0  0  0  0  0  0
  1  2  1  0
  2  3  1  0
  3  4  1  0
  4  5  2  0
  4  6  1  0
  6  7  1  0
  7  8  1  0
  8  9  2  0
  9 10  1  0
 10 11  2  0
 11 12  1  0
 12 13  2  0
 13 14  1  0
 13 15  1  0
 15 16  2  0
  9 17  1  0
 17 18  2  0
 18 19  1  0
 19 20  1  0
 20 21  1  0
 19 22  2  0
 22 23  1  0
 23 24  2  0
 24 25  1  0
 25 26  1  0
 26 27  1  0
 26 28  2  0
 28 29  1  0
 29 30  2  0
 30  7  1  0
 16 10  1  0
 24 17  1  0
 30 25  1  0
  1 31  1  0
  1 32  1  0
  1 33  1  0
  2 34  1  0
  2 35  1  0
  3 36  1  0
  6 37  1  0
  6 38  1  0
  7 39  1  6
 11 40  1  0
 12 41  1  0
 15 42  1  0
 16 43  1  0
 18 44  1  0
 21 45  1  0
 21 46  1  0
 21 47  1  0
 22 48  1  0
 23 49  1  0
 27 50  1  0
 27 51  1  0
 27 52  1  0
M  END
>  <meeko>  (5) 
{"is_sidechain": [false], "free_energy": -6.476, "intermolecular_energy": -8.54, "internal_energy": -1.288}

$$$$
3p5o_ligand
     RDKit          3D

 52 55  0  0  0  0  0  0  0  0999 V2000
    1.0420    2.8670   14.0860 C   0  0  0  0  0  0  0  0  0  0  0  0
    2.0860    3.9590   14.2480 C   0  0  0  0  0  0  0  0  0  0  0  0
    3.1900    3.7790   13.3330 N   0  0  0  0  0  0  0  0  0  0  0  0
    4.3340    4.5410   13.4160 C   0  0  0  0  0  0  0  0  0  0  0  0
    4.4740    5.4760   14.1990 O   0  0  0  0  0  0  0  0  0  0  0  0
    5.4420    4.1120   12.4820 C   0  0  0  0  0  0  0  0  0  0  0  0
    6.1570    5.3370   11.9100 C   0  0  2  0  0  0  0  0  0  0  0  0
    5.2180    6.0260   11.0220 N   0  0  0  0  0  0  0  0  0  0  0  0
    5.5260    7.1800   10.5280 C   0  0  0  0  0  0  0  0  0  0  0  0
    4.5250    7.7990    9.5980 C   0  0  0  0  0  0  0  0  0  0  0  0
    3.1650    7.5050    9.7710 C   0  0  0  0  0  0  0  0  0  0  0  0
    2.2110    8.0580    8.9140 C   0  0  0  0  0  0  0  0  0  0  0  0
    2.6160    8.8980    7.8780 C   0  0  0  0  0  0  0  0  0  0  0  0
    1.4440    9.5800    6.8210 Cl  0  0  0  0  0  0  0  0  0  0  0  0
    3.9690    9.1830    7.6870 C   0  0  0  0  0  0  0  0  0  0  0  0
    4.9260    8.6300    8.5430 C   0  0  0  0  0  0  0  0  0  0  0  0
    6.7970    7.9220   10.8110 C   0  0  0  0  0  0  0  0  0  0  0  0
    6.6930    9.2980   11.0790 C   0  0  0  0  0  0  0  0  0  0  0  0
    7.8280   10.0910   11.2520 C   0  0  0  0  0  0  0  0  0  0  0  0
    7.5710   11.4100   11.4930 O   0  0  0  0  0  0  0  0  0  0  0  0
    7.5060   12.2770   10.3670 C   0  0  0  0  0  0  0  0  0  0  0  0
    9.0870    9.5040   11.1630 C   0  0  0  0  0  0  0  0  0  0  0  0
    9.2110    8.1300   10.9220 C   0  0  0  0  0  0  0  0  0  0  0  0
    8.0720    7.3280   10.7530 C   0  0  0  0  0  0  0  0  0  0  0  0
    8.2210    5.9260   10.5990 N   0  0  0  0  0  0  0  0  0  0  0  0
    9.2340    5.1950    9.9960 C   0  0  0  0  0  0  0  0  0  0  0  0
   10.3430    5.7370    9.1750 C   0  0  0  0  0  0  0  0  0  0  0  0
    9.0080    3.9080   10.1750 N   0  0  0  0  0  0  0  0  0  0  0  0
    7.8350    3.7690   10.8560 N   0  0  0  0  0  0  0  0  0  0  0  0
    7.3680    4.9730   11.1150 C   0  0  0  0  0  0  0  0  0  0  0  0
    0.7137    2.5236   15.0781 H   0  0  0  0  0  0  0  0  0  0  0  0
    0.1791    3.2641   13.5313 H   0  0  0  0  0  0  0  0  0  0  0  0
    1.4775    2.0228   13.5313 H   0  0  0  0  0  0  0  0  0  0  0  0
    1.6159    4.9342   14.0529 H   0  0  0  0  0  0  0  0  0  0  0  0
    2.4783    3.9106   15.2745 H   0  0  0  0  0  0  0  0  0  0  0  0
    3.2750    2.8690   12.8800 H   0  0  0  0  0  0  0  0  0  0  0  0
    6.1652    3.4953   13.0358 H   0  0  0  0  0  0  0  0  0  0  0  0
    5.0082    3.5316   11.6544 H   0  0  0  0  0  0  0  0  0  0  0  0
    6.4842    5.9677   12.7497 H   0  0  0  0  0  0  0  0  0  0  0  0
    2.8483    6.8362   10.5849 H   0  0  0  0  0  0  0  0  0  0  0  0
    1.1440    7.8315    9.0560 H   0  0  0  0  0  0  0  0  0  0  0  0
    4.2819    9.8421    6.8638 H   0  0  0  0  0  0  0  0  0  0  0  0
    5.9933    8.8470    8.3886 H   0  0  0  0  0  0  0  0  0  0  0  0
    5.6970    9.7588   11.1538 H   0  0  0  0  0  0  0  0  0  0  0  0
    7.4279   13.3190   10.7106 H   0  0  0  0  0  0  0  0  0  0  0  0
    8.4156   12.1583    9.7599 H   0  0  0  0  0  0  0  0  0  0  0  0
    6.6243   12.0240    9.7599 H   0  0  0  0  0  0  0  0  0  0  0  0
    9.9889   10.1223   11.2825 H   0  0  0  0  0  0  0  0  0  0  0  0
   10.2109    7.6751   10.8646 H   0  0  0  0  0  0  0  0  0  0  0  0
   11.1333    6.1232    9.8355 H   0  0  0  0  0  0  0  0  0  0  0  0
   10.7537    4.9380    8.5402 H   0  0  0  0  0  0  0  0  0  0  0  0
    9.9649    6.5519    8.5402 H   0  0  0  0  0  0  0  0  0  0  0  0
  1  2  1  0
  2  3  1  0
  3  4  1  0
  4  5  2  0
  4  6  1  0
  6  7  1  0
  7  8  1  0
  8  9  2  0
  9 10  1  0
 10 11  2  0
 11 12  1  0
 12 13  2  0
 13 14  1  0
 13 15  1  0
 15 16  2  0
  9 17  1  0
 17 18  2  0
 18 19  1  0
 19 20  1  0
 20 21  1  0
 19 22  2  0
 22 23  1  0
 23 24  2  0
 24 25  1  0
 25 26  1  0
 26 27  1  0
 26 28  2  0
 28 29  1  0
 29 30  2  0
 30  7  1  0
 16 10  1  0
 24 17  1  0
 30 25  1  0
  1 31  1  0
  1 32  1  0
  1 33  1  0
  2 34  1  0
  2 35  1  0
  3 36  1  0
  6 37  1  0
  6 38  1  0
  7 39  1  1
 11 40  1  0
 12 41  1  0
 15 42  1  0
 16 43  1  0
 18 44  1  0
 21 45  1  0
 21 46  1  0
 21 47  1  0
 22 48  1  0
 23 49  1  0
 27 50  1  0
 27 51  1  0
 27 52  1  0
M  END
>  <meeko>  (6) 
{"is_sidechain": [false], "free_energy": -6.338, "intermolecular_energy": -8.903, "internal_energy": -0.748}

$$$$
3p5o_ligand
     RDKit          3D

 52 55  0  0  0  0  0  0  0  0999 V2000
    7.3320   10.0930   13.0760 C   0  0  0  0  0  0  0  0  0  0  0  0
    7.4290   11.6090   13.0810 C   0  0  0  0  0  0  0  0  0  0  0  0
    7.6480   12.1320   11.7520 N   0  0  0  0  0  0  0  0  0  0  0  0
    7.4180   13.4540   11.4450 C   0  0  0  0  0  0  0  0  0  0  0  0
    6.9360   14.2630   12.2330 O   0  0  0  0  0  0  0  0  0  0  0  0
    7.8480   13.8580   10.0530 C   0  0  0  0  0  0  0  0  0  0  0  0
    6.7110   13.6210    9.0590 C   0  0  2  0  0  0  0  0  0  0  0  0
    6.2510   12.2410    9.2270 N   0  0  0  0  0  0  0  0  0  0  0  0
    5.1920   11.8330    8.6090 C   0  0  0  0  0  0  0  0  0  0  0  0
    4.8120   10.3960    8.8080 C   0  0  0  0  0  0  0  0  0  0  0  0
    4.0190    9.7640    7.8390 C   0  0  0  0  0  0  0  0  0  0  0  0
    3.6410    8.4290    8.0020 C   0  0  0  0  0  0  0  0  0  0  0  0
    4.0460    7.7290    9.1370 C   0  0  0  0  0  0  0  0  0  0  0  0
    3.5810    6.0860    9.3390 Cl  0  0  0  0  0  0  0  0  0  0  0  0
    4.8210    8.3540   10.1140 C   0  0  0  0  0  0  0  0  0  0  0  0
    5.2010    9.6900    9.9540 C   0  0  0  0  0  0  0  0  0  0  0  0
    4.3400   12.6840    7.7150 C   0  0  0  0  0  0  0  0  0  0  0  0
    2.9470   12.5820    7.8670 C   0  0  0  0  0  0  0  0  0  0  0  0
    2.0730   13.2550    7.0130 C   0  0  0  0  0  0  0  0  0  0  0  0
    0.7480   13.0500    7.2740 O   0  0  0  0  0  0  0  0  0  0  0  0
    0.0350   12.1960    6.3880 C   0  0  0  0  0  0  0  0  0  0  0  0
    2.5950   14.0490    5.9950 C   0  0  0  0  0  0  0  0  0  0  0  0
    3.9810   14.1830    5.8440 C   0  0  0  0  0  0  0  0  0  0  0  0
    4.8620   13.5120    6.7040 C   0  0  0  0  0  0  0  0  0  0  0  0
    6.2580   13.7350    6.5860 N   0  0  0  0  0  0  0  0  0  0  0  0
    7.0300   14.0070    5.4660 C   0  0  0  0  0  0  0  0  0  0  0  0
    6.5870   13.9360    4.0540 C   0  0  0  0  0  0  0  0  0  0  0  0
    8.2730   14.2420    5.8400 N   0  0  0  0  0  0  0  0  0  0  0  0
    8.3500   14.0930    7.1930 N   0  0  0  0  0  0  0  0  0  0  0  0
    7.1470   13.7960    7.6400 C   0  0  0  0  0  0  0  0  0  0  0  0
    7.3084    9.7237   14.1119 H   0  0  0  0  0  0  0  0  0  0  0  0
    6.4124    9.7861   12.5563 H   0  0  0  0  0  0  0  0  0  0  0  0
    8.2050    9.6714   12.5563 H   0  0  0  0  0  0  0  0  0  0  0  0
    6.4917   12.0254   13.4786 H   0  0  0  0  0  0  0  0  0  0  0  0
    8.2845   11.8971   13.7096 H   0  0  0  0  0  0  0  0  0  0  0  0
    8.3050   11.6280   11.1570 H   0  0  0  0  0  0  0  0  0  0  0  0
    8.1159   14.9249   10.0509 H   0  0  0  0  0  0  0  0  0  0  0  0
    8.7165   13.2519    9.7558 H   0  0  0  0  0  0  0  0  0  0  0  0
    5.9190   14.3570    9.2614 H   0  0  0  0  0  0  0  0  0  0  0  0
    3.6937   10.3212    6.9481 H   0  0  0  0  0  0  0  0  0  0  0  0
    3.0259    7.9321    7.2373 H   0  0  0  0  0  0  0  0  0  0  0  0
    5.1329    7.7963   11.0094 H   0  0  0  0  0  0  0  0  0  0  0  0
    5.8051   10.1866   10.7276 H   0  0  0  0  0  0  0  0  0  0  0  0
    2.5373   11.9589    8.6757 H   0  0  0  0  0  0  0  0  0  0  0  0
   -0.5629   11.4799    6.9708 H   0  0  0  0  0  0  0  0  0  0  0  0
   -0.6312   12.7994    5.7539 H   0  0  0  0  0  0  0  0  0  0  0  0
    0.7477   11.6482    5.7539 H   0  0  0  0  0  0  0  0  0  0  0  0
    1.9159   14.5732    5.3065 H   0  0  0  0  0  0  0  0  0  0  0  0
    4.3823   14.8210    5.0428 H   0  0  0  0  0  0  0  0  0  0  0  0
    5.5014   13.7620    4.0186 H   0  0  0  0  0  0  0  0  0  0  0  0
    6.8232   14.8835    3.5475 H   0  0  0  0  0  0  0  0  0  0  0  0
    7.1075   13.1098    3.5475 H   0  0  0  0  0  0  0  0  0  0  0  0
  1  2  1  0
  2  3  1  0
  3  4  1  0
  4  5  2  0
  4  6  1  0
  6  7  1  0
  7  8  1  0
  8  9  2  0
  9 10  1  0
 10 11  2  0
 11 12  1  0
 12 13  2  0
 13 14  1  0
 13 15  1  0
 15 16  2  0
  9 17  1  0
 17 18  2  0
 18 19  1  0
 19 20  1  0
 20 21  1  0
 19 22  2  0
 22 23  1  0
 23 24  2  0
 24 25  1  0
 25 26  1  0
 26 27  1  0
 26 28  2  0
 28 29  1  0
 29 30  2  0
 30  7  1  0
 16 10  1  0
 24 17  1  0
 30 25  1  0
  1 31  1  0
  1 32  1  0
  1 33  1  0
  2 34  1  0
  2 35  1  0
  3 36  1  0
  6 37  1  0
  6 38  1  0
  7 39  1  1
 11 40  1  0
 12 41  1  0
 15 42  1  0
 16 43  1  0
 18 44  1  0
 21 45  1  0
 21 46  1  0
 21 47  1  0
 22 48  1  0
 23 49  1  0
 27 50  1  0
 27 51  1  0
 27 52  1  0
M  END
>  <meeko>  (7) 
{"is_sidechain": [false], "free_energy": -6.337, "intermolecular_energy": -8.631, "internal_energy": -1.018}

$$$$
3p5o_ligand
     RDKit          3D

 52 55  0  0  0  0  0  0  0  0999 V2000
    7.2900   14.0470    5.3880 C   0  0  0  0  0  0  0  0  0  0  0  0
    6.6780   14.4580    4.0600 C   0  0  0  0  0  0  0  0  0  0  0  0
    5.3100   14.8970    4.2180 N   0  0  0  0  0  0  0  0  0  0  0  0
    4.9500   16.2180    4.0770 C   0  0  0  0  0  0  0  0  0  0  0  0
    5.7550   17.1280    3.8960 O   0  0  0  0  0  0  0  0  0  0  0  0
    3.4600   16.4700    4.1210 C   0  0  0  0  0  0  0  0  0  0  0  0
    2.9390   16.3100    5.5500 C   0  0  2  0  0  0  0  0  0  0  0  0
    2.8950   14.8770    5.8510 N   0  0  0  0  0  0  0  0  0  0  0  0
    2.6340   14.4780    7.0520 C   0  0  0  0  0  0  0  0  0  0  0  0
    2.5710   12.9940    7.2660 C   0  0  0  0  0  0  0  0  0  0  0  0
    1.3170   12.3700    7.3230 C   0  0  0  0  0  0  0  0  0  0  0  0
    1.2270   10.9910    7.5310 C   0  0  0  0  0  0  0  0  0  0  0  0
    2.3890   10.2390    7.6930 C   0  0  0  0  0  0  0  0  0  0  0  0
    2.2810    8.5420    7.9500 Cl  0  0  0  0  0  0  0  0  0  0  0  0
    3.6410   10.8550    7.6550 C   0  0  0  0  0  0  0  0  0  0  0  0
    3.7340   12.2340    7.4470 C   0  0  0  0  0  0  0  0  0  0  0  0
    2.3830   15.3830    8.2210 C   0  0  0  0  0  0  0  0  0  0  0  0
    3.0130   15.0550    9.4340 C   0  0  0  0  0  0  0  0  0  0  0  0
    2.7580   15.7770   10.6010 C   0  0  0  0  0  0  0  0  0  0  0  0
    3.4320   15.3350   11.7030 O   0  0  0  0  0  0  0  0  0  0  0  0
    4.0750   16.3150   12.5080 C   0  0  0  0  0  0  0  0  0  0  0  0
    1.8690   16.8470   10.5570 C   0  0  0  0  0  0  0  0  0  0  0  0
    1.2520   17.2050    9.3520 C   0  0  0  0  0  0  0  0  0  0  0  0
    1.5090   16.4850    8.1760 C   0  0  0  0  0  0  0  0  0  0  0  0
    0.9410   16.9210    6.9520 N   0  0  0  0  0  0  0  0  0  0  0  0
   -0.2710   17.5470    6.7000 C   0  0  0  0  0  0  0  0  0  0  0  0
   -1.3790   17.7400    7.6650 C   0  0  0  0  0  0  0  0  0  0  0  0
   -0.3410   17.8620    5.4210 N   0  0  0  0  0  0  0  0  0  0  0  0
    0.7930   17.4190    4.8070 N   0  0  0  0  0  0  0  0  0  0  0  0
    1.5620   16.8640    5.7210 C   0  0  0  0  0  0  0  0  0  0  0  0
    6.6850   14.4533    6.2119 H   0  0  0  0  0  0  0  0  0  0  0  0
    7.3134   12.9494    5.4569 H   0  0  0  0  0  0  0  0  0  0  0  0
    8.3148   14.4406    5.4569 H   0  0  0  0  0  0  0  0  0  0  0  0
    7.2701   15.2811    3.6335 H   0  0  0  0  0  0  0  0  0  0  0  0
    6.6839   13.5833    3.3930 H   0  0  0  0  0  0  0  0  0  0  0  0
    4.5790   14.2010    4.0680 H   0  0  0  0  0  0  0  0  0  0  0  0
    3.2540   17.4925    3.7715 H   0  0  0  0  0  0  0  0  0  0  0  0
    2.9535   15.7415    3.4707 H   0  0  0  0  0  0  0  0  0  0  0  0
    3.6099   16.8621    6.2246 H   0  0  0  0  0  0  0  0  0  0  0  0
    0.4012   12.9675    7.2037 H   0  0  0  0  0  0  0  0  0  0  0  0
    0.2428   10.5011    7.5667 H   0  0  0  0  0  0  0  0  0  0  0  0
    4.5537   10.2557    7.7886 H   0  0  0  0  0  0  0  0  0  0  0  0
    4.7195   12.7222    7.4254 H   0  0  0  0  0  0  0  0  0  0  0  0
    3.7205   14.2132    9.4641 H   0  0  0  0  0  0  0  0  0  0  0  0
    3.9187   16.0768   13.5705 H   0  0  0  0  0  0  0  0  0  0  0  0
    5.1528   16.3205   12.2881 H   0  0  0  0  0  0  0  0  0  0  0  0
    3.6509   17.3059   12.2881 H   0  0  0  0  0  0  0  0  0  0  0  0
    1.6499   17.4144   11.4736 H   0  0  0  0  0  0  0  0  0  0  0  0
    0.5592   18.0590    9.3274 H   0  0  0  0  0  0  0  0  0  0  0  0
   -0.9878   17.6719    8.6908 H   0  0  0  0  0  0  0  0  0  0  0  0
   -1.8317   18.7305    7.5102 H   0  0  0  0  0  0  0  0  0  0  0  0
   -2.1399   16.9609    7.5102 H   0  0  0  0  0  0  0  0  0  0  0  0
  1  2  1  0
  2  3  1  0
  3  4  1  0
  4  5  2  0
  4  6  1  0
  6  7  1  0
  7  8  1  0
  8  9  2  0
  9 10  1  0
 10 11  2  0
 11 12  1  0
 12 13  2  0
 13 14  1  0
 13 15  1  0
 15 16  2  0
  9 17  1  0
 17 18  2  0
 18 19  1  0
 19 20  1  0
 20 21  1  0
 19 22  2  0
 22 23  1  0
 23 24  2  0
 24 25  1  0
 25 26  1  0
 26 27  1  0
 26 28  2  0
 28 29  1  0
 29 30  2  0
 30  7  1  0
 16 10  1  0
 24 17  1  0
 30 25  1  0
  1 31  1  0
  1 32  1  0
  1 33  1  0
  2 34  1  0
  2 35  1  0
  3 36  1  0
  6 37  1  0
  6 38  1  0
  7 39  1  1
 11 40  1  0
 12 41  1  0
 15 42  1  0
 16 43  1  0
 18 44  1  0
 21 45  1  0
 21 46  1  0
 21 47  1  0
 22 48  1  0
 23 49  1  0
 27 50  1  0
 27 51  1  0
 27 52  1  0
M  END
>  <meeko>  (8) 
{"is_sidechain": [false], "free_energy": -6.253, "intermolecular_energy": -8.238, "internal_energy": -1.302}

$$$$
3p5o_ligand
     RDKit          3D

 52 55  0  0  0  0  0  0  0  0999 V2000
    6.3170   13.7450    4.2080 C   0  0  0  0  0  0  0  0  0  0  0  0
    7.7480   14.2370    4.3420 C   0  0  0  0  0  0  0  0  0  0  0  0
    8.2560   14.0400    5.6800 N   0  0  0  0  0  0  0  0  0  0  0  0
    8.2170   15.0380    6.6270 C   0  0  0  0  0  0  0  0  0  0  0  0
    7.8370   16.1830    6.3950 O   0  0  0  0  0  0  0  0  0  0  0  0
    8.6470   14.6070    8.0110 C   0  0  0  0  0  0  0  0  0  0  0  0
    7.7370   13.4900    8.5240 C   0  0  2  0  0  0  0  0  0  0  0  0
    6.3540   13.8750    8.2350 N   0  0  0  0  0  0  0  0  0  0  0  0
    5.3950   13.0310    8.4320 C   0  0  0  0  0  0  0  0  0  0  0  0
    4.0050   13.5180    8.1460 C   0  0  0  0  0  0  0  0  0  0  0  0
    3.5850   13.6280    6.8130 C   0  0  0  0  0  0  0  0  0  0  0  0
    2.3000   14.0890    6.5160 C   0  0  0  0  0  0  0  0  0  0  0  0
    1.4380   14.4480    7.5500 C   0  0  0  0  0  0  0  0  0  0  0  0
   -0.1440   15.0150    7.1880 Cl  0  0  0  0  0  0  0  0  0  0  0  0
    1.8530   14.3570    8.8800 C   0  0  0  0  0  0  0  0  0  0  0  0
    3.1380   13.8970    9.1800 C   0  0  0  0  0  0  0  0  0  0  0  0
    5.5760   11.6270    8.9270 C   0  0  0  0  0  0  0  0  0  0  0  0
    4.8480   10.6170    8.2760 C   0  0  0  0  0  0  0  0  0  0  0  0
    4.8720    9.2980    8.7310 C   0  0  0  0  0  0  0  0  0  0  0  0
    4.1060    8.4300    8.0070 O   0  0  0  0  0  0  0  0  0  0  0  0
    2.7090    8.4180    8.2730 C   0  0  0  0  0  0  0  0  0  0  0  0
    5.6390    8.9790    9.8480 C   0  0  0  0  0  0  0  0  0  0  0  0
    6.3920    9.9670   10.4940 C   0  0  0  0  0  0  0  0  0  0  0  0
    6.3740   11.2930   10.0360 C   0  0  0  0  0  0  0  0  0  0  0  0
    7.2140   12.2560   10.6530 N   0  0  0  0  0  0  0  0  0  0  0  0
    7.6340   12.3650   11.9700 C   0  0  0  0  0  0  0  0  0  0  0  0
    7.1300   11.5810   13.1230 C   0  0  0  0  0  0  0  0  0  0  0  0
    8.4910   13.3620   12.0730 N   0  0  0  0  0  0  0  0  0  0  0  0
    8.6210   13.9450   10.8470 N   0  0  0  0  0  0  0  0  0  0  0  0
    7.8640   13.2820    9.9980 C   0  0  0  0  0  0  0  0  0  0  0  0
    5.8851   13.5965    5.2087 H   0  0  0  0  0  0  0  0  0  0  0  0
    5.7228   14.4905    3.6591 H   0  0  0  0  0  0  0  0  0  0  0  0
    6.3069   12.7918    3.6591 H   0  0  0  0  0  0  0  0  0  0  0  0
    8.3831   13.6841    3.6342 H   0  0  0  0  0  0  0  0  0  0  0  0
    7.7625   15.3151    4.1242 H   0  0  0  0  0  0  0  0  0  0  0  0
    8.3000   13.0800    6.0240 H   0  0  0  0  0  0  0  0  0  0  0  0
    9.6838   14.2416    7.9718 H   0  0  0  0  0  0  0  0  0  0  0  0
    8.5771   15.4677    8.6924 H   0  0  0  0  0  0  0  0  0  0  0  0
    8.0271   12.5530    8.0261 H   0  0  0  0  0  0  0  0  0  0  0  0
    4.2696   13.3504    5.9980 H   0  0  0  0  0  0  0  0  0  0  0  0
    1.9701   14.1682    5.4696 H   0  0  0  0  0  0  0  0  0  0  0  0
    1.1690   14.6472    9.6911 H   0  0  0  0  0  0  0  0  0  0  0  0
    3.4689   13.8324   10.2271 H   0  0  0  0  0  0  0  0  0  0  0  0
    4.2473   10.8709    7.3902 H   0  0  0  0  0  0  0  0  0  0  0  0
    2.5428    8.4166    9.3604 H   0  0  0  0  0  0  0  0  0  0  0  0
    2.2441    9.3122    7.8322 H   0  0  0  0  0  0  0  0  0  0  0  0
    2.2595    7.5160    7.8322 H   0  0  0  0  0  0  0  0  0  0  0  0
    5.6536    7.9457   10.2250 H   0  0  0  0  0  0  0  0  0  0  0  0
    7.0035    9.7010   11.3689 H   0  0  0  0  0  0  0  0  0  0  0  0
    7.4415   12.0655   14.0601 H   0  0  0  0  0  0  0  0  0  0  0  0
    6.0318   11.5336   13.0822 H   0  0  0  0  0  0  0  0  0  0  0  0
    7.5428   10.5622   13.0822 H   0  0  0  0  0  0  0  0  0  0  0  0
  1  2  1  0
  2  3  1  0
  3  4  1  0
  4  5  2  0
  4  6  1  0
  6  7  1  0
  7  8  1  0
  8  9  2  0
  9 10  1  0
 10 11  2  0
 11 12  1  0
 12 13  2  0
 13 14  1  0
 13 15  1  0
 15 16  2  0
  9 17  1  0
 17 18  2  0
 18 19  1  0
 19 20  1  0
 20 21  1  0
 19 22  2  0
 22 23  1  0
 23 24  2  0
 24 25  1  0
 25 26  1  0
 26 27  1  0
 26 28  2  0
 28 29  1  0
 29 30  2  0
 30  7  1  0
 16 10  1  0
 24 17  1  0
 30 25  1  0
  1 31  1  0
  1 32  1  0
  1 33  1  0
  2 34  1  0
  2 35  1  0
  3 36  1  0
  6 37  1  0
  6 38  1  0
  7 39  1  6
 11 40  1  0
 12 41  1  0
 15 42  1  0
 16 43  1  0
 18 44  1  0
 21 45  1  0
 21 46  1  0
 21 47  1  0
 22 48  1  0
 23 49  1  0
 27 50  1  0
 27 51  1  0
 27 52  1  0
M  END
>  <meeko>  (9) 
{"is_sidechain": [false], "free_energy": -6.095, "intermolecular_energy": -7.828, "internal_energy": -1.508}

$$$$
