5c2h_ligand
     RDKit          3D

 55 58  0  0  0  0  0  0  0  0999 V2000
   -3.2770   -6.6370  -15.0200 C   0  0  0  0  0  0  0  0  0  0  0  0
   -3.0490   -6.6040  -13.5510 C   0  0  0  0  0  0  0  0  0  0  0  0
   -2.5680   -5.5710  -12.8940 N   0  0  0  0  0  0  0  0  0  0  0  0
   -2.4680   -5.8670  -11.5440 C   0  0  0  0  0  0  0  0  0  0  0  0
   -1.9390   -4.8200  -10.6320 C   0  0  0  0  0  0  0  0  0  0  0  0
   -2.8780   -7.1450  -11.1960 C   0  0  0  0  0  0  0  0  0  0  0  0
   -2.8860   -7.8070   -9.8490 C   0  0  0  0  0  0  0  0  0  0  0  0
   -3.9590   -7.3510   -8.9610 N   0  0  0  0  0  0  0  0  0  0  0  0
   -3.6540   -6.2800   -8.1020 C   0  0  0  0  0  0  0  0  0  0  0  0
   -2.5900   -6.3800   -7.2890 N   0  0  0  0  0  0  0  0  0  0  0  0
   -2.3070   -5.3420   -6.4970 C   0  0  0  0  0  0  0  0  0  0  0  0
   -1.2360   -5.5180   -5.6550 O   0  0  0  0  0  0  0  0  0  0  0  0
   -0.0260   -5.7660   -6.3730 C   0  0  0  0  0  0  0  0  0  0  0  0
    0.7700   -6.9060   -5.7370 C   0  0  0  0  0  0  0  0  0  0  0  0
    0.1470   -7.3680   -4.4140 C   0  0  0  0  0  0  0  0  0  0  0  0
    0.5920   -8.7400   -3.9620 C   0  0  0  0  0  0  0  0  0  0  0  0
    1.1680   -8.8850   -2.7050 C   0  0  0  0  0  0  0  0  0  0  0  0
    1.5940  -10.1460   -2.3040 C   0  0  0  0  0  0  0  0  0  0  0  0
    1.4390  -11.2370   -3.1650 C   0  0  0  0  0  0  0  0  0  0  0  0
    1.8450  -12.5330   -2.8000 C   0  0  0  0  0  0  0  0  0  0  0  0
    1.6720  -13.5980   -3.6800 C   0  0  0  0  0  0  0  0  0  0  0  0
    1.0960  -13.3730   -4.9250 C   0  0  0  0  0  0  0  0  0  0  0  0
    0.6960  -12.0820   -5.2840 C   0  0  0  0  0  0  0  0  0  0  0  0
    0.8550  -11.0030   -4.4250 C   0  0  0  0  0  0  0  0  0  0  0  0
    0.4450   -9.7820   -4.8150 N   0  0  0  0  0  0  0  0  0  0  0  0
   -3.0090   -4.2180   -6.4060 N   0  0  0  0  0  0  0  0  0  0  0  0
   -4.0870   -4.1710   -7.1990 C   0  0  0  0  0  0  0  0  0  0  0  0
   -4.9320   -2.6750   -7.0520 Cl  0  0  0  0  0  0  0  0  0  0  0  0
   -4.4960   -5.1760   -8.0590 C   0  0  0  0  0  0  0  0  0  0  0  0
   -5.7170   -5.0460   -8.9170 C   0  0  0  0  0  0  0  0  0  0  0  0
   -3.4240   -7.9740  -12.5920 S   0  0  0  0  0  0  0  0  0  0  0  0
   -4.3472   -6.7919  -15.2216 H   0  0  0  0  0  0  0  0  0  0  0  0
   -2.9549   -5.6829  -15.4626 H   0  0  0  0  0  0  0  0  0  0  0  0
   -2.6976   -7.4606  -15.4626 H   0  0  0  0  0  0  0  0  0  0  0  0
   -2.0955   -5.1298   -9.5882 H   0  0  0  0  0  0  0  0  0  0  0  0
   -0.8633   -4.6826  -10.8163 H   0  0  0  0  0  0  0  0  0  0  0  0
   -2.4666   -3.8725  -10.8163 H   0  0  0  0  0  0  0  0  0  0  0  0
   -2.9992   -8.8909   -9.9982 H   0  0  0  0  0  0  0  0  0  0  0  0
   -1.9372   -7.5403   -9.3605 H   0  0  0  0  0  0  0  0  0  0  0  0
   -4.7850   -7.1190   -9.5050 H   0  0  0  0  0  0  0  0  0  0  0  0
   -0.2731   -6.0359   -7.4103 H   0  0  0  0  0  0  0  0  0  0  0  0
    0.5886   -4.8541   -6.3457 H   0  0  0  0  0  0  0  0  0  0  0  0
    0.7941   -7.7559   -6.4350 H   0  0  0  0  0  0  0  0  0  0  0  0
    1.7849   -6.5378   -5.5264 H   0  0  0  0  0  0  0  0  0  0  0  0
    0.4197   -6.6429   -3.6331 H   0  0  0  0  0  0  0  0  0  0  0  0
   -0.9385   -7.4284   -4.5814 H   0  0  0  0  0  0  0  0  0  0  0  0
    1.2846   -8.0170   -2.0394 H   0  0  0  0  0  0  0  0  0  0  0  0
    2.0513  -10.2851   -1.3133 H   0  0  0  0  0  0  0  0  0  0  0  0
    2.3015  -12.7062   -1.8143 H   0  0  0  0  0  0  0  0  0  0  0  0
    1.9891  -14.6111   -3.3919 H   0  0  0  0  0  0  0  0  0  0  0  0
    0.9552  -14.2087   -5.6263 H   0  0  0  0  0  0  0  0  0  0  0  0
    0.2435  -11.9171   -6.2730 H   0  0  0  0  0  0  0  0  0  0  0  0
   -6.6066   -4.9513   -8.2769 H   0  0  0  0  0  0  0  0  0  0  0  0
   -5.6254   -4.1525   -9.5521 H   0  0  0  0  0  0  0  0  0  0  0  0
   -5.8156   -5.9387   -9.5521 H   0  0  0  0  0  0  0  0  0  0  0  0
  1  2  1  0
  2  3  2  0
  3  4  1  0
  4  5  1  0
  4  6  2  0
  6  7  1  0
  7  8  1  0
  8  9  1  0
  9 10  2  0
 10 11  1  0
 11 12  1  0
 12 13  1  0
 13 14  1  0
 14 15  1  0
 15 16  1  0
 16 17  2  0
 17 18  1  0
 18 19  2  0
 19 20  1  0
 20 21  2  0
 21 22  1  0
 22 23  2  0
 23 24  1  0
 24 25  2  0
 11 26  2  0
 26 27  1  0
 27 28  1  0
 27 29  2  0
 29 30  1  0
  6 31  1  0
 31  2  1  0
 29  9  1  0
 25 16  1  0
 24 19  1  0
  1 32  1  0
  1 33  1  0
  1 34  1  0
  5 35  1  0
  5 36  1  0
  5 37  1  0
  7 38  1  0
  7 39  1  0
  8 40  1  0
 13 41  1  0
 13 42  1  0
 14 43  1  0
 14 44  1  0
 15 45  1  0
 15 46  1  0
 17 47  1  0
 18 48  1  0
 20 49  1  0
 21 50  1  0
 22 51  1  0
 23 52  1  0
 30 53  1  0
 30 54  1  0
 30 55  1  0
M  END
>  <meeko>  (1) 
{"is_sidechain": [false], "free_energy": -9.279, "intermolecular_energy": -13.619, "internal_energy": -1.053}

$$$$
5c2h_ligand
     RDKit          3D

 55 58  0  0  0  0  0  0  0  0999 V2000
    0.1860  -10.5790  -10.2080 C   0  0  0  0  0  0  0  0  0  0  0  0
   -0.5680   -9.3480  -10.5670 C   0  0  0  0  0  0  0  0  0  0  0  0
   -0.1260   -8.4130  -11.3800 N   0  0  0  0  0  0  0  0  0  0  0  0
   -1.0610   -7.3980  -11.4950 C   0  0  0  0  0  0  0  0  0  0  0  0
   -0.7400   -6.2420  -12.3740 C   0  0  0  0  0  0  0  0  0  0  0  0
   -2.2150   -7.5820  -10.7500 C   0  0  0  0  0  0  0  0  0  0  0  0
   -3.4130   -6.6870  -10.6150 C   0  0  0  0  0  0  0  0  0  0  0  0
   -4.0660   -6.7500   -9.3050 N   0  0  0  0  0  0  0  0  0  0  0  0
   -3.7370   -5.7350   -8.3880 C   0  0  0  0  0  0  0  0  0  0  0  0
   -2.6080   -5.8470   -7.6700 N   0  0  0  0  0  0  0  0  0  0  0  0
   -2.3050   -4.8610   -6.8210 C   0  0  0  0  0  0  0  0  0  0  0  0
   -1.1630   -5.0510   -6.0810 O   0  0  0  0  0  0  0  0  0  0  0  0
   -0.0820   -5.5350   -6.8800 C   0  0  0  0  0  0  0  0  0  0  0  0
    0.6960   -6.6310   -6.1520 C   0  0  0  0  0  0  0  0  0  0  0  0
   -0.0010   -7.0580   -4.8540 C   0  0  0  0  0  0  0  0  0  0  0  0
    0.3970   -8.4280   -4.3550 C   0  0  0  0  0  0  0  0  0  0  0  0
    0.8070   -8.5770   -3.0360 C   0  0  0  0  0  0  0  0  0  0  0  0
    1.1910   -9.8360   -2.5900 C   0  0  0  0  0  0  0  0  0  0  0  0
    1.1620  -10.9230   -3.4700 C   0  0  0  0  0  0  0  0  0  0  0  0
    1.5310  -12.2170   -3.0630 C   0  0  0  0  0  0  0  0  0  0  0  0
    1.4860  -13.2770   -3.9640 C   0  0  0  0  0  0  0  0  0  0  0  0
    1.0740  -13.0490   -5.2720 C   0  0  0  0  0  0  0  0  0  0  0  0
    0.7090  -11.7600   -5.6720 C   0  0  0  0  0  0  0  0  0  0  0  0
    0.7430  -10.6850   -4.7940 C   0  0  0  0  0  0  0  0  0  0  0  0
    0.3740   -9.4660   -5.2270 N   0  0  0  0  0  0  0  0  0  0  0  0
   -3.0430   -3.7820   -6.5860 N   0  0  0  0  0  0  0  0  0  0  0  0
   -4.1820   -3.7250   -7.2860 C   0  0  0  0  0  0  0  0  0  0  0  0
   -5.0740   -2.2870   -6.9550 Cl  0  0  0  0  0  0  0  0  0  0  0  0
   -4.6180   -4.6790   -8.1920 C   0  0  0  0  0  0  0  0  0  0  0  0
   -5.9080   -4.5410   -8.9390 C   0  0  0  0  0  0  0  0  0  0  0  0
   -2.1270   -9.0740   -9.9120 S   0  0  0  0  0  0  0  0  0  0  0  0
    0.2411  -10.6690   -9.1131 H   0  0  0  0  0  0  0  0  0  0  0  0
   -0.3287  -11.4583  -10.6227 H   0  0  0  0  0  0  0  0  0  0  0  0
    1.2031  -10.5200  -10.6227 H   0  0  0  0  0  0  0  0  0  0  0  0
   -0.4969   -5.3664  -11.7541 H   0  0  0  0  0  0  0  0  0  0  0  0
    0.1225   -6.4926  -13.0090 H   0  0  0  0  0  0  0  0  0  0  0  0
   -1.6083   -6.0120  -13.0090 H   0  0  0  0  0  0  0  0  0  0  0  0
   -3.0902   -5.6501  -10.7899 H   0  0  0  0  0  0  0  0  0  0  0  0
   -4.1513   -7.0342  -11.3529 H   0  0  0  0  0  0  0  0  0  0  0  0
   -5.0750   -6.7820   -9.4210 H   0  0  0  0  0  0  0  0  0  0  0  0
   -0.4845   -5.9438   -7.8186 H   0  0  0  0  0  0  0  0  0  0  0  0
    0.6026   -4.6984   -7.0834 H   0  0  0  0  0  0  0  0  0  0  0  0
    0.7830   -7.5054   -6.8137 H   0  0  0  0  0  0  0  0  0  0  0  0
    1.6875   -6.2316   -5.8923 H   0  0  0  0  0  0  0  0  0  0  0  0
    0.2441   -6.3226   -4.0735 H   0  0  0  0  0  0  0  0  0  0  0  0
   -1.0775   -7.1043   -5.0754 H   0  0  0  0  0  0  0  0  0  0  0  0
    0.8274   -7.7127   -2.3559 H   0  0  0  0  0  0  0  0  0  0  0  0
    1.5165   -9.9772   -1.5488 H   0  0  0  0  0  0  0  0  0  0  0  0
    1.8570  -12.3927   -2.0272 H   0  0  0  0  0  0  0  0  0  0  0  0
    1.7746  -14.2888   -3.6431 H   0  0  0  0  0  0  0  0  0  0  0  0
    1.0353  -13.8809   -5.9907 H   0  0  0  0  0  0  0  0  0  0  0  0
    0.3862  -11.5931   -6.7102 H   0  0  0  0  0  0  0  0  0  0  0  0
   -6.7385   -4.4522   -8.2232 H   0  0  0  0  0  0  0  0  0  0  0  0
   -5.8711   -3.6417   -9.5713 H   0  0  0  0  0  0  0  0  0  0  0  0
   -6.0622   -5.4278   -9.5713 H   0  0  0  0  0  0  0  0  0  0  0  0
  1  2  1  0
  2  3  2  0
  3  4  1  0
  4  5  1  0
  4  6  2  0
  6  7  1  0
  7  8  1  0
  8  9  1  0
  9 10  2  0
 10 11  1  0
 11 12  1  0
 12 13  1  0
 13 14  1  0
 14 15  1  0
 15 16  1  0
 16 17  2  0
 17 18  1  0
 18 19  2  0
 19 20  1  0
 20 21  2  0
 21 22  1  0
 22 23  2  0
 23 24  1  0
 24 25  2  0
 11 26  2  0
 26 27  1  0
 27 28  1  0
 27 29  2  0
 29 30  1  0
  6 31  1  0
 31  2  1  0
 29  9  1  0
 25 16  1  0
 24 19  1  0
  1 32  1  0
  1 33  1  0
  1 34  1  0
  5 35  1  0
  5 36  1  0
  5 37  1  0
  7 38  1  0
  7 39  1  0
  8 40  1  0
 13 41  1  0
 13 42  1  0
 14 43  1  0
 14 44  1  0
 15 45  1  0
 15 46  1  0
 17 47  1  0
 18 48  1  0
 20 49  1  0
 21 50  1  0
 22 51  1  0
 23 52  1  0
 30 53  1  0
 30 54  1  0
 30 55  1  0
M  END
>  <meeko>  (2) 
{"is_sidechain": [false], "free_energy": -9.241, "intermolecular_energy": -13.463, "internal_energy": -1.152}

$$$$
5c2h_ligand
     RDKit          3D

 55 58  0  0  0  0  0  0  0  0999 V2000
   -1.8480   -5.6580  -14.8190 C   0  0  0  0  0  0  0  0  0  0  0  0
   -1.8210   -6.3900  -13.5260 C   0  0  0  0  0  0  0  0  0  0  0  0
   -0.8550   -7.1990  -13.1470 N   0  0  0  0  0  0  0  0  0  0  0  0
   -1.1370   -7.7290  -11.8980 C   0  0  0  0  0  0  0  0  0  0  0  0
   -0.1590   -8.6740  -11.2980 C   0  0  0  0  0  0  0  0  0  0  0  0
   -2.3360   -7.3080  -11.3440 C   0  0  0  0  0  0  0  0  0  0  0  0
   -2.9640   -7.6900  -10.0360 C   0  0  0  0  0  0  0  0  0  0  0  0
   -4.0420   -6.7960   -9.6020 N   0  0  0  0  0  0  0  0  0  0  0  0
   -3.7320   -5.8890   -8.5740 C   0  0  0  0  0  0  0  0  0  0  0  0
   -2.7000   -6.1560   -7.7580 N   0  0  0  0  0  0  0  0  0  0  0  0
   -2.4110   -5.2700   -6.8010 C   0  0  0  0  0  0  0  0  0  0  0  0
   -1.3750   -5.6180   -5.9690 O   0  0  0  0  0  0  0  0  0  0  0  0
   -0.1120   -5.5670   -6.6350 C   0  0  0  0  0  0  0  0  0  0  0  0
    0.7280   -6.8050   -6.3220 C   0  0  0  0  0  0  0  0  0  0  0  0
    0.1640   -7.5910   -5.1310 C   0  0  0  0  0  0  0  0  0  0  0  0
    0.4160   -9.0800   -5.1920 C   0  0  0  0  0  0  0  0  0  0  0  0
    0.1950   -9.7560   -6.3860 C   0  0  0  0  0  0  0  0  0  0  0  0
    0.4090  -11.1290   -6.4300 C   0  0  0  0  0  0  0  0  0  0  0  0
    0.8370  -11.8020   -5.2800 C   0  0  0  0  0  0  0  0  0  0  0  0
    1.0760  -13.1870   -5.2790 C   0  0  0  0  0  0  0  0  0  0  0  0
    1.5070  -13.8240   -4.1180 C   0  0  0  0  0  0  0  0  0  0  0  0
    1.6970  -13.0820   -2.9580 C   0  0  0  0  0  0  0  0  0  0  0  0
    1.4550  -11.7050   -2.9650 C   0  0  0  0  0  0  0  0  0  0  0  0
    1.0280  -11.0440   -4.1090 C   0  0  0  0  0  0  0  0  0  0  0  0
    0.8190   -9.7160   -4.0650 N   0  0  0  0  0  0  0  0  0  0  0  0
   -3.0790   -4.1490   -6.5510 N   0  0  0  0  0  0  0  0  0  0  0  0
   -4.1270   -3.9360   -7.3560 C   0  0  0  0  0  0  0  0  0  0  0  0
   -4.9270   -2.4520   -6.9950 Cl  0  0  0  0  0  0  0  0  0  0  0  0
   -4.5380   -4.7740   -8.3790 C   0  0  0  0  0  0  0  0  0  0  0  0
   -5.7250   -4.4640   -9.2380 C   0  0  0  0  0  0  0  0  0  0  0  0
   -3.1050   -6.2060  -12.4060 S   0  0  0  0  0  0  0  0  0  0  0  0
   -1.8879   -4.5757  -14.6268 H   0  0  0  0  0  0  0  0  0  0  0  0
   -0.9405   -5.8952  -15.3936 H   0  0  0  0  0  0  0  0  0  0  0  0
   -2.7356   -5.9614  -15.3936 H   0  0  0  0  0  0  0  0  0  0  0  0
   -0.2188   -8.6162  -10.2011 H   0  0  0  0  0  0  0  0  0  0  0  0
   -0.3913   -9.6984  -11.6244 H   0  0  0  0  0  0  0  0  0  0  0  0
    0.8569   -8.4067  -11.6244 H   0  0  0  0  0  0  0  0  0  0  0  0
   -3.3766   -8.7049  -10.1350 H   0  0  0  0  0  0  0  0  0  0  0  0
   -2.1729   -7.6234   -9.2746 H   0  0  0  0  0  0  0  0  0  0  0  0
   -4.4110   -6.2860  -10.3990 H   0  0  0  0  0  0  0  0  0  0  0  0
   -0.2807   -5.5129   -7.7206 H   0  0  0  0  0  0  0  0  0  0  0  0
    0.4322   -4.6784   -6.2824 H   0  0  0  0  0  0  0  0  0  0  0  0
    0.7409   -7.4592   -7.2062 H   0  0  0  0  0  0  0  0  0  0  0  0
    1.7434   -6.4719   -6.0614 H   0  0  0  0  0  0  0  0  0  0  0  0
    0.6252   -7.2011   -4.2116 H   0  0  0  0  0  0  0  0  0  0  0  0
   -0.9274   -7.4554   -5.1530 H   0  0  0  0  0  0  0  0  0  0  0  0
   -0.1436   -9.2138   -7.2812 H   0  0  0  0  0  0  0  0  0  0  0  0
    0.2426  -11.6841   -7.3650 H   0  0  0  0  0  0  0  0  0  0  0  0
    0.9220  -13.7702   -6.1989 H   0  0  0  0  0  0  0  0  0  0  0  0
    1.6959  -14.9077   -4.1189 H   0  0  0  0  0  0  0  0  0  0  0  0
    2.0370  -13.5772   -2.0365 H   0  0  0  0  0  0  0  0  0  0  0  0
    1.6069  -11.1300   -2.0396 H   0  0  0  0  0  0  0  0  0  0  0  0
   -6.5911   -4.2378   -8.5988 H   0  0  0  0  0  0  0  0  0  0  0  0
   -5.5009   -3.5943   -9.8731 H   0  0  0  0  0  0  0  0  0  0  0  0
   -5.9548   -5.3323   -9.8731 H   0  0  0  0  0  0  0  0  0  0  0  0
  1  2  1  0
  2  3  2  0
  3  4  1  0
  4  5  1  0
  4  6  2  0
  6  7  1  0
  7  8  1  0
  8  9  1  0
  9 10  2  0
 10 11  1  0
 11 12  1  0
 12 13  1  0
 13 14  1  0
 14 15  1  0
 15 16  1  0
 16 17  2  0
 17 18  1  0
 18 19  2  0
 19 20  1  0
 20 21  2  0
 21 22  1  0
 22 23  2  0
 23 24  1  0
 24 25  2  0
 11 26  2  0
 26 27  1  0
 27 28  1  0
 27 29  2  0
 29 30  1  0
  6 31  1  0
 31  2  1  0
 29  9  1  0
 25 16  1  0
 24 19  1  0
  1 32  1  0
  1 33  1  0
  1 34  1  0
  5 35  1  0
  5 36  1  0
  5 37  1  0
  7 38  1  0
  7 39  1  0
  8 40  1  0
 13 41  1  0
 13 42  1  0
 14 43  1  0
 14 44  1  0
 15 45  1  0
 15 46  1  0
 17 47  1  0
 18 48  1  0
 20 49  1  0
 21 50  1  0
 22 51  1  0
 23 52  1  0
 30 53  1  0
 30 54  1  0
 30 55  1  0
M  END
>  <meeko>  (3) 
{"is_sidechain": [false], "free_energy": -8.957, "intermolecular_energy": -13.154, "internal_energy": -1.045}

$$$$
5c2h_ligand
     RDKit          3D

 55 58  0  0  0  0  0  0  0  0999 V2000
   -2.6350   -3.2980   -5.8010 C   0  0  0  0  0  0  0  0  0  0  0  0
   -3.1850   -3.8180   -7.0810 C   0  0  0  0  0  0  0  0  0  0  0  0
   -4.4630   -3.8290   -7.3930 N   0  0  0  0  0  0  0  0  0  0  0  0
   -4.6440   -4.3880   -8.6480 C   0  0  0  0  0  0  0  0  0  0  0  0
   -6.0290   -4.4920   -9.1790 C   0  0  0  0  0  0  0  0  0  0  0  0
   -3.4790   -4.8010   -9.2750 C   0  0  0  0  0  0  0  0  0  0  0  0
   -3.3010   -5.4620  -10.6110 C   0  0  0  0  0  0  0  0  0  0  0  0
   -3.7200   -6.8660  -10.6480 N   0  0  0  0  0  0  0  0  0  0  0  0
   -3.1020   -7.7330   -9.7290 C   0  0  0  0  0  0  0  0  0  0  0  0
   -3.5380   -7.7550   -8.4590 N   0  0  0  0  0  0  0  0  0  0  0  0
   -2.9490   -8.6010   -7.6100 C   0  0  0  0  0  0  0  0  0  0  0  0
   -3.4050   -8.5480   -6.3150 O   0  0  0  0  0  0  0  0  0  0  0  0
   -2.3340   -8.5030   -5.3710 C   0  0  0  0  0  0  0  0  0  0  0  0
   -1.6060   -7.1590   -5.4260 C   0  0  0  0  0  0  0  0  0  0  0  0
   -0.0880   -7.3270   -5.2780 C   0  0  0  0  0  0  0  0  0  0  0  0
    0.3360   -8.6360   -4.6530 C   0  0  0  0  0  0  0  0  0  0  0  0
    0.7260   -8.6560   -3.3190 C   0  0  0  0  0  0  0  0  0  0  0  0
    1.1340   -9.8590   -2.7560 C   0  0  0  0  0  0  0  0  0  0  0  0
    1.1490  -11.0200   -3.5360 C   0  0  0  0  0  0  0  0  0  0  0  0
    1.5440  -12.2620   -3.0080 C   0  0  0  0  0  0  0  0  0  0  0  0
    1.5410  -13.4000   -3.8120 C   0  0  0  0  0  0  0  0  0  0  0  0
    1.1470  -13.3000   -5.1410 C   0  0  0  0  0  0  0  0  0  0  0  0
    0.7560  -12.0620   -5.6610 C   0  0  0  0  0  0  0  0  0  0  0  0
    0.7470  -10.9130   -4.8820 C   0  0  0  0  0  0  0  0  0  0  0  0
    0.3540   -9.7480   -5.4270 N   0  0  0  0  0  0  0  0  0  0  0  0
   -1.9330   -9.4080   -7.8930 N   0  0  0  0  0  0  0  0  0  0  0  0
   -1.4960   -9.3280   -9.1560 C   0  0  0  0  0  0  0  0  0  0  0  0
   -0.1990  -10.4230   -9.4620 Cl  0  0  0  0  0  0  0  0  0  0  0  0
   -2.0110   -8.4920  -10.1330 C   0  0  0  0  0  0  0  0  0  0  0  0
   -1.4660   -8.4620  -11.5280 C   0  0  0  0  0  0  0  0  0  0  0  0
   -2.1320   -4.4540   -8.2740 S   0  0  0  0  0  0  0  0  0  0  0  0
   -3.1481   -3.7831   -4.9575 H   0  0  0  0  0  0  0  0  0  0  0  0
   -1.5580   -3.5158   -5.7493 H   0  0  0  0  0  0  0  0  0  0  0  0
   -2.7921   -2.2105   -5.7493 H   0  0  0  0  0  0  0  0  0  0  0  0
   -6.7398   -4.5454   -8.3412 H   0  0  0  0  0  0  0  0  0  0  0  0
   -6.2531   -3.6082   -9.7943 H   0  0  0  0  0  0  0  0  0  0  0  0
   -6.1186   -5.3994   -9.7943 H   0  0  0  0  0  0  0  0  0  0  0  0
   -3.8932   -4.9058  -11.3526 H   0  0  0  0  0  0  0  0  0  0  0  0
   -2.2229   -5.4484  -10.8289 H   0  0  0  0  0  0  0  0  0  0  0  0
   -4.7280   -6.9300  -10.5420 H   0  0  0  0  0  0  0  0  0  0  0  0
   -2.7405   -8.6500   -4.3595 H   0  0  0  0  0  0  0  0  0  0  0  0
   -1.6164   -9.2989   -5.6193 H   0  0  0  0  0  0  0  0  0  0  0  0
   -1.8185   -6.6782   -6.3922 H   0  0  0  0  0  0  0  0  0  0  0  0
   -1.9649   -6.5412   -4.5897 H   0  0  0  0  0  0  0  0  0  0  0  0
    0.3649   -7.2604   -6.2782 H   0  0  0  0  0  0  0  0  0  0  0  0
    0.2520   -6.5302   -4.6002 H   0  0  0  0  0  0  0  0  0  0  0  0
    0.7119   -7.7343   -2.7187 H   0  0  0  0  0  0  0  0  0  0  0  0
    1.4439   -9.8982   -1.7013 H   0  0  0  0  0  0  0  0  0  0  0  0
    1.8566  -12.3355   -1.9559 H   0  0  0  0  0  0  0  0  0  0  0  0
    1.8485  -14.3714   -3.3975 H   0  0  0  0  0  0  0  0  0  0  0  0
    1.1427  -14.1932   -5.7829 H   0  0  0  0  0  0  0  0  0  0  0  0
    0.4475  -11.9970   -6.7149 H   0  0  0  0  0  0  0  0  0  0  0  0
   -0.3683   -8.4016  -11.4916 H   0  0  0  0  0  0  0  0  0  0  0  0
   -1.7654   -9.3780  -12.0584 H   0  0  0  0  0  0  0  0  0  0  0  0
   -1.8641   -7.5844  -12.0584 H   0  0  0  0  0  0  0  0  0  0  0  0
  1  2  1  0
  2  3  2  0
  3  4  1  0
  4  5  1  0
  4  6  2  0
  6  7  1  0
  7  8  1  0
  8  9  1  0
  9 10  2  0
 10 11  1  0
 11 12  1  0
 12 13  1  0
 13 14  1  0
 14 15  1  0
 15 16  1  0
 16 17  2  0
 17 18  1  0
 18 19  2  0
 19 20  1  0
 20 21  2  0
 21 22  1  0
 22 23  2  0
 23 24  1  0
 24 25  2  0
 11 26  2  0
 26 27  1  0
 27 28  1  0
 27 29  2  0
 29 30  1  0
  6 31  1  0
 31  2  1  0
 29  9  1  0
 25 16  1  0
 24 19  1  0
  1 32  1  0
  1 33  1  0
  1 34  1  0
  5 35  1  0
  5 36  1  0
  5 37  1  0
  7 38  1  0
  7 39  1  0
  8 40  1  0
 13 41  1  0
 13 42  1  0
 14 43  1  0
 14 44  1  0
 15 45  1  0
 15 46  1  0
 17 47  1  0
 18 48  1  0
 20 49  1  0
 21 50  1  0
 22 51  1  0
 23 52  1  0
 30 53  1  0
 30 54  1  0
 30 55  1  0
M  END
>  <meeko>  (4) 
{"is_sidechain": [false], "free_energy": -8.928, "intermolecular_energy": -13.481, "internal_energy": -0.676}

$$$$
5c2h_ligand
     RDKit          3D

 55 58  0  0  0  0  0  0  0  0999 V2000
   -3.0730   -2.0350   -5.9800 C   0  0  0  0  0  0  0  0  0  0  0  0
   -3.5950   -3.2270   -6.6990 C   0  0  0  0  0  0  0  0  0  0  0  0
   -4.6000   -3.2050   -7.5480 N   0  0  0  0  0  0  0  0  0  0  0  0
   -4.8420   -4.4790   -8.0350 C   0  0  0  0  0  0  0  0  0  0  0  0
   -5.9490   -4.6600   -9.0100 C   0  0  0  0  0  0  0  0  0  0  0  0
   -4.0040   -5.4640   -7.5340 C   0  0  0  0  0  0  0  0  0  0  0  0
   -3.9940   -6.9370   -7.8170 C   0  0  0  0  0  0  0  0  0  0  0  0
   -2.9450   -7.3640   -8.7480 N   0  0  0  0  0  0  0  0  0  0  0  0
   -1.8460   -8.0420   -8.1900 C   0  0  0  0  0  0  0  0  0  0  0  0
   -0.9960   -7.3670   -7.4000 N   0  0  0  0  0  0  0  0  0  0  0  0
    0.0280   -8.0380   -6.8650 C   0  0  0  0  0  0  0  0  0  0  0  0
    0.8900   -7.2860   -6.1030 O   0  0  0  0  0  0  0  0  0  0  0  0
    0.1970   -6.3330   -5.2950 C   0  0  0  0  0  0  0  0  0  0  0  0
   -0.3510   -6.9810   -4.0230 C   0  0  0  0  0  0  0  0  0  0  0  0
    0.7520   -7.2200   -2.9840 C   0  0  0  0  0  0  0  0  0  0  0  0
    1.1230   -8.6730   -2.7940 C   0  0  0  0  0  0  0  0  0  0  0  0
    1.9080   -9.0360   -1.7060 C   0  0  0  0  0  0  0  0  0  0  0  0
    2.2620  -10.3700   -1.5470 C   0  0  0  0  0  0  0  0  0  0  0  0
    1.8300  -11.3180   -2.4810 C   0  0  0  0  0  0  0  0  0  0  0  0
    2.1540  -12.6800   -2.3580 C   0  0  0  0  0  0  0  0  0  0  0  0
    1.7030  -13.5980   -3.3030 C   0  0  0  0  0  0  0  0  0  0  0  0
    0.9290  -13.1590   -4.3710 C   0  0  0  0  0  0  0  0  0  0  0  0
    0.6110  -11.8030   -4.4900 C   0  0  0  0  0  0  0  0  0  0  0  0
    1.0460  -10.8670   -3.5610 C   0  0  0  0  0  0  0  0  0  0  0  0
    0.7050   -9.5750   -3.7150 N   0  0  0  0  0  0  0  0  0  0  0  0
    0.3140   -9.3180   -7.0710 N   0  0  0  0  0  0  0  0  0  0  0  0
   -0.5300   -9.9490   -7.8980 C   0  0  0  0  0  0  0  0  0  0  0  0
   -0.1180  -11.6110   -8.0960 Cl  0  0  0  0  0  0  0  0  0  0  0  0
   -1.6230   -9.3730   -8.5230 C   0  0  0  0  0  0  0  0  0  0  0  0
   -2.5220  -10.1480   -9.4360 C   0  0  0  0  0  0  0  0  0  0  0  0
   -2.8760   -4.7630   -6.4520 S   0  0  0  0  0  0  0  0  0  0  0  0
   -3.1455   -2.2005   -4.8949 H   0  0  0  0  0  0  0  0  0  0  0  0
   -2.0209   -1.8716   -6.2565 H   0  0  0  0  0  0  0  0  0  0  0  0
   -3.6664   -1.1510   -6.2565 H   0  0  0  0  0  0  0  0  0  0  0  0
   -6.8936   -4.8144   -8.4678 H   0  0  0  0  0  0  0  0  0  0  0  0
   -6.0313   -3.7634   -9.6419 H   0  0  0  0  0  0  0  0  0  0  0  0
   -5.7415   -5.5361   -9.6419 H   0  0  0  0  0  0  0  0  0  0  0  0
   -3.8485   -7.4699   -6.8657 H   0  0  0  0  0  0  0  0  0  0  0  0
   -4.9559   -7.1730   -8.2955 H   0  0  0  0  0  0  0  0  0  0  0  0
   -3.3480   -7.9310   -9.4880 H   0  0  0  0  0  0  0  0  0  0  0  0
    0.8912   -5.5265   -5.0164 H   0  0  0  0  0  0  0  0  0  0  0  0
   -0.6484   -5.9340   -5.8747 H   0  0  0  0  0  0  0  0  0  0  0  0
   -1.1137   -6.3193   -3.5866 H   0  0  0  0  0  0  0  0  0  0  0  0
   -0.7816   -7.9561   -4.2946 H   0  0  0  0  0  0  0  0  0  0  0  0
    1.6514   -6.6738   -3.3045 H   0  0  0  0  0  0  0  0  0  0  0  0
    0.3583   -6.8666   -2.0196 H   0  0  0  0  0  0  0  0  0  0  0  0
    2.2438   -8.2789   -0.9821 H   0  0  0  0  0  0  0  0  0  0  0  0
    2.8791  -10.6795   -0.6907 H   0  0  0  0  0  0  0  0  0  0  0  0
    2.7668  -13.0225   -1.5112 H   0  0  0  0  0  0  0  0  0  0  0  0
    1.9576  -14.6636   -3.2050 H   0  0  0  0  0  0  0  0  0  0  0  0
    0.5673  -13.8775   -5.1213 H   0  0  0  0  0  0  0  0  0  0  0  0
    0.0003  -11.4687   -5.3417 H   0  0  0  0  0  0  0  0  0  0  0  0
   -3.2210  -10.7506   -8.8375 H   0  0  0  0  0  0  0  0  0  0  0  0
   -3.0891   -9.4511  -10.0706 H   0  0  0  0  0  0  0  0  0  0  0  0
   -1.9162  -10.8116  -10.0706 H   0  0  0  0  0  0  0  0  0  0  0  0
  1  2  1  0
  2  3  2  0
  3  4  1  0
  4  5  1  0
  4  6  2  0
  6  7  1  0
  7  8  1  0
  8  9  1  0
  9 10  2  0
 10 11  1  0
 11 12  1  0
 12 13  1  0
 13 14  1  0
 14 15  1  0
 15 16  1  0
 16 17  2  0
 17 18  1  0
 18 19  2  0
 19 20  1  0
 20 21  2  0
 21 22  1  0
 22 23  2  0
 23 24  1  0
 24 25  2  0
 11 26  2  0
 26 27  1  0
 27 28  1  0
 27 29  2  0
 29 30  1  0
  6 31  1  0
 31  2  1  0
 29  9  1  0
 25 16  1  0
 24 19  1  0
  1 32  1  0
  1 33  1  0
  1 34  1  0
  5 35  1  0
  5 36  1  0
  5 37  1  0
  7 38  1  0
  7 39  1  0
  8 40  1  0
 13 41  1  0
 13 42  1  0
 14 43  1  0
 14 44  1  0
 15 45  1  0
 15 46  1  0
 17 47  1  0
 18 48  1  0
 20 49  1  0
 21 50  1  0
 22 51  1  0
 23 52  1  0
 30 53  1  0
 30 54  1  0
 30 55  1  0
M  END
>  <meeko>  (5) 
{"is_sidechain": [false], "free_energy": -8.898, "intermolecular_energy": -12.885, "internal_energy": -1.227}

$$$$
5c2h_ligand
     RDKit          3D

 55 58  0  0  0  0  0  0  0  0999 V2000
   -0.6280   -6.7290   -4.1670 C   0  0  0  0  0  0  0  0  0  0  0  0
   -1.1270   -5.9660   -5.3420 C   0  0  0  0  0  0  0  0  0  0  0  0
   -1.9050   -4.9080   -5.2680 N   0  0  0  0  0  0  0  0  0  0  0  0
   -2.1970   -4.4390   -6.5390 C   0  0  0  0  0  0  0  0  0  0  0  0
   -3.0720   -3.2440   -6.6640 C   0  0  0  0  0  0  0  0  0  0  0  0
   -1.6280   -5.1660   -7.5730 C   0  0  0  0  0  0  0  0  0  0  0  0
   -1.7470   -4.9640   -9.0550 C   0  0  0  0  0  0  0  0  0  0  0  0
   -3.0120   -5.4360   -9.6270 N   0  0  0  0  0  0  0  0  0  0  0  0
   -3.4130   -6.7380   -9.2800 C   0  0  0  0  0  0  0  0  0  0  0  0
   -2.7300   -7.7840   -9.7750 N   0  0  0  0  0  0  0  0  0  0  0  0
   -3.1160   -9.0110   -9.4150 C   0  0  0  0  0  0  0  0  0  0  0  0
   -2.4100  -10.0420   -9.9870 O   0  0  0  0  0  0  0  0  0  0  0  0
   -1.2350   -9.5790  -10.6550 C   0  0  0  0  0  0  0  0  0  0  0  0
    0.0170   -9.8450   -9.8190 C   0  0  0  0  0  0  0  0  0  0  0  0
   -0.0170  -11.2330   -9.1670 C   0  0  0  0  0  0  0  0  0  0  0  0
    0.2190  -11.2260   -7.6740 C   0  0  0  0  0  0  0  0  0  0  0  0
   -0.0130  -10.0580   -6.9570 C   0  0  0  0  0  0  0  0  0  0  0  0
    0.2250  -10.0520   -5.5870 C   0  0  0  0  0  0  0  0  0  0  0  0
    0.6960  -11.2110   -4.9600 C   0  0  0  0  0  0  0  0  0  0  0  0
    0.9420  -11.2560   -3.5770 C   0  0  0  0  0  0  0  0  0  0  0  0
    1.4050  -12.4280   -2.9840 C   0  0  0  0  0  0  0  0  0  0  0  0
    1.6240  -13.5550   -3.7680 C   0  0  0  0  0  0  0  0  0  0  0  0
    1.3780  -13.5040   -5.1440 C   0  0  0  0  0  0  0  0  0  0  0  0
    0.9150  -12.3490   -5.7610 C   0  0  0  0  0  0  0  0  0  0  0  0
    0.6860  -12.3550   -7.0860 N   0  0  0  0  0  0  0  0  0  0  0  0
   -4.1490   -9.3040   -8.6330 N   0  0  0  0  0  0  0  0  0  0  0  0
   -4.8320   -8.2410   -8.1930 C   0  0  0  0  0  0  0  0  0  0  0  0
   -6.1380   -8.6930   -7.1620 Cl  0  0  0  0  0  0  0  0  0  0  0  0
   -4.5440   -6.9200   -8.4950 C   0  0  0  0  0  0  0  0  0  0  0  0
   -5.3590   -5.7820   -7.9610 C   0  0  0  0  0  0  0  0  0  0  0  0
   -0.6880   -6.4450   -6.9280 S   0  0  0  0  0  0  0  0  0  0  0  0
   -0.9534   -6.2314   -3.2416 H   0  0  0  0  0  0  0  0  0  0  0  0
   -1.0324   -7.7516   -4.1952 H   0  0  0  0  0  0  0  0  0  0  0  0
    0.4709   -6.7684   -4.1952 H   0  0  0  0  0  0  0  0  0  0  0  0
   -3.3394   -2.8788   -5.6614 H   0  0  0  0  0  0  0  0  0  0  0  0
   -2.5374   -2.4538   -7.2115 H   0  0  0  0  0  0  0  0  0  0  0  0
   -3.9867   -3.5150   -7.2115 H   0  0  0  0  0  0  0  0  0  0  0  0
   -1.6537   -3.8883   -9.2650 H   0  0  0  0  0  0  0  0  0  0  0  0
   -0.9482   -5.5603   -9.5201 H   0  0  0  0  0  0  0  0  0  0  0  0
   -3.7580   -4.7850   -9.4020 H   0  0  0  0  0  0  0  0  0  0  0  0
   -1.1407  -10.1012  -11.6186 H   0  0  0  0  0  0  0  0  0  0  0  0
   -1.3268   -8.4938  -10.8094 H   0  0  0  0  0  0  0  0  0  0  0  0
    0.9007   -9.7794  -10.4707 H   0  0  0  0  0  0  0  0  0  0  0  0
    0.0593   -9.0922   -9.0180 H   0  0  0  0  0  0  0  0  0  0  0  0
   -1.0045  -11.6787   -9.3574 H   0  0  0  0  0  0  0  0  0  0  0  0
    0.8064  -11.8102   -9.6129 H   0  0  0  0  0  0  0  0  0  0  0  0
   -0.3788   -9.1535   -7.4649 H   0  0  0  0  0  0  0  0  0  0  0  0
    0.0439   -9.1403   -4.9988 H   0  0  0  0  0  0  0  0  0  0  0  0
    0.7681  -10.3618   -2.9604 H   0  0  0  0  0  0  0  0  0  0  0  0
    1.5964  -12.4618   -1.9013 H   0  0  0  0  0  0  0  0  0  0  0  0
    1.9898  -14.4845   -3.3074 H   0  0  0  0  0  0  0  0  0  0  0  0
    1.5559  -14.4023   -5.7535 H   0  0  0  0  0  0  0  0  0  0  0  0
   -5.3432   -5.8040   -6.8613 H   0  0  0  0  0  0  0  0  0  0  0  0
   -4.9359   -4.8303   -8.3148 H   0  0  0  0  0  0  0  0  0  0  0  0
   -6.3963   -5.8762   -8.3148 H   0  0  0  0  0  0  0  0  0  0  0  0
  1  2  1  0
  2  3  2  0
  3  4  1  0
  4  5  1  0
  4  6  2  0
  6  7  1  0
  7  8  1  0
  8  9  1  0
  9 10  2  0
 10 11  1  0
 11 12  1  0
 12 13  1  0
 13 14  1  0
 14 15  1  0
 15 16  1  0
 16 17  2  0
 17 18  1  0
 18 19  2  0
 19 20  1  0
 20 21  2  0
 21 22  1  0
 22 23  2  0
 23 24  1  0
 24 25  2  0
 11 26  2  0
 26 27  1  0
 27 28  1  0
 27 29  2  0
 29 30  1  0
  6 31  1  0
 31  2  1  0
 29  9  1  0
 25 16  1  0
 24 19  1  0
  1 32  1  0
  1 33  1  0
  1 34  1  0
  5 35  1  0
  5 36  1  0
  5 37  1  0
  7 38  1  0
  7 39  1  0
  8 40  1  0
 13 41  1  0
 13 42  1  0
 14 43  1  0
 14 44  1  0
 15 45  1  0
 15 46  1  0
 17 47  1  0
 18 48  1  0
 20 49  1  0
 21 50  1  0
 22 51  1  0
 23 52  1  0
 30 53  1  0
 30 54  1  0
 30 55  1  0
M  END
>  <meeko>  (6) 
{"is_sidechain": [false], "free_energy": -8.835, "intermolecular_energy": -12.361, "internal_energy": -1.658}

$$$$
5c2h_ligand
     RDKit          3D

 55 58  0  0  0  0  0  0  0  0999 V2000
   -3.2010  -11.8250  -13.3430 C   0  0  0  0  0  0  0  0  0  0  0  0
   -3.0520  -10.7220  -12.3570 C   0  0  0  0  0  0  0  0  0  0  0  0
   -2.9910  -10.8900  -11.0530 N   0  0  0  0  0  0  0  0  0  0  0  0
   -2.8620   -9.6650  -10.4190 C   0  0  0  0  0  0  0  0  0  0  0  0
   -2.7810   -9.6470   -8.9350 C   0  0  0  0  0  0  0  0  0  0  0  0
   -2.8300   -8.5690  -11.2680 C   0  0  0  0  0  0  0  0  0  0  0  0
   -2.7250   -7.1100  -10.9340 C   0  0  0  0  0  0  0  0  0  0  0  0
   -3.8050   -6.6100  -10.0780 N   0  0  0  0  0  0  0  0  0  0  0  0
   -3.4200   -5.8700   -8.9450 C   0  0  0  0  0  0  0  0  0  0  0  0
   -2.3040   -6.2210   -8.2860 N   0  0  0  0  0  0  0  0  0  0  0  0
   -1.9470   -5.4910   -7.2260 C   0  0  0  0  0  0  0  0  0  0  0  0
   -0.8220   -5.9240   -6.5650 O   0  0  0  0  0  0  0  0  0  0  0  0
   -0.9150   -5.7100   -5.1560 C   0  0  0  0  0  0  0  0  0  0  0  0
   -1.2620   -7.0040   -4.4210 C   0  0  0  0  0  0  0  0  0  0  0  0
   -0.0280   -7.6350   -3.7640 C   0  0  0  0  0  0  0  0  0  0  0  0
    0.2690   -9.0450   -4.2210 C   0  0  0  0  0  0  0  0  0  0  0  0
   -0.0070   -9.4040   -5.5350 C   0  0  0  0  0  0  0  0  0  0  0  0
    0.2490  -10.7070   -5.9440 C   0  0  0  0  0  0  0  0  0  0  0  0
    0.7730  -11.6300   -5.0320 C   0  0  0  0  0  0  0  0  0  0  0  0
    1.0580  -12.9560   -5.4020 C   0  0  0  0  0  0  0  0  0  0  0  0
    1.5840  -13.8470   -4.4700 C   0  0  0  0  0  0  0  0  0  0  0  0
    1.8250  -13.4180   -3.1700 C   0  0  0  0  0  0  0  0  0  0  0  0
    1.5380  -12.0990   -2.8070 C   0  0  0  0  0  0  0  0  0  0  0  0
    1.0150  -11.1890   -3.7170 C   0  0  0  0  0  0  0  0  0  0  0  0
    0.7650   -9.9280   -3.3200 N   0  0  0  0  0  0  0  0  0  0  0  0
   -2.6180   -4.4590   -6.7300 N   0  0  0  0  0  0  0  0  0  0  0  0
   -3.7470   -4.1640   -7.3860 C   0  0  0  0  0  0  0  0  0  0  0  0
   -4.5510   -2.7970   -6.7070 Cl  0  0  0  0  0  0  0  0  0  0  0  0
   -4.2350   -4.8410   -8.4910 C   0  0  0  0  0  0  0  0  0  0  0  0
   -5.5100   -4.4480   -9.1710 C   0  0  0  0  0  0  0  0  0  0  0  0
   -2.9390   -9.0980  -12.8940 S   0  0  0  0  0  0  0  0  0  0  0  0
   -3.3298  -12.7785  -12.8098 H   0  0  0  0  0  0  0  0  0  0  0  0
   -4.0818  -11.6360  -13.9743 H   0  0  0  0  0  0  0  0  0  0  0  0
   -2.3017  -11.8765  -13.9743 H   0  0  0  0  0  0  0  0  0  0  0  0
   -3.7718   -9.8672   -8.5110 H   0  0  0  0  0  0  0  0  0  0  0  0
   -2.0608  -10.4070   -8.5979 H   0  0  0  0  0  0  0  0  0  0  0  0
   -2.4504   -8.6535   -8.5979 H   0  0  0  0  0  0  0  0  0  0  0  0
   -1.7690   -6.9426  -10.4163 H   0  0  0  0  0  0  0  0  0  0  0  0
   -2.7964   -6.5622  -11.8852 H   0  0  0  0  0  0  0  0  0  0  0  0
   -4.4590   -6.0620  -10.6290 H   0  0  0  0  0  0  0  0  0  0  0  0
    0.0506   -5.3352   -4.7857 H   0  0  0  0  0  0  0  0  0  0  0  0
   -1.7140   -4.9779   -4.9674 H   0  0  0  0  0  0  0  0  0  0  0  0
   -2.0059   -6.7822   -3.6417 H   0  0  0  0  0  0  0  0  0  0  0  0
   -1.6604   -7.7184   -5.1565 H   0  0  0  0  0  0  0  0  0  0  0  0
    0.8447   -7.0069   -3.9961 H   0  0  0  0  0  0  0  0  0  0  0  0
   -0.2401   -7.6919   -2.6861 H   0  0  0  0  0  0  0  0  0  0  0  0
   -0.4215   -8.6683   -6.2399 H   0  0  0  0  0  0  0  0  0  0  0  0
    0.0407  -11.0117   -6.9802 H   0  0  0  0  0  0  0  0  0  0  0  0
    0.8647  -13.2910   -6.4318 H   0  0  0  0  0  0  0  0  0  0  0  0
    1.8074  -14.8841   -4.7608 H   0  0  0  0  0  0  0  0  0  0  0  0
    2.2409  -14.1154   -2.4280 H   0  0  0  0  0  0  0  0  0  0  0  0
    1.7312  -11.7733   -1.7743 H   0  0  0  0  0  0  0  0  0  0  0  0
   -6.2722   -4.2131   -8.4135 H   0  0  0  0  0  0  0  0  0  0  0  0
   -5.3326   -3.5628   -9.7995 H   0  0  0  0  0  0  0  0  0  0  0  0
   -5.8617   -5.2794   -9.7995 H   0  0  0  0  0  0  0  0  0  0  0  0
  1  2  1  0
  2  3  2  0
  3  4  1  0
  4  5  1  0
  4  6  2  0
  6  7  1  0
  7  8  1  0
  8  9  1  0
  9 10  2  0
 10 11  1  0
 11 12  1  0
 12 13  1  0
 13 14  1  0
 14 15  1  0
 15 16  1  0
 16 17  2  0
 17 18  1  0
 18 19  2  0
 19 20  1  0
 20 21  2  0
 21 22  1  0
 22 23  2  0
 23 24  1  0
 24 25  2  0
 11 26  2  0
 26 27  1  0
 27 28  1  0
 27 29  2  0
 29 30  1  0
  6 31  1  0
 31  2  1  0
 29  9  1  0
 25 16  1  0
 24 19  1  0
  1 32  1  0
  1 33  1  0
  1 34  1  0
  5 35  1  0
  5 36  1  0
  5 37  1  0
  7 38  1  0
  7 39  1  0
  8 40  1  0
 13 41  1  0
 13 42  1  0
 14 43  1  0
 14 44  1  0
 15 45  1  0
 15 46  1  0
 17 47  1  0
 18 48  1  0
 20 49  1  0
 21 50  1  0
 22 51  1  0
 23 52  1  0
 30 53  1  0
 30 54  1  0
 30 55  1  0
M  END
>  <meeko>  (7) 
{"is_sidechain": [false], "free_energy": -8.791, "intermolecular_energy": -12.842, "internal_energy": -1.114}

$$$$
5c2h_ligand
     RDKit          3D

 55 58  0  0  0  0  0  0  0  0999 V2000
   -3.3630  -11.5790  -13.0280 C   0  0  0  0  0  0  0  0  0  0  0  0
   -2.8880  -10.6600  -11.9590 C   0  0  0  0  0  0  0  0  0  0  0  0
   -3.4740  -10.5090  -10.7910 N   0  0  0  0  0  0  0  0  0  0  0  0
   -2.7900   -9.5740  -10.0310 C   0  0  0  0  0  0  0  0  0  0  0  0
   -3.3040   -9.2610   -8.6710 C   0  0  0  0  0  0  0  0  0  0  0  0
   -1.6810   -9.0190  -10.6500 C   0  0  0  0  0  0  0  0  0  0  0  0
   -0.7330   -7.9720  -10.1410 C   0  0  0  0  0  0  0  0  0  0  0  0
   -1.1230   -6.5980  -10.4680 N   0  0  0  0  0  0  0  0  0  0  0  0
   -1.9480   -5.9390   -9.5390 C   0  0  0  0  0  0  0  0  0  0  0  0
   -1.4570   -5.6480   -8.3230 N   0  0  0  0  0  0  0  0  0  0  0  0
   -2.2510   -5.0030   -7.4650 C   0  0  0  0  0  0  0  0  0  0  0  0
   -1.7110   -4.7730   -6.2220 O   0  0  0  0  0  0  0  0  0  0  0  0
   -0.7040   -5.7310   -5.8900 C   0  0  0  0  0  0  0  0  0  0  0  0
   -1.2080   -6.7210   -4.8400 C   0  0  0  0  0  0  0  0  0  0  0  0
   -0.0530   -7.3490   -4.0490 C   0  0  0  0  0  0  0  0  0  0  0  0
    0.2290   -8.7920   -4.3990 C   0  0  0  0  0  0  0  0  0  0  0  0
   -0.0580   -9.2480   -5.6800 C   0  0  0  0  0  0  0  0  0  0  0  0
    0.1840  -10.5810   -5.9890 C   0  0  0  0  0  0  0  0  0  0  0  0
    0.7040  -11.4360   -5.0120 C   0  0  0  0  0  0  0  0  0  0  0  0
    0.9750  -12.7900   -5.2800 C   0  0  0  0  0  0  0  0  0  0  0  0
    1.4980  -13.6120   -4.2850 C   0  0  0  0  0  0  0  0  0  0  0  0
    1.7500  -13.0870   -3.0230 C   0  0  0  0  0  0  0  0  0  0  0  0
    1.4770  -11.7410   -2.7620 C   0  0  0  0  0  0  0  0  0  0  0  0
    0.9580  -10.8980   -3.7350 C   0  0  0  0  0  0  0  0  0  0  0  0
    0.7220   -9.6080   -3.4360 N   0  0  0  0  0  0  0  0  0  0  0  0
   -3.5120   -4.6500   -7.6850 N   0  0  0  0  0  0  0  0  0  0  0  0
   -3.9820   -4.9930   -8.8910 C   0  0  0  0  0  0  0  0  0  0  0  0
   -5.6120   -4.4780   -9.1200 Cl  0  0  0  0  0  0  0  0  0  0  0  0
   -3.2690   -5.6670   -9.8690 C   0  0  0  0  0  0  0  0  0  0  0  0
   -3.8680   -6.0150  -11.1970 C   0  0  0  0  0  0  0  0  0  0  0  0
   -1.4840   -9.7100  -12.2050 S   0  0  0  0  0  0  0  0  0  0  0  0
   -3.8223  -12.4676  -12.5703 H   0  0  0  0  0  0  0  0  0  0  0  0
   -4.1069  -11.0621  -13.6521 H   0  0  0  0  0  0  0  0  0  0  0  0
   -2.5111  -11.8869  -13.6521 H   0  0  0  0  0  0  0  0  0  0  0  0
   -2.6207   -9.6771   -7.9160 H   0  0  0  0  0  0  0  0  0  0  0  0
   -3.3686   -8.1701   -8.5455 H   0  0  0  0  0  0  0  0  0  0  0  0
   -4.3029   -9.7043   -8.5455 H   0  0  0  0  0  0  0  0  0  0  0  0
   -0.6745   -8.0626   -9.0463 H   0  0  0  0  0  0  0  0  0  0  0  0
    0.2325   -8.1526  -10.6361 H   0  0  0  0  0  0  0  0  0  0  0  0
   -0.2960   -6.0340  -10.6400 H   0  0  0  0  0  0  0  0  0  0  0  0
   -0.4213   -6.2838   -6.7980 H   0  0  0  0  0  0  0  0  0  0  0  0
    0.1633   -5.1957   -5.4762 H   0  0  0  0  0  0  0  0  0  0  0  0
   -1.8720   -6.1914   -4.1409 H   0  0  0  0  0  0  0  0  0  0  0  0
   -1.7449   -7.5279   -5.3603 H   0  0  0  0  0  0  0  0  0  0  0  0
    0.8571   -6.7630   -4.2446 H   0  0  0  0  0  0  0  0  0  0  0  0
   -0.3519   -7.3345   -2.9905 H   0  0  0  0  0  0  0  0  0  0  0  0
   -0.4701   -8.5647   -6.4372 H   0  0  0  0  0  0  0  0  0  0  0  0
   -0.0325  -10.9622   -6.9979 H   0  0  0  0  0  0  0  0  0  0  0  0
    0.7729  -13.2014   -6.2800 H   0  0  0  0  0  0  0  0  0  0  0  0
    1.7104  -14.6704   -4.4965 H   0  0  0  0  0  0  0  0  0  0  0  0
    2.1633  -13.7292   -2.2313 H   0  0  0  0  0  0  0  0  0  0  0  0
    1.6790  -11.3390   -1.7582 H   0  0  0  0  0  0  0  0  0  0  0  0
   -4.8097   -6.5621  -11.0424 H   0  0  0  0  0  0  0  0  0  0  0  0
   -4.0683   -5.0926  -11.7619 H   0  0  0  0  0  0  0  0  0  0  0  0
   -3.1659   -6.6458  -11.7619 H   0  0  0  0  0  0  0  0  0  0  0  0
  1  2  1  0
  2  3  2  0
  3  4  1  0
  4  5  1  0
  4  6  2  0
  6  7  1  0
  7  8  1  0
  8  9  1  0
  9 10  2  0
 10 11  1  0
 11 12  1  0
 12 13  1  0
 13 14  1  0
 14 15  1  0
 15 16  1  0
 16 17  2  0
 17 18  1  0
 18 19  2  0
 19 20  1  0
 20 21  2  0
 21 22  1  0
 22 23  2  0
 23 24  1  0
 24 25  2  0
 11 26  2  0
 26 27  1  0
 27 28  1  0
 27 29  2  0
 29 30  1  0
  6 31  1  0
 31  2  1  0
 29  9  1  0
 25 16  1  0
 24 19  1  0
  1 32  1  0
  1 33  1  0
  1 34  1  0
  5 35  1  0
  5 36  1  0
  5 37  1  0
  7 38  1  0
  7 39  1  0
  8 40  1  0
 13 41  1  0
 13 42  1  0
 14 43  1  0
 14 44  1  0
 15 45  1  0
 15 46  1  0
 17 47  1  0
 18 48  1  0
 20 49  1  0
 21 50  1  0
 22 51  1  0
 23 52  1  0
 30 53  1  0
 30 54  1  0
 30 55  1  0
M  END
>  <meeko>  (8) 
{"is_sidechain": [false], "free_energy": -8.781, "intermolecular_energy": -12.516, "internal_energy": -1.424}

$$$$
5c2h_ligand
     RDKit          3D

 55 58  0  0  0  0  0  0  0  0999 V2000
   -1.0310  -11.1390  -11.2640 C   0  0  0  0  0  0  0  0  0  0  0  0
   -1.4030   -9.6990  -11.2930 C   0  0  0  0  0  0  0  0  0  0  0  0
   -0.7130   -8.7630  -11.9070 N   0  0  0  0  0  0  0  0  0  0  0  0
   -1.3210   -7.5300  -11.7350 C   0  0  0  0  0  0  0  0  0  0  0  0
   -0.6850   -6.3390  -12.3560 C   0  0  0  0  0  0  0  0  0  0  0  0
   -2.4810   -7.5530  -10.9760 C   0  0  0  0  0  0  0  0  0  0  0  0
   -3.3760   -6.4190  -10.5710 C   0  0  0  0  0  0  0  0  0  0  0  0
   -4.0460   -6.6120   -9.2820 N   0  0  0  0  0  0  0  0  0  0  0  0
   -3.7320   -5.6920   -8.2650 C   0  0  0  0  0  0  0  0  0  0  0  0
   -2.6990   -5.9530   -7.4480 N   0  0  0  0  0  0  0  0  0  0  0  0
   -2.4060   -5.0560   -6.5030 C   0  0  0  0  0  0  0  0  0  0  0  0
   -1.3690   -5.3970   -5.6680 O   0  0  0  0  0  0  0  0  0  0  0  0
   -0.1620   -5.6490   -6.3890 C   0  0  0  0  0  0  0  0  0  0  0  0
    0.5010   -6.9440   -5.9210 C   0  0  0  0  0  0  0  0  0  0  0  0
   -0.1220   -7.4660   -4.6200 C   0  0  0  0  0  0  0  0  0  0  0  0
    0.3450   -8.8450   -4.2150 C   0  0  0  0  0  0  0  0  0  0  0  0
   -0.0180   -9.9390   -4.9910 C   0  0  0  0  0  0  0  0  0  0  0  0
    0.3980  -11.2070   -4.6020 C   0  0  0  0  0  0  0  0  0  0  0  0
    1.1660  -11.3590   -3.4420 C   0  0  0  0  0  0  0  0  0  0  0  0
    1.6180  -12.6200   -3.0140 C   0  0  0  0  0  0  0  0  0  0  0  0
    2.3850  -12.7350   -1.8570 C   0  0  0  0  0  0  0  0  0  0  0  0
    2.7000  -11.5960   -1.1260 C   0  0  0  0  0  0  0  0  0  0  0  0
    2.2460  -10.3450   -1.5560 C   0  0  0  0  0  0  0  0  0  0  0  0
    1.4820  -10.2010   -2.7060 C   0  0  0  0  0  0  0  0  0  0  0  0
    1.0780   -8.9740   -3.0820 N   0  0  0  0  0  0  0  0  0  0  0  0
   -3.0710   -3.9310   -6.2640 N   0  0  0  0  0  0  0  0  0  0  0  0
   -4.1200   -3.7250   -7.0690 C   0  0  0  0  0  0  0  0  0  0  0  0
   -4.9170   -2.2350   -6.7240 Cl  0  0  0  0  0  0  0  0  0  0  0  0
   -4.5360   -4.5740   -8.0810 C   0  0  0  0  0  0  0  0  0  0  0  0
   -5.7230   -4.2710   -8.9420 C   0  0  0  0  0  0  0  0  0  0  0  0
   -2.8220   -9.1630  -10.4960 S   0  0  0  0  0  0  0  0  0  0  0  0
   -0.9444  -11.4744  -10.2200 H   0  0  0  0  0  0  0  0  0  0  0  0
   -1.8064  -11.7284  -11.7753 H   0  0  0  0  0  0  0  0  0  0  0  0
   -0.0672  -11.2791  -11.7753 H   0  0  0  0  0  0  0  0  0  0  0  0
   -0.3240   -5.6629  -11.5670 H   0  0  0  0  0  0  0  0  0  0  0  0
    0.1621   -6.6594  -12.9803 H   0  0  0  0  0  0  0  0  0  0  0  0
   -1.4224   -5.8132  -12.9803 H   0  0  0  0  0  0  0  0  0  0  0  0
   -2.7677   -5.5046  -10.5098 H   0  0  0  0  0  0  0  0  0  0  0  0
   -4.1679   -6.3547  -11.3318 H   0  0  0  0  0  0  0  0  0  0  0  0
   -5.0530   -6.6330   -9.4140 H   0  0  0  0  0  0  0  0  0  0  0  0
   -0.3950   -5.7321   -7.4608 H   0  0  0  0  0  0  0  0  0  0  0  0
    0.5331   -4.8161   -6.2067 H   0  0  0  0  0  0  0  0  0  0  0  0
    0.3824   -7.7076   -6.7038 H   0  0  0  0  0  0  0  0  0  0  0  0
    1.5639   -6.7341   -5.7306 H   0  0  0  0  0  0  0  0  0  0  0  0
    0.1321   -6.7651   -3.8112 H   0  0  0  0  0  0  0  0  0  0  0  0
   -1.2050   -7.5403   -4.7976 H   0  0  0  0  0  0  0  0  0  0  0  0
   -0.6248   -9.8038   -5.8985 H   0  0  0  0  0  0  0  0  0  0  0  0
    0.1248  -12.0868   -5.2031 H   0  0  0  0  0  0  0  0  0  0  0  0
    1.3649  -13.5190   -3.5952 H   0  0  0  0  0  0  0  0  0  0  0  0
    2.7393  -13.7217   -1.5239 H   0  0  0  0  0  0  0  0  0  0  0  0
    3.3051  -11.6781   -0.2111 H   0  0  0  0  0  0  0  0  0  0  0  0
    2.5011   -9.4515   -0.9673 H   0  0  0  0  0  0  0  0  0  0  0  0
   -6.5915   -4.0493   -8.3043 H   0  0  0  0  0  0  0  0  0  0  0  0
   -5.5026   -3.4003   -9.5771 H   0  0  0  0  0  0  0  0  0  0  0  0
   -5.9469   -5.1408   -9.5771 H   0  0  0  0  0  0  0  0  0  0  0  0
  1  2  1  0
  2  3  2  0
  3  4  1  0
  4  5  1  0
  4  6  2  0
  6  7  1  0
  7  8  1  0
  8  9  1  0
  9 10  2  0
 10 11  1  0
 11 12  1  0
 12 13  1  0
 13 14  1  0
 14 15  1  0
 15 16  1  0
 16 17  2  0
 17 18  1  0
 18 19  2  0
 19 20  1  0
 20 21  2  0
 21 22  1  0
 22 23  2  0
 23 24  1  0
 24 25  2  0
 11 26  2  0
 26 27  1  0
 27 28  1  0
 27 29  2  0
 29 30  1  0
  6 31  1  0
 31  2  1  0
 29  9  1  0
 25 16  1  0
 24 19  1  0
  1 32  1  0
  1 33  1  0
  1 34  1  0
  5 35  1  0
  5 36  1  0
  5 37  1  0
  7 38  1  0
  7 39  1  0
  8 40  1  0
 13 41  1  0
 13 42  1  0
 14 43  1  0
 14 44  1  0
 15 45  1  0
 15 46  1  0
 17 47  1  0
 18 48  1  0
 20 49  1  0
 21 50  1  0
 22 51  1  0
 23 52  1  0
 30 53  1  0
 30 54  1  0
 30 55  1  0
M  END
>  <meeko>  (9) 
{"is_sidechain": [false], "free_energy": -8.778, "intermolecular_energy": -12.991, "internal_energy": -0.944}

$$$$
