3ebp_ligand
     RDKit          3D

 49 52  0  0  0  0  0  0  0  0999 V2000
   -6.3140   27.8970   12.8880 C   0  0  0  0  0  0  0  0  0  0  0  0
   -6.3720   29.1170   12.0290 N   0  0  1  0  0  0  0  0  0  0  0  0
   -5.0490   29.4610   11.3980 C   0  0  0  0  0  0  0  0  0  0  0  0
   -5.1360   30.7930   10.6520 C   0  0  0  0  0  0  0  0  0  0  0  0
   -6.3270   30.8120    9.6740 C   0  0  2  0  0  0  0  0  0  0  0  0
   -6.2870   32.0340    8.7550 C   0  0  0  0  0  0  0  0  0  0  0  0
   -6.2160   33.3640    9.1850 C   0  0  0  0  0  0  0  0  0  0  0  0
   -6.1370   33.6540   10.5190 O   0  0  0  0  0  0  0  0  0  0  0  0
   -6.2130   34.4290    8.2770 C   0  0  0  0  0  0  0  0  0  0  0  0
   -6.2840   34.1820    6.9060 C   0  0  0  0  0  0  0  0  0  0  0  0
   -6.2930   35.2390    6.0440 O   0  0  0  0  0  0  0  0  0  0  0  0
   -6.3430   32.8700    6.4300 C   0  0  0  0  0  0  0  0  0  0  0  0
   -6.4310   32.5450    4.9850 C   0  0  0  0  0  0  0  0  0  0  0  0
   -6.4090   33.3710    4.0840 O   0  0  0  0  0  0  0  0  0  0  0  0
   -6.5510   31.1210    4.6350 C   0  0  0  0  0  0  0  0  0  0  0  0
   -6.5000   30.2010    5.6040 C   0  0  0  0  0  0  0  0  0  0  0  0
   -6.5830   28.7560    5.3030 C   0  0  0  0  0  0  0  0  0  0  0  0
   -7.6620   28.2880    4.5290 C   0  0  0  0  0  0  0  0  0  0  0  0
   -7.7840   26.9340    4.2090 C   0  0  0  0  0  0  0  0  0  0  0  0
   -6.8310   26.0230    4.6530 C   0  0  0  0  0  0  0  0  0  0  0  0
   -5.7500   26.4660    5.4140 C   0  0  0  0  0  0  0  0  0  0  0  0
   -5.6210   27.8240    5.7350 C   0  0  0  0  0  0  0  0  0  0  0  0
   -4.2450   28.2760    6.6850 Cl  0  0  0  0  0  0  0  0  0  0  0  0
   -6.3510   30.4940    6.9430 O   0  0  0  0  0  0  0  0  0  0  0  0
   -6.3300   31.8130    7.3510 C   0  0  0  0  0  0  0  0  0  0  0  0
   -7.6320   30.4910   10.4420 C   0  0  2  0  0  0  0  0  0  0  0  0
   -7.7820   31.3300   11.6010 O   0  0  0  0  0  0  0  0  0  0  0  0
   -7.5080   29.0710   11.0150 C   0  0  0  0  0  0  0  0  0  0  0  0
   -6.3281   28.1934   13.9472 H   0  0  0  0  0  0  0  0  0  0  0  0
   -7.1827   27.2568   12.6748 H   0  0  0  0  0  0  0  0  0  0  0  0
   -5.3885   27.3421   12.6748 H   0  0  0  0  0  0  0  0  0  0  0  0
   -6.6340   29.9210   12.6310 H   0  0  0  0  0  0  0  0  0  0  0  0
   -4.2830   29.5366   12.1838 H   0  0  0  0  0  0  0  0  0  0  0  0
   -4.7832   28.6706   10.6806 H   0  0  0  0  0  0  0  0  0  0  0  0
   -5.2601   31.6054   11.3831 H   0  0  0  0  0  0  0  0  0  0  0  0
   -4.2102   30.9273   10.0733 H   0  0  0  0  0  0  0  0  0  0  0  0
   -6.2652   30.0017    8.9327 H   0  0  0  0  0  0  0  0  0  0  0  0
   -5.2910   34.1140   10.6920 H   0  0  0  0  0  0  0  0  0  0  0  0
   -6.1545   35.4638    8.6455 H   0  0  0  0  0  0  0  0  0  0  0  0
   -6.9010   35.9380    6.3310 H   0  0  0  0  0  0  0  0  0  0  0  0
   -6.6814   30.8161    3.5862 H   0  0  0  0  0  0  0  0  0  0  0  0
   -8.4205   28.9996    4.1709 H   0  0  0  0  0  0  0  0  0  0  0  0
   -8.6353   26.5873    3.6047 H   0  0  0  0  0  0  0  0  0  0  0  0
   -6.9300   24.9561    4.4044 H   0  0  0  0  0  0  0  0  0  0  0  0
   -4.9951   25.7465    5.7639 H   0  0  0  0  0  0  0  0  0  0  0  0
   -8.4707   30.6279    9.7436 H   0  0  0  0  0  0  0  0  0  0  0  0
   -7.5270   32.2310   11.3000 H   0  0  0  0  0  0  0  0  0  0  0  0
   -8.4463   28.7756   11.5073 H   0  0  0  0  0  0  0  0  0  0  0  0
   -7.3065   28.3359   10.2219 H   0  0  0  0  0  0  0  0  0  0  0  0
  1  2  1  0
  2  3  1  0
  3  4  1  0
  4  5  1  0
  5  6  1  0
  6  7  2  0
  7  8  1  0
  7  9  1  0
  9 10  2  0
 10 11  1  0
 10 12  1  0
 12 13  1  0
 13 14  2  0
 13 15  1  0
 15 16  2  0
 16 17  1  0
 17 18  2  0
 18 19  1  0
 19 20  2  0
 20 21  1  0
 21 22  2  0
 22 23  1  0
 16 24  1  0
 24 25  1  0
  5 26  1  0
 26 27  1  0
 26 28  1  0
 28  2  1  0
 25  6  1  0
 25 12  2  0
 22 17  1  0
  1 29  1  0
  1 30  1  0
  1 31  1  0
  2 32  1  1
  3 33  1  0
  3 34  1  0
  4 35  1  0
  4 36  1  0
  5 37  1  6
  8 38  1  0
  9 39  1  0
 11 40  1  0
 15 41  1  0
 18 42  1  0
 19 43  1  0
 20 44  1  0
 21 45  1  0
 26 46  1  6
 27 47  1  0
 28 48  1  0
 28 49  1  0
M  CHG  1   2   1
M  END
>  <meeko>  (1) 
{"is_sidechain": [false], "free_energy": -9.373, "intermolecular_energy": -11.291, "internal_energy": -0.859}

$$$$
3ebp_ligand
     RDKit          3D

 49 52  0  0  0  0  0  0  0  0999 V2000
   -5.4010   32.3860    1.2840 C   0  0  0  0  0  0  0  0  0  0  0  0
   -5.7320   32.2450    2.7340 N   0  0  1  0  0  0  0  0  0  0  0  0
   -4.5220   32.0070    3.5980 C   0  0  0  0  0  0  0  0  0  0  0  0
   -4.9360   31.7270    5.0420 C   0  0  0  0  0  0  0  0  0  0  0  0
   -5.8880   32.8160    5.5740 C   0  0  2  0  0  0  0  0  0  0  0  0
   -6.1180   32.6810    7.0810 C   0  0  0  0  0  0  0  0  0  0  0  0
   -6.0370   33.7300    8.0050 C   0  0  0  0  0  0  0  0  0  0  0  0
   -5.7710   35.0030    7.5830 O   0  0  0  0  0  0  0  0  0  0  0  0
   -6.2320   33.5160    9.3750 C   0  0  0  0  0  0  0  0  0  0  0  0
   -6.5130   32.2360    9.8520 C   0  0  0  0  0  0  0  0  0  0  0  0
   -6.6860   32.0540   11.1920 O   0  0  0  0  0  0  0  0  0  0  0  0
   -6.6170   31.1620    8.9650 C   0  0  0  0  0  0  0  0  0  0  0  0
   -6.9030   29.7770    9.4140 C   0  0  0  0  0  0  0  0  0  0  0  0
   -7.1230   29.4530   10.5720 O   0  0  0  0  0  0  0  0  0  0  0  0
   -6.9200   28.7360    8.3730 C   0  0  0  0  0  0  0  0  0  0  0  0
   -6.7570   29.0860    7.0930 C   0  0  0  0  0  0  0  0  0  0  0  0
   -6.7980   28.0840    6.0070 C   0  0  0  0  0  0  0  0  0  0  0  0
   -7.8850   28.1020    5.1130 C   0  0  0  0  0  0  0  0  0  0  0  0
   -7.9690   27.1810    4.0650 C   0  0  0  0  0  0  0  0  0  0  0  0
   -6.9700   26.2310    3.8890 C   0  0  0  0  0  0  0  0  0  0  0  0
   -5.8800   26.2000    4.7590 C   0  0  0  0  0  0  0  0  0  0  0  0
   -5.7900   27.1220    5.8100 C   0  0  0  0  0  0  0  0  0  0  0  0
   -4.3990   27.0040    6.8360 Cl  0  0  0  0  0  0  0  0  0  0  0  0
   -6.5570   30.3810    6.6640 O   0  0  0  0  0  0  0  0  0  0  0  0
   -6.4340   31.3930    7.5940 C   0  0  0  0  0  0  0  0  0  0  0  0
   -7.1120   32.9380    4.6340 C   0  0  2  0  0  0  0  0  0  0  0  0
   -7.7230   31.6570    4.3960 O   0  0  0  0  0  0  0  0  0  0  0  0
   -6.6060   33.3800    3.2530 C   0  0  0  0  0  0  0  0  0  0  0  0
   -4.3937   32.8151    1.1779 H   0  0  0  0  0  0  0  0  0  0  0  0
   -5.4308   31.3971    0.8032 H   0  0  0  0  0  0  0  0  0  0  0  0
   -6.1348   33.0497    0.8032 H   0  0  0  0  0  0  0  0  0  0  0  0
   -6.3460   31.4150    2.8430 H   0  0  0  0  0  0  0  0  0  0  0  0
   -3.9643   31.1427    3.2082 H   0  0  0  0  0  0  0  0  0  0  0  0
   -3.8914   32.9081    3.5793 H   0  0  0  0  0  0  0  0  0  0  0  0
   -5.4456   30.7532    5.0860 H   0  0  0  0  0  0  0  0  0  0  0  0
   -4.0311   31.7219    5.6674 H   0  0  0  0  0  0  0  0  0  0  0  0
   -5.4358   33.8177    5.5288 H   0  0  0  0  0  0  0  0  0  0  0  0
   -6.5500   35.3440    7.1010 H   0  0  0  0  0  0  0  0  0  0  0  0
   -6.1633   34.3600   10.0771 H   0  0  0  0  0  0  0  0  0  0  0  0
   -7.4770   32.5100   11.5230 H   0  0  0  0  0  0  0  0  0  0  0  0
   -7.0654   27.6803    8.6458 H   0  0  0  0  0  0  0  0  0  0  0  0
   -8.6798   28.8516    5.2409 H   0  0  0  0  0  0  0  0  0  0  0  0
   -8.8277   27.2082    3.3780 H   0  0  0  0  0  0  0  0  0  0  0  0
   -7.0387   25.5051    3.0654 H   0  0  0  0  0  0  0  0  0  0  0  0
   -5.0884   25.4491    4.6194 H   0  0  0  0  0  0  0  0  0  0  0  0
   -7.8233   33.6346    5.1018 H   0  0  0  0  0  0  0  0  0  0  0  0
   -7.3610   31.0660    5.0940 H   0  0  0  0  0  0  0  0  0  0  0  0
   -7.4539   33.5492    2.5730 H   0  0  0  0  0  0  0  0  0  0  0  0
   -6.0415   34.3220    3.3169 H   0  0  0  0  0  0  0  0  0  0  0  0
  1  2  1  0
  2  3  1  0
  3  4  1  0
  4  5  1  0
  5  6  1  0
  6  7  2  0
  7  8  1  0
  7  9  1  0
  9 10  2  0
 10 11  1  0
 10 12  1  0
 12 13  1  0
 13 14  2  0
 13 15  1  0
 15 16  2  0
 16 17  1  0
 17 18  2  0
 18 19  1  0
 19 20  2  0
 20 21  1  0
 21 22  2  0
 22 23  1  0
 16 24  1  0
 24 25  1  0
  5 26  1  0
 26 27  1  0
 26 28  1  0
 28  2  1  0
 25  6  1  0
 25 12  2  0
 22 17  1  0
  1 29  1  0
  1 30  1  0
  1 31  1  0
  2 32  1  6
  3 33  1  0
  3 34  1  0
  4 35  1  0
  4 36  1  0
  5 37  1  1
  8 38  1  0
  9 39  1  0
 11 40  1  0
 15 41  1  0
 18 42  1  0
 19 43  1  0
 20 44  1  0
 21 45  1  0
 26 46  1  1
 27 47  1  0
 28 48  1  0
 28 49  1  0
M  CHG  1   2   1
M  END
>  <meeko>  (2) 
{"is_sidechain": [false], "free_energy": -7.941, "intermolecular_energy": -9.881, "internal_energy": -0.544}

$$$$
3ebp_ligand
     RDKit          3D

 49 52  0  0  0  0  0  0  0  0999 V2000
   -3.6880   25.3780    6.7180 C   0  0  0  0  0  0  0  0  0  0  0  0
   -4.1740   26.7230    7.1530 N   0  0  1  0  0  0  0  0  0  0  0  0
   -3.1530   27.8120    6.9570 C   0  0  0  0  0  0  0  0  0  0  0  0
   -3.6490   29.1300    7.5500 C   0  0  0  0  0  0  0  0  0  0  0  0
   -5.0590   29.4830    7.0350 C   0  0  2  0  0  0  0  0  0  0  0  0
   -5.4670   30.9040    7.4280 C   0  0  0  0  0  0  0  0  0  0  0  0
   -5.5230   31.3930    8.7380 C   0  0  0  0  0  0  0  0  0  0  0  0
   -5.1600   30.5960    9.7880 O   0  0  0  0  0  0  0  0  0  0  0  0
   -5.9370   32.7010    9.0150 C   0  0  0  0  0  0  0  0  0  0  0  0
   -6.3100   33.5530    7.9770 C   0  0  0  0  0  0  0  0  0  0  0  0
   -6.7220   34.8180    8.2770 O   0  0  0  0  0  0  0  0  0  0  0  0
   -6.2580   33.1130    6.6520 C   0  0  0  0  0  0  0  0  0  0  0  0
   -6.6520   33.9690    5.5070 C   0  0  0  0  0  0  0  0  0  0  0  0
   -7.0050   35.1360    5.6000 O   0  0  0  0  0  0  0  0  0  0  0  0
   -6.6060   33.3500    4.1730 C   0  0  0  0  0  0  0  0  0  0  0  0
   -6.1510   32.0990    4.0460 C   0  0  0  0  0  0  0  0  0  0  0  0
   -6.0540   31.4430    2.7260 C   0  0  0  0  0  0  0  0  0  0  0  0
   -7.0970   30.5910    2.3170 C   0  0  0  0  0  0  0  0  0  0  0  0
   -7.0590   29.9500    1.0750 C   0  0  0  0  0  0  0  0  0  0  0  0
   -5.9810   30.1520    0.2190 C   0  0  0  0  0  0  0  0  0  0  0  0
   -4.9410   30.9980    0.6010 C   0  0  0  0  0  0  0  0  0  0  0  0
   -4.9750   31.6440    1.8430 C   0  0  0  0  0  0  0  0  0  0  0  0
   -3.6360   32.6740    2.2270 Cl  0  0  0  0  0  0  0  0  0  0  0  0
   -5.7210   31.3210    5.1000 O   0  0  0  0  0  0  0  0  0  0  0  0
   -5.8270   31.8050    6.3880 C   0  0  0  0  0  0  0  0  0  0  0  0
   -6.0260   28.3120    7.3320 C   0  0  2  0  0  0  0  0  0  0  0  0
   -5.9650   27.9150    8.7140 O   0  0  0  0  0  0  0  0  0  0  0  0
   -5.5310   27.0790    6.5610 C   0  0  0  0  0  0  0  0  0  0  0  0
   -3.4662   24.7642    7.6035 H   0  0  0  0  0  0  0  0  0  0  0  0
   -4.4648   24.8848    6.1152 H   0  0  0  0  0  0  0  0  0  0  0  0
   -2.7754   25.4952    6.1152 H   0  0  0  0  0  0  0  0  0  0  0  0
   -4.3710   26.6780    8.1710 H   0  0  0  0  0  0  0  0  0  0  0  0
   -2.2158   27.5221    7.4546 H   0  0  0  0  0  0  0  0  0  0  0  0
   -2.9855   27.9500    5.8786 H   0  0  0  0  0  0  0  0  0  0  0  0
   -3.6803   29.0401    8.6459 H   0  0  0  0  0  0  0  0  0  0  0  0
   -2.9582   29.9293    7.2436 H   0  0  0  0  0  0  0  0  0  0  0  0
   -5.0909   29.5625    5.9383 H   0  0  0  0  0  0  0  0  0  0  0  0
   -4.1890   30.4760    9.7720 H   0  0  0  0  0  0  0  0  0  0  0  0
   -5.9681   33.0576   10.0551 H   0  0  0  0  0  0  0  0  0  0  0  0
   -7.2280   35.2180    7.5520 H   0  0  0  0  0  0  0  0  0  0  0  0
   -6.9427   33.9109    3.2887 H   0  0  0  0  0  0  0  0  0  0  0  0
   -7.9555   30.4269    2.9849 H   0  0  0  0  0  0  0  0  0  0  0  0
   -7.8823   29.2853    0.7743 H   0  0  0  0  0  0  0  0  0  0  0  0
   -5.9494   29.6454   -0.7569 H   0  0  0  0  0  0  0  0  0  0  0  0
   -4.0895   31.1589   -0.0765 H   0  0  0  0  0  0  0  0  0  0  0  0
   -7.0394   28.6415    7.0591 H   0  0  0  0  0  0  0  0  0  0  0  0
   -5.6390   28.7090    9.1950 H   0  0  0  0  0  0  0  0  0  0  0  0
   -6.2337   26.2424    6.6884 H   0  0  0  0  0  0  0  0  0  0  0  0
   -5.4561   27.2843    5.4829 H   0  0  0  0  0  0  0  0  0  0  0  0
  1  2  1  0
  2  3  1  0
  3  4  1  0
  4  5  1  0
  5  6  1  0
  6  7  2  0
  7  8  1  0
  7  9  1  0
  9 10  2  0
 10 11  1  0
 10 12  1  0
 12 13  1  0
 13 14  2  0
 13 15  1  0
 15 16  2  0
 16 17  1  0
 17 18  2  0
 18 19  1  0
 19 20  2  0
 20 21  1  0
 21 22  2  0
 22 23  1  0
 16 24  1  0
 24 25  1  0
  5 26  1  0
 26 27  1  0
 26 28  1  0
 28  2  1  0
 25  6  1  0
 25 12  2  0
 22 17  1  0
  1 29  1  0
  1 30  1  0
  1 31  1  0
  2 32  1  1
  3 33  1  0
  3 34  1  0
  4 35  1  0
  4 36  1  0
  5 37  1  6
  8 38  1  0
  9 39  1  0
 11 40  1  0
 15 41  1  0
 18 42  1  0
 19 43  1  0
 20 44  1  0
 21 45  1  0
 26 46  1  6
 27 47  1  0
 28 48  1  0
 28 49  1  0
M  CHG  1   2   1
M  END
>  <meeko>  (3) 
{"is_sidechain": [false], "free_energy": -7.86, "intermolecular_energy": -9.338, "internal_energy": -0.99}

$$$$
3ebp_ligand
     RDKit          3D

 49 52  0  0  0  0  0  0  0  0999 V2000
   -1.4010   30.6910   10.5400 C   0  0  0  0  0  0  0  0  0  0  0  0
   -2.1830   29.8530    9.5820 N   0  0  1  0  0  0  0  0  0  0  0  0
   -3.6430   29.7520    9.9390 C   0  0  0  0  0  0  0  0  0  0  0  0
   -4.3590   28.7700    9.0120 C   0  0  0  0  0  0  0  0  0  0  0  0
   -4.0910   29.1000    7.5310 C   0  0  2  0  0  0  0  0  0  0  0  0
   -4.9850   28.2820    6.5970 C   0  0  0  0  0  0  0  0  0  0  0  0
   -4.9060   26.8950    6.4150 C   0  0  0  0  0  0  0  0  0  0  0  0
   -4.0020   26.1570    7.1280 O   0  0  0  0  0  0  0  0  0  0  0  0
   -5.7430   26.2250    5.5170 C   0  0  0  0  0  0  0  0  0  0  0  0
   -6.6860   26.9350    4.7730 C   0  0  0  0  0  0  0  0  0  0  0  0
   -7.4810   26.2580    3.8960 O   0  0  0  0  0  0  0  0  0  0  0  0
   -6.8100   28.3170    4.9310 C   0  0  0  0  0  0  0  0  0  0  0  0
   -7.7850   29.1270    4.1610 C   0  0  0  0  0  0  0  0  0  0  0  0
   -8.5950   28.6710    3.3670 O   0  0  0  0  0  0  0  0  0  0  0  0
   -7.7590   30.5820    4.3860 C   0  0  0  0  0  0  0  0  0  0  0  0
   -6.9320   31.0880    5.3070 C   0  0  0  0  0  0  0  0  0  0  0  0
   -6.8900   32.5370    5.5940 C   0  0  0  0  0  0  0  0  0  0  0  0
   -7.4530   33.0030    6.7970 C   0  0  0  0  0  0  0  0  0  0  0  0
   -7.4340   34.3630    7.1220 C   0  0  0  0  0  0  0  0  0  0  0  0
   -6.8510   35.2790    6.2530 C   0  0  0  0  0  0  0  0  0  0  0  0
   -6.2810   34.8380    5.0600 C   0  0  0  0  0  0  0  0  0  0  0  0
   -6.2950   33.4760    4.7310 C   0  0  0  0  0  0  0  0  0  0  0  0
   -5.5620   33.0260    3.2270 Cl  0  0  0  0  0  0  0  0  0  0  0  0
   -6.0710   30.3320    6.0730 O   0  0  0  0  0  0  0  0  0  0  0  0
   -5.9740   28.9740    5.8460 C   0  0  0  0  0  0  0  0  0  0  0  0
   -2.5650   29.1300    7.2750 C   0  0  2  0  0  0  0  0  0  0  0  0
   -1.9250   27.9360    7.7590 O   0  0  0  0  0  0  0  0  0  0  0  0
   -1.9630   30.2560    8.1300 C   0  0  0  0  0  0  0  0  0  0  0  0
   -1.6628   30.4104   11.5709 H   0  0  0  0  0  0  0  0  0  0  0  0
   -0.3255   30.5271   10.3773 H   0  0  0  0  0  0  0  0  0  0  0  0
   -1.6388   31.7526   10.3773 H   0  0  0  0  0  0  0  0  0  0  0  0
   -1.8000   28.8890    9.6140 H   0  0  0  0  0  0  0  0  0  0  0  0
   -3.7374   29.4024   10.9777 H   0  0  0  0  0  0  0  0  0  0  0  0
   -4.1040   30.7444    9.8270 H   0  0  0  0  0  0  0  0  0  0  0  0
   -4.0000   27.7518    9.2227 H   0  0  0  0  0  0  0  0  0  0  0  0
   -5.4411   28.8471    9.1942 H   0  0  0  0  0  0  0  0  0  0  0  0
   -4.4096   30.1204    7.2718 H   0  0  0  0  0  0  0  0  0  0  0  0
   -3.5280   25.5610    6.5140 H   0  0  0  0  0  0  0  0  0  0  0  0
   -5.6577   25.1349    5.3969 H   0  0  0  0  0  0  0  0  0  0  0  0
   -7.8970   25.4830    4.3050 H   0  0  0  0  0  0  0  0  0  0  0  0
   -8.4134   31.2461    3.8023 H   0  0  0  0  0  0  0  0  0  0  0  0
   -7.9150   32.2864    7.4921 H   0  0  0  0  0  0  0  0  0  0  0  0
   -7.8806   34.7086    8.0660 H   0  0  0  0  0  0  0  0  0  0  0  0
   -6.8398   36.3493    6.5067 H   0  0  0  0  0  0  0  0  0  0  0  0
   -5.8181   35.5624    4.3737 H   0  0  0  0  0  0  0  0  0  0  0  0
   -2.4122   29.2493    6.1922 H   0  0  0  0  0  0  0  0  0  0  0  0
   -1.6040   27.4720    6.9530 H   0  0  0  0  0  0  0  0  0  0  0  0
   -0.8878   30.3592    7.9219 H   0  0  0  0  0  0  0  0  0  0  0  0
   -2.4357   31.2240    7.9073 H   0  0  0  0  0  0  0  0  0  0  0  0
  1  2  1  0
  2  3  1  0
  3  4  1  0
  4  5  1  0
  5  6  1  0
  6  7  2  0
  7  8  1  0
  7  9  1  0
  9 10  2  0
 10 11  1  0
 10 12  1  0
 12 13  1  0
 13 14  2  0
 13 15  1  0
 15 16  2  0
 16 17  1  0
 17 18  2  0
 18 19  1  0
 19 20  2  0
 20 21  1  0
 21 22  2  0
 22 23  1  0
 16 24  1  0
 24 25  1  0
  5 26  1  0
 26 27  1  0
 26 28  1  0
 28  2  1  0
 25  6  1  0
 25 12  2  0
 22 17  1  0
  1 29  1  0
  1 30  1  0
  1 31  1  0
  2 32  1  6
  3 33  1  0
  3 34  1  0
  4 35  1  0
  4 36  1  0
  5 37  1  1
  8 38  1  0
  9 39  1  0
 11 40  1  0
 15 41  1  0
 18 42  1  0
 19 43  1  0
 20 44  1  0
 21 45  1  0
 26 46  1  6
 27 47  1  0
 28 48  1  0
 28 49  1  0
M  CHG  1   2   1
M  END
>  <meeko>  (4) 
{"is_sidechain": [false], "free_energy": -7.756, "intermolecular_energy": -9.218, "internal_energy": -0.984}

$$$$
3ebp_ligand
     RDKit          3D

 49 52  0  0  0  0  0  0  0  0999 V2000
   -7.3280   25.6550    5.2240 C   0  0  0  0  0  0  0  0  0  0  0  0
   -7.2700   27.1370    5.3980 N   0  0  1  0  0  0  0  0  0  0  0  0
   -5.8680   27.6830    5.3610 C   0  0  0  0  0  0  0  0  0  0  0  0
   -5.8600   29.1760    5.6890 C   0  0  0  0  0  0  0  0  0  0  0  0
   -6.8630   29.9490    4.8110 C   0  0  2  0  0  0  0  0  0  0  0  0
   -6.6970   31.4620    4.9580 C   0  0  0  0  0  0  0  0  0  0  0  0
   -6.6650   32.3760    3.8970 C   0  0  0  0  0  0  0  0  0  0  0  0
   -6.8270   31.9450    2.6100 O   0  0  0  0  0  0  0  0  0  0  0  0
   -6.4780   33.7460    4.1160 C   0  0  0  0  0  0  0  0  0  0  0  0
   -6.3160   34.2340    5.4120 C   0  0  0  0  0  0  0  0  0  0  0  0
   -6.1220   35.5710    5.5940 O   0  0  0  0  0  0  0  0  0  0  0  0
   -6.3530   33.3610    6.5020 C   0  0  0  0  0  0  0  0  0  0  0  0
   -6.1760   33.8200    7.9010 C   0  0  0  0  0  0  0  0  0  0  0  0
   -6.0340   34.9850    8.2390 O   0  0  0  0  0  0  0  0  0  0  0  0
   -6.1760   32.7780    8.9420 C   0  0  0  0  0  0  0  0  0  0  0  0
   -6.4070   31.5070    8.5970 C   0  0  0  0  0  0  0  0  0  0  0  0
   -6.4500   30.4290    9.6070 C   0  0  0  0  0  0  0  0  0  0  0  0
   -7.6590   30.1850   10.2840 C   0  0  0  0  0  0  0  0  0  0  0  0
   -7.7570   29.1730   11.2430 C   0  0  0  0  0  0  0  0  0  0  0  0
   -6.6500   28.3850   11.5400 C   0  0  0  0  0  0  0  0  0  0  0  0
   -5.4440   28.6040   10.8760 C   0  0  0  0  0  0  0  0  0  0  0  0
   -5.3420   29.6160    9.9130 C   0  0  0  0  0  0  0  0  0  0  0  0
   -3.8020   29.8110    9.1430 Cl  0  0  0  0  0  0  0  0  0  0  0  0
   -6.6380   31.0850    7.3050 O   0  0  0  0  0  0  0  0  0  0  0  0
   -6.5560   31.9930    6.2690 C   0  0  0  0  0  0  0  0  0  0  0  0
   -8.2730   29.3280    4.9660 C   0  0  2  0  0  0  0  0  0  0  0  0
   -8.6440   29.2040    6.3510 O   0  0  0  0  0  0  0  0  0  0  0  0
   -8.2110   27.8790    4.4590 C   0  0  0  0  0  0  0  0  0  0  0  0
   -7.3470   25.1704    6.2113 H   0  0  0  0  0  0  0  0  0  0  0  0
   -8.2373   25.3866    4.6663 H   0  0  0  0  0  0  0  0  0  0  0  0
   -6.4424   25.3164    4.6663 H   0  0  0  0  0  0  0  0  0  0  0  0
   -7.6550   27.3640    6.3360 H   0  0  0  0  0  0  0  0  0  0  0  0
   -5.2527   27.1479    6.0993 H   0  0  0  0  0  0  0  0  0  0  0  0
   -5.4602   27.5413    4.3493 H   0  0  0  0  0  0  0  0  0  0  0  0
   -6.1310   29.3117    6.7464 H   0  0  0  0  0  0  0  0  0  0  0  0
   -4.8517   29.5689    5.4913 H   0  0  0  0  0  0  0  0  0  0  0  0
   -6.6514   29.8275    3.7384 H   0  0  0  0  0  0  0  0  0  0  0  0
   -7.1330   31.0160    2.6250 H   0  0  0  0  0  0  0  0  0  0  0  0
   -6.4588   34.4399    3.2627 H   0  0  0  0  0  0  0  0  0  0  0  0
   -6.6220   35.9120    6.3530 H   0  0  0  0  0  0  0  0  0  0  0  0
   -5.9878   33.0428    9.9929 H   0  0  0  0  0  0  0  0  0  0  0  0
   -8.5413   30.8006   10.0548 H   0  0  0  0  0  0  0  0  0  0  0  0
   -8.7105   28.9996   11.7634 H   0  0  0  0  0  0  0  0  0  0  0  0
   -6.7260   27.5907   12.2972 H   0  0  0  0  0  0  0  0  0  0  0  0
   -4.5690   27.9796   11.1093 H   0  0  0  0  0  0  0  0  0  0  0  0
   -8.9814   29.9701    4.4220 H   0  0  0  0  0  0  0  0  0  0  0  0
   -9.3240   29.9000    6.4980 H   0  0  0  0  0  0  0  0  0  0  0  0
   -9.2119   27.4234    4.4847 H   0  0  0  0  0  0  0  0  0  0  0  0
   -7.8550   27.8344    3.4192 H   0  0  0  0  0  0  0  0  0  0  0  0
  1  2  1  0
  2  3  1  0
  3  4  1  0
  4  5  1  0
  5  6  1  0
  6  7  2  0
  7  8  1  0
  7  9  1  0
  9 10  2  0
 10 11  1  0
 10 12  1  0
 12 13  1  0
 13 14  2  0
 13 15  1  0
 15 16  2  0
 16 17  1  0
 17 18  2  0
 18 19  1  0
 19 20  2  0
 20 21  1  0
 21 22  2  0
 22 23  1  0
 16 24  1  0
 24 25  1  0
  5 26  1  0
 26 27  1  0
 26 28  1  0
 28  2  1  0
 25  6  1  0
 25 12  2  0
 22 17  1  0
  1 29  1  0
  1 30  1  0
  1 31  1  0
  2 32  1  1
  3 33  1  0
  3 34  1  0
  4 35  1  0
  4 36  1  0
  5 37  1  6
  8 38  1  0
  9 39  1  0
 11 40  1  0
 15 41  1  0
 18 42  1  0
 19 43  1  0
 20 44  1  0
 21 45  1  0
 26 46  1  6
 27 47  1  0
 28 48  1  0
 28 49  1  0
M  CHG  1   2   1
M  END
>  <meeko>  (5) 
{"is_sidechain": [false], "free_energy": -7.479, "intermolecular_energy": -9.247, "internal_energy": -0.621}

$$$$
3ebp_ligand
     RDKit          3D

 49 52  0  0  0  0  0  0  0  0999 V2000
   -8.8770   29.6970   -0.6720 C   0  0  0  0  0  0  0  0  0  0  0  0
   -8.1960   28.9710    0.4420 N   0  0  1  0  0  0  0  0  0  0  0  0
   -6.8000   29.4680    0.7080 C   0  0  0  0  0  0  0  0  0  0  0  0
   -6.1060   28.5950    1.7530 C   0  0  0  0  0  0  0  0  0  0  0  0
   -6.9730   28.4370    3.0170 C   0  0  2  0  0  0  0  0  0  0  0  0
   -6.1970   27.7720    4.1560 C   0  0  0  0  0  0  0  0  0  0  0  0
   -5.8650   26.4130    4.2200 C   0  0  0  0  0  0  0  0  0  0  0  0
   -6.2020   25.5720    3.1960 O   0  0  0  0  0  0  0  0  0  0  0  0
   -5.1790   25.8770    5.3150 C   0  0  0  0  0  0  0  0  0  0  0  0
   -4.8080   26.6970    6.3810 C   0  0  0  0  0  0  0  0  0  0  0  0
   -4.1510   26.1460    7.4410 O   0  0  0  0  0  0  0  0  0  0  0  0
   -5.1070   28.0610    6.3550 C   0  0  0  0  0  0  0  0  0  0  0  0
   -4.7480   28.9810    7.4620 C   0  0  0  0  0  0  0  0  0  0  0  0
   -4.1240   28.6560    8.4620 O   0  0  0  0  0  0  0  0  0  0  0  0
   -5.1820   30.3810    7.3250 C   0  0  0  0  0  0  0  0  0  0  0  0
   -5.7980   30.7690    6.2030 C   0  0  0  0  0  0  0  0  0  0  0  0
   -6.2250   32.1690    6.0020 C   0  0  0  0  0  0  0  0  0  0  0  0
   -6.9740   32.7990    7.0140 C   0  0  0  0  0  0  0  0  0  0  0  0
   -7.3970   34.1240    6.8780 C   0  0  0  0  0  0  0  0  0  0  0  0
   -7.0780   34.8440    5.7320 C   0  0  0  0  0  0  0  0  0  0  0  0
   -6.3310   34.2420    4.7200 C   0  0  0  0  0  0  0  0  0  0  0  0
   -5.9020   32.9150    4.8530 C   0  0  0  0  0  0  0  0  0  0  0  0
   -4.9800   32.2560    3.5430 Cl  0  0  0  0  0  0  0  0  0  0  0  0
   -6.0750   29.9330    5.1430 O   0  0  0  0  0  0  0  0  0  0  0  0
   -5.7820   28.5880    5.2440 C   0  0  0  0  0  0  0  0  0  0  0  0
   -8.3620   27.8780    2.6260 C   0  0  2  0  0  0  0  0  0  0  0  0
   -8.2450   26.6950    1.8160 O   0  0  0  0  0  0  0  0  0  0  0  0
   -9.0430   28.9030    1.7060 C   0  0  0  0  0  0  0  0  0  0  0  0
   -9.5732   30.4392   -0.2544 H   0  0  0  0  0  0  0  0  0  0  0  0
   -8.1245   30.2076   -1.2909 H   0  0  0  0  0  0  0  0  0  0  0  0
   -9.4347   28.9787   -1.2909 H   0  0  0  0  0  0  0  0  0  0  0  0
   -8.1120   27.9730    0.1680 H   0  0  0  0  0  0  0  0  0  0  0  0
   -6.2222   29.4397   -0.2276 H   0  0  0  0  0  0  0  0  0  0  0  0
   -6.8579   30.4981    1.0896 H   0  0  0  0  0  0  0  0  0  0  0  0
   -5.9177   27.6009    1.3213 H   0  0  0  0  0  0  0  0  0  0  0  0
   -5.1615   29.0809    2.0389 H   0  0  0  0  0  0  0  0  0  0  0  0
   -7.2139   29.4068    3.4768 H   0  0  0  0  0  0  0  0  0  0  0  0
   -5.9910   26.0100    2.3470 H   0  0  0  0  0  0  0  0  0  0  0  0
   -4.9313   24.8055    5.3356 H   0  0  0  0  0  0  0  0  0  0  0  0
   -4.2490   25.1810    7.4680 H   0  0  0  0  0  0  0  0  0  0  0  0
   -5.0015   31.1007    8.1371 H   0  0  0  0  0  0  0  0  0  0  0  0
   -7.2302   32.2397    7.9259 H   0  0  0  0  0  0  0  0  0  0  0  0
   -7.9833   34.5981    7.6789 H   0  0  0  0  0  0  0  0  0  0  0  0
   -7.4141   35.8858    5.6240 H   0  0  0  0  0  0  0  0  0  0  0  0
   -6.0776   34.8114    3.8136 H   0  0  0  0  0  0  0  0  0  0  0  0
   -8.9101   27.6673    3.5562 H   0  0  0  0  0  0  0  0  0  0  0  0
   -7.3870   26.2900    2.0750 H   0  0  0  0  0  0  0  0  0  0  0  0
  -10.0650   28.5768    1.4627 H   0  0  0  0  0  0  0  0  0  0  0  0
   -9.1183   29.8876    2.1906 H   0  0  0  0  0  0  0  0  0  0  0  0
  1  2  1  0
  2  3  1  0
  3  4  1  0
  4  5  1  0
  5  6  1  0
  6  7  2  0
  7  8  1  0
  7  9  1  0
  9 10  2  0
 10 11  1  0
 10 12  1  0
 12 13  1  0
 13 14  2  0
 13 15  1  0
 15 16  2  0
 16 17  1  0
 17 18  2  0
 18 19  1  0
 19 20  2  0
 20 21  1  0
 21 22  2  0
 22 23  1  0
 16 24  1  0
 24 25  1  0
  5 26  1  0
 26 27  1  0
 26 28  1  0
 28  2  1  0
 25  6  1  0
 25 12  2  0
 22 17  1  0
  1 29  1  0
  1 30  1  0
  1 31  1  0
  2 32  1  6
  3 33  1  0
  3 34  1  0
  4 35  1  0
  4 36  1  0
  5 37  1  1
  8 38  1  0
  9 39  1  0
 11 40  1  0
 15 41  1  0
 18 42  1  0
 19 43  1  0
 20 44  1  0
 21 45  1  0
 26 46  1  1
 27 47  1  0
 28 48  1  0
 28 49  1  0
M  CHG  1   2   1
M  END
>  <meeko>  (6) 
{"is_sidechain": [false], "free_energy": -7.408, "intermolecular_energy": -8.887, "internal_energy": -0.896}

$$$$
3ebp_ligand
     RDKit          3D

 49 52  0  0  0  0  0  0  0  0999 V2000
   -2.6820   30.5200    7.2500 C   0  0  0  0  0  0  0  0  0  0  0  0
   -4.0650   30.3450    6.7120 N   0  0  1  0  0  0  0  0  0  0  0  0
   -4.3480   31.2090    5.5120 C   0  0  0  0  0  0  0  0  0  0  0  0
   -5.8150   31.0970    5.0980 C   0  0  0  0  0  0  0  0  0  0  0  0
   -6.2400   29.6240    4.9330 C   0  0  2  0  0  0  0  0  0  0  0  0
   -7.6230   29.5020    4.2920 C   0  0  0  0  0  0  0  0  0  0  0  0
   -8.8260   29.9000    4.8890 C   0  0  0  0  0  0  0  0  0  0  0  0
   -8.8220   30.4820    6.1260 O   0  0  0  0  0  0  0  0  0  0  0  0
  -10.0560   29.7250    4.2460 C   0  0  0  0  0  0  0  0  0  0  0  0
  -10.1100   29.1420    2.9800 C   0  0  0  0  0  0  0  0  0  0  0  0
  -11.3230   28.9720    2.3820 O   0  0  0  0  0  0  0  0  0  0  0  0
   -8.9340   28.7420    2.3400 C   0  0  0  0  0  0  0  0  0  0  0  0
   -8.9290   28.1070    0.9990 C   0  0  0  0  0  0  0  0  0  0  0  0
   -9.9230   27.9200    0.3140 O   0  0  0  0  0  0  0  0  0  0  0  0
   -7.6200   27.6800    0.4770 C   0  0  0  0  0  0  0  0  0  0  0  0
   -6.5150   27.9450    1.1810 C   0  0  0  0  0  0  0  0  0  0  0  0
   -5.1750   27.5670    0.6860 C   0  0  0  0  0  0  0  0  0  0  0  0
   -4.6150   26.3490    1.1140 C   0  0  0  0  0  0  0  0  0  0  0  0
   -3.3540   25.9400    0.6710 C   0  0  0  0  0  0  0  0  0  0  0  0
   -2.6320   26.7380   -0.2090 C   0  0  0  0  0  0  0  0  0  0  0  0
   -3.1710   27.9450   -0.6530 C   0  0  0  0  0  0  0  0  0  0  0  0
   -4.4350   28.3580   -0.2130 C   0  0  0  0  0  0  0  0  0  0  0  0
   -5.0180   29.8730   -0.8200 Cl  0  0  0  0  0  0  0  0  0  0  0  0
   -6.5090   28.5950    2.3970 O   0  0  0  0  0  0  0  0  0  0  0  0
   -7.7070   28.9360    2.9900 C   0  0  0  0  0  0  0  0  0  0  0  0
   -5.9440   28.8500    6.2390 C   0  0  2  0  0  0  0  0  0  0  0  0
   -6.5010   29.5190    7.3860 O   0  0  0  0  0  0  0  0  0  0  0  0
   -4.4280   28.8850    6.4790 C   0  0  0  0  0  0  0  0  0  0  0  0
   -2.7131   30.5161    8.3496 H   0  0  0  0  0  0  0  0  0  0  0  0
   -2.0447   29.6953    6.8983 H   0  0  0  0  0  0  0  0  0  0  0  0
   -2.2702   31.4774    6.8983 H   0  0  0  0  0  0  0  0  0  0  0  0
   -4.7350   30.6330    7.4520 H   0  0  0  0  0  0  0  0  0  0  0  0
   -4.1221   32.2565    5.7602 H   0  0  0  0  0  0  0  0  0  0  0  0
   -3.7183   30.8698    4.6763 H   0  0  0  0  0  0  0  0  0  0  0  0
   -6.4420   31.5664    5.8703 H   0  0  0  0  0  0  0  0  0  0  0  0
   -5.9425   31.6054    4.1309 H   0  0  0  0  0  0  0  0  0  0  0  0
   -5.6266   29.0980    4.1866 H   0  0  0  0  0  0  0  0  0  0  0  0
   -8.0500   30.1530    6.6270 H   0  0  0  0  0  0  0  0  0  0  0  0
  -10.9839   30.0483    4.7405 H   0  0  0  0  0  0  0  0  0  0  0  0
  -11.4280   28.0800    2.0150 H   0  0  0  0  0  0  0  0  0  0  0  0
   -7.5521   27.1479   -0.4833 H   0  0  0  0  0  0  0  0  0  0  0  0
   -5.1787   25.7085    1.8083 H   0  0  0  0  0  0  0  0  0  0  0  0
   -2.9324   24.9855    1.0191 H   0  0  0  0  0  0  0  0  0  0  0  0
   -1.6378   26.4181   -0.5543 H   0  0  0  0  0  0  0  0  0  0  0  0
   -2.6012   28.5753   -1.3516 H   0  0  0  0  0  0  0  0  0  0  0  0
   -6.3629   27.8390    6.1279 H   0  0  0  0  0  0  0  0  0  0  0  0
   -5.7280   29.7490    7.9490 H   0  0  0  0  0  0  0  0  0  0  0  0
   -4.1683   28.2825    7.3619 H   0  0  0  0  0  0  0  0  0  0  0  0
   -3.8782   28.4685    5.6221 H   0  0  0  0  0  0  0  0  0  0  0  0
  1  2  1  0
  2  3  1  0
  3  4  1  0
  4  5  1  0
  5  6  1  0
  6  7  2  0
  7  8  1  0
  7  9  1  0
  9 10  2  0
 10 11  1  0
 10 12  1  0
 12 13  1  0
 13 14  2  0
 13 15  1  0
 15 16  2  0
 16 17  1  0
 17 18  2  0
 18 19  1  0
 19 20  2  0
 20 21  1  0
 21 22  2  0
 22 23  1  0
 16 24  1  0
 24 25  1  0
  5 26  1  0
 26 27  1  0
 26 28  1  0
 28  2  1  0
 25  6  1  0
 25 12  2  0
 22 17  1  0
  1 29  1  0
  1 30  1  0
  1 31  1  0
  2 32  1  1
  3 33  1  0
  3 34  1  0
  4 35  1  0
  4 36  1  0
  5 37  1  6
  8 38  1  0
  9 39  1  0
 11 40  1  0
 15 41  1  0
 18 42  1  0
 19 43  1  0
 20 44  1  0
 21 45  1  0
 26 46  1  6
 27 47  1  0
 28 48  1  0
 28 49  1  0
M  CHG  1   2   1
M  END
>  <meeko>  (7) 
{"is_sidechain": [false], "free_energy": -7.178, "intermolecular_energy": -8.47, "internal_energy": -1.036}

$$$$
3ebp_ligand
     RDKit          3D

 49 52  0  0  0  0  0  0  0  0999 V2000
   -5.2880   32.7750    8.3280 C   0  0  0  0  0  0  0  0  0  0  0  0
   -5.9190   31.7760    7.4130 N   0  0  1  0  0  0  0  0  0  0  0  0
   -7.1050   32.3240    6.6650 C   0  0  0  0  0  0  0  0  0  0  0  0
   -7.7930   31.2210    5.8610 C   0  0  0  0  0  0  0  0  0  0  0  0
   -6.7850   30.4590    4.9780 C   0  0  2  0  0  0  0  0  0  0  0  0
   -7.4890   29.5200    3.9960 C   0  0  0  0  0  0  0  0  0  0  0  0
   -8.0890   28.3010    4.3350 C   0  0  0  0  0  0  0  0  0  0  0  0
   -8.1110   27.8820    5.6370 O   0  0  0  0  0  0  0  0  0  0  0  0
   -8.6860   27.4840    3.3690 C   0  0  0  0  0  0  0  0  0  0  0  0
   -8.6950   27.8740    2.0290 C   0  0  0  0  0  0  0  0  0  0  0  0
   -9.2730   27.0520    1.1070 O   0  0  0  0  0  0  0  0  0  0  0  0
   -8.1200   29.0870    1.6460 C   0  0  0  0  0  0  0  0  0  0  0  0
   -8.0880   29.5490    0.2370 C   0  0  0  0  0  0  0  0  0  0  0  0
   -8.5960   28.9530   -0.7020 O   0  0  0  0  0  0  0  0  0  0  0  0
   -7.3930   30.8190   -0.0260 C   0  0  0  0  0  0  0  0  0  0  0  0
   -6.8990   31.5210    0.9990 C   0  0  0  0  0  0  0  0  0  0  0  0
   -6.2210   32.8180    0.7920 C   0  0  0  0  0  0  0  0  0  0  0  0
   -6.6480   33.6420   -0.2650 C   0  0  0  0  0  0  0  0  0  0  0  0
   -6.0460   34.8810   -0.5010 C   0  0  0  0  0  0  0  0  0  0  0  0
   -5.0090   35.3200    0.3170 C   0  0  0  0  0  0  0  0  0  0  0  0
   -4.5760   34.5220    1.3750 C   0  0  0  0  0  0  0  0  0  0  0  0
   -5.1770   33.2800    1.6160 C   0  0  0  0  0  0  0  0  0  0  0  0
   -4.5690   32.3630    2.9540 Cl  0  0  0  0  0  0  0  0  0  0  0  0
   -6.9840   31.1280    2.3180 O   0  0  0  0  0  0  0  0  0  0  0  0
   -7.5370   29.9020    2.6270 C   0  0  0  0  0  0  0  0  0  0  0  0
   -5.6400   29.9050    5.8590 C   0  0  2  0  0  0  0  0  0  0  0  0
   -6.1500   29.1630    6.9810 O   0  0  0  0  0  0  0  0  0  0  0  0
   -4.9100   31.0990    6.4940 C   0  0  0  0  0  0  0  0  0  0  0  0
   -5.4723   32.4833    9.3725 H   0  0  0  0  0  0  0  0  0  0  0  0
   -4.2043   32.8089    8.1425 H   0  0  0  0  0  0  0  0  0  0  0  0
   -5.7230   33.7682    8.1425 H   0  0  0  0  0  0  0  0  0  0  0  0
   -6.2670   30.9880    7.9920 H   0  0  0  0  0  0  0  0  0  0  0  0
   -7.8216   32.7471    7.3843 H   0  0  0  0  0  0  0  0  0  0  0  0
   -6.7564   33.1028    5.9708 H   0  0  0  0  0  0  0  0  0  0  0  0
   -8.2667   30.5128    6.5568 H   0  0  0  0  0  0  0  0  0  0  0  0
   -8.5451   31.6862    5.2068 H   0  0  0  0  0  0  0  0  0  0  0  0
   -6.2618   31.1269    4.2778 H   0  0  0  0  0  0  0  0  0  0  0  0
   -8.9920   27.5050    5.8310 H   0  0  0  0  0  0  0  0  0  0  0  0
   -9.1495   26.5318    3.6663 H   0  0  0  0  0  0  0  0  0  0  0  0
  -10.1550   27.3610    0.8470 H   0  0  0  0  0  0  0  0  0  0  0  0
   -7.2809   31.1874   -1.0564 H   0  0  0  0  0  0  0  0  0  0  0  0
   -7.4685   33.3060   -0.9160 H   0  0  0  0  0  0  0  0  0  0  0  0
   -6.3922   35.5101   -1.3343 H   0  0  0  0  0  0  0  0  0  0  0  0
   -4.5326   36.2935    0.1293 H   0  0  0  0  0  0  0  0  0  0  0  0
   -3.7584   34.8695    2.0237 H   0  0  0  0  0  0  0  0  0  0  0  0
   -5.0063   29.2716    5.2209 H   0  0  0  0  0  0  0  0  0  0  0  0
   -7.1020   29.0170    6.7810 H   0  0  0  0  0  0  0  0  0  0  0  0
   -4.0414   30.7509    7.0723 H   0  0  0  0  0  0  0  0  0  0  0  0
   -4.5375   31.7942    5.7273 H   0  0  0  0  0  0  0  0  0  0  0  0
  1  2  1  0
  2  3  1  0
  3  4  1  0
  4  5  1  0
  5  6  1  0
  6  7  2  0
  7  8  1  0
  7  9  1  0
  9 10  2  0
 10 11  1  0
 10 12  1  0
 12 13  1  0
 13 14  2  0
 13 15  1  0
 15 16  2  0
 16 17  1  0
 17 18  2  0
 18 19  1  0
 19 20  2  0
 20 21  1  0
 21 22  2  0
 22 23  1  0
 16 24  1  0
 24 25  1  0
  5 26  1  0
 26 27  1  0
 26 28  1  0
 28  2  1  0
 25  6  1  0
 25 12  2  0
 22 17  1  0
  1 29  1  0
  1 30  1  0
  1 31  1  0
  2 32  1  1
  3 33  1  0
  3 34  1  0
  4 35  1  0
  4 36  1  0
  5 37  1  6
  8 38  1  0
  9 39  1  0
 11 40  1  0
 15 41  1  0
 18 42  1  0
 19 43  1  0
 20 44  1  0
 21 45  1  0
 26 46  1  6
 27 47  1  0
 28 48  1  0
 28 49  1  0
M  CHG  1   2   1
M  END
>  <meeko>  (8) 
{"is_sidechain": [false], "free_energy": -6.857, "intermolecular_energy": -8.401, "internal_energy": -0.718}

$$$$
3ebp_ligand
     RDKit          3D

 49 52  0  0  0  0  0  0  0  0999 V2000
   -6.7150   25.7210    3.0060 C   0  0  0  0  0  0  0  0  0  0  0  0
   -6.8320   26.7310    4.1010 N   0  0  1  0  0  0  0  0  0  0  0  0
   -5.5090   27.0760    4.7320 C   0  0  0  0  0  0  0  0  0  0  0  0
   -5.7080   27.9980    5.9350 C   0  0  0  0  0  0  0  0  0  0  0  0
   -6.5730   29.2200    5.5690 C   0  0  2  0  0  0  0  0  0  0  0  0
   -6.5820   30.2640    6.6870 C   0  0  0  0  0  0  0  0  0  0  0  0
   -6.8160   29.9930    8.0400 C   0  0  0  0  0  0  0  0  0  0  0  0
   -7.0240   28.7090    8.4610 O   0  0  0  0  0  0  0  0  0  0  0  0
   -6.8370   31.0130    8.9990 C   0  0  0  0  0  0  0  0  0  0  0  0
   -6.6230   32.3370    8.6180 C   0  0  0  0  0  0  0  0  0  0  0  0
   -6.6620   33.3120    9.5710 O   0  0  0  0  0  0  0  0  0  0  0  0
   -6.3730   32.6530    7.2810 C   0  0  0  0  0  0  0  0  0  0  0  0
   -6.1490   34.0440    6.8150 C   0  0  0  0  0  0  0  0  0  0  0  0
   -6.1110   35.0240    7.5440 O   0  0  0  0  0  0  0  0  0  0  0  0
   -5.9590   34.2320    5.3670 C   0  0  0  0  0  0  0  0  0  0  0  0
   -5.9220   33.1620    4.5660 C   0  0  0  0  0  0  0  0  0  0  0  0
   -5.7020   33.2940    3.1110 C   0  0  0  0  0  0  0  0  0  0  0  0
   -6.7570   33.7690    2.3090 C   0  0  0  0  0  0  0  0  0  0  0  0
   -6.6000   33.9200    0.9280 C   0  0  0  0  0  0  0  0  0  0  0  0
   -5.3870   33.6030    0.3250 C   0  0  0  0  0  0  0  0  0  0  0  0
   -4.3270   33.1390    1.1020 C   0  0  0  0  0  0  0  0  0  0  0  0
   -4.4780   32.9880    2.4870 C   0  0  0  0  0  0  0  0  0  0  0  0
   -3.1040   32.4040    3.3650 Cl  0  0  0  0  0  0  0  0  0  0  0  0
   -6.0630   31.8620    5.0040 O   0  0  0  0  0  0  0  0  0  0  0  0
   -6.3400   31.6200    6.3340 C   0  0  0  0  0  0  0  0  0  0  0  0
   -7.9200   28.7420    4.9750 C   0  0  2  0  0  0  0  0  0  0  0  0
   -8.5600   27.7770    5.8300 O   0  0  0  0  0  0  0  0  0  0  0  0
   -7.6210   27.9650    3.6840 C   0  0  0  0  0  0  0  0  0  0  0  0
   -6.5988   24.7182    3.4430 H   0  0  0  0  0  0  0  0  0  0  0  0
   -7.6222   25.7473    2.3845 H   0  0  0  0  0  0  0  0  0  0  0  0
   -5.8378   25.9540    2.3845 H   0  0  0  0  0  0  0  0  0  0  0  0
   -7.4230   26.3230    4.8510 H   0  0  0  0  0  0  0  0  0  0  0  0
   -5.0151   26.1509    5.0639 H   0  0  0  0  0  0  0  0  0  0  0  0
   -4.8870   27.5950    3.9879 H   0  0  0  0  0  0  0  0  0  0  0  0
   -6.2051   27.4354    6.7389 H   0  0  0  0  0  0  0  0  0  0  0  0
   -4.7215   28.3575    6.2630 H   0  0  0  0  0  0  0  0  0  0  0  0
   -6.1319   29.8072    4.7501 H   0  0  0  0  0  0  0  0  0  0  0  0
   -7.3400   28.7270    9.3860 H   0  0  0  0  0  0  0  0  0  0  0  0
   -7.0228   30.7692   10.0554 H   0  0  0  0  0  0  0  0  0  0  0  0
   -7.0100   34.1480    9.2230 H   0  0  0  0  0  0  0  0  0  0  0  0
   -5.8485   35.2431    4.9482 H   0  0  0  0  0  0  0  0  0  0  0  0
   -7.7194   34.0252    2.7760 H   0  0  0  0  0  0  0  0  0  0  0  0
   -7.4368   34.2900    0.3173 H   0  0  0  0  0  0  0  0  0  0  0  0
   -5.2648   33.7182   -0.7621 H   0  0  0  0  0  0  0  0  0  0  0  0
   -3.3672   32.8901    0.6257 H   0  0  0  0  0  0  0  0  0  0  0  0
   -8.5546   29.6294    4.8345 H   0  0  0  0  0  0  0  0  0  0  0  0
   -7.8480   27.4480    6.4240 H   0  0  0  0  0  0  0  0  0  0  0  0
   -8.5591   27.6689    3.1917 H   0  0  0  0  0  0  0  0  0  0  0  0
   -7.0538   28.5797    2.9696 H   0  0  0  0  0  0  0  0  0  0  0  0
  1  2  1  0
  2  3  1  0
  3  4  1  0
  4  5  1  0
  5  6  1  0
  6  7  2  0
  7  8  1  0
  7  9  1  0
  9 10  2  0
 10 11  1  0
 10 12  1  0
 12 13  1  0
 13 14  2  0
 13 15  1  0
 15 16  2  0
 16 17  1  0
 17 18  2  0
 18 19  1  0
 19 20  2  0
 20 21  1  0
 21 22  2  0
 22 23  1  0
 16 24  1  0
 24 25  1  0
  5 26  1  0
 26 27  1  0
 26 28  1  0
 28  2  1  0
 25  6  1  0
 25 12  2  0
 22 17  1  0
  1 29  1  0
  1 30  1  0
  1 31  1  0
  2 32  1  1
  3 33  1  0
  3 34  1  0
  4 35  1  0
  4 36  1  0
  5 37  1  6
  8 38  1  0
  9 39  1  0
 11 40  1  0
 15 41  1  0
 18 42  1  0
 19 43  1  0
 20 44  1  0
 21 45  1  0
 26 46  1  6
 27 47  1  0
 28 48  1  0
 28 49  1  0
M  CHG  1   2   1
M  END
>  <meeko>  (9) 
{"is_sidechain": [false], "free_energy": -6.694, "intermolecular_energy": -8.082, "internal_energy": -0.84}

$$$$
