
     RDKit          3D

 36 39  0  0  0  0  0  0  0  0999 V2000
   11.9480  -11.1030  -13.9180 C   0  0  0  0  0  0  0  0  0  0  0  0
   10.9650  -10.1670  -13.6350 O   0  0  0  0  0  0  0  0  0  0  0  0
   11.1800   -9.2510  -12.6460 C   0  0  0  0  0  0  0  0  0  0  0  0
   12.3650   -9.2280  -11.8960 C   0  0  0  0  0  0  0  0  0  0  0  0
   12.5100   -8.3170  -10.8740 C   0  0  0  0  0  0  0  0  0  0  0  0
   13.9970   -8.3280   -9.9330 Cl  0  0  0  0  0  0  0  0  0  0  0  0
   11.5040   -7.4170  -10.5500 C   0  0  0  0  0  0  0  0  0  0  0  0
   10.3230   -7.4060  -11.2780 C   0  0  0  0  0  0  0  0  0  0  0  0
    9.2110   -6.4780  -10.8960 C   0  0  0  0  0  0  0  0  0  0  0  0
    8.0460   -6.8040  -11.0660 O   0  0  0  0  0  0  0  0  0  0  0  0
    9.5790   -5.2730  -10.3190 N   0  0  0  0  0  0  0  0  0  0  0  0
    8.7160   -4.2860   -9.8350 C   0  0  0  0  0  0  0  0  0  0  0  0
    9.0600   -2.9180   -9.9730 C   0  0  0  0  0  0  0  0  0  0  0  0
    8.1490   -1.9470   -9.5390 C   0  0  0  0  0  0  0  0  0  0  0  0
    6.9700   -2.3660   -8.9430 C   0  0  0  0  0  0  0  0  0  0  0  0
    5.8140   -1.1810   -8.4000 Cl  0  0  0  0  0  0  0  0  0  0  0  0
    6.6810   -3.7330   -8.7910 C   0  0  0  0  0  0  0  0  0  0  0  0
    7.5600   -4.6630   -9.2350 N   0  0  0  0  0  0  0  0  0  0  0  0
   10.1490   -8.3130  -12.3580 C   0  0  0  0  0  0  0  0  0  0  0  0
    8.9890   -8.2920  -13.1450 N   0  0  0  0  0  0  0  0  0  0  0  0
    8.9760   -8.0370  -14.5250 C   0  0  0  0  0  0  0  0  0  0  0  0
   10.0260   -7.8130  -15.1640 O   0  0  0  0  0  0  0  0  0  0  0  0
    7.6550   -8.0180  -15.2140 C   0  0  0  0  0  0  0  0  0  0  0  0
    7.5410   -7.4060  -16.7990 S   0  0  0  0  0  0  0  0  0  0  0  0
    5.8680   -7.6990  -16.8790 C   0  0  0  0  0  0  0  0  0  0  0  0
    5.3800   -8.2720  -15.7270 C   0  0  0  0  0  0  0  0  0  0  0  0
    3.9570   -8.6640  -15.5210 C   0  0  0  0  0  0  0  0  0  0  0  0
    3.1310   -8.5720  -16.7210 N   0  0  0  0  0  0  0  0  0  0  0  0
    2.3020   -7.3760  -16.8830 C   0  0  0  0  0  0  0  0  0  0  0  0
    3.1380   -9.5480  -17.6820 C   0  0  0  0  0  0  0  0  0  0  0  0
    2.3460   -9.6110  -18.7630 N   0  0  0  0  0  0  0  0  0  0  0  0
    2.6570  -10.7210  -19.4430 C   0  0  0  0  0  0  0  0  0  0  0  0
    3.7160  -11.3680  -18.7660 C   0  0  0  0  0  0  0  0  0  0  0  0
    3.9880  -10.6210  -17.6600 O   0  0  0  0  0  0  0  0  0  0  0  0
    6.3980   -8.4570  -14.7690 C   0  0  0  0  0  0  0  0  0  0  0  0
    6.0560   -9.1790  -13.2370 Cl  0  0  0  0  0  0  0  0  0  0  0  0
  2  1  1  0
  3  2  1  0
  4  3  2  0
  5  4  1  0
  6  5  1  0
  7  5  2  0
  8  7  1  0
  9  8  1  0
 10  9  2  0
 11  9  1  0
 12 11  1  0
 13 12  2  0
 14 13  1  0
 15 14  2  0
 16 15  1  0
 17 15  1  0
 18 17  2  0
 18 12  1  0
 19  8  2  0
 19  3  1  0
 20 19  1  0
 21 20  1  0
 22 21  2  0
 23 21  1  0
 24 23  1  0
 25 24  1  0
 26 25  2  0
 27 26  1  0
 28 27  1  0
 29 28  1  0
 30 28  1  0
 31 30  2  0
 32 31  1  0
 33 32  2  0
 34 33  1  0
 34 30  1  0
 35 26  1  0
 35 23  2  0
 36 35  1  0
M  END
$$$$
