2p15_ligand
     RDKit          3D

 61 65  0  0  0  0  0  0  0  0999 V2000
  -11.4530   14.9270    5.0810 C   0  0  0  0  0  0  0  0  0  0  0  0
  -10.6790   13.9320    5.9960 C   0  0  2  0  0  0  0  0  0  0  0  0
  -10.6010   14.5420    7.4080 C   0  0  0  0  0  0  0  0  0  0  0  0
   -9.7000   15.7910    7.4560 C   0  0  0  0  0  0  0  0  0  0  0  0
   -8.2890   15.5570    6.8540 C   0  0  2  0  0  0  0  0  0  0  0  0
   -7.3770   16.7830    6.8480 C   0  0  0  0  0  0  0  0  0  0  0  0
   -7.4490   17.7470    7.8710 C   0  0  0  0  0  0  0  0  0  0  0  0
   -6.5900   18.8470    7.8910 C   0  0  0  0  0  0  0  0  0  0  0  0
   -5.6360   18.9920    6.8980 C   0  0  0  0  0  0  0  0  0  0  0  0
   -4.8200   20.0820    6.9510 O   0  0  0  0  0  0  0  0  0  0  0  0
   -5.5230   18.0470    5.8860 C   0  0  0  0  0  0  0  0  0  0  0  0
   -6.3780   16.9300    5.8600 C   0  0  0  0  0  0  0  0  0  0  0  0
   -6.2180   15.9470    4.7250 C   0  0  0  0  0  0  0  0  0  0  0  0
   -6.9660   14.6340    4.9280 C   0  0  0  0  0  0  0  0  0  0  0  0
   -8.3820   14.9160    5.4370 C   0  0  1  0  0  0  0  0  0  0  0  0
   -9.2360   13.6490    5.5200 C   0  0  2  0  0  0  0  0  0  0  0  0
   -9.4240   12.8060    4.2590 C   0  0  0  0  0  0  0  0  0  0  0  0
  -10.7460   12.0450    4.4800 C   0  0  0  0  0  0  0  0  0  0  0  0
  -11.2950   12.4960    5.8620 C   0  0  2  0  0  0  0  0  0  0  0  0
  -12.7170   12.5320    5.7860 O   0  0  0  0  0  0  0  0  0  0  0  0
  -10.9720   11.5710    7.0200 C   0  0  0  0  0  0  0  0  0  0  0  0
   -9.8910   11.5900    7.8170 C   0  0  0  0  0  0  0  0  0  0  0  0
   -9.7480   10.6460    8.9300 C   0  0  0  0  0  0  0  0  0  0  0  0
  -10.7760    9.7190    9.1560 C   0  0  0  0  0  0  0  0  0  0  0  0
  -10.6890    8.8050   10.2050 C   0  0  0  0  0  0  0  0  0  0  0  0
   -9.5760    8.8090   11.0400 C   0  0  0  0  0  0  0  0  0  0  0  0
   -8.5480    9.7290   10.8250 C   0  0  0  0  0  0  0  0  0  0  0  0
   -8.6170   10.6580    9.7680 C   0  0  0  0  0  0  0  0  0  0  0  0
   -7.4980   11.6520    9.5720 C   0  0  0  0  0  0  0  0  0  0  0  0
   -7.9400   12.9060    9.2590 F   0  0  0  0  0  0  0  0  0  0  0  0
   -6.6510   11.3060    8.5630 F   0  0  0  0  0  0  0  0  0  0  0  0
   -6.7210   11.8140   10.6800 F   0  0  0  0  0  0  0  0  0  0  0  0
  -12.0092   15.6421    5.7049 H   0  0  0  0  0  0  0  0  0  0  0  0
  -10.7393   15.4723    4.4460 H   0  0  0  0  0  0  0  0  0  0  0  0
  -12.1571   14.3693    4.4460 H   0  0  0  0  0  0  0  0  0  0  0  0
  -11.6148   14.8246    7.7278 H   0  0  0  0  0  0  0  0  0  0  0  0
  -10.1647   13.7862    8.0777 H   0  0  0  0  0  0  0  0  0  0  0  0
  -10.1909   16.5969    6.8907 H   0  0  0  0  0  0  0  0  0  0  0  0
   -9.5617   16.0509    8.5159 H   0  0  0  0  0  0  0  0  0  0  0  0
   -7.8026   14.8488    7.5409 H   0  0  0  0  0  0  0  0  0  0  0  0
   -8.1963   17.6313    8.6698 H   0  0  0  0  0  0  0  0  0  0  0  0
   -6.6706   19.5959    8.6927 H   0  0  0  0  0  0  0  0  0  0  0  0
   -4.8270   20.4270    7.8580 H   0  0  0  0  0  0  0  0  0  0  0  0
   -4.7619   18.1726    5.1018 H   0  0  0  0  0  0  0  0  0  0  0  0
   -6.5919   16.4187    3.8043 H   0  0  0  0  0  0  0  0  0  0  0  0
   -5.1481   15.6972    4.6704 H   0  0  0  0  0  0  0  0  0  0  0  0
   -7.0228   14.0946    3.9710 H   0  0  0  0  0  0  0  0  0  0  0  0
   -6.4298   14.0217    5.6679 H   0  0  0  0  0  0  0  0  0  0  0  0
   -8.8656   15.5971    4.7213 H   0  0  0  0  0  0  0  0  0  0  0  0
   -8.6175   13.0788    6.2288 H   0  0  0  0  0  0  0  0  0  0  0  0
   -9.4930   13.4503    3.3701 H   0  0  0  0  0  0  0  0  0  0  0  0
   -8.5783   12.1234    4.0889 H   0  0  0  0  0  0  0  0  0  0  0  0
  -11.4651   12.2957    3.6862 H   0  0  0  0  0  0  0  0  0  0  0  0
  -10.5855   10.9571    4.4538 H   0  0  0  0  0  0  0  0  0  0  0  0
  -13.0630   11.9620    6.4930 H   0  0  0  0  0  0  0  0  0  0  0  0
  -11.7147   10.7881    7.2334 H   0  0  0  0  0  0  0  0  0  0  0  0
   -9.0972   12.3284    7.6311 H   0  0  0  0  0  0  0  0  0  0  0  0
  -11.6587    9.7131    8.4997 H   0  0  0  0  0  0  0  0  0  0  0  0
  -11.4999    8.0809   10.3725 H   0  0  0  0  0  0  0  0  0  0  0  0
   -9.5061    8.0885   11.8682 H   0  0  0  0  0  0  0  0  0  0  0  0
   -7.6719    9.7285   11.4902 H   0  0  0  0  0  0  0  0  0  0  0  0
  2  1  1  6
  2  3  1  0
  3  4  1  0
  4  5  1  0
  5  6  1  0
  6  7  2  0
  7  8  1  0
  8  9  2  0
  9 10  1  0
  9 11  1  0
 11 12  2  0
 12 13  1  0
 13 14  1  0
 14 15  1  0
 15 16  1  0
 16 17  1  0
 17 18  1  0
 18 19  1  0
 19 20  1  6
 19 21  1  0
 21 22  2  0
 22 23  1  0
 23 24  2  0
 24 25  1  0
 25 26  2  0
 26 27  1  0
 27 28  2  0
 28 29  1  0
 29 30  1  0
 29 31  1  0
 29 32  1  0
 16  2  1  0
 28 23  1  0
 19  2  1  0
 15  5  1  0
 12  6  1  0
  1 33  1  0
  1 34  1  0
  1 35  1  0
  3 36  1  0
  3 37  1  0
  4 38  1  0
  4 39  1  0
  5 40  1  1
  7 41  1  0
  8 42  1  0
 10 43  1  0
 11 44  1  0
 13 45  1  0
 13 46  1  0
 14 47  1  0
 14 48  1  0
 15 49  1  6
 16 50  1  1
 17 51  1  0
 17 52  1  0
 18 53  1  0
 18 54  1  0
 20 55  1  0
 21 56  1  0
 22 57  1  0
 24 58  1  0
 25 59  1  0
 26 60  1  0
 27 61  1  0
M  END
>  <meeko>  (1) 
{"is_sidechain": [false], "free_energy": -3.843, "intermolecular_energy": -4.742, "internal_energy": -0.636}

$$$$
2p15_ligand
     RDKit          3D

 61 65  0  0  0  0  0  0  0  0999 V2000
  -10.5750   12.6710    3.9050 C   0  0  0  0  0  0  0  0  0  0  0  0
   -9.6850   13.5370    4.8450 C   0  0  2  0  0  0  0  0  0  0  0  0
   -8.4690   12.6910    5.2660 C   0  0  0  0  0  0  0  0  0  0  0  0
   -8.8620   11.5190    6.1860 C   0  0  0  0  0  0  0  0  0  0  0  0
   -9.7100   11.9540    7.4100 C   0  0  2  0  0  0  0  0  0  0  0  0
  -10.1530   10.8150    8.3270 C   0  0  0  0  0  0  0  0  0  0  0  0
   -9.3430    9.6820    8.5210 C   0  0  0  0  0  0  0  0  0  0  0  0
   -9.7250    8.6580    9.3900 C   0  0  0  0  0  0  0  0  0  0  0  0
  -10.9160    8.7590   10.0880 C   0  0  0  0  0  0  0  0  0  0  0  0
  -11.2560    7.7360   10.9230 O   0  0  0  0  0  0  0  0  0  0  0  0
  -11.7290    9.8750    9.9380 C   0  0  0  0  0  0  0  0  0  0  0  0
  -11.3500   10.9170    9.0720 C   0  0  0  0  0  0  0  0  0  0  0  0
  -12.2840   12.0960    8.9370 C   0  0  0  0  0  0  0  0  0  0  0  0
  -11.6720   13.2960    8.2230 C   0  0  0  0  0  0  0  0  0  0  0  0
  -10.9220   12.8300    6.9730 C   0  0  1  0  0  0  0  0  0  0  0  0
  -10.4100   14.0000    6.1290 C   0  0  2  0  0  0  0  0  0  0  0  0
  -11.4130   15.0400    5.6300 C   0  0  0  0  0  0  0  0  0  0  0  0
  -10.7600   15.6560    4.3770 C   0  0  0  0  0  0  0  0  0  0  0  0
   -9.4020   14.9280    4.1770 C   0  0  2  0  0  0  0  0  0  0  0  0
   -9.1630   14.8080    2.7780 O   0  0  0  0  0  0  0  0  0  0  0  0
   -8.1920   15.6510    4.7380 C   0  0  0  0  0  0  0  0  0  0  0  0
   -7.8590   15.8310    6.0270 C   0  0  0  0  0  0  0  0  0  0  0  0
   -6.6220   16.5200    6.4050 C   0  0  0  0  0  0  0  0  0  0  0  0
   -6.6500   17.9170    6.5390 C   0  0  0  0  0  0  0  0  0  0  0  0
   -5.4980   18.6190    6.8910 C   0  0  0  0  0  0  0  0  0  0  0  0
   -4.3070   17.9330    7.1120 C   0  0  0  0  0  0  0  0  0  0  0  0
   -4.2680   16.5440    6.9800 C   0  0  0  0  0  0  0  0  0  0  0  0
   -5.4230   15.8180    6.6280 C   0  0  0  0  0  0  0  0  0  0  0  0
   -5.3460   14.3180    6.4750 C   0  0  0  0  0  0  0  0  0  0  0  0
   -4.0930   13.8190    6.6870 F   0  0  0  0  0  0  0  0  0  0  0  0
   -5.6990   13.8920    5.2300 F   0  0  0  0  0  0  0  0  0  0  0  0
   -6.1510   13.6460    7.3470 F   0  0  0  0  0  0  0  0  0  0  0  0
  -11.2331   12.0306    4.5106 H   0  0  0  0  0  0  0  0  0  0  0  0
  -11.1866   13.3291    3.2702 H   0  0  0  0  0  0  0  0  0  0  0  0
   -9.9339   12.0417    3.2702 H   0  0  0  0  0  0  0  0  0  0  0  0
   -7.9899   12.2861    4.3624 H   0  0  0  0  0  0  0  0  0  0  0  0
   -7.7832   13.3433    5.8265 H   0  0  0  0  0  0  0  0  0  0  0  0
   -9.4445   10.7944    5.5981 H   0  0  0  0  0  0  0  0  0  0  0  0
   -7.9292   11.0848    6.5751 H   0  0  0  0  0  0  0  0  0  0  0  0
   -9.0281   12.5606    8.0240 H   0  0  0  0  0  0  0  0  0  0  0  0
   -8.3900    9.6008    7.9777 H   0  0  0  0  0  0  0  0  0  0  0  0
   -9.0822    7.7748    9.5193 H   0  0  0  0  0  0  0  0  0  0  0  0
  -11.4740    8.1090   11.7920 H   0  0  0  0  0  0  0  0  0  0  0  0
  -12.6729    9.9445   10.4985 H   0  0  0  0  0  0  0  0  0  0  0  0
  -13.1698   11.7720    8.3710 H   0  0  0  0  0  0  0  0  0  0  0  0
  -12.5292   12.4251    9.9576 H   0  0  0  0  0  0  0  0  0  0  0  0
  -12.4710   13.9931    7.9305 H   0  0  0  0  0  0  0  0  0  0  0  0
  -10.9683   13.8012    8.9009 H   0  0  0  0  0  0  0  0  0  0  0  0
  -11.6274   12.2559    6.3542 H   0  0  0  0  0  0  0  0  0  0  0  0
   -9.7630   14.4758    6.8807 H   0  0  0  0  0  0  0  0  0  0  0  0
  -12.3694   14.5618    5.3719 H   0  0  0  0  0  0  0  0  0  0  0  0
  -11.6360   15.7987    6.3947 H   0  0  0  0  0  0  0  0  0  0  0  0
  -11.4051   15.5028    3.4993 H   0  0  0  0  0  0  0  0  0  0  0  0
  -10.6137   16.7393    4.4993 H   0  0  0  0  0  0  0  0  0  0  0  0
   -8.9570   15.6950    2.4390 H   0  0  0  0  0  0  0  0  0  0  0  0
   -7.5017   16.0812    3.9975 H   0  0  0  0  0  0  0  0  0  0  0  0
   -8.5281   15.4537    6.8144 H   0  0  0  0  0  0  0  0  0  0  0  0
   -7.5891   18.4627    6.3648 H   0  0  0  0  0  0  0  0  0  0  0  0
   -5.5302   19.7137    6.9940 H   0  0  0  0  0  0  0  0  0  0  0  0
   -3.3973   18.4852    7.3905 H   0  0  0  0  0  0  0  0  0  0  0  0
   -3.3226   16.0089    7.1532 H   0  0  0  0  0  0  0  0  0  0  0  0
  2  1  1  6
  2  3  1  0
  3  4  1  0
  4  5  1  0
  5  6  1  0
  6  7  2  0
  7  8  1  0
  8  9  2  0
  9 10  1  0
  9 11  1  0
 11 12  2  0
 12 13  1  0
 13 14  1  0
 14 15  1  0
 15 16  1  0
 16 17  1  0
 17 18  1  0
 18 19  1  0
 19 20  1  6
 19 21  1  0
 21 22  2  0
 22 23  1  0
 23 24  2  0
 24 25  1  0
 25 26  2  0
 26 27  1  0
 27 28  2  0
 28 29  1  0
 29 30  1  0
 29 31  1  0
 29 32  1  0
 16  2  1  0
 28 23  1  0
 19  2  1  0
 15  5  1  0
 12  6  1  0
  1 33  1  0
  1 34  1  0
  1 35  1  0
  3 36  1  0
  3 37  1  0
  4 38  1  0
  4 39  1  0
  5 40  1  1
  7 41  1  0
  8 42  1  0
 10 43  1  0
 11 44  1  0
 13 45  1  0
 13 46  1  0
 14 47  1  0
 14 48  1  0
 15 49  1  6
 16 50  1  1
 17 51  1  0
 17 52  1  0
 18 53  1  0
 18 54  1  0
 20 55  1  0
 21 56  1  0
 22 57  1  0
 24 58  1  0
 25 59  1  0
 26 60  1  0
 27 61  1  0
M  END
>  <meeko>  (2) 
{"is_sidechain": [false], "free_energy": -1.449, "intermolecular_energy": -1.621, "internal_energy": -0.803}

$$$$
