
     RDKit          3D

 48 53  0  0  0  0  0  0  0  0999 V2000
   -4.7240    2.8280   -1.1660 O   0  0  0  0  0  0  0  0  0  0  0  0
   -3.6540    3.1550   -0.7200 C   0  0  0  0  0  0  0  0  0  0  0  0
   -3.3860    4.4230   -0.2690 N   0  0  0  0  0  0  0  0  0  0  0  0
   -4.3560    5.4950   -0.2860 C   0  0  1  0  0  0  0  0  0  0  0  0
   -5.0120    5.6660    1.0520 C   0  0  0  0  0  0  0  0  0  0  0  0
   -5.3560    4.6930    2.0150 C   0  0  0  0  0  0  0  0  0  0  0  0
   -5.9650    5.1390    3.1740 C   0  0  0  0  0  0  0  0  0  0  0  0
   -6.2510    6.4900    3.3680 C   0  0  0  0  0  0  0  0  0  0  0  0
   -5.9120    7.4330    2.3810 C   0  0  0  0  0  0  0  0  0  0  0  0
   -5.2850    7.0180    1.2440 C   0  0  0  0  0  0  0  0  0  0  0  0
   -4.7920    7.8100    0.0780 C   0  0  0  0  0  0  0  0  0  0  0  0
   -3.7730    6.8780   -0.5790 C   0  0  1  0  0  0  0  0  0  0  0  0
   -2.5250    7.0030    0.0750 O   0  0  0  0  0  0  0  0  0  0  0  0
   -2.5360    2.1500   -0.5490 C   0  0  2  0  0  0  0  0  0  0  0  0
   -2.1020    1.6580   -1.8080 O   0  0  0  0  0  0  0  0  0  0  0  0
   -1.1160    2.4530   -2.5150 C   0  0  0  0  0  0  0  0  0  0  0  0
   -1.7160    3.6290   -3.2200 C   0  0  0  0  0  0  0  0  0  0  0  0
   -2.7810    3.4290   -4.1430 C   0  0  0  0  0  0  0  0  0  0  0  0
   -3.3760    4.5670   -4.7520 C   0  0  0  0  0  0  0  0  0  0  0  0
   -2.8960    5.8550   -4.4470 C   0  0  0  0  0  0  0  0  0  0  0  0
   -1.8300    6.0390   -3.5650 C   0  0  0  0  0  0  0  0  0  0  0  0
   -1.2260    4.9270   -2.9480 C   0  0  0  0  0  0  0  0  0  0  0  0
   -3.0950    1.0240    0.2950 C   0  0  2  0  0  0  0  0  0  0  0  0
   -3.2710    1.5220    1.6400 O   0  0  0  0  0  0  0  0  0  0  0  0
   -2.2000   -0.1890    0.3150 C   0  0  1  0  0  0  0  0  0  0  0  0
   -1.0560    0.1130    1.0860 O   0  0  0  0  0  0  0  0  0  0  0  0
   -2.9300   -1.4370    0.8720 C   0  0  1  0  0  0  0  0  0  0  0  0
   -4.0540   -1.0670    1.6860 O   0  0  0  0  0  0  0  0  0  0  0  0
   -4.3540   -1.9570    2.7760 C   0  0  0  0  0  0  0  0  0  0  0  0
   -5.2600   -3.0520    2.3270 C   0  0  0  0  0  0  0  0  0  0  0  0
   -4.9190   -4.3920    2.6140 C   0  0  0  0  0  0  0  0  0  0  0  0
   -5.7520   -5.4100    2.1440 C   0  0  0  0  0  0  0  0  0  0  0  0
   -6.9170   -5.0930    1.4160 C   0  0  0  0  0  0  0  0  0  0  0  0
   -7.2630   -3.7780    1.1590 C   0  0  0  0  0  0  0  0  0  0  0  0
   -6.4360   -2.7370    1.6240 C   0  0  0  0  0  0  0  0  0  0  0  0
   -3.4110   -2.3090   -0.2990 C   0  0  0  0  0  0  0  0  0  0  0  0
   -4.1580   -1.8760   -1.1550 O   0  0  0  0  0  0  0  0  0  0  0  0
   -2.9300   -3.5870   -0.3020 N   0  0  0  0  0  0  0  0  0  0  0  0
   -3.2950   -4.5890   -1.2890 C   0  0  1  0  0  0  0  0  0  0  0  0
   -2.3290   -4.6890   -2.4370 C   0  0  0  0  0  0  0  0  0  0  0  0
   -1.6200   -3.6720   -3.0970 C   0  0  0  0  0  0  0  0  0  0  0  0
   -0.8040   -4.0530   -4.1790 C   0  0  0  0  0  0  0  0  0  0  0  0
   -0.7240   -5.3740   -4.5910 C   0  0  0  0  0  0  0  0  0  0  0  0
   -1.4620   -6.3840   -3.9300 C   0  0  0  0  0  0  0  0  0  0  0  0
   -2.2400   -6.0210   -2.8520 C   0  0  0  0  0  0  0  0  0  0  0  0
   -3.0840   -6.8820   -1.9840 C   0  0  0  0  0  0  0  0  0  0  0  0
   -3.3320   -6.0310   -0.7370 C   0  0  1  0  0  0  0  0  0  0  0  0
   -2.2430   -6.1990    0.1700 O   0  0  0  0  0  0  0  0  0  0  0  0
  2  1  2  0
  3  2  1  0
  4  3  1  1
  5  4  1  0
  6  5  2  0
  7  6  1  0
  8  7  2  0
  9  8  1  0
 10  9  2  0
 10  5  1  0
 11 10  1  0
 12 11  1  0
 12  4  1  0
 12 13  1  1
 14  2  1  0
 14 15  1  6
 16 15  1  0
 17 16  1  0
 18 17  2  0
 19 18  1  0
 20 19  2  0
 21 20  1  0
 22 17  1  0
 22 21  2  0
 23 14  1  0
 23 24  1  1
 25 23  1  0
 25 26  1  1
 27 25  1  0
 27 28  1  1
 29 28  1  0
 30 29  1  0
 31 30  2  0
 32 31  1  0
 33 32  2  0
 34 33  1  0
 35 34  2  0
 35 30  1  0
 36 27  1  0
 37 36  2  0
 38 36  1  0
 39 38  1  1
 40 39  1  0
 41 40  2  0
 42 41  1  0
 43 42  2  0
 44 43  1  0
 45 44  2  0
 45 40  1  0
 46 45  1  0
 47 46  1  0
 47 39  1  0
 47 48  1  1
M  END
$$$$
