4jfs_ligand
     RDKit          3D

 37 38  0  0  0  0  0  0  0  0999 V2000
   -3.4000    5.8110   17.2920 C   0  0  0  0  0  0  0  0  0  0  0  0
   -4.0250    5.2870   16.1240 O   0  0  0  0  0  0  0  0  0  0  0  0
   -3.2120    4.8670   15.1130 C   0  0  0  0  0  0  0  0  0  0  0  0
   -1.9010    5.3380   15.1860 C   0  0  0  0  0  0  0  0  0  0  0  0
   -0.9590    4.9890   14.2160 C   0  0  0  0  0  0  0  0  0  0  0  0
   -1.3120    4.1550   13.1440 C   0  0  0  0  0  0  0  0  0  0  0  0
   -0.2690    3.8120   12.1000 C   0  0  1  0  0  0  0  0  0  0  0  0
    0.4830    5.0620   11.5460 C   0  0  2  0  0  0  0  0  0  0  0  0
   -0.0120    5.4950   10.2790 O   0  0  0  0  0  0  0  0  0  0  0  0
    1.9160    4.5590   11.3660 C   0  0  2  0  0  0  0  0  0  0  0  0
    1.9760    3.7490   10.1810 O   0  0  0  0  0  0  0  0  0  0  0  0
    2.1130    3.6760   12.6010 C   0  0  2  0  0  0  0  0  0  0  0  0
    3.3410    2.7800   12.5320 C   0  0  0  0  0  0  0  0  0  0  0  0
    0.8390    2.8470   12.5610 N   0  0  1  0  0  0  0  0  0  0  0  0
    0.5580    1.9720   13.7320 C   0  0  0  0  0  0  0  0  0  0  0  0
   -2.6360    3.6900   13.0740 C   0  0  0  0  0  0  0  0  0  0  0  0
   -3.5760    4.0420   14.0510 C   0  0  0  0  0  0  0  0  0  0  0  0
   -3.8907    5.3996   18.1864 H   0  0  0  0  0  0  0  0  0  0  0  0
   -2.3363    5.5308   17.2958 H   0  0  0  0  0  0  0  0  0  0  0  0
   -3.4904    6.9073   17.2958 H   0  0  0  0  0  0  0  0  0  0  0  0
   -1.6053    5.9931   16.0187 H   0  0  0  0  0  0  0  0  0  0  0  0
    0.0695    5.3715   14.2929 H   0  0  0  0  0  0  0  0  0  0  0  0
   -0.8903    3.3266   11.3329 H   0  0  0  0  0  0  0  0  0  0  0  0
    0.3703    5.9220   12.2225 H   0  0  0  0  0  0  0  0  0  0  0  0
   -0.8290    4.9980   10.0760 H   0  0  0  0  0  0  0  0  0  0  0  0
    2.6683    5.3556   11.2683 H   0  0  0  0  0  0  0  0  0  0  0  0
    2.6960    3.0990   10.3420 H   0  0  0  0  0  0  0  0  0  0  0  0
    2.2798    4.2585   13.5191 H   0  0  0  0  0  0  0  0  0  0  0  0
    3.6749    2.5364   13.5514 H   0  0  0  0  0  0  0  0  0  0  0  0
    3.0885    1.8524   11.9974 H   0  0  0  0  0  0  0  0  0  0  0  0
    4.1473    3.3035   11.9974 H   0  0  0  0  0  0  0  0  0  0  0  0
    0.9740    2.2290   11.7430 H   0  0  0  0  0  0  0  0  0  0  0  0
    0.7382    2.5332   14.6607 H   0  0  0  0  0  0  0  0  0  0  0  0
   -0.4911    1.6427   13.7003 H   0  0  0  0  0  0  0  0  0  0  0  0
    1.2192    1.0935   13.7003 H   0  0  0  0  0  0  0  0  0  0  0  0
   -2.9388    3.0401   12.2398 H   0  0  0  0  0  0  0  0  0  0  0  0
   -4.6069    3.6651   13.9794 H   0  0  0  0  0  0  0  0  0  0  0  0
  1  2  1  0
  2  3  1  0
  3  4  2  0
  4  5  1  0
  5  6  2  0
  6  7  1  0
  7  8  1  0
  8  9  1  0
  8 10  1  0
 10 11  1  0
 10 12  1  0
 12 13  1  0
 12 14  1  0
 14 15  1  0
  6 16  1  0
 16 17  2  0
 17  3  1  0
 14  7  1  0
  1 18  1  0
  1 19  1  0
  1 20  1  0
  4 21  1  0
  5 22  1  0
  7 23  1  6
  8 24  1  1
  9 25  1  0
 10 26  1  6
 11 27  1  0
 12 28  1  1
 13 29  1  0
 13 30  1  0
 13 31  1  0
 14 32  1  6
 15 33  1  0
 15 34  1  0
 15 35  1  0
 16 36  1  0
 17 37  1  0
M  CHG  1  14   1
M  END
>  <meeko>  (1) 
{"is_sidechain": [false], "free_energy": -5.997, "intermolecular_energy": -7.048, "internal_energy": -0.218}

$$$$
4jfs_ligand
     RDKit          3D

 37 38  0  0  0  0  0  0  0  0999 V2000
   -6.9950    2.4810   14.4210 C   0  0  0  0  0  0  0  0  0  0  0  0
   -6.4120    3.6690   13.8970 O   0  0  0  0  0  0  0  0  0  0  0  0
   -5.2000    3.5540   13.2820 C   0  0  0  0  0  0  0  0  0  0  0  0
   -4.1250    4.0580   14.0140 C   0  0  0  0  0  0  0  0  0  0  0  0
   -2.8250    4.0090   13.5060 C   0  0  0  0  0  0  0  0  0  0  0  0
   -2.5710    3.4490   12.2440 C   0  0  0  0  0  0  0  0  0  0  0  0
   -1.1510    3.4280   11.7170 C   0  0  1  0  0  0  0  0  0  0  0  0
   -0.4790    4.8370   11.7010 C   0  0  2  0  0  0  0  0  0  0  0  0
   -0.4870    5.4450   10.4090 O   0  0  0  0  0  0  0  0  0  0  0  0
    0.9680    4.5400   12.0940 C   0  0  2  0  0  0  0  0  0  0  0  0
    1.6500    3.9810   10.9590 O   0  0  0  0  0  0  0  0  0  0  0  0
    0.8040    3.4660   13.1720 C   0  0  2  0  0  0  0  0  0  0  0  0
    2.0930    2.7420   13.5280 C   0  0  0  0  0  0  0  0  0  0  0  0
   -0.1720    2.5240   12.4860 N   0  0  1  0  0  0  0  0  0  0  0  0
   -0.7390    1.4160   13.3030 C   0  0  0  0  0  0  0  0  0  0  0  0
   -3.6600    2.9490   11.5110 C   0  0  0  0  0  0  0  0  0  0  0  0
   -4.9620    3.0000   12.0260 C   0  0  0  0  0  0  0  0  0  0  0  0
   -6.9770    2.5177   15.5202 H   0  0  0  0  0  0  0  0  0  0  0  0
   -8.0356    2.3992   14.0739 H   0  0  0  0  0  0  0  0  0  0  0  0
   -6.4230    1.6079   14.0739 H   0  0  0  0  0  0  0  0  0  0  0  0
   -4.3036    4.5002   15.0052 H   0  0  0  0  0  0  0  0  0  0  0  0
   -1.9922    4.4130   14.1004 H   0  0  0  0  0  0  0  0  0  0  0  0
   -1.3075    3.0301   10.7035 H   0  0  0  0  0  0  0  0  0  0  0  0
   -1.0103    5.5353   12.3643 H   0  0  0  0  0  0  0  0  0  0  0  0
   -0.6350    6.4050   10.5170 H   0  0  0  0  0  0  0  0  0  0  0  0
    1.5365    5.4197   12.4301 H   0  0  0  0  0  0  0  0  0  0  0  0
    2.5330    3.7060   11.2910 H   0  0  0  0  0  0  0  0  0  0  0  0
    0.4764    3.8789   14.1375 H   0  0  0  0  0  0  0  0  0  0  0  0
    2.1921    2.6863   14.6221 H   0  0  0  0  0  0  0  0  0  0  0  0
    2.0698    1.7249   13.1097 H   0  0  0  0  0  0  0  0  0  0  0  0
    2.9495    3.2911   13.1097 H   0  0  0  0  0  0  0  0  0  0  0  0
    0.3930    2.0900   11.7350 H   0  0  0  0  0  0  0  0  0  0  0  0
   -0.6194    1.6498   14.3712 H   0  0  0  0  0  0  0  0  0  0  0  0
   -1.8078    1.2990   13.0707 H   0  0  0  0  0  0  0  0  0  0  0  0
   -0.2087    0.4807   13.0707 H   0  0  0  0  0  0  0  0  0  0  0  0
   -3.4878    2.5105   10.5170 H   0  0  0  0  0  0  0  0  0  0  0  0
   -5.8002    2.6008   11.4360 H   0  0  0  0  0  0  0  0  0  0  0  0
  1  2  1  0
  2  3  1  0
  3  4  2  0
  4  5  1  0
  5  6  2  0
  6  7  1  0
  7  8  1  0
  8  9  1  0
  8 10  1  0
 10 11  1  0
 10 12  1  0
 12 13  1  0
 12 14  1  0
 14 15  1  0
  6 16  1  0
 16 17  2  0
 17  3  1  0
 14  7  1  0
  1 18  1  0
  1 19  1  0
  1 20  1  0
  4 21  1  0
  5 22  1  0
  7 23  1  6
  8 24  1  1
  9 25  1  0
 10 26  1  1
 11 27  1  0
 12 28  1  1
 13 29  1  0
 13 30  1  0
 13 31  1  0
 14 32  1  6
 15 33  1  0
 15 34  1  0
 15 35  1  0
 16 36  1  0
 17 37  1  0
M  CHG  1  14   1
M  END
>  <meeko>  (2) 
{"is_sidechain": [false], "free_energy": -5.326, "intermolecular_energy": -6.339, "internal_energy": -0.139}

$$$$
4jfs_ligand
     RDKit          3D

 37 38  0  0  0  0  0  0  0  0999 V2000
   -1.9130    6.4770   16.9700 C   0  0  0  0  0  0  0  0  0  0  0  0
   -1.3260    6.0280   15.7540 O   0  0  0  0  0  0  0  0  0  0  0  0
   -2.0840    5.2280   14.9500 C   0  0  0  0  0  0  0  0  0  0  0  0
   -3.3350    4.8980   15.4700 C   0  0  0  0  0  0  0  0  0  0  0  0
   -4.2160    4.0830   14.7550 C   0  0  0  0  0  0  0  0  0  0  0  0
   -3.8600    3.5760   13.4970 C   0  0  0  0  0  0  0  0  0  0  0  0
   -4.8330    2.6810   12.7580 C   0  0  1  0  0  0  0  0  0  0  0  0
   -5.2240    3.2250   11.3480 C   0  0  2  0  0  0  0  0  0  0  0  0
   -6.4910    3.8810   11.3340 O   0  0  0  0  0  0  0  0  0  0  0  0
   -5.3180    1.9580   10.4960 C   0  0  2  0  0  0  0  0  0  0  0  0
   -6.5520    1.2880   10.8000 O   0  0  0  0  0  0  0  0  0  0  0  0
   -4.1420    1.1240   11.0140 C   0  0  2  0  0  0  0  0  0  0  0  0
   -4.1740   -0.3310   10.5740 C   0  0  0  0  0  0  0  0  0  0  0  0
   -4.3550    1.2380   12.5150 N   0  0  1  0  0  0  0  0  0  0  0  0
   -3.2830    0.7010   13.3980 C   0  0  0  0  0  0  0  0  0  0  0  0
   -2.5950    3.9070   12.9840 C   0  0  0  0  0  0  0  0  0  0  0  0
   -1.7160    4.7260   13.7040 C   0  0  0  0  0  0  0  0  0  0  0  0
   -1.3603    6.0543   17.8220 H   0  0  0  0  0  0  0  0  0  0  0  0
   -1.8706    7.5753   17.0140 H   0  0  0  0  0  0  0  0  0  0  0  0
   -2.9619    6.1485   17.0140 H   0  0  0  0  0  0  0  0  0  0  0  0
   -3.6321    5.2845   16.4561 H   0  0  0  0  0  0  0  0  0  0  0  0
   -5.1988    3.8365   15.1831 H   0  0  0  0  0  0  0  0  0  0  0  0
   -5.6853    2.6785   13.4534 H   0  0  0  0  0  0  0  0  0  0  0  0
   -4.4961    3.9716   10.9976 H   0  0  0  0  0  0  0  0  0  0  0  0
   -7.0430    3.5110   12.0510 H   0  0  0  0  0  0  0  0  0  0  0  0
   -5.2888    2.1369    9.4110 H   0  0  0  0  0  0  0  0  0  0  0  0
   -7.2510    1.8000   10.3350 H   0  0  0  0  0  0  0  0  0  0  0  0
   -3.1705    1.4771   10.6377 H   0  0  0  0  0  0  0  0  0  0  0  0
   -4.1883   -0.9819   11.4606 H   0  0  0  0  0  0  0  0  0  0  0  0
   -5.0763   -0.5121    9.9715 H   0  0  0  0  0  0  0  0  0  0  0  0
   -3.2805   -0.5516    9.9715 H   0  0  0  0  0  0  0  0  0  0  0  0
   -5.2030    0.6720   12.6860 H   0  0  0  0  0  0  0  0  0  0  0  0
   -3.5689    0.8442   14.4505 H   0  0  0  0  0  0  0  0  0  0  0  0
   -3.1464   -0.3720   13.1979 H   0  0  0  0  0  0  0  0  0  0  0  0
   -2.3418    1.2341   13.1979 H   0  0  0  0  0  0  0  0  0  0  0  0
   -2.2900    3.5170   12.0017 H   0  0  0  0  0  0  0  0  0  0  0  0
   -0.7303    4.9739   13.2834 H   0  0  0  0  0  0  0  0  0  0  0  0
  1  2  1  0
  2  3  1  0
  3  4  2  0
  4  5  1  0
  5  6  2  0
  6  7  1  0
  7  8  1  0
  8  9  1  0
  8 10  1  0
 10 11  1  0
 10 12  1  0
 12 13  1  0
 12 14  1  0
 14 15  1  0
  6 16  1  0
 16 17  2  0
 17  3  1  0
 14  7  1  0
  1 18  1  0
  1 19  1  0
  1 20  1  0
  4 21  1  0
  5 22  1  0
  7 23  1  1
  8 24  1  6
  9 25  1  0
 10 26  1  6
 11 27  1  0
 12 28  1  1
 13 29  1  0
 13 30  1  0
 13 31  1  0
 14 32  1  1
 15 33  1  0
 15 34  1  0
 15 35  1  0
 16 36  1  0
 17 37  1  0
M  CHG  1  14   1
M  END
>  <meeko>  (3) 
{"is_sidechain": [false], "free_energy": -5.299, "intermolecular_energy": -6.31, "internal_energy": -0.136}

$$$$
4jfs_ligand
     RDKit          3D

 37 38  0  0  0  0  0  0  0  0999 V2000
   -1.7950    6.8360   16.9000 C   0  0  0  0  0  0  0  0  0  0  0  0
   -1.3690    6.0460   15.7950 O   0  0  0  0  0  0  0  0  0  0  0  0
   -2.3030    5.2570   15.1910 C   0  0  0  0  0  0  0  0  0  0  0  0
   -1.9350    4.7750   13.9350 C   0  0  0  0  0  0  0  0  0  0  0  0
   -2.7950    3.9560   13.2010 C   0  0  0  0  0  0  0  0  0  0  0  0
   -4.0520    3.5990   13.7120 C   0  0  0  0  0  0  0  0  0  0  0  0
   -4.9660    2.7240   12.8800 C   0  0  1  0  0  0  0  0  0  0  0  0
   -5.2640    3.3120   11.4650 C   0  0  2  0  0  0  0  0  0  0  0  0
   -6.5320    3.9620   11.3850 O   0  0  0  0  0  0  0  0  0  0  0  0
   -5.2900    2.0730   10.5680 C   0  0  2  0  0  0  0  0  0  0  0  0
   -6.5370    1.3880   10.7650 O   0  0  0  0  0  0  0  0  0  0  0  0
   -4.1470    1.2290   11.1370 C   0  0  2  0  0  0  0  0  0  0  0  0
   -4.1380   -0.2110   10.6490 C   0  0  0  0  0  0  0  0  0  0  0  0
   -4.4620    1.2930   12.6230 N   0  0  1  0  0  0  0  0  0  0  0  0
   -3.4490    0.7320   13.5590 C   0  0  0  0  0  0  0  0  0  0  0  0
   -4.4180    4.0940   14.9750 C   0  0  0  0  0  0  0  0  0  0  0  0
   -3.5500    4.9140   15.7070 C   0  0  0  0  0  0  0  0  0  0  0  0
   -1.5226    6.3309   17.8385 H   0  0  0  0  0  0  0  0  0  0  0  0
   -1.3052    7.8200   16.8577 H   0  0  0  0  0  0  0  0  0  0  0  0
   -2.8863    6.9675   16.8577 H   0  0  0  0  0  0  0  0  0  0  0  0
   -0.9537    5.0438   13.5170 H   0  0  0  0  0  0  0  0  0  0  0  0
   -2.4841    3.5870   12.2125 H   0  0  0  0  0  0  0  0  0  0  0  0
   -5.8634    2.6943   13.5154 H   0  0  0  0  0  0  0  0  0  0  0  0
   -4.5196    4.0737   11.1899 H   0  0  0  0  0  0  0  0  0  0  0  0
   -7.1460    3.3880   10.8850 H   0  0  0  0  0  0  0  0  0  0  0  0
   -5.1876    2.2872    9.4939 H   0  0  0  0  0  0  0  0  0  0  0  0
   -6.3060    0.4350   10.8390 H   0  0  0  0  0  0  0  0  0  0  0  0
   -3.1549    1.5990   10.8391 H   0  0  0  0  0  0  0  0  0  0  0  0
   -4.1337   -0.8911   11.5135 H   0  0  0  0  0  0  0  0  0  0  0  0
   -5.0350   -0.3975   10.0402 H   0  0  0  0  0  0  0  0  0  0  0  0
   -3.2387   -0.3862   10.0402 H   0  0  0  0  0  0  0  0  0  0  0  0
   -5.3160    0.7170   12.7180 H   0  0  0  0  0  0  0  0  0  0  0  0
   -3.7699    0.9097   14.5960 H   0  0  0  0  0  0  0  0  0  0  0  0
   -3.3495   -0.3498   13.3862 H   0  0  0  0  0  0  0  0  0  0  0  0
   -2.4793    1.2216   13.3862 H   0  0  0  0  0  0  0  0  0  0  0  0
   -5.4007    3.8337   15.3951 H   0  0  0  0  0  0  0  0  0  0  0  0
   -3.8551    5.2891   16.6950 H   0  0  0  0  0  0  0  0  0  0  0  0
  1  2  1  0
  2  3  1  0
  3  4  2  0
  4  5  1  0
  5  6  2  0
  6  7  1  0
  7  8  1  0
  8  9  1  0
  8 10  1  0
 10 11  1  0
 10 12  1  0
 12 13  1  0
 12 14  1  0
 14 15  1  0
  6 16  1  0
 16 17  2  0
 17  3  1  0
 14  7  1  0
  1 18  1  0
  1 19  1  0
  1 20  1  0
  4 21  1  0
  5 22  1  0
  7 23  1  1
  8 24  1  6
  9 25  1  0
 10 26  1  6
 11 27  1  0
 12 28  1  1
 13 29  1  0
 13 30  1  0
 13 31  1  0
 14 32  1  6
 15 33  1  0
 15 34  1  0
 15 35  1  0
 16 36  1  0
 17 37  1  0
M  CHG  1  14   1
M  END
>  <meeko>  (4) 
{"is_sidechain": [false], "free_energy": -5.241, "intermolecular_energy": -6.254, "internal_energy": -0.124}

$$$$
4jfs_ligand
     RDKit          3D

 37 38  0  0  0  0  0  0  0  0999 V2000
   -9.4660    3.7840   13.8860 C   0  0  0  0  0  0  0  0  0  0  0  0
   -8.8300    3.6620   12.6180 O   0  0  0  0  0  0  0  0  0  0  0  0
   -7.4830    3.4460   12.6110 C   0  0  0  0  0  0  0  0  0  0  0  0
   -6.8750    3.6030   11.3660 C   0  0  0  0  0  0  0  0  0  0  0  0
   -5.5000    3.4110   11.2100 C   0  0  0  0  0  0  0  0  0  0  0  0
   -4.6990    3.0550   12.3050 C   0  0  0  0  0  0  0  0  0  0  0  0
   -3.2150    2.8370   12.0960 C   0  0  1  0  0  0  0  0  0  0  0  0
   -2.3450    3.3230   13.2970 C   0  0  2  0  0  0  0  0  0  0  0  0
   -1.7470    4.6000   13.0750 O   0  0  0  0  0  0  0  0  0  0  0  0
   -1.2380    2.2700   13.3780 C   0  0  2  0  0  0  0  0  0  0  0  0
   -0.2870    2.5200   12.3300 O   0  0  0  0  0  0  0  0  0  0  0  0
   -1.9950    0.9720   13.0840 C   0  0  2  0  0  0  0  0  0  0  0  0
   -1.0940   -0.2140   12.7790 C   0  0  0  0  0  0  0  0  0  0  0  0
   -2.7850    1.3800   11.8510 N   0  0  1  0  0  0  0  0  0  0  0  0
   -3.8130    0.4240   11.3530 C   0  0  0  0  0  0  0  0  0  0  0  0
   -5.3210    2.8920   13.5550 C   0  0  0  0  0  0  0  0  0  0  0  0
   -6.6990    3.0870   13.7050 C   0  0  0  0  0  0  0  0  0  0  0  0
   -8.7227    3.6414   14.6842 H   0  0  0  0  0  0  0  0  0  0  0  0
   -9.9141    4.7845   13.9767 H   0  0  0  0  0  0  0  0  0  0  0  0
  -10.2525    3.0204   13.9767 H   0  0  0  0  0  0  0  0  0  0  0  0
   -7.4862    3.8818   10.4950 H   0  0  0  0  0  0  0  0  0  0  0  0
   -5.0411    3.5403   10.2187 H   0  0  0  0  0  0  0  0  0  0  0  0
   -3.0415    3.4333   11.1881 H   0  0  0  0  0  0  0  0  0  0  0  0
   -2.9547    3.4325   14.2060 H   0  0  0  0  0  0  0  0  0  0  0  0
   -0.8940    4.6330   13.5520 H   0  0  0  0  0  0  0  0  0  0  0  0
   -0.6927    2.2558   14.3332 H   0  0  0  0  0  0  0  0  0  0  0  0
    0.5790    2.2180   12.6830 H   0  0  0  0  0  0  0  0  0  0  0  0
   -2.5882    0.6206   13.9411 H   0  0  0  0  0  0  0  0  0  0  0  0
   -0.7508   -0.6657   13.7215 H   0  0  0  0  0  0  0  0  0  0  0  0
   -1.6548   -0.9605   12.1974 H   0  0  0  0  0  0  0  0  0  0  0  0
   -0.2245    0.1261   12.1974 H   0  0  0  0  0  0  0  0  0  0  0  0
   -2.0640    1.4630   11.1140 H   0  0  0  0  0  0  0  0  0  0  0  0
   -4.3200   -0.0475   12.2078 H   0  0  0  0  0  0  0  0  0  0  0  0
   -4.5507    0.9644   10.7417 H   0  0  0  0  0  0  0  0  0  0  0  0
   -3.3275   -0.3510   10.7417 H   0  0  0  0  0  0  0  0  0  0  0  0
   -4.7159    2.6070   14.4283 H   0  0  0  0  0  0  0  0  0  0  0  0
   -7.1655    2.9560   14.6925 H   0  0  0  0  0  0  0  0  0  0  0  0
  1  2  1  0
  2  3  1  0
  3  4  2  0
  4  5  1  0
  5  6  2  0
  6  7  1  0
  7  8  1  0
  8  9  1  0
  8 10  1  0
 10 11  1  0
 10 12  1  0
 12 13  1  0
 12 14  1  0
 14 15  1  0
  6 16  1  0
 16 17  2  0
 17  3  1  0
 14  7  1  0
  1 18  1  0
  1 19  1  0
  1 20  1  0
  4 21  1  0
  5 22  1  0
  7 23  1  6
  8 24  1  1
  9 25  1  0
 10 26  1  1
 11 27  1  0
 12 28  1  1
 13 29  1  0
 13 30  1  0
 13 31  1  0
 14 32  1  6
 15 33  1  0
 15 34  1  0
 15 35  1  0
 16 36  1  0
 17 37  1  0
M  CHG  1  14   1
M  END
>  <meeko>  (5) 
{"is_sidechain": [false], "free_energy": -5.075, "intermolecular_energy": -5.982, "internal_energy": -0.201}

$$$$
4jfs_ligand
     RDKit          3D

 37 38  0  0  0  0  0  0  0  0999 V2000
   -0.8740    7.5840   18.1140 C   0  0  0  0  0  0  0  0  0  0  0  0
    0.3790    6.9180   18.2250 O   0  0  0  0  0  0  0  0  0  0  0  0
    0.7020    6.0230   17.2480 C   0  0  0  0  0  0  0  0  0  0  0  0
    2.0480    6.0210   16.8820 C   0  0  0  0  0  0  0  0  0  0  0  0
    2.5210    5.1570   15.8920 C   0  0  0  0  0  0  0  0  0  0  0  0
    1.6490    4.2700   15.2410 C   0  0  0  0  0  0  0  0  0  0  0  0
    2.1930    3.3600   14.1600 C   0  0  1  0  0  0  0  0  0  0  0  0
    2.5890    4.1200   12.8550 C   0  0  2  0  0  0  0  0  0  0  0  0
    1.6000    4.0240   11.8310 O   0  0  0  0  0  0  0  0  0  0  0  0
    3.8490    3.3880   12.3900 C   0  0  2  0  0  0  0  0  0  0  0  0
    3.4630    2.1430   11.7860 O   0  0  0  0  0  0  0  0  0  0  0  0
    4.5770    3.1130   13.7090 C   0  0  2  0  0  0  0  0  0  0  0  0
    5.7140    2.1100   13.5910 C   0  0  0  0  0  0  0  0  0  0  0  0
    3.4410    2.5440   14.5440 N   0  0  1  0  0  0  0  0  0  0  0  0
    3.7070    2.3170   15.9920 C   0  0  0  0  0  0  0  0  0  0  0  0
    0.2940    4.2830   15.6110 C   0  0  0  0  0  0  0  0  0  0  0  0
   -0.1740    5.1510   16.6060 C   0  0  0  0  0  0  0  0  0  0  0  0
   -1.2682    7.7935   19.1193 H   0  0  0  0  0  0  0  0  0  0  0  0
   -0.7395    8.5297   17.5684 H   0  0  0  0  0  0  0  0  0  0  0  0
   -1.5826    6.9435   17.5684 H   0  0  0  0  0  0  0  0  0  0  0  0
    2.7465    6.7095   17.3800 H   0  0  0  0  0  0  0  0  0  0  0  0
    3.5867    5.1716   15.6198 H   0  0  0  0  0  0  0  0  0  0  0  0
    1.3390    2.6841   14.0056 H   0  0  0  0  0  0  0  0  0  0  0  0
    2.7171    5.1953   13.0485 H   0  0  0  0  0  0  0  0  0  0  0  0
    0.7280    4.2390   12.2180 H   0  0  0  0  0  0  0  0  0  0  0  0
    4.4542    3.9448   11.6594 H   0  0  0  0  0  0  0  0  0  0  0  0
    4.2750    1.5900   11.7800 H   0  0  0  0  0  0  0  0  0  0  0  0
    5.0735    4.0061   14.1164 H   0  0  0  0  0  0  0  0  0  0  0  0
    6.0485    1.8149   14.5965 H   0  0  0  0  0  0  0  0  0  0  0  0
    5.3638    1.2213   13.0456 H   0  0  0  0  0  0  0  0  0  0  0  0
    6.5521    2.5683   13.0456 H   0  0  0  0  0  0  0  0  0  0  0  0
    3.2620    1.6190   14.1180 H   0  0  0  0  0  0  0  0  0  0  0  0
    3.0056    2.9155   16.5919 H   0  0  0  0  0  0  0  0  0  0  0  0
    3.5729    1.2507   16.2267 H   0  0  0  0  0  0  0  0  0  0  0  0
    4.7389    2.6171   16.2267 H   0  0  0  0  0  0  0  0  0  0  0  0
   -0.4103    3.6012   15.1119 H   0  0  0  0  0  0  0  0  0  0  0  0
   -1.2389    5.1439   16.8817 H   0  0  0  0  0  0  0  0  0  0  0  0
  1  2  1  0
  2  3  1  0
  3  4  2  0
  4  5  1  0
  5  6  2  0
  6  7  1  0
  7  8  1  0
  8  9  1  0
  8 10  1  0
 10 11  1  0
 10 12  1  0
 12 13  1  0
 12 14  1  0
 14 15  1  0
  6 16  1  0
 16 17  2  0
 17  3  1  0
 14  7  1  0
  1 18  1  0
  1 19  1  0
  1 20  1  0
  4 21  1  0
  5 22  1  0
  7 23  1  6
  8 24  1  1
  9 25  1  0
 10 26  1  6
 11 27  1  0
 12 28  1  1
 13 29  1  0
 13 30  1  0
 13 31  1  0
 14 32  1  6
 15 33  1  0
 15 34  1  0
 15 35  1  0
 16 36  1  0
 17 37  1  0
M  CHG  1  14   1
M  END
>  <meeko>  (6) 
{"is_sidechain": [false], "free_energy": -4.95, "intermolecular_energy": -6.162, "internal_energy": 0.126}

$$$$
4jfs_ligand
     RDKit          3D

 37 38  0  0  0  0  0  0  0  0999 V2000
   -4.8250    3.2930   11.1360 C   0  0  0  0  0  0  0  0  0  0  0  0
   -4.1480    2.2110   11.7650 O   0  0  0  0  0  0  0  0  0  0  0  0
   -2.8660    2.4280   12.1780 C   0  0  0  0  0  0  0  0  0  0  0  0
   -2.2560    1.3300   12.7820 C   0  0  0  0  0  0  0  0  0  0  0  0
   -0.9430    1.4090   13.2550 C   0  0  0  0  0  0  0  0  0  0  0  0
   -0.2100    2.5990   13.1320 C   0  0  0  0  0  0  0  0  0  0  0  0
    1.2040    2.6540   13.6730 C   0  0  1  0  0  0  0  0  0  0  0  0
    2.1870    3.4360   12.7460 C   0  0  2  0  0  0  0  0  0  0  0  0
    2.9940    2.5800   11.9380 O   0  0  0  0  0  0  0  0  0  0  0  0
    3.0920    4.1720   13.7360 C   0  0  2  0  0  0  0  0  0  0  0  0
    4.0350    3.2360   14.2830 O   0  0  0  0  0  0  0  0  0  0  0  0
    2.1080    4.6030   14.8260 C   0  0  2  0  0  0  0  0  0  0  0  0
    2.7720    5.0810   16.1070 C   0  0  0  0  0  0  0  0  0  0  0  0
    1.3590    3.3000   15.0610 N   0  0  1  0  0  0  0  0  0  0  0  0
    0.1610    3.3520   15.9440 C   0  0  0  0  0  0  0  0  0  0  0  0
   -0.8350    3.7020   12.5280 C   0  0  0  0  0  0  0  0  0  0  0  0
   -2.1510    3.6160   12.0540 C   0  0  0  0  0  0  0  0  0  0  0  0
   -5.2426    3.9605   11.9042 H   0  0  0  0  0  0  0  0  0  0  0  0
   -4.1165    3.8539   10.5088 H   0  0  0  0  0  0  0  0  0  0  0  0
   -5.6393    2.9011   10.5088 H   0  0  0  0  0  0  0  0  0  0  0  0
   -2.8153    0.3887   12.8879 H   0  0  0  0  0  0  0  0  0  0  0  0
   -0.4803    0.5302   13.7279 H   0  0  0  0  0  0  0  0  0  0  0  0
    1.4497    1.5834   13.7322 H   0  0  0  0  0  0  0  0  0  0  0  0
    1.6383    4.0809   12.0438 H   0  0  0  0  0  0  0  0  0  0  0  0
    3.8480    2.4350   12.3920 H   0  0  0  0  0  0  0  0  0  0  0  0
    3.6593    5.0068   13.2986 H   0  0  0  0  0  0  0  0  0  0  0  0
    4.8620    3.3620   13.7650 H   0  0  0  0  0  0  0  0  0  0  0  0
    1.4932    5.4650   14.5277 H   0  0  0  0  0  0  0  0  0  0  0  0
    2.2228    4.6857   16.9742 H   0  0  0  0  0  0  0  0  0  0  0  0
    3.8116    4.7227   16.1369 H   0  0  0  0  0  0  0  0  0  0  0  0
    2.7621    6.1805   16.1369 H   0  0  0  0  0  0  0  0  0  0  0  0
    2.0570    2.6970   15.5290 H   0  0  0  0  0  0  0  0  0  0  0  0
    0.4804    3.3381   16.9965 H   0  0  0  0  0  0  0  0  0  0  0  0
   -0.4022    4.2754   15.7439 H   0  0  0  0  0  0  0  0  0  0  0  0
   -0.4801    2.4808   15.7439 H   0  0  0  0  0  0  0  0  0  0  0  0
   -0.2831    4.6480   12.4254 H   0  0  0  0  0  0  0  0  0  0  0  0
   -2.6211    4.4912   11.5818 H   0  0  0  0  0  0  0  0  0  0  0  0
  1  2  1  0
  2  3  1  0
  3  4  2  0
  4  5  1  0
  5  6  2  0
  6  7  1  0
  7  8  1  0
  8  9  1  0
  8 10  1  0
 10 11  1  0
 10 12  1  0
 12 13  1  0
 12 14  1  0
 14 15  1  0
  6 16  1  0
 16 17  2  0
 17  3  1  0
 14  7  1  0
  1 18  1  0
  1 19  1  0
  1 20  1  0
  4 21  1  0
  5 22  1  0
  7 23  1  1
  8 24  1  6
  9 25  1  0
 10 26  1  6
 11 27  1  0
 12 28  1  6
 13 29  1  0
 13 30  1  0
 13 31  1  0
 14 32  1  1
 15 33  1  0
 15 34  1  0
 15 35  1  0
 16 36  1  0
 17 37  1  0
M  CHG  1  14   1
M  END
>  <meeko>  (7) 
{"is_sidechain": [false], "free_energy": -4.858, "intermolecular_energy": -5.707, "internal_energy": -0.221}

$$$$
4jfs_ligand
     RDKit          3D

 37 38  0  0  0  0  0  0  0  0999 V2000
    2.6610    5.9900    8.7140 C   0  0  0  0  0  0  0  0  0  0  0  0
    2.7900    4.8620    9.5730 O   0  0  0  0  0  0  0  0  0  0  0  0
    1.8970    4.7490   10.5970 C   0  0  0  0  0  0  0  0  0  0  0  0
    2.3460    3.9960   11.6810 C   0  0  0  0  0  0  0  0  0  0  0  0
    1.5340    3.7950   12.8000 C   0  0  0  0  0  0  0  0  0  0  0  0
    0.2460    4.3480   12.8580 C   0  0  0  0  0  0  0  0  0  0  0  0
   -0.6130    4.0950   14.0800 C   0  0  1  0  0  0  0  0  0  0  0  0
   -0.9890    5.3990   14.8500 C   0  0  2  0  0  0  0  0  0  0  0  0
   -0.1780    5.6200   16.0040 O   0  0  0  0  0  0  0  0  0  0  0  0
   -2.4260    5.1370   15.3040 C   0  0  2  0  0  0  0  0  0  0  0  0
   -2.3990    4.2430   16.4280 O   0  0  0  0  0  0  0  0  0  0  0  0
   -3.0290    4.4200   14.0930 C   0  0  2  0  0  0  0  0  0  0  0  0
   -4.3640    3.7480   14.3730 C   0  0  0  0  0  0  0  0  0  0  0  0
   -1.9520    3.3840   13.8140 N   0  0  1  0  0  0  0  0  0  0  0  0
   -2.0810    2.5850   12.5630 C   0  0  0  0  0  0  0  0  0  0  0  0
   -0.2010    5.1000   11.7590 C   0  0  0  0  0  0  0  0  0  0  0  0
    0.6180    5.2990   10.6400 C   0  0  0  0  0  0  0  0  0  0  0  0
    2.5567    6.9022    9.3198 H   0  0  0  0  0  0  0  0  0  0  0  0
    3.5557    6.0717    8.0792 H   0  0  0  0  0  0  0  0  0  0  0  0
    1.7710    5.8676    8.0792 H   0  0  0  0  0  0  0  0  0  0  0  0
    3.3531    3.5542   11.6549 H   0  0  0  0  0  0  0  0  0  0  0  0
    1.9084    3.1971   13.6440 H   0  0  0  0  0  0  0  0  0  0  0  0
    0.0459    3.4398   14.6687 H   0  0  0  0  0  0  0  0  0  0  0  0
   -0.8533    6.2858   14.2135 H   0  0  0  0  0  0  0  0  0  0  0  0
   -0.5360    6.3860   16.4950 H   0  0  0  0  0  0  0  0  0  0  0  0
   -2.9798    6.0390   15.6035 H   0  0  0  0  0  0  0  0  0  0  0  0
   -2.9280    4.6850   17.1290 H   0  0  0  0  0  0  0  0  0  0  0  0
   -3.2636    5.1052   13.2651 H   0  0  0  0  0  0  0  0  0  0  0  0
   -4.5153    3.6718   15.4599 H   0  0  0  0  0  0  0  0  0  0  0  0
   -5.1750    4.3453   13.9308 H   0  0  0  0  0  0  0  0  0  0  0  0
   -4.3674    2.7408   13.9308 H   0  0  0  0  0  0  0  0  0  0  0  0
   -2.0340    2.7240   14.6070 H   0  0  0  0  0  0  0  0  0  0  0  0
   -2.2515    1.5288   12.8185 H   0  0  0  0  0  0  0  0  0  0  0  0
   -2.9300    2.9613   11.9735 H   0  0  0  0  0  0  0  0  0  0  0  0
   -1.1567    2.6750   11.9735 H   0  0  0  0  0  0  0  0  0  0  0  0
   -1.2093    5.5393   11.7773 H   0  0  0  0  0  0  0  0  0  0  0  0
    0.2490    5.8928    9.7907 H   0  0  0  0  0  0  0  0  0  0  0  0
  1  2  1  0
  2  3  1  0
  3  4  2  0
  4  5  1  0
  5  6  2  0
  6  7  1  0
  7  8  1  0
  8  9  1  0
  8 10  1  0
 10 11  1  0
 10 12  1  0
 12 13  1  0
 12 14  1  0
 14 15  1  0
  6 16  1  0
 16 17  2  0
 17  3  1  0
 14  7  1  0
  1 18  1  0
  1 19  1  0
  1 20  1  0
  4 21  1  0
  5 22  1  0
  7 23  1  1
  8 24  1  6
  9 25  1  0
 10 26  1  1
 11 27  1  0
 12 28  1  6
 13 29  1  0
 13 30  1  0
 13 31  1  0
 14 32  1  1
 15 33  1  0
 15 34  1  0
 15 35  1  0
 16 36  1  0
 17 37  1  0
M  CHG  1  14   1
M  END
>  <meeko>  (8) 
{"is_sidechain": [false], "free_energy": -4.848, "intermolecular_energy": -5.848, "internal_energy": -0.068}

$$$$
4jfs_ligand
     RDKit          3D

 37 38  0  0  0  0  0  0  0  0999 V2000
    4.7130    3.2500   18.6920 C   0  0  0  0  0  0  0  0  0  0  0  0
    3.5880    4.0480   18.3410 O   0  0  0  0  0  0  0  0  0  0  0  0
    2.9650    3.7690   17.1600 C   0  0  0  0  0  0  0  0  0  0  0  0
    2.7460    4.8770   16.3420 C   0  0  0  0  0  0  0  0  0  0  0  0
    2.1160    4.7400   15.1030 C   0  0  0  0  0  0  0  0  0  0  0  0
    1.6890    3.4820   14.6530 C   0  0  0  0  0  0  0  0  0  0  0  0
    0.9930    3.3730   13.3120 C   0  0  1  0  0  0  0  0  0  0  0  0
   -0.0390    4.5160   13.0590 C   0  0  2  0  0  0  0  0  0  0  0  0
   -1.3880    4.1140   13.3000 O   0  0  0  0  0  0  0  0  0  0  0  0
    0.1240    4.8130   11.5670 C   0  0  2  0  0  0  0  0  0  0  0  0
   -0.5340    3.7800   10.8160 O   0  0  0  0  0  0  0  0  0  0  0  0
    1.6380    4.7020   11.3720 C   0  0  2  0  0  0  0  0  0  0  0  0
    2.0720    4.6320    9.9160 C   0  0  0  0  0  0  0  0  0  0  0  0
    1.9180    3.3860   12.0820 N   0  0  1  0  0  0  0  0  0  0  0  0
    3.3450    3.0080   12.2780 C   0  0  0  0  0  0  0  0  0  0  0  0
    1.9070    2.3710   15.4860 C   0  0  0  0  0  0  0  0  0  0  0  0
    2.5410    2.5150   16.7270 C   0  0  0  0  0  0  0  0  0  0  0  0
    4.7942    3.1924   19.7875 H   0  0  0  0  0  0  0  0  0  0  0  0
    4.5875    2.2379   18.2799 H   0  0  0  0  0  0  0  0  0  0  0  0
    5.6268    3.7030   18.2799 H   0  0  0  0  0  0  0  0  0  0  0  0
    3.0738    5.8721   16.6770 H   0  0  0  0  0  0  0  0  0  0  0  0
    1.9531    5.6275   14.4739 H   0  0  0  0  0  0  0  0  0  0  0  0
    0.5098    2.3891   13.4040 H   0  0  0  0  0  0  0  0  0  0  0  0
    0.1449    5.3687   13.7292 H   0  0  0  0  0  0  0  0  0  0  0  0
   -1.7140    3.6290   12.5170 H   0  0  0  0  0  0  0  0  0  0  0  0
   -0.2926    5.7799   11.2482 H   0  0  0  0  0  0  0  0  0  0  0  0
    0.1810    3.3060   10.3370 H   0  0  0  0  0  0  0  0  0  0  0  0
    2.1819    5.5794   11.7520 H   0  0  0  0  0  0  0  0  0  0  0  0
    3.1568    4.4570    9.8648 H   0  0  0  0  0  0  0  0  0  0  0  0
    1.5435    3.8075    9.4151 H   0  0  0  0  0  0  0  0  0  0  0  0
    1.8296    5.5809    9.4151 H   0  0  0  0  0  0  0  0  0  0  0  0
    1.4970    2.6770   11.4580 H   0  0  0  0  0  0  0  0  0  0  0  0
    3.5644    2.9499   13.3543 H   0  0  0  0  0  0  0  0  0  0  0  0
    3.5324    2.0292   11.8122 H   0  0  0  0  0  0  0  0  0  0  0  0
    3.9923    3.7657   11.8122 H   0  0  0  0  0  0  0  0  0  0  0  0
    1.5752    1.3745   15.1589 H   0  0  0  0  0  0  0  0  0  0  0  0
    2.7049    1.6326   17.3630 H   0  0  0  0  0  0  0  0  0  0  0  0
  1  2  1  0
  2  3  1  0
  3  4  2  0
  4  5  1  0
  5  6  2  0
  6  7  1  0
  7  8  1  0
  8  9  1  0
  8 10  1  0
 10 11  1  0
 10 12  1  0
 12 13  1  0
 12 14  1  0
 14 15  1  0
  6 16  1  0
 16 17  2  0
 17  3  1  0
 14  7  1  0
  1 18  1  0
  1 19  1  0
  1 20  1  0
  4 21  1  0
  5 22  1  0
  7 23  1  1
  8 24  1  1
  9 25  1  0
 10 26  1  1
 11 27  1  0
 12 28  1  1
 13 29  1  0
 13 30  1  0
 13 31  1  0
 14 32  1  6
 15 33  1  0
 15 34  1  0
 15 35  1  0
 16 36  1  0
 17 37  1  0
M  CHG  1  14   1
M  END
>  <meeko>  (9) 
{"is_sidechain": [false], "free_energy": -4.839, "intermolecular_energy": -5.669, "internal_energy": -0.236}

$$$$
