1syi_ligand
     RDKit          3D

 30 31  0  0  0  0  0  0  0  0999 V2000
   -0.5560  -10.0490  -10.2620 N   0  0  0  0  0  0  0  0  0  0  0  0
   -0.8470   -9.7080  -11.7150 C   0  0  1  0  0  0  0  0  0  0  0  0
   -0.0370  -10.6030  -12.6610 C   0  0  0  0  0  0  0  0  0  0  0  0
    1.2520  -10.0010  -13.0530 N   0  0  0  0  0  0  0  0  0  0  0  0
    2.4300  -10.4240  -12.4780 C   0  0  0  0  0  0  0  0  0  0  0  0
    3.6080   -9.8830  -12.7850 C   0  0  0  0  0  0  0  0  0  0  0  0
    3.6880   -8.8030  -13.7640 C   0  0  0  0  0  0  0  0  0  0  0  0
    4.7490   -8.2950  -14.0980 O   0  0  0  0  0  0  0  0  0  0  0  0
    2.4800   -8.4230  -14.2870 N   0  0  0  0  0  0  0  0  0  0  0  0
    1.2640   -9.0000  -14.0230 C   0  0  0  0  0  0  0  0  0  0  0  0
    0.2550   -8.6770  -14.6540 O   0  0  0  0  0  0  0  0  0  0  0  0
    4.7450  -10.4880  -12.0500 C   0  0  0  0  0  0  0  0  0  0  0  0
    4.0990  -11.7480  -11.4610 C   0  0  0  0  0  0  0  0  0  0  0  0
    2.5820  -11.5100  -11.4640 C   0  0  0  0  0  0  0  0  0  0  0  0
   -2.3250  -10.0290  -12.0320 C   0  0  0  0  0  0  0  0  0  0  0  0
   -2.4660  -10.2280  -13.2820 O   0  0  0  0  0  0  0  0  0  0  0  0
   -3.1230  -10.0620  -11.0710 O   0  0  0  0  0  0  0  0  0  0  0  0
    0.2860  -10.6120  -10.1520 H   0  0  0  0  0  0  0  0  0  0  0  0
   -1.3630  -10.4340   -9.7470 H   0  0  0  0  0  0  0  0  0  0  0  0
   -0.3180   -9.1050   -9.8710 H   0  0  0  0  0  0  0  0  0  0  0  0
   -0.5991   -8.6454  -11.8548 H   0  0  0  0  0  0  0  0  0  0  0  0
    0.1610  -11.5600  -12.1560 H   0  0  0  0  0  0  0  0  0  0  0  0
   -0.6308  -10.7404  -13.5767 H   0  0  0  0  0  0  0  0  0  0  0  0
    2.5060   -7.6980  -14.9860 H   0  0  0  0  0  0  0  0  0  0  0  0
    5.5722  -10.7416  -12.7293 H   0  0  0  0  0  0  0  0  0  0  0  0
    5.1948   -9.8234  -11.2977 H   0  0  0  0  0  0  0  0  0  0  0  0
    4.3463  -12.6244  -12.0781 H   0  0  0  0  0  0  0  0  0  0  0  0
    4.4667  -11.9415  -10.4425 H   0  0  0  0  0  0  0  0  0  0  0  0
    2.0375  -12.4165  -11.7670 H   0  0  0  0  0  0  0  0  0  0  0  0
    2.1761  -11.2486  -10.4756 H   0  0  0  0  0  0  0  0  0  0  0  0
  1  2  1  0
  2  3  1  0
  3  4  1  0
  4  5  1  0
  5  6  2  0
  6  7  1  0
  7  8  2  0
  7  9  1  0
  9 10  1  0
 10 11  2  0
  6 12  1  0
 12 13  1  0
 13 14  1  0
  2 15  1  0
 15 16  2  0
 15 17  1  0
 10  4  1  0
 14  5  1  0
  1 18  1  0
  1 19  1  0
  1 20  1  0
  2 21  1  1
  3 22  1  0
  3 23  1  0
  9 24  1  0
 12 25  1  0
 12 26  1  0
 13 27  1  0
 13 28  1  0
 14 29  1  0
 14 30  1  0
M  CHG  2   1   1  17  -1
M  END
>  <meeko>  (1) 
{"is_sidechain": [false], "free_energy": -6.951, "intermolecular_energy": -8.373, "internal_energy": -0.351}

$$$$
1syi_ligand
     RDKit          3D

 30 31  0  0  0  0  0  0  0  0999 V2000
   -0.9030   -9.7190  -10.4820 N   0  0  0  0  0  0  0  0  0  0  0  0
   -0.8810   -9.7810  -12.0020 C   0  0  1  0  0  0  0  0  0  0  0  0
    0.0040  -10.9320  -12.4920 C   0  0  0  0  0  0  0  0  0  0  0  0
    1.4400  -10.6910  -12.2530 N   0  0  0  0  0  0  0  0  0  0  0  0
    2.1840   -9.9380  -13.1340 C   0  0  0  0  0  0  0  0  0  0  0  0
    3.4880   -9.7250  -12.9680 C   0  0  0  0  0  0  0  0  0  0  0  0
    4.1840  -10.2960  -11.8190 C   0  0  0  0  0  0  0  0  0  0  0  0
    5.3740  -10.1060  -11.6080 O   0  0  0  0  0  0  0  0  0  0  0  0
    3.3890  -11.0450  -10.9900 N   0  0  0  0  0  0  0  0  0  0  0  0
    2.0360  -11.2320  -11.1160 C   0  0  0  0  0  0  0  0  0  0  0  0
    1.3880  -11.8060  -10.2380 O   0  0  0  0  0  0  0  0  0  0  0  0
    4.0910   -8.8880  -14.0320 C   0  0  0  0  0  0  0  0  0  0  0  0
    2.8450   -8.3300  -14.7310 C   0  0  0  0  0  0  0  0  0  0  0  0
    1.6790   -9.2600  -14.3670 C   0  0  0  0  0  0  0  0  0  0  0  0
   -2.2970  -10.1170  -12.5230 C   0  0  0  0  0  0  0  0  0  0  0  0
   -3.1200  -10.1420  -11.5520 O   0  0  0  0  0  0  0  0  0  0  0  0
   -2.4280  -10.2900  -13.7530 O   0  0  0  0  0  0  0  0  0  0  0  0
   -1.2730  -10.5690  -10.0610 H   0  0  0  0  0  0  0  0  0  0  0  0
   -1.3350   -8.8630  -10.0990 H   0  0  0  0  0  0  0  0  0  0  0  0
    0.1220   -9.7160  -10.2600 H   0  0  0  0  0  0  0  0  0  0  0  0
   -0.5112   -8.8090  -12.3606 H   0  0  0  0  0  0  0  0  0  0  0  0
   -0.2907  -11.8511  -11.9643 H   0  0  0  0  0  0  0  0  0  0  0  0
   -0.1404  -11.0212  -13.5788 H   0  0  0  0  0  0  0  0  0  0  0  0
    3.8360  -11.4290  -10.1730 H   0  0  0  0  0  0  0  0  0  0  0  0
    4.7075   -8.0820  -13.6073 H   0  0  0  0  0  0  0  0  0  0  0  0
    4.7706   -9.4365  -14.7008 H   0  0  0  0  0  0  0  0  0  0  0  0
    2.6388   -7.3084  -14.3791 H   0  0  0  0  0  0  0  0  0  0  0  0
    2.9898   -8.2860  -15.8205 H   0  0  0  0  0  0  0  0  0  0  0  0
    0.7628   -8.6876  -14.1598 H   0  0  0  0  0  0  0  0  0  0  0  0
    1.4048   -9.9577  -15.1720 H   0  0  0  0  0  0  0  0  0  0  0  0
  1  2  1  0
  2  3  1  0
  3  4  1  0
  4  5  1  0
  5  6  2  0
  6  7  1  0
  7  8  2  0
  7  9  1  0
  9 10  1  0
 10 11  2  0
  6 12  1  0
 12 13  1  0
 13 14  1  0
  2 15  1  0
 15 16  2  0
 15 17  1  0
 10  4  1  0
 14  5  1  0
  1 18  1  0
  1 19  1  0
  1 20  1  0
  2 21  1  6
  3 22  1  0
  3 23  1  0
  9 24  1  0
 12 25  1  0
 12 26  1  0
 13 27  1  0
 13 28  1  0
 14 29  1  0
 14 30  1  0
M  CHG  2   1   1  17  -1
M  END
>  <meeko>  (2) 
{"is_sidechain": [false], "free_energy": -6.726, "intermolecular_energy": -8.109, "internal_energy": -0.345}

$$$$
1syi_ligand
     RDKit          3D

 30 31  0  0  0  0  0  0  0  0999 V2000
    3.1420   -9.3310  -13.5320 N   0  0  0  0  0  0  0  0  0  0  0  0
    3.1570  -10.3800  -12.4310 C   0  0  1  0  0  0  0  0  0  0  0  0
    2.1240  -11.4780  -12.7050 C   0  0  0  0  0  0  0  0  0  0  0  0
    0.7530  -11.0810  -12.3260 N   0  0  0  0  0  0  0  0  0  0  0  0
   -0.1890  -10.7960  -13.2900 C   0  0  0  0  0  0  0  0  0  0  0  0
   -1.4260  -10.4050  -12.9850 C   0  0  0  0  0  0  0  0  0  0  0  0
   -1.8280  -10.2670  -11.5880 C   0  0  0  0  0  0  0  0  0  0  0  0
   -2.9600   -9.9390  -11.2600 O   0  0  0  0  0  0  0  0  0  0  0  0
   -0.8400  -10.5530  -10.6830 N   0  0  0  0  0  0  0  0  0  0  0  0
    0.4210  -11.0060  -10.9760 C   0  0  0  0  0  0  0  0  0  0  0  0
    1.1890  -11.3710  -10.0830 O   0  0  0  0  0  0  0  0  0  0  0  0
   -2.2750  -10.1520  -14.1730 C   0  0  0  0  0  0  0  0  0  0  0  0
   -1.4370  -10.7790  -15.2930 C   0  0  0  0  0  0  0  0  0  0  0  0
    0.0040  -10.8750  -14.7690 C   0  0  0  0  0  0  0  0  0  0  0  0
    4.5210  -11.1080  -12.4340 C   0  0  0  0  0  0  0  0  0  0  0  0
    4.3640  -12.3190  -12.0760 O   0  0  0  0  0  0  0  0  0  0  0  0
    5.5220  -10.4460  -12.7820 O   0  0  0  0  0  0  0  0  0  0  0  0
    3.7140   -9.5950  -14.3330 H   0  0  0  0  0  0  0  0  0  0  0  0
    3.3330   -8.3710  -13.2050 H   0  0  0  0  0  0  0  0  0  0  0  0
    2.1480   -9.3900  -13.8620 H   0  0  0  0  0  0  0  0  0  0  0  0
    2.9497   -9.8593  -11.4845 H   0  0  0  0  0  0  0  0  0  0  0  0
    2.1375  -11.7131  -13.7795 H   0  0  0  0  0  0  0  0  0  0  0  0
    2.3974  -12.3503  -12.0931 H   0  0  0  0  0  0  0  0  0  0  0  0
   -1.0970  -10.4930   -9.7100 H   0  0  0  0  0  0  0  0  0  0  0  0
   -3.2532  -10.6463  -14.0794 H   0  0  0  0  0  0  0  0  0  0  0  0
   -2.5126   -9.0901  -14.3341 H   0  0  0  0  0  0  0  0  0  0  0  0
   -1.8191  -11.7815  -15.5359 H   0  0  0  0  0  0  0  0  0  0  0  0
   -1.4842  -10.1712  -16.2086 H   0  0  0  0  0  0  0  0  0  0  0  0
    0.4708  -11.8277  -15.0595 H   0  0  0  0  0  0  0  0  0  0  0  0
    0.6706  -10.0964  -15.1683 H   0  0  0  0  0  0  0  0  0  0  0  0
  1  2  1  0
  2  3  1  0
  3  4  1  0
  4  5  1  0
  5  6  2  0
  6  7  1  0
  7  8  2  0
  7  9  1  0
  9 10  1  0
 10 11  2  0
  6 12  1  0
 12 13  1  0
 13 14  1  0
  2 15  1  0
 15 16  2  0
 15 17  1  0
 10  4  1  0
 14  5  1  0
  1 18  1  0
  1 19  1  0
  1 20  1  0
  2 21  1  1
  3 22  1  0
  3 23  1  0
  9 24  1  0
 12 25  1  0
 12 26  1  0
 13 27  1  0
 13 28  1  0
 14 29  1  0
 14 30  1  0
M  CHG  2   1   1  17  -1
M  END
>  <meeko>  (3) 
{"is_sidechain": [false], "free_energy": -6.54, "intermolecular_energy": -7.98, "internal_energy": -0.249}

$$$$
1syi_ligand
     RDKit          3D

 30 31  0  0  0  0  0  0  0  0999 V2000
    0.2690  -10.6850  -10.1270 N   0  0  0  0  0  0  0  0  0  0  0  0
    0.8070  -11.2280  -11.4420 C   0  0  1  0  0  0  0  0  0  0  0  0
    0.6860  -10.1850  -12.5580 C   0  0  0  0  0  0  0  0  0  0  0  0
   -0.4920  -10.4050  -13.4210 N   0  0  0  0  0  0  0  0  0  0  0  0
   -0.3960  -11.1690  -14.5620 C   0  0  0  0  0  0  0  0  0  0  0  0
   -1.4290  -11.3630  -15.3800 C   0  0  0  0  0  0  0  0  0  0  0  0
   -2.7250  -10.7590  -15.0820 C   0  0  0  0  0  0  0  0  0  0  0  0
   -3.7090  -10.9320  -15.7870 O   0  0  0  0  0  0  0  0  0  0  0  0
   -2.7470  -10.0020  -13.9410 N   0  0  0  0  0  0  0  0  0  0  0  0
   -1.7090   -9.8320  -13.0600 C   0  0  0  0  0  0  0  0  0  0  0  0
   -1.8740   -9.2470  -11.9870 O   0  0  0  0  0  0  0  0  0  0  0  0
   -1.1070  -12.2180  -16.5480 C   0  0  0  0  0  0  0  0  0  0  0  0
    0.2490  -12.8040  -16.1380 C   0  0  0  0  0  0  0  0  0  0  0  0
    0.8230  -11.8800  -15.0540 C   0  0  0  0  0  0  0  0  0  0  0  0
    2.3250  -11.4910  -11.3060 C   0  0  0  0  0  0  0  0  0  0  0  0
    2.5950  -11.8540  -10.1160 O   0  0  0  0  0  0  0  0  0  0  0  0
    3.0270  -11.3350  -12.3280 O   0  0  0  0  0  0  0  0  0  0  0  0
   -0.7090  -10.9260   -9.9750 H   0  0  0  0  0  0  0  0  0  0  0  0
    0.4620   -9.6830   -9.9720 H   0  0  0  0  0  0  0  0  0  0  0  0
    0.8120  -11.2510   -9.4310 H   0  0  0  0  0  0  0  0  0  0  0  0
    0.2325  -12.1362  -11.6767 H   0  0  0  0  0  0  0  0  0  0  0  0
    0.6051   -9.1881  -12.1002 H   0  0  0  0  0  0  0  0  0  0  0  0
    1.5814  -10.2716  -13.1911 H   0  0  0  0  0  0  0  0  0  0  0  0
   -3.6350   -9.5950  -13.6940 H   0  0  0  0  0  0  0  0  0  0  0  0
   -1.8599  -13.0078  -16.6868 H   0  0  0  0  0  0  0  0  0  0  0  0
   -1.0893  -11.6779  -17.5061 H   0  0  0  0  0  0  0  0  0  0  0  0
    0.1169  -13.8202  -15.7381 H   0  0  0  0  0  0  0  0  0  0  0  0
    0.9279  -12.8687  -17.0011 H   0  0  0  0  0  0  0  0  0  0  0  0
    1.2988  -12.4587  -14.2485 H   0  0  0  0  0  0  0  0  0  0  0  0
    1.6082  -11.2036  -15.4228 H   0  0  0  0  0  0  0  0  0  0  0  0
  1  2  1  0
  2  3  1  0
  3  4  1  0
  4  5  1  0
  5  6  2  0
  6  7  1  0
  7  8  2  0
  7  9  1  0
  9 10  1  0
 10 11  2  0
  6 12  1  0
 12 13  1  0
 13 14  1  0
  2 15  1  0
 15 16  2  0
 15 17  1  0
 10  4  1  0
 14  5  1  0
  1 18  1  0
  1 19  1  0
  1 20  1  0
  2 21  1  6
  3 22  1  0
  3 23  1  0
  9 24  1  0
 12 25  1  0
 12 26  1  0
 13 27  1  0
 13 28  1  0
 14 29  1  0
 14 30  1  0
M  CHG  2   1   1  17  -1
M  END
>  <meeko>  (4) 
{"is_sidechain": [false], "free_energy": -6.436, "intermolecular_energy": -7.579, "internal_energy": -0.525}

$$$$
1syi_ligand
     RDKit          3D

 30 31  0  0  0  0  0  0  0  0999 V2000
    0.7390  -13.5420  -17.0510 N   0  0  0  0  0  0  0  0  0  0  0  0
   -0.3250  -12.9510  -16.1390 C   0  0  1  0  0  0  0  0  0  0  0  0
    0.1070  -11.5780  -15.6110 C   0  0  0  0  0  0  0  0  0  0  0  0
    0.3140  -11.5670  -14.1500 N   0  0  0  0  0  0  0  0  0  0  0  0
   -0.5310  -10.8600  -13.3240 C   0  0  0  0  0  0  0  0  0  0  0  0
   -0.3570  -10.8020  -12.0050 C   0  0  0  0  0  0  0  0  0  0  0  0
    0.7600  -11.5050  -11.3800 C   0  0  0  0  0  0  0  0  0  0  0  0
    0.9440  -11.5050  -10.1710 O   0  0  0  0  0  0  0  0  0  0  0  0
    1.5680  -12.1770  -12.2590 N   0  0  0  0  0  0  0  0  0  0  0  0
    1.3760  -12.2910  -13.6120 C   0  0  0  0  0  0  0  0  0  0  0  0
    2.0810  -13.0380  -14.2950 O   0  0  0  0  0  0  0  0  0  0  0  0
   -1.3810   -9.9860  -11.3080 C   0  0  0  0  0  0  0  0  0  0  0  0
   -2.4360   -9.8090  -12.4070 C   0  0  0  0  0  0  0  0  0  0  0  0
   -1.7320  -10.0760  -13.7450 C   0  0  0  0  0  0  0  0  0  0  0  0
   -1.6080  -12.6770  -16.9570 C   0  0  0  0  0  0  0  0  0  0  0  0
   -1.7810  -13.6030  -17.8130 O   0  0  0  0  0  0  0  0  0  0  0  0
   -2.2630  -11.6530  -16.6680 O   0  0  0  0  0  0  0  0  0  0  0  0
    0.3460  -13.9510  -17.8980 H   0  0  0  0  0  0  0  0  0  0  0  0
    1.4020  -14.1740  -16.5750 H   0  0  0  0  0  0  0  0  0  0  0  0
    1.2480  -12.6800  -17.3630 H   0  0  0  0  0  0  0  0  0  0  0  0
   -0.4835  -13.6665  -15.3187 H   0  0  0  0  0  0  0  0  0  0  0  0
    1.0494  -11.2932  -16.1017 H   0  0  0  0  0  0  0  0  0  0  0  0
   -0.7013  -10.8669  -15.8366 H   0  0  0  0  0  0  0  0  0  0  0  0
    2.3310  -12.6960  -11.8540 H   0  0  0  0  0  0  0  0  0  0  0  0
   -1.7934  -10.5175  -10.4377 H   0  0  0  0  0  0  0  0  0  0  0  0
   -0.9968   -9.0393  -10.9003 H   0  0  0  0  0  0  0  0  0  0  0  0
   -3.2578  -10.5256  -12.2619 H   0  0  0  0  0  0  0  0  0  0  0  0
   -2.8657   -8.7967  -12.3822 H   0  0  0  0  0  0  0  0  0  0  0  0
   -2.3721  -10.6610  -14.4218 H   0  0  0  0  0  0  0  0  0  0  0  0
   -1.4862   -9.1605  -14.3030 H   0  0  0  0  0  0  0  0  0  0  0  0
  1  2  1  0
  2  3  1  0
  3  4  1  0
  4  5  1  0
  5  6  2  0
  6  7  1  0
  7  8  2  0
  7  9  1  0
  9 10  1  0
 10 11  2  0
  6 12  1  0
 12 13  1  0
 13 14  1  0
  2 15  1  0
 15 16  2  0
 15 17  1  0
 10  4  1  0
 14  5  1  0
  1 18  1  0
  1 19  1  0
  1 20  1  0
  2 21  1  1
  3 22  1  0
  3 23  1  0
  9 24  1  0
 12 25  1  0
 12 26  1  0
 13 27  1  0
 13 28  1  0
 14 29  1  0
 14 30  1  0
M  CHG  2   1   1  17  -1
M  END
>  <meeko>  (5) 
{"is_sidechain": [false], "free_energy": -6.011, "intermolecular_energy": -7.316, "internal_energy": -0.276}

$$$$
1syi_ligand
     RDKit          3D

 30 31  0  0  0  0  0  0  0  0999 V2000
   -6.4820   -1.3680  -14.8410 N   0  0  0  0  0  0  0  0  0  0  0  0
   -5.4530   -2.4530  -14.5650 C   0  0  1  0  0  0  0  0  0  0  0  0
   -5.3340   -3.4120  -15.7550 C   0  0  0  0  0  0  0  0  0  0  0  0
   -6.4420   -4.3850  -15.8190 N   0  0  0  0  0  0  0  0  0  0  0  0
   -7.4700   -4.2240  -16.7210 C   0  0  0  0  0  0  0  0  0  0  0  0
   -8.5010   -5.0650  -16.7860 C   0  0  0  0  0  0  0  0  0  0  0  0
   -8.5720   -6.2100  -15.8830 C   0  0  0  0  0  0  0  0  0  0  0  0
   -9.4830   -7.0240  -15.9240 O   0  0  0  0  0  0  0  0  0  0  0  0
   -7.5250   -6.3030  -15.0030 N   0  0  0  0  0  0  0  0  0  0  0  0
   -6.4310   -5.4780  -14.9550 C   0  0  0  0  0  0  0  0  0  0  0  0
   -5.4740   -5.7320  -14.2200 O   0  0  0  0  0  0  0  0  0  0  0  0
   -9.4920   -4.7050  -17.8280 C   0  0  0  0  0  0  0  0  0  0  0  0
   -8.7230   -3.6560  -18.6400 C   0  0  0  0  0  0  0  0  0  0  0  0
   -7.5970   -3.1330  -17.7350 C   0  0  0  0  0  0  0  0  0  0  0  0
   -4.0540   -1.8120  -14.4290 C   0  0  0  0  0  0  0  0  0  0  0  0
   -3.8430   -1.0230  -15.4060 O   0  0  0  0  0  0  0  0  0  0  0  0
   -3.3730   -2.1280  -13.4300 O   0  0  0  0  0  0  0  0  0  0  0  0
   -6.7600   -0.8680  -13.9980 H   0  0  0  0  0  0  0  0  0  0  0  0
   -7.2890   -1.6810  -15.4020 H   0  0  0  0  0  0  0  0  0  0  0  0
   -5.9180   -0.6840  -15.4020 H   0  0  0  0  0  0  0  0  0  0  0  0
   -5.7740   -2.9796  -13.6542 H   0  0  0  0  0  0  0  0  0  0  0  0
   -5.3308   -2.8216  -16.6831 H   0  0  0  0  0  0  0  0  0  0  0  0
   -4.4008   -3.9808  -15.6297 H   0  0  0  0  0  0  0  0  0  0  0  0
   -7.5330   -7.1000  -14.3860 H   0  0  0  0  0  0  0  0  0  0  0  0
   -9.7575   -5.5751  -18.4464 H   0  0  0  0  0  0  0  0  0  0  0  0
  -10.4505   -4.3441  -17.4267 H   0  0  0  0  0  0  0  0  0  0  0  0
   -8.2991   -4.1142  -19.5457 H   0  0  0  0  0  0  0  0  0  0  0  0
   -9.3865   -2.8381  -18.9576 H   0  0  0  0  0  0  0  0  0  0  0  0
   -6.6614   -3.0021  -18.2985 H   0  0  0  0  0  0  0  0  0  0  0  0
   -7.8071   -2.1464  -17.2963 H   0  0  0  0  0  0  0  0  0  0  0  0
  1  2  1  0
  2  3  1  0
  3  4  1  0
  4  5  1  0
  5  6  2  0
  6  7  1  0
  7  8  2  0
  7  9  1  0
  9 10  1  0
 10 11  2  0
  6 12  1  0
 12 13  1  0
 13 14  1  0
  2 15  1  0
 15 16  2  0
 15 17  1  0
 10  4  1  0
 14  5  1  0
  1 18  1  0
  1 19  1  0
  1 20  1  0
  2 21  1  1
  3 22  1  0
  3 23  1  0
  9 24  1  0
 12 25  1  0
 12 26  1  0
 13 27  1  0
 13 28  1  0
 14 29  1  0
 14 30  1  0
M  CHG  2   1   1  17  -1
M  END
>  <meeko>  (6) 
{"is_sidechain": [false], "free_energy": -5.99, "intermolecular_energy": -7.347, "internal_energy": -0.219}

$$$$
1syi_ligand
     RDKit          3D

 30 31  0  0  0  0  0  0  0  0999 V2000
    2.4920   -8.5080  -14.5090 N   0  0  0  0  0  0  0  0  0  0  0  0
    2.4850   -9.3260  -13.2270 C   0  0  1  0  0  0  0  0  0  0  0  0
    1.8690  -10.7100  -13.4620 C   0  0  0  0  0  0  0  0  0  0  0  0
    0.4550  -10.6440  -13.8780 N   0  0  0  0  0  0  0  0  0  0  0  0
   -0.5440  -10.4540  -12.9500 C   0  0  0  0  0  0  0  0  0  0  0  0
   -1.8330  -10.4200  -13.2840 C   0  0  0  0  0  0  0  0  0  0  0  0
   -2.2340  -10.5840  -14.6790 C   0  0  0  0  0  0  0  0  0  0  0  0
   -3.4020  -10.5320  -15.0380 O   0  0  0  0  0  0  0  0  0  0  0  0
   -1.1930  -10.7810  -15.5480 N   0  0  0  0  0  0  0  0  0  0  0  0
    0.1410  -10.7690  -15.2300 C   0  0  0  0  0  0  0  0  0  0  0  0
    1.0060  -10.8140  -16.1090 O   0  0  0  0  0  0  0  0  0  0  0  0
   -2.7390  -10.2050  -12.1300 C   0  0  0  0  0  0  0  0  0  0  0  0
   -1.7520   -9.7760  -11.0380 C   0  0  0  0  0  0  0  0  0  0  0  0
   -0.3630  -10.2610  -11.4790 C   0  0  0  0  0  0  0  0  0  0  0  0
    3.9400   -9.6070  -12.7880 C   0  0  0  0  0  0  0  0  0  0  0  0
    4.7500   -9.0290  -13.5830 O   0  0  0  0  0  0  0  0  0  0  0  0
    4.1060  -10.3080  -11.7670 O   0  0  0  0  0  0  0  0  0  0  0  0
    1.5770   -8.1190  -14.7310 H   0  0  0  0  0  0  0  0  0  0  0  0
    2.9280   -8.9840  -15.3130 H   0  0  0  0  0  0  0  0  0  0  0  0
    3.0860   -7.6900  -14.2290 H   0  0  0  0  0  0  0  0  0  0  0  0
    1.9149   -8.7532  -12.4808 H   0  0  0  0  0  0  0  0  0  0  0  0
    2.4432  -11.2211  -14.2488 H   0  0  0  0  0  0  0  0  0  0  0  0
    1.9081  -11.2559  -12.5078 H   0  0  0  0  0  0  0  0  0  0  0  0
   -1.4370  -10.8700  -16.5210 H   0  0  0  0  0  0  0  0  0  0  0  0
   -3.4746   -9.4143  -12.3392 H   0  0  0  0  0  0  0  0  0  0  0  0
   -3.3434  -11.0853  -11.8658 H   0  0  0  0  0  0  0  0  0  0  0  0
   -1.7552   -8.6810  -10.9338 H   0  0  0  0  0  0  0  0  0  0  0  0
   -2.0293  -10.2064  -10.0644 H   0  0  0  0  0  0  0  0  0  0  0  0
    0.4080   -9.5052  -11.2685 H   0  0  0  0  0  0  0  0  0  0  0  0
   -0.0264  -11.1674  -10.9544 H   0  0  0  0  0  0  0  0  0  0  0  0
  1  2  1  0
  2  3  1  0
  3  4  1  0
  4  5  1  0
  5  6  2  0
  6  7  1  0
  7  8  2  0
  7  9  1  0
  9 10  1  0
 10 11  2  0
  6 12  1  0
 12 13  1  0
 13 14  1  0
  2 15  1  0
 15 16  2  0
 15 17  1  0
 10  4  1  0
 14  5  1  0
  1 18  1  0
  1 19  1  0
  1 20  1  0
  2 21  1  1
  3 22  1  0
  3 23  1  0
  9 24  1  0
 12 25  1  0
 12 26  1  0
 13 27  1  0
 13 28  1  0
 14 29  1  0
 14 30  1  0
M  CHG  2   1   1  17  -1
M  END
>  <meeko>  (7) 
{"is_sidechain": [false], "free_energy": -5.927, "intermolecular_energy": -7.197, "internal_energy": -0.293}

$$$$
1syi_ligand
     RDKit          3D

 30 31  0  0  0  0  0  0  0  0999 V2000
   -0.1140  -11.0880  -16.0390 N   0  0  0  0  0  0  0  0  0  0  0  0
   -0.8430  -10.9080  -14.7160 C   0  0  1  0  0  0  0  0  0  0  0  0
   -0.4390   -9.5920  -14.0420 C   0  0  0  0  0  0  0  0  0  0  0  0
    1.0120   -9.5050  -13.7810 N   0  0  0  0  0  0  0  0  0  0  0  0
    1.5820  -10.1960  -12.7360 C   0  0  0  0  0  0  0  0  0  0  0  0
    2.8810  -10.1180  -12.4520 C   0  0  0  0  0  0  0  0  0  0  0  0
    3.7600   -9.2780  -13.2620 C   0  0  0  0  0  0  0  0  0  0  0  0
    4.9630   -9.1960  -13.0580 O   0  0  0  0  0  0  0  0  0  0  0  0
    3.1260   -8.6090  -14.2760 N   0  0  0  0  0  0  0  0  0  0  0  0
    1.8020   -8.7160  -14.6150 C   0  0  0  0  0  0  0  0  0  0  0  0
    1.3590   -8.1810  -15.6340 O   0  0  0  0  0  0  0  0  0  0  0  0
    3.2840  -10.9420  -11.2880 C   0  0  0  0  0  0  0  0  0  0  0  0
    2.0450  -11.8230  -11.0890 C   0  0  0  0  0  0  0  0  0  0  0  0
    0.8770  -11.1110  -11.7880 C   0  0  0  0  0  0  0  0  0  0  0  0
   -2.3590  -10.7700  -14.9810 C   0  0  0  0  0  0  0  0  0  0  0  0
   -2.8850  -10.0170  -14.0980 O   0  0  0  0  0  0  0  0  0  0  0  0
   -2.8250  -11.3690  -15.9740 O   0  0  0  0  0  0  0  0  0  0  0  0
   -0.1600  -12.0450  -16.3840 H   0  0  0  0  0  0  0  0  0  0  0  0
    0.8450  -10.7070  -16.0500 H   0  0  0  0  0  0  0  0  0  0  0  0
   -0.7160  -10.5240  -16.6870 H   0  0  0  0  0  0  0  0  0  0  0  0
   -0.5938  -11.7754  -14.0871 H   0  0  0  0  0  0  0  0  0  0  0  0
   -0.7289   -8.7577  -14.6977 H   0  0  0  0  0  0  0  0  0  0  0  0
   -0.9537   -9.5454  -13.0710 H   0  0  0  0  0  0  0  0  0  0  0  0
    3.7120   -8.0430  -14.8690 H   0  0  0  0  0  0  0  0  0  0  0  0
    4.1745  -11.5470  -11.5138 H   0  0  0  0  0  0  0  0  0  0  0  0
    3.5630  -10.3556  -10.4001 H   0  0  0  0  0  0  0  0  0  0  0  0
    2.2084  -12.8134  -11.5388 H   0  0  0  0  0  0  0  0  0  0  0  0
    1.8338  -11.9712  -10.0197 H   0  0  0  0  0  0  0  0  0  0  0  0
    0.2388  -11.8272  -12.3262 H   0  0  0  0  0  0  0  0  0  0  0  0
    0.2007  -10.5900  -11.0944 H   0  0  0  0  0  0  0  0  0  0  0  0
  1  2  1  0
  2  3  1  0
  3  4  1  0
  4  5  1  0
  5  6  2  0
  6  7  1  0
  7  8  2  0
  7  9  1  0
  9 10  1  0
 10 11  2  0
  6 12  1  0
 12 13  1  0
 13 14  1  0
  2 15  1  0
 15 16  2  0
 15 17  1  0
 10  4  1  0
 14  5  1  0
  1 18  1  0
  1 19  1  0
  1 20  1  0
  2 21  1  1
  3 22  1  0
  3 23  1  0
  9 24  1  0
 12 25  1  0
 12 26  1  0
 13 27  1  0
 13 28  1  0
 14 29  1  0
 14 30  1  0
M  CHG  2   1   1  17  -1
M  END
>  <meeko>  (8) 
{"is_sidechain": [false], "free_energy": -5.864, "intermolecular_energy": -7.163, "internal_energy": -0.251}

$$$$
1syi_ligand
     RDKit          3D

 30 31  0  0  0  0  0  0  0  0999 V2000
   -0.0520  -11.5870  -14.3220 N   0  0  0  0  0  0  0  0  0  0  0  0
   -0.1290  -10.1060  -14.6580 C   0  0  1  0  0  0  0  0  0  0  0  0
    0.3430   -9.2490  -13.4780 C   0  0  0  0  0  0  0  0  0  0  0  0
    1.0360  -10.0370  -12.4410 N   0  0  0  0  0  0  0  0  0  0  0  0
    2.4110  -10.1200  -12.4200 C   0  0  0  0  0  0  0  0  0  0  0  0
    3.0690  -10.8460  -11.5170 C   0  0  0  0  0  0  0  0  0  0  0  0
    2.3350  -11.5920  -10.4990 C   0  0  0  0  0  0  0  0  0  0  0  0
    2.8950  -12.2490   -9.6330 O   0  0  0  0  0  0  0  0  0  0  0  0
    0.9720  -11.4760  -10.5850 N   0  0  0  0  0  0  0  0  0  0  0  0
    0.2790  -10.6940  -11.4730 C   0  0  0  0  0  0  0  0  0  0  0  0
   -0.9420  -10.5480  -11.3750 O   0  0  0  0  0  0  0  0  0  0  0  0
    4.5420  -10.7950  -11.6770 C   0  0  0  0  0  0  0  0  0  0  0  0
    4.7070   -9.6250  -12.6550 C   0  0  0  0  0  0  0  0  0  0  0  0
    3.3540   -9.4410  -13.3580 C   0  0  0  0  0  0  0  0  0  0  0  0
    0.8600   -9.7870  -15.8020 C   0  0  0  0  0  0  0  0  0  0  0  0
    0.9440  -10.7830  -16.5910 O   0  0  0  0  0  0  0  0  0  0  0  0
    1.3940   -8.6570  -15.8000 O   0  0  0  0  0  0  0  0  0  0  0  0
   -0.5460  -12.1680  -14.9970 H   0  0  0  0  0  0  0  0  0  0  0  0
   -0.2990  -11.8130  -13.3450 H   0  0  0  0  0  0  0  0  0  0  0  0
    0.9680  -11.7810  -14.4730 H   0  0  0  0  0  0  0  0  0  0  0  0
   -1.1747   -9.8877  -14.9204 H   0  0  0  0  0  0  0  0  0  0  0  0
    1.0335   -8.4805  -13.8556 H   0  0  0  0  0  0  0  0  0  0  0  0
   -0.5493   -8.8031  -13.0144 H   0  0  0  0  0  0  0  0  0  0  0  0
    0.4400  -11.9570   -9.8770 H   0  0  0  0  0  0  0  0  0  0  0  0
    5.0428  -10.5908  -10.7191 H   0  0  0  0  0  0  0  0  0  0  0  0
    4.9863  -11.7378  -12.0288 H   0  0  0  0  0  0  0  0  0  0  0  0
    4.9774   -8.7096  -12.1083 H   0  0  0  0  0  0  0  0  0  0  0  0
    5.5060   -9.8285  -13.3831 H   0  0  0  0  0  0  0  0  0  0  0  0
    3.1054   -8.3754  -13.4702 H   0  0  0  0  0  0  0  0  0  0  0  0
    3.3296   -9.8501  -14.3788 H   0  0  0  0  0  0  0  0  0  0  0  0
  1  2  1  0
  2  3  1  0
  3  4  1  0
  4  5  1  0
  5  6  2  0
  6  7  1  0
  7  8  2  0
  7  9  1  0
  9 10  1  0
 10 11  2  0
  6 12  1  0
 12 13  1  0
 13 14  1  0
  2 15  1  0
 15 16  2  0
 15 17  1  0
 10  4  1  0
 14  5  1  0
  1 18  1  0
  1 19  1  0
  1 20  1  0
  2 21  1  6
  3 22  1  0
  3 23  1  0
  9 24  1  0
 12 25  1  0
 12 26  1  0
 13 27  1  0
 13 28  1  0
 14 29  1  0
 14 30  1  0
M  CHG  2   1   1  17  -1
M  END
>  <meeko>  (9) 
{"is_sidechain": [false], "free_energy": -5.823, "intermolecular_energy": -7.412, "internal_energy": 0.047}

$$$$
