1uto_ligand
     RDKit          3D

 21 21  0  0  0  0  0  0  0  0999 V2000
   -3.6290    1.2460   11.3890 N   0  0  0  0  0  0  0  0  0  0  0  0
   -4.1140    2.0670   12.5290 C   0  0  0  0  0  0  0  0  0  0  0  0
   -3.8290    3.5440   12.2680 C   0  0  0  0  0  0  0  0  0  0  0  0
   -4.5840    4.4120   13.2370 C   0  0  0  0  0  0  0  0  0  0  0  0
   -4.3300    5.7890   13.3040 C   0  0  0  0  0  0  0  0  0  0  0  0
   -5.0550    6.5970   14.1810 C   0  0  0  0  0  0  0  0  0  0  0  0
   -6.0380    6.0390   14.9960 C   0  0  0  0  0  0  0  0  0  0  0  0
   -6.2970    4.6720   14.9370 C   0  0  0  0  0  0  0  0  0  0  0  0
   -5.5740    3.8600   14.0620 C   0  0  0  0  0  0  0  0  0  0  0  0
   -3.9030    1.6490   10.4830 H   0  0  0  0  0  0  0  0  0  0  0  0
   -3.9930    0.2840   11.4280 H   0  0  0  0  0  0  0  0  0  0  0  0
   -2.6020    1.1830   11.3970 H   0  0  0  0  0  0  0  0  0  0  0  0
   -5.1977    1.9207   12.6481 H   0  0  0  0  0  0  0  0  0  0  0  0
   -3.5922    1.7553   13.4459 H   0  0  0  0  0  0  0  0  0  0  0  0
   -2.7507    3.7291   12.3823 H   0  0  0  0  0  0  0  0  0  0  0  0
   -4.1532    3.7909   11.2463 H   0  0  0  0  0  0  0  0  0  0  0  0
   -3.5556    6.2347   12.6623 H   0  0  0  0  0  0  0  0  0  0  0  0
   -4.8501    7.6767   14.2290 H   0  0  0  0  0  0  0  0  0  0  0  0
   -6.6091    6.6780   15.6856 H   0  0  0  0  0  0  0  0  0  0  0  0
   -7.0725    4.2316   15.5809 H   0  0  0  0  0  0  0  0  0  0  0  0
   -5.7821    2.7807   14.0194 H   0  0  0  0  0  0  0  0  0  0  0  0
  1  2  1  0
  2  3  1  0
  3  4  1  0
  4  5  2  0
  5  6  1  0
  6  7  2  0
  7  8  1  0
  8  9  2  0
  9  4  1  0
  1 10  1  0
  1 11  1  0
  1 12  1  0
  2 13  1  0
  2 14  1  0
  3 15  1  0
  3 16  1  0
  5 17  1  0
  6 18  1  0
  7 19  1  0
  8 20  1  0
  9 21  1  0
M  CHG  1   1   1
M  END
>  <meeko>  (1) 
{"is_sidechain": [false], "free_energy": -4.483, "intermolecular_energy": -5.138, "internal_energy": -0.056}

$$$$
1uto_ligand
     RDKit          3D

 21 21  0  0  0  0  0  0  0  0999 V2000
   -3.0070    1.6010   12.1690 N   0  0  0  0  0  0  0  0  0  0  0  0
   -4.1660    2.4590   12.5320 C   0  0  0  0  0  0  0  0  0  0  0  0
   -3.7510    3.9290   12.5210 C   0  0  0  0  0  0  0  0  0  0  0  0
   -4.6720    4.7480   13.3830 C   0  0  0  0  0  0  0  0  0  0  0  0
   -5.6330    4.1240   14.1890 C   0  0  0  0  0  0  0  0  0  0  0  0
   -6.4640    4.8840   15.0130 C   0  0  0  0  0  0  0  0  0  0  0  0
   -6.3410    6.2720   15.0410 C   0  0  0  0  0  0  0  0  0  0  0  0
   -5.3900    6.9020   14.2420 C   0  0  0  0  0  0  0  0  0  0  0  0
   -4.5570    6.1450   13.4160 C   0  0  0  0  0  0  0  0  0  0  0  0
   -2.2330    1.7010   12.8390 H   0  0  0  0  0  0  0  0  0  0  0  0
   -2.6440    1.8250   11.2330 H   0  0  0  0  0  0  0  0  0  0  0  0
   -3.2780    0.6080   12.1610 H   0  0  0  0  0  0  0  0  0  0  0  0
   -4.9763    2.3037   11.8044 H   0  0  0  0  0  0  0  0  0  0  0  0
   -4.5134    2.1892   13.5402 H   0  0  0  0  0  0  0  0  0  0  0  0
   -2.7239    4.0171   12.9047 H   0  0  0  0  0  0  0  0  0  0  0  0
   -3.8062    4.3043   11.4885 H   0  0  0  0  0  0  0  0  0  0  0  0
   -5.7331    3.0287   14.1722 H   0  0  0  0  0  0  0  0  0  0  0  0
   -7.2175    4.3868   15.6415 H   0  0  0  0  0  0  0  0  0  0  0  0
   -6.9945    6.8694   15.6937 H   0  0  0  0  0  0  0  0  0  0  0  0
   -5.2950    7.9977   14.2618 H   0  0  0  0  0  0  0  0  0  0  0  0
   -3.8065    6.6472   12.7878 H   0  0  0  0  0  0  0  0  0  0  0  0
  1  2  1  0
  2  3  1  0
  3  4  1  0
  4  5  2  0
  5  6  1  0
  6  7  2  0
  7  8  1  0
  8  9  2  0
  9  4  1  0
  1 10  1  0
  1 11  1  0
  1 12  1  0
  2 13  1  0
  2 14  1  0
  3 15  1  0
  3 16  1  0
  5 17  1  0
  6 18  1  0
  7 19  1  0
  8 20  1  0
  9 21  1  0
M  CHG  1   1   1
M  END
>  <meeko>  (2) 
{"is_sidechain": [false], "free_energy": -4.476, "intermolecular_energy": -5.127, "internal_energy": -0.059}

$$$$
1uto_ligand
     RDKit          3D

 21 21  0  0  0  0  0  0  0  0999 V2000
   -3.5560    2.3560   12.8620 N   0  0  0  0  0  0  0  0  0  0  0  0
   -4.4100    3.5230   12.5200 C   0  0  0  0  0  0  0  0  0  0  0  0
   -3.7160    4.8180   12.9370 C   0  0  0  0  0  0  0  0  0  0  0  0
   -4.6640    5.7110   13.6890 C   0  0  0  0  0  0  0  0  0  0  0  0
   -4.5620    7.1060   13.5820 C   0  0  0  0  0  0  0  0  0  0  0  0
   -5.4630    7.9320   14.2550 C   0  0  0  0  0  0  0  0  0  0  0  0
   -6.4730    7.3750   15.0370 C   0  0  0  0  0  0  0  0  0  0  0  0
   -6.5810    5.9910   15.1510 C   0  0  0  0  0  0  0  0  0  0  0  0
   -5.6820    5.1610   14.4800 C   0  0  0  0  0  0  0  0  0  0  0  0
   -3.4440    2.2480   13.8800 H   0  0  0  0  0  0  0  0  0  0  0  0
   -2.6160    2.4350   12.4500 H   0  0  0  0  0  0  0  0  0  0  0  0
   -3.9710    1.4840   12.5070 H   0  0  0  0  0  0  0  0  0  0  0  0
   -4.5882    3.5384   11.4346 H   0  0  0  0  0  0  0  0  0  0  0  0
   -5.3679    3.4384   13.0541 H   0  0  0  0  0  0  0  0  0  0  0  0
   -2.8587    4.5765   13.5825 H   0  0  0  0  0  0  0  0  0  0  0  0
   -3.3767    5.3443   12.0327 H   0  0  0  0  0  0  0  0  0  0  0  0
   -3.7678    7.5509   12.9645 H   0  0  0  0  0  0  0  0  0  0  0  0
   -5.3758    9.0251   14.1681 H   0  0  0  0  0  0  0  0  0  0  0  0
   -7.1845    8.0278   15.5639 H   0  0  0  0  0  0  0  0  0  0  0  0
   -7.3763    5.5515   15.7710 H   0  0  0  0  0  0  0  0  0  0  0  0
   -5.7728    4.0687   14.5724 H   0  0  0  0  0  0  0  0  0  0  0  0
  1  2  1  0
  2  3  1  0
  3  4  1  0
  4  5  2  0
  5  6  1  0
  6  7  2  0
  7  8  1  0
  8  9  2  0
  9  4  1  0
  1 10  1  0
  1 11  1  0
  1 12  1  0
  2 13  1  0
  2 14  1  0
  3 15  1  0
  3 16  1  0
  5 17  1  0
  6 18  1  0
  7 19  1  0
  8 20  1  0
  9 21  1  0
M  CHG  1   1   1
M  END
>  <meeko>  (3) 
{"is_sidechain": [false], "free_energy": -4.279, "intermolecular_energy": -4.89, "internal_energy": -0.071}

$$$$
1uto_ligand
     RDKit          3D

 21 21  0  0  0  0  0  0  0  0999 V2000
   -4.5070    9.5860   12.1210 N   0  0  0  0  0  0  0  0  0  0  0  0
   -5.4900    8.7650   12.8750 C   0  0  0  0  0  0  0  0  0  0  0  0
   -4.8080    8.0960   14.0650 C   0  0  0  0  0  0  0  0  0  0  0  0
   -5.0400    6.6100   14.0460 C   0  0  0  0  0  0  0  0  0  0  0  0
   -6.0050    6.0310   14.8810 C   0  0  0  0  0  0  0  0  0  0  0  0
   -6.2420    4.6560   14.8370 C   0  0  0  0  0  0  0  0  0  0  0  0
   -5.5200    3.8500   13.9590 C   0  0  0  0  0  0  0  0  0  0  0  0
   -4.5590    4.4160   13.1260 C   0  0  0  0  0  0  0  0  0  0  0  0
   -4.3180    5.7900   13.1670 C   0  0  0  0  0  0  0  0  0  0  0  0
   -4.6810    9.5560   11.1070 H   0  0  0  0  0  0  0  0  0  0  0  0
   -3.5410    9.2720   12.2840 H   0  0  0  0  0  0  0  0  0  0  0  0
   -4.5590   10.5730   12.4090 H   0  0  0  0  0  0  0  0  0  0  0  0
   -6.3028    9.4116   13.2373 H   0  0  0  0  0  0  0  0  0  0  0  0
   -5.8981    7.9896   12.2101 H   0  0  0  0  0  0  0  0  0  0  0  0
   -3.7268    8.2930   14.0189 H   0  0  0  0  0  0  0  0  0  0  0  0
   -5.2324    8.5078   14.9925 H   0  0  0  0  0  0  0  0  0  0  0  0
   -6.5787    6.6632   15.5747 H   0  0  0  0  0  0  0  0  0  0  0  0
   -6.9999    4.2080   15.4965 H   0  0  0  0  0  0  0  0  0  0  0  0
   -5.7094    2.7670   13.9242 H   0  0  0  0  0  0  0  0  0  0  0  0
   -3.9885    3.7790   12.4341 H   0  0  0  0  0  0  0  0  0  0  0  0
   -3.5577    6.2321   12.5063 H   0  0  0  0  0  0  0  0  0  0  0  0
  1  2  1  0
  2  3  1  0
  3  4  1  0
  4  5  2  0
  5  6  1  0
  6  7  2  0
  7  8  1  0
  8  9  2  0
  9  4  1  0
  1 10  1  0
  1 11  1  0
  1 12  1  0
  2 13  1  0
  2 14  1  0
  3 15  1  0
  3 16  1  0
  5 17  1  0
  6 18  1  0
  7 19  1  0
  8 20  1  0
  9 21  1  0
M  CHG  1   1   1
M  END
>  <meeko>  (4) 
{"is_sidechain": [false], "free_energy": -4.117, "intermolecular_energy": -4.717, "internal_energy": -0.058}

$$$$
1uto_ligand
     RDKit          3D

 21 21  0  0  0  0  0  0  0  0999 V2000
   -4.9890    8.7640   16.1780 N   0  0  0  0  0  0  0  0  0  0  0  0
   -4.4610    7.4220   15.8150 C   0  0  0  0  0  0  0  0  0  0  0  0
   -4.3730    7.2880   14.2970 C   0  0  0  0  0  0  0  0  0  0  0  0
   -4.5610    5.8560   13.8770 C   0  0  0  0  0  0  0  0  0  0  0  0
   -3.7040    5.2740   12.9330 C   0  0  0  0  0  0  0  0  0  0  0  0
   -3.8600    3.9360   12.5690 C   0  0  0  0  0  0  0  0  0  0  0  0
   -4.8700    3.1680   13.1460 C   0  0  0  0  0  0  0  0  0  0  0  0
   -5.7270    3.7380   14.0840 C   0  0  0  0  0  0  0  0  0  0  0  0
   -5.5750    5.0760   14.4500 C   0  0  0  0  0  0  0  0  0  0  0  0
   -5.8220    9.0090   15.6260 H   0  0  0  0  0  0  0  0  0  0  0  0
   -4.2870    9.5030   16.0340 H   0  0  0  0  0  0  0  0  0  0  0  0
   -5.2610    8.7920   17.1700 H   0  0  0  0  0  0  0  0  0  0  0  0
   -3.4589    7.2949   16.2505 H   0  0  0  0  0  0  0  0  0  0  0  0
   -5.1390    6.6495   16.2067 H   0  0  0  0  0  0  0  0  0  0  0  0
   -5.1567    7.9057   13.8341 H   0  0  0  0  0  0  0  0  0  0  0  0
   -3.3782    7.6244   13.9697 H   0  0  0  0  0  0  0  0  0  0  0  0
   -2.9040    5.8753   12.4765 H   0  0  0  0  0  0  0  0  0  0  0  0
   -3.1850    3.4867   11.8257 H   0  0  0  0  0  0  0  0  0  0  0  0
   -4.9900    2.1125   12.8606 H   0  0  0  0  0  0  0  0  0  0  0  0
   -6.5255    3.1323   14.5374 H   0  0  0  0  0  0  0  0  0  0  0  0
   -6.2544    5.5209   15.1920 H   0  0  0  0  0  0  0  0  0  0  0  0
  1  2  1  0
  2  3  1  0
  3  4  1  0
  4  5  2  0
  5  6  1  0
  6  7  2  0
  7  8  1  0
  8  9  2  0
  9  4  1  0
  1 10  1  0
  1 11  1  0
  1 12  1  0
  2 13  1  0
  2 14  1  0
  3 15  1  0
  3 16  1  0
  5 17  1  0
  6 18  1  0
  7 19  1  0
  8 20  1  0
  9 21  1  0
M  CHG  1   1   1
M  END
>  <meeko>  (5) 
{"is_sidechain": [false], "free_energy": -3.87, "intermolecular_energy": -4.436, "internal_energy": -0.056}

$$$$
1uto_ligand
     RDKit          3D

 21 21  0  0  0  0  0  0  0  0999 V2000
   -1.8640   -5.1590   16.2890 N   0  0  0  0  0  0  0  0  0  0  0  0
   -0.6480   -5.0090   17.1300 C   0  0  0  0  0  0  0  0  0  0  0  0
    0.4000   -4.1790   16.3910 C   0  0  0  0  0  0  0  0  0  0  0  0
    0.5000   -2.7990   16.9800 C   0  0  0  0  0  0  0  0  0  0  0  0
   -0.3900   -2.3880   17.9820 C   0  0  0  0  0  0  0  0  0  0  0  0
   -0.2740   -1.1190   18.5500 C   0  0  0  0  0  0  0  0  0  0  0  0
    0.7300   -0.2520   18.1260 C   0  0  0  0  0  0  0  0  0  0  0  0
    1.6190   -0.6510   17.1310 C   0  0  0  0  0  0  0  0  0  0  0  0
    1.5070   -1.9190   16.5590 C   0  0  0  0  0  0  0  0  0  0  0  0
   -2.1800   -6.1370   16.2450 H   0  0  0  0  0  0  0  0  0  0  0  0
   -1.7050   -4.8350   15.3250 H   0  0  0  0  0  0  0  0  0  0  0  0
   -2.6420   -4.6040   16.6720 H   0  0  0  0  0  0  0  0  0  0  0  0
   -0.9154   -4.5044   18.0702 H   0  0  0  0  0  0  0  0  0  0  0  0
   -0.2333   -6.0048   17.3455 H   0  0  0  0  0  0  0  0  0  0  0  0
    1.3773   -4.6773   16.4717 H   0  0  0  0  0  0  0  0  0  0  0  0
    0.1010   -4.0915   15.3360 H   0  0  0  0  0  0  0  0  0  0  0  0
   -1.1838   -3.0694   18.3221 H   0  0  0  0  0  0  0  0  0  0  0  0
   -0.9771   -0.8026   19.3345 H   0  0  0  0  0  0  0  0  0  0  0  0
    0.8208    0.7473   18.5767 H   0  0  0  0  0  0  0  0  0  0  0  0
    2.4110    0.0346   16.7953 H   0  0  0  0  0  0  0  0  0  0  0  0
    2.2122   -2.2296   15.7740 H   0  0  0  0  0  0  0  0  0  0  0  0
  1  2  1  0
  2  3  1  0
  3  4  1  0
  4  5  2  0
  5  6  1  0
  6  7  2  0
  7  8  1  0
  8  9  2  0
  9  4  1  0
  1 10  1  0
  1 11  1  0
  1 12  1  0
  2 13  1  0
  2 14  1  0
  3 15  1  0
  3 16  1  0
  5 17  1  0
  6 18  1  0
  7 19  1  0
  8 20  1  0
  9 21  1  0
M  CHG  1   1   1
M  END
>  <meeko>  (6) 
{"is_sidechain": [false], "free_energy": -3.697, "intermolecular_energy": -4.235, "internal_energy": -0.058}

$$$$
1uto_ligand
     RDKit          3D

 21 21  0  0  0  0  0  0  0  0999 V2000
    0.3640   14.3760   15.4500 N   0  0  0  0  0  0  0  0  0  0  0  0
    1.6950   13.7190   15.5280 C   0  0  0  0  0  0  0  0  0  0  0  0
    2.7800   14.7650   15.7690 C   0  0  0  0  0  0  0  0  0  0  0  0
    3.6990   14.8630   14.5810 C   0  0  0  0  0  0  0  0  0  0  0  0
    3.6110   15.9520   13.7030 C   0  0  0  0  0  0  0  0  0  0  0  0
    4.4860   16.0570   12.6210 C   0  0  0  0  0  0  0  0  0  0  0  0
    5.4560   15.0790   12.4080 C   0  0  0  0  0  0  0  0  0  0  0  0
    5.5500   13.9930   13.2750 C   0  0  0  0  0  0  0  0  0  0  0  0
    4.6770   13.8840   14.3580 C   0  0  0  0  0  0  0  0  0  0  0  0
    0.3460   15.2660   15.9640 H   0  0  0  0  0  0  0  0  0  0  0  0
   -0.3820   13.7770   15.8310 H   0  0  0  0  0  0  0  0  0  0  0  0
    0.1160   14.5830   14.4720 H   0  0  0  0  0  0  0  0  0  0  0  0
    1.6961   12.9954   16.3565 H   0  0  0  0  0  0  0  0  0  0  0  0
    1.8978   13.2003   14.5794 H   0  0  0  0  0  0  0  0  0  0  0  0
    2.3067   15.7430   15.9408 H   0  0  0  0  0  0  0  0  0  0  0  0
    3.3697   14.4662   16.6482 H   0  0  0  0  0  0  0  0  0  0  0  0
    2.8486   16.7276   13.8676 H   0  0  0  0  0  0  0  0  0  0  0  0
    4.4101   16.9134   11.9348 H   0  0  0  0  0  0  0  0  0  0  0  0
    6.1466   15.1648   11.5561 H   0  0  0  0  0  0  0  0  0  0  0  0
    6.3139   13.2198   13.1056 H   0  0  0  0  0  0  0  0  0  0  0  0
    4.7567   13.0250   15.0405 H   0  0  0  0  0  0  0  0  0  0  0  0
  1  2  1  0
  2  3  1  0
  3  4  1  0
  4  5  2  0
  5  6  1  0
  6  7  2  0
  7  8  1  0
  8  9  2  0
  9  4  1  0
  1 10  1  0
  1 11  1  0
  1 12  1  0
  2 13  1  0
  2 14  1  0
  3 15  1  0
  3 16  1  0
  5 17  1  0
  6 18  1  0
  7 19  1  0
  8 20  1  0
  9 21  1  0
M  CHG  1   1   1
M  END
>  <meeko>  (7) 
{"is_sidechain": [false], "free_energy": -3.689, "intermolecular_energy": -4.23, "internal_energy": -0.054}

$$$$
1uto_ligand
     RDKit          3D

 21 21  0  0  0  0  0  0  0  0999 V2000
   -7.1020    8.3840   12.1500 N   0  0  0  0  0  0  0  0  0  0  0  0
   -5.8940    8.3860   13.0160 C   0  0  0  0  0  0  0  0  0  0  0  0
   -5.6470    6.9850   13.5720 C   0  0  0  0  0  0  0  0  0  0  0  0
   -5.2760    7.0480   15.0280 C   0  0  0  0  0  0  0  0  0  0  0  0
   -5.0950    8.2850   15.6630 C   0  0  0  0  0  0  0  0  0  0  0  0
   -4.7830    8.3400   17.0220 C   0  0  0  0  0  0  0  0  0  0  0  0
   -4.6530    7.1640   17.7580 C   0  0  0  0  0  0  0  0  0  0  0  0
   -4.8300    5.9310   17.1360 C   0  0  0  0  0  0  0  0  0  0  0  0
   -5.1410    5.8700   15.7770 C   0  0  0  0  0  0  0  0  0  0  0  0
   -7.8530    8.9690   12.5390 H   0  0  0  0  0  0  0  0  0  0  0  0
   -7.4780    7.4350   12.0200 H   0  0  0  0  0  0  0  0  0  0  0  0
   -6.8800    8.7540   11.2150 H   0  0  0  0  0  0  0  0  0  0  0  0
   -5.0222    8.7019   12.4243 H   0  0  0  0  0  0  0  0  0  0  0  0
   -6.0504    9.0837   13.8520 H   0  0  0  0  0  0  0  0  0  0  0  0
   -6.5619    6.3850   13.4583 H   0  0  0  0  0  0  0  0  0  0  0  0
   -4.8170    6.5252   13.0154 H   0  0  0  0  0  0  0  0  0  0  0  0
   -5.1994    9.2164   15.0872 H   0  0  0  0  0  0  0  0  0  0  0  0
   -4.6394    9.3137   17.5132 H   0  0  0  0  0  0  0  0  0  0  0  0
   -4.4106    7.2097   18.8300 H   0  0  0  0  0  0  0  0  0  0  0  0
   -4.7245    5.0030   17.7171 H   0  0  0  0  0  0  0  0  0  0  0  0
   -5.2809    4.8932   15.2909 H   0  0  0  0  0  0  0  0  0  0  0  0
  1  2  1  0
  2  3  1  0
  3  4  1  0
  4  5  2  0
  5  6  1  0
  6  7  2  0
  7  8  1  0
  8  9  2  0
  9  4  1  0
  1 10  1  0
  1 11  1  0
  1 12  1  0
  2 13  1  0
  2 14  1  0
  3 15  1  0
  3 16  1  0
  5 17  1  0
  6 18  1  0
  7 19  1  0
  8 20  1  0
  9 21  1  0
M  CHG  1   1   1
M  END
>  <meeko>  (8) 
{"is_sidechain": [false], "free_energy": -3.608, "intermolecular_energy": -4.127, "internal_energy": -0.065}

$$$$
1uto_ligand
     RDKit          3D

 21 21  0  0  0  0  0  0  0  0999 V2000
   -4.9100    9.4840   17.1720 N   0  0  0  0  0  0  0  0  0  0  0  0
   -4.7090    8.0340   16.9170 C   0  0  0  0  0  0  0  0  0  0  0  0
   -4.2080    7.8190   15.4910 C   0  0  0  0  0  0  0  0  0  0  0  0
   -4.6570    6.4830   14.9650 C   0  0  0  0  0  0  0  0  0  0  0  0
   -5.5600    5.6990   15.6960 C   0  0  0  0  0  0  0  0  0  0  0  0
   -6.0010    4.4750   15.1890 C   0  0  0  0  0  0  0  0  0  0  0  0
   -5.5480    4.0270   13.9510 C   0  0  0  0  0  0  0  0  0  0  0  0
   -4.6500    4.7990   13.2180 C   0  0  0  0  0  0  0  0  0  0  0  0
   -4.2050    6.0220   13.7200 C   0  0  0  0  0  0  0  0  0  0  0  0
   -4.2340    9.8500   17.8560 H   0  0  0  0  0  0  0  0  0  0  0  0
   -5.8560    9.6830   17.5270 H   0  0  0  0  0  0  0  0  0  0  0  0
   -4.7900   10.0270   16.3060 H   0  0  0  0  0  0  0  0  0  0  0  0
   -3.9677    7.6386   17.6270 H   0  0  0  0  0  0  0  0  0  0  0  0
   -5.6667    7.5086   17.0462 H   0  0  0  0  0  0  0  0  0  0  0  0
   -4.6072    8.6143   14.8443 H   0  0  0  0  0  0  0  0  0  0  0  0
   -3.1083    7.8460   15.4948 H   0  0  0  0  0  0  0  0  0  0  0  0
   -5.9229    6.0495   16.6735 H   0  0  0  0  0  0  0  0  0  0  0  0
   -6.7078    3.8634   15.7689 H   0  0  0  0  0  0  0  0  0  0  0  0
   -5.8992    3.0639   13.5521 H   0  0  0  0  0  0  0  0  0  0  0  0
   -4.2908    4.4435   12.2410 H   0  0  0  0  0  0  0  0  0  0  0  0
   -3.4961    6.6278   13.1365 H   0  0  0  0  0  0  0  0  0  0  0  0
  1  2  1  0
  2  3  1  0
  3  4  1  0
  4  5  2  0
  5  6  1  0
  6  7  2  0
  7  8  1  0
  8  9  2  0
  9  4  1  0
  1 10  1  0
  1 11  1  0
  1 12  1  0
  2 13  1  0
  2 14  1  0
  3 15  1  0
  3 16  1  0
  5 17  1  0
  6 18  1  0
  7 19  1  0
  8 20  1  0
  9 21  1  0
M  CHG  1   1   1
M  END
>  <meeko>  (9) 
{"is_sidechain": [false], "free_energy": -3.544, "intermolecular_energy": -4.057, "internal_energy": -0.062}

$$$$
