
     RDKit          3D

 27 28  0  0  0  0  0  0  0  0999 V2000
   26.8830    7.2220   16.2550 C   0  0  0  0  0  0  0  0  0  0  0  0
   26.7890    7.1800   14.7860 N   0  0  0  0  0  0  0  0  0  0  0  0
   27.3290    8.3430   14.1060 C   0  0  0  0  0  0  0  0  0  0  0  0
   25.5010    6.7460   14.3060 N   0  0  0  0  0  0  0  0  0  0  0  0
   24.4330    7.6520   14.2480 C   0  0  0  0  0  0  0  0  0  0  0  0
   23.5830    7.8620   15.3090 C   0  0  0  0  0  0  0  0  0  0  0  0
   22.5940    8.7760   15.0300 C   0  0  0  0  0  0  0  0  0  0  0  0
   21.5580    9.1830   15.8660 C   0  0  0  0  0  0  0  0  0  0  0  0
   20.6270    9.5180   16.5760 C   0  0  0  0  0  0  0  0  0  0  0  0
   19.5020    9.9100   17.4120 C   0  0  2  0  0  0  0  0  0  0  0  0
   19.7260    9.4190   18.8520 C   0  0  0  0  0  0  0  0  0  0  0  0
   18.2190    9.3030   16.8720 C   0  0  0  0  0  0  0  0  0  0  0  0
   19.3810   11.4260   17.4080 C   0  0  0  0  0  0  0  0  0  0  0  0
   22.7680    9.3790   13.4560 S   0  0  0  0  0  0  0  0  0  0  0  0
   24.1110    8.4200   13.1270 C   0  0  0  0  0  0  0  0  0  0  0  0
   24.7380    8.4670   11.7800 C   0  0  0  0  0  0  0  0  0  0  0  0
   24.3300    9.3650   11.0320 O   0  0  0  0  0  0  0  0  0  0  0  0
   25.5740    7.6240   11.4860 O   0  0  0  0  0  0  0  0  0  0  0  0
   25.3920    5.4330   14.0170 C   0  0  0  0  0  0  0  0  0  0  0  0
   26.3380    4.6780   14.0780 O   0  0  0  0  0  0  0  0  0  0  0  0
   24.0270    4.8800   13.6110 C   0  0  2  0  0  0  0  0  0  0  0  0
   23.4820    3.9550   14.6870 C   0  0  0  0  0  0  0  0  0  0  0  0
   22.1680    3.3950   14.2960 C   0  0  0  0  0  0  0  0  0  0  0  0
   22.1960    2.7130   12.9410 C   0  0  1  0  0  0  0  0  0  0  0  0
   20.8320    2.2310   12.5390 C   0  0  0  0  0  0  0  0  0  0  0  0
   22.7810    3.6330   11.8830 C   0  0  0  0  0  0  0  0  0  0  0  0
   24.1100    4.2000   12.2630 C   0  0  0  0  0  0  0  0  0  0  0  0
  2  1  1  0
  3  2  1  0
  4  2  1  0
  5  4  1  0
  6  5  1  0
  7  6  2  0
  8  7  1  0
  9  8  3  0
 10  9  1  0
 10 11  1  1
 12 10  1  0
 13 10  1  0
 14  7  1  0
 15 14  1  0
 15  5  2  0
 16 15  1  0
 17 16  2  0
 18 16  1  0
 19  4  1  0
 20 19  2  0
 21 19  1  1
 22 21  1  0
 23 22  1  0
 24 23  1  0
 24 25  1  6
 26 24  1  0
 27 26  1  0
 27 21  1  0
M  CHG  1  18  -1
M  END
$$$$
