
     RDKit          3D

 24 27  0  0  0  0  0  0  0  0999 V2000
   -1.8480    2.2130  -13.4500 C   0  0  0  0  0  0  0  0  0  0  0  0
   -1.5080    1.9330  -11.9760 C   0  0  1  0  0  0  0  0  0  0  0  0
   -2.6610    1.4900  -11.2920 O   0  0  0  0  0  0  0  0  0  0  0  0
   -0.4500    0.8710  -11.8600 C   0  0  0  0  0  0  0  0  0  0  0  0
   -0.3560   -0.1680  -12.6760 N   0  0  0  0  0  0  0  0  0  0  0  0
    0.6760   -0.9220  -12.2540 C   0  0  0  0  0  0  0  0  0  0  0  0
    1.1820   -2.1170  -12.7550 C   0  0  0  0  0  0  0  0  0  0  0  0
    2.2390   -2.7220  -12.1530 N   0  0  0  0  0  0  0  0  0  0  0  0
    2.7910   -2.1450  -11.0830 C   0  0  0  0  0  0  0  0  0  0  0  0
    3.8410   -2.5890  -10.3630 N   0  0  0  0  0  0  0  0  0  0  0  0
    4.0740   -1.7050   -9.3600 C   0  0  0  0  0  0  0  0  0  0  0  0
    3.1690   -0.6830   -9.4260 C   0  0  0  0  0  0  0  0  0  0  0  0
    2.3280   -0.9380  -10.5300 C   0  0  0  0  0  0  0  0  0  0  0  0
    1.2360   -0.3170  -11.1390 C   0  0  0  0  0  0  0  0  0  0  0  0
    0.4900    0.8320  -10.9030 N   0  0  0  0  0  0  0  0  0  0  0  0
    0.5940    1.8400   -9.8730 C   0  0  2  0  0  0  0  0  0  0  0  0
    1.7960    2.7360  -10.0600 C   0  0  0  0  0  0  0  0  0  0  0  0
    1.7940    3.8590   -9.0550 C   0  0  0  0  0  0  0  0  0  0  0  0
    1.7500    3.3340   -7.6320 C   0  0  1  0  0  0  0  0  0  0  0  0
    1.7160    4.4670   -6.6350 C   0  0  0  0  0  0  0  0  0  0  0  0
    2.7530    5.4880   -6.8530 C   0  0  0  0  0  0  0  0  0  0  0  0
    3.5690    6.2790   -7.0500 N   0  0  0  0  0  0  0  0  0  0  0  0
    0.5480    2.4140   -7.4440 C   0  0  0  0  0  0  0  0  0  0  0  0
    0.5270    1.2810   -8.4630 C   0  0  0  0  0  0  0  0  0  0  0  0
  2  1  1  6
  3  2  1  0
  4  2  1  0
  5  4  2  0
  6  5  1  0
  7  6  1  0
  8  7  2  0
  9  8  1  0
 10  9  1  0
 11 10  1  0
 12 11  2  0
 13  9  2  0
 13 12  1  0
 14  6  2  0
 14 13  1  0
 15 14  1  0
 15  4  1  0
 16 15  1  6
 17 16  1  0
 18 17  1  0
 19 18  1  0
 19 20  1  1
 21 20  1  0
 22 21  3  0
 23 19  1  0
 24 23  1  0
 24 16  1  0
M  END
$$$$
