
     RDKit          3D

 36 41  0  0  0  0  0  0  0  0999 V2000
   -6.4090   -0.2330   -6.8520 C   0  0  0  0  0  0  0  0  0  0  0  0
   -7.8880   -0.5230   -6.7740 C   0  0  1  0  0  0  0  0  0  0  0  0
   -8.2070   -1.9360   -7.1400 C   0  0  0  0  0  0  0  0  0  0  0  0
   -9.2910   -2.5540   -6.3240 C   0  0  0  0  0  0  0  0  0  0  0  0
   -9.7130   -3.8150   -6.4100 N   0  0  0  0  0  0  0  0  0  0  0  0
  -10.7030   -3.9650   -5.5030 N   0  0  0  0  0  0  0  0  0  0  0  0
  -10.9170   -2.8080   -4.8530 C   0  0  0  0  0  0  0  0  0  0  0  0
  -11.9290   -2.5890   -3.8100 C   0  0  0  0  0  0  0  0  0  0  0  0
  -12.1230   -1.4700   -3.3480 O   0  0  0  0  0  0  0  0  0  0  0  0
  -12.6400   -3.6790   -3.3830 N   0  0  0  0  0  0  0  0  0  0  0  0
  -13.6490   -3.6250   -2.4200 C   0  0  0  0  0  0  0  0  0  0  0  0
  -14.1700   -2.5340   -1.7420 C   0  0  0  0  0  0  0  0  0  0  0  0
  -15.1180   -2.9430   -0.9220 N   0  0  0  0  0  0  0  0  0  0  0  0
  -15.2250   -4.2730   -1.0560 N   0  0  0  0  0  0  0  0  0  0  0  0
  -16.2020   -5.0700   -0.3280 C   0  0  2  0  0  0  0  0  0  0  0  0
  -17.2100   -5.5050   -1.3690 C   0  0  0  0  0  0  0  0  0  0  0  0
  -17.4580   -6.8680   -1.5790 C   0  0  0  0  0  0  0  0  0  0  0  0
  -18.3800   -7.3000   -2.5270 C   0  0  0  0  0  0  0  0  0  0  0  0
  -19.0750   -6.3520   -3.2920 C   0  0  0  0  0  0  0  0  0  0  0  0
  -18.8220   -5.0020   -3.1120 C   0  0  0  0  0  0  0  0  0  0  0  0
  -17.8920   -4.5830   -2.1590 C   0  0  0  0  0  0  0  0  0  0  0  0
  -16.8230   -4.2300    0.8460 C   0  0  1  0  0  0  0  0  0  0  0  0
  -18.0830   -4.7950    1.3730 C   0  0  0  0  0  0  0  0  0  0  0  0
  -18.0120   -5.9060    2.4120 C   0  0  0  0  0  0  0  0  0  0  0  0
  -17.2040   -5.5560    3.6440 C   0  0  0  0  0  0  0  0  0  0  0  0
  -15.8210   -5.3380    3.2180 C   0  0  0  0  0  0  0  0  0  0  0  0
  -15.7100   -3.9600    2.1820 S   0  0  1  0  0  0  0  0  0  0  0  0
  -14.3820   -3.8320    1.6950 O   0  0  0  0  0  0  0  0  0  0  0  0
  -16.1490   -2.7820    2.9350 O   0  0  0  0  0  0  0  0  0  0  0  0
  -14.3390   -4.7410   -1.9740 C   0  0  0  0  0  0  0  0  0  0  0  0
  -10.0240   -1.8680   -5.3540 C   0  0  0  0  0  0  0  0  0  0  0  0
   -9.7920   -0.4170   -5.0320 C   0  0  0  0  0  0  0  0  0  0  0  0
   -8.6600    0.1880   -5.7380 C   0  0  2  0  0  0  0  0  0  0  0  0
   -8.7790    0.6080   -7.1580 C   0  0  1  0  0  0  0  0  0  0  0  0
   -8.2010    1.7400   -7.3850 F   0  0  0  0  0  0  0  0  0  0  0  0
   -9.7520    0.2900   -7.8780 F   0  0  0  0  0  0  0  0  0  0  0  0
  2  1  1  1
  3  2  1  0
  4  3  1  0
  5  4  2  0
  6  5  1  0
  7  6  1  0
  8  7  1  0
  9  8  2  0
 10  8  1  0
 11 10  1  0
 12 11  1  0
 13 12  2  0
 14 13  1  0
 15 14  1  6
 16 15  1  0
 17 16  2  0
 18 17  1  0
 19 18  2  0
 20 19  1  0
 21 16  1  0
 21 20  2  0
 22 15  1  0
 22 23  1  1
 24 23  1  0
 25 24  1  0
 26 25  1  0
 27 22  1  0
 27 26  1  1
 28 27  2  0
 29 27  2  0
 30 14  1  0
 30 11  2  0
 31  7  2  0
 31  4  1  0
 32 31  1  0
 33  2  1  0
 33 32  1  6
 34 33  1  0
 34  2  1  0
 34 35  1  1
 36 34  1  0
M  END
$$$$
