4f2w_ligand
     RDKit          3D

 40 42  0  0  0  0  0  0  0  0999 V2000
    8.1520   -5.6440  -13.8760 C   0  0  0  0  0  0  0  0  0  0  0  0
    8.9680   -5.5980  -12.2590 S   0  0  0  0  0  0  0  0  0  0  0  0
    8.8580   -7.3560  -11.8080 C   0  0  0  0  0  0  0  0  0  0  0  0
    7.4110   -7.8590  -11.6990 C   0  0  1  0  0  0  0  0  0  0  0  0
    7.3980   -9.3350  -11.2740 C   0  0  0  0  0  0  0  0  0  0  0  0
    7.1050   -9.3350   -9.7860 N   0  0  1  0  0  0  0  0  0  0  0  0
    7.9000  -10.2790   -8.9350 C   0  0  0  0  0  0  0  0  0  0  0  0
    9.3330  -10.4390   -9.2960 C   0  0  0  0  0  0  0  0  0  0  0  0
    9.8760  -11.2040  -10.3180 C   0  0  0  0  0  0  0  0  0  0  0  0
   11.2430  -11.0500  -10.2960 N   0  0  0  0  0  0  0  0  0  0  0  0
   11.5950  -10.1820   -9.2950 C   0  0  0  0  0  0  0  0  0  0  0  0
   12.8180   -9.7060   -8.8550 C   0  0  0  0  0  0  0  0  0  0  0  0
   14.0300  -10.0450   -9.4290 N   0  0  0  0  0  0  0  0  0  0  0  0
   12.8180   -8.8690   -7.8080 N   0  0  0  0  0  0  0  0  0  0  0  0
   11.6400   -8.5290   -7.2550 C   0  0  0  0  0  0  0  0  0  0  0  0
   10.4100   -8.9450   -7.6090 N   0  0  0  0  0  0  0  0  0  0  0  0
   10.4280   -9.7900   -8.6610 C   0  0  0  0  0  0  0  0  0  0  0  0
    7.0400   -7.8920   -9.3350 C   0  0  0  0  0  0  0  0  0  0  0  0
    6.5740   -7.1900  -10.6070 C   0  0  2  0  0  0  0  0  0  0  0  0
    5.1970   -7.5290  -10.8210 O   0  0  0  0  0  0  0  0  0  0  0  0
    7.0628   -5.7054  -13.7354 H   0  0  0  0  0  0  0  0  0  0  0  0
    8.3984   -4.7305  -14.4372 H   0  0  0  0  0  0  0  0  0  0  0  0
    8.4995   -6.5240  -14.4372 H   0  0  0  0  0  0  0  0  0  0  0  0
    9.3778   -7.9479  -12.5758 H   0  0  0  0  0  0  0  0  0  0  0  0
    9.3214   -7.4707  -10.8170 H   0  0  0  0  0  0  0  0  0  0  0  0
    6.9926   -7.6468  -12.6940 H   0  0  0  0  0  0  0  0  0  0  0  0
    6.6151   -9.8833  -11.8184 H   0  0  0  0  0  0  0  0  0  0  0  0
    8.3552   -9.8288  -11.4977 H   0  0  0  0  0  0  0  0  0  0  0  0
    6.1250   -9.6500   -9.7240 H   0  0  0  0  0  0  0  0  0  0  0  0
    7.8536   -9.9160   -7.8977 H   0  0  0  0  0  0  0  0  0  0  0  0
    7.4451  -11.2687   -9.0889 H   0  0  0  0  0  0  0  0  0  0  0  0
    9.3099  -11.8276  -11.0256 H   0  0  0  0  0  0  0  0  0  0  0  0
   11.9030  -11.5070  -10.9140 H   0  0  0  0  0  0  0  0  0  0  0  0
   14.5510  -10.6490   -8.7980 H   0  0  0  0  0  0  0  0  0  0  0  0
   14.5720   -9.2740   -9.7920 H   0  0  0  0  0  0  0  0  0  0  0  0
   11.6877   -7.8254   -6.4108 H   0  0  0  0  0  0  0  0  0  0  0  0
    6.3170   -7.7601   -8.5165 H   0  0  0  0  0  0  0  0  0  0  0  0
    7.9893   -7.5064   -8.9349 H   0  0  0  0  0  0  0  0  0  0  0  0
    6.6779   -6.0953  -10.5787 H   0  0  0  0  0  0  0  0  0  0  0  0
    5.0280   -8.3790  -10.3680 H   0  0  0  0  0  0  0  0  0  0  0  0
  1  2  1  0
  2  3  1  0
  3  4  1  0
  4  5  1  0
  5  6  1  0
  6  7  1  0
  7  8  1  0
  8  9  2  0
  9 10  1  0
 10 11  1  0
 11 12  2  0
 12 13  1  0
 12 14  1  0
 14 15  2  0
 15 16  1  0
 16 17  2  0
  6 18  1  0
 18 19  1  0
 19 20  1  0
 19  4  1  0
 17  8  1  0
 17 11  1  0
  1 21  1  0
  1 22  1  0
  1 23  1  0
  3 24  1  0
  3 25  1  0
  4 26  1  6
  5 27  1  0
  5 28  1  0
  6 29  1  6
  7 30  1  0
  7 31  1  0
  9 32  1  0
 10 33  1  0
 13 34  1  0
 13 35  1  0
 15 36  1  0
 18 37  1  0
 18 38  1  0
 19 39  1  1
 20 40  1  0
M  CHG  1   6   1
M  END
>  <meeko>  (1) 
{"is_sidechain": [false], "free_energy": -8.041, "intermolecular_energy": -10.392, "internal_energy": -0.387}

$$$$
4f2w_ligand
     RDKit          3D

 40 42  0  0  0  0  0  0  0  0999 V2000
    3.7830   -4.6430  -16.7600 C   0  0  0  0  0  0  0  0  0  0  0  0
    4.9640   -3.6170  -17.6750 S   0  0  0  0  0  0  0  0  0  0  0  0
    6.0790   -3.1450  -16.3180 C   0  0  0  0  0  0  0  0  0  0  0  0
    7.4750   -3.7750  -16.4410 C   0  0  1  0  0  0  0  0  0  0  0  0
    8.1920   -3.7300  -15.0830 C   0  0  0  0  0  0  0  0  0  0  0  0
    8.0390   -5.1170  -14.4890 N   0  0  1  0  0  0  0  0  0  0  0  0
    7.7130   -5.1980  -13.0280 C   0  0  0  0  0  0  0  0  0  0  0  0
    8.0260   -6.4870  -12.3570 C   0  0  0  0  0  0  0  0  0  0  0  0
    9.2430   -7.1490  -12.3040 C   0  0  0  0  0  0  0  0  0  0  0  0
    9.0810   -8.3000  -11.5680 N   0  0  0  0  0  0  0  0  0  0  0  0
    7.7870   -8.3850  -11.1230 C   0  0  0  0  0  0  0  0  0  0  0  0
    7.1180   -9.3310  -10.3640 C   0  0  0  0  0  0  0  0  0  0  0  0
    7.7130  -10.4680   -9.8500 N   0  0  0  0  0  0  0  0  0  0  0  0
    5.8160   -9.1230  -10.1220 N   0  0  0  0  0  0  0  0  0  0  0  0
    5.2390   -8.0110  -10.6110 C   0  0  0  0  0  0  0  0  0  0  0  0
    5.8040   -7.0470  -11.3600 N   0  0  0  0  0  0  0  0  0  0  0  0
    7.1130   -7.2730  -11.5990 C   0  0  0  0  0  0  0  0  0  0  0  0
    7.1740   -5.9240  -15.4320 C   0  0  0  0  0  0  0  0  0  0  0  0
    7.4830   -5.2670  -16.7740 C   0  0  2  0  0  0  0  0  0  0  0  0
    8.8160   -5.6390  -17.1530 O   0  0  0  0  0  0  0  0  0  0  0  0
    3.9393   -4.5072  -15.6797 H   0  0  0  0  0  0  0  0  0  0  0  0
    2.7574   -4.3443  -17.0225 H   0  0  0  0  0  0  0  0  0  0  0  0
    3.9355   -5.7003  -17.0225 H   0  0  0  0  0  0  0  0  0  0  0  0
    6.1873   -2.0503  -16.3180 H   0  0  0  0  0  0  0  0  0  0  0  0
    5.6330   -3.5137  -15.3825 H   0  0  0  0  0  0  0  0  0  0  0  0
    7.9470   -3.1948  -17.2476 H   0  0  0  0  0  0  0  0  0  0  0  0
    9.2561   -3.4870  -15.2195 H   0  0  0  0  0  0  0  0  0  0  0  0
    7.7653   -2.9585  -14.4252 H   0  0  0  0  0  0  0  0  0  0  0  0
    8.9720   -5.5400  -14.5970 H   0  0  0  0  0  0  0  0  0  0  0  0
    8.2772   -4.4061  -12.5137 H   0  0  0  0  0  0  0  0  0  0  0  0
    6.6202   -5.0898  -12.9634 H   0  0  0  0  0  0  0  0  0  0  0  0
   10.1797   -6.8111  -12.7714 H   0  0  0  0  0  0  0  0  0  0  0  0
    9.7960   -8.9920  -11.3810 H   0  0  0  0  0  0  0  0  0  0  0  0
    7.2600  -11.2950  -10.2330 H   0  0  0  0  0  0  0  0  0  0  0  0
    7.8140  -10.4910   -8.8450 H   0  0  0  0  0  0  0  0  0  0  0  0
    4.1749   -7.8728  -10.3689 H   0  0  0  0  0  0  0  0  0  0  0  0
    7.4611   -6.9859  -15.4299 H   0  0  0  0  0  0  0  0  0  0  0  0
    6.1058   -5.9226  -15.1696 H   0  0  0  0  0  0  0  0  0  0  0  0
    6.7862   -5.5434  -17.5790 H   0  0  0  0  0  0  0  0  0  0  0  0
    9.4110   -5.3940  -16.4160 H   0  0  0  0  0  0  0  0  0  0  0  0
  1  2  1  0
  2  3  1  0
  3  4  1  0
  4  5  1  0
  5  6  1  0
  6  7  1  0
  7  8  1  0
  8  9  2  0
  9 10  1  0
 10 11  1  0
 11 12  2  0
 12 13  1  0
 12 14  1  0
 14 15  2  0
 15 16  1  0
 16 17  2  0
  6 18  1  0
 18 19  1  0
 19 20  1  0
 19  4  1  0
 17  8  1  0
 17 11  1  0
  1 21  1  0
  1 22  1  0
  1 23  1  0
  3 24  1  0
  3 25  1  0
  4 26  1  6
  5 27  1  0
  5 28  1  0
  6 29  1  1
  7 30  1  0
  7 31  1  0
  9 32  1  0
 10 33  1  0
 13 34  1  0
 13 35  1  0
 15 36  1  0
 18 37  1  0
 18 38  1  0
 19 39  1  6
 20 40  1  0
M  CHG  1   6   1
M  END
>  <meeko>  (2) 
{"is_sidechain": [false], "free_energy": -6.091, "intermolecular_energy": -7.781, "internal_energy": -0.477}

$$$$
4f2w_ligand
     RDKit          3D

 40 42  0  0  0  0  0  0  0  0999 V2000
   -1.3830   -1.2330  -18.0900 C   0  0  0  0  0  0  0  0  0  0  0  0
    0.1850   -0.7860  -17.2990 S   0  0  0  0  0  0  0  0  0  0  0  0
    0.8630   -2.4460  -16.9960 C   0  0  0  0  0  0  0  0  0  0  0  0
    0.9210   -2.8080  -15.5040 C   0  0  1  0  0  0  0  0  0  0  0  0
    0.0930   -1.8040  -14.6880 C   0  0  0  0  0  0  0  0  0  0  0  0
   -1.2320   -2.4880  -14.4100 N   0  0  1  0  0  0  0  0  0  0  0  0
   -2.4700   -1.6560  -14.5520 C   0  0  0  0  0  0  0  0  0  0  0  0
   -2.3850   -0.2610  -14.0450 C   0  0  0  0  0  0  0  0  0  0  0  0
   -2.4820    0.9180  -14.7690 C   0  0  0  0  0  0  0  0  0  0  0  0
   -2.3590    1.9740  -13.8970 N   0  0  0  0  0  0  0  0  0  0  0  0
   -2.2070    1.5040  -12.6190 C   0  0  0  0  0  0  0  0  0  0  0  0
   -2.0380    2.1400  -11.4010 C   0  0  0  0  0  0  0  0  0  0  0  0
   -2.0130    3.5130  -11.2440 N   0  0  0  0  0  0  0  0  0  0  0  0
   -1.8880    1.3680  -10.3140 N   0  0  0  0  0  0  0  0  0  0  0  0
   -1.9240    0.0320  -10.4620 C   0  0  0  0  0  0  0  0  0  0  0  0
   -2.0750   -0.6690  -11.6000 N   0  0  0  0  0  0  0  0  0  0  0  0
   -2.2200    0.1210  -12.6850 C   0  0  0  0  0  0  0  0  0  0  0  0
   -1.2140   -3.8210  -15.1250 C   0  0  0  0  0  0  0  0  0  0  0  0
    0.2770   -4.1460  -15.1380 C   0  0  2  0  0  0  0  0  0  0  0  0
    0.6690   -4.4860  -13.8010 O   0  0  0  0  0  0  0  0  0  0  0  0
   -2.1356   -1.4475  -17.3170 H   0  0  0  0  0  0  0  0  0  0  0  0
   -1.7288   -0.3977  -18.7166 H   0  0  0  0  0  0  0  0  0  0  0  0
   -1.2364   -2.1251  -18.7166 H   0  0  0  0  0  0  0  0  0  0  0  0
    0.2291   -3.1828  -17.5110 H   0  0  0  0  0  0  0  0  0  0  0  0
    1.8950   -2.4543  -17.3768 H   0  0  0  0  0  0  0  0  0  0  0  0
    1.9993   -2.8235  -15.2873 H   0  0  0  0  0  0  0  0  0  0  0  0
    0.6048   -1.5631  -13.7446 H   0  0  0  0  0  0  0  0  0  0  0  0
   -0.0466   -0.8584  -15.2323 H   0  0  0  0  0  0  0  0  0  0  0  0
   -1.1750   -2.7490  -13.4150 H   0  0  0  0  0  0  0  0  0  0  0  0
   -2.7223   -1.6095  -15.6217 H   0  0  0  0  0  0  0  0  0  0  0  0
   -3.2298   -2.1500  -13.9286 H   0  0  0  0  0  0  0  0  0  0  0  0
   -2.6319    0.9952  -15.8560 H   0  0  0  0  0  0  0  0  0  0  0  0
   -2.3690    2.9560  -14.1470 H   0  0  0  0  0  0  0  0  0  0  0  0
   -1.0510    3.8430  -11.2640 H   0  0  0  0  0  0  0  0  0  0  0  0
   -2.5500    3.8740  -10.4680 H   0  0  0  0  0  0  0  0  0  0  0  0
   -1.8170   -0.5594   -9.5407 H   0  0  0  0  0  0  0  0  0  0  0  0
   -1.7850   -4.5807  -14.5711 H   0  0  0  0  0  0  0  0  0  0  0  0
   -1.6743   -3.7979  -16.1238 H   0  0  0  0  0  0  0  0  0  0  0  0
    0.5501   -4.9682  -15.8159 H   0  0  0  0  0  0  0  0  0  0  0  0
    1.6430   -4.4160  -13.7520 H   0  0  0  0  0  0  0  0  0  0  0  0
  1  2  1  0
  2  3  1  0
  3  4  1  0
  4  5  1  0
  5  6  1  0
  6  7  1  0
  7  8  1  0
  8  9  2  0
  9 10  1  0
 10 11  1  0
 11 12  2  0
 12 13  1  0
 12 14  1  0
 14 15  2  0
 15 16  1  0
 16 17  2  0
  6 18  1  0
 18 19  1  0
 19 20  1  0
 19  4  1  0
 17  8  1  0
 17 11  1  0
  1 21  1  0
  1 22  1  0
  1 23  1  0
  3 24  1  0
  3 25  1  0
  4 26  1  1
  5 27  1  0
  5 28  1  0
  6 29  1  1
  7 30  1  0
  7 31  1  0
  9 32  1  0
 10 33  1  0
 13 34  1  0
 13 35  1  0
 15 36  1  0
 18 37  1  0
 18 38  1  0
 19 39  1  6
 20 40  1  0
M  CHG  1   6   1
M  END
>  <meeko>  (3) 
{"is_sidechain": [false], "free_energy": -5.584, "intermolecular_energy": -6.755, "internal_energy": -0.848}

$$$$
4f2w_ligand
     RDKit          3D

 40 42  0  0  0  0  0  0  0  0999 V2000
    6.3820   -6.2490  -19.5290 C   0  0  0  0  0  0  0  0  0  0  0  0
    7.8460   -7.0470  -18.8170 S   0  0  0  0  0  0  0  0  0  0  0  0
    8.4100   -5.7220  -17.7060 C   0  0  0  0  0  0  0  0  0  0  0  0
    7.2830   -5.1520  -16.8310 C   0  0  1  0  0  0  0  0  0  0  0  0
    7.0630   -6.0530  -15.6060 C   0  0  0  0  0  0  0  0  0  0  0  0
    7.7810   -5.3710  -14.4570 N   0  0  1  0  0  0  0  0  0  0  0  0
    8.5730   -6.2460  -13.5340 C   0  0  0  0  0  0  0  0  0  0  0  0
    7.8750   -6.7060  -12.3050 C   0  0  0  0  0  0  0  0  0  0  0  0
    6.6800   -6.2410  -11.7770 C   0  0  0  0  0  0  0  0  0  0  0  0
    6.4000   -6.9580  -10.6370 N   0  0  0  0  0  0  0  0  0  0  0  0
    7.3790   -7.8950  -10.4280 C   0  0  0  0  0  0  0  0  0  0  0  0
    7.5700   -8.8440   -9.4390 C   0  0  0  0  0  0  0  0  0  0  0  0
    6.6980   -9.0480   -8.3850 N   0  0  0  0  0  0  0  0  0  0  0  0
    8.6720   -9.6050   -9.5150 N   0  0  0  0  0  0  0  0  0  0  0  0
    9.5160   -9.4170  -10.5450 C   0  0  0  0  0  0  0  0  0  0  0  0
    9.4150   -8.5190  -11.5420 N   0  0  0  0  0  0  0  0  0  0  0  0
    8.3040   -7.7580  -11.4490 C   0  0  0  0  0  0  0  0  0  0  0  0
    8.4800   -4.1520  -15.0160 C   0  0  0  0  0  0  0  0  0  0  0  0
    7.5820   -3.7930  -16.1960 C   0  0  2  0  0  0  0  0  0  0  0  0
    6.3570   -3.2580  -15.6750 O   0  0  0  0  0  0  0  0  0  0  0  0
    5.7283   -5.8927  -18.7192 H   0  0  0  0  0  0  0  0  0  0  0  0
    6.6946   -5.3965  -20.1499 H   0  0  0  0  0  0  0  0  0  0  0  0
    5.8349   -6.9737  -20.1499 H   0  0  0  0  0  0  0  0  0  0  0  0
    9.1941   -6.1258  -17.0486 H   0  0  0  0  0  0  0  0  0  0  0  0
    8.7845   -4.9016  -18.3358 H   0  0  0  0  0  0  0  0  0  0  0  0
    6.4336   -5.0775  -17.5260 H   0  0  0  0  0  0  0  0  0  0  0  0
    5.9891   -6.1449  -15.3860 H   0  0  0  0  0  0  0  0  0  0  0  0
    7.4469   -7.0696  -15.7770 H   0  0  0  0  0  0  0  0  0  0  0  0
    7.0200   -4.9710  -13.8880 H   0  0  0  0  0  0  0  0  0  0  0  0
    8.8805   -7.1383  -14.0991 H   0  0  0  0  0  0  0  0  0  0  0  0
    9.4081   -5.6225  -13.1820 H   0  0  0  0  0  0  0  0  0  0  0  0
    6.0609   -5.4353  -12.1984 H   0  0  0  0  0  0  0  0  0  0  0  0
    5.6010   -6.8220  -10.0300 H   0  0  0  0  0  0  0  0  0  0  0  0
    6.4370  -10.0310   -8.3420 H   0  0  0  0  0  0  0  0  0  0  0  0
    5.9110   -8.4170   -8.3410 H   0  0  0  0  0  0  0  0  0  0  0  0
   10.3953  -10.0772  -10.5762 H   0  0  0  0  0  0  0  0  0  0  0  0
    8.5166   -3.3373  -14.2778 H   0  0  0  0  0  0  0  0  0  0  0  0
    9.5303   -4.3274  -15.2919 H   0  0  0  0  0  0  0  0  0  0  0  0
    8.0271   -3.0676  -16.8929 H   0  0  0  0  0  0  0  0  0  0  0  0
    6.4030   -3.3140  -14.6990 H   0  0  0  0  0  0  0  0  0  0  0  0
  1  2  1  0
  2  3  1  0
  3  4  1  0
  4  5  1  0
  5  6  1  0
  6  7  1  0
  7  8  1  0
  8  9  2  0
  9 10  1  0
 10 11  1  0
 11 12  2  0
 12 13  1  0
 12 14  1  0
 14 15  2  0
 15 16  1  0
 16 17  2  0
  6 18  1  0
 18 19  1  0
 19 20  1  0
 19  4  1  0
 17  8  1  0
 17 11  1  0
  1 21  1  0
  1 22  1  0
  1 23  1  0
  3 24  1  0
  3 25  1  0
  4 26  1  6
  5 27  1  0
  5 28  1  0
  6 29  1  1
  7 30  1  0
  7 31  1  0
  9 32  1  0
 10 33  1  0
 13 34  1  0
 13 35  1  0
 15 36  1  0
 18 37  1  0
 18 38  1  0
 19 39  1  6
 20 40  1  0
M  CHG  1   6   1
M  END
>  <meeko>  (4) 
{"is_sidechain": [false], "free_energy": -5.544, "intermolecular_energy": -7.189, "internal_energy": -0.363}

$$$$
4f2w_ligand
     RDKit          3D

 40 42  0  0  0  0  0  0  0  0999 V2000
   14.9400    1.3580   -0.3530 C   0  0  0  0  0  0  0  0  0  0  0  0
   14.5250   -0.0380   -1.4320 S   0  0  0  0  0  0  0  0  0  0  0  0
   15.3270   -1.3870   -0.5120 C   0  0  0  0  0  0  0  0  0  0  0  0
   15.6020   -2.6250   -1.3790 C   0  0  1  0  0  0  0  0  0  0  0  0
   16.3990   -2.2230   -2.6300 C   0  0  0  0  0  0  0  0  0  0  0  0
   17.8420   -2.5820   -2.3340 N   0  0  1  0  0  0  0  0  0  0  0  0
   18.8880   -1.5900   -2.7440 C   0  0  0  0  0  0  0  0  0  0  0  0
   18.8910   -1.1940   -4.1770 C   0  0  0  0  0  0  0  0  0  0  0  0
   19.0380    0.0780   -4.7110 C   0  0  0  0  0  0  0  0  0  0  0  0
   18.9910   -0.0190   -6.0820 N   0  0  0  0  0  0  0  0  0  0  0  0
   18.8390   -1.3320   -6.4490 C   0  0  0  0  0  0  0  0  0  0  0  0
   18.7310   -1.9540   -7.6810 C   0  0  0  0  0  0  0  0  0  0  0  0
   18.7850   -1.2860   -8.8900 N   0  0  0  0  0  0  0  0  0  0  0  0
   18.5600   -3.2840   -7.6910 N   0  0  0  0  0  0  0  0  0  0  0  0
   18.5190   -3.9370   -6.5160 C   0  0  0  0  0  0  0  0  0  0  0  0
   18.6080   -3.4180   -5.2780 N   0  0  0  0  0  0  0  0  0  0  0  0
   18.7750   -2.0790   -5.2840 C   0  0  0  0  0  0  0  0  0  0  0  0
   17.9020   -3.0950   -0.9120 C   0  0  0  0  0  0  0  0  0  0  0  0
   16.5030   -3.6790   -0.7340 C   0  0  2  0  0  0  0  0  0  0  0  0
   16.4220   -4.8810   -1.5130 O   0  0  0  0  0  0  0  0  0  0  0  0
   14.8480    1.0486    0.6986 H   0  0  0  0  0  0  0  0  0  0  0  0
   15.9728    1.6804   -0.5514 H   0  0  0  0  0  0  0  0  0  0  0  0
   14.2510    2.1922   -0.5514 H   0  0  0  0  0  0  0  0  0  0  0  0
   16.2838   -1.0188   -0.1133 H   0  0  0  0  0  0  0  0  0  0  0  0
   14.6385   -1.6932    0.2894 H   0  0  0  0  0  0  0  0  0  0  0  0
   14.5979   -3.0339   -1.5651 H   0  0  0  0  0  0  0  0  0  0  0  0
   16.0387   -2.7783   -3.5085 H   0  0  0  0  0  0  0  0  0  0  0  0
   16.2863   -1.1521   -2.8548 H   0  0  0  0  0  0  0  0  0  0  0  0
   18.0110   -3.4260   -2.9010 H   0  0  0  0  0  0  0  0  0  0  0  0
   18.7405   -0.6796   -2.1445 H   0  0  0  0  0  0  0  0  0  0  0  0
   19.8521   -2.0920   -2.5752 H   0  0  0  0  0  0  0  0  0  0  0  0
   19.1697    1.0062   -4.1356 H   0  0  0  0  0  0  0  0  0  0  0  0
   19.0510    0.7530   -6.7360 H   0  0  0  0  0  0  0  0  0  0  0  0
   18.1280   -0.5090   -8.8820 H   0  0  0  0  0  0  0  0  0  0  0  0
   18.7170   -1.8670   -9.7130 H   0  0  0  0  0  0  0  0  0  0  0  0
   18.3979   -5.0288   -6.5743 H   0  0  0  0  0  0  0  0  0  0  0  0
   18.6766   -3.8675   -0.7968 H   0  0  0  0  0  0  0  0  0  0  0  0
   18.1621   -2.3253   -0.1704 H   0  0  0  0  0  0  0  0  0  0  0  0
   16.2414   -3.9049    0.3103 H   0  0  0  0  0  0  0  0  0  0  0  0
   17.1150   -5.4910   -1.1870 H   0  0  0  0  0  0  0  0  0  0  0  0
  1  2  1  0
  2  3  1  0
  3  4  1  0
  4  5  1  0
  5  6  1  0
  6  7  1  0
  7  8  1  0
  8  9  2  0
  9 10  1  0
 10 11  1  0
 11 12  2  0
 12 13  1  0
 12 14  1  0
 14 15  2  0
 15 16  1  0
 16 17  2  0
  6 18  1  0
 18 19  1  0
 19 20  1  0
 19  4  1  0
 17  8  1  0
 17 11  1  0
  1 21  1  0
  1 22  1  0
  1 23  1  0
  3 24  1  0
  3 25  1  0
  4 26  1  6
  5 27  1  0
  5 28  1  0
  6 29  1  6
  7 30  1  0
  7 31  1  0
  9 32  1  0
 10 33  1  0
 13 34  1  0
 13 35  1  0
 15 36  1  0
 18 37  1  0
 18 38  1  0
 19 39  1  1
 20 40  1  0
M  CHG  1   6   1
M  END
>  <meeko>  (5) 
{"is_sidechain": [false], "free_energy": -5.513, "intermolecular_energy": -6.875, "internal_energy": -0.636}

$$$$
4f2w_ligand
     RDKit          3D

 40 42  0  0  0  0  0  0  0  0999 V2000
   -1.6590   -3.2350  -17.3750 C   0  0  0  0  0  0  0  0  0  0  0  0
   -1.2050   -4.5520  -16.2150 S   0  0  0  0  0  0  0  0  0  0  0  0
   -1.2400   -3.6140  -14.6570 C   0  0  0  0  0  0  0  0  0  0  0  0
    0.1580   -3.3890  -14.0600 C   0  0  1  0  0  0  0  0  0  0  0  0
    1.2340   -3.8510  -15.0550 C   0  0  0  0  0  0  0  0  0  0  0  0
    1.7390   -2.5920  -15.7330 N   0  0  1  0  0  0  0  0  0  0  0  0
    1.9630   -2.6590  -17.2130 C   0  0  0  0  0  0  0  0  0  0  0  0
    2.5300   -3.9310  -17.7340 C   0  0  0  0  0  0  0  0  0  0  0  0
    1.9330   -4.8440  -18.5910 C   0  0  0  0  0  0  0  0  0  0  0  0
    2.8210   -5.8700  -18.8190 N   0  0  0  0  0  0  0  0  0  0  0  0
    3.9900   -5.6290  -18.1440 C   0  0  0  0  0  0  0  0  0  0  0  0
    5.1730   -6.3400  -18.0370 C   0  0  0  0  0  0  0  0  0  0  0  0
    5.4130   -7.5400  -18.6800 N   0  0  0  0  0  0  0  0  0  0  0  0
    6.1360   -5.8270  -17.2570 N   0  0  0  0  0  0  0  0  0  0  0  0
    5.9090   -4.6540  -16.6400 C   0  0  0  0  0  0  0  0  0  0  0  0
    4.7940   -3.9010  -16.6800 N   0  0  0  0  0  0  0  0  0  0  0  0
    3.8340   -4.4320  -17.4650 C   0  0  0  0  0  0  0  0  0  0  0  0
    0.9150   -1.4340  -15.2150 C   0  0  0  0  0  0  0  0  0  0  0  0
    0.5300   -1.9250  -13.8220 C   0  0  2  0  0  0  0  0  0  0  0  0
    1.7050   -1.8850  -12.9990 O   0  0  0  0  0  0  0  0  0  0  0  0
   -1.9671   -2.3412  -16.8127 H   0  0  0  0  0  0  0  0  0  0  0  0
   -0.7936   -2.9896  -18.0081 H   0  0  0  0  0  0  0  0  0  0  0  0
   -2.4918   -3.5750  -18.0081 H   0  0  0  0  0  0  0  0  0  0  0  0
   -1.7014   -2.6339  -14.8482 H   0  0  0  0  0  0  0  0  0  0  0  0
   -1.8169   -4.2047  -13.9302 H   0  0  0  0  0  0  0  0  0  0  0  0
    0.1215   -3.9403  -13.1088 H   0  0  0  0  0  0  0  0  0  0  0  0
    2.0548   -4.3557  -14.5244 H   0  0  0  0  0  0  0  0  0  0  0  0
    0.8294   -4.5685  -15.7840 H   0  0  0  0  0  0  0  0  0  0  0  0
    2.6650   -2.4350  -15.3100 H   0  0  0  0  0  0  0  0  0  0  0  0
    0.9936   -2.4964  -17.7069 H   0  0  0  0  0  0  0  0  0  0  0  0
    2.7174   -1.8889  -17.4318 H   0  0  0  0  0  0  0  0  0  0  0  0
    0.9217   -4.7617  -19.0160 H   0  0  0  0  0  0  0  0  0  0  0  0
    2.6490   -6.6890  -19.3890 H   0  0  0  0  0  0  0  0  0  0  0  0
    6.2680   -7.9570  -18.3190 H   0  0  0  0  0  0  0  0  0  0  0  0
    5.3720   -7.5100  -19.6890 H   0  0  0  0  0  0  0  0  0  0  0  0
    6.7349   -4.2621  -16.0282 H   0  0  0  0  0  0  0  0  0  0  0  0
    1.5098   -0.5101  -15.1641 H   0  0  0  0  0  0  0  0  0  0  0  0
    0.0549   -1.1787  -15.8514 H   0  0  0  0  0  0  0  0  0  0  0  0
   -0.2687   -1.3384  -13.3445 H   0  0  0  0  0  0  0  0  0  0  0  0
    2.1380   -2.7610  -13.0600 H   0  0  0  0  0  0  0  0  0  0  0  0
  1  2  1  0
  2  3  1  0
  3  4  1  0
  4  5  1  0
  5  6  1  0
  6  7  1  0
  7  8  1  0
  8  9  2  0
  9 10  1  0
 10 11  1  0
 11 12  2  0
 12 13  1  0
 12 14  1  0
 14 15  2  0
 15 16  1  0
 16 17  2  0
  6 18  1  0
 18 19  1  0
 19 20  1  0
 19  4  1  0
 17  8  1  0
 17 11  1  0
  1 21  1  0
  1 22  1  0
  1 23  1  0
  3 24  1  0
  3 25  1  0
  4 26  1  1
  5 27  1  0
  5 28  1  0
  6 29  1  1
  7 30  1  0
  7 31  1  0
  9 32  1  0
 10 33  1  0
 13 34  1  0
 13 35  1  0
 15 36  1  0
 18 37  1  0
 18 38  1  0
 19 39  1  1
 20 40  1  0
M  CHG  1   6   1
M  END
>  <meeko>  (6) 
{"is_sidechain": [false], "free_energy": -5.443, "intermolecular_energy": -6.611, "internal_energy": -0.81}

$$$$
4f2w_ligand
     RDKit          3D

 40 42  0  0  0  0  0  0  0  0999 V2000
    6.8500   -3.5660  -20.2220 C   0  0  0  0  0  0  0  0  0  0  0  0
    7.7460   -2.5500  -19.0180 S   0  0  0  0  0  0  0  0  0  0  0  0
    8.5710   -3.8600  -18.0620 C   0  0  0  0  0  0  0  0  0  0  0  0
    8.0490   -3.9720  -16.6220 C   0  0  1  0  0  0  0  0  0  0  0  0
    6.7790   -3.1230  -16.4560 C   0  0  0  0  0  0  0  0  0  0  0  0
    5.6180   -4.0940  -16.5450 N   0  0  1  0  0  0  0  0  0  0  0  0
    4.4290   -3.6610  -17.3470 C   0  0  0  0  0  0  0  0  0  0  0  0
    3.1290   -4.2840  -16.9840 C   0  0  0  0  0  0  0  0  0  0  0  0
    2.5970   -5.4800  -17.4430 C   0  0  0  0  0  0  0  0  0  0  0  0
    1.3790   -5.6750  -16.8340 N   0  0  0  0  0  0  0  0  0  0  0  0
    1.1210   -4.6420  -15.9720 C   0  0  0  0  0  0  0  0  0  0  0  0
    0.0520   -4.3610  -15.1400 C   0  0  0  0  0  0  0  0  0  0  0  0
   -1.0560   -5.1780  -15.0030 N   0  0  0  0  0  0  0  0  0  0  0  0
    0.1000   -3.2250  -14.4290 N   0  0  0  0  0  0  0  0  0  0  0  0
    1.1810   -2.4350  -14.5500 C   0  0  0  0  0  0  0  0  0  0  0  0
    2.2580   -2.6220  -15.3350 N   0  0  0  0  0  0  0  0  0  0  0  0
    2.1920   -3.7660  -16.0470 C   0  0  0  0  0  0  0  0  0  0  0  0
    6.1900   -5.4620  -16.8480 C   0  0  0  0  0  0  0  0  0  0  0  0
    7.5740   -5.3660  -16.2130 C   0  0  2  0  0  0  0  0  0  0  0  0
    7.4100   -5.3890  -14.7880 O   0  0  0  0  0  0  0  0  0  0  0  0
    6.2130   -4.2883  -19.6904 H   0  0  0  0  0  0  0  0  0  0  0  0
    6.2230   -2.9191  -20.8532 H   0  0  0  0  0  0  0  0  0  0  0  0
    7.5702   -4.1072  -20.8532 H   0  0  0  0  0  0  0  0  0  0  0  0
    8.4062   -4.8215  -18.5703 H   0  0  0  0  0  0  0  0  0  0  0  0
    9.6390   -3.6029  -18.0055 H   0  0  0  0  0  0  0  0  0  0  0  0
    8.9116   -3.6619  -16.0140 H   0  0  0  0  0  0  0  0  0  0  0  0
    6.7813   -2.6173  -15.4791 H   0  0  0  0  0  0  0  0  0  0  0  0
    6.7119   -2.3403  -17.2260 H   0  0  0  0  0  0  0  0  0  0  0  0
    5.2900   -4.1820  -15.5720 H   0  0  0  0  0  0  0  0  0  0  0  0
    4.3236   -2.5724  -17.2296 H   0  0  0  0  0  0  0  0  0  0  0  0
    4.6343   -3.9882  -18.3770 H   0  0  0  0  0  0  0  0  0  0  0  0
    3.0688   -6.1572  -18.1702 H   0  0  0  0  0  0  0  0  0  0  0  0
    0.7530   -6.4560  -16.9940 H   0  0  0  0  0  0  0  0  0  0  0  0
   -0.8980   -6.0540  -15.4960 H   0  0  0  0  0  0  0  0  0  0  0  0
   -1.9450   -4.7480  -15.2150 H   0  0  0  0  0  0  0  0  0  0  0  0
    1.1858   -1.5249  -13.9321 H   0  0  0  0  0  0  0  0  0  0  0  0
    5.5904   -6.2591  -16.3842 H   0  0  0  0  0  0  0  0  0  0  0  0
    6.2065   -5.7119  -17.9191 H   0  0  0  0  0  0  0  0  0  0  0  0
    8.2610   -6.1713  -16.5122 H   0  0  0  0  0  0  0  0  0  0  0  0
    6.6200   -5.9320  -14.5900 H   0  0  0  0  0  0  0  0  0  0  0  0
  1  2  1  0
  2  3  1  0
  3  4  1  0
  4  5  1  0
  5  6  1  0
  6  7  1  0
  7  8  1  0
  8  9  2  0
  9 10  1  0
 10 11  1  0
 11 12  2  0
 12 13  1  0
 12 14  1  0
 14 15  2  0
 15 16  1  0
 16 17  2  0
  6 18  1  0
 18 19  1  0
 19 20  1  0
 19  4  1  0
 17  8  1  0
 17 11  1  0
  1 21  1  0
  1 22  1  0
  1 23  1  0
  3 24  1  0
  3 25  1  0
  4 26  1  1
  5 27  1  0
  5 28  1  0
  6 29  1  1
  7 30  1  0
  7 31  1  0
  9 32  1  0
 10 33  1  0
 13 34  1  0
 13 35  1  0
 15 36  1  0
 18 37  1  0
 18 38  1  0
 19 39  1  6
 20 40  1  0
M  CHG  1   6   1
M  END
>  <meeko>  (7) 
{"is_sidechain": [false], "free_energy": -5.293, "intermolecular_energy": -6.675, "internal_energy": -0.553}

$$$$
4f2w_ligand
     RDKit          3D

 40 42  0  0  0  0  0  0  0  0999 V2000
   11.5200   -9.1680   -8.0910 C   0  0  0  0  0  0  0  0  0  0  0  0
   11.5440  -10.5010   -9.3180 S   0  0  0  0  0  0  0  0  0  0  0  0
    9.9590  -10.1820  -10.1500 C   0  0  0  0  0  0  0  0  0  0  0  0
    9.0840   -9.1620   -9.4060 C   0  0  1  0  0  0  0  0  0  0  0  0
    8.9060   -7.8990  -10.2630 C   0  0  0  0  0  0  0  0  0  0  0  0
    7.5400   -8.0260  -10.9080 N   0  0  1  0  0  0  0  0  0  0  0  0
    7.4310   -7.6380  -12.3510 C   0  0  0  0  0  0  0  0  0  0  0  0
    7.8010   -6.2380  -12.6850 C   0  0  0  0  0  0  0  0  0  0  0  0
    8.2420   -5.2430  -11.8250 C   0  0  0  0  0  0  0  0  0  0  0  0
    8.4790   -4.1060  -12.5620 N   0  0  0  0  0  0  0  0  0  0  0  0
    8.2230   -4.3510  -13.8860 C   0  0  0  0  0  0  0  0  0  0  0  0
    8.2960   -3.5550  -15.0160 C   0  0  0  0  0  0  0  0  0  0  0  0
    8.7070   -2.2350  -15.0060 N   0  0  0  0  0  0  0  0  0  0  0  0
    7.9420   -4.1070  -16.1870 N   0  0  0  0  0  0  0  0  0  0  0  0
    7.5540   -5.3940  -16.2010 C   0  0  0  0  0  0  0  0  0  0  0  0
    7.4460   -6.2370  -15.1580 N   0  0  0  0  0  0  0  0  0  0  0  0
    7.8010   -5.6660  -13.9870 C   0  0  0  0  0  0  0  0  0  0  0  0
    6.9720   -9.3710  -10.5130 C   0  0  0  0  0  0  0  0  0  0  0  0
    7.6410   -9.6050   -9.1610 C   0  0  2  0  0  0  0  0  0  0  0  0
    7.0470   -8.7080   -8.2120 O   0  0  0  0  0  0  0  0  0  0  0  0
   11.5278   -9.6004   -7.0796 H   0  0  0  0  0  0  0  0  0  0  0  0
   12.4068   -8.5310   -8.2242 H   0  0  0  0  0  0  0  0  0  0  0  0
   10.6108   -8.5633   -8.2242 H   0  0  0  0  0  0  0  0  0  0  0  0
   10.1646   -9.7968  -11.1596 H   0  0  0  0  0  0  0  0  0  0  0  0
    9.4052  -11.1320  -10.1773 H   0  0  0  0  0  0  0  0  0  0  0  0
    9.6136   -9.0195   -8.4525 H   0  0  0  0  0  0  0  0  0  0  0  0
    8.9494   -6.9989   -9.6322 H   0  0  0  0  0  0  0  0  0  0  0  0
    9.7021   -7.8057  -11.0163 H   0  0  0  0  0  0  0  0  0  0  0  0
    6.9540   -7.3560  -10.3870 H   0  0  0  0  0  0  0  0  0  0  0  0
    8.0879   -8.3053  -12.9282 H   0  0  0  0  0  0  0  0  0  0  0  0
    6.3631   -7.7269  -12.5993 H   0  0  0  0  0  0  0  0  0  0  0  0
    8.3789   -5.3457  -10.7384 H   0  0  0  0  0  0  0  0  0  0  0  0
    8.7900   -3.2140  -12.1950 H   0  0  0  0  0  0  0  0  0  0  0  0
    8.5410   -1.8320  -14.0870 H   0  0  0  0  0  0  0  0  0  0  0  0
    8.3640   -1.6650  -15.7670 H   0  0  0  0  0  0  0  0  0  0  0  0
    7.2928   -5.8087  -17.1858 H   0  0  0  0  0  0  0  0  0  0  0  0
    5.8769   -9.3312  -10.4169 H   0  0  0  0  0  0  0  0  0  0  0  0
    7.1595  -10.1679  -11.2477 H   0  0  0  0  0  0  0  0  0  0  0  0
    7.5528  -10.6367   -8.7898 H   0  0  0  0  0  0  0  0  0  0  0  0
    7.2430   -7.7950   -8.5060 H   0  0  0  0  0  0  0  0  0  0  0  0
  1  2  1  0
  2  3  1  0
  3  4  1  0
  4  5  1  0
  5  6  1  0
  6  7  1  0
  7  8  1  0
  8  9  2  0
  9 10  1  0
 10 11  1  0
 11 12  2  0
 12 13  1  0
 12 14  1  0
 14 15  2  0
 15 16  1  0
 16 17  2  0
  6 18  1  0
 18 19  1  0
 19 20  1  0
 19  4  1  0
 17  8  1  0
 17 11  1  0
  1 21  1  0
  1 22  1  0
  1 23  1  0
  3 24  1  0
  3 25  1  0
  4 26  1  1
  5 27  1  0
  5 28  1  0
  6 29  1  1
  7 30  1  0
  7 31  1  0
  9 32  1  0
 10 33  1  0
 13 34  1  0
 13 35  1  0
 15 36  1  0
 18 37  1  0
 18 38  1  0
 19 39  1  1
 20 40  1  0
M  CHG  1   6   1
M  END
>  <meeko>  (8) 
{"is_sidechain": [false], "free_energy": -5.282, "intermolecular_energy": -7.226, "internal_energy": 0.013}

$$$$
4f2w_ligand
     RDKit          3D

 40 42  0  0  0  0  0  0  0  0999 V2000
    8.2820   -4.1680  -12.3380 C   0  0  0  0  0  0  0  0  0  0  0  0
    8.2130   -5.4730  -13.5940 S   0  0  0  0  0  0  0  0  0  0  0  0
    8.1730   -4.4510  -15.0980 C   0  0  0  0  0  0  0  0  0  0  0  0
    7.6910   -5.2230  -16.3360 C   0  0  1  0  0  0  0  0  0  0  0  0
    6.1560   -5.2540  -16.3700 C   0  0  0  0  0  0  0  0  0  0  0  0
    5.7420   -4.1760  -17.3540 N   0  0  1  0  0  0  0  0  0  0  0  0
    4.5800   -3.3130  -16.9680 C   0  0  0  0  0  0  0  0  0  0  0  0
    3.2920   -4.0150  -16.7250 C   0  0  0  0  0  0  0  0  0  0  0  0
    2.8710   -5.2300  -17.2450 C   0  0  0  0  0  0  0  0  0  0  0  0
    1.6190   -5.5050  -16.7450 N   0  0  0  0  0  0  0  0  0  0  0  0
    1.2300   -4.5040  -15.8940 C   0  0  0  0  0  0  0  0  0  0  0  0
    0.0800   -4.2990  -15.1520 C   0  0  0  0  0  0  0  0  0  0  0  0
   -0.9860   -5.1800  -15.1220 N   0  0  0  0  0  0  0  0  0  0  0  0
    0.0020   -3.1760  -14.4240 N   0  0  0  0  0  0  0  0  0  0  0  0
    1.0420   -2.3230  -14.4420 C   0  0  0  0  0  0  0  0  0  0  0  0
    2.1910   -2.4350  -15.1350 N   0  0  0  0  0  0  0  0  0  0  0  0
    2.2510   -3.5680  -15.8650 C   0  0  0  0  0  0  0  0  0  0  0  0
    7.0000   -3.4710  -17.8120 C   0  0  0  0  0  0  0  0  0  0  0  0
    8.0420   -4.5770  -17.6770 C   0  0  2  0  0  0  0  0  0  0  0  0
    7.8080   -5.5370  -18.7170 O   0  0  0  0  0  0  0  0  0  0  0  0
    8.2580   -4.6217  -11.3362 H   0  0  0  0  0  0  0  0  0  0  0  0
    9.2118   -3.5926  -12.4578 H   0  0  0  0  0  0  0  0  0  0  0  0
    7.4180   -3.4978  -12.4578 H   0  0  0  0  0  0  0  0  0  0  0  0
    7.4937   -3.6028  -14.9274 H   0  0  0  0  0  0  0  0  0  0  0  0
    9.2025   -4.1190  -15.2976 H   0  0  0  0  0  0  0  0  0  0  0  0
    8.1843   -6.2010  -16.2351 H   0  0  0  0  0  0  0  0  0  0  0  0
    5.8002   -6.2384  -16.7083 H   0  0  0  0  0  0  0  0  0  0  0  0
    5.7255   -5.0788  -15.3730 H   0  0  0  0  0  0  0  0  0  0  0  0
    5.4440   -4.7010  -18.1890 H   0  0  0  0  0  0  0  0  0  0  0  0
    4.8505   -2.7794  -16.0449 H   0  0  0  0  0  0  0  0  0  0  0  0
    4.3994   -2.6587  -17.8336 H   0  0  0  0  0  0  0  0  0  0  0  0
    3.4409   -5.8654  -17.9389 H   0  0  0  0  0  0  0  0  0  0  0  0
    1.0550   -6.3170  -16.9680 H   0  0  0  0  0  0  0  0  0  0  0  0
   -1.8020   -4.7170  -14.7300 H   0  0  0  0  0  0  0  0  0  0  0  0
   -0.7950   -6.0830  -14.7110 H   0  0  0  0  0  0  0  0  0  0  0  0
    0.9416   -1.4251  -13.8145 H   0  0  0  0  0  0  0  0  0  0  0  0
    6.9112   -3.1290  -18.8537 H   0  0  0  0  0  0  0  0  0  0  0  0
    7.2365   -2.5627  -17.2383 H   0  0  0  0  0  0  0  0  0  0  0  0
    9.0816   -4.2227  -17.7383 H   0  0  0  0  0  0  0  0  0  0  0  0
    7.3710   -5.0700  -19.4570 H   0  0  0  0  0  0  0  0  0  0  0  0
  1  2  1  0
  2  3  1  0
  3  4  1  0
  4  5  1  0
  5  6  1  0
  6  7  1  0
  7  8  1  0
  8  9  2  0
  9 10  1  0
 10 11  1  0
 11 12  2  0
 12 13  1  0
 12 14  1  0
 14 15  2  0
 15 16  1  0
 16 17  2  0
  6 18  1  0
 18 19  1  0
 19 20  1  0
 19  4  1  0
 17  8  1  0
 17 11  1  0
  1 21  1  0
  1 22  1  0
  1 23  1  0
  3 24  1  0
  3 25  1  0
  4 26  1  6
  5 27  1  0
  5 28  1  0
  6 29  1  6
  7 30  1  0
  7 31  1  0
  9 32  1  0
 10 33  1  0
 13 34  1  0
 13 35  1  0
 15 36  1  0
 18 37  1  0
 18 38  1  0
 19 39  1  1
 20 40  1  0
M  CHG  1   6   1
M  END
>  <meeko>  (9) 
{"is_sidechain": [false], "free_energy": -5.236, "intermolecular_energy": -6.926, "internal_energy": -0.228}

$$$$
