2fvd_ligand
     RDKit          3D

 51 53  0  0  0  0  0  0  0  0999 V2000
    3.2970  -15.5210   -1.0450 C   0  0  0  0  0  0  0  0  0  0  0  0
    2.6390  -14.4940   -0.2970 O   0  0  0  0  0  0  0  0  0  0  0  0
    1.2890  -14.5190   -0.5240 C   0  0  0  0  0  0  0  0  0  0  0  0
    0.7460  -15.5160   -1.3400 C   0  0  0  0  0  0  0  0  0  0  0  0
   -0.6180  -15.4970   -1.6430 C   0  0  0  0  0  0  0  0  0  0  0  0
   -1.4210  -14.4750   -1.1430 C   0  0  0  0  0  0  0  0  0  0  0  0
   -2.7250  -14.4570   -1.4490 F   0  0  0  0  0  0  0  0  0  0  0  0
   -0.8800  -13.4720   -0.3470 C   0  0  0  0  0  0  0  0  0  0  0  0
   -1.6660  -12.4860    0.1090 F   0  0  0  0  0  0  0  0  0  0  0  0
    0.4770  -13.4880   -0.0430 C   0  0  0  0  0  0  0  0  0  0  0  0
    1.0290  -12.4360    0.8240 C   0  0  0  0  0  0  0  0  0  0  0  0
    1.2850  -11.3480    0.3170 O   0  0  0  0  0  0  0  0  0  0  0  0
    1.2870  -12.6930    2.2570 C   0  0  0  0  0  0  0  0  0  0  0  0
    2.3550  -13.4500    2.6880 C   0  0  0  0  0  0  0  0  0  0  0  0
    2.6170  -13.7080    3.9850 N   0  0  0  0  0  0  0  0  0  0  0  0
    1.7580  -13.2150    4.8830 C   0  0  0  0  0  0  0  0  0  0  0  0
    1.9260  -13.4490    6.2310 N   0  0  0  0  0  0  0  0  0  0  0  0
    2.6350  -12.5010    7.0860 C   0  0  0  0  0  0  0  0  0  0  0  0
    3.2580  -13.1590    8.3240 C   0  0  0  0  0  0  0  0  0  0  0  0
    4.7730  -13.0050    8.3550 C   0  0  0  0  0  0  0  0  0  0  0  0
    5.1410  -11.5740    8.2680 N   0  0  0  0  0  0  0  0  0  0  0  0
    6.7360  -11.1470    8.6360 S   0  0  0  0  0  0  0  0  0  0  0  0
    6.5250  -10.0810   10.0490 C   0  0  0  0  0  0  0  0  0  0  0  0
    7.4250  -12.3410    9.0780 O   0  0  0  0  0  0  0  0  0  0  0  0
    7.2530  -10.3410    7.5510 O   0  0  0  0  0  0  0  0  0  0  0  0
    4.4280  -10.7600    7.2550 C   0  0  0  0  0  0  0  0  0  0  0  0
    3.6140  -11.6240    6.3040 C   0  0  0  0  0  0  0  0  0  0  0  0
    0.6950  -12.4730    4.5600 N   0  0  0  0  0  0  0  0  0  0  0  0
    0.4530  -12.2230    3.2600 C   0  0  0  0  0  0  0  0  0  0  0  0
   -0.6550  -11.3960    2.9940 N   0  0  0  0  0  0  0  0  0  0  0  0
    3.7581  -16.2407   -0.3526 H   0  0  0  0  0  0  0  0  0  0  0  0
    2.5631  -16.0405   -1.6787 H   0  0  0  0  0  0  0  0  0  0  0  0
    4.0756  -15.0714   -1.6787 H   0  0  0  0  0  0  0  0  0  0  0  0
    1.3899  -16.3122   -1.7419 H   0  0  0  0  0  0  0  0  0  0  0  0
   -1.0552  -16.2854   -2.2733 H   0  0  0  0  0  0  0  0  0  0  0  0
    3.0332  -13.8680    1.9295 H   0  0  0  0  0  0  0  0  0  0  0  0
    1.0190  -13.7510    6.5760 H   0  0  0  0  0  0  0  0  0  0  0  0
    1.8718  -11.8141    7.4806 H   0  0  0  0  0  0  0  0  0  0  0  0
    2.8356  -12.6902    9.2250 H   0  0  0  0  0  0  0  0  0  0  0  0
    3.0280  -14.2341    8.2875 H   0  0  0  0  0  0  0  0  0  0  0  0
    5.1621  -13.4242    9.2946 H   0  0  0  0  0  0  0  0  0  0  0  0
    5.2068  -13.5409    7.4979 H   0  0  0  0  0  0  0  0  0  0  0  0
    6.6412  -10.6682   10.9719 H   0  0  0  0  0  0  0  0  0  0  0  0
    7.2828   -9.2841   10.0235 H   0  0  0  0  0  0  0  0  0  0  0  0
    5.5207   -9.6329   10.0235 H   0  0  0  0  0  0  0  0  0  0  0  0
    3.7506  -10.0636    7.7709 H   0  0  0  0  0  0  0  0  0  0  0  0
    5.1797  -10.2168    6.6635 H   0  0  0  0  0  0  0  0  0  0  0  0
    3.0505  -10.9753    5.6172 H   0  0  0  0  0  0  0  0  0  0  0  0
    4.2981  -12.2717    5.7362 H   0  0  0  0  0  0  0  0  0  0  0  0
   -0.6710  -10.6300    3.6640 H   0  0  0  0  0  0  0  0  0  0  0  0
   -0.4990  -10.9360    2.0920 H   0  0  0  0  0  0  0  0  0  0  0  0
  1  2  1  0
  2  3  1  0
  3  4  2  0
  4  5  1  0
  5  6  2  0
  6  7  1  0
  6  8  1  0
  8  9  1  0
  8 10  2  0
 10 11  1  0
 11 12  2  0
 11 13  1  0
 13 14  2  0
 14 15  1  0
 15 16  2  0
 16 17  1  0
 17 18  1  0
 18 19  1  0
 19 20  1  0
 20 21  1  0
 21 22  1  0
 22 23  1  0
 22 24  2  0
 22 25  2  0
 21 26  1  0
 26 27  1  0
 16 28  1  0
 28 29  2  0
 29 30  1  0
 10  3  1  0
 29 13  1  0
 27 18  1  0
  1 31  1  0
  1 32  1  0
  1 33  1  0
  4 34  1  0
  5 35  1  0
 14 36  1  0
 17 37  1  0
 18 38  1  0
 19 39  1  0
 19 40  1  0
 20 41  1  0
 20 42  1  0
 23 43  1  0
 23 44  1  0
 23 45  1  0
 26 46  1  0
 26 47  1  0
 27 48  1  0
 27 49  1  0
 30 50  1  0
 30 51  1  0
M  END
>  <meeko>  (1) 
{"is_sidechain": [false], "free_energy": -8.073, "intermolecular_energy": -11.141, "internal_energy": -0.892}

$$$$
2fvd_ligand
     RDKit          3D

 51 53  0  0  0  0  0  0  0  0999 V2000
   -2.1370  -13.6850    2.3930 C   0  0  0  0  0  0  0  0  0  0  0  0
   -1.7460  -12.8890    1.2710 O   0  0  0  0  0  0  0  0  0  0  0  0
   -0.9030  -13.5890    0.4510 C   0  0  0  0  0  0  0  0  0  0  0  0
   -1.4170  -14.6010   -0.3640 C   0  0  0  0  0  0  0  0  0  0  0  0
   -0.5500  -15.3740   -1.1400 C   0  0  0  0  0  0  0  0  0  0  0  0
    0.8220  -15.1400   -1.0820 C   0  0  0  0  0  0  0  0  0  0  0  0
    1.6470  -15.8940   -1.8190 F   0  0  0  0  0  0  0  0  0  0  0  0
    1.3380  -14.1460   -0.2590 C   0  0  0  0  0  0  0  0  0  0  0  0
    2.6630  -13.9490   -0.2020 F   0  0  0  0  0  0  0  0  0  0  0  0
    0.4770  -13.3740    0.5150 C   0  0  0  0  0  0  0  0  0  0  0  0
    1.0350  -12.3080    1.3590 C   0  0  0  0  0  0  0  0  0  0  0  0
    1.2150  -11.2050    0.8510 O   0  0  0  0  0  0  0  0  0  0  0  0
    1.3890  -12.5650    2.7720 C   0  0  0  0  0  0  0  0  0  0  0  0
    2.4090  -13.4190    3.1310 C   0  0  0  0  0  0  0  0  0  0  0  0
    2.7550  -13.6800    4.4070 N   0  0  0  0  0  0  0  0  0  0  0  0
    2.0290  -13.0880    5.3620 C   0  0  0  0  0  0  0  0  0  0  0  0
    2.2880  -13.3150    6.6970 N   0  0  0  0  0  0  0  0  0  0  0  0
    2.9880  -12.3280    7.5150 C   0  0  0  0  0  0  0  0  0  0  0  0
    3.3870  -12.8680    8.8950 C   0  0  0  0  0  0  0  0  0  0  0  0
    4.8950  -12.8480    9.1050 C   0  0  0  0  0  0  0  0  0  0  0  0
    5.4200  -11.4800    8.8930 N   0  0  0  0  0  0  0  0  0  0  0  0
    6.9970  -11.1530    9.4120 S   0  0  0  0  0  0  0  0  0  0  0  0
    7.5830  -10.0340    8.1540 C   0  0  0  0  0  0  0  0  0  0  0  0
    6.9120  -10.4180   10.6560 O   0  0  0  0  0  0  0  0  0  0  0  0
    7.7700  -12.3720    9.3110 O   0  0  0  0  0  0  0  0  0  0  0  0
    4.9220  -10.7480    7.7050 C   0  0  0  0  0  0  0  0  0  0  0  0
    4.1390  -11.6560    6.7670 C   0  0  0  0  0  0  0  0  0  0  0  0
    1.0210  -12.2470    5.1110 N   0  0  0  0  0  0  0  0  0  0  0  0
    0.6950  -11.9960    3.8290 C   0  0  0  0  0  0  0  0  0  0  0  0
   -0.3440  -11.0660    3.6370 N   0  0  0  0  0  0  0  0  0  0  0  0
   -1.8785  -13.1588    3.3238 H   0  0  0  0  0  0  0  0  0  0  0  0
   -3.2227  -13.8582    2.3591 H   0  0  0  0  0  0  0  0  0  0  0  0
   -1.6105  -14.6502    2.3591 H   0  0  0  0  0  0  0  0  0  0  0  0
   -2.5005  -14.7883   -0.3944 H   0  0  0  0  0  0  0  0  0  0  0  0
   -0.9488  -16.1637   -1.7937 H   0  0  0  0  0  0  0  0  0  0  0  0
    2.9739  -13.9168    2.3291 H   0  0  0  0  0  0  0  0  0  0  0  0
    1.4220  -13.6720    7.0910 H   0  0  0  0  0  0  0  0  0  0  0  0
    2.2615  -11.5278    7.7195 H   0  0  0  0  0  0  0  0  0  0  0  0
    2.9130  -12.2469    9.6693 H   0  0  0  0  0  0  0  0  0  0  0  0
    3.0503  -13.9132    8.9595 H   0  0  0  0  0  0  0  0  0  0  0  0
    5.1237  -13.1705   10.1315 H   0  0  0  0  0  0  0  0  0  0  0  0
    5.3680  -13.5310    8.3840 H   0  0  0  0  0  0  0  0  0  0  0  0
    8.0430   -9.1555    8.6301 H   0  0  0  0  0  0  0  0  0  0  0  0
    8.3294  -10.5447    7.5278 H   0  0  0  0  0  0  0  0  0  0  0  0
    6.7381   -9.7113    7.5278 H   0  0  0  0  0  0  0  0  0  0  0  0
    4.2656   -9.9312    8.0397 H   0  0  0  0  0  0  0  0  0  0  0  0
    5.7913  -10.3577    7.1554 H   0  0  0  0  0  0  0  0  0  0  0  0
    3.7326  -11.0575    5.9384 H   0  0  0  0  0  0  0  0  0  0  0  0
    4.8130  -12.4327    6.3766 H   0  0  0  0  0  0  0  0  0  0  0  0
   -0.9740  -11.0950    4.4340 H   0  0  0  0  0  0  0  0  0  0  0  0
    0.0610  -10.1250    3.6720 H   0  0  0  0  0  0  0  0  0  0  0  0
  1  2  1  0
  2  3  1  0
  3  4  2  0
  4  5  1  0
  5  6  2  0
  6  7  1  0
  6  8  1  0
  8  9  1  0
  8 10  2  0
 10 11  1  0
 11 12  2  0
 11 13  1  0
 13 14  2  0
 14 15  1  0
 15 16  2  0
 16 17  1  0
 17 18  1  0
 18 19  1  0
 19 20  1  0
 20 21  1  0
 21 22  1  0
 22 23  1  0
 22 24  2  0
 22 25  2  0
 21 26  1  0
 26 27  1  0
 16 28  1  0
 28 29  2  0
 29 30  1  0
 10  3  1  0
 29 13  1  0
 27 18  1  0
  1 31  1  0
  1 32  1  0
  1 33  1  0
  4 34  1  0
  5 35  1  0
 14 36  1  0
 17 37  1  0
 18 38  1  0
 19 39  1  0
 19 40  1  0
 20 41  1  0
 20 42  1  0
 23 43  1  0
 23 44  1  0
 23 45  1  0
 26 46  1  0
 26 47  1  0
 27 48  1  0
 27 49  1  0
 30 50  1  0
 30 51  1  0
M  END
>  <meeko>  (2) 
{"is_sidechain": [false], "free_energy": -7.957, "intermolecular_energy": -10.537, "internal_energy": -1.336}

$$$$
2fvd_ligand
     RDKit          3D

 51 53  0  0  0  0  0  0  0  0999 V2000
    3.5310  -15.2460   -0.6990 C   0  0  0  0  0  0  0  0  0  0  0  0
    2.7230  -14.2520   -0.0640 O   0  0  0  0  0  0  0  0  0  0  0  0
    1.4030  -14.4220   -0.3850 C   0  0  0  0  0  0  0  0  0  0  0  0
    1.0310  -15.4650   -1.2380 C   0  0  0  0  0  0  0  0  0  0  0  0
   -0.3020  -15.5930   -1.6360 C   0  0  0  0  0  0  0  0  0  0  0  0
   -1.2460  -14.6700   -1.1930 C   0  0  0  0  0  0  0  0  0  0  0  0
   -2.5190  -14.7920   -1.5900 F   0  0  0  0  0  0  0  0  0  0  0  0
   -0.8750  -13.6210   -0.3600 C   0  0  0  0  0  0  0  0  0  0  0  0
   -1.7950  -12.7310    0.0410 F   0  0  0  0  0  0  0  0  0  0  0  0
    0.4510  -13.4910    0.0390 C   0  0  0  0  0  0  0  0  0  0  0  0
    0.8230  -12.3930    0.9440 C   0  0  0  0  0  0  0  0  0  0  0  0
    0.9230  -11.2650    0.4700 O   0  0  0  0  0  0  0  0  0  0  0  0
    1.0870  -12.6480    2.3760 C   0  0  0  0  0  0  0  0  0  0  0  0
    0.0960  -13.0370    3.2490 C   0  0  0  0  0  0  0  0  0  0  0  0
    0.3000  -13.2730    4.5600 N   0  0  0  0  0  0  0  0  0  0  0  0
    1.5410  -13.0800    5.0210 C   0  0  0  0  0  0  0  0  0  0  0  0
    1.8420  -13.2690    6.3530 N   0  0  0  0  0  0  0  0  0  0  0  0
    3.1460  -12.9030    6.8980 C   0  0  0  0  0  0  0  0  0  0  0  0
    3.0650  -12.3460    8.3260 C   0  0  0  0  0  0  0  0  0  0  0  0
    3.8440  -13.1980    9.3200 C   0  0  0  0  0  0  0  0  0  0  0  0
    5.2500  -13.3360    8.8780 N   0  0  0  0  0  0  0  0  0  0  0  0
    6.3700  -13.9360    9.9960 S   0  0  0  0  0  0  0  0  0  0  0  0
    7.5640  -14.7370    8.9400 C   0  0  0  0  0  0  0  0  0  0  0  0
    7.0200  -12.8070   10.6250 O   0  0  0  0  0  0  0  0  0  0  0  0
    5.7210  -14.9630   10.7820 O   0  0  0  0  0  0  0  0  0  0  0  0
    5.4760  -13.6430    7.4460 C   0  0  0  0  0  0  0  0  0  0  0  0
    4.1830  -14.0160    6.7360 C   0  0  0  0  0  0  0  0  0  0  0  0
    2.5660  -12.7010    4.2520 N   0  0  0  0  0  0  0  0  0  0  0  0
    2.3410  -12.4750    2.9440 C   0  0  0  0  0  0  0  0  0  0  0  0
    3.4730  -12.1260    2.1830 N   0  0  0  0  0  0  0  0  0  0  0  0
    4.0288  -15.8583    0.0673 H   0  0  0  0  0  0  0  0  0  0  0  0
    2.8960  -15.8887   -1.3264 H   0  0  0  0  0  0  0  0  0  0  0  0
    4.2899  -14.7557   -1.3264 H   0  0  0  0  0  0  0  0  0  0  0  0
    1.7849  -16.1823   -1.5945 H   0  0  0  0  0  0  0  0  0  0  0  0
   -0.6046  -16.4191   -2.2963 H   0  0  0  0  0  0  0  0  0  0  0  0
   -0.9225  -13.1626    2.8530 H   0  0  0  0  0  0  0  0  0  0  0  0
    1.0410  -12.9190    6.8710 H   0  0  0  0  0  0  0  0  0  0  0  0
    3.5107  -12.0660    6.2844 H   0  0  0  0  0  0  0  0  0  0  0  0
    3.4782  -11.3266    8.3328 H   0  0  0  0  0  0  0  0  0  0  0  0
    2.0083  -12.3512    8.6315 H   0  0  0  0  0  0  0  0  0  0  0  0
    3.8189  -12.7177   10.3093 H   0  0  0  0  0  0  0  0  0  0  0  0
    3.3846  -14.1958    9.3772 H   0  0  0  0  0  0  0  0  0  0  0  0
    8.3192  -15.2436    9.5588 H   0  0  0  0  0  0  0  0  0  0  0  0
    7.0541  -15.4765    8.3050 H   0  0  0  0  0  0  0  0  0  0  0  0
    8.0549  -13.9848    8.3050 H   0  0  0  0  0  0  0  0  0  0  0  0
    5.9084  -12.7580    6.9563 H   0  0  0  0  0  0  0  0  0  0  0  0
    6.1594  -14.5028    7.3849 H   0  0  0  0  0  0  0  0  0  0  0  0
    4.3878  -14.1678    5.6659 H   0  0  0  0  0  0  0  0  0  0  0  0
    3.7861  -14.9411    7.1796 H   0  0  0  0  0  0  0  0  0  0  0  0
    4.3010  -12.5390    2.6040 H   0  0  0  0  0  0  0  0  0  0  0  0
    3.3980  -12.5880    1.2720 H   0  0  0  0  0  0  0  0  0  0  0  0
  1  2  1  0
  2  3  1  0
  3  4  2  0
  4  5  1  0
  5  6  2  0
  6  7  1  0
  6  8  1  0
  8  9  1  0
  8 10  2  0
 10 11  1  0
 11 12  2  0
 11 13  1  0
 13 14  2  0
 14 15  1  0
 15 16  2  0
 16 17  1  0
 17 18  1  0
 18 19  1  0
 19 20  1  0
 20 21  1  0
 21 22  1  0
 22 23  1  0
 22 24  2  0
 22 25  2  0
 21 26  1  0
 26 27  1  0
 16 28  1  0
 28 29  2  0
 29 30  1  0
 10  3  1  0
 29 13  1  0
 27 18  1  0
  1 31  1  0
  1 32  1  0
  1 33  1  0
  4 34  1  0
  5 35  1  0
 14 36  1  0
 17 37  1  0
 18 38  1  0
 19 39  1  0
 19 40  1  0
 20 41  1  0
 20 42  1  0
 23 43  1  0
 23 44  1  0
 23 45  1  0
 26 46  1  0
 26 47  1  0
 27 48  1  0
 27 49  1  0
 30 50  1  0
 30 51  1  0
M  END
>  <meeko>  (3) 
{"is_sidechain": [false], "free_energy": -7.848, "intermolecular_energy": -10.455, "internal_energy": -1.267}

$$$$
2fvd_ligand
     RDKit          3D

 51 53  0  0  0  0  0  0  0  0999 V2000
    2.0850   -8.4190    9.6840 C   0  0  0  0  0  0  0  0  0  0  0  0
    2.5880   -9.7580    9.6990 O   0  0  0  0  0  0  0  0  0  0  0  0
    3.8980   -9.7890    9.3020 C   0  0  0  0  0  0  0  0  0  0  0  0
    4.7740   -8.7920    9.7400 C   0  0  0  0  0  0  0  0  0  0  0  0
    6.0900   -8.7710    9.2720 C   0  0  0  0  0  0  0  0  0  0  0  0
    6.5130   -9.7340    8.3600 C   0  0  0  0  0  0  0  0  0  0  0  0
    7.7720   -9.6990    7.9060 F   0  0  0  0  0  0  0  0  0  0  0  0
    5.6390  -10.7160    7.9090 C   0  0  0  0  0  0  0  0  0  0  0  0
    6.0600  -11.6230    7.0150 F   0  0  0  0  0  0  0  0  0  0  0  0
    4.3270  -10.7400    8.3730 C   0  0  0  0  0  0  0  0  0  0  0  0
    3.4230  -11.8020    7.9080 C   0  0  0  0  0  0  0  0  0  0  0  0
    3.3390  -12.8240    8.5840 O   0  0  0  0  0  0  0  0  0  0  0  0
    2.6560  -11.6490    6.6530 C   0  0  0  0  0  0  0  0  0  0  0  0
    3.2370  -11.8010    5.4130 C   0  0  0  0  0  0  0  0  0  0  0  0
    2.5700  -11.6650    4.2500 N   0  0  0  0  0  0  0  0  0  0  0  0
    1.2770  -11.3310    4.3320 C   0  0  0  0  0  0  0  0  0  0  0  0
    0.5170  -11.1420    3.1970 N   0  0  0  0  0  0  0  0  0  0  0  0
    0.6050  -12.0550    2.0610 C   0  0  0  0  0  0  0  0  0  0  0  0
   -0.1210  -13.3850    2.3040 C   0  0  0  0  0  0  0  0  0  0  0  0
   -1.2470  -13.6150    1.3040 C   0  0  0  0  0  0  0  0  0  0  0  0
   -0.7250  -13.5350   -0.0780 N   0  0  0  0  0  0  0  0  0  0  0  0
   -1.7150  -14.1010   -1.3280 S   0  0  0  0  0  0  0  0  0  0  0  0
   -0.7800  -13.6580   -2.7800 C   0  0  0  0  0  0  0  0  0  0  0  0
   -1.7510  -15.5460   -1.2460 O   0  0  0  0  0  0  0  0  0  0  0  0
   -2.9320  -13.3190   -1.3330 O   0  0  0  0  0  0  0  0  0  0  0  0
    0.1920  -12.4120   -0.3830 C   0  0  0  0  0  0  0  0  0  0  0  0
    0.2260  -11.3860    0.7400 C   0  0  0  0  0  0  0  0  0  0  0  0
    0.6280  -11.1610    5.4880 N   0  0  0  0  0  0  0  0  0  0  0  0
    1.3120  -11.3070    6.6380 C   0  0  0  0  0  0  0  0  0  0  0  0
    0.5570  -11.1600    7.8180 N   0  0  0  0  0  0  0  0  0  0  0  0
    1.9522   -8.0656   10.7172 H   0  0  0  0  0  0  0  0  0  0  0  0
    2.7988   -7.7650    9.1616 H   0  0  0  0  0  0  0  0  0  0  0  0
    1.1172   -8.3967    9.1616 H   0  0  0  0  0  0  0  0  0  0  0  0
    4.4285   -8.0267   10.4506 H   0  0  0  0  0  0  0  0  0  0  0  0
    6.7888   -7.9971    9.6225 H   0  0  0  0  0  0  0  0  0  0  0  0
    4.3081  -12.0478    5.3698 H   0  0  0  0  0  0  0  0  0  0  0  0
   -0.4240  -10.9420    3.5230 H   0  0  0  0  0  0  0  0  0  0  0  0
    1.6676  -12.3220    1.9629 H   0  0  0  0  0  0  0  0  0  0  0  0
    0.6051  -14.2066    2.2156 H   0  0  0  0  0  0  0  0  0  0  0  0
   -0.5639  -13.3499    3.3103 H   0  0  0  0  0  0  0  0  0  0  0  0
   -1.6837  -14.6107    1.4707 H   0  0  0  0  0  0  0  0  0  0  0  0
   -2.0157  -12.8406    1.4435 H   0  0  0  0  0  0  0  0  0  0  0  0
    0.1756  -13.2053   -2.4768 H   0  0  0  0  0  0  0  0  0  0  0  0
   -0.5848  -14.5594   -3.3795 H   0  0  0  0  0  0  0  0  0  0  0  0
   -1.3539  -12.9361   -3.3795 H   0  0  0  0  0  0  0  0  0  0  0  0
    1.2063  -12.8112   -0.5307 H   0  0  0  0  0  0  0  0  0  0  0  0
   -0.1732  -11.9109   -1.2915 H   0  0  0  0  0  0  0  0  0  0  0  0
    0.9684  -10.6106    0.5002 H   0  0  0  0  0  0  0  0  0  0  0  0
   -0.7721  -10.9348    0.8417 H   0  0  0  0  0  0  0  0  0  0  0  0
    0.8540  -11.8580    8.4960 H   0  0  0  0  0  0  0  0  0  0  0  0
    0.8130  -10.2670    8.2490 H   0  0  0  0  0  0  0  0  0  0  0  0
  1  2  1  0
  2  3  1  0
  3  4  2  0
  4  5  1  0
  5  6  2  0
  6  7  1  0
  6  8  1  0
  8  9  1  0
  8 10  2  0
 10 11  1  0
 11 12  2  0
 11 13  1  0
 13 14  2  0
 14 15  1  0
 15 16  2  0
 16 17  1  0
 17 18  1  0
 18 19  1  0
 19 20  1  0
 20 21  1  0
 21 22  1  0
 22 23  1  0
 22 24  2  0
 22 25  2  0
 21 26  1  0
 26 27  1  0
 16 28  1  0
 28 29  2  0
 29 30  1  0
 10  3  1  0
 29 13  1  0
 27 18  1  0
  1 31  1  0
  1 32  1  0
  1 33  1  0
  4 34  1  0
  5 35  1  0
 14 36  1  0
 17 37  1  0
 18 38  1  0
 19 39  1  0
 19 40  1  0
 20 41  1  0
 20 42  1  0
 23 43  1  0
 23 44  1  0
 23 45  1  0
 26 46  1  0
 26 47  1  0
 27 48  1  0
 27 49  1  0
 30 50  1  0
 30 51  1  0
M  END
>  <meeko>  (4) 
{"is_sidechain": [false], "free_energy": -7.749, "intermolecular_energy": -10.112, "internal_energy": -1.474}

$$$$
2fvd_ligand
     RDKit          3D

 51 53  0  0  0  0  0  0  0  0999 V2000
   -0.2690  -11.4500    1.2420 C   0  0  0  0  0  0  0  0  0  0  0  0
    0.9550  -11.8140    0.5980 O   0  0  0  0  0  0  0  0  0  0  0  0
    0.7670  -12.8920   -0.2260 C   0  0  0  0  0  0  0  0  0  0  0  0
   -0.3070  -12.8960   -1.1210 C   0  0  0  0  0  0  0  0  0  0  0  0
   -0.5520  -14.0270   -1.9030 C   0  0  0  0  0  0  0  0  0  0  0  0
    0.2650  -15.1470   -1.7720 C   0  0  0  0  0  0  0  0  0  0  0  0
    0.0140  -16.2320   -2.5160 F   0  0  0  0  0  0  0  0  0  0  0  0
    1.3220  -15.1520   -0.8690 C   0  0  0  0  0  0  0  0  0  0  0  0
    2.0860  -16.2480   -0.7440 F   0  0  0  0  0  0  0  0  0  0  0  0
    1.5700  -14.0280   -0.0890 C   0  0  0  0  0  0  0  0  0  0  0  0
    2.7090  -14.0380    0.8410 C   0  0  0  0  0  0  0  0  0  0  0  0
    3.8230  -14.2750    0.3840 O   0  0  0  0  0  0  0  0  0  0  0  0
    2.5110  -13.7910    2.2850 C   0  0  0  0  0  0  0  0  0  0  0  0
    1.4070  -14.2560    2.9660 C   0  0  0  0  0  0  0  0  0  0  0  0
    1.1920  -14.0450    4.2800 N   0  0  0  0  0  0  0  0  0  0  0  0
    2.1040  -13.3130    4.9300 C   0  0  0  0  0  0  0  0  0  0  0  0
    1.9580  -13.0210    6.2700 N   0  0  0  0  0  0  0  0  0  0  0  0
    2.2990  -11.7060    6.8040 C   0  0  0  0  0  0  0  0  0  0  0  0
    1.2180  -10.6500    6.5330 C   0  0  0  0  0  0  0  0  0  0  0  0
    0.6420  -10.0760    7.8210 C   0  0  0  0  0  0  0  0  0  0  0  0
    1.7280   -9.5270    8.6640 N   0  0  0  0  0  0  0  0  0  0  0  0
    1.2900   -8.5350    9.9630 S   0  0  0  0  0  0  0  0  0  0  0  0
    0.9030   -6.9970    9.1480 C   0  0  0  0  0  0  0  0  0  0  0  0
    0.0650   -9.0580   10.5290 O   0  0  0  0  0  0  0  0  0  0  0  0
    2.4620   -8.3150   10.7820 O   0  0  0  0  0  0  0  0  0  0  0  0
    2.9450  -10.3590    8.8140 C   0  0  0  0  0  0  0  0  0  0  0  0
    2.7430  -11.7640    8.2660 C   0  0  0  0  0  0  0  0  0  0  0  0
    3.2040  -12.8200    4.3540 N   0  0  0  0  0  0  0  0  0  0  0  0
    3.4020  -13.0450    3.0420 C   0  0  0  0  0  0  0  0  0  0  0  0
    4.6030  -12.5380    2.5120 N   0  0  0  0  0  0  0  0  0  0  0  0
   -0.1352  -11.4898    2.3331 H   0  0  0  0  0  0  0  0  0  0  0  0
   -0.5506  -10.4292    0.9441 H   0  0  0  0  0  0  0  0  0  0  0  0
   -1.0626  -12.1510    0.9441 H   0  0  0  0  0  0  0  0  0  0  0  0
   -0.9562  -12.0123   -1.2089 H   0  0  0  0  0  0  0  0  0  0  0  0
   -1.3868  -14.0330   -2.6193 H   0  0  0  0  0  0  0  0  0  0  0  0
    0.6574  -14.8330    2.4047 H   0  0  0  0  0  0  0  0  0  0  0  0
    1.0410  -13.3730    6.5320 H   0  0  0  0  0  0  0  0  0  0  0  0
    3.1800  -11.3644    6.2408 H   0  0  0  0  0  0  0  0  0  0  0  0
    1.6609   -9.8314    5.9468 H   0  0  0  0  0  0  0  0  0  0  0  0
    0.3991  -11.1369    5.9832 H   0  0  0  0  0  0  0  0  0  0  0  0
   -0.0690   -9.2734    7.5755 H   0  0  0  0  0  0  0  0  0  0  0  0
    0.1274  -10.8762    8.3731 H   0  0  0  0  0  0  0  0  0  0  0  0
    0.7077   -6.2210    9.9028 H   0  0  0  0  0  0  0  0  0  0  0  0
    1.7522   -6.6914    8.5192 H   0  0  0  0  0  0  0  0  0  0  0  0
    0.0103   -7.1297    8.5192 H   0  0  0  0  0  0  0  0  0  0  0  0
    3.7723   -9.8804    8.2694 H   0  0  0  0  0  0  0  0  0  0  0  0
    3.1716  -10.4411    9.8873 H   0  0  0  0  0  0  0  0  0  0  0  0
    3.6896  -12.3200    8.3357 H   0  0  0  0  0  0  0  0  0  0  0  0
    1.9642  -12.2691    8.8561 H   0  0  0  0  0  0  0  0  0  0  0  0
    4.4860  -11.5500    2.3000 H   0  0  0  0  0  0  0  0  0  0  0  0
    5.3100  -12.5540    3.2530 H   0  0  0  0  0  0  0  0  0  0  0  0
  1  2  1  0
  2  3  1  0
  3  4  2  0
  4  5  1  0
  5  6  2  0
  6  7  1  0
  6  8  1  0
  8  9  1  0
  8 10  2  0
 10 11  1  0
 11 12  2  0
 11 13  1  0
 13 14  2  0
 14 15  1  0
 15 16  2  0
 16 17  1  0
 17 18  1  0
 18 19  1  0
 19 20  1  0
 20 21  1  0
 21 22  1  0
 22 23  1  0
 22 24  2  0
 22 25  2  0
 21 26  1  0
 26 27  1  0
 16 28  1  0
 28 29  2  0
 29 30  1  0
 10  3  1  0
 29 13  1  0
 27 18  1  0
  1 31  1  0
  1 32  1  0
  1 33  1  0
  4 34  1  0
  5 35  1  0
 14 36  1  0
 17 37  1  0
 18 38  1  0
 19 39  1  0
 19 40  1  0
 20 41  1  0
 20 42  1  0
 23 43  1  0
 23 44  1  0
 23 45  1  0
 26 46  1  0
 26 47  1  0
 27 48  1  0
 27 49  1  0
 30 50  1  0
 30 51  1  0
M  END
>  <meeko>  (5) 
{"is_sidechain": [false], "free_energy": -7.621, "intermolecular_energy": -10.551, "internal_energy": -0.858}

$$$$
2fvd_ligand
     RDKit          3D

 51 53  0  0  0  0  0  0  0  0999 V2000
    3.5820  -13.4930    1.6240 C   0  0  0  0  0  0  0  0  0  0  0  0
    2.1590  -13.3540    1.6240 O   0  0  0  0  0  0  0  0  0  0  0  0
    1.5970  -14.1200    0.6390 C   0  0  0  0  0  0  0  0  0  0  0  0
    2.4220  -14.8290   -0.2380 C   0  0  0  0  0  0  0  0  0  0  0  0
    1.8580  -15.5440   -1.2970 C   0  0  0  0  0  0  0  0  0  0  0  0
    0.4770  -15.5310   -1.4790 C   0  0  0  0  0  0  0  0  0  0  0  0
   -0.0550  -16.2080   -2.5040 F   0  0  0  0  0  0  0  0  0  0  0  0
   -0.3450  -14.8110   -0.6200 C   0  0  0  0  0  0  0  0  0  0  0  0
   -1.6710  -14.7950   -0.8230 F   0  0  0  0  0  0  0  0  0  0  0  0
    0.2140  -14.0980    0.4360 C   0  0  0  0  0  0  0  0  0  0  0  0
   -0.6710  -13.3660    1.3530 C   0  0  0  0  0  0  0  0  0  0  0  0
   -1.7760  -13.0250    0.9400 O   0  0  0  0  0  0  0  0  0  0  0  0
   -0.2320  -13.0320    2.7260 C   0  0  0  0  0  0  0  0  0  0  0  0
   -0.3240  -13.9310    3.7660 C   0  0  0  0  0  0  0  0  0  0  0  0
    0.0620  -13.6600    5.0280 N   0  0  0  0  0  0  0  0  0  0  0  0
    0.5290  -12.4290    5.2640 C   0  0  0  0  0  0  0  0  0  0  0  0
    0.9230  -12.0480    6.5300 N   0  0  0  0  0  0  0  0  0  0  0  0
    2.1340  -11.2620    6.7470 C   0  0  0  0  0  0  0  0  0  0  0  0
    2.2420  -10.7070    8.1730 C   0  0  0  0  0  0  0  0  0  0  0  0
    3.4780  -11.2250    8.8980 C   0  0  0  0  0  0  0  0  0  0  0  0
    4.6940  -10.9190    8.1110 N   0  0  0  0  0  0  0  0  0  0  0  0
    6.1910  -11.0850    8.8820 S   0  0  0  0  0  0  0  0  0  0  0  0
    6.3830  -12.8560    8.9550 C   0  0  0  0  0  0  0  0  0  0  0  0
    7.2080  -10.5640    7.9940 O   0  0  0  0  0  0  0  0  0  0  0  0
    6.0600  -10.6010   10.2390 O   0  0  0  0  0  0  0  0  0  0  0  0
    4.6360  -11.1910    6.6560 C   0  0  0  0  0  0  0  0  0  0  0  0
    3.3960  -11.9860    6.2770 C   0  0  0  0  0  0  0  0  0  0  0  0
    0.6540  -11.4910    4.3210 N   0  0  0  0  0  0  0  0  0  0  0  0
    0.2670  -11.7840    3.0650 C   0  0  0  0  0  0  0  0  0  0  0  0
    0.4700  -10.7670    2.1130 N   0  0  0  0  0  0  0  0  0  0  0  0
    3.9469  -13.5286    2.6611 H   0  0  0  0  0  0  0  0  0  0  0  0
    3.8596  -14.4225    1.1055 H   0  0  0  0  0  0  0  0  0  0  0  0
    4.0342  -12.6348    1.1055 H   0  0  0  0  0  0  0  0  0  0  0  0
    3.5126  -14.8241   -0.0948 H   0  0  0  0  0  0  0  0  0  0  0  0
    2.5009  -16.1143   -1.9836 H   0  0  0  0  0  0  0  0  0  0  0  0
   -0.7367  -14.9283    3.5535 H   0  0  0  0  0  0  0  0  0  0  0  0
    0.0870  -11.6930    6.9860 H   0  0  0  0  0  0  0  0  0  0  0  0
    2.0436  -10.3759    6.1015 H   0  0  0  0  0  0  0  0  0  0  0  0
    2.2940   -9.6094    8.1233 H   0  0  0  0  0  0  0  0  0  0  0  0
    1.3562  -11.0398    8.7338 H   0  0  0  0  0  0  0  0  0  0  0  0
    3.5511  -10.7419    9.8835 H   0  0  0  0  0  0  0  0  0  0  0  0
    3.3933  -12.3148    9.0213 H   0  0  0  0  0  0  0  0  0  0  0  0
    6.4179  -13.1780   10.0062 H   0  0  0  0  0  0  0  0  0  0  0  0
    5.5319  -13.3381    8.4519 H   0  0  0  0  0  0  0  0  0  0  0  0
    7.3177  -13.1445    8.4519 H   0  0  0  0  0  0  0  0  0  0  0  0
    4.6234  -10.2331    6.1153 H   0  0  0  0  0  0  0  0  0  0  0  0
    5.5196  -11.7875    6.3851 H   0  0  0  0  0  0  0  0  0  0  0  0
    3.3607  -12.1031    5.1838 H   0  0  0  0  0  0  0  0  0  0  0  0
    3.4428  -12.9724    6.7617 H   0  0  0  0  0  0  0  0  0  0  0  0
    1.4120  -10.8410    1.7380 H   0  0  0  0  0  0  0  0  0  0  0  0
   -0.1350  -10.9590    1.3090 H   0  0  0  0  0  0  0  0  0  0  0  0
  1  2  1  0
  2  3  1  0
  3  4  2  0
  4  5  1  0
  5  6  2  0
  6  7  1  0
  6  8  1  0
  8  9  1  0
  8 10  2  0
 10 11  1  0
 11 12  2  0
 11 13  1  0
 13 14  2  0
 14 15  1  0
 15 16  2  0
 16 17  1  0
 17 18  1  0
 18 19  1  0
 19 20  1  0
 20 21  1  0
 21 22  1  0
 22 23  1  0
 22 24  2  0
 22 25  2  0
 21 26  1  0
 26 27  1  0
 16 28  1  0
 28 29  2  0
 29 30  1  0
 10  3  1  0
 29 13  1  0
 27 18  1  0
  1 31  1  0
  1 32  1  0
  1 33  1  0
  4 34  1  0
  5 35  1  0
 14 36  1  0
 17 37  1  0
 18 38  1  0
 19 39  1  0
 19 40  1  0
 20 41  1  0
 20 42  1  0
 23 43  1  0
 23 44  1  0
 23 45  1  0
 26 46  1  0
 26 47  1  0
 27 48  1  0
 27 49  1  0
 30 50  1  0
 30 51  1  0
M  END
>  <meeko>  (6) 
{"is_sidechain": [false], "free_energy": -7.409, "intermolecular_energy": -11.431, "internal_energy": 0.315}

$$$$
2fvd_ligand
     RDKit          3D

 51 53  0  0  0  0  0  0  0  0999 V2000
    6.3590  -13.7630    8.8480 C   0  0  0  0  0  0  0  0  0  0  0  0
    5.7940  -12.9120    7.8470 O   0  0  0  0  0  0  0  0  0  0  0  0
    5.8610  -11.6000    8.2320 C   0  0  0  0  0  0  0  0  0  0  0  0
    7.1090  -10.9980    8.4130 C   0  0  0  0  0  0  0  0  0  0  0  0
    7.1840   -9.6850    8.8850 C   0  0  0  0  0  0  0  0  0  0  0  0
    6.0140   -8.9940    9.1890 C   0  0  0  0  0  0  0  0  0  0  0  0
    6.0940   -7.7410    9.6550 F   0  0  0  0  0  0  0  0  0  0  0  0
    4.7720   -9.5970    9.0280 C   0  0  0  0  0  0  0  0  0  0  0  0
    3.6570   -8.9210    9.3440 F   0  0  0  0  0  0  0  0  0  0  0  0
    4.6930  -10.9040    8.5570 C   0  0  0  0  0  0  0  0  0  0  0  0
    3.3710  -11.5170    8.3640 C   0  0  0  0  0  0  0  0  0  0  0  0
    2.8630  -12.1020    9.3170 O   0  0  0  0  0  0  0  0  0  0  0  0
    2.6870  -11.4500    7.0540 C   0  0  0  0  0  0  0  0  0  0  0  0
    3.3660  -11.5820    5.8630 C   0  0  0  0  0  0  0  0  0  0  0  0
    2.7760  -11.5210    4.6530 N   0  0  0  0  0  0  0  0  0  0  0  0
    1.4600  -11.2860    4.6350 C   0  0  0  0  0  0  0  0  0  0  0  0
    0.7720  -11.1790    3.4440 N   0  0  0  0  0  0  0  0  0  0  0  0
    0.7490  -12.2730    2.4770 C   0  0  0  0  0  0  0  0  0  0  0  0
   -0.4030  -13.2590    2.7140 C   0  0  0  0  0  0  0  0  0  0  0  0
   -1.3530  -13.3270    1.5260 C   0  0  0  0  0  0  0  0  0  0  0  0
   -0.6040  -13.6650    0.2950 N   0  0  0  0  0  0  0  0  0  0  0  0
   -1.4960  -14.1360   -1.0650 S   0  0  0  0  0  0  0  0  0  0  0  0
   -0.4480  -13.6020   -2.4050 C   0  0  0  0  0  0  0  0  0  0  0  0
   -1.5430  -15.5820   -1.0860 O   0  0  0  0  0  0  0  0  0  0  0  0
   -2.7060  -13.3440   -1.1110 O   0  0  0  0  0  0  0  0  0  0  0  0
    0.6680  -12.9410    0.0650 C   0  0  0  0  0  0  0  0  0  0  0  0
    0.8430  -11.7800    1.0330 C   0  0  0  0  0  0  0  0  0  0  0  0
    0.7190  -11.1430    5.7370 N   0  0  0  0  0  0  0  0  0  0  0  0
    1.3260  -11.2120    6.9370 C   0  0  0  0  0  0  0  0  0  0  0  0
    0.4800  -11.1000    8.0550 N   0  0  0  0  0  0  0  0  0  0  0  0
    6.1024  -13.3764    9.8454 H   0  0  0  0  0  0  0  0  0  0  0  0
    5.9564  -14.7803    8.7343 H   0  0  0  0  0  0  0  0  0  0  0  0
    7.4528  -13.7868    8.7343 H   0  0  0  0  0  0  0  0  0  0  0  0
    8.0292  -11.5558    8.1847 H   0  0  0  0  0  0  0  0  0  0  0  0
    8.1624   -9.1997    9.0158 H   0  0  0  0  0  0  0  0  0  0  0  0
    4.4529  -11.7468    5.9017 H   0  0  0  0  0  0  0  0  0  0  0  0
   -0.1360  -10.7900    3.6830 H   0  0  0  0  0  0  0  0  0  0  0  0
    1.6649  -12.8568    2.6510 H   0  0  0  0  0  0  0  0  0  0  0  0
    0.0176  -14.2602    2.8895 H   0  0  0  0  0  0  0  0  0  0  0  0
   -0.9752  -12.9079    3.5854 H   0  0  0  0  0  0  0  0  0  0  0  0
   -2.1141  -14.0990    1.7124 H   0  0  0  0  0  0  0  0  0  0  0  0
   -1.8373  -12.3480    1.3956 H   0  0  0  0  0  0  0  0  0  0  0  0
    0.4620  -13.1383   -1.9964 H   0  0  0  0  0  0  0  0  0  0  0  0
   -0.1720  -14.4694   -3.0226 H   0  0  0  0  0  0  0  0  0  0  0  0
   -0.9875  -12.8689   -3.0226 H   0  0  0  0  0  0  0  0  0  0  0  0
    1.5052  -13.6425    0.1959 H   0  0  0  0  0  0  0  0  0  0  0  0
    0.6484  -12.5333   -0.9565 H   0  0  0  0  0  0  0  0  0  0  0  0
    1.8280  -11.3180    0.8709 H   0  0  0  0  0  0  0  0  0  0  0  0
    0.0464  -11.0427    0.8545 H   0  0  0  0  0  0  0  0  0  0  0  0
    0.2170  -12.0290    8.3730 H   0  0  0  0  0  0  0  0  0  0  0  0
    1.0270  -10.7150    8.8310 H   0  0  0  0  0  0  0  0  0  0  0  0
  1  2  1  0
  2  3  1  0
  3  4  2  0
  4  5  1  0
  5  6  2  0
  6  7  1  0
  6  8  1  0
  8  9  1  0
  8 10  2  0
 10 11  1  0
 11 12  2  0
 11 13  1  0
 13 14  2  0
 14 15  1  0
 15 16  2  0
 16 17  1  0
 17 18  1  0
 18 19  1  0
 19 20  1  0
 20 21  1  0
 21 22  1  0
 22 23  1  0
 22 24  2  0
 22 25  2  0
 21 26  1  0
 26 27  1  0
 16 28  1  0
 28 29  2  0
 29 30  1  0
 10  3  1  0
 29 13  1  0
 27 18  1  0
  1 31  1  0
  1 32  1  0
  1 33  1  0
  4 34  1  0
  5 35  1  0
 14 36  1  0
 17 37  1  0
 18 38  1  0
 19 39  1  0
 19 40  1  0
 20 41  1  0
 20 42  1  0
 23 43  1  0
 23 44  1  0
 23 45  1  0
 26 46  1  0
 26 47  1  0
 27 48  1  0
 27 49  1  0
 30 50  1  0
 30 51  1  0
M  END
>  <meeko>  (7) 
{"is_sidechain": [false], "free_energy": -7.38, "intermolecular_energy": -9.974, "internal_energy": -1.102}

$$$$
2fvd_ligand
     RDKit          3D

 51 53  0  0  0  0  0  0  0  0999 V2000
    1.2680   -9.5030    8.8000 C   0  0  0  0  0  0  0  0  0  0  0  0
    2.0780  -10.5400    9.3610 O   0  0  0  0  0  0  0  0  0  0  0  0
    3.4080  -10.2470    9.2160 C   0  0  0  0  0  0  0  0  0  0  0  0
    3.9360   -9.1140    9.8420 C   0  0  0  0  0  0  0  0  0  0  0  0
    5.2710   -8.7640    9.6300 C   0  0  0  0  0  0  0  0  0  0  0  0
    6.0610   -9.5380    8.7840 C   0  0  0  0  0  0  0  0  0  0  0  0
    7.3370   -9.1890    8.5760 F   0  0  0  0  0  0  0  0  0  0  0  0
    5.5340  -10.6550    8.1470 C   0  0  0  0  0  0  0  0  0  0  0  0
    6.3060  -11.3770    7.3210 F   0  0  0  0  0  0  0  0  0  0  0  0
    4.2040  -11.0070    8.3550 C   0  0  0  0  0  0  0  0  0  0  0  0
    3.6690  -12.2070    7.6960 C   0  0  0  0  0  0  0  0  0  0  0  0
    3.5550  -13.2300    8.3660 O   0  0  0  0  0  0  0  0  0  0  0  0
    3.3010  -12.1860    6.2640 C   0  0  0  0  0  0  0  0  0  0  0  0
    2.2590  -11.4230    5.7850 C   0  0  0  0  0  0  0  0  0  0  0  0
    1.8930  -11.3830    4.4880 N   0  0  0  0  0  0  0  0  0  0  0  0
    2.5780  -12.1620    3.6440 C   0  0  0  0  0  0  0  0  0  0  0  0
    2.2600  -12.2110    2.3030 N   0  0  0  0  0  0  0  0  0  0  0  0
    1.7190  -13.4210    1.6920 C   0  0  0  0  0  0  0  0  0  0  0  0
    0.2340  -13.2960    1.3250 C   0  0  0  0  0  0  0  0  0  0  0  0
   -0.0040  -13.4640   -0.1700 C   0  0  0  0  0  0  0  0  0  0  0  0
    0.5550  -14.7550   -0.6320 N   0  0  0  0  0  0  0  0  0  0  0  0
    0.1000  -15.3050   -2.1660 S   0  0  0  0  0  0  0  0  0  0  0  0
   -1.0110  -14.0220   -2.7120 C   0  0  0  0  0  0  0  0  0  0  0  0
    1.2710  -15.2700   -3.0160 O   0  0  0  0  0  0  0  0  0  0  0  0
   -0.6740  -16.5160   -2.0030 O   0  0  0  0  0  0  0  0  0  0  0  0
    1.9090  -15.1100   -0.1480 C   0  0  0  0  0  0  0  0  0  0  0  0
    2.5890  -13.9390    0.5460 C   0  0  0  0  0  0  0  0  0  0  0  0
    3.6010  -12.9370    4.0170 N   0  0  0  0  0  0  0  0  0  0  0  0
    3.9530  -12.9590    5.3150 C   0  0  0  0  0  0  0  0  0  0  0  0
    5.0680  -13.7580    5.6300 N   0  0  0  0  0  0  0  0  0  0  0  0
    0.8100   -8.9167    9.6102 H   0  0  0  0  0  0  0  0  0  0  0  0
    1.8934   -8.8446    8.1792 H   0  0  0  0  0  0  0  0  0  0  0  0
    0.4777   -9.9503    8.1792 H   0  0  0  0  0  0  0  0  0  0  0  0
    3.3021   -8.5005   10.4991 H   0  0  0  0  0  0  0  0  0  0  0  0
    5.6966   -7.8809   10.1290 H   0  0  0  0  0  0  0  0  0  0  0  0
    1.6926  -10.8108    6.5023 H   0  0  0  0  0  0  0  0  0  0  0  0
    1.7420  -11.3570    2.1100 H   0  0  0  0  0  0  0  0  0  0  0  0
    1.7571  -14.1996    2.4681 H   0  0  0  0  0  0  0  0  0  0  0  0
   -0.3307  -14.0716    1.8632 H   0  0  0  0  0  0  0  0  0  0  0  0
   -0.1010  -12.2877    1.6096 H   0  0  0  0  0  0  0  0  0  0  0  0
   -1.0853  -13.4429   -0.3710 H   0  0  0  0  0  0  0  0  0  0  0  0
    0.4926  -12.6432   -0.7082 H   0  0  0  0  0  0  0  0  0  0  0  0
   -1.4474  -13.5180   -1.8370 H   0  0  0  0  0  0  0  0  0  0  0  0
   -0.4566  -13.2902   -3.3179 H   0  0  0  0  0  0  0  0  0  0  0  0
   -1.8145  -14.4661   -3.3179 H   0  0  0  0  0  0  0  0  0  0  0  0
    1.8248  -15.9447    0.5634 H   0  0  0  0  0  0  0  0  0  0  0  0
    2.5194  -15.3910   -1.0189 H   0  0  0  0  0  0  0  0  0  0  0  0
    3.5586  -14.2688    0.9474 H   0  0  0  0  0  0  0  0  0  0  0  0
    2.7379  -13.1292   -0.1834 H   0  0  0  0  0  0  0  0  0  0  0  0
    5.1140  -13.8900    6.6370 H   0  0  0  0  0  0  0  0  0  0  0  0
    4.8990  -14.6990    5.2620 H   0  0  0  0  0  0  0  0  0  0  0  0
  1  2  1  0
  2  3  1  0
  3  4  2  0
  4  5  1  0
  5  6  2  0
  6  7  1  0
  6  8  1  0
  8  9  1  0
  8 10  2  0
 10 11  1  0
 11 12  2  0
 11 13  1  0
 13 14  2  0
 14 15  1  0
 15 16  2  0
 16 17  1  0
 17 18  1  0
 18 19  1  0
 19 20  1  0
 20 21  1  0
 21 22  1  0
 22 23  1  0
 22 24  2  0
 22 25  2  0
 21 26  1  0
 26 27  1  0
 16 28  1  0
 28 29  2  0
 29 30  1  0
 10  3  1  0
 29 13  1  0
 27 18  1  0
  1 31  1  0
  1 32  1  0
  1 33  1  0
  4 34  1  0
  5 35  1  0
 14 36  1  0
 17 37  1  0
 18 38  1  0
 19 39  1  0
 19 40  1  0
 20 41  1  0
 20 42  1  0
 23 43  1  0
 23 44  1  0
 23 45  1  0
 26 46  1  0
 26 47  1  0
 27 48  1  0
 27 49  1  0
 30 50  1  0
 30 51  1  0
M  END
>  <meeko>  (8) 
{"is_sidechain": [false], "free_energy": -7.378, "intermolecular_energy": -9.733, "internal_energy": -1.341}

$$$$
2fvd_ligand
     RDKit          3D

 51 53  0  0  0  0  0  0  0  0999 V2000
    6.7540  -10.0030    7.5980 C   0  0  0  0  0  0  0  0  0  0  0  0
    5.8750  -10.9720    8.1760 O   0  0  0  0  0  0  0  0  0  0  0  0
    4.7700  -10.3660    8.7110 C   0  0  0  0  0  0  0  0  0  0  0  0
    4.9150   -9.1720    9.4230 C   0  0  0  0  0  0  0  0  0  0  0  0
    3.8040   -8.5940   10.0410 C   0  0  0  0  0  0  0  0  0  0  0  0
    2.5640   -9.2210    9.9580 C   0  0  0  0  0  0  0  0  0  0  0  0
    1.5070   -8.6670   10.5650 F   0  0  0  0  0  0  0  0  0  0  0  0
    2.4200  -10.4180    9.2660 C   0  0  0  0  0  0  0  0  0  0  0  0
    1.2210  -11.0170    9.2130 F   0  0  0  0  0  0  0  0  0  0  0  0
    3.5240  -10.9970    8.6480 C   0  0  0  0  0  0  0  0  0  0  0  0
    3.3500  -12.2480    7.8960 C   0  0  0  0  0  0  0  0  0  0  0  0
    3.5210  -13.3070    8.4930 O   0  0  0  0  0  0  0  0  0  0  0  0
    3.0000  -12.2270    6.4590 C   0  0  0  0  0  0  0  0  0  0  0  0
    1.7170  -11.9900    6.0190 C   0  0  0  0  0  0  0  0  0  0  0  0
    1.3620  -11.9680    4.7180 N   0  0  0  0  0  0  0  0  0  0  0  0
    2.3250  -12.2240    3.8260 C   0  0  0  0  0  0  0  0  0  0  0  0
    2.0540  -12.2520    2.4750 N   0  0  0  0  0  0  0  0  0  0  0  0
    1.6280  -13.4780    1.8080 C   0  0  0  0  0  0  0  0  0  0  0  0
    0.1220  -13.5090    1.5140 C   0  0  0  0  0  0  0  0  0  0  0  0
   -0.1690  -13.6130    0.0220 C   0  0  0  0  0  0  0  0  0  0  0  0
    0.5120  -14.7980   -0.5470 N   0  0  0  0  0  0  0  0  0  0  0  0
    0.0480  -15.3040   -2.0940 S   0  0  0  0  0  0  0  0  0  0  0  0
   -1.1130  -14.0370   -2.5720 C   0  0  0  0  0  0  0  0  0  0  0  0
    1.2020  -15.1980   -2.9610 O   0  0  0  0  0  0  0  0  0  0  0  0
   -0.6840  -16.5450   -1.9660 O   0  0  0  0  0  0  0  0  0  0  0  0
    1.9210  -15.0170   -0.1470 C   0  0  0  0  0  0  0  0  0  0  0  0
    2.4940  -13.8170    0.5940 C   0  0  0  0  0  0  0  0  0  0  0  0
    3.5970  -12.4670    4.1590 N   0  0  0  0  0  0  0  0  0  0  0  0
    3.9310  -12.4800    5.4630 C   0  0  0  0  0  0  0  0  0  0  0  0
    5.2940  -12.6940    5.7400 N   0  0  0  0  0  0  0  0  0  0  0  0
    7.2609   -9.4442    8.3985 H   0  0  0  0  0  0  0  0  0  0  0  0
    7.5038  -10.5132    6.9755 H   0  0  0  0  0  0  0  0  0  0  0  0
    6.1733   -9.3064    6.9755 H   0  0  0  0  0  0  0  0  0  0  0  0
    5.9007   -8.6893    9.4963 H   0  0  0  0  0  0  0  0  0  0  0  0
    3.9084   -7.6472   10.5911 H   0  0  0  0  0  0  0  0  0  0  0  0
    0.9363  -11.8081    6.7722 H   0  0  0  0  0  0  0  0  0  0  0  0
    1.4790  -11.4340    2.2910 H   0  0  0  0  0  0  0  0  0  0  0  0
    1.7956  -14.2929    2.5276 H   0  0  0  0  0  0  0  0  0  0  0  0
   -0.3209  -14.3777    2.0231 H   0  0  0  0  0  0  0  0  0  0  0  0
   -0.3137  -12.5673    1.8791 H   0  0  0  0  0  0  0  0  0  0  0  0
   -1.2541  -13.7082   -0.1314 H   0  0  0  0  0  0  0  0  0  0  0  0
    0.2018  -12.7080   -0.4814 H   0  0  0  0  0  0  0  0  0  0  0  0
   -1.5394  -13.5717   -1.6711 H   0  0  0  0  0  0  0  0  0  0  0  0
   -0.5956  -13.2722   -3.1698 H   0  0  0  0  0  0  0  0  0  0  0  0
   -1.9200  -14.4858   -3.1698 H   0  0  0  0  0  0  0  0  0  0  0  0
    1.9713  -15.8978    0.5100 H   0  0  0  0  0  0  0  0  0  0  0  0
    2.5149  -15.1690   -1.0603 H   0  0  0  0  0  0  0  0  0  0  0  0
    3.5144  -14.0522    0.9308 H   0  0  0  0  0  0  0  0  0  0  0  0
    2.5107  -12.9522   -0.0856 H   0  0  0  0  0  0  0  0  0  0  0  0
    5.4360  -12.7020    6.7460 H   0  0  0  0  0  0  0  0  0  0  0  0
    5.5330  -13.6460    5.4450 H   0  0  0  0  0  0  0  0  0  0  0  0
  1  2  1  0
  2  3  1  0
  3  4  2  0
  4  5  1  0
  5  6  2  0
  6  7  1  0
  6  8  1  0
  8  9  1  0
  8 10  2  0
 10 11  1  0
 11 12  2  0
 11 13  1  0
 13 14  2  0
 14 15  1  0
 15 16  2  0
 16 17  1  0
 17 18  1  0
 18 19  1  0
 19 20  1  0
 20 21  1  0
 21 22  1  0
 22 23  1  0
 22 24  2  0
 22 25  2  0
 21 26  1  0
 26 27  1  0
 16 28  1  0
 28 29  2  0
 29 30  1  0
 10  3  1  0
 29 13  1  0
 27 18  1  0
  1 31  1  0
  1 32  1  0
  1 33  1  0
  4 34  1  0
  5 35  1  0
 14 36  1  0
 17 37  1  0
 18 38  1  0
 19 39  1  0
 19 40  1  0
 20 41  1  0
 20 42  1  0
 23 43  1  0
 23 44  1  0
 23 45  1  0
 26 46  1  0
 26 47  1  0
 27 48  1  0
 27 49  1  0
 30 50  1  0
 30 51  1  0
M  END
>  <meeko>  (9) 
{"is_sidechain": [false], "free_energy": -7.255, "intermolecular_energy": -9.416, "internal_energy": -1.488}

$$$$
