
     RDKit          3D

 36 40  0  0  0  0  0  0  0  0999 V2000
    2.2090   -6.1570    6.8630 C   0  0  0  0  0  0  0  0  0  0  0  0
    3.6540   -6.3140    6.5580 C   0  0  0  0  0  0  0  0  0  0  0  0
    4.3970   -5.3440    6.4380 O   0  0  0  0  0  0  0  0  0  0  0  0
    4.2580   -7.7310    6.5230 C   0  0  1  0  0  0  0  0  0  0  0  0
    5.6150   -7.6060    6.1600 O   0  0  0  0  0  0  0  0  0  0  0  0
    4.1160   -8.2980    7.9570 C   0  0  0  0  0  0  0  0  0  0  0  0
    4.7210   -9.6400    8.0510 C   0  0  0  0  0  0  0  0  0  0  0  0
    4.7010  -10.5420    6.9470 C   0  0  0  0  0  0  0  0  0  0  0  0
    5.3680  -11.8250    7.0540 C   0  0  0  0  0  0  0  0  0  0  0  0
    5.3540  -12.6120    6.0900 O   0  0  0  0  0  0  0  0  0  0  0  0
    6.0300  -12.1800    8.2980 C   0  0  0  0  0  0  0  0  0  0  0  0
    6.7080  -13.4570    8.4030 C   0  0  0  0  0  0  0  0  0  0  0  0
    6.7220  -14.2480    7.4340 O   0  0  0  0  0  0  0  0  0  0  0  0
    7.3560  -13.8050    9.6390 C   0  0  0  0  0  0  0  0  0  0  0  0
    8.0430  -15.0460    9.7600 C   0  0  0  0  0  0  0  0  0  0  0  0
    8.6770  -15.3800   10.9450 C   0  0  0  0  0  0  0  0  0  0  0  0
    8.6460  -14.5200   12.0390 C   0  0  0  0  0  0  0  0  0  0  0  0
    7.9720  -13.2980   11.9410 C   0  0  0  0  0  0  0  0  0  0  0  0
    7.3330  -12.9200   10.7480 C   0  0  0  0  0  0  0  0  0  0  0  0
    6.6680  -11.6510   10.6550 C   0  0  0  0  0  0  0  0  0  0  0  0
    6.6450  -10.8850   11.6400 O   0  0  0  0  0  0  0  0  0  0  0  0
    6.0230  -11.2890    9.4090 C   0  0  0  0  0  0  0  0  0  0  0  0
    5.3690   -9.9930    9.2960 C   0  0  0  0  0  0  0  0  0  0  0  0
    5.3580   -9.1910   10.2530 O   0  0  0  0  0  0  0  0  0  0  0  0
    4.0170  -10.1840    5.6480 C   0  0  2  0  0  0  0  0  0  0  0  0
    4.9190  -10.4440    4.5580 O   0  0  0  0  0  0  0  0  0  0  0  0
    4.3540  -10.3480    3.2440 C   0  0  2  0  0  0  0  0  0  0  0  0
    4.1810  -11.7190    2.5930 C   0  0  0  0  0  0  0  0  0  0  0  0
    5.5190  -12.2620    2.1070 C   0  0  1  0  0  0  0  0  0  0  0  0
    5.2950  -13.5260    1.3960 N   0  0  0  0  0  0  0  0  0  0  0  0
    6.1670  -11.2360    1.2190 C   0  0  2  0  0  0  0  0  0  0  0  0
    7.3600  -11.7340    0.6540 O   0  0  0  0  0  0  0  0  0  0  0  0
    6.4370  -10.0010    2.0430 C   0  0  1  0  0  0  0  0  0  0  0  0
    7.2030   -8.9190    1.2750 C   0  0  0  0  0  0  0  0  0  0  0  0
    5.1750   -9.4440    2.4830 O   0  0  0  0  0  0  0  0  0  0  0  0
    3.5500   -8.6970    5.5610 C   0  0  0  0  0  0  0  0  0  0  0  0
  2  1  1  0
  3  2  2  0
  4  2  1  0
  4  5  1  6
  6  4  1  0
  7  6  1  0
  8  7  2  0
  9  8  1  0
 10  9  2  0
 11  9  1  0
 12 11  1  0
 13 12  2  0
 14 12  1  0
 15 14  2  0
 16 15  1  0
 17 16  2  0
 18 17  1  0
 19 14  1  0
 19 18  2  0
 20 19  1  0
 21 20  2  0
 22 20  1  0
 22 11  2  0
 23  7  1  0
 23 22  1  0
 24 23  2  0
 25  8  1  0
 25 26  1  6
 27 26  1  1
 28 27  1  0
 29 28  1  0
 29 30  1  6
 31 29  1  0
 31 32  1  1
 33 31  1  0
 33 34  1  6
 35 27  1  0
 35 33  1  0
 36 25  1  0
 36  4  1  0
M  CHG  1  30   1
M  END
$$$$
