
     RDKit          3D

 22 24  0  0  0  0  0  0  0  0999 V2000
   -6.8530   -2.3640   -0.9920 O   0  0  0  0  0  0  0  0  0  0  0  0
   -6.1200   -2.4010   -0.0170 C   0  0  0  0  0  0  0  0  0  0  0  0
   -6.5980   -2.3050    1.3070 C   0  0  0  0  0  0  0  0  0  0  0  0
   -5.7230   -2.3400    2.3580 C   0  0  0  0  0  0  0  0  0  0  0  0
   -4.3680   -2.4580    2.1500 N   0  0  0  0  0  0  0  0  0  0  0  0
   -3.4140   -2.5170    3.2960 C   0  0  2  0  0  0  0  0  0  0  0  0
   -4.1160   -2.9050    4.4770 O   0  0  0  0  0  0  0  0  0  0  0  0
   -3.8960   -1.9580    5.5030 C   0  0  2  0  0  0  0  0  0  0  0  0
   -5.1260   -1.7400    6.3500 C   0  0  0  0  0  0  0  0  0  0  0  0
   -5.3580   -2.8480    7.2910 N   0  0  0  0  0  0  0  0  0  0  0  0
   -6.7550   -3.3170    7.1950 C   0  0  0  0  0  0  0  0  0  0  0  0
   -7.0360   -4.4120    8.2100 C   0  0  0  0  0  0  0  0  0  0  0  0
   -6.7320   -3.9090    9.6290 C   0  0  0  0  0  0  0  0  0  0  0  0
   -5.2600   -3.4790    9.6970 C   0  0  0  0  0  0  0  0  0  0  0  0
   -5.0000   -2.3840    8.6580 C   0  0  0  0  0  0  0  0  0  0  0  0
   -3.5000   -0.6630    4.7740 C   0  0  1  0  0  0  0  0  0  0  0  0
   -2.7120    0.1720    5.5890 O   0  0  0  0  0  0  0  0  0  0  0  0
   -2.7700   -1.1630    3.5560 C   0  0  1  0  0  0  0  0  0  0  0  0
   -1.3820   -1.3450    3.8600 O   0  0  0  0  0  0  0  0  0  0  0  0
   -3.8950   -2.5490    0.8580 C   0  0  0  0  0  0  0  0  0  0  0  0
   -2.6690   -2.6420    0.6620 O   0  0  0  0  0  0  0  0  0  0  0  0
   -4.7680   -2.5190   -0.1880 N   0  0  0  0  0  0  0  0  0  0  0  0
  2  1  2  0
  3  2  1  0
  4  3  2  0
  5  4  1  0
  6  5  1  6
  7  6  1  0
  8  7  1  0
  8  9  1  6
 10  9  1  0
 11 10  1  0
 12 11  1  0
 13 12  1  0
 14 13  1  0
 15 14  1  0
 15 10  1  0
 16  8  1  0
 16 17  1  1
 18 16  1  0
 18  6  1  0
 18 19  1  1
 20  5  1  0
 21 20  2  0
 22  2  1  0
 22 20  1  0
M  CHG  1  10   1
M  END
$$$$
