
     RDKit          3D

 18 20  0  0  0  0  0  0  0  0999 V2000
   -1.4440    2.8270   -1.0210 O   0  0  0  0  0  0  0  0  0  0  0  0
   -1.3650    4.0680   -1.1690 C   0  0  0  0  0  0  0  0  0  0  0  0
   -0.8950    4.6270   -2.3780 C   0  0  0  0  0  0  0  0  0  0  0  0
   -0.8230    6.0140   -2.5500 C   0  0  0  0  0  0  0  0  0  0  0  0
   -0.3320    6.6720   -3.7820 C   0  0  0  0  0  0  0  0  0  0  0  0
    0.2090    5.9240   -4.8470 C   0  0  0  0  0  0  0  0  0  0  0  0
    0.6820    6.5770   -5.9990 C   0  0  0  0  0  0  0  0  0  0  0  0
    0.6080    7.9570   -6.0810 C   0  0  0  0  0  0  0  0  0  0  0  0
    1.0580    8.5950   -7.1930 O   0  0  0  0  0  0  0  0  0  0  0  0
    0.0820    8.6930   -5.0450 C   0  0  0  0  0  0  0  0  0  0  0  0
   -0.3920    8.0510   -3.9010 C   0  0  0  0  0  0  0  0  0  0  0  0
   -1.2140    6.8530   -1.5280 O   0  0  0  0  0  0  0  0  0  0  0  0
   -1.6650    6.3550   -0.3480 C   0  0  0  0  0  0  0  0  0  0  0  0
   -2.0370    7.2800    0.6550 C   0  0  0  0  0  0  0  0  0  0  0  0
   -2.4910    6.8050    1.8920 C   0  0  0  0  0  0  0  0  0  0  0  0
   -2.5720    5.4380    2.1280 C   0  0  0  0  0  0  0  0  0  0  0  0
   -2.2090    4.5290    1.1490 C   0  0  0  0  0  0  0  0  0  0  0  0
   -1.7510    4.9740   -0.1100 C   0  0  0  0  0  0  0  0  0  0  0  0
  2  1  2  0
  3  2  1  0
  4  3  2  0
  5  4  1  0
  6  5  2  0
  7  6  1  0
  8  7  2  0
  9  8  1  0
 10  8  1  0
 11 10  2  0
 11  5  1  0
 12  4  1  0
 13 12  1  0
 14 13  2  0
 15 14  1  0
 16 15  2  0
 17 16  1  0
 18 17  2  0
 18  2  1  0
 18 13  1  0
M  END
$$$$
