1e66_ligand
     RDKit          3D

 41 44  0  0  0  0  0  0  0  0999 V2000
   -2.8250  -29.6520   -3.1080 C   0  0  0  0  0  0  0  0  0  0  0  0
   -3.1080  -29.6440   -4.6030 C   0  0  0  0  0  0  0  0  0  0  0  0
   -1.8470  -29.6910   -5.4370 C   0  0  0  0  0  0  0  0  0  0  0  0
   -1.8030  -30.3320   -6.6210 C   0  0  0  0  0  0  0  0  0  0  0  0
   -0.5700  -30.3760   -7.4930 C   0  0  2  0  0  0  0  0  0  0  0  0
    0.1540  -31.7180   -7.3110 C   0  0  0  0  0  0  0  0  0  0  0  0
    0.9310  -31.7960   -6.0210 C   0  0  0  0  0  0  0  0  0  0  0  0
    1.3820  -33.0040   -5.6460 N   0  0  0  0  0  0  0  0  0  0  0  0
    2.1010  -33.2240   -4.5320 C   0  0  0  0  0  0  0  0  0  0  0  0
    2.4880  -34.5330   -4.2100 C   0  0  0  0  0  0  0  0  0  0  0  0
    3.2160  -34.7740   -3.0480 C   0  0  0  0  0  0  0  0  0  0  0  0
    3.6830  -36.3800   -2.6580 Cl  0  0  0  0  0  0  0  0  0  0  0  0
    3.5620  -33.7260   -2.2050 C   0  0  0  0  0  0  0  0  0  0  0  0
    3.1820  -32.4190   -2.5260 C   0  0  0  0  0  0  0  0  0  0  0  0
    2.4480  -32.1330   -3.7020 C   0  0  0  0  0  0  0  0  0  0  0  0
    2.0440  -30.8320   -4.0960 C   0  0  0  0  0  0  0  0  0  0  0  0
    2.2760  -29.7120   -3.2760 N   0  0  0  0  0  0  0  0  0  0  0  0
    1.2370  -30.6710   -5.2380 C   0  0  0  0  0  0  0  0  0  0  0  0
    0.6830  -29.3000   -5.6360 C   0  0  2  0  0  0  0  0  0  0  0  0
   -0.6260  -28.9870   -4.8720 C   0  0  0  0  0  0  0  0  0  0  0  0
    0.4020  -29.2420   -7.1440 C   0  0  0  0  0  0  0  0  0  0  0  0
   -3.7754  -29.6251   -2.5548 H   0  0  0  0  0  0  0  0  0  0  0  0
   -2.2729  -30.5661   -2.8442 H   0  0  0  0  0  0  0  0  0  0  0  0
   -2.2221  -28.7705   -2.8442 H   0  0  0  0  0  0  0  0  0  0  0  0
   -3.7252  -30.5207   -4.8488 H   0  0  0  0  0  0  0  0  0  0  0  0
   -3.6261  -28.7025   -4.8376 H   0  0  0  0  0  0  0  0  0  0  0  0
   -2.7092  -30.8487   -6.9700 H   0  0  0  0  0  0  0  0  0  0  0  0
   -0.8968  -30.2568   -8.5366 H   0  0  0  0  0  0  0  0  0  0  0  0
   -0.5942  -32.5243   -7.3192 H   0  0  0  0  0  0  0  0  0  0  0  0
    0.8741  -31.8189   -8.1364 H   0  0  0  0  0  0  0  0  0  0  0  0
    1.1510  -33.8030   -6.2360 H   0  0  0  0  0  0  0  0  0  0  0  0
    2.2170  -35.3672   -4.8739 H   0  0  0  0  0  0  0  0  0  0  0  0
    4.1340  -33.9236   -1.2864 H   0  0  0  0  0  0  0  0  0  0  0  0
    3.4592  -31.5962   -1.8506 H   0  0  0  0  0  0  0  0  0  0  0  0
    3.1900  -29.2870   -3.4270 H   0  0  0  0  0  0  0  0  0  0  0  0
    1.5620  -28.9880   -3.3150 H   0  0  0  0  0  0  0  0  0  0  0  0
    1.4452  -28.5513   -5.3745 H   0  0  0  0  0  0  0  0  0  0  0  0
   -0.4995  -29.2984   -3.8246 H   0  0  0  0  0  0  0  0  0  0  0  0
   -0.8045  -27.9061   -4.9704 H   0  0  0  0  0  0  0  0  0  0  0  0
   -0.0487  -28.2723   -7.4020 H   0  0  0  0  0  0  0  0  0  0  0  0
    1.3382  -29.3556   -7.7102 H   0  0  0  0  0  0  0  0  0  0  0  0
  1  2  1  0
  2  3  1  0
  3  4  2  0
  4  5  1  0
  5  6  1  0
  6  7  1  0
  7  8  2  0
  8  9  1  0
  9 10  2  0
 10 11  1  0
 11 12  1  0
 11 13  2  0
 13 14  1  0
 14 15  2  0
 15 16  1  0
 16 17  1  0
 16 18  2  0
 18 19  1  0
 19 20  1  0
 19 21  1  0
 20  3  1  0
 21  5  1  0
 18  7  1  0
 15  9  1  0
  1 22  1  0
  1 23  1  0
  1 24  1  0
  2 25  1  0
  2 26  1  0
  4 27  1  0
  5 28  1  6
  6 29  1  0
  6 30  1  0
  8 31  1  0
 10 32  1  0
 13 33  1  0
 14 34  1  0
 17 35  1  0
 17 36  1  0
 19 37  1  6
 20 38  1  0
 20 39  1  0
 21 40  1  0
 21 41  1  0
M  CHG  1   8   1
M  END
>  <meeko>  (1) 
{"is_sidechain": [false], "free_energy": -8.083, "intermolecular_energy": -8.792, "internal_energy": -0.133}

$$$$
1e66_ligand
     RDKit          3D

 41 44  0  0  0  0  0  0  0  0999 V2000
    8.8230  -29.9780    6.9160 C   0  0  0  0  0  0  0  0  0  0  0  0
   10.0480  -29.0810    6.8060 C   0  0  0  0  0  0  0  0  0  0  0  0
   10.5490  -28.9480    5.3850 C   0  0  0  0  0  0  0  0  0  0  0  0
   10.8890  -27.7550    4.8620 C   0  0  0  0  0  0  0  0  0  0  0  0
   11.4200  -27.5880    3.4570 C   0  0  2  0  0  0  0  0  0  0  0  0
   10.2970  -27.1090    2.5250 C   0  0  0  0  0  0  0  0  0  0  0  0
    9.3370  -28.2090    2.1480 C   0  0  0  0  0  0  0  0  0  0  0  0
    8.1870  -27.8480    1.5570 N   0  0  0  0  0  0  0  0  0  0  0  0
    7.2460  -28.7170    1.1510 C   0  0  0  0  0  0  0  0  0  0  0  0
    6.0600  -28.2310    0.5810 C   0  0  0  0  0  0  0  0  0  0  0  0
    5.0700  -29.1230    0.1760 C   0  0  0  0  0  0  0  0  0  0  0  0
    3.6200  -28.5200   -0.5180 Cl  0  0  0  0  0  0  0  0  0  0  0  0
    5.2490  -30.4910    0.3330 C   0  0  0  0  0  0  0  0  0  0  0  0
    6.4330  -30.9780    0.8970 C   0  0  0  0  0  0  0  0  0  0  0  0
    7.4640  -30.1040    1.3150 C   0  0  0  0  0  0  0  0  0  0  0  0
    8.6940  -30.5300    1.8780 C   0  0  0  0  0  0  0  0  0  0  0  0
    8.9450  -31.8880    2.1520 N   0  0  0  0  0  0  0  0  0  0  0  0
    9.6140  -29.5720    2.3440 C   0  0  0  0  0  0  0  0  0  0  0  0
   10.9010  -29.9850    3.0630 C   0  0  2  0  0  0  0  0  0  0  0  0
   10.6430  -30.2260    4.5700 C   0  0  0  0  0  0  0  0  0  0  0  0
   11.9810  -28.9060    2.9120 C   0  0  0  0  0  0  0  0  0  0  0  0
    8.5884  -30.1498    7.9769 H   0  0  0  0  0  0  0  0  0  0  0  0
    7.9671  -29.4916    6.4253 H   0  0  0  0  0  0  0  0  0  0  0  0
    9.0283  -30.9408    6.4253 H   0  0  0  0  0  0  0  0  0  0  0  0
    9.7866  -28.0808    7.1819 H   0  0  0  0  0  0  0  0  0  0  0  0
   10.8513  -29.5418    7.3995 H   0  0  0  0  0  0  0  0  0  0  0  0
   10.7747  -26.8578    5.4880 H   0  0  0  0  0  0  0  0  0  0  0  0
   12.2294  -26.8440    3.4939 H   0  0  0  0  0  0  0  0  0  0  0  0
    9.7350  -26.3119    3.0337 H   0  0  0  0  0  0  0  0  0  0  0  0
   10.7683  -26.7506    1.5979 H   0  0  0  0  0  0  0  0  0  0  0  0
    8.0130  -26.8520    1.4210 H   0  0  0  0  0  0  0  0  0  0  0  0
    5.9123  -27.1484    0.4542 H   0  0  0  0  0  0  0  0  0  0  0  0
    4.4617  -31.1901    0.0147 H   0  0  0  0  0  0  0  0  0  0  0  0
    6.5651  -32.0633    1.0180 H   0  0  0  0  0  0  0  0  0  0  0  0
    9.8830  -32.0570    2.5130 H   0  0  0  0  0  0  0  0  0  0  0  0
    8.2670  -32.3420    2.7600 H   0  0  0  0  0  0  0  0  0  0  0  0
   11.2480  -30.9201    2.5990 H   0  0  0  0  0  0  0  0  0  0  0  0
    9.6966  -30.7764    4.6767 H   0  0  0  0  0  0  0  0  0  0  0  0
   11.5033  -30.7917    4.9571 H   0  0  0  0  0  0  0  0  0  0  0  0
   12.8769  -29.1934    3.4819 H   0  0  0  0  0  0  0  0  0  0  0  0
   12.2592  -28.7921    1.8539 H   0  0  0  0  0  0  0  0  0  0  0  0
  1  2  1  0
  2  3  1  0
  3  4  2  0
  4  5  1  0
  5  6  1  0
  6  7  1  0
  7  8  2  0
  8  9  1  0
  9 10  2  0
 10 11  1  0
 11 12  1  0
 11 13  2  0
 13 14  1  0
 14 15  2  0
 15 16  1  0
 16 17  1  0
 16 18  2  0
 18 19  1  0
 19 20  1  0
 19 21  1  0
 20  3  1  0
 21  5  1  0
 18  7  1  0
 15  9  1  0
  1 22  1  0
  1 23  1  0
  1 24  1  0
  2 25  1  0
  2 26  1  0
  4 27  1  0
  5 28  1  1
  6 29  1  0
  6 30  1  0
  8 31  1  0
 10 32  1  0
 13 33  1  0
 14 34  1  0
 17 35  1  0
 17 36  1  0
 19 37  1  6
 20 38  1  0
 20 39  1  0
 21 40  1  0
 21 41  1  0
M  CHG  1   8   1
M  END
>  <meeko>  (2) 
{"is_sidechain": [false], "free_energy": -8.014, "intermolecular_energy": -8.718, "internal_energy": -0.132}

$$$$
1e66_ligand
     RDKit          3D

 41 44  0  0  0  0  0  0  0  0999 V2000
   13.9230  -25.5050    2.5430 C   0  0  0  0  0  0  0  0  0  0  0  0
   13.8780  -27.0150    2.3650 C   0  0  0  0  0  0  0  0  0  0  0  0
   12.7750  -27.6660    3.1680 C   0  0  0  0  0  0  0  0  0  0  0  0
   12.6450  -29.0050    3.2380 C   0  0  0  0  0  0  0  0  0  0  0  0
   11.5720  -29.6910    4.0530 C   0  0  2  0  0  0  0  0  0  0  0  0
   10.4190  -30.1310    3.1390 C   0  0  0  0  0  0  0  0  0  0  0  0
    9.5270  -28.9880    2.7260 C   0  0  0  0  0  0  0  0  0  0  0  0
    8.6540  -29.2160    1.7320 N   0  0  0  0  0  0  0  0  0  0  0  0
    7.7860  -28.3000    1.2700 C   0  0  0  0  0  0  0  0  0  0  0  0
    6.9450  -28.6280    0.1970 C   0  0  0  0  0  0  0  0  0  0  0  0
    6.0570  -27.6790   -0.3020 C   0  0  0  0  0  0  0  0  0  0  0  0
    5.0320  -28.0870   -1.6180 Cl  0  0  0  0  0  0  0  0  0  0  0  0
    5.9990  -26.4080    0.2560 C   0  0  0  0  0  0  0  0  0  0  0  0
    6.8340  -26.0800    1.3290 C   0  0  0  0  0  0  0  0  0  0  0  0
    7.7440  -27.0190    1.8680 C   0  0  0  0  0  0  0  0  0  0  0  0
    8.6060  -26.7580    2.9630 C   0  0  0  0  0  0  0  0  0  0  0  0
    8.6830  -25.4810    3.5500 N   0  0  0  0  0  0  0  0  0  0  0  0
    9.5400  -27.7350    3.3610 C   0  0  0  0  0  0  0  0  0  0  0  0
   10.5670  -27.4560    4.4610 C   0  0  2  0  0  0  0  0  0  0  0  0
   11.8130  -26.7380    3.8880 C   0  0  0  0  0  0  0  0  0  0  0  0
   11.0130  -28.7600    5.1350 C   0  0  0  0  0  0  0  0  0  0  0  0
   13.9302  -25.2623    3.6159 H   0  0  0  0  0  0  0  0  0  0  0  0
   14.8334  -25.1071    2.0709 H   0  0  0  0  0  0  0  0  0  0  0  0
   13.0379  -25.0536    2.0709 H   0  0  0  0  0  0  0  0  0  0  0  0
   13.7168  -27.2389    1.3002 H   0  0  0  0  0  0  0  0  0  0  0  0
   14.8347  -27.4201    2.7264 H   0  0  0  0  0  0  0  0  0  0  0  0
   13.3540  -29.6297    2.6748 H   0  0  0  0  0  0  0  0  0  0  0  0
   12.0304  -30.5660    4.5369 H   0  0  0  0  0  0  0  0  0  0  0  0
   10.8442  -30.5888    2.2337 H   0  0  0  0  0  0  0  0  0  0  0  0
    9.8014  -30.8423    3.7069 H   0  0  0  0  0  0  0  0  0  0  0  0
    8.6620  -30.1360    1.2930 H   0  0  0  0  0  0  0  0  0  0  0  0
    6.9868  -29.6325   -0.2493 H   0  0  0  0  0  0  0  0  0  0  0  0
    5.2979  -25.6613   -0.1452 H   0  0  0  0  0  0  0  0  0  0  0  0
    6.7819  -25.0705    1.7628 H   0  0  0  0  0  0  0  0  0  0  0  0
    7.8900  -24.8850    3.3150 H   0  0  0  0  0  0  0  0  0  0  0  0
    8.8200  -25.4720    4.5580 H   0  0  0  0  0  0  0  0  0  0  0  0
   10.0814  -26.8060    5.2037 H   0  0  0  0  0  0  0  0  0  0  0  0
   11.4748  -25.9693    3.1776 H   0  0  0  0  0  0  0  0  0  0  0  0
   12.3582  -26.3096    4.7420 H   0  0  0  0  0  0  0  0  0  0  0  0
   11.7924  -28.5460    5.8812 H   0  0  0  0  0  0  0  0  0  0  0  0
   10.1613  -29.2359    5.6431 H   0  0  0  0  0  0  0  0  0  0  0  0
  1  2  1  0
  2  3  1  0
  3  4  2  0
  4  5  1  0
  5  6  1  0
  6  7  1  0
  7  8  2  0
  8  9  1  0
  9 10  2  0
 10 11  1  0
 11 12  1  0
 11 13  2  0
 13 14  1  0
 14 15  2  0
 15 16  1  0
 16 17  1  0
 16 18  2  0
 18 19  1  0
 19 20  1  0
 19 21  1  0
 20  3  1  0
 21  5  1  0
 18  7  1  0
 15  9  1  0
  1 22  1  0
  1 23  1  0
  1 24  1  0
  2 25  1  0
  2 26  1  0
  4 27  1  0
  5 28  1  1
  6 29  1  0
  6 30  1  0
  8 31  1  0
 10 32  1  0
 13 33  1  0
 14 34  1  0
 17 35  1  0
 17 36  1  0
 19 37  1  1
 20 38  1  0
 20 39  1  0
 21 40  1  0
 21 41  1  0
M  CHG  1   8   1
M  END
>  <meeko>  (3) 
{"is_sidechain": [false], "free_energy": -7.989, "intermolecular_energy": -8.702, "internal_energy": -0.12}

$$$$
1e66_ligand
     RDKit          3D

 41 44  0  0  0  0  0  0  0  0999 V2000
   -2.8030  -29.5260   -3.4350 C   0  0  0  0  0  0  0  0  0  0  0  0
   -1.6360  -28.9290   -4.2070 C   0  0  0  0  0  0  0  0  0  0  0  0
   -0.5000  -29.9080   -4.3990 C   0  0  0  0  0  0  0  0  0  0  0  0
   -0.5180  -31.1340   -3.8390 C   0  0  0  0  0  0  0  0  0  0  0  0
    0.5850  -32.1480   -4.0320 C   0  0  2  0  0  0  0  0  0  0  0  0
    1.5130  -32.1550   -2.8080 C   0  0  0  0  0  0  0  0  0  0  0  0
    2.4530  -30.9770   -2.7770 C   0  0  0  0  0  0  0  0  0  0  0  0
    3.1180  -30.7490   -1.6330 N   0  0  0  0  0  0  0  0  0  0  0  0
    3.9990  -29.7490   -1.4630 C   0  0  0  0  0  0  0  0  0  0  0  0
    4.6090  -29.5740   -0.2120 C   0  0  0  0  0  0  0  0  0  0  0  0
    5.5080  -28.5290   -0.0200 C   0  0  0  0  0  0  0  0  0  0  0  0
    6.2480  -28.3190    1.5150 Cl  0  0  0  0  0  0  0  0  0  0  0  0
    5.8060  -27.6580   -1.0600 C   0  0  0  0  0  0  0  0  0  0  0  0
    5.2030  -27.8330   -2.3090 C   0  0  0  0  0  0  0  0  0  0  0  0
    4.2900  -28.8870   -2.5460 C   0  0  0  0  0  0  0  0  0  0  0  0
    3.6560  -29.1330   -3.7900 C   0  0  0  0  0  0  0  0  0  0  0  0
    3.8280  -28.2650   -4.8850 N   0  0  0  0  0  0  0  0  0  0  0  0
    2.6920  -30.1540   -3.8900 C   0  0  0  0  0  0  0  0  0  0  0  0
    1.9000  -30.3800   -5.1800 C   0  0  2  0  0  0  0  0  0  0  0  0
    0.6700  -29.4430   -5.2480 C   0  0  0  0  0  0  0  0  0  0  0  0
    1.4210  -31.8350   -5.2790 C   0  0  0  0  0  0  0  0  0  0  0  0
   -2.6157  -29.4302   -2.3553 H   0  0  0  0  0  0  0  0  0  0  0  0
   -3.7276  -28.9901   -3.6957 H   0  0  0  0  0  0  0  0  0  0  0  0
   -2.9095  -30.5893   -3.6957 H   0  0  0  0  0  0  0  0  0  0  0  0
   -1.9955  -28.6091   -5.1961 H   0  0  0  0  0  0  0  0  0  0  0  0
   -1.2489  -28.0825   -3.6209 H   0  0  0  0  0  0  0  0  0  0  0  0
   -1.3779  -31.4096   -3.2108 H   0  0  0  0  0  0  0  0  0  0  0  0
    0.1111  -33.1326   -4.1581 H   0  0  0  0  0  0  0  0  0  0  0  0
    0.8945  -32.1343   -1.8986 H   0  0  0  0  0  0  0  0  0  0  0  0
    2.1273  -33.0657   -2.8651 H   0  0  0  0  0  0  0  0  0  0  0  0
    2.9300  -31.3650   -0.8420 H   0  0  0  0  0  0  0  0  0  0  0  0
    4.3774  -30.2610    0.6153 H   0  0  0  0  0  0  0  0  0  0  0  0
    6.5151  -26.8322   -0.9012 H   0  0  0  0  0  0  0  0  0  0  0  0
    5.4438  -27.1359   -3.1252 H   0  0  0  0  0  0  0  0  0  0  0  0
    3.6360  -28.7100   -5.7820 H   0  0  0  0  0  0  0  0  0  0  0  0
    3.3150  -27.3890   -4.8320 H   0  0  0  0  0  0  0  0  0  0  0  0
    2.5741  -30.1571   -6.0202 H   0  0  0  0  0  0  0  0  0  0  0  0
    0.9748  -28.4443   -4.9019 H   0  0  0  0  0  0  0  0  0  0  0  0
    0.3268  -29.4387   -6.2931 H   0  0  0  0  0  0  0  0  0  0  0  0
    0.8063  -31.9644   -6.1820 H   0  0  0  0  0  0  0  0  0  0  0  0
    2.2825  -32.5162   -5.3407 H   0  0  0  0  0  0  0  0  0  0  0  0
  1  2  1  0
  2  3  1  0
  3  4  2  0
  4  5  1  0
  5  6  1  0
  6  7  1  0
  7  8  2  0
  8  9  1  0
  9 10  2  0
 10 11  1  0
 11 12  1  0
 11 13  2  0
 13 14  1  0
 14 15  2  0
 15 16  1  0
 16 17  1  0
 16 18  2  0
 18 19  1  0
 19 20  1  0
 19 21  1  0
 20  3  1  0
 21  5  1  0
 18  7  1  0
 15  9  1  0
  1 22  1  0
  1 23  1  0
  1 24  1  0
  2 25  1  0
  2 26  1  0
  4 27  1  0
  5 28  1  6
  6 29  1  0
  6 30  1  0
  8 31  1  0
 10 32  1  0
 13 33  1  0
 14 34  1  0
 17 35  1  0
 17 36  1  0
 19 37  1  6
 20 38  1  0
 20 39  1  0
 21 40  1  0
 21 41  1  0
M  CHG  1   8   1
M  END
>  <meeko>  (4) 
{"is_sidechain": [false], "free_energy": -7.691, "intermolecular_energy": -8.393, "internal_energy": -0.107}

$$$$
1e66_ligand
     RDKit          3D

 41 44  0  0  0  0  0  0  0  0999 V2000
    9.2840  -32.9260    6.9790 C   0  0  0  0  0  0  0  0  0  0  0  0
    9.4060  -31.4520    6.6250 C   0  0  0  0  0  0  0  0  0  0  0  0
   10.0910  -31.2250    5.2960 C   0  0  0  0  0  0  0  0  0  0  0  0
   11.1180  -30.3630    5.1660 C   0  0  0  0  0  0  0  0  0  0  0  0
   11.8440  -30.1320    3.8610 C   0  0  2  0  0  0  0  0  0  0  0  0
   11.3370  -28.8420    3.1990 C   0  0  0  0  0  0  0  0  0  0  0  0
    9.9890  -29.0080    2.5450 C   0  0  0  0  0  0  0  0  0  0  0  0
    9.3450  -27.8920    2.1690 N   0  0  0  0  0  0  0  0  0  0  0  0
    8.1470  -27.8850    1.5600 C   0  0  0  0  0  0  0  0  0  0  0  0
    7.5410  -26.6600    1.2460 C   0  0  0  0  0  0  0  0  0  0  0  0
    6.2910  -26.6420    0.6340 C   0  0  0  0  0  0  0  0  0  0  0  0
    5.5540  -25.1380    0.2560 Cl  0  0  0  0  0  0  0  0  0  0  0  0
    5.6380  -27.8300    0.3320 C   0  0  0  0  0  0  0  0  0  0  0  0
    6.2420  -29.0540    0.6400 C   0  0  0  0  0  0  0  0  0  0  0  0
    7.5150  -29.1130    1.2560 C   0  0  0  0  0  0  0  0  0  0  0  0
    8.1910  -30.3170    1.5800 C   0  0  0  0  0  0  0  0  0  0  0  0
    7.5860  -31.5730    1.3880 N   0  0  0  0  0  0  0  0  0  0  0  0
    9.4140  -30.2610    2.2760 C   0  0  0  0  0  0  0  0  0  0  0  0
   10.1220  -31.5340    2.7480 C   0  0  2  0  0  0  0  0  0  0  0  0
    9.5600  -32.0100    4.1100 C   0  0  0  0  0  0  0  0  0  0  0  0
   11.6310  -31.2990    2.8890 C   0  0  0  0  0  0  0  0  0  0  0  0
    9.2745  -33.0408    8.0730 H   0  0  0  0  0  0  0  0  0  0  0  0
    8.3495  -33.3276    6.5600 H   0  0  0  0  0  0  0  0  0  0  0  0
   10.1397  -33.4758    6.5600 H   0  0  0  0  0  0  0  0  0  0  0  0
    8.3969  -31.0164    6.5796 H   0  0  0  0  0  0  0  0  0  0  0  0
   10.0213  -30.9740    7.4015 H   0  0  0  0  0  0  0  0  0  0  0  0
   11.4440  -29.7999    6.0529 H   0  0  0  0  0  0  0  0  0  0  0  0
   12.9170  -30.0484    4.0884 H   0  0  0  0  0  0  0  0  0  0  0  0
   11.2597  -28.0598    3.9685 H   0  0  0  0  0  0  0  0  0  0  0  0
   12.0550  -28.5718    2.4106 H   0  0  0  0  0  0  0  0  0  0  0  0
    9.7880  -26.9960    2.3710 H   0  0  0  0  0  0  0  0  0  0  0  0
    8.0524  -25.7153    1.4828 H   0  0  0  0  0  0  0  0  0  0  0  0
    4.6485  -27.8087   -0.1481 H   0  0  0  0  0  0  0  0  0  0  0  0
    5.7167  -29.9898    0.3984 H   0  0  0  0  0  0  0  0  0  0  0  0
    6.8760  -31.5680    0.6570 H   0  0  0  0  0  0  0  0  0  0  0  0
    8.2280  -32.3450    1.2240 H   0  0  0  0  0  0  0  0  0  0  0  0
    9.9405  -32.3091    1.9888 H   0  0  0  0  0  0  0  0  0  0  0  0
    8.4649  -31.9088    4.0885 H   0  0  0  0  0  0  0  0  0  0  0  0
    9.8819  -33.0532    4.2443 H   0  0  0  0  0  0  0  0  0  0  0  0
   12.1140  -32.2052    3.2833 H   0  0  0  0  0  0  0  0  0  0  0  0
   12.0727  -31.0638    1.9094 H   0  0  0  0  0  0  0  0  0  0  0  0
  1  2  1  0
  2  3  1  0
  3  4  2  0
  4  5  1  0
  5  6  1  0
  6  7  1  0
  7  8  2  0
  8  9  1  0
  9 10  2  0
 10 11  1  0
 11 12  1  0
 11 13  2  0
 13 14  1  0
 14 15  2  0
 15 16  1  0
 16 17  1  0
 16 18  2  0
 18 19  1  0
 19 20  1  0
 19 21  1  0
 20  3  1  0
 21  5  1  0
 18  7  1  0
 15  9  1  0
  1 22  1  0
  1 23  1  0
  1 24  1  0
  2 25  1  0
  2 26  1  0
  4 27  1  0
  5 28  1  1
  6 29  1  0
  6 30  1  0
  8 31  1  0
 10 32  1  0
 13 33  1  0
 14 34  1  0
 17 35  1  0
 17 36  1  0
 19 37  1  6
 20 38  1  0
 20 39  1  0
 21 40  1  0
 21 41  1  0
M  CHG  1   8   1
M  END
>  <meeko>  (5) 
{"is_sidechain": [false], "free_energy": -7.578, "intermolecular_energy": -8.278, "internal_energy": -0.098}

$$$$
1e66_ligand
     RDKit          3D

 41 44  0  0  0  0  0  0  0  0999 V2000
   12.8050  -32.1740    3.6520 C   0  0  0  0  0  0  0  0  0  0  0  0
   12.8040  -30.6670    3.4400 C   0  0  0  0  0  0  0  0  0  0  0  0
   11.6280  -29.9850    4.1020 C   0  0  0  0  0  0  0  0  0  0  0  0
   10.6640  -30.6860    4.7320 C   0  0  0  0  0  0  0  0  0  0  0  0
    9.4900  -30.0370    5.4280 C   0  0  2  0  0  0  0  0  0  0  0  0
    8.2460  -30.1000    4.5290 C   0  0  0  0  0  0  0  0  0  0  0  0
    8.2790  -29.0910    3.4090 C   0  0  0  0  0  0  0  0  0  0  0  0
    7.3770  -29.2330    2.4250 N   0  0  0  0  0  0  0  0  0  0  0  0
    7.2750  -28.4020    1.3740 C   0  0  0  0  0  0  0  0  0  0  0  0
    6.3240  -28.6660    0.3780 C   0  0  0  0  0  0  0  0  0  0  0  0
    6.2250  -27.8220   -0.7250 C   0  0  0  0  0  0  0  0  0  0  0  0
    5.0590  -28.1530   -1.9430 Cl  0  0  0  0  0  0  0  0  0  0  0  0
    7.0630  -26.7220   -0.8470 C   0  0  0  0  0  0  0  0  0  0  0  0
    8.0090  -26.4540    0.1470 C   0  0  0  0  0  0  0  0  0  0  0  0
    8.1360  -27.2830    1.2870 C   0  0  0  0  0  0  0  0  0  0  0  0
    9.0610  -27.0620    2.3380 C   0  0  0  0  0  0  0  0  0  0  0  0
   10.0070  -26.0220    2.2770 N   0  0  0  0  0  0  0  0  0  0  0  0
    9.1660  -28.0020    3.3810 C   0  0  0  0  0  0  0  0  0  0  0  0
   10.2280  -27.8650    4.4750 C   0  0  2  0  0  0  0  0  0  0  0  0
   11.5780  -28.4700    4.0180 C   0  0  0  0  0  0  0  0  0  0  0  0
    9.7800  -28.5690    5.7620 C   0  0  0  0  0  0  0  0  0  0  0  0
   12.8051  -32.3926    4.7301 H   0  0  0  0  0  0  0  0  0  0  0  0
   11.9071  -32.6099    3.1896 H   0  0  0  0  0  0  0  0  0  0  0  0
   13.7034  -32.6087    3.1896 H   0  0  0  0  0  0  0  0  0  0  0  0
   13.7327  -30.2522    3.8588 H   0  0  0  0  0  0  0  0  0  0  0  0
   12.7281  -30.4839    2.3580 H   0  0  0  0  0  0  0  0  0  0  0  0
   10.7355  -31.7837    4.7398 H   0  0  0  0  0  0  0  0  0  0  0  0
    9.3135  -30.5875    6.3638 H   0  0  0  0  0  0  0  0  0  0  0  0
    8.1796  -31.1073    4.0920 H   0  0  0  0  0  0  0  0  0  0  0  0
    7.3732  -29.8674    5.1568 H   0  0  0  0  0  0  0  0  0  0  0  0
    6.7410  -30.0290    2.4740 H   0  0  0  0  0  0  0  0  0  0  0  0
    5.6583  -29.5371    0.4677 H   0  0  0  0  0  0  0  0  0  0  0  0
    6.9829  -26.0626   -1.7238 H   0  0  0  0  0  0  0  0  0  0  0  0
    8.6686  -25.5802    0.0407 H   0  0  0  0  0  0  0  0  0  0  0  0
   10.1410  -25.6570    1.3340 H   0  0  0  0  0  0  0  0  0  0  0  0
    9.8440  -25.2460    2.9140 H   0  0  0  0  0  0  0  0  0  0  0  0
   10.3583  -26.7904    4.6703 H   0  0  0  0  0  0  0  0  0  0  0  0
   11.7552  -28.1742    2.9734 H   0  0  0  0  0  0  0  0  0  0  0  0
   12.3500  -28.0848    4.7003 H   0  0  0  0  0  0  0  0  0  0  0  0
   10.5782  -28.5093    6.5165 H   0  0  0  0  0  0  0  0  0  0  0  0
    8.8782  -28.0855    6.1658 H   0  0  0  0  0  0  0  0  0  0  0  0
  1  2  1  0
  2  3  1  0
  3  4  2  0
  4  5  1  0
  5  6  1  0
  6  7  1  0
  7  8  2  0
  8  9  1  0
  9 10  2  0
 10 11  1  0
 11 12  1  0
 11 13  2  0
 13 14  1  0
 14 15  2  0
 15 16  1  0
 16 17  1  0
 16 18  2  0
 18 19  1  0
 19 20  1  0
 19 21  1  0
 20  3  1  0
 21  5  1  0
 18  7  1  0
 15  9  1  0
  1 22  1  0
  1 23  1  0
  1 24  1  0
  2 25  1  0
  2 26  1  0
  4 27  1  0
  5 28  1  1
  6 29  1  0
  6 30  1  0
  8 31  1  0
 10 32  1  0
 13 33  1  0
 14 34  1  0
 17 35  1  0
 17 36  1  0
 19 37  1  1
 20 38  1  0
 20 39  1  0
 21 40  1  0
 21 41  1  0
M  CHG  1   8   1
M  END
>  <meeko>  (6) 
{"is_sidechain": [false], "free_energy": -7.264, "intermolecular_energy": -7.927, "internal_energy": -0.107}

$$$$
1e66_ligand
     RDKit          3D

 41 44  0  0  0  0  0  0  0  0999 V2000
    6.9610  -24.0290    3.6270 C   0  0  0  0  0  0  0  0  0  0  0  0
    5.8860  -24.4010    2.6170 C   0  0  0  0  0  0  0  0  0  0  0  0
    6.3680  -25.4040    1.5930 C   0  0  0  0  0  0  0  0  0  0  0  0
    5.5140  -26.2020    0.9240 C   0  0  0  0  0  0  0  0  0  0  0  0
    5.9570  -27.1950   -0.1250 C   0  0  2  0  0  0  0  0  0  0  0  0
    6.0130  -28.6070    0.4770 C   0  0  0  0  0  0  0  0  0  0  0  0
    7.2220  -28.8250    1.3510 C   0  0  0  0  0  0  0  0  0  0  0  0
    7.2330  -29.9220    2.1250 N   0  0  0  0  0  0  0  0  0  0  0  0
    8.2470  -30.2560    2.9410 C   0  0  0  0  0  0  0  0  0  0  0  0
    8.1400  -31.4040    3.7400 C   0  0  0  0  0  0  0  0  0  0  0  0
    9.1770  -31.7460    4.6030 C   0  0  0  0  0  0  0  0  0  0  0  0
    9.0360  -33.1520    5.5800 Cl  0  0  0  0  0  0  0  0  0  0  0  0
   10.3180  -30.9600    4.6780 C   0  0  0  0  0  0  0  0  0  0  0  0
   10.4300  -29.8170    3.8790 C   0  0  0  0  0  0  0  0  0  0  0  0
    9.4010  -29.4390    2.9850 C   0  0  0  0  0  0  0  0  0  0  0  0
    9.4560  -28.3050    2.1360 C   0  0  0  0  0  0  0  0  0  0  0  0
   10.5320  -27.3990    2.1890 N   0  0  0  0  0  0  0  0  0  0  0  0
    8.3360  -27.9690    1.3510 C   0  0  0  0  0  0  0  0  0  0  0  0
    8.3070  -26.6920    0.5080 C   0  0  2  0  0  0  0  0  0  0  0  0
    7.8670  -25.4750    1.3580 C   0  0  0  0  0  0  0  0  0  0  0  0
    7.3430  -26.8420   -0.6770 C   0  0  0  0  0  0  0  0  0  0  0  0
    6.5694  -24.1645    4.6460 H   0  0  0  0  0  0  0  0  0  0  0  0
    7.8392  -24.6755    3.4827 H   0  0  0  0  0  0  0  0  0  0  0  0
    7.2518  -22.9780    3.4827 H   0  0  0  0  0  0  0  0  0  0  0  0
    5.0305  -24.8330    3.1569 H   0  0  0  0  0  0  0  0  0  0  0  0
    5.6062  -23.4842    2.0774 H   0  0  0  0  0  0  0  0  0  0  0  0
    4.4406  -26.1271    1.1527 H   0  0  0  0  0  0  0  0  0  0  0  0
    5.2254  -27.1591   -0.9457 H   0  0  0  0  0  0  0  0  0  0  0  0
    5.1087  -28.7663    1.0828 H   0  0  0  0  0  0  0  0  0  0  0  0
    6.0770  -29.3196   -0.3585 H   0  0  0  0  0  0  0  0  0  0  0  0
    6.4140  -30.5300    2.1010 H   0  0  0  0  0  0  0  0  0  0  0  0
    7.2388  -32.0323    3.6846 H   0  0  0  0  0  0  0  0  0  0  0  0
   11.1326  -31.2349    5.3641 H   0  0  0  0  0  0  0  0  0  0  0  0
   11.3375  -29.1992    3.9475 H   0  0  0  0  0  0  0  0  0  0  0  0
   11.2400  -27.6590    2.8740 H   0  0  0  0  0  0  0  0  0  0  0  0
   10.9840  -27.2060    1.2990 H   0  0  0  0  0  0  0  0  0  0  0  0
    9.3277  -26.5251    0.1334 H   0  0  0  0  0  0  0  0  0  0  0  0
    8.3692  -25.5340    2.3349 H   0  0  0  0  0  0  0  0  0  0  0  0
    8.1473  -24.5721    0.7957 H   0  0  0  0  0  0  0  0  0  0  0  0
    7.2911  -25.8966   -1.2369 H   0  0  0  0  0  0  0  0  0  0  0  0
    7.6948  -27.6333   -1.3553 H   0  0  0  0  0  0  0  0  0  0  0  0
  1  2  1  0
  2  3  1  0
  3  4  2  0
  4  5  1  0
  5  6  1  0
  6  7  1  0
  7  8  2  0
  8  9  1  0
  9 10  2  0
 10 11  1  0
 11 12  1  0
 11 13  2  0
 13 14  1  0
 14 15  2  0
 15 16  1  0
 16 17  1  0
 16 18  2  0
 18 19  1  0
 19 20  1  0
 19 21  1  0
 20  3  1  0
 21  5  1  0
 18  7  1  0
 15  9  1  0
  1 22  1  0
  1 23  1  0
  1 24  1  0
  2 25  1  0
  2 26  1  0
  4 27  1  0
  5 28  1  6
  6 29  1  0
  6 30  1  0
  8 31  1  0
 10 32  1  0
 13 33  1  0
 14 34  1  0
 17 35  1  0
 17 36  1  0
 19 37  1  6
 20 38  1  0
 20 39  1  0
 21 40  1  0
 21 41  1  0
M  CHG  1   8   1
M  END
>  <meeko>  (7) 
{"is_sidechain": [false], "free_energy": -7.132, "intermolecular_energy": -7.761, "internal_energy": -0.13}

$$$$
1e66_ligand
     RDKit          3D

 41 44  0  0  0  0  0  0  0  0999 V2000
    4.9190  -36.6220   -3.0800 C   0  0  0  0  0  0  0  0  0  0  0  0
    3.5300  -36.0860   -3.3910 C   0  0  0  0  0  0  0  0  0  0  0  0
    3.1900  -34.8450   -2.5980 C   0  0  0  0  0  0  0  0  0  0  0  0
    2.2330  -34.8490   -1.6500 C   0  0  0  0  0  0  0  0  0  0  0  0
    1.8860  -33.6350   -0.8190 C   0  0  2  0  0  0  0  0  0  0  0  0
    0.6260  -32.9590   -1.3770 C   0  0  0  0  0  0  0  0  0  0  0  0
    0.8910  -32.1610   -2.6270 C   0  0  0  0  0  0  0  0  0  0  0  0
   -0.1740  -31.7480   -3.3340 N   0  0  0  0  0  0  0  0  0  0  0  0
   -0.0920  -31.0160   -4.4580 C   0  0  0  0  0  0  0  0  0  0  0  0
   -1.2660  -30.6730   -5.1430 C   0  0  0  0  0  0  0  0  0  0  0  0
   -1.1910  -29.9320   -6.3190 C   0  0  0  0  0  0  0  0  0  0  0  0
   -2.6330  -29.5190   -7.1540 Cl  0  0  0  0  0  0  0  0  0  0  0  0
    0.0410  -29.5300   -6.8190 C   0  0  0  0  0  0  0  0  0  0  0  0
    1.2130  -29.8670   -6.1350 C   0  0  0  0  0  0  0  0  0  0  0  0
    1.1770  -30.6120   -4.9330 C   0  0  0  0  0  0  0  0  0  0  0  0
    2.3240  -30.9740   -4.1820 C   0  0  0  0  0  0  0  0  0  0  0  0
    3.6230  -30.6840   -4.6390 N   0  0  0  0  0  0  0  0  0  0  0  0
    2.1810  -31.7970   -3.0480 C   0  0  0  0  0  0  0  0  0  0  0  0
    3.4000  -32.3060   -2.2740 C   0  0  2  0  0  0  0  0  0  0  0  0
    3.9760  -33.5870   -2.9250 C   0  0  0  0  0  0  0  0  0  0  0  0
    3.0310  -32.6150   -0.8160 C   0  0  0  0  0  0  0  0  0  0  0  0
    5.0560  -36.6749   -1.9898 H   0  0  0  0  0  0  0  0  0  0  0  0
    5.0294  -37.6273   -3.5126 H   0  0  0  0  0  0  0  0  0  0  0  0
    5.6761  -35.9515   -3.5126 H   0  0  0  0  0  0  0  0  0  0  0  0
    3.4788  -35.8433   -4.4627 H   0  0  0  0  0  0  0  0  0  0  0  0
    2.8046  -36.8652   -3.1139 H   0  0  0  0  0  0  0  0  0  0  0  0
    1.6769  -35.7812   -1.4719 H   0  0  0  0  0  0  0  0  0  0  0  0
    1.7103  -33.9770    0.2116 H   0  0  0  0  0  0  0  0  0  0  0  0
   -0.1160  -33.7373   -1.6086 H   0  0  0  0  0  0  0  0  0  0  0  0
    0.2612  -32.2591   -0.6108 H   0  0  0  0  0  0  0  0  0  0  0  0
   -1.0990  -32.0210   -3.0030 H   0  0  0  0  0  0  0  0  0  0  0  0
   -2.2445  -30.9888   -4.7520 H   0  0  0  0  0  0  0  0  0  0  0  0
    0.0945  -28.9479   -7.7508 H   0  0  0  0  0  0  0  0  0  0  0  0
    2.1839  -29.5459   -6.5403 H   0  0  0  0  0  0  0  0  0  0  0  0
    4.2760  -31.4560   -4.5050 H   0  0  0  0  0  0  0  0  0  0  0  0
    3.6840  -30.3600   -5.6010 H   0  0  0  0  0  0  0  0  0  0  0  0
    4.1592  -31.5104   -2.3009 H   0  0  0  0  0  0  0  0  0  0  0  0
    3.9763  -33.4517   -4.0166 H   0  0  0  0  0  0  0  0  0  0  0  0
    4.9888  -33.7263   -2.5189 H   0  0  0  0  0  0  0  0  0  0  0  0
    3.9024  -33.0345   -0.2920 H   0  0  0  0  0  0  0  0  0  0  0  0
    2.7200  -31.6952   -0.2990 H   0  0  0  0  0  0  0  0  0  0  0  0
  1  2  1  0
  2  3  1  0
  3  4  2  0
  4  5  1  0
  5  6  1  0
  6  7  1  0
  7  8  2  0
  8  9  1  0
  9 10  2  0
 10 11  1  0
 11 12  1  0
 11 13  2  0
 13 14  1  0
 14 15  2  0
 15 16  1  0
 16 17  1  0
 16 18  2  0
 18 19  1  0
 19 20  1  0
 19 21  1  0
 20  3  1  0
 21  5  1  0
 18  7  1  0
 15  9  1  0
  1 22  1  0
  1 23  1  0
  1 24  1  0
  2 25  1  0
  2 26  1  0
  4 27  1  0
  5 28  1  1
  6 29  1  0
  6 30  1  0
  8 31  1  0
 10 32  1  0
 13 33  1  0
 14 34  1  0
 17 35  1  0
 17 36  1  0
 19 37  1  1
 20 38  1  0
 20 39  1  0
 21 40  1  0
 21 41  1  0
M  CHG  1   8   1
M  END
>  <meeko>  (8) 
{"is_sidechain": [false], "free_energy": -6.898, "intermolecular_energy": -7.54, "internal_energy": -0.096}

$$$$
1e66_ligand
     RDKit          3D

 41 44  0  0  0  0  0  0  0  0999 V2000
    6.7290  -28.5120    0.7070 C   0  0  0  0  0  0  0  0  0  0  0  0
    6.6080  -29.8450    1.4320 C   0  0  0  0  0  0  0  0  0  0  0  0
    7.8340  -30.1780    2.2510 C   0  0  0  0  0  0  0  0  0  0  0  0
    7.7520  -30.8800    3.3980 C   0  0  0  0  0  0  0  0  0  0  0  0
    8.9590  -31.2550    4.2270 C   0  0  2  0  0  0  0  0  0  0  0  0
    9.0970  -30.2930    5.4160 C   0  0  0  0  0  0  0  0  0  0  0  0
    9.6510  -28.9470    5.0220 C   0  0  0  0  0  0  0  0  0  0  0  0
    9.5690  -27.9580    5.9270 N   0  0  0  0  0  0  0  0  0  0  0  0
   10.0340  -26.7140    5.7230 C   0  0  0  0  0  0  0  0  0  0  0  0
    9.8610  -25.7430    6.7190 C   0  0  0  0  0  0  0  0  0  0  0  0
   10.3210  -24.4460    6.5100 C   0  0  0  0  0  0  0  0  0  0  0  0
   10.1020  -23.2610    7.7330 Cl  0  0  0  0  0  0  0  0  0  0  0  0
   10.9510  -24.1070    5.3190 C   0  0  0  0  0  0  0  0  0  0  0  0
   11.1290  -25.0750    4.3260 C   0  0  0  0  0  0  0  0  0  0  0  0
   10.6820  -26.4050    4.5040 C   0  0  0  0  0  0  0  0  0  0  0  0
   10.8440  -27.4390    3.5470 C   0  0  0  0  0  0  0  0  0  0  0  0
   11.3990  -27.1840    2.2790 N   0  0  0  0  0  0  0  0  0  0  0  0
   10.2790  -28.7050    3.7890 C   0  0  0  0  0  0  0  0  0  0  0  0
   10.3300  -29.8160    2.7360 C   0  0  2  0  0  0  0  0  0  0  0  0
    9.1670  -29.6750    1.7240 C   0  0  0  0  0  0  0  0  0  0  0  0
   10.2460  -31.1980    3.3970 C   0  0  0  0  0  0  0  0  0  0  0  0
    6.8028  -27.6990    1.4443 H   0  0  0  0  0  0  0  0  0  0  0  0
    7.6303  -28.5181    0.0764 H   0  0  0  0  0  0  0  0  0  0  0  0
    5.8414  -28.3557    0.0764 H   0  0  0  0  0  0  0  0  0  0  0  0
    5.7375  -29.8026    2.1032 H   0  0  0  0  0  0  0  0  0  0  0  0
    6.4959  -30.6290    0.6686 H   0  0  0  0  0  0  0  0  0  0  0  0
    6.7582  -31.1957    3.7483 H   0  0  0  0  0  0  0  0  0  0  0  0
    8.8108  -32.2849    4.5837 H   0  0  0  0  0  0  0  0  0  0  0  0
    8.1037  -30.1457    5.8651 H   0  0  0  0  0  0  0  0  0  0  0  0
    9.8048  -30.7458    6.1259 H   0  0  0  0  0  0  0  0  0  0  0  0
    9.1140  -28.1630    6.8160 H   0  0  0  0  0  0  0  0  0  0  0  0
    9.3627  -26.0055    7.6639 H   0  0  0  0  0  0  0  0  0  0  0  0
   11.3089  -23.0794    5.1577 H   0  0  0  0  0  0  0  0  0  0  0  0
   11.6275  -24.7962    3.3859 H   0  0  0  0  0  0  0  0  0  0  0  0
   12.4110  -27.3050    2.2530 H   0  0  0  0  0  0  0  0  0  0  0  0
   10.9810  -27.7020    1.5090 H   0  0  0  0  0  0  0  0  0  0  0  0
   11.2887  -29.7197    2.2053 H   0  0  0  0  0  0  0  0  0  0  0  0
    9.0590  -28.6113    1.4652 H   0  0  0  0  0  0  0  0  0  0  0  0
    9.4226  -30.2954    0.8524 H   0  0  0  0  0  0  0  0  0  0  0  0
   10.2251  -31.9799    2.6236 H   0  0  0  0  0  0  0  0  0  0  0  0
   11.1214  -31.3643    4.0419 H   0  0  0  0  0  0  0  0  0  0  0  0
  1  2  1  0
  2  3  1  0
  3  4  2  0
  4  5  1  0
  5  6  1  0
  6  7  1  0
  7  8  2  0
  8  9  1  0
  9 10  2  0
 10 11  1  0
 11 12  1  0
 11 13  2  0
 13 14  1  0
 14 15  2  0
 15 16  1  0
 16 17  1  0
 16 18  2  0
 18 19  1  0
 19 20  1  0
 19 21  1  0
 20  3  1  0
 21  5  1  0
 18  7  1  0
 15  9  1  0
  1 22  1  0
  1 23  1  0
  1 24  1  0
  2 25  1  0
  2 26  1  0
  4 27  1  0
  5 28  1  1
  6 29  1  0
  6 30  1  0
  8 31  1  0
 10 32  1  0
 13 33  1  0
 14 34  1  0
 17 35  1  0
 17 36  1  0
 19 37  1  6
 20 38  1  0
 20 39  1  0
 21 40  1  0
 21 41  1  0
M  CHG  1   8   1
M  END
>  <meeko>  (9) 
{"is_sidechain": [false], "free_energy": -6.433, "intermolecular_energy": -6.998, "internal_energy": -0.133}

$$$$
