
     RDKit          3D

 23 26  0  0  0  0  0  0  0  0999 V2000
   -6.9700    7.0040    8.3080 C   0  0  0  0  0  0  0  0  0  0  0  0
   -6.2550    7.8220    9.2250 O   0  0  0  0  0  0  0  0  0  0  0  0
   -4.9130    8.0100    9.0670 C   0  0  0  0  0  0  0  0  0  0  0  0
   -4.2520    8.7790   10.0170 C   0  0  0  0  0  0  0  0  0  0  0  0
   -2.8900    8.9950    9.9280 C   0  0  0  0  0  0  0  0  0  0  0  0
   -2.1970    9.8430   10.9800 C   0  0  0  0  0  0  0  0  0  0  0  0
   -2.1500    8.4270    8.8800 C   0  0  0  0  0  0  0  0  0  0  0  0
   -0.7940    8.6280    8.8300 N   0  0  0  0  0  0  0  0  0  0  0  0
   -0.0940    8.0250    7.8550 C   0  0  0  0  0  0  0  0  0  0  0  0
    1.2280    8.0640    7.6840 N   0  0  0  0  0  0  0  0  0  0  0  0
    1.5270    7.3000    6.6220 N   0  0  0  0  0  0  0  0  0  0  0  0
    0.4170    6.7900    6.1070 C   0  0  0  0  0  0  0  0  0  0  0  0
    0.4270    5.8610    4.9260 C   0  0  0  0  0  0  0  0  0  0  0  0
   -0.6560    7.2420    6.8570 C   0  0  0  0  0  0  0  0  0  0  0  0
   -2.0500    7.0680    6.8270 C   0  0  0  0  0  0  0  0  0  0  0  0
   -2.6160    6.4050    5.7170 N   0  0  0  0  0  0  0  0  0  0  0  0
   -3.3530    5.1460    5.9520 C   0  0  0  0  0  0  0  0  0  0  0  0
   -3.7030    4.4850    4.6150 C   0  0  0  0  0  0  0  0  0  0  0  0
   -4.4810    5.4340    3.7720 N   0  0  0  0  0  0  0  0  0  0  0  0
   -3.6620    6.6290    3.4750 C   0  0  0  0  0  0  0  0  0  0  0  0
   -3.3170    7.3380    4.7820 C   0  0  0  0  0  0  0  0  0  0  0  0
   -2.8220    7.6440    7.8820 C   0  0  0  0  0  0  0  0  0  0  0  0
   -4.2150    7.4590    8.0130 C   0  0  0  0  0  0  0  0  0  0  0  0
  2  1  1  0
  3  2  1  0
  4  3  2  0
  5  4  1  0
  6  5  1  0
  7  5  2  0
  8  7  1  0
  9  8  2  0
 10  9  1  0
 11 10  1  0
 12 11  2  0
 13 12  1  0
 14 12  1  0
 14  9  1  0
 15 14  2  0
 16 15  1  0
 17 16  1  0
 18 17  1  0
 19 18  1  0
 20 19  1  0
 21 20  1  0
 21 16  1  0
 22 15  1  0
 22  7  1  0
 23 22  2  0
 23  3  1  0
M  CHG  1  19   1
M  END
$$$$
