2r9w_ligand
     RDKit          3D

 42 45  0  0  0  0  0  0  0  0999 V2000
   -7.4940   -9.0970   19.1380 O   0  0  0  0  0  0  0  0  0  0  0  0
   -7.6400  -10.2290   18.5780 C   0  0  0  0  0  0  0  0  0  0  0  0
   -8.1990  -11.2460   19.0990 O   0  0  0  0  0  0  0  0  0  0  0  0
   -7.1080  -10.3800   17.1630 C   0  0  0  0  0  0  0  0  0  0  0  0
   -7.4880  -11.5000   16.3730 C   0  0  0  0  0  0  0  0  0  0  0  0
   -7.0350  -11.6620   15.0600 C   0  0  0  0  0  0  0  0  0  0  0  0
   -6.1930  -10.6900   14.5570 C   0  0  0  0  0  0  0  0  0  0  0  0
   -5.8050   -9.5970   15.3070 C   0  0  0  0  0  0  0  0  0  0  0  0
   -6.2420   -9.4140   16.6080 C   0  0  0  0  0  0  0  0  0  0  0  0
   -4.9460   -8.7680   14.4570 C   0  0  0  0  0  0  0  0  0  0  0  0
   -4.4590   -7.7080   14.8120 O   0  0  0  0  0  0  0  0  0  0  0  0
   -4.8650   -9.4050   13.2450 N   0  0  0  0  0  0  0  0  0  0  0  0
   -4.1210   -8.8740   12.0880 C   0  0  2  0  0  0  0  0  0  0  0  0
   -5.0050   -7.9930   11.1810 C   0  0  0  0  0  0  0  0  0  0  0  0
   -4.7960   -6.4950   11.3840 C   0  0  0  0  0  0  0  0  0  0  0  0
   -5.7940   -5.8090   12.1010 C   0  0  0  0  0  0  0  0  0  0  0  0
   -5.7190   -4.4360   12.3020 C   0  0  0  0  0  0  0  0  0  0  0  0
   -4.6410   -3.7230   11.7890 C   0  0  0  0  0  0  0  0  0  0  0  0
   -3.6250   -4.3700   11.0720 C   0  0  0  0  0  0  0  0  0  0  0  0
   -2.5560   -3.6200   10.5510 C   0  0  0  0  0  0  0  0  0  0  0  0
   -1.5370   -4.2290    9.8220 C   0  0  0  0  0  0  0  0  0  0  0  0
   -1.5710   -5.5990    9.6110 C   0  0  0  0  0  0  0  0  0  0  0  0
   -2.6260   -6.3580   10.1260 C   0  0  0  0  0  0  0  0  0  0  0  0
   -3.6840   -5.7740   10.8620 C   0  0  0  0  0  0  0  0  0  0  0  0
   -3.3720   -9.9610   11.2630 C   0  0  0  0  0  0  0  0  0  0  0  0
   -2.4030  -10.5260   11.8520 O   0  0  0  0  0  0  0  0  0  0  0  0
   -3.7610  -10.1260   10.0670 O   0  0  0  0  0  0  0  0  0  0  0  0
   -5.6030  -10.5570   13.2270 C   0  0  0  0  0  0  0  0  0  0  0  0
   -5.8390  -11.3310   12.3160 O   0  0  0  0  0  0  0  0  0  0  0  0
   -8.1560  -12.2589   16.8064 H   0  0  0  0  0  0  0  0  0  0  0  0
   -7.3370  -12.5281   14.4528 H   0  0  0  0  0  0  0  0  0  0  0  0
   -5.9227   -8.5391   17.1932 H   0  0  0  0  0  0  0  0  0  0  0  0
   -3.3392   -8.2352   12.5247 H   0  0  0  0  0  0  0  0  0  0  0  0
   -4.7768   -8.2360   10.1327 H   0  0  0  0  0  0  0  0  0  0  0  0
   -6.0506   -8.2092   11.4455 H   0  0  0  0  0  0  0  0  0  0  0  0
   -6.6481   -6.3692   12.5093 H   0  0  0  0  0  0  0  0  0  0  0  0
   -6.5085   -3.9158   12.8642 H   0  0  0  0  0  0  0  0  0  0  0  0
   -4.5847   -2.6360   11.9481 H   0  0  0  0  0  0  0  0  0  0  0  0
   -2.5237   -2.5338   10.7219 H   0  0  0  0  0  0  0  0  0  0  0  0
   -0.7107   -3.6268    9.4163 H   0  0  0  0  0  0  0  0  0  0  0  0
   -0.7687   -6.0881    9.0390 H   0  0  0  0  0  0  0  0  0  0  0  0
   -2.6339   -7.4444    9.9535 H   0  0  0  0  0  0  0  0  0  0  0  0
  1  2  2  0
  2  3  1  0
  2  4  1  0
  4  5  2  0
  5  6  1  0
  6  7  2  0
  7  8  1  0
  8  9  2  0
  8 10  1  0
 10 11  2  0
 10 12  1  0
 12 13  1  0
 13 14  1  0
 14 15  1  0
 15 16  2  0
 16 17  1  0
 17 18  2  0
 18 19  1  0
 19 20  2  0
 20 21  1  0
 21 22  2  0
 22 23  1  0
 23 24  2  0
 13 25  1  0
 25 26  2  0
 25 27  1  0
 12 28  1  0
 28 29  2  0
  9  4  1  0
 24 15  1  0
 28  7  1  0
 24 19  1  0
  5 30  1  0
  6 31  1  0
  9 32  1  0
 13 33  1  1
 14 34  1  0
 14 35  1  0
 16 36  1  0
 17 37  1  0
 18 38  1  0
 20 39  1  0
 21 40  1  0
 22 41  1  0
 23 42  1  0
M  CHG  2   3  -1  27  -1
M  END
>  <meeko>  (1) 
{"is_sidechain": [false], "free_energy": -7.923, "intermolecular_energy": -10.239, "internal_energy": -0.858}

$$$$
2r9w_ligand
     RDKit          3D

 42 45  0  0  0  0  0  0  0  0999 V2000
   -8.5970   -8.3300   17.9330 O   0  0  0  0  0  0  0  0  0  0  0  0
   -7.5660   -9.0730   17.9600 C   0  0  0  0  0  0  0  0  0  0  0  0
   -6.9760   -9.4820   19.0110 O   0  0  0  0  0  0  0  0  0  0  0  0
   -6.9900   -9.5170   16.6260 C   0  0  0  0  0  0  0  0  0  0  0  0
   -7.4310  -10.7270   16.0250 C   0  0  0  0  0  0  0  0  0  0  0  0
   -6.9380  -11.1570   14.7890 C   0  0  0  0  0  0  0  0  0  0  0  0
   -5.9970  -10.3580   14.1710 C   0  0  0  0  0  0  0  0  0  0  0  0
   -5.5480   -9.1810   14.7380 C   0  0  0  0  0  0  0  0  0  0  0  0
   -6.0230   -8.7340   15.9590 C   0  0  0  0  0  0  0  0  0  0  0  0
   -4.5880   -8.5860   13.8050 C   0  0  0  0  0  0  0  0  0  0  0  0
   -4.0280   -7.5200   13.9950 O   0  0  0  0  0  0  0  0  0  0  0  0
   -4.5110   -9.4350   12.7310 N   0  0  0  0  0  0  0  0  0  0  0  0
   -3.6770   -9.1780   11.5410 C   0  0  2  0  0  0  0  0  0  0  0  0
   -4.3690   -8.2370   10.5350 C   0  0  0  0  0  0  0  0  0  0  0  0
   -3.7320   -6.8540   10.4460 C   0  0  0  0  0  0  0  0  0  0  0  0
   -2.4970   -6.7680    9.7740 C   0  0  0  0  0  0  0  0  0  0  0  0
   -1.8150   -5.5620    9.6760 C   0  0  0  0  0  0  0  0  0  0  0  0
   -2.3560   -4.4160   10.2480 C   0  0  0  0  0  0  0  0  0  0  0  0
   -3.5850   -4.4580   10.9230 C   0  0  0  0  0  0  0  0  0  0  0  0
   -4.0980   -3.2870   11.5060 C   0  0  0  0  0  0  0  0  0  0  0  0
   -5.3080   -3.2970   12.1950 C   0  0  0  0  0  0  0  0  0  0  0  0
   -6.0250   -4.4790   12.3030 C   0  0  0  0  0  0  0  0  0  0  0  0
   -5.5280   -5.6510   11.7260 C   0  0  0  0  0  0  0  0  0  0  0  0
   -4.2980   -5.6830   11.0280 C   0  0  0  0  0  0  0  0  0  0  0  0
   -3.1560  -10.4680   10.8420 C   0  0  0  0  0  0  0  0  0  0  0  0
   -2.1610  -11.0270   11.3910 O   0  0  0  0  0  0  0  0  0  0  0  0
   -3.7360  -10.7940    9.7620 O   0  0  0  0  0  0  0  0  0  0  0  0
   -5.3420  -10.5120   12.8740 C   0  0  0  0  0  0  0  0  0  0  0  0
   -5.6050  -11.4170   12.1010 O   0  0  0  0  0  0  0  0  0  0  0  0
   -8.1800  -11.3416   16.5459 H   0  0  0  0  0  0  0  0  0  0  0  0
   -7.2857  -12.0933   14.3282 H   0  0  0  0  0  0  0  0  0  0  0  0
   -5.6569   -7.7941   16.3977 H   0  0  0  0  0  0  0  0  0  0  0  0
   -2.7854   -8.6632   11.9283 H   0  0  0  0  0  0  0  0  0  0  0  0
   -4.3271   -8.7027    9.5393 H   0  0  0  0  0  0  0  0  0  0  0  0
   -5.4002   -8.0922   10.8894 H   0  0  0  0  0  0  0  0  0  0  0  0
   -2.0652   -7.6716    9.3190 H   0  0  0  0  0  0  0  0  0  0  0  0
   -0.8511   -5.5138    9.1482 H   0  0  0  0  0  0  0  0  0  0  0  0
   -1.8125   -3.4628   10.1701 H   0  0  0  0  0  0  0  0  0  0  0  0
   -3.5343   -2.3466   11.4166 H   0  0  0  0  0  0  0  0  0  0  0  0
   -5.6928   -2.3728   12.6509 H   0  0  0  0  0  0  0  0  0  0  0  0
   -6.9837   -4.4942   12.8421 H   0  0  0  0  0  0  0  0  0  0  0  0
   -6.1122   -6.5785   11.8176 H   0  0  0  0  0  0  0  0  0  0  0  0
  1  2  2  0
  2  3  1  0
  2  4  1  0
  4  5  2  0
  5  6  1  0
  6  7  2  0
  7  8  1  0
  8  9  2  0
  8 10  1  0
 10 11  2  0
 10 12  1  0
 12 13  1  0
 13 14  1  0
 14 15  1  0
 15 16  2  0
 16 17  1  0
 17 18  2  0
 18 19  1  0
 19 20  2  0
 20 21  1  0
 21 22  2  0
 22 23  1  0
 23 24  2  0
 13 25  1  0
 25 26  2  0
 25 27  1  0
 12 28  1  0
 28 29  2  0
  9  4  1  0
 24 15  1  0
 28  7  1  0
 24 19  1  0
  5 30  1  0
  6 31  1  0
  9 32  1  0
 13 33  1  1
 14 34  1  0
 14 35  1  0
 16 36  1  0
 17 37  1  0
 18 38  1  0
 20 39  1  0
 21 40  1  0
 22 41  1  0
 23 42  1  0
M  CHG  2   3  -1  27  -1
M  END
>  <meeko>  (2) 
{"is_sidechain": [false], "free_energy": -7.467, "intermolecular_energy": -9.791, "internal_energy": -0.716}

$$$$
2r9w_ligand
     RDKit          3D

 42 45  0  0  0  0  0  0  0  0999 V2000
   -1.8950   -4.6650    9.8600 O   0  0  0  0  0  0  0  0  0  0  0  0
   -2.2540   -5.8840    9.8420 C   0  0  0  0  0  0  0  0  0  0  0  0
   -1.7810   -6.7840    9.0760 O   0  0  0  0  0  0  0  0  0  0  0  0
   -3.3330   -6.3090   10.8230 C   0  0  0  0  0  0  0  0  0  0  0  0
   -4.4740   -5.4860   11.0300 C   0  0  0  0  0  0  0  0  0  0  0  0
   -5.4970   -5.8540   11.9090 C   0  0  0  0  0  0  0  0  0  0  0  0
   -5.3540   -7.0530   12.5780 C   0  0  0  0  0  0  0  0  0  0  0  0
   -4.2520   -7.8660   12.4000 C   0  0  0  0  0  0  0  0  0  0  0  0
   -3.2280   -7.5240   11.5330 C   0  0  0  0  0  0  0  0  0  0  0  0
   -4.4470   -9.0540   13.2350 C   0  0  0  0  0  0  0  0  0  0  0  0
   -3.6630   -9.9870   13.2820 O   0  0  0  0  0  0  0  0  0  0  0  0
   -5.6520   -8.8920   13.8690 N   0  0  0  0  0  0  0  0  0  0  0  0
   -6.2410   -9.8930   14.7790 C   0  0  2  0  0  0  0  0  0  0  0  0
   -5.4300  -10.0470   16.0810 C   0  0  0  0  0  0  0  0  0  0  0  0
   -5.4310   -8.7990   16.9590 C   0  0  0  0  0  0  0  0  0  0  0  0
   -4.2130   -8.1010   17.0690 C   0  0  0  0  0  0  0  0  0  0  0  0
   -4.0990   -6.9780   17.8780 C   0  0  0  0  0  0  0  0  0  0  0  0
   -5.2030   -6.5300   18.5940 C   0  0  0  0  0  0  0  0  0  0  0  0
   -6.4350   -7.1940   18.5100 C   0  0  0  0  0  0  0  0  0  0  0  0
   -7.5290   -6.7280   19.2580 C   0  0  0  0  0  0  0  0  0  0  0  0
   -8.7630   -7.3720   19.2080 C   0  0  0  0  0  0  0  0  0  0  0  0
   -8.9190   -8.4890   18.4020 C   0  0  0  0  0  0  0  0  0  0  0  0
   -7.8410   -8.9630   17.6490 C   0  0  0  0  0  0  0  0  0  0  0  0
   -6.5710   -8.3420   17.6820 C   0  0  0  0  0  0  0  0  0  0  0  0
   -6.5090  -11.2740   14.1130 C   0  0  0  0  0  0  0  0  0  0  0  0
   -6.2680  -11.3410   12.8710 O   0  0  0  0  0  0  0  0  0  0  0  0
   -7.0000  -12.1720   14.8610 O   0  0  0  0  0  0  0  0  0  0  0  0
   -6.2610   -7.7210   13.5100 C   0  0  0  0  0  0  0  0  0  0  0  0
   -7.3610   -7.2810   13.7950 O   0  0  0  0  0  0  0  0  0  0  0  0
   -4.5539   -4.5344   10.4840 H   0  0  0  0  0  0  0  0  0  0  0  0
   -6.3791   -5.2147   12.0612 H   0  0  0  0  0  0  0  0  0  0  0  0
   -2.3562   -8.1817   11.4012 H   0  0  0  0  0  0  0  0  0  0  0  0
   -7.2294   -9.4878   15.0416 H   0  0  0  0  0  0  0  0  0  0  0  0
   -5.8582  -10.8785   16.6599 H   0  0  0  0  0  0  0  0  0  0  0  0
   -4.3859  -10.2314   15.7879 H   0  0  0  0  0  0  0  0  0  0  0  0
   -3.3365   -8.4514   16.5042 H   0  0  0  0  0  0  0  0  0  0  0  0
   -3.1394   -6.4454   17.9519 H   0  0  0  0  0  0  0  0  0  0  0  0
   -5.1087   -5.6416   19.2358 H   0  0  0  0  0  0  0  0  0  0  0  0
   -7.4090   -5.8388   19.8944 H   0  0  0  0  0  0  0  0  0  0  0  0
   -9.6080   -6.9968   19.8040 H   0  0  0  0  0  0  0  0  0  0  0  0
   -9.8908   -9.0022   18.3550 H   0  0  0  0  0  0  0  0  0  0  0  0
   -7.9851   -9.8471   17.0105 H   0  0  0  0  0  0  0  0  0  0  0  0
  1  2  2  0
  2  3  1  0
  2  4  1  0
  4  5  2  0
  5  6  1  0
  6  7  2  0
  7  8  1  0
  8  9  2  0
  8 10  1  0
 10 11  2  0
 10 12  1  0
 12 13  1  0
 13 14  1  0
 14 15  1  0
 15 16  2  0
 16 17  1  0
 17 18  2  0
 18 19  1  0
 19 20  2  0
 20 21  1  0
 21 22  2  0
 22 23  1  0
 23 24  2  0
 13 25  1  0
 25 26  2  0
 25 27  1  0
 12 28  1  0
 28 29  2  0
  9  4  1  0
 24 15  1  0
 28  7  1  0
 24 19  1  0
  5 30  1  0
  6 31  1  0
  9 32  1  0
 13 33  1  1
 14 34  1  0
 14 35  1  0
 16 36  1  0
 17 37  1  0
 18 38  1  0
 20 39  1  0
 21 40  1  0
 22 41  1  0
 23 42  1  0
M  CHG  2   3  -1  27  -1
M  END
>  <meeko>  (3) 
{"is_sidechain": [false], "free_energy": -7.363, "intermolecular_energy": -9.95, "internal_energy": -0.423}

$$$$
2r9w_ligand
     RDKit          3D

 42 45  0  0  0  0  0  0  0  0999 V2000
   -1.8340   -5.6070    9.6350 O   0  0  0  0  0  0  0  0  0  0  0  0
   -2.7590   -6.4790    9.6600 C   0  0  0  0  0  0  0  0  0  0  0  0
   -2.9120   -7.4200    8.8170 O   0  0  0  0  0  0  0  0  0  0  0  0
   -3.7640   -6.3970   10.7960 C   0  0  0  0  0  0  0  0  0  0  0  0
   -4.7620   -5.3850   10.7950 C   0  0  0  0  0  0  0  0  0  0  0  0
   -5.7170   -5.2910   11.8120 C   0  0  0  0  0  0  0  0  0  0  0  0
   -5.6500   -6.2240   12.8290 C   0  0  0  0  0  0  0  0  0  0  0  0
   -4.6860   -7.2120   12.8560 C   0  0  0  0  0  0  0  0  0  0  0  0
   -3.7320   -7.3260   11.8590 C   0  0  0  0  0  0  0  0  0  0  0  0
   -4.9310   -8.0280   14.0470 C   0  0  0  0  0  0  0  0  0  0  0  0
   -4.2700   -9.0080   14.3470 O   0  0  0  0  0  0  0  0  0  0  0  0
   -6.0260   -7.4880   14.6720 N   0  0  0  0  0  0  0  0  0  0  0  0
   -6.6290   -8.0450   15.8970 C   0  0  2  0  0  0  0  0  0  0  0  0
   -8.1000   -8.4570   15.6890 C   0  0  0  0  0  0  0  0  0  0  0  0
   -8.4160   -9.8750   16.1560 C   0  0  0  0  0  0  0  0  0  0  0  0
   -9.2320   -9.9980   17.2970 C   0  0  0  0  0  0  0  0  0  0  0  0
   -9.5410  -11.2450   17.8270 C   0  0  0  0  0  0  0  0  0  0  0  0
   -9.0400  -12.3930   17.2250 C   0  0  0  0  0  0  0  0  0  0  0  0
   -8.2270  -12.3130   16.0850 C   0  0  0  0  0  0  0  0  0  0  0  0
   -7.7210  -13.4900   15.5080 C   0  0  0  0  0  0  0  0  0  0  0  0
   -6.8990  -13.4460   14.3850 C   0  0  0  0  0  0  0  0  0  0  0  0
   -6.5780  -12.2220   13.8190 C   0  0  0  0  0  0  0  0  0  0  0  0
   -7.0770  -11.0430   14.3800 C   0  0  0  0  0  0  0  0  0  0  0  0
   -7.9050  -11.0470   15.5270 C   0  0  0  0  0  0  0  0  0  0  0  0
   -6.4690   -7.1360   17.1510 C   0  0  0  0  0  0  0  0  0  0  0  0
   -7.5040   -7.0020   17.8680 O   0  0  0  0  0  0  0  0  0  0  0  0
   -5.3420   -6.5720   17.2950 O   0  0  0  0  0  0  0  0  0  0  0  0
   -6.5210   -6.4120   13.9870 C   0  0  0  0  0  0  0  0  0  0  0  0
   -7.5180   -5.7400   14.1840 O   0  0  0  0  0  0  0  0  0  0  0  0
   -4.7837   -4.6558    9.9717 H   0  0  0  0  0  0  0  0  0  0  0  0
   -6.4890   -4.5074   11.8028 H   0  0  0  0  0  0  0  0  0  0  0  0
   -2.9700   -8.1186   11.8940 H   0  0  0  0  0  0  0  0  0  0  0  0
   -6.0487   -8.9555   16.1072 H   0  0  0  0  0  0  0  0  0  0  0  0
   -8.7382   -7.7575   16.2488 H   0  0  0  0  0  0  0  0  0  0  0  0
   -8.2902   -8.4273   14.6060 H   0  0  0  0  0  0  0  0  0  0  0  0
   -9.6314   -9.0922   17.7767 H   0  0  0  0  0  0  0  0  0  0  0  0
  -10.1795  -11.3230   18.7193 H   0  0  0  0  0  0  0  0  0  0  0  0
   -9.2845  -13.3783   17.6486 H   0  0  0  0  0  0  0  0  0  0  0  0
   -7.9788  -14.4632   15.9512 H   0  0  0  0  0  0  0  0  0  0  0  0
   -6.5067  -14.3769   13.9496 H   0  0  0  0  0  0  0  0  0  0  0  0
   -5.9317  -12.1786   12.9299 H   0  0  0  0  0  0  0  0  0  0  0  0
   -6.8174  -10.0808   13.9145 H   0  0  0  0  0  0  0  0  0  0  0  0
  1  2  2  0
  2  3  1  0
  2  4  1  0
  4  5  2  0
  5  6  1  0
  6  7  2  0
  7  8  1  0
  8  9  2  0
  8 10  1  0
 10 11  2  0
 10 12  1  0
 12 13  1  0
 13 14  1  0
 14 15  1  0
 15 16  2  0
 16 17  1  0
 17 18  2  0
 18 19  1  0
 19 20  2  0
 20 21  1  0
 21 22  2  0
 22 23  1  0
 23 24  2  0
 13 25  1  0
 25 26  2  0
 25 27  1  0
 12 28  1  0
 28 29  2  0
  9  4  1  0
 24 15  1  0
 28  7  1  0
 24 19  1  0
  5 30  1  0
  6 31  1  0
  9 32  1  0
 13 33  1  1
 14 34  1  0
 14 35  1  0
 16 36  1  0
 17 37  1  0
 18 38  1  0
 20 39  1  0
 21 40  1  0
 22 41  1  0
 23 42  1  0
M  CHG  2   3  -1  27  -1
M  END
>  <meeko>  (4) 
{"is_sidechain": [false], "free_energy": -7.265, "intermolecular_energy": -9.418, "internal_energy": -0.828}

$$$$
2r9w_ligand
     RDKit          3D

 42 45  0  0  0  0  0  0  0  0999 V2000
   -2.1770   -3.7690   10.2420 O   0  0  0  0  0  0  0  0  0  0  0  0
   -2.3710   -5.0170   10.0980 C   0  0  0  0  0  0  0  0  0  0  0  0
   -1.6960   -5.7900    9.3450 O   0  0  0  0  0  0  0  0  0  0  0  0
   -3.5010   -5.6440   10.8970 C   0  0  0  0  0  0  0  0  0  0  0  0
   -4.7480   -4.9730   11.0180 C   0  0  0  0  0  0  0  0  0  0  0  0
   -5.8170   -5.5280   11.7280 C   0  0  0  0  0  0  0  0  0  0  0  0
   -5.6130   -6.7610   12.3160 C   0  0  0  0  0  0  0  0  0  0  0  0
   -4.4080   -7.4290   12.2190 C   0  0  0  0  0  0  0  0  0  0  0  0
   -3.3370   -6.9010   11.5190 C   0  0  0  0  0  0  0  0  0  0  0  0
   -4.5580   -8.7030   12.9280 C   0  0  0  0  0  0  0  0  0  0  0  0
   -3.6790   -9.5450   13.0030 O   0  0  0  0  0  0  0  0  0  0  0  0
   -5.8400   -8.7310   13.4130 N   0  0  0  0  0  0  0  0  0  0  0  0
   -6.4090   -9.8680   14.1600 C   0  0  2  0  0  0  0  0  0  0  0  0
   -5.8460   -9.9670   15.5920 C   0  0  0  0  0  0  0  0  0  0  0  0
   -6.6860   -9.2360   16.6360 C   0  0  0  0  0  0  0  0  0  0  0  0
   -8.0410   -9.6040   16.7280 C   0  0  0  0  0  0  0  0  0  0  0  0
   -8.8990   -8.9680   17.6170 C   0  0  0  0  0  0  0  0  0  0  0  0
   -8.4160   -7.9510   18.4330 C   0  0  0  0  0  0  0  0  0  0  0  0
   -7.0720   -7.5570   18.3740 C   0  0  0  0  0  0  0  0  0  0  0  0
   -6.6160   -6.5140   19.1980 C   0  0  0  0  0  0  0  0  0  0  0  0
   -5.2910   -6.0890   19.1550 C   0  0  0  0  0  0  0  0  0  0  0  0
   -4.4010   -6.7080   18.2900 C   0  0  0  0  0  0  0  0  0  0  0  0
   -4.8390   -7.7490   17.4670 C   0  0  0  0  0  0  0  0  0  0  0  0
   -6.1790   -8.2000   17.4740 C   0  0  0  0  0  0  0  0  0  0  0  0
   -6.3020  -11.2320   13.4160 C   0  0  0  0  0  0  0  0  0  0  0  0
   -5.9190  -11.1710   12.2100 O   0  0  0  0  0  0  0  0  0  0  0  0
   -6.6690  -12.2560   14.0670 O   0  0  0  0  0  0  0  0  0  0  0  0
   -6.5380   -7.6050   13.0690 C   0  0  0  0  0  0  0  0  0  0  0  0
   -7.7080   -7.3160   13.2440 O   0  0  0  0  0  0  0  0  0  0  0  0
   -4.8756   -3.9905   10.5401 H   0  0  0  0  0  0  0  0  0  0  0  0
   -6.7805   -5.0044   11.8147 H   0  0  0  0  0  0  0  0  0  0  0  0
   -2.3840   -7.4458   11.4491 H   0  0  0  0  0  0  0  0  0  0  0  0
   -7.4840   -9.6464   14.2329 H   0  0  0  0  0  0  0  0  0  0  0  0
   -5.7934  -11.0297   15.8713 H   0  0  0  0  0  0  0  0  0  0  0  0
   -4.8573   -9.4850   15.5816 H   0  0  0  0  0  0  0  0  0  0  0  0
   -8.4276  -10.4087   16.0854 H   0  0  0  0  0  0  0  0  0  0  0  0
   -9.9558   -9.2678   17.6749 H   0  0  0  0  0  0  0  0  0  0  0  0
   -9.0981   -7.4486   19.1347 H   0  0  0  0  0  0  0  0  0  0  0  0
   -7.3183   -6.0248   19.8890 H   0  0  0  0  0  0  0  0  0  0  0  0
   -4.9521   -5.2673   19.8031 H   0  0  0  0  0  0  0  0  0  0  0  0
   -3.3517   -6.3800   18.2518 H   0  0  0  0  0  0  0  0  0  0  0  0
   -4.1180   -8.2332   16.7919 H   0  0  0  0  0  0  0  0  0  0  0  0
  1  2  2  0
  2  3  1  0
  2  4  1  0
  4  5  2  0
  5  6  1  0
  6  7  2  0
  7  8  1  0
  8  9  2  0
  8 10  1  0
 10 11  2  0
 10 12  1  0
 12 13  1  0
 13 14  1  0
 14 15  1  0
 15 16  2  0
 16 17  1  0
 17 18  2  0
 18 19  1  0
 19 20  2  0
 20 21  1  0
 21 22  2  0
 22 23  1  0
 23 24  2  0
 13 25  1  0
 25 26  2  0
 25 27  1  0
 12 28  1  0
 28 29  2  0
  9  4  1  0
 24 15  1  0
 28  7  1  0
 24 19  1  0
  5 30  1  0
  6 31  1  0
  9 32  1  0
 13 33  1  1
 14 34  1  0
 14 35  1  0
 16 36  1  0
 17 37  1  0
 18 38  1  0
 20 39  1  0
 21 40  1  0
 22 41  1  0
 23 42  1  0
M  CHG  2   3  -1  27  -1
M  END
>  <meeko>  (5) 
{"is_sidechain": [false], "free_energy": -7.214, "intermolecular_energy": -9.885, "internal_energy": -0.295}

$$$$
2r9w_ligand
     RDKit          3D

 42 45  0  0  0  0  0  0  0  0999 V2000
   -0.3680   -2.9660    9.3930 O   0  0  0  0  0  0  0  0  0  0  0  0
   -0.7030   -4.1820    9.2340 C   0  0  0  0  0  0  0  0  0  0  0  0
   -0.1260   -5.0140    8.4630 O   0  0  0  0  0  0  0  0  0  0  0  0
   -1.8880   -4.6900   10.0370 C   0  0  0  0  0  0  0  0  0  0  0  0
   -2.9350   -3.8020   10.4050 C   0  0  0  0  0  0  0  0  0  0  0  0
   -4.0510   -4.2370   11.1260 C   0  0  0  0  0  0  0  0  0  0  0  0
   -4.0960   -5.5730   11.4740 C   0  0  0  0  0  0  0  0  0  0  0  0
   -3.0890   -6.4540   11.1350 C   0  0  0  0  0  0  0  0  0  0  0  0
   -1.9760   -6.0460   10.4190 C   0  0  0  0  0  0  0  0  0  0  0  0
   -3.4780   -7.7750   11.6340 C   0  0  0  0  0  0  0  0  0  0  0  0
   -2.8150   -8.7850   11.4710 O   0  0  0  0  0  0  0  0  0  0  0  0
   -4.6950   -7.6180   12.2460 N   0  0  0  0  0  0  0  0  0  0  0  0
   -5.4580   -8.7260   12.8510 C   0  0  2  0  0  0  0  0  0  0  0  0
   -5.0190   -9.0130   14.3010 C   0  0  0  0  0  0  0  0  0  0  0  0
   -6.0070   -8.5180   15.3540 C   0  0  0  0  0  0  0  0  0  0  0  0
   -7.3750   -8.6660   15.0570 C   0  0  0  0  0  0  0  0  0  0  0  0
   -8.3530   -8.2080   15.9320 C   0  0  0  0  0  0  0  0  0  0  0  0
   -7.9800   -7.5930   17.1210 C   0  0  0  0  0  0  0  0  0  0  0  0
   -6.6280   -7.4290   17.4550 C   0  0  0  0  0  0  0  0  0  0  0  0
   -6.2820   -6.7880   18.6570 C   0  0  0  0  0  0  0  0  0  0  0  0
   -4.9490   -6.5970   19.0130 C   0  0  0  0  0  0  0  0  0  0  0  0
   -3.9440   -7.0520   18.1720 C   0  0  0  0  0  0  0  0  0  0  0  0
   -4.2740   -7.6940   16.9750 C   0  0  0  0  0  0  0  0  0  0  0  0
   -5.6150   -7.8960   16.5750 C   0  0  0  0  0  0  0  0  0  0  0  0
   -5.4710  -10.0270   11.9960 C   0  0  0  0  0  0  0  0  0  0  0  0
   -5.3650  -11.1100   12.6430 O   0  0  0  0  0  0  0  0  0  0  0  0
   -5.5220   -9.8710   10.7390 O   0  0  0  0  0  0  0  0  0  0  0  0
   -5.1360   -6.3250   12.1740 C   0  0  0  0  0  0  0  0  0  0  0  0
   -6.1930   -5.8290   12.5220 O   0  0  0  0  0  0  0  0  0  0  0  0
   -2.8653   -2.7433   10.1145 H   0  0  0  0  0  0  0  0  0  0  0  0
   -4.8591   -3.5446   11.4044 H   0  0  0  0  0  0  0  0  0  0  0  0
   -1.1817   -6.7597   10.1550 H   0  0  0  0  0  0  0  0  0  0  0  0
   -6.4989   -8.3710   12.8759 H   0  0  0  0  0  0  0  0  0  0  0  0
   -4.9023  -10.1004   14.4191 H   0  0  0  0  0  0  0  0  0  0  0  0
   -4.0776   -8.4680   14.4642 H   0  0  0  0  0  0  0  0  0  0  0  0
   -7.6749   -9.1521   14.1169 H   0  0  0  0  0  0  0  0  0  0  0  0
   -9.4176   -8.3318   15.6844 H   0  0  0  0  0  0  0  0  0  0  0  0
   -8.7565   -7.2296   17.8101 H   0  0  0  0  0  0  0  0  0  0  0  0
   -7.0773   -6.4311   19.3279 H   0  0  0  0  0  0  0  0  0  0  0  0
   -4.6949   -6.0887   19.9548 H   0  0  0  0  0  0  0  0  0  0  0  0
   -2.8887   -6.9078   18.4468 H   0  0  0  0  0  0  0  0  0  0  0  0
   -3.4642   -8.0537   16.3232 H   0  0  0  0  0  0  0  0  0  0  0  0
  1  2  2  0
  2  3  1  0
  2  4  1  0
  4  5  2  0
  5  6  1  0
  6  7  2  0
  7  8  1  0
  8  9  2  0
  8 10  1  0
 10 11  2  0
 10 12  1  0
 12 13  1  0
 13 14  1  0
 14 15  1  0
 15 16  2  0
 16 17  1  0
 17 18  2  0
 18 19  1  0
 19 20  2  0
 20 21  1  0
 21 22  2  0
 22 23  1  0
 23 24  2  0
 13 25  1  0
 25 26  2  0
 25 27  1  0
 12 28  1  0
 28 29  2  0
  9  4  1  0
 24 15  1  0
 28  7  1  0
 24 19  1  0
  5 30  1  0
  6 31  1  0
  9 32  1  0
 13 33  1  1
 14 34  1  0
 14 35  1  0
 16 36  1  0
 17 37  1  0
 18 38  1  0
 20 39  1  0
 21 40  1  0
 22 41  1  0
 23 42  1  0
M  CHG  2   3  -1  27  -1
M  END
>  <meeko>  (6) 
{"is_sidechain": [false], "free_energy": -7.145, "intermolecular_energy": -9.659, "internal_energy": -0.432}

$$$$
2r9w_ligand
     RDKit          3D

 42 45  0  0  0  0  0  0  0  0999 V2000
    3.8700   -4.0840    8.0230 O   0  0  0  0  0  0  0  0  0  0  0  0
    2.9900   -4.3420    7.1420 C   0  0  0  0  0  0  0  0  0  0  0  0
    3.0910   -4.0910    5.8990 O   0  0  0  0  0  0  0  0  0  0  0  0
    1.7100   -5.0120    7.6110 C   0  0  0  0  0  0  0  0  0  0  0  0
    1.4010   -6.3350    7.1910 C   0  0  0  0  0  0  0  0  0  0  0  0
    0.2420   -6.9910    7.6170 C   0  0  0  0  0  0  0  0  0  0  0  0
   -0.6000   -6.2990    8.4650 C   0  0  0  0  0  0  0  0  0  0  0  0
   -0.3250   -5.0110    8.8820 C   0  0  0  0  0  0  0  0  0  0  0  0
    0.8160   -4.3420    8.4740 C   0  0  0  0  0  0  0  0  0  0  0  0
   -1.4050   -4.6060    9.7850 C   0  0  0  0  0  0  0  0  0  0  0  0
   -1.4460   -3.5270   10.3520 O   0  0  0  0  0  0  0  0  0  0  0  0
   -2.2690   -5.6680    9.8630 N   0  0  0  0  0  0  0  0  0  0  0  0
   -3.4780   -5.6820   10.7080 C   0  0  2  0  0  0  0  0  0  0  0  0
   -4.3260   -6.9510   10.4910 C   0  0  0  0  0  0  0  0  0  0  0  0
   -4.5250   -7.7840   11.7540 C   0  0  0  0  0  0  0  0  0  0  0  0
   -3.7370   -8.9440   11.8780 C   0  0  0  0  0  0  0  0  0  0  0  0
   -3.8740   -9.7910   12.9700 C   0  0  0  0  0  0  0  0  0  0  0  0
   -4.8020   -9.4940   13.9610 C   0  0  0  0  0  0  0  0  0  0  0  0
   -5.6040   -8.3470   13.8770 C   0  0  0  0  0  0  0  0  0  0  0  0
   -6.5450   -8.0810   14.8850 C   0  0  0  0  0  0  0  0  0  0  0  0
   -7.3670   -6.9580   14.8260 C   0  0  0  0  0  0  0  0  0  0  0  0
   -7.2510   -6.0810   13.7580 C   0  0  0  0  0  0  0  0  0  0  0  0
   -6.3170   -6.3310   12.7490 C   0  0  0  0  0  0  0  0  0  0  0  0
   -5.4730   -7.4660   12.7690 C   0  0  0  0  0  0  0  0  0  0  0  0
   -4.3460   -4.3950   10.5930 C   0  0  0  0  0  0  0  0  0  0  0  0
   -4.2810   -3.5990   11.5770 O   0  0  0  0  0  0  0  0  0  0  0  0
   -5.0780   -4.3010    9.5620 O   0  0  0  0  0  0  0  0  0  0  0  0
   -1.8400   -6.7270    9.1090 C   0  0  0  0  0  0  0  0  0  0  0  0
   -2.2910   -7.8530    8.9990 O   0  0  0  0  0  0  0  0  0  0  0  0
    2.0924   -6.8564    6.5127 H   0  0  0  0  0  0  0  0  0  0  0  0
    0.0106   -8.0155    7.2903 H   0  0  0  0  0  0  0  0  0  0  0  0
    1.0207   -3.3158    8.8131 H   0  0  0  0  0  0  0  0  0  0  0  0
   -3.1001   -5.6992   11.7409 H   0  0  0  0  0  0  0  0  0  0  0  0
   -5.3148   -6.6472   10.1169 H   0  0  0  0  0  0  0  0  0  0  0  0
   -3.7796   -7.5820    9.7746 H   0  0  0  0  0  0  0  0  0  0  0  0
   -3.0005   -9.1835   11.0969 H   0  0  0  0  0  0  0  0  0  0  0  0
   -3.2504  -10.6936   13.0503 H   0  0  0  0  0  0  0  0  0  0  0  0
   -4.9088  -10.1683   14.8235 H   0  0  0  0  0  0  0  0  0  0  0  0
   -6.6345   -8.7718   15.7363 H   0  0  0  0  0  0  0  0  0  0  0  0
   -8.1031   -6.7681   15.6211 H   0  0  0  0  0  0  0  0  0  0  0  0
   -7.8934   -5.1896   13.7052 H   0  0  0  0  0  0  0  0  0  0  0  0
   -6.2355   -5.6220   11.9119 H   0  0  0  0  0  0  0  0  0  0  0  0
  1  2  2  0
  2  3  1  0
  2  4  1  0
  4  5  2  0
  5  6  1  0
  6  7  2  0
  7  8  1  0
  8  9  2  0
  8 10  1  0
 10 11  2  0
 10 12  1  0
 12 13  1  0
 13 14  1  0
 14 15  1  0
 15 16  2  0
 16 17  1  0
 17 18  2  0
 18 19  1  0
 19 20  2  0
 20 21  1  0
 21 22  2  0
 22 23  1  0
 23 24  2  0
 13 25  1  0
 25 26  2  0
 25 27  1  0
 12 28  1  0
 28 29  2  0
  9  4  1  0
 24 15  1  0
 28  7  1  0
 24 19  1  0
  5 30  1  0
  6 31  1  0
  9 32  1  0
 13 33  1  1
 14 34  1  0
 14 35  1  0
 16 36  1  0
 17 37  1  0
 18 38  1  0
 20 39  1  0
 21 40  1  0
 22 41  1  0
 23 42  1  0
M  CHG  2   3  -1  27  -1
M  END
>  <meeko>  (7) 
{"is_sidechain": [false], "free_energy": -7.047, "intermolecular_energy": -10.088, "internal_energy": 0.124}

$$$$
2r9w_ligand
     RDKit          3D

 42 45  0  0  0  0  0  0  0  0999 V2000
   -0.4560   -4.7270    8.8610 O   0  0  0  0  0  0  0  0  0  0  0  0
   -1.4500   -4.5070    9.6220 C   0  0  0  0  0  0  0  0  0  0  0  0
   -1.7850   -3.3730   10.0930 O   0  0  0  0  0  0  0  0  0  0  0  0
   -2.3170   -5.6960   10.0000 C   0  0  0  0  0  0  0  0  0  0  0  0
   -2.1610   -6.9370    9.3240 C   0  0  0  0  0  0  0  0  0  0  0  0
   -2.9270   -8.0580    9.6580 C   0  0  0  0  0  0  0  0  0  0  0  0
   -3.8510   -7.9130   10.6740 C   0  0  0  0  0  0  0  0  0  0  0  0
   -4.0260   -6.7160   11.3400 C   0  0  0  0  0  0  0  0  0  0  0  0
   -3.2780   -5.5930   11.0290 C   0  0  0  0  0  0  0  0  0  0  0  0
   -5.0540   -6.9320   12.3620 C   0  0  0  0  0  0  0  0  0  0  0  0
   -5.4210   -6.0740   13.1470 O   0  0  0  0  0  0  0  0  0  0  0  0
   -5.4420   -8.2430   12.2540 N   0  0  0  0  0  0  0  0  0  0  0  0
   -6.4390   -8.8780   13.1350 C   0  0  2  0  0  0  0  0  0  0  0  0
   -7.1950   -7.8480   13.9990 C   0  0  0  0  0  0  0  0  0  0  0  0
   -7.4620   -8.3170   15.4260 C   0  0  0  0  0  0  0  0  0  0  0  0
   -8.5530   -9.1870   15.6120 C   0  0  0  0  0  0  0  0  0  0  0  0
   -8.9040   -9.6360   16.8790 C   0  0  0  0  0  0  0  0  0  0  0  0
   -8.1700   -9.2240   17.9850 C   0  0  0  0  0  0  0  0  0  0  0  0
   -7.0740   -8.3610   17.8420 C   0  0  0  0  0  0  0  0  0  0  0  0
   -6.3610   -7.9480   18.9800 C   0  0  0  0  0  0  0  0  0  0  0  0
   -5.2770   -7.0810   18.8750 C   0  0  0  0  0  0  0  0  0  0  0  0
   -4.8870   -6.6200   17.6260 C   0  0  0  0  0  0  0  0  0  0  0  0
   -5.5850   -7.0250   16.4850 C   0  0  0  0  0  0  0  0  0  0  0  0
   -6.6970   -7.8960   16.5530 C   0  0  0  0  0  0  0  0  0  0  0  0
   -5.8700  -10.0360   14.0060 C   0  0  0  0  0  0  0  0  0  0  0  0
   -4.7770   -9.7930   14.5970 O   0  0  0  0  0  0  0  0  0  0  0  0
   -6.5200  -11.1250   13.9850 O   0  0  0  0  0  0  0  0  0  0  0  0
   -4.7490   -8.8980   11.2720 C   0  0  0  0  0  0  0  0  0  0  0  0
   -4.7580  -10.0730   10.9480 O   0  0  0  0  0  0  0  0  0  0  0  0
   -1.4180   -7.0174    8.5168 H   0  0  0  0  0  0  0  0  0  0  0  0
   -2.7989   -9.0161    9.1330 H   0  0  0  0  0  0  0  0  0  0  0  0
   -3.4285   -4.6465   11.5690 H   0  0  0  0  0  0  0  0  0  0  0  0
   -7.1629   -9.3434   12.4499 H   0  0  0  0  0  0  0  0  0  0  0  0
   -6.5959   -6.9266   14.0434 H   0  0  0  0  0  0  0  0  0  0  0  0
   -8.1753   -7.6912   13.5252 H   0  0  0  0  0  0  0  0  0  0  0  0
   -9.1370   -9.5166   14.7401 H   0  0  0  0  0  0  0  0  0  0  0  0
   -9.7598  -10.3152   17.0064 H   0  0  0  0  0  0  0  0  0  0  0  0
   -8.4528   -9.5799   18.9867 H   0  0  0  0  0  0  0  0  0  0  0  0
   -6.6646   -8.3161   19.9711 H   0  0  0  0  0  0  0  0  0  0  0  0
   -4.7330   -6.7634   19.7768 H   0  0  0  0  0  0  0  0  0  0  0  0
   -4.0298   -5.9368   17.5339 H   0  0  0  0  0  0  0  0  0  0  0  0
   -5.2588   -6.6542   15.5021 H   0  0  0  0  0  0  0  0  0  0  0  0
  1  2  2  0
  2  3  1  0
  2  4  1  0
  4  5  2  0
  5  6  1  0
  6  7  2  0
  7  8  1  0
  8  9  2  0
  8 10  1  0
 10 11  2  0
 10 12  1  0
 12 13  1  0
 13 14  1  0
 14 15  1  0
 15 16  2  0
 16 17  1  0
 17 18  2  0
 18 19  1  0
 19 20  2  0
 20 21  1  0
 21 22  2  0
 22 23  1  0
 23 24  2  0
 13 25  1  0
 25 26  2  0
 25 27  1  0
 12 28  1  0
 28 29  2  0
  9  4  1  0
 24 15  1  0
 28  7  1  0
 24 19  1  0
  5 30  1  0
  6 31  1  0
  9 32  1  0
 13 33  1  6
 14 34  1  0
 14 35  1  0
 16 36  1  0
 17 37  1  0
 18 38  1  0
 20 39  1  0
 21 40  1  0
 22 41  1  0
 23 42  1  0
M  CHG  2   3  -1  27  -1
M  END
>  <meeko>  (8) 
{"is_sidechain": [false], "free_energy": -6.815, "intermolecular_energy": -10.086, "internal_energy": 0.421}

$$$$
2r9w_ligand
     RDKit          3D

 42 45  0  0  0  0  0  0  0  0999 V2000
   -5.0910   -3.3520   11.5920 O   0  0  0  0  0  0  0  0  0  0  0  0
   -5.0270   -4.3900   10.8620 C   0  0  0  0  0  0  0  0  0  0  0  0
   -4.9630   -4.3990    9.5910 O   0  0  0  0  0  0  0  0  0  0  0  0
   -5.0200   -5.7370   11.5640 C   0  0  0  0  0  0  0  0  0  0  0  0
   -4.4360   -6.8690   10.9320 C   0  0  0  0  0  0  0  0  0  0  0  0
   -4.3930   -8.1200   11.5560 C   0  0  0  0  0  0  0  0  0  0  0  0
   -4.9490   -8.2160   12.8160 C   0  0  0  0  0  0  0  0  0  0  0  0
   -5.5280   -7.1340   13.4470 C   0  0  0  0  0  0  0  0  0  0  0  0
   -5.5800   -5.8850   12.8510 C   0  0  0  0  0  0  0  0  0  0  0  0
   -5.9810   -7.5880   14.7650 C   0  0  0  0  0  0  0  0  0  0  0  0
   -6.5120   -6.8610   15.5880 O   0  0  0  0  0  0  0  0  0  0  0  0
   -5.6510   -8.9160   14.8540 N   0  0  0  0  0  0  0  0  0  0  0  0
   -5.9020   -9.7440   16.0480 C   0  0  2  0  0  0  0  0  0  0  0  0
   -7.3940  -10.0970   16.2120 C   0  0  0  0  0  0  0  0  0  0  0  0
   -7.6420  -11.5300   16.6730 C   0  0  0  0  0  0  0  0  0  0  0  0
   -8.0310  -11.7050   18.0150 C   0  0  0  0  0  0  0  0  0  0  0  0
   -8.2390  -12.9730   18.5440 C   0  0  0  0  0  0  0  0  0  0  0  0
   -8.0620  -14.0920   17.7390 C   0  0  0  0  0  0  0  0  0  0  0  0
   -7.6770  -13.9610   16.3970 C   0  0  0  0  0  0  0  0  0  0  0  0
   -7.4890  -15.1120   15.6120 C   0  0  0  0  0  0  0  0  0  0  0  0
   -7.0940  -15.0190   14.2800 C   0  0  0  0  0  0  0  0  0  0  0  0
   -6.8900  -13.7700   13.7130 C   0  0  0  0  0  0  0  0  0  0  0  0
   -7.0760  -12.6160   14.4800 C   0  0  0  0  0  0  0  0  0  0  0  0
   -7.4660  -12.6720   15.8380 C   0  0  0  0  0  0  0  0  0  0  0  0
   -5.3130   -9.1540   17.3630 C   0  0  0  0  0  0  0  0  0  0  0  0
   -4.0520   -9.2000   17.4700 O   0  0  0  0  0  0  0  0  0  0  0  0
   -6.1540   -8.7470   18.2210 O   0  0  0  0  0  0  0  0  0  0  0  0
   -5.0130   -9.3570   13.7270 C   0  0  0  0  0  0  0  0  0  0  0  0
   -4.5020  -10.4360   13.4780 O   0  0  0  0  0  0  0  0  0  0  0  0
   -4.0066   -6.7579    9.9254 H   0  0  0  0  0  0  0  0  0  0  0  0
   -3.9354   -8.9907   11.0636 H   0  0  0  0  0  0  0  0  0  0  0  0
   -6.0450   -5.0318   13.3665 H   0  0  0  0  0  0  0  0  0  0  0  0
   -5.3517  -10.6783   15.8626 H   0  0  0  0  0  0  0  0  0  0  0  0
   -7.8323   -9.4135   16.9541 H   0  0  0  0  0  0  0  0  0  0  0  0
   -7.8576   -9.9956   15.2196 H   0  0  0  0  0  0  0  0  0  0  0  0
   -8.1727  -10.8223   18.6559 H   0  0  0  0  0  0  0  0  0  0  0  0
   -8.5423  -13.0905   19.5948 H   0  0  0  0  0  0  0  0  0  0  0  0
   -8.2262  -15.0947   18.1606 H   0  0  0  0  0  0  0  0  0  0  0  0
   -7.6569  -16.1035   16.0579 H   0  0  0  0  0  0  0  0  0  0  0  0
   -6.9448  -15.9299   13.6817 H   0  0  0  0  0  0  0  0  0  0  0  0
   -6.5820  -13.6873   12.6603 H   0  0  0  0  0  0  0  0  0  0  0  0
   -6.9139  -11.6336   14.0124 H   0  0  0  0  0  0  0  0  0  0  0  0
  1  2  2  0
  2  3  1  0
  2  4  1  0
  4  5  2  0
  5  6  1  0
  6  7  2  0
  7  8  1  0
  8  9  2  0
  8 10  1  0
 10 11  2  0
 10 12  1  0
 12 13  1  0
 13 14  1  0
 14 15  1  0
 15 16  2  0
 16 17  1  0
 17 18  2  0
 18 19  1  0
 19 20  2  0
 20 21  1  0
 21 22  2  0
 22 23  1  0
 23 24  2  0
 13 25  1  0
 25 26  2  0
 25 27  1  0
 12 28  1  0
 28 29  2  0
  9  4  1  0
 24 15  1  0
 28  7  1  0
 24 19  1  0
  5 30  1  0
  6 31  1  0
  9 32  1  0
 13 33  1  6
 14 34  1  0
 14 35  1  0
 16 36  1  0
 17 37  1  0
 18 38  1  0
 20 39  1  0
 21 40  1  0
 22 41  1  0
 23 42  1  0
M  CHG  2   3  -1  27  -1
M  END
>  <meeko>  (9) 
{"is_sidechain": [false], "free_energy": -6.673, "intermolecular_energy": -8.66, "internal_energy": -0.821}

$$$$
