
     RDKit          3D

 36 37  0  0  0  0  0  0  0  0999 V2000
    1.1390    8.8530    7.1430 C   0  0  0  0  0  0  0  0  0  0  0  0
    1.1630    9.8460    6.1040 O   0  0  0  0  0  0  0  0  0  0  0  0
    1.5270    9.3760    4.8010 C   0  0  1  0  0  0  0  0  0  0  0  0
    1.1770   10.4180    3.7520 C   0  0  0  0  0  0  0  0  0  0  0  0
   -0.2750   10.9350    3.6620 C   0  0  2  0  0  0  0  0  0  0  0  0
   -1.3250    9.8230    3.7190 C   0  0  0  0  0  0  0  0  0  0  0  0
   -0.4840   11.8460    2.3740 C   0  0  0  0  0  0  0  0  0  0  0  0
   -0.1640   11.1110    1.0710 C   0  0  0  0  0  0  0  0  0  0  0  0
    1.1260   11.1380    0.5830 C   0  0  0  0  0  0  0  0  0  0  0  0
    1.4430   10.5150   -0.6210 C   0  0  0  0  0  0  0  0  0  0  0  0
    2.7130   10.5840   -1.1020 O   0  0  0  0  0  0  0  0  0  0  0  0
    0.4710    9.8330   -1.3380 C   0  0  0  0  0  0  0  0  0  0  0  0
   -0.8150    9.7750   -0.8400 C   0  0  0  0  0  0  0  0  0  0  0  0
   -1.1610   10.4420    0.3540 C   0  0  0  0  0  0  0  0  0  0  0  0
   -1.7150    9.0070   -1.5950 N   0  0  0  0  0  0  0  0  0  0  0  0
   -2.8530    8.3270   -1.2300 C   0  0  0  0  0  0  0  0  0  0  0  0
   -3.7480    8.0920   -2.0060 O   0  0  0  0  0  0  0  0  0  0  0  0
   -2.9990    7.7910    0.1440 C   0  0  0  0  0  0  0  0  0  0  0  0
   -4.3200    7.8610    0.8340 C   0  0  0  0  0  0  0  0  0  0  0  0
   -1.8870    7.1820    0.6990 C   0  0  0  0  0  0  0  0  0  0  0  0
   -1.8700    6.4680    2.0190 C   0  0  0  0  0  0  0  0  0  0  0  0
   -0.4190    6.2120    2.4660 C   0  0  0  0  0  0  0  0  0  0  0  0
    0.3900    5.2900    1.5380 C   0  0  2  0  0  0  0  0  0  0  0  0
   -0.2110    3.8770    1.4810 C   0  0  0  0  0  0  0  0  0  0  0  0
    1.8870    5.2300    1.9450 C   0  0  1  0  0  0  0  0  0  0  0  0
    2.5750    4.4160    1.0460 O   0  0  0  0  0  0  0  0  0  0  0  0
    3.7290    3.8110    1.4470 C   0  0  0  0  0  0  0  0  0  0  0  0
    4.3030    3.0030    0.5100 N   0  0  0  0  0  0  0  0  0  0  0  0
    4.1950    3.9350    2.5540 O   0  0  0  0  0  0  0  0  0  0  0  0
    2.5250    6.5910    2.0190 C   0  0  0  0  0  0  0  0  0  0  0  0
    2.7910    7.3340    0.7350 C   0  0  0  0  0  0  0  0  0  0  0  0
    2.8230    7.1140    3.2340 C   0  0  0  0  0  0  0  0  0  0  0  0
    3.5350    8.4010    3.4760 C   0  0  2  0  0  0  0  0  0  0  0  0
    5.0290    8.1430    3.5290 C   0  0  0  0  0  0  0  0  0  0  0  0
    3.0390    9.0670    4.7880 C   0  0  1  0  0  0  0  0  0  0  0  0
    3.7700   10.2620    5.0350 O   0  0  0  0  0  0  0  0  0  0  0  0
  2  1  1  0
  3  2  1  1
  4  3  1  0
  5  4  1  0
  5  6  1  6
  7  5  1  0
  8  7  1  0
  9  8  2  0
 10  9  1  0
 11 10  1  0
 12 10  2  0
 13 12  1  0
 14 13  2  0
 14  8  1  0
 15 13  1  0
 16 15  1  0
 17 16  2  0
 18 16  1  0
 19 18  1  0
 20 18  2  3
 21 20  1  0
 22 21  1  0
 23 22  1  0
 23 24  1  1
 25 23  1  0
 25 26  1  6
 27 26  1  0
 28 27  1  0
 29 27  2  0
 30 25  1  0
 31 30  1  0
 32 30  2  3
 33 32  1  0
 33 34  1  1
 35 33  1  0
 35  3  1  0
 35 36  1  6
M  END
$$$$
