
     RDKit          3D

 27 29  0  0  0  0  0  0  0  0999 V2000
    2.1610    4.5650   -6.2420 N   0  0  0  0  0  0  0  0  0  0  0  0
    1.3350    5.5770   -5.9660 C   0  0  0  0  0  0  0  0  0  0  0  0
    0.1470    5.4620   -6.1850 O   0  0  0  0  0  0  0  0  0  0  0  0
    1.9060    6.8290   -5.3930 C   0  0  0  0  0  0  0  0  0  0  0  0
    3.2720    6.9950   -5.2240 C   0  0  0  0  0  0  0  0  0  0  0  0
    3.7700    8.1620   -4.6930 C   0  0  0  0  0  0  0  0  0  0  0  0
    2.9140    9.1900   -4.3180 C   0  0  0  0  0  0  0  0  0  0  0  0
    1.5400    9.0330   -4.4840 C   0  0  0  0  0  0  0  0  0  0  0  0
    0.5940   10.0860   -4.1020 C   0  0  0  0  0  0  0  0  0  0  0  0
    0.9530   11.1690   -3.3110 C   0  0  0  0  0  0  0  0  0  0  0  0
   -0.0250   12.1200   -2.9810 C   0  0  0  0  0  0  0  0  0  0  0  0
    0.2260   13.2230   -2.1910 N   0  0  0  0  0  0  0  0  0  0  0  0
    1.3950   13.6920   -1.5980 C   0  0  0  0  0  0  0  0  0  0  0  0
    1.3470   14.8890   -0.9120 C   0  0  0  0  0  0  0  0  0  0  0  0
    2.4810   15.4060   -0.3160 C   0  0  0  0  0  0  0  0  0  0  0  0
    3.6770   14.7240   -0.3890 C   0  0  0  0  0  0  0  0  0  0  0  0
    4.8090   15.1780    0.2130 O   0  0  0  0  0  0  0  0  0  0  0  0
    5.3360   16.4360   -0.2090 C   0  0  1  0  0  0  0  0  0  0  0  0
    5.1420   16.6100   -1.5220 F   0  0  0  0  0  0  0  0  0  0  0  0
    4.7190   17.4190    0.4620 F   0  0  0  0  0  0  0  0  0  0  0  0
    6.6550   16.4580    0.0660 F   0  0  0  0  0  0  0  0  0  0  0  0
    3.7470   13.5350   -1.0570 C   0  0  0  0  0  0  0  0  0  0  0  0
    2.6070   13.0100   -1.6490 C   0  0  0  0  0  0  0  0  0  0  0  0
   -1.2690   11.9820   -3.4310 N   0  0  0  0  0  0  0  0  0  0  0  0
   -1.5740   10.9240   -4.1930 C   0  0  0  0  0  0  0  0  0  0  0  0
   -0.6800    9.9890   -4.5320 N   0  0  0  0  0  0  0  0  0  0  0  0
    1.0500    7.8500   -5.0250 C   0  0  0  0  0  0  0  0  0  0  0  0
  2  1  1  0
  3  2  2  0
  4  2  1  0
  5  4  2  0
  6  5  1  0
  7  6  2  0
  8  7  1  0
  9  8  1  0
 10  9  2  0
 11 10  1  0
 12 11  1  0
 13 12  1  0
 14 13  2  0
 15 14  1  0
 16 15  2  0
 17 16  1  0
 18 17  1  0
 18 19  1  6
 20 18  1  0
 21 18  1  0
 22 16  1  0
 23 22  2  0
 23 13  1  0
 24 11  2  0
 25 24  1  0
 26  9  1  0
 26 25  2  0
 27  8  2  0
 27  4  1  0
M  END
$$$$
