3u8n_ligand
     RDKit          3D

 36 37  0  0  0  0  0  0  0  0999 V2000
    3.0330  -27.1020   -6.0720 C   0  0  0  0  0  0  0  0  0  0  0  0
    4.5160  -27.2010   -5.7630 C   0  0  0  0  0  0  0  0  0  0  0  0
    4.9690  -26.0530   -5.0500 O   0  0  0  0  0  0  0  0  0  0  0  0
    5.6730  -26.1890   -3.8880 C   0  0  0  0  0  0  0  0  0  0  0  0
    6.9950  -26.6430   -3.7900 C   0  0  0  0  0  0  0  0  0  0  0  0
    7.6500  -26.7660   -2.5510 C   0  0  0  0  0  0  0  0  0  0  0  0
    8.9820  -27.2000   -2.4780 N   0  0  0  0  0  0  0  0  0  0  0  0
    9.3830  -28.2920   -3.3780 C   0  0  0  0  0  0  0  0  0  0  0  0
    8.4640  -29.5040   -3.1910 C   0  0  0  0  0  0  0  0  0  0  0  0
    8.7380  -30.3470   -1.9220 C   0  0  0  0  0  0  0  0  0  0  0  0
    8.9020  -29.5110   -0.6870 N   0  0  0  0  0  0  0  0  0  0  0  0
   10.0380  -28.5260   -0.6190 C   0  0  0  0  0  0  0  0  0  0  0  0
    9.6720  -27.1330   -1.1740 C   0  0  0  0  0  0  0  0  0  0  0  0
    6.8910  -26.3750   -1.4440 C   0  0  0  0  0  0  0  0  0  0  0  0
    5.6190  -25.9250   -1.4810 N   0  0  0  0  0  0  0  0  0  0  0  0
    5.0300  -25.8450   -2.6960 C   0  0  0  0  0  0  0  0  0  0  0  0
    3.2330  -25.2130   -2.7030 Br  0  0  0  0  0  0  0  0  0  0  0  0
    2.4642  -27.0640   -5.1313 H   0  0  0  0  0  0  0  0  0  0  0  0
    2.8399  -26.1890   -6.6543 H   0  0  0  0  0  0  0  0  0  0  0  0
    2.7203  -27.9813   -6.6543 H   0  0  0  0  0  0  0  0  0  0  0  0
    4.6967  -28.0978   -5.1522 H   0  0  0  0  0  0  0  0  0  0  0  0
    5.0676  -27.2627   -6.7127 H   0  0  0  0  0  0  0  0  0  0  0  0
    7.5367  -26.9112   -4.7090 H   0  0  0  0  0  0  0  0  0  0  0  0
    9.3179  -27.9452   -4.4199 H   0  0  0  0  0  0  0  0  0  0  0  0
   10.4158  -28.5878   -3.1416 H   0  0  0  0  0  0  0  0  0  0  0  0
    7.4269  -29.1407   -3.1412 H   0  0  0  0  0  0  0  0  0  0  0  0
    8.6553  -30.1681   -4.0468 H   0  0  0  0  0  0  0  0  0  0  0  0
    7.8939  -31.0356   -1.7696 H   0  0  0  0  0  0  0  0  0  0  0  0
    9.6835  -30.8857   -2.0826 H   0  0  0  0  0  0  0  0  0  0  0  0
    8.9960  -30.1630    0.1040 H   0  0  0  0  0  0  0  0  0  0  0  0
    8.0250  -29.0000   -0.5170 H   0  0  0  0  0  0  0  0  0  0  0  0
   10.3409  -28.4144    0.4326 H   0  0  0  0  0  0  0  0  0  0  0  0
   10.8512  -28.9227   -1.2446 H   0  0  0  0  0  0  0  0  0  0  0  0
    9.0118  -26.6295   -0.4524 H   0  0  0  0  0  0  0  0  0  0  0  0
   10.6104  -26.5790   -1.3238 H   0  0  0  0  0  0  0  0  0  0  0  0
    7.3723  -26.4397   -0.4570 H   0  0  0  0  0  0  0  0  0  0  0  0
  1  2  1  0
  2  3  1  0
  3  4  1  0
  4  5  2  0
  5  6  1  0
  6  7  1  0
  7  8  1  0
  8  9  1  0
  9 10  1  0
 10 11  1  0
 11 12  1  0
 12 13  1  0
  6 14  2  0
 14 15  1  0
 15 16  2  0
 16 17  1  0
 16  4  1  0
 13  7  1  0
  1 18  1  0
  1 19  1  0
  1 20  1  0
  2 21  1  0
  2 22  1  0
  5 23  1  0
  8 24  1  0
  8 25  1  0
  9 26  1  0
  9 27  1  0
 10 28  1  0
 10 29  1  0
 11 30  1  0
 11 31  1  0
 12 32  1  0
 12 33  1  0
 13 34  1  0
 13 35  1  0
 14 36  1  0
M  CHG  1  11   1
M  END
>  <meeko>  (1) 
{"is_sidechain": [false], "free_energy": -4.679, "intermolecular_energy": -7.14, "internal_energy": 0.197}

$$$$
3u8n_ligand
     RDKit          3D

 36 37  0  0  0  0  0  0  0  0999 V2000
    4.7510  -23.9610    1.3100 C   0  0  0  0  0  0  0  0  0  0  0  0
    5.4430  -25.1240    0.6220 C   0  0  0  0  0  0  0  0  0  0  0  0
    4.8000  -25.4480   -0.6080 O   0  0  0  0  0  0  0  0  0  0  0  0
    5.5170  -25.9520   -1.6550 C   0  0  0  0  0  0  0  0  0  0  0  0
    6.8010  -26.5050   -1.5680 C   0  0  0  0  0  0  0  0  0  0  0  0
    7.4790  -26.9960   -2.6990 C   0  0  0  0  0  0  0  0  0  0  0  0
    8.7540  -27.5680   -2.5840 N   0  0  0  0  0  0  0  0  0  0  0  0
    8.9150  -28.9520   -3.0520 C   0  0  0  0  0  0  0  0  0  0  0  0
    8.0240  -29.8990   -2.2390 C   0  0  0  0  0  0  0  0  0  0  0  0
    8.6110  -30.3660   -0.9060 C   0  0  0  0  0  0  0  0  0  0  0  0
    9.1730  -29.2460   -0.0800 N   0  0  0  0  0  0  0  0  0  0  0  0
   10.2140  -28.3450   -0.6870 C   0  0  0  0  0  0  0  0  0  0  0  0
    9.6120  -27.1490   -1.4560 C   0  0  0  0  0  0  0  0  0  0  0  0
    6.7630  -26.9110   -3.8960 C   0  0  0  0  0  0  0  0  0  0  0  0
    5.5230  -26.3940   -4.0370 N   0  0  0  0  0  0  0  0  0  0  0  0
    4.9250  -25.9190   -2.9210 C   0  0  0  0  0  0  0  0  0  0  0  0
    3.1820  -25.1910   -3.1650 Br  0  0  0  0  0  0  0  0  0  0  0  0
    4.8242  -24.0840    2.4006 H   0  0  0  0  0  0  0  0  0  0  0  0
    5.2355  -23.0189    1.0139 H   0  0  0  0  0  0  0  0  0  0  0  0
    3.6919  -23.9374    1.0139 H   0  0  0  0  0  0  0  0  0  0  0  0
    6.4892  -24.8509    0.4196 H   0  0  0  0  0  0  0  0  0  0  0  0
    5.3939  -26.0012    1.2839 H   0  0  0  0  0  0  0  0  0  0  0  0
    7.2941  -26.5570   -0.5861 H   0  0  0  0  0  0  0  0  0  0  0  0
    8.6325  -29.0107   -4.1135 H   0  0  0  0  0  0  0  0  0  0  0  0
    9.9654  -29.2521   -2.9229 H   0  0  0  0  0  0  0  0  0  0  0  0
    7.0774  -29.3791   -2.0299 H   0  0  0  0  0  0  0  0  0  0  0  0
    7.9037  -30.8044   -2.8520 H   0  0  0  0  0  0  0  0  0  0  0  0
    7.8161  -30.8608   -0.3287 H   0  0  0  0  0  0  0  0  0  0  0  0
    9.4417  -31.0490   -1.1372 H   0  0  0  0  0  0  0  0  0  0  0  0
    9.5730  -29.6720    0.7670 H   0  0  0  0  0  0  0  0  0  0  0  0
    8.3950  -28.6590    0.2510 H   0  0  0  0  0  0  0  0  0  0  0  0
   10.8525  -27.9558    0.1198 H   0  0  0  0  0  0  0  0  0  0  0  0
   10.7828  -28.9459   -1.4119 H   0  0  0  0  0  0  0  0  0  0  0  0
    9.0080  -26.5504   -0.7582 H   0  0  0  0  0  0  0  0  0  0  0  0
   10.4479  -26.5683   -1.8731 H   0  0  0  0  0  0  0  0  0  0  0  0
    7.2515  -27.2987   -4.8021 H   0  0  0  0  0  0  0  0  0  0  0  0
  1  2  1  0
  2  3  1  0
  3  4  1  0
  4  5  2  0
  5  6  1  0
  6  7  1  0
  7  8  1  0
  8  9  1  0
  9 10  1  0
 10 11  1  0
 11 12  1  0
 12 13  1  0
  6 14  2  0
 14 15  1  0
 15 16  2  0
 16 17  1  0
 16  4  1  0
 13  7  1  0
  1 18  1  0
  1 19  1  0
  1 20  1  0
  2 21  1  0
  2 22  1  0
  5 23  1  0
  8 24  1  0
  8 25  1  0
  9 26  1  0
  9 27  1  0
 10 28  1  0
 10 29  1  0
 11 30  1  0
 11 31  1  0
 12 32  1  0
 12 33  1  0
 13 34  1  0
 13 35  1  0
 14 36  1  0
M  CHG  1  11   1
M  END
>  <meeko>  (2) 
{"is_sidechain": [false], "free_energy": -4.617, "intermolecular_energy": -6.915, "internal_energy": 0.066}

$$$$
3u8n_ligand
     RDKit          3D

 36 37  0  0  0  0  0  0  0  0999 V2000
    8.7860  -31.9970   -2.9400 C   0  0  0  0  0  0  0  0  0  0  0  0
    8.5100  -30.9400   -3.9940 C   0  0  0  0  0  0  0  0  0  0  0  0
    9.1420  -29.7070   -3.6610 O   0  0  0  0  0  0  0  0  0  0  0  0
    8.4370  -28.7040   -3.0590 C   0  0  0  0  0  0  0  0  0  0  0  0
    7.3230  -28.0550   -3.6070 C   0  0  0  0  0  0  0  0  0  0  0  0
    6.6550  -27.0200   -2.9270 C   0  0  0  0  0  0  0  0  0  0  0  0
    5.5260  -26.4010   -3.4840 N   0  0  0  0  0  0  0  0  0  0  0  0
    5.4550  -26.3270   -4.9500 C   0  0  0  0  0  0  0  0  0  0  0  0
    4.2970  -27.1840   -5.4740 C   0  0  0  0  0  0  0  0  0  0  0  0
    2.9030  -26.7080   -5.0470 C   0  0  0  0  0  0  0  0  0  0  0  0
    2.7790  -26.4470   -3.5740 N   0  0  0  0  0  0  0  0  0  0  0  0
    3.3740  -25.1870   -3.0050 C   0  0  0  0  0  0  0  0  0  0  0  0
    4.8910  -25.2970   -2.7360 C   0  0  0  0  0  0  0  0  0  0  0  0
    7.1730  -26.7160   -1.6650 C   0  0  0  0  0  0  0  0  0  0  0  0
    8.2390  -27.3120   -1.0870 N   0  0  0  0  0  0  0  0  0  0  0  0
    8.8550  -28.2870   -1.7930 C   0  0  0  0  0  0  0  0  0  0  0  0
   10.3570  -29.0950   -0.9450 Br  0  0  0  0  0  0  0  0  0  0  0  0
    8.6707  -31.5556   -1.9391 H   0  0  0  0  0  0  0  0  0  0  0  0
    8.0746  -32.8276   -3.0586 H   0  0  0  0  0  0  0  0  0  0  0  0
    9.8126  -32.3738   -3.0586 H   0  0  0  0  0  0  0  0  0  0  0  0
    8.8940  -31.2903   -4.9634 H   0  0  0  0  0  0  0  0  0  0  0  0
    7.4239  -30.7734   -4.0461 H   0  0  0  0  0  0  0  0  0  0  0  0
    6.9597  -28.3637   -4.5983 H   0  0  0  0  0  0  0  0  0  0  0  0
    5.2976  -25.2813   -5.2527 H   0  0  0  0  0  0  0  0  0  0  0  0
    6.3977  -26.7054   -5.3720 H   0  0  0  0  0  0  0  0  0  0  0  0
    4.3384  -27.1807   -6.5732 H   0  0  0  0  0  0  0  0  0  0  0  0
    4.4301  -28.1855   -5.0389 H   0  0  0  0  0  0  0  0  0  0  0  0
    2.6743  -25.7763   -5.5852 H   0  0  0  0  0  0  0  0  0  0  0  0
    2.1987  -27.5172   -5.2903 H   0  0  0  0  0  0  0  0  0  0  0  0
    3.2070  -27.2490   -3.0920 H   0  0  0  0  0  0  0  0  0  0  0  0
    1.7830  -26.4740   -3.3180 H   0  0  0  0  0  0  0  0  0  0  0  0
    3.2042  -24.3672   -3.7185 H   0  0  0  0  0  0  0  0  0  0  0  0
    2.8835  -25.0020   -2.0380 H   0  0  0  0  0  0  0  0  0  0  0  0
    5.3698  -24.3516   -3.0309 H   0  0  0  0  0  0  0  0  0  0  0  0
    5.0232  -25.5041   -1.6638 H   0  0  0  0  0  0  0  0  0  0  0  0
    6.6693  -25.9230   -1.0928 H   0  0  0  0  0  0  0  0  0  0  0  0
  1  2  1  0
  2  3  1  0
  3  4  1  0
  4  5  2  0
  5  6  1  0
  6  7  1  0
  7  8  1  0
  8  9  1  0
  9 10  1  0
 10 11  1  0
 11 12  1  0
 12 13  1  0
  6 14  2  0
 14 15  1  0
 15 16  2  0
 16 17  1  0
 16  4  1  0
 13  7  1  0
  1 18  1  0
  1 19  1  0
  1 20  1  0
  2 21  1  0
  2 22  1  0
  5 23  1  0
  8 24  1  0
  8 25  1  0
  9 26  1  0
  9 27  1  0
 10 28  1  0
 10 29  1  0
 11 30  1  0
 11 31  1  0
 12 32  1  0
 12 33  1  0
 13 34  1  0
 13 35  1  0
 14 36  1  0
M  CHG  1  11   1
M  END
>  <meeko>  (3) 
{"is_sidechain": [false], "free_energy": -4.529, "intermolecular_energy": -6.751, "internal_energy": 0.037}

$$$$
3u8n_ligand
     RDKit          3D

 36 37  0  0  0  0  0  0  0  0999 V2000
    2.9440  -25.4400   -3.1860 C   0  0  0  0  0  0  0  0  0  0  0  0
    4.3910  -25.6260   -3.6060 C   0  0  0  0  0  0  0  0  0  0  0  0
    5.2820  -25.2270   -2.5670 O   0  0  0  0  0  0  0  0  0  0  0  0
    5.8140  -26.1510   -1.7130 C   0  0  0  0  0  0  0  0  0  0  0  0
    6.5860  -27.2560   -2.0940 C   0  0  0  0  0  0  0  0  0  0  0  0
    7.0910  -28.1710   -1.1530 C   0  0  0  0  0  0  0  0  0  0  0  0
    7.8830  -29.2570   -1.5550 N   0  0  0  0  0  0  0  0  0  0  0  0
    9.1340  -29.4870   -0.8170 C   0  0  0  0  0  0  0  0  0  0  0  0
    9.9820  -28.2110   -0.7930 C   0  0  0  0  0  0  0  0  0  0  0  0
   10.6600  -27.8480   -2.1240 C   0  0  0  0  0  0  0  0  0  0  0  0
    9.7660  -27.9630   -3.3240 N   0  0  0  0  0  0  0  0  0  0  0  0
    9.2110  -29.3130   -3.6920 C   0  0  0  0  0  0  0  0  0  0  0  0
    7.8790  -29.6380   -2.9820 C   0  0  0  0  0  0  0  0  0  0  0  0
    6.7860  -27.8740    0.1780 C   0  0  0  0  0  0  0  0  0  0  0  0
    6.0530  -26.8210    0.6020 N   0  0  0  0  0  0  0  0  0  0  0  0
    5.5760  -25.9840   -0.3470 C   0  0  0  0  0  0  0  0  0  0  0  0
    4.5400  -24.5180    0.2920 Br  0  0  0  0  0  0  0  0  0  0  0  0
    2.8791  -25.4317   -2.0879 H   0  0  0  0  0  0  0  0  0  0  0  0
    2.5667  -24.4860   -3.5829 H   0  0  0  0  0  0  0  0  0  0  0  0
    2.3377  -26.2676   -3.5829 H   0  0  0  0  0  0  0  0  0  0  0  0
    4.5638  -26.6869   -3.8398 H   0  0  0  0  0  0  0  0  0  0  0  0
    4.5817  -24.9995   -4.4898 H   0  0  0  0  0  0  0  0  0  0  0  0
    6.8037  -27.4127   -3.1608 H   0  0  0  0  0  0  0  0  0  0  0  0
    8.8966  -29.7839    0.2152 H   0  0  0  0  0  0  0  0  0  0  0  0
    9.7027  -30.2841   -1.3182 H   0  0  0  0  0  0  0  0  0  0  0  0
    9.3288  -27.3741   -0.5050 H   0  0  0  0  0  0  0  0  0  0  0  0
   10.7965  -28.4003   -0.0783 H   0  0  0  0  0  0  0  0  0  0  0  0
   11.0154  -26.8091   -2.0575 H   0  0  0  0  0  0  0  0  0  0  0  0
   11.4765  -28.5707   -2.2690 H   0  0  0  0  0  0  0  0  0  0  0  0
   10.3000  -27.6060   -4.1290 H   0  0  0  0  0  0  0  0  0  0  0  0
    8.9770  -27.3130   -3.2100 H   0  0  0  0  0  0  0  0  0  0  0  0
    9.0427  -29.3372   -4.7788 H   0  0  0  0  0  0  0  0  0  0  0  0
    9.9449  -30.0666   -3.3702 H   0  0  0  0  0  0  0  0  0  0  0  0
    7.0686  -29.0935   -3.4888 H   0  0  0  0  0  0  0  0  0  0  0  0
    7.7335  -30.7271   -3.0335 H   0  0  0  0  0  0  0  0  0  0  0  0
    7.1765  -28.5566    0.9472 H   0  0  0  0  0  0  0  0  0  0  0  0
  1  2  1  0
  2  3  1  0
  3  4  1  0
  4  5  2  0
  5  6  1  0
  6  7  1  0
  7  8  1  0
  8  9  1  0
  9 10  1  0
 10 11  1  0
 11 12  1  0
 12 13  1  0
  6 14  2  0
 14 15  1  0
 15 16  2  0
 16 17  1  0
 16  4  1  0
 13  7  1  0
  1 18  1  0
  1 19  1  0
  1 20  1  0
  2 21  1  0
  2 22  1  0
  5 23  1  0
  8 24  1  0
  8 25  1  0
  9 26  1  0
  9 27  1  0
 10 28  1  0
 10 29  1  0
 11 30  1  0
 11 31  1  0
 12 32  1  0
 12 33  1  0
 13 34  1  0
 13 35  1  0
 14 36  1  0
M  CHG  1  11   1
M  END
>  <meeko>  (4) 
{"is_sidechain": [false], "free_energy": -4.448, "intermolecular_energy": -6.77, "internal_energy": 0.179}

$$$$
3u8n_ligand
     RDKit          3D

 36 37  0  0  0  0  0  0  0  0999 V2000
    3.1880  -25.4290   -2.8810 C   0  0  0  0  0  0  0  0  0  0  0  0
    4.5500  -25.7550   -3.4650 C   0  0  0  0  0  0  0  0  0  0  0  0
    5.5940  -25.3800   -2.5710 O   0  0  0  0  0  0  0  0  0  0  0  0
    6.2010  -26.3130   -1.7790 C   0  0  0  0  0  0  0  0  0  0  0  0
    7.0340  -27.3440   -2.2340 C   0  0  0  0  0  0  0  0  0  0  0  0
    7.6150  -28.2750   -1.3530 C   0  0  0  0  0  0  0  0  0  0  0  0
    8.4640  -29.2840   -1.8280 N   0  0  0  0  0  0  0  0  0  0  0  0
    9.2430  -30.0330   -0.8290 C   0  0  0  0  0  0  0  0  0  0  0  0
    8.8860  -31.5220   -0.8800 C   0  0  0  0  0  0  0  0  0  0  0  0
    9.4290  -32.2990   -2.0960 C   0  0  0  0  0  0  0  0  0  0  0  0
   10.1110  -31.4420   -3.1220 N   0  0  0  0  0  0  0  0  0  0  0  0
    9.2930  -30.4470   -3.9010 C   0  0  0  0  0  0  0  0  0  0  0  0
    9.0890  -29.1100   -3.1550 C   0  0  0  0  0  0  0  0  0  0  0  0
    7.3180  -28.0700   -0.0020 C   0  0  0  0  0  0  0  0  0  0  0  0
    6.5300  -27.0910    0.4910 N   0  0  0  0  0  0  0  0  0  0  0  0
    5.9810  -26.2360   -0.4020 C   0  0  0  0  0  0  0  0  0  0  0  0
    4.8690  -24.8760    0.3350 Br  0  0  0  0  0  0  0  0  0  0  0  0
    3.2471  -25.4431   -1.7827 H   0  0  0  0  0  0  0  0  0  0  0  0
    2.8738  -24.4303   -3.2185 H   0  0  0  0  0  0  0  0  0  0  0  0
    2.4557  -26.1772   -3.2185 H   0  0  0  0  0  0  0  0  0  0  0  0
    4.6102  -26.8369   -3.6542 H   0  0  0  0  0  0  0  0  0  0  0  0
    4.6727  -25.1915   -4.4017 H   0  0  0  0  0  0  0  0  0  0  0  0
    7.2397  -27.4280   -3.3113 H   0  0  0  0  0  0  0  0  0  0  0  0
   10.3157  -29.9101   -1.0394 H   0  0  0  0  0  0  0  0  0  0  0  0
    9.0071  -29.6437    0.1724 H   0  0  0  0  0  0  0  0  0  0  0  0
    9.2841  -31.9962    0.0292 H   0  0  0  0  0  0  0  0  0  0  0  0
    7.7899  -31.5646   -0.9623 H   0  0  0  0  0  0  0  0  0  0  0  0
   10.1525  -33.0442   -1.7336 H   0  0  0  0  0  0  0  0  0  0  0  0
    8.5595  -32.7539   -2.5931 H   0  0  0  0  0  0  0  0  0  0  0  0
   10.5600  -32.0810   -3.7930 H   0  0  0  0  0  0  0  0  0  0  0  0
   10.8840  -30.9360   -2.6680 H   0  0  0  0  0  0  0  0  0  0  0  0
    9.8054  -30.2418   -4.8525 H   0  0  0  0  0  0  0  0  0  0  0  0
    8.2982  -30.8906   -4.0547 H   0  0  0  0  0  0  0  0  0  0  0  0
   10.0692  -28.6291   -3.0214 H   0  0  0  0  0  0  0  0  0  0  0  0
    8.4106  -28.4925   -3.7620 H   0  0  0  0  0  0  0  0  0  0  0  0
    7.7653  -28.7670    0.7219 H   0  0  0  0  0  0  0  0  0  0  0  0
  1  2  1  0
  2  3  1  0
  3  4  1  0
  4  5  2  0
  5  6  1  0
  6  7  1  0
  7  8  1  0
  8  9  1  0
  9 10  1  0
 10 11  1  0
 11 12  1  0
 12 13  1  0
  6 14  2  0
 14 15  1  0
 15 16  2  0
 16 17  1  0
 16  4  1  0
 13  7  1  0
  1 18  1  0
  1 19  1  0
  1 20  1  0
  2 21  1  0
  2 22  1  0
  5 23  1  0
  8 24  1  0
  8 25  1  0
  9 26  1  0
  9 27  1  0
 10 28  1  0
 10 29  1  0
 11 30  1  0
 11 31  1  0
 12 32  1  0
 12 33  1  0
 13 34  1  0
 13 35  1  0
 14 36  1  0
M  CHG  1  11   1
M  END
>  <meeko>  (5) 
{"is_sidechain": [false], "free_energy": -4.437, "intermolecular_energy": -6.631, "internal_energy": 0.056}

$$$$
3u8n_ligand
     RDKit          3D

 36 37  0  0  0  0  0  0  0  0999 V2000
    7.0140  -32.6530   -1.7060 C   0  0  0  0  0  0  0  0  0  0  0  0
    6.4350  -31.6880   -2.7250 C   0  0  0  0  0  0  0  0  0  0  0  0
    7.4650  -31.0990   -3.5150 O   0  0  0  0  0  0  0  0  0  0  0  0
    7.7720  -29.7750   -3.3840 C   0  0  0  0  0  0  0  0  0  0  0  0
    6.9130  -28.7100   -3.6860 C   0  0  0  0  0  0  0  0  0  0  0  0
    7.3090  -27.3680   -3.5340 C   0  0  0  0  0  0  0  0  0  0  0  0
    6.4240  -26.3180   -3.8200 N   0  0  0  0  0  0  0  0  0  0  0  0
    6.3150  -25.2410   -2.8250 C   0  0  0  0  0  0  0  0  0  0  0  0
    5.5130  -25.7180   -1.6080 C   0  0  0  0  0  0  0  0  0  0  0  0
    4.0140  -25.4560   -1.6910 C   0  0  0  0  0  0  0  0  0  0  0  0
    3.3820  -25.9770   -2.9490 N   0  0  0  0  0  0  0  0  0  0  0  0
    4.0340  -25.6730   -4.2710 C   0  0  0  0  0  0  0  0  0  0  0  0
    5.2080  -26.6180   -4.6040 C   0  0  0  0  0  0  0  0  0  0  0  0
    8.6030  -27.1900   -3.0360 C   0  0  0  0  0  0  0  0  0  0  0  0
    9.4690  -28.1780   -2.7230 N   0  0  0  0  0  0  0  0  0  0  0  0
    9.0440  -29.4480   -2.9070 C   0  0  0  0  0  0  0  0  0  0  0  0
   10.2980  -30.8110   -2.4600 Br  0  0  0  0  0  0  0  0  0  0  0  0
    6.7957  -32.2892   -0.6911 H   0  0  0  0  0  0  0  0  0  0  0  0
    6.5628  -33.6466   -1.8443 H   0  0  0  0  0  0  0  0  0  0  0  0
    8.1031  -32.7224   -1.8443 H   0  0  0  0  0  0  0  0  0  0  0  0
    5.7436  -32.2333   -3.3843 H   0  0  0  0  0  0  0  0  0  0  0  0
    5.9052  -30.8877   -2.1875 H   0  0  0  0  0  0  0  0  0  0  0  0
    5.8993  -28.9292   -4.0527 H   0  0  0  0  0  0  0  0  0  0  0  0
    7.3231  -24.9433   -2.5009 H   0  0  0  0  0  0  0  0  0  0  0  0
    5.7968  -24.3845   -3.2810 H   0  0  0  0  0  0  0  0  0  0  0  0
    5.6660  -26.8020   -1.5002 H   0  0  0  0  0  0  0  0  0  0  0  0
    5.8821  -25.1413   -0.7471 H   0  0  0  0  0  0  0  0  0  0  0  0
    3.5281  -25.9404   -0.8312 H   0  0  0  0  0  0  0  0  0  0  0  0
    3.8765  -24.3646   -1.6888 H   0  0  0  0  0  0  0  0  0  0  0  0
    2.4210  -25.6100   -2.9740 H   0  0  0  0  0  0  0  0  0  0  0  0
    3.2830  -26.9980   -2.8680 H   0  0  0  0  0  0  0  0  0  0  0  0
    3.2764  -25.7647   -5.0633 H   0  0  0  0  0  0  0  0  0  0  0  0
    4.4440  -24.6544   -4.2056 H   0  0  0  0  0  0  0  0  0  0  0  0
    4.8985  -27.6518   -4.3909 H   0  0  0  0  0  0  0  0  0  0  0  0
    5.4556  -26.4773   -5.6665 H   0  0  0  0  0  0  0  0  0  0  0  0
    8.9456  -26.1555   -2.8861 H   0  0  0  0  0  0  0  0  0  0  0  0
  1  2  1  0
  2  3  1  0
  3  4  1  0
  4  5  2  0
  5  6  1  0
  6  7  1  0
  7  8  1  0
  8  9  1  0
  9 10  1  0
 10 11  1  0
 11 12  1  0
 12 13  1  0
  6 14  2  0
 14 15  1  0
 15 16  2  0
 16 17  1  0
 16  4  1  0
 13  7  1  0
  1 18  1  0
  1 19  1  0
  1 20  1  0
  2 21  1  0
  2 22  1  0
  5 23  1  0
  8 24  1  0
  8 25  1  0
  9 26  1  0
  9 27  1  0
 10 28  1  0
 10 29  1  0
 11 30  1  0
 11 31  1  0
 12 32  1  0
 12 33  1  0
 13 34  1  0
 13 35  1  0
 14 36  1  0
M  CHG  1  11   1
M  END
>  <meeko>  (6) 
{"is_sidechain": [false], "free_energy": -4.431, "intermolecular_energy": -6.616, "internal_energy": 0.05}

$$$$
3u8n_ligand
     RDKit          3D

 36 37  0  0  0  0  0  0  0  0999 V2000
    8.0330  -31.6390   -4.4210 C   0  0  0  0  0  0  0  0  0  0  0  0
    9.1090  -30.6300   -4.0610 C   0  0  0  0  0  0  0  0  0  0  0  0
    9.3850  -30.6510   -2.6630 O   0  0  0  0  0  0  0  0  0  0  0  0
    8.5580  -30.0180   -1.7810 C   0  0  0  0  0  0  0  0  0  0  0  0
    7.8690  -28.8230   -2.0300 C   0  0  0  0  0  0  0  0  0  0  0  0
    7.0420  -28.2250   -1.0620 C   0  0  0  0  0  0  0  0  0  0  0  0
    6.3430  -27.0420   -1.3410 N   0  0  0  0  0  0  0  0  0  0  0  0
    6.8140  -26.2350   -2.4770 C   0  0  0  0  0  0  0  0  0  0  0  0
    5.7570  -26.2060   -3.5870 C   0  0  0  0  0  0  0  0  0  0  0  0
    4.4110  -25.5740   -3.1780 C   0  0  0  0  0  0  0  0  0  0  0  0
    4.4520  -24.8480   -1.8660 N   0  0  0  0  0  0  0  0  0  0  0  0
    4.3890  -25.6440   -0.5900 C   0  0  0  0  0  0  0  0  0  0  0  0
    5.7340  -26.3040   -0.2160 C   0  0  0  0  0  0  0  0  0  0  0  0
    6.9430  -28.9280    0.1430 C   0  0  0  0  0  0  0  0  0  0  0  0
    7.5780  -30.0840    0.4330 N   0  0  0  0  0  0  0  0  0  0  0  0
    8.3760  -30.6050   -0.5260 C   0  0  0  0  0  0  0  0  0  0  0  0
    9.2590  -32.2310   -0.0720 Br  0  0  0  0  0  0  0  0  0  0  0  0
    7.5938  -32.0509   -3.5004 H   0  0  0  0  0  0  0  0  0  0  0  0
    7.2485  -31.1434   -5.0117 H   0  0  0  0  0  0  0  0  0  0  0  0
    8.4772  -32.4537   -5.0117 H   0  0  0  0  0  0  0  0  0  0  0  0
   10.0290  -30.8737   -4.6125 H   0  0  0  0  0  0  0  0  0  0  0  0
    8.7507  -29.6257   -4.3313 H   0  0  0  0  0  0  0  0  0  0  0  0
    7.9783  -28.3385   -3.0115 H   0  0  0  0  0  0  0  0  0  0  0  0
    7.0092  -25.2077   -2.1355 H   0  0  0  0  0  0  0  0  0  0  0  0
    7.7366  -26.6830   -2.8746 H   0  0  0  0  0  0  0  0  0  0  0  0
    6.1631  -25.6307   -4.4320 H   0  0  0  0  0  0  0  0  0  0  0  0
    5.5437  -27.2549   -3.8407 H   0  0  0  0  0  0  0  0  0  0  0  0
    4.1125  -24.8597   -3.9595 H   0  0  0  0  0  0  0  0  0  0  0  0
    3.6934  -26.3997   -3.0627 H   0  0  0  0  0  0  0  0  0  0  0  0
    3.6660  -24.1830   -1.8680 H   0  0  0  0  0  0  0  0  0  0  0  0
    5.3010  -24.2670   -1.8380 H   0  0  0  0  0  0  0  0  0  0  0  0
    4.0910  -24.9708    0.2273 H   0  0  0  0  0  0  0  0  0  0  0  0
    3.6606  -26.4534   -0.7460 H   0  0  0  0  0  0  0  0  0  0  0  0
    6.4326  -25.5185    0.1080 H   0  0  0  0  0  0  0  0  0  0  0  0
    5.5345  -27.0297    0.5862 H   0  0  0  0  0  0  0  0  0  0  0  0
    6.2921  -28.5029    0.9212 H   0  0  0  0  0  0  0  0  0  0  0  0
  1  2  1  0
  2  3  1  0
  3  4  1  0
  4  5  2  0
  5  6  1  0
  6  7  1  0
  7  8  1  0
  8  9  1  0
  9 10  1  0
 10 11  1  0
 11 12  1  0
 12 13  1  0
  6 14  2  0
 14 15  1  0
 15 16  2  0
 16 17  1  0
 16  4  1  0
 13  7  1  0
  1 18  1  0
  1 19  1  0
  1 20  1  0
  2 21  1  0
  2 22  1  0
  5 23  1  0
  8 24  1  0
  8 25  1  0
  9 26  1  0
  9 27  1  0
 10 28  1  0
 10 29  1  0
 11 30  1  0
 11 31  1  0
 12 32  1  0
 12 33  1  0
 13 34  1  0
 13 35  1  0
 14 36  1  0
M  CHG  1  11   1
M  END
>  <meeko>  (7) 
{"is_sidechain": [false], "free_energy": -4.261, "intermolecular_energy": -6.377, "internal_energy": 0.071}

$$$$
3u8n_ligand
     RDKit          3D

 36 37  0  0  0  0  0  0  0  0999 V2000
    6.4950  -32.7620   -2.7160 C   0  0  0  0  0  0  0  0  0  0  0  0
    6.6610  -32.1320   -1.3450 C   0  0  0  0  0  0  0  0  0  0  0  0
    7.8690  -31.3790   -1.2690 O   0  0  0  0  0  0  0  0  0  0  0  0
    7.9880  -30.1880   -1.9260 C   0  0  0  0  0  0  0  0  0  0  0  0
    7.1230  -29.0940   -1.7850 C   0  0  0  0  0  0  0  0  0  0  0  0
    7.3080  -27.9010   -2.5070 C   0  0  0  0  0  0  0  0  0  0  0  0
    6.4440  -26.8100   -2.3310 N   0  0  0  0  0  0  0  0  0  0  0  0
    6.1830  -25.9630   -3.5050 C   0  0  0  0  0  0  0  0  0  0  0  0
    4.7090  -26.0560   -3.9150 C   0  0  0  0  0  0  0  0  0  0  0  0
    3.7220  -25.5110   -2.8790 C   0  0  0  0  0  0  0  0  0  0  0  0
    4.3740  -24.8000   -1.7290 N   0  0  0  0  0  0  0  0  0  0  0  0
    5.0160  -25.6140   -0.6380 C   0  0  0  0  0  0  0  0  0  0  0  0
    6.4180  -26.1400   -1.0150 C   0  0  0  0  0  0  0  0  0  0  0  0
    8.4260  -27.8880   -3.3450 C   0  0  0  0  0  0  0  0  0  0  0  0
    9.2940  -28.9090   -3.5150 N   0  0  0  0  0  0  0  0  0  0  0  0
    9.0580  -30.0390   -2.8110 C   0  0  0  0  0  0  0  0  0  0  0  0
   10.3010  -31.4560   -3.0860 Br  0  0  0  0  0  0  0  0  0  0  0  0
    6.2162  -33.8200   -2.6020 H   0  0  0  0  0  0  0  0  0  0  0  0
    5.7057  -32.2324   -3.2697 H   0  0  0  0  0  0  0  0  0  0  0  0
    7.4427  -32.6901   -3.2697 H   0  0  0  0  0  0  0  0  0  0  0  0
    5.8087  -31.4643   -1.1509 H   0  0  0  0  0  0  0  0  0  0  0  0
    6.7020  -32.9349   -0.5942 H   0  0  0  0  0  0  0  0  0  0  0  0
    6.2745  -29.1707   -1.0892 H   0  0  0  0  0  0  0  0  0  0  0  0
    6.4255  -24.9186   -3.2593 H   0  0  0  0  0  0  0  0  0  0  0  0
    6.8081  -26.3100   -4.3410 H   0  0  0  0  0  0  0  0  0  0  0  0
    4.5760  -25.4876   -4.8473 H   0  0  0  0  0  0  0  0  0  0  0  0
    4.4839  -27.1270   -4.0257 H   0  0  0  0  0  0  0  0  0  0  0  0
    3.0458  -24.8051   -3.3834 H   0  0  0  0  0  0  0  0  0  0  0  0
    3.1920  -26.3780   -2.4577 H   0  0  0  0  0  0  0  0  0  0  0  0
    3.6530  -24.2020   -1.3010 H   0  0  0  0  0  0  0  0  0  0  0  0
    5.0800  -24.1500   -2.1020 H   0  0  0  0  0  0  0  0  0  0  0  0
    5.1086  -24.9844    0.2592 H   0  0  0  0  0  0  0  0  0  0  0  0
    4.3744  -26.4904   -0.4640 H   0  0  0  0  0  0  0  0  0  0  0  0
    7.1170  -25.2910   -1.0392 H   0  0  0  0  0  0  0  0  0  0  0  0
    6.7062  -26.8850   -0.2587 H   0  0  0  0  0  0  0  0  0  0  0  0
    8.6157  -26.9669   -3.9155 H   0  0  0  0  0  0  0  0  0  0  0  0
  1  2  1  0
  2  3  1  0
  3  4  1  0
  4  5  2  0
  5  6  1  0
  6  7  1  0
  7  8  1  0
  8  9  1  0
  9 10  1  0
 10 11  1  0
 11 12  1  0
 12 13  1  0
  6 14  2  0
 14 15  1  0
 15 16  2  0
 16 17  1  0
 16  4  1  0
 13  7  1  0
  1 18  1  0
  1 19  1  0
  1 20  1  0
  2 21  1  0
  2 22  1  0
  5 23  1  0
  8 24  1  0
  8 25  1  0
  9 26  1  0
  9 27  1  0
 10 28  1  0
 10 29  1  0
 11 30  1  0
 11 31  1  0
 12 32  1  0
 12 33  1  0
 13 34  1  0
 13 35  1  0
 14 36  1  0
M  CHG  1  11   1
M  END
>  <meeko>  (8) 
{"is_sidechain": [false], "free_energy": -4.229, "intermolecular_energy": -6.276, "internal_energy": 0.019}

$$$$
3u8n_ligand
     RDKit          3D

 36 37  0  0  0  0  0  0  0  0999 V2000
    2.8940  -25.9470   -2.8160 C   0  0  0  0  0  0  0  0  0  0  0  0
    4.0120  -24.9780   -2.4800 C   0  0  0  0  0  0  0  0  0  0  0  0
    5.1460  -25.1930   -3.3170 O   0  0  0  0  0  0  0  0  0  0  0  0
    5.9270  -26.3020   -3.1590 C   0  0  0  0  0  0  0  0  0  0  0  0
    6.6480  -26.6270   -2.0030 C   0  0  0  0  0  0  0  0  0  0  0  0
    7.4410  -27.7860   -1.9210 C   0  0  0  0  0  0  0  0  0  0  0  0
    8.1360  -28.1050   -0.7450 N   0  0  0  0  0  0  0  0  0  0  0  0
    9.4880  -28.6630   -0.8930 C   0  0  0  0  0  0  0  0  0  0  0  0
    9.4240  -30.0570   -1.5270 C   0  0  0  0  0  0  0  0  0  0  0  0
    9.2750  -31.2140   -0.5400 C   0  0  0  0  0  0  0  0  0  0  0  0
    8.4570  -30.8430    0.6620 N   0  0  0  0  0  0  0  0  0  0  0  0
    7.1700  -30.0900    0.4640 C   0  0  0  0  0  0  0  0  0  0  0  0
    7.3600  -28.5580    0.4270 C   0  0  0  0  0  0  0  0  0  0  0  0
    7.4280  -28.5890   -3.0650 C   0  0  0  0  0  0  0  0  0  0  0  0
    6.7470  -28.3280   -4.2030 N   0  0  0  0  0  0  0  0  0  0  0  0
    6.0170  -27.1900   -4.2330 C   0  0  0  0  0  0  0  0  0  0  0  0
    5.0800  -26.8550   -5.8580 Br  0  0  0  0  0  0  0  0  0  0  0  0
    2.4502  -26.3316   -1.8859 H   0  0  0  0  0  0  0  0  0  0  0  0
    2.1223  -25.4273   -3.4029 H   0  0  0  0  0  0  0  0  0  0  0  0
    3.2988  -26.7847   -3.4029 H   0  0  0  0  0  0  0  0  0  0  0  0
    3.6504  -23.9489   -2.6222 H   0  0  0  0  0  0  0  0  0  0  0  0
    4.3133  -25.1408   -1.4347 H   0  0  0  0  0  0  0  0  0  0  0  0
    6.5925  -25.9559   -1.1332 H   0  0  0  0  0  0  0  0  0  0  0  0
   10.0856  -27.9996   -1.5355 H   0  0  0  0  0  0  0  0  0  0  0  0
    9.9515  -28.7441    0.1013 H   0  0  0  0  0  0  0  0  0  0  0  0
    8.5632  -30.0805   -2.2114 H   0  0  0  0  0  0  0  0  0  0  0  0
   10.3900  -30.2080   -2.0310 H   0  0  0  0  0  0  0  0  0  0  0  0
    8.7859  -32.0548   -1.0536 H   0  0  0  0  0  0  0  0  0  0  0  0
   10.2815  -31.4847   -0.1884 H   0  0  0  0  0  0  0  0  0  0  0  0
    9.0650  -30.2820    1.2750 H   0  0  0  0  0  0  0  0  0  0  0  0
    8.2490  -31.6990    1.1950 H   0  0  0  0  0  0  0  0  0  0  0  0
    6.7211  -30.4095   -0.4881 H   0  0  0  0  0  0  0  0  0  0  0  0
    6.5227  -30.3180    1.3237 H   0  0  0  0  0  0  0  0  0  0  0  0
    6.3689  -28.0817    0.3976 H   0  0  0  0  0  0  0  0  0  0  0  0
    7.9237  -28.2727    1.3274 H   0  0  0  0  0  0  0  0  0  0  0  0
    8.0236  -29.5134   -3.0367 H   0  0  0  0  0  0  0  0  0  0  0  0
  1  2  1  0
  2  3  1  0
  3  4  1  0
  4  5  2  0
  5  6  1  0
  6  7  1  0
  7  8  1  0
  8  9  1  0
  9 10  1  0
 10 11  1  0
 11 12  1  0
 12 13  1  0
  6 14  2  0
 14 15  1  0
 15 16  2  0
 16 17  1  0
 16  4  1  0
 13  7  1  0
  1 18  1  0
  1 19  1  0
  1 20  1  0
  2 21  1  0
  2 22  1  0
  5 23  1  0
  8 24  1  0
  8 25  1  0
  9 26  1  0
  9 27  1  0
 10 28  1  0
 10 29  1  0
 11 30  1  0
 11 31  1  0
 12 32  1  0
 12 33  1  0
 13 34  1  0
 13 35  1  0
 14 36  1  0
M  CHG  1  11   1
M  END
>  <meeko>  (9) 
{"is_sidechain": [false], "free_energy": -4.223, "intermolecular_energy": -7.001, "internal_energy": 0.754}

$$$$
