
     RDKit          3D

 65 68  0  0  0  0  0  0  0  0999 V2000
    7.9260    5.3440    4.4680 C   0  0  0  0  0  0  0  0  0  0  0  0
    6.4320    5.4510    3.5650 S   0  0  0  0  0  0  0  0  0  0  0  0
    5.7760    3.8520    3.7380 C   0  0  0  0  0  0  0  0  0  0  0  0
    4.3050    3.8850    3.5340 C   0  0  0  0  0  0  0  0  0  0  0  0
    3.6470    2.5120    3.8460 C   0  0  2  0  0  0  0  0  0  0  0  0
    2.2430    2.6060    3.3880 N   0  0  0  0  0  0  0  0  0  0  0  0
    1.4180    1.4290    3.6970 C   0  0  0  0  0  0  0  0  0  0  0  0
    0.2890    1.7400    4.6540 C   0  0  2  0  0  0  0  0  0  0  0  0
   -0.6020    0.4990    4.7470 C   0  0  0  0  0  0  0  0  0  0  0  0
   -1.9730    0.7020    5.2500 C   0  0  0  0  0  0  0  0  0  0  0  0
   -2.2270    1.3160    6.4530 C   0  0  0  0  0  0  0  0  0  0  0  0
   -3.5330    1.4720    6.9050 C   0  0  0  0  0  0  0  0  0  0  0  0
   -4.5820    0.9940    6.1390 C   0  0  0  0  0  0  0  0  0  0  0  0
   -4.3310    0.3520    4.9360 C   0  0  0  0  0  0  0  0  0  0  0  0
   -3.0330    0.2130    4.4850 C   0  0  0  0  0  0  0  0  0  0  0  0
   -0.4320    2.9050    4.1770 N   0  0  0  0  0  0  0  0  0  0  0  0
   -0.5370    4.0240    4.9450 C   0  0  0  0  0  0  0  0  0  0  0  0
   -0.1980    4.1180    6.0890 O   0  0  0  0  0  0  0  0  0  0  0  0
   -1.1430    5.2000    4.2340 C   0  0  2  0  0  0  0  0  0  0  0  0
   -0.3430    6.4570    4.5490 C   0  0  0  0  0  0  0  0  0  0  0  0
    0.9720    6.2460    4.1270 O   0  0  0  0  0  0  0  0  0  0  0  0
   -2.5500    5.2540    4.6100 N   0  0  0  0  0  0  0  0  0  0  0  0
   -3.4810    5.4220    3.6270 C   0  0  0  0  0  0  0  0  0  0  0  0
   -3.1930    5.6550    2.4680 O   0  0  0  0  0  0  0  0  0  0  0  0
   -4.9390    5.3560    4.0290 C   0  0  2  0  0  0  0  0  0  0  0  0
   -5.4970    4.0000    3.6260 C   0  0  0  0  0  0  0  0  0  0  0  0
   -6.9920    3.8730    3.8800 C   0  0  2  0  0  0  0  0  0  0  0  0
   -7.3110    4.0490    5.3350 C   0  0  0  0  0  0  0  0  0  0  0  0
   -7.5090    2.5130    3.3910 C   0  0  0  0  0  0  0  0  0  0  0  0
   -5.5960    6.4880    3.4000 N   0  0  0  0  0  0  0  0  0  0  0  0
   -5.8560    7.5990    4.1200 C   0  0  0  0  0  0  0  0  0  0  0  0
   -5.8650    7.6300    5.3250 O   0  0  0  0  0  0  0  0  0  0  0  0
   -6.1510    8.8050    3.2950 C   0  0  2  0  0  0  0  0  0  0  0  0
   -5.3930   10.0290    3.8440 C   0  0  0  0  0  0  0  0  0  0  0  0
   -4.0580    9.8000    4.2110 C   0  0  0  0  0  0  0  0  0  0  0  0
   -3.1360    9.0980    3.5380 C   0  0  0  0  0  0  0  0  0  0  0  0
   -2.0030    9.1570    4.2620 N   0  0  0  0  0  0  0  0  0  0  0  0
   -2.2170    9.8890    5.3380 C   0  0  0  0  0  0  0  0  0  0  0  0
   -3.4660   10.2600    5.3420 N   0  0  0  0  0  0  0  0  0  0  0  0
   -7.5340    9.2190    3.3170 N   0  0  0  0  0  0  0  0  0  0  0  0
   -8.4000    8.7260    2.4590 C   0  0  0  0  0  0  0  0  0  0  0  0
   -8.2190    7.7100    1.8190 O   0  0  0  0  0  0  0  0  0  0  0  0
   -9.6060    9.5470    2.3650 C   0  0  1  0  0  0  0  0  0  0  0  0
   -9.6360   10.3360    1.0520 C   0  0  0  0  0  0  0  0  0  0  0  0
  -11.0530   10.6650    0.8040 C   0  0  0  0  0  0  0  0  0  0  0  0
  -11.8290    9.6230    1.5410 C   0  0  0  0  0  0  0  0  0  0  0  0
  -10.8950    8.8470    2.3670 N   0  0  0  0  0  0  0  0  0  0  0  0
    3.8200    2.2280    5.3320 C   0  0  0  0  0  0  0  0  0  0  0  0
    3.2420    2.8870    6.1500 O   0  0  0  0  0  0  0  0  0  0  0  0
    4.7050    1.2040    5.6240 N   0  0  0  0  0  0  0  0  0  0  0  0
    5.0860    0.9090    7.0030 C   0  0  1  0  0  0  0  0  0  0  0  0
    5.5960   -0.5480    7.1080 C   0  0  0  0  0  0  0  0  0  0  0  0
    6.1560    1.8570    7.4530 C   0  0  0  0  0  0  0  0  0  0  0  0
    6.9600    2.3340    6.6940 O   0  0  0  0  0  0  0  0  0  0  0  0
    6.1390    2.0910    8.7760 N   0  0  0  0  0  0  0  0  0  0  0  0
    7.0950    2.9680    9.3750 C   0  0  1  0  0  0  0  0  0  0  0  0
    6.3560    4.2200    9.8610 C   0  0  0  0  0  0  0  0  0  0  0  0
    6.1000    5.1940    8.7500 C   0  0  0  0  0  0  0  0  0  0  0  0
    6.4890    6.4980    8.7040 C   0  0  0  0  0  0  0  0  0  0  0  0
    6.0660    7.0140    7.5280 N   0  0  0  0  0  0  0  0  0  0  0  0
    5.4380    6.0520    6.8820 C   0  0  0  0  0  0  0  0  0  0  0  0
    5.4330    4.9300    7.6100 N   0  0  0  0  0  0  0  0  0  0  0  0
    7.7870    2.1730   10.5330 C   0  0  0  0  0  0  0  0  0  0  0  0
    8.0400    2.6980   11.5930 O   0  0  0  0  0  0  0  0  0  0  0  0
    8.1350    1.0140   10.2440 O   0  0  0  0  0  0  0  0  0  0  0  0
  2  1  1  0
  3  2  1  0
  4  3  1  0
  5  4  1  1
  6  5  1  0
  7  6  1  0
  8  7  1  6
  9  8  1  0
 10  9  1  0
 11 10  2  0
 12 11  1  0
 13 12  2  0
 14 13  1  0
 15 14  2  0
 15 10  1  0
 16  8  1  0
 17 16  1  0
 18 17  2  0
 19 17  1  0
 19 20  1  1
 21 20  1  0
 22 19  1  0
 23 22  1  0
 24 23  2  0
 25 23  1  0
 25 26  1  6
 27 26  1  0
 27 28  1  1
 29 27  1  0
 30 25  1  0
 31 30  1  0
 32 31  2  0
 33 31  1  0
 33 34  1  1
 35 34  1  0
 36 35  2  0
 37 36  1  0
 38 37  2  0
 39 38  1  0
 39 35  1  0
 40 33  1  0
 41 40  1  0
 42 41  2  0
 43 41  1  6
 44 43  1  0
 45 44  1  0
 46 45  1  0
 47 46  1  0
 47 43  1  0
 48  5  1  0
 49 48  2  0
 50 48  1  0
 51 50  1  0
 51 52  1  6
 53 51  1  0
 54 53  2  0
 55 53  1  0
 56 55  1  0
 56 57  1  1
 58 57  1  0
 59 58  2  0
 60 59  1  0
 61 60  2  0
 62 61  1  0
 62 58  1  0
 63 56  1  0
 64 63  2  0
 65 63  1  0
M  CHG  4   6   1  47   1  60   1  65  -1
M  END
$$$$
