
     RDKit          3D

 21 24  0  0  0  0  0  0  0  0999 V2000
  -12.6410  -25.0530   -7.9410 C   0  0  0  0  0  0  0  0  0  0  0  0
  -11.9920  -25.1580   -6.6750 C   0  0  0  0  0  0  0  0  0  0  0  0
  -11.7390  -26.5090   -6.1270 C   0  0  0  0  0  0  0  0  0  0  0  0
  -11.3750  -26.6120   -4.8030 C   0  0  0  0  0  0  0  0  0  0  0  0
  -10.9580  -27.9100   -4.1740 C   0  0  2  0  0  0  0  0  0  0  0  0
   -9.4170  -27.9490   -4.1350 C   0  0  0  0  0  0  0  0  0  0  0  0
   -8.8310  -28.1920   -5.5250 C   0  0  0  0  0  0  0  0  0  0  0  0
   -7.5460  -27.8770   -5.6720 N   0  0  0  0  0  0  0  0  0  0  0  0
   -6.9350  -28.0940   -6.8810 C   0  0  0  0  0  0  0  0  0  0  0  0
   -5.5780  -27.7640   -7.0330 C   0  0  0  0  0  0  0  0  0  0  0  0
   -4.9660  -27.9850   -8.2420 C   0  0  0  0  0  0  0  0  0  0  0  0
   -3.2690  -27.5420   -8.4110 Cl  0  0  0  0  0  0  0  0  0  0  0  0
   -5.6330  -28.5250   -9.3090 C   0  0  0  0  0  0  0  0  0  0  0  0
   -6.9490  -28.8460   -9.1930 C   0  0  0  0  0  0  0  0  0  0  0  0
   -7.6230  -28.6350   -7.9810 C   0  0  0  0  0  0  0  0  0  0  0  0
   -8.9970  -28.9280   -7.8000 C   0  0  0  0  0  0  0  0  0  0  0  0
   -9.7370  -29.4400   -8.8380 N   0  0  0  0  0  0  0  0  0  0  0  0
   -9.6200  -28.7020   -6.5660 C   0  0  0  0  0  0  0  0  0  0  0  0
  -11.1030  -28.9160   -6.4000 C   0  0  2  0  0  0  0  0  0  0  0  0
  -11.8580  -27.7520   -7.0020 C   0  0  0  0  0  0  0  0  0  0  0  0
  -11.4750  -29.1280   -4.9380 C   0  0  0  0  0  0  0  0  0  0  0  0
  2  1  1  0
  3  2  1  0
  4  3  2  0
  5  4  1  0
  5  6  1  6
  7  6  1  0
  8  7  2  0
  9  8  1  0
 10  9  2  0
 11 10  1  0
 12 11  1  0
 13 11  2  0
 14 13  1  0
 15 14  2  0
 15  9  1  0
 16 15  1  0
 17 16  1  0
 18 16  2  0
 18  7  1  0
 19 18  1  0
 19 20  1  1
 20  3  1  0
 21 19  1  0
 21  5  1  0
M  CHG  1   8   1
M  END
$$$$
