
     RDKit          3D

 24 26  0  0  0  0  0  0  0  0999 V2000
   10.1710  -11.9110   -8.7580 C   0  0  0  0  0  0  0  0  0  0  0  0
   10.5270  -10.6110   -9.2330 O   0  0  0  0  0  0  0  0  0  0  0  0
   10.2780   -9.5020   -8.4380 C   0  0  0  0  0  0  0  0  0  0  0  0
   10.4190   -8.2430   -8.9970 C   0  0  0  0  0  0  0  0  0  0  0  0
   10.1750   -7.1180   -8.2520 C   0  0  0  0  0  0  0  0  0  0  0  0
    9.7860   -7.2150   -6.9130 C   0  0  0  0  0  0  0  0  0  0  0  0
    9.5440   -6.0540   -6.1890 C   0  0  0  0  0  0  0  0  0  0  0  0
    9.1560   -6.1520   -4.8920 C   0  0  0  0  0  0  0  0  0  0  0  0
    8.9950   -7.3960   -4.2780 C   0  0  0  0  0  0  0  0  0  0  0  0
    9.2350   -8.5520   -4.9470 C   0  0  0  0  0  0  0  0  0  0  0  0
    9.0550   -9.7760   -4.2900 N   0  0  0  0  0  0  0  0  0  0  0  0
    8.9180  -11.0050   -4.8170 C   0  0  0  0  0  0  0  0  0  0  0  0
    8.7440  -11.8950   -3.7960 C   0  0  0  0  0  0  0  0  0  0  0  0
    8.5630  -13.2670   -3.8390 N   0  0  0  0  0  0  0  0  0  0  0  0
    8.6490  -14.0640   -4.9710 C   0  0  0  0  0  0  0  0  0  0  0  0
    8.4260  -15.4000   -4.7650 N   0  0  0  0  0  0  0  0  0  0  0  0
    8.8920  -13.6240   -6.0730 O   0  0  0  0  0  0  0  0  0  0  0  0
    8.7760  -11.1590   -2.6360 C   0  0  0  0  0  0  0  0  0  0  0  0
    8.6160  -11.7010   -1.2750 C   0  0  0  0  0  0  0  0  0  0  0  0
    8.6110  -10.7840   -0.2560 N   0  0  0  0  0  0  0  0  0  0  0  0
    8.4990  -12.9120   -1.1150 O   0  0  0  0  0  0  0  0  0  0  0  0
    8.9610   -9.8670   -2.9440 N   0  0  0  0  0  0  0  0  0  0  0  0
    9.6330   -8.4780   -6.3080 C   0  0  0  0  0  0  0  0  0  0  0  0
    9.8890   -9.6210   -7.0970 C   0  0  0  0  0  0  0  0  0  0  0  0
  2  1  1  0
  3  2  1  0
  4  3  2  0
  5  4  1  0
  6  5  2  0
  7  6  1  0
  8  7  2  0
  9  8  1  0
 10  9  2  0
 11 10  1  0
 12 11  1  0
 13 12  2  0
 14 13  1  0
 15 14  1  0
 16 15  1  0
 17 15  2  0
 18 13  1  0
 19 18  1  0
 20 19  1  0
 21 19  2  0
 22 18  2  0
 22 11  1  0
 23  6  1  0
 23 10  1  0
 24 23  2  0
 24  3  1  0
M  END
$$$$
