
     RDKit          3D

 29 32  0  0  0  0  0  0  0  0999 V2000
   12.4890   -4.6500  -10.8200 C   0  0  0  0  0  0  0  0  0  0  0  0
   11.7220   -5.6270  -10.1930 O   0  0  0  0  0  0  0  0  0  0  0  0
   10.3730   -5.6010  -10.3010 C   0  0  0  0  0  0  0  0  0  0  0  0
    9.7210   -4.7610  -11.1720 C   0  0  0  0  0  0  0  0  0  0  0  0
    8.3330   -4.7710  -11.2430 C   0  0  0  0  0  0  0  0  0  0  0  0
    7.5910   -5.6230  -10.4390 C   0  0  0  0  0  0  0  0  0  0  0  0
    6.1530   -5.5640  -10.5210 C   0  0  0  0  0  0  0  0  0  0  0  0
    5.5800   -4.8020  -11.4760 O   0  0  0  0  0  0  0  0  0  0  0  0
    4.2490   -4.8630  -11.3200 C   0  0  0  0  0  0  0  0  0  0  0  0
    3.3060   -4.2240  -12.0440 N   0  0  0  0  0  0  0  0  0  0  0  0
    2.0210   -4.4120  -11.6960 C   0  0  0  0  0  0  0  0  0  0  0  0
    1.6370   -5.1890  -10.7070 N   0  0  0  0  0  0  0  0  0  0  0  0
    2.5440   -5.8520   -9.9560 C   0  0  0  0  0  0  0  0  0  0  0  0
    2.1550   -6.6850   -8.9500 N   0  0  0  0  0  0  0  0  0  0  0  0
    1.1010   -6.3990   -7.9690 C   0  0  0  0  0  0  0  0  0  0  0  0
   -0.2630   -6.2840   -8.5580 C   0  0  0  0  0  0  0  0  0  0  0  0
   -0.5970   -7.4330   -9.2690 O   0  0  0  0  0  0  0  0  0  0  0  0
    3.9240   -5.6890  -10.2630 C   0  0  0  0  0  0  0  0  0  0  0  0
    5.1530   -6.1550   -9.7340 C   0  0  0  0  0  0  0  0  0  0  0  0
    5.3140   -7.0370   -8.5980 C   0  0  0  0  0  0  0  0  0  0  0  0
    5.9220   -6.5600   -7.4330 C   0  0  0  0  0  0  0  0  0  0  0  0
    6.0810   -7.3940   -6.3200 C   0  0  0  0  0  0  0  0  0  0  0  0
    5.5950   -8.6900   -6.3510 C   0  0  0  0  0  0  0  0  0  0  0  0
    5.7510   -9.4750   -5.2490 O   0  0  0  0  0  0  0  0  0  0  0  0
    4.8480  -10.5300   -5.0040 C   0  0  0  0  0  0  0  0  0  0  0  0
    4.9520   -9.1690   -7.5050 C   0  0  0  0  0  0  0  0  0  0  0  0
    4.8100   -8.3300   -8.6130 C   0  0  0  0  0  0  0  0  0  0  0  0
    8.2440   -6.4780   -9.5550 C   0  0  0  0  0  0  0  0  0  0  0  0
    9.6500   -6.4650   -9.4850 C   0  0  0  0  0  0  0  0  0  0  0  0
  2  1  1  0
  3  2  1  0
  4  3  2  0
  5  4  1  0
  6  5  2  0
  7  6  1  0
  8  7  1  0
  9  8  1  0
 10  9  2  0
 11 10  1  0
 12 11  2  0
 13 12  1  0
 14 13  1  0
 15 14  1  0
 16 15  1  0
 17 16  1  0
 18 13  2  0
 18  9  1  0
 19 18  1  0
 19  7  2  0
 20 19  1  0
 21 20  2  0
 22 21  1  0
 23 22  2  0
 24 23  1  0
 25 24  1  0
 26 23  1  0
 27 26  2  0
 27 20  1  0
 28  6  1  0
 29 28  2  0
 29  3  1  0
M  END
$$$$
