2hb1_ligand
     RDKit          3D

 17 17  0  0  0  0  0  0  0  0999 V2000
    4.1890    5.7770   -7.2570 O   0  0  0  0  0  0  0  0  0  0  0  0
    3.4010    5.8520   -8.2500 C   0  0  0  0  0  0  0  0  0  0  0  0
    2.8640    4.8930   -8.8850 O   0  0  0  0  0  0  0  0  0  0  0  0
    3.1240    7.2750   -8.7830 C   0  0  0  0  0  0  0  0  0  0  0  0
    3.5460    7.4140  -10.1580 O   0  0  0  0  0  0  0  0  0  0  0  0
    4.8570    7.7480  -10.2540 C   0  0  0  0  0  0  0  0  0  0  0  0
    5.3400    9.0810  -10.1180 C   0  0  0  0  0  0  0  0  0  0  0  0
    4.2290   10.5730   -9.7720 Br  0  0  0  0  0  0  0  0  0  0  0  0
    6.6980    9.1880  -10.2800 C   0  0  0  0  0  0  0  0  0  0  0  0
    7.3990    7.6810  -10.6650 S   0  0  0  0  0  0  0  0  0  0  0  0
    5.8720    6.8770  -10.6130 C   0  0  0  0  0  0  0  0  0  0  0  0
    5.7550    5.3290  -10.9630 C   0  0  0  0  0  0  0  0  0  0  0  0
    5.1690    4.9810  -12.0330 O   0  0  0  0  0  0  0  0  0  0  0  0
    6.2620    4.5220  -10.1140 O   0  0  0  0  0  0  0  0  0  0  0  0
    2.0449    7.4780   -8.7175 H   0  0  0  0  0  0  0  0  0  0  0  0
    3.6935    7.9907   -8.1719 H   0  0  0  0  0  0  0  0  0  0  0  0
    7.2630   10.1260  -10.1750 H   0  0  0  0  0  0  0  0  0  0  0  0
  1  2  2  0
  2  3  1  0
  2  4  1  0
  4  5  1  0
  5  6  1  0
  6  7  1  0
  7  8  1  0
  7  9  2  0
  9 10  1  0
 10 11  1  0
 11 12  1  0
 12 13  2  0
 12 14  1  0
 11  6  2  0
  4 15  1  0
  4 16  1  0
  9 17  1  0
M  CHG  2   3  -1  14  -1
M  END
>  <meeko>  (1) 
{"is_sidechain": [false], "free_energy": -4.764, "intermolecular_energy": -5.878, "internal_energy": -0.41}

$$$$
2hb1_ligand
     RDKit          3D

 17 17  0  0  0  0  0  0  0  0999 V2000
    4.7780    4.9930  -12.1340 O   0  0  0  0  0  0  0  0  0  0  0  0
    5.7070    5.3360  -11.3390 C   0  0  0  0  0  0  0  0  0  0  0  0
    6.3340    4.5960  -10.5200 O   0  0  0  0  0  0  0  0  0  0  0  0
    6.0590    6.8390  -11.3250 C   0  0  0  0  0  0  0  0  0  0  0  0
    6.0410    7.3720   -9.9810 O   0  0  0  0  0  0  0  0  0  0  0  0
    4.9330    8.1190   -9.7480 C   0  0  0  0  0  0  0  0  0  0  0  0
    4.8570    9.5160  -10.0160 C   0  0  0  0  0  0  0  0  0  0  0  0
    6.2810   10.5260  -10.7460 Br  0  0  0  0  0  0  0  0  0  0  0  0
    3.6500   10.0700   -9.6760 C   0  0  0  0  0  0  0  0  0  0  0  0
    2.6130    8.9170   -8.9660 S   0  0  0  0  0  0  0  0  0  0  0  0
    3.7890    7.6620   -9.1150 C   0  0  0  0  0  0  0  0  0  0  0  0
    3.4980    6.2030   -8.5510 C   0  0  0  0  0  0  0  0  0  0  0  0
    2.9510    5.3470   -9.3100 O   0  0  0  0  0  0  0  0  0  0  0  0
    3.8310    5.9950   -7.3360 O   0  0  0  0  0  0  0  0  0  0  0  0
    7.0641    6.9753  -11.7507 H   0  0  0  0  0  0  0  0  0  0  0  0
    5.3068    7.3766  -11.9210 H   0  0  0  0  0  0  0  0  0  0  0  0
    3.3840   11.1246   -9.8403 H   0  0  0  0  0  0  0  0  0  0  0  0
  1  2  2  0
  2  3  1  0
  2  4  1  0
  4  5  1  0
  5  6  1  0
  6  7  1  0
  7  8  1  0
  7  9  2  0
  9 10  1  0
 10 11  1  0
 11 12  1  0
 12 13  2  0
 12 14  1  0
 11  6  2  0
  4 15  1  0
  4 16  1  0
  9 17  1  0
M  CHG  2   3  -1  14  -1
M  END
>  <meeko>  (2) 
{"is_sidechain": [false], "free_energy": -4.705, "intermolecular_energy": -5.764, "internal_energy": -0.452}

$$$$
2hb1_ligand
     RDKit          3D

 17 17  0  0  0  0  0  0  0  0999 V2000
    4.6040    4.8600   -8.3710 O   0  0  0  0  0  0  0  0  0  0  0  0
    3.5060    5.2330   -8.8880 C   0  0  0  0  0  0  0  0  0  0  0  0
    2.4450    4.5490   -9.0270 O   0  0  0  0  0  0  0  0  0  0  0  0
    3.4890    6.6610   -9.4750 C   0  0  0  0  0  0  0  0  0  0  0  0
    4.6190    7.4350   -9.0120 O   0  0  0  0  0  0  0  0  0  0  0  0
    5.1770    8.1620  -10.0110 C   0  0  0  0  0  0  0  0  0  0  0  0
    6.2450    7.6880  -10.8260 C   0  0  0  0  0  0  0  0  0  0  0  0
    7.0280    5.9750  -10.6420 Br  0  0  0  0  0  0  0  0  0  0  0  0
    6.6700    8.6040  -11.7530 C   0  0  0  0  0  0  0  0  0  0  0  0
    5.8240   10.0780  -11.6070 S   0  0  0  0  0  0  0  0  0  0  0  0
    4.8780    9.4860  -10.2900 C   0  0  0  0  0  0  0  0  0  0  0  0
    3.8300   10.4300   -9.5520 C   0  0  0  0  0  0  0  0  0  0  0  0
    2.6370   10.0270   -9.4030 O   0  0  0  0  0  0  0  0  0  0  0  0
    4.2730   11.5620   -9.1620 O   0  0  0  0  0  0  0  0  0  0  0  0
    3.5244    6.5972  -10.5726 H   0  0  0  0  0  0  0  0  0  0  0  0
    2.5673    7.1610   -9.1427 H   0  0  0  0  0  0  0  0  0  0  0  0
    7.4572    8.4127  -12.4971 H   0  0  0  0  0  0  0  0  0  0  0  0
  1  2  2  0
  2  3  1  0
  2  4  1  0
  4  5  1  0
  5  6  1  0
  6  7  1  0
  7  8  1  0
  7  9  2  0
  9 10  1  0
 10 11  1  0
 11 12  1  0
 12 13  2  0
 12 14  1  0
 11  6  2  0
  4 15  1  0
  4 16  1  0
  9 17  1  0
M  CHG  2   3  -1  14  -1
M  END
>  <meeko>  (3) 
{"is_sidechain": [false], "free_energy": -4.611, "intermolecular_energy": -5.765, "internal_energy": -0.333}

$$$$
2hb1_ligand
     RDKit          3D

 17 17  0  0  0  0  0  0  0  0999 V2000
    4.6240   10.8820  -11.1780 O   0  0  0  0  0  0  0  0  0  0  0  0
    4.3750   10.6580   -9.9530 C   0  0  0  0  0  0  0  0  0  0  0  0
    3.9570   11.4860   -9.0860 O   0  0  0  0  0  0  0  0  0  0  0  0
    4.6860    9.2310   -9.4530 C   0  0  0  0  0  0  0  0  0  0  0  0
    4.2630    8.2330  -10.4090 O   0  0  0  0  0  0  0  0  0  0  0  0
    5.0670    7.1420  -10.3920 C   0  0  0  0  0  0  0  0  0  0  0  0
    6.1660    6.9610  -11.2800 C   0  0  0  0  0  0  0  0  0  0  0  0
    6.6680    8.2190  -12.6000 Br  0  0  0  0  0  0  0  0  0  0  0  0
    6.8210    5.7700  -11.1000 C   0  0  0  0  0  0  0  0  0  0  0  0
    6.0730    4.8240   -9.8930 S   0  0  0  0  0  0  0  0  0  0  0  0
    4.8600    6.0180   -9.6070 C   0  0  0  0  0  0  0  0  0  0  0  0
    3.6910    5.7560   -8.5610 C   0  0  0  0  0  0  0  0  0  0  0  0
    3.6730    6.4150   -7.4780 O   0  0  0  0  0  0  0  0  0  0  0  0
    2.8350    4.8660   -8.8880 O   0  0  0  0  0  0  0  0  0  0  0  0
    5.7702    9.1363   -9.2929 H   0  0  0  0  0  0  0  0  0  0  0  0
    4.1367    9.0658   -8.5144 H   0  0  0  0  0  0  0  0  0  0  0  0
    7.7152    5.4633  -11.6624 H   0  0  0  0  0  0  0  0  0  0  0  0
  1  2  2  0
  2  3  1  0
  2  4  1  0
  4  5  1  0
  5  6  1  0
  6  7  1  0
  7  8  1  0
  7  9  2  0
  9 10  1  0
 10 11  1  0
 11 12  1  0
 12 13  2  0
 12 14  1  0
 11  6  2  0
  4 15  1  0
  4 16  1  0
  9 17  1  0
M  CHG  2   3  -1  14  -1
M  END
>  <meeko>  (4) 
{"is_sidechain": [false], "free_energy": -4.567, "intermolecular_energy": -5.67, "internal_energy": -0.374}

$$$$
2hb1_ligand
     RDKit          3D

 17 17  0  0  0  0  0  0  0  0999 V2000
    4.6390   11.4470   -9.0330 O   0  0  0  0  0  0  0  0  0  0  0  0
    4.0180   10.4720   -9.5600 C   0  0  0  0  0  0  0  0  0  0  0  0
    2.8410   10.0730   -9.2970 O   0  0  0  0  0  0  0  0  0  0  0  0
    4.8170    9.6390  -10.5850 C   0  0  0  0  0  0  0  0  0  0  0  0
    5.2830    8.3980  -10.0080 O   0  0  0  0  0  0  0  0  0  0  0  0
    4.5610    7.3360  -10.4430 C   0  0  0  0  0  0  0  0  0  0  0  0
    3.7870    6.5050   -9.5820 C   0  0  0  0  0  0  0  0  0  0  0  0
    3.6460    6.7710   -7.7140 Br  0  0  0  0  0  0  0  0  0  0  0  0
    3.1640    5.4740  -10.2360 C   0  0  0  0  0  0  0  0  0  0  0  0
    3.5580    5.4590  -11.8960 S   0  0  0  0  0  0  0  0  0  0  0  0
    4.5740    6.8460  -11.7400 C   0  0  0  0  0  0  0  0  0  0  0  0
    5.3880    7.4040  -12.9880 C   0  0  0  0  0  0  0  0  0  0  0  0
    4.7510    7.8530  -13.9880 O   0  0  0  0  0  0  0  0  0  0  0  0
    6.6610    7.3450  -12.9000 O   0  0  0  0  0  0  0  0  0  0  0  0
    4.1694    9.4129  -11.4450 H   0  0  0  0  0  0  0  0  0  0  0  0
    5.6932   10.2250  -10.8994 H   0  0  0  0  0  0  0  0  0  0  0  0
    2.4945    4.7479   -9.7517 H   0  0  0  0  0  0  0  0  0  0  0  0
  1  2  2  0
  2  3  1  0
  2  4  1  0
  4  5  1  0
  5  6  1  0
  6  7  1  0
  7  8  1  0
  7  9  2  0
  9 10  1  0
 10 11  1  0
 11 12  1  0
 12 13  2  0
 12 14  1  0
 11  6  2  0
  4 15  1  0
  4 16  1  0
  9 17  1  0
M  CHG  2   3  -1  14  -1
M  END
>  <meeko>  (5) 
{"is_sidechain": [false], "free_energy": -4.36, "intermolecular_energy": -5.563, "internal_energy": -0.227}

$$$$
2hb1_ligand
     RDKit          3D

 17 17  0  0  0  0  0  0  0  0999 V2000
    9.4370    4.7000  -10.5080 O   0  0  0  0  0  0  0  0  0  0  0  0
    8.4250    5.1620  -11.1210 C   0  0  0  0  0  0  0  0  0  0  0  0
    8.3350    5.4500  -12.3540 O   0  0  0  0  0  0  0  0  0  0  0  0
    7.1920    5.4710  -10.2460 C   0  0  0  0  0  0  0  0  0  0  0  0
    6.0300    5.7640  -11.0560 O   0  0  0  0  0  0  0  0  0  0  0  0
    5.2640    6.7390  -10.5080 C   0  0  0  0  0  0  0  0  0  0  0  0
    5.4190    8.1230  -10.8070 C   0  0  0  0  0  0  0  0  0  0  0  0
    6.7060    8.7980  -12.0190 Br  0  0  0  0  0  0  0  0  0  0  0  0
    4.5540    8.9300  -10.1150 C   0  0  0  0  0  0  0  0  0  0  0  0
    3.5830    8.0270   -9.0420 S   0  0  0  0  0  0  0  0  0  0  0  0
    4.3260    6.5400   -9.5070 C   0  0  0  0  0  0  0  0  0  0  0  0
    3.9190    5.1720   -8.8040 C   0  0  0  0  0  0  0  0  0  0  0  0
    4.7710    4.5750   -8.0790 O   0  0  0  0  0  0  0  0  0  0  0  0
    2.7350    4.7530   -9.0350 O   0  0  0  0  0  0  0  0  0  0  0  0
    6.9755    4.5986   -9.6119 H   0  0  0  0  0  0  0  0  0  0  0  0
    7.4168    6.3547   -9.6307 H   0  0  0  0  0  0  0  0  0  0  0  0
    4.4936   10.0216  -10.2362 H   0  0  0  0  0  0  0  0  0  0  0  0
  1  2  2  0
  2  3  1  0
  2  4  1  0
  4  5  1  0
  5  6  1  0
  6  7  1  0
  7  8  1  0
  7  9  2  0
  9 10  1  0
 10 11  1  0
 11 12  1  0
 12 13  2  0
 12 14  1  0
 11  6  2  0
  4 15  1  0
  4 16  1  0
  9 17  1  0
M  CHG  2   3  -1  14  -1
M  END
>  <meeko>  (6) 
{"is_sidechain": [false], "free_energy": -4.247, "intermolecular_energy": -5.354, "internal_energy": -0.296}

$$$$
2hb1_ligand
     RDKit          3D

 17 17  0  0  0  0  0  0  0  0999 V2000
    4.2060   11.5950   -9.0720 O   0  0  0  0  0  0  0  0  0  0  0  0
    5.0060   11.5930  -10.0580 C   0  0  0  0  0  0  0  0  0  0  0  0
    5.8510   12.4890  -10.3690 O   0  0  0  0  0  0  0  0  0  0  0  0
    4.8820   10.3950  -11.0240 C   0  0  0  0  0  0  0  0  0  0  0  0
    5.5650    9.2300  -10.5090 O   0  0  0  0  0  0  0  0  0  0  0  0
    4.9840    8.0770  -10.9250 C   0  0  0  0  0  0  0  0  0  0  0  0
    5.2660    7.4630  -12.1790 C   0  0  0  0  0  0  0  0  0  0  0  0
    6.4970    8.1580  -13.4360 Br  0  0  0  0  0  0  0  0  0  0  0  0
    4.5410    6.3210  -12.4010 C   0  0  0  0  0  0  0  0  0  0  0  0
    3.4600    6.0100  -11.1180 S   0  0  0  0  0  0  0  0  0  0  0  0
    3.9650    7.4180  -10.2560 C   0  0  0  0  0  0  0  0  0  0  0  0
    3.2740    7.8220   -8.8810 C   0  0  0  0  0  0  0  0  0  0  0  0
    2.4670    8.8010   -8.8610 O   0  0  0  0  0  0  0  0  0  0  0  0
    3.5980    7.1220   -7.8640 O   0  0  0  0  0  0  0  0  0  0  0  0
    3.8174   10.1544  -11.1611 H   0  0  0  0  0  0  0  0  0  0  0  0
    5.3456   10.6731  -11.9820 H   0  0  0  0  0  0  0  0  0  0  0  0
    4.6432    5.6857  -13.2931 H   0  0  0  0  0  0  0  0  0  0  0  0
  1  2  2  0
  2  3  1  0
  2  4  1  0
  4  5  1  0
  5  6  1  0
  6  7  1  0
  7  8  1  0
  7  9  2  0
  9 10  1  0
 10 11  1  0
 11 12  1  0
 12 13  2  0
 12 14  1  0
 11  6  2  0
  4 15  1  0
  4 16  1  0
  9 17  1  0
M  CHG  2   3  -1  14  -1
M  END
>  <meeko>  (7) 
{"is_sidechain": [false], "free_energy": -4.23, "intermolecular_energy": -5.297, "internal_energy": -0.332}

$$$$
2hb1_ligand
     RDKit          3D

 17 17  0  0  0  0  0  0  0  0999 V2000
    8.9620    4.8730  -10.1420 O   0  0  0  0  0  0  0  0  0  0  0  0
    7.9420    5.1310  -10.8540 C   0  0  0  0  0  0  0  0  0  0  0  0
    7.9190    5.4710  -12.0770 O   0  0  0  0  0  0  0  0  0  0  0  0
    6.5840    5.0930  -10.1210 C   0  0  0  0  0  0  0  0  0  0  0  0
    5.5340    5.6770  -10.9250 O   0  0  0  0  0  0  0  0  0  0  0  0
    4.9650    6.7460  -10.3150 C   0  0  0  0  0  0  0  0  0  0  0  0
    3.8510    6.6470   -9.4330 C   0  0  0  0  0  0  0  0  0  0  0  0
    3.0150    5.0120   -8.9750 Br  0  0  0  0  0  0  0  0  0  0  0  0
    3.4240    7.8590   -8.9560 C   0  0  0  0  0  0  0  0  0  0  0  0
    4.3280    9.1440   -9.6210 S   0  0  0  0  0  0  0  0  0  0  0  0
    5.3010    8.0680  -10.5580 C   0  0  0  0  0  0  0  0  0  0  0  0
    6.4090    8.6300  -11.5530 C   0  0  0  0  0  0  0  0  0  0  0  0
    7.5970    8.7730  -11.1340 O   0  0  0  0  0  0  0  0  0  0  0  0
    6.0100    8.9190  -12.7310 O   0  0  0  0  0  0  0  0  0  0  0  0
    6.3257    4.0468   -9.9001 H   0  0  0  0  0  0  0  0  0  0  0  0
    6.6750    5.6769   -9.1932 H   0  0  0  0  0  0  0  0  0  0  0  0
    2.6025    7.9869   -8.2357 H   0  0  0  0  0  0  0  0  0  0  0  0
  1  2  2  0
  2  3  1  0
  2  4  1  0
  4  5  1  0
  5  6  1  0
  6  7  1  0
  7  8  1  0
  7  9  2  0
  9 10  1  0
 10 11  1  0
 11 12  1  0
 12 13  2  0
 12 14  1  0
 11  6  2  0
  4 15  1  0
  4 16  1  0
  9 17  1  0
M  CHG  2   3  -1  14  -1
M  END
>  <meeko>  (8) 
{"is_sidechain": [false], "free_energy": -4.166, "intermolecular_energy": -5.086, "internal_energy": -0.463}

$$$$
2hb1_ligand
     RDKit          3D

 17 17  0  0  0  0  0  0  0  0999 V2000
    7.0500    7.6460  -13.5980 O   0  0  0  0  0  0  0  0  0  0  0  0
    5.8610    8.0550  -13.4180 C   0  0  0  0  0  0  0  0  0  0  0  0
    4.8200    7.7070  -14.0570 O   0  0  0  0  0  0  0  0  0  0  0  0
    5.6820    9.1510  -12.3460 C   0  0  0  0  0  0  0  0  0  0  0  0
    6.0950    8.6860  -11.0420 O   0  0  0  0  0  0  0  0  0  0  0  0
    5.0700    8.1200  -10.3580 C   0  0  0  0  0  0  0  0  0  0  0  0
    4.0800    8.8710   -9.6620 C   0  0  0  0  0  0  0  0  0  0  0  0
    4.0420   10.7610   -9.6030 Br  0  0  0  0  0  0  0  0  0  0  0  0
    3.1560    8.0880   -9.0180 C   0  0  0  0  0  0  0  0  0  0  0  0
    3.5140    6.4290   -9.1930 S   0  0  0  0  0  0  0  0  0  0  0  0
    4.9190    6.7600  -10.1410 C   0  0  0  0  0  0  0  0  0  0  0  0
    5.8590    5.5770  -10.6420 C   0  0  0  0  0  0  0  0  0  0  0  0
    6.8830    5.2720   -9.9570 O   0  0  0  0  0  0  0  0  0  0  0  0
    5.5160    5.0120  -11.7340 O   0  0  0  0  0  0  0  0  0  0  0  0
    6.2895   10.0252  -12.6231 H   0  0  0  0  0  0  0  0  0  0  0  0
    4.6156    9.4162  -12.2970 H   0  0  0  0  0  0  0  0  0  0  0  0
    2.2933    8.4801   -8.4594 H   0  0  0  0  0  0  0  0  0  0  0  0
  1  2  2  0
  2  3  1  0
  2  4  1  0
  4  5  1  0
  5  6  1  0
  6  7  1  0
  7  8  1  0
  7  9  2  0
  9 10  1  0
 10 11  1  0
 11 12  1  0
 12 13  2  0
 12 14  1  0
 11  6  2  0
  4 15  1  0
  4 16  1  0
  9 17  1  0
M  CHG  2   3  -1  14  -1
M  END
>  <meeko>  (9) 
{"is_sidechain": [false], "free_energy": -4.094, "intermolecular_energy": -5.065, "internal_energy": -0.396}

$$$$
