1k1i_ligand
     RDKit          3D

 64 67  0  0  0  0  0  0  0  0999 V2000
   -6.8770    8.6320   12.2040 N   0  0  0  0  0  0  0  0  0  0  0  0
   -5.7180    8.7520   12.8130 C   0  0  0  0  0  0  0  0  0  0  0  0
   -4.8230    9.6150   12.4000 N   0  0  0  0  0  0  0  0  0  0  0  0
   -5.4190    7.9020   13.9730 C   0  0  0  0  0  0  0  0  0  0  0  0
   -4.2360    8.0200   14.7100 C   0  0  0  0  0  0  0  0  0  0  0  0
   -3.9200    7.0670   15.6850 C   0  0  0  0  0  0  0  0  0  0  0  0
   -4.7510    5.9610   15.8870 C   0  0  0  0  0  0  0  0  0  0  0  0
   -5.9370    5.8370   15.1610 C   0  0  0  0  0  0  0  0  0  0  0  0
   -6.7120    4.5330   15.0960 C   0  0  0  0  0  0  0  0  0  0  0  0
   -7.8060    4.4130   16.1890 C   0  0  2  0  0  0  0  0  0  0  0  0
   -7.4080    3.4930   17.2810 N   0  0  0  0  0  0  0  0  0  0  0  0
   -7.7680    3.9260   18.8510 S   0  0  0  0  0  0  0  0  0  0  0  0
   -7.3000    2.8880   19.7410 O   0  0  0  0  0  0  0  0  0  0  0  0
   -9.1340    4.4030   18.8920 O   0  0  0  0  0  0  0  0  0  0  0  0
   -6.7000    5.3380   19.0050 C   0  0  0  0  0  0  0  0  0  0  0  0
   -5.4110    5.1900   19.5140 C   0  0  0  0  0  0  0  0  0  0  0  0
   -4.5650    6.2980   19.5630 C   0  0  0  0  0  0  0  0  0  0  0  0
   -4.9980    7.5550   19.1040 C   0  0  0  0  0  0  0  0  0  0  0  0
   -4.1530    8.6750   19.1360 C   0  0  0  0  0  0  0  0  0  0  0  0
   -4.5960    9.9170   18.6790 C   0  0  0  0  0  0  0  0  0  0  0  0
   -5.8900   10.0570   18.1830 C   0  0  0  0  0  0  0  0  0  0  0  0
   -6.7440    8.9530   18.1430 C   0  0  0  0  0  0  0  0  0  0  0  0
   -6.3120    7.6980   18.5980 C   0  0  0  0  0  0  0  0  0  0  0  0
   -7.1580    6.5820   18.5580 C   0  0  0  0  0  0  0  0  0  0  0  0
   -9.2020    4.0510   15.6550 C   0  0  0  0  0  0  0  0  0  0  0  0
   -9.4150    2.9020   15.2500 O   0  0  0  0  0  0  0  0  0  0  0  0
  -10.1830    5.0480   15.5640 N   0  0  0  0  0  0  0  0  0  0  0  0
  -11.4950    4.5790   15.1220 C   0  0  0  0  0  0  0  0  0  0  0  0
  -12.4400    5.7360   14.8310 C   0  0  0  0  0  0  0  0  0  0  0  0
  -12.6870    6.5800   16.0810 C   0  0  0  0  0  0  0  0  0  0  0  0
  -11.5600    6.4490   17.1080 C   0  0  0  0  0  0  0  0  0  0  0  0
  -10.1880    6.2680   16.4400 C   0  0  2  0  0  0  0  0  0  0  0  0
   -9.7410    7.6130   15.7990 C   0  0  0  0  0  0  0  0  0  0  0  0
   -9.7780    8.6450   16.5450 O   0  0  0  0  0  0  0  0  0  0  0  0
   -9.5400    7.6470   14.5540 O   0  0  0  0  0  0  0  0  0  0  0  0
   -6.3030    6.8650   14.2870 C   0  0  0  0  0  0  0  0  0  0  0  0
   -7.5350    7.9320   12.5180 H   0  0  0  0  0  0  0  0  0  0  0  0
   -7.0880    9.1950   11.3940 H   0  0  0  0  0  0  0  0  0  0  0  0
   -4.8570   10.1470   11.5470 H   0  0  0  0  0  0  0  0  0  0  0  0
   -3.8900    9.6790   12.8550 H   0  0  0  0  0  0  0  0  0  0  0  0
   -3.5537    8.8623   14.5231 H   0  0  0  0  0  0  0  0  0  0  0  0
   -3.0131    7.1888   16.2955 H   0  0  0  0  0  0  0  0  0  0  0  0
   -4.4703    5.1884   16.6180 H   0  0  0  0  0  0  0  0  0  0  0  0
   -7.1946    4.4627   14.1100 H   0  0  0  0  0  0  0  0  0  0  0  0
   -5.9926    3.7182   15.2650 H   0  0  0  0  0  0  0  0  0  0  0  0
   -7.8922    5.4295   16.6005 H   0  0  0  0  0  0  0  0  0  0  0  0
   -7.7350    2.5180   17.1140 H   0  0  0  0  0  0  0  0  0  0  0  0
   -5.0645    4.2098   19.8733 H   0  0  0  0  0  0  0  0  0  0  0  0
   -3.5472    6.1874   19.9654 H   0  0  0  0  0  0  0  0  0  0  0  0
   -3.1295    8.5727   19.5259 H   0  0  0  0  0  0  0  0  0  0  0  0
   -3.9226   10.7862   18.7105 H   0  0  0  0  0  0  0  0  0  0  0  0
   -6.2388   11.0362   17.8232 H   0  0  0  0  0  0  0  0  0  0  0  0
   -7.7653    9.0683   17.7510 H   0  0  0  0  0  0  0  0  0  0  0  0
   -8.1839    6.6841   18.1745 H   0  0  0  0  0  0  0  0  0  0  0  0
  -11.3700    3.9824   14.2063 H   0  0  0  0  0  0  0  0  0  0  0  0
  -11.9326    3.9751   15.9306 H   0  0  0  0  0  0  0  0  0  0  0  0
  -11.9973    6.3725   14.0507 H   0  0  0  0  0  0  0  0  0  0  0  0
  -13.4025    5.3220   14.4962 H   0  0  0  0  0  0  0  0  0  0  0  0
  -12.7719    7.6355   15.7830 H   0  0  0  0  0  0  0  0  0  0  0  0
  -13.6125    6.2173   16.5520 H   0  0  0  0  0  0  0  0  0  0  0  0
  -11.5362    7.3583   17.7266 H   0  0  0  0  0  0  0  0  0  0  0  0
  -11.7600    5.5562   17.7187 H   0  0  0  0  0  0  0  0  0  0  0  0
   -9.3996    6.0452   17.1740 H   0  0  0  0  0  0  0  0  0  0  0  0
   -7.3068    6.8579   13.8372 H   0  0  0  0  0  0  0  0  0  0  0  0
  1  2  1  0
  2  3  2  0
  2  4  1  0
  4  5  2  0
  5  6  1  0
  6  7  2  0
  7  8  1  0
  8  9  1  0
  9 10  1  0
 10 11  1  0
 11 12  1  0
 12 13  2  0
 12 14  2  0
 12 15  1  0
 15 16  2  0
 16 17  1  0
 17 18  2  0
 18 19  1  0
 19 20  2  0
 20 21  1  0
 21 22  2  0
 22 23  1  0
 23 24  2  0
 10 25  1  0
 25 26  2  0
 25 27  1  0
 27 28  1  0
 28 29  1  0
 29 30  1  0
 30 31  1  0
 31 32  1  0
 32 33  1  0
 33 34  2  0
 33 35  1  0
  8 36  2  0
 36  4  1  0
 24 15  1  0
 32 27  1  0
 23 18  1  0
  1 37  1  0
  1 38  1  0
  3 39  1  0
  3 40  1  0
  5 41  1  0
  6 42  1  0
  7 43  1  0
  9 44  1  0
  9 45  1  0
 10 46  1  1
 11 47  1  0
 16 48  1  0
 17 49  1  0
 19 50  1  0
 20 51  1  0
 21 52  1  0
 22 53  1  0
 24 54  1  0
 28 55  1  0
 28 56  1  0
 29 57  1  0
 29 58  1  0
 30 59  1  0
 30 60  1  0
 31 61  1  0
 31 62  1  0
 32 63  1  1
 36 64  1  0
M  CHG  2   3   1  35  -1
M  END
>  <meeko>  (1) 
{"is_sidechain": [false], "free_energy": -6.037, "intermolecular_energy": -9.214, "internal_energy": -3.669}

$$$$
1k1i_ligand
     RDKit          3D

 64 67  0  0  0  0  0  0  0  0999 V2000
   -9.9010    8.1110   11.7570 N   0  0  0  0  0  0  0  0  0  0  0  0
  -10.9190    8.4420   12.5210 C   0  0  0  0  0  0  0  0  0  0  0  0
  -11.7400    9.4030   12.1760 N   0  0  0  0  0  0  0  0  0  0  0  0
  -11.1370    7.7250   13.7840 C   0  0  0  0  0  0  0  0  0  0  0  0
  -12.4000    7.2840   14.1930 C   0  0  0  0  0  0  0  0  0  0  0  0
  -12.5810    6.7750   15.4830 C   0  0  0  0  0  0  0  0  0  0  0  0
  -11.5180    6.7600   16.3910 C   0  0  0  0  0  0  0  0  0  0  0  0
  -10.2520    7.1910   15.9920 C   0  0  0  0  0  0  0  0  0  0  0  0
   -9.1500    7.4990   16.9910 C   0  0  0  0  0  0  0  0  0  0  0  0
   -7.9180    6.5680   16.8530 C   0  0  2  0  0  0  0  0  0  0  0  0
   -7.8910    5.5150   17.8970 N   0  0  0  0  0  0  0  0  0  0  0  0
   -7.7330    3.9260   17.4140 S   0  0  0  0  0  0  0  0  0  0  0  0
   -7.4090    3.1180   18.5670 O   0  0  0  0  0  0  0  0  0  0  0  0
   -6.9290    3.8920   16.2110 O   0  0  0  0  0  0  0  0  0  0  0  0
   -9.4170    3.6060   16.9450 C   0  0  0  0  0  0  0  0  0  0  0  0
  -10.4040    3.4770   17.9200 C   0  0  0  0  0  0  0  0  0  0  0  0
  -11.7310    3.2940   17.5290 C   0  0  0  0  0  0  0  0  0  0  0  0
  -12.0790    3.2400   16.1680 C   0  0  0  0  0  0  0  0  0  0  0  0
  -13.4120    3.0690   15.7610 C   0  0  0  0  0  0  0  0  0  0  0  0
  -13.7430    3.0170   14.4060 C   0  0  0  0  0  0  0  0  0  0  0  0
  -12.7470    3.1350   13.4390 C   0  0  0  0  0  0  0  0  0  0  0  0
  -11.4170    3.3060   13.8260 C   0  0  0  0  0  0  0  0  0  0  0  0
  -11.0680    3.3630   15.1840 C   0  0  0  0  0  0  0  0  0  0  0  0
   -9.7370    3.5390   15.5850 C   0  0  0  0  0  0  0  0  0  0  0  0
   -6.5680    7.3030   16.7880 C   0  0  0  0  0  0  0  0  0  0  0  0
   -6.2900    8.1320   17.6620 O   0  0  0  0  0  0  0  0  0  0  0  0
   -5.7150    7.0780   15.6990 N   0  0  0  0  0  0  0  0  0  0  0  0
   -4.4450    6.4380   16.0380 C   0  0  0  0  0  0  0  0  0  0  0  0
   -3.4850    6.4290   14.8570 C   0  0  0  0  0  0  0  0  0  0  0  0
   -4.0590    5.6420   13.6790 C   0  0  0  0  0  0  0  0  0  0  0  0
   -5.5870    5.5570   13.7210 C   0  0  0  0  0  0  0  0  0  0  0  0
   -6.2200    6.8280   14.3070 C   0  0  2  0  0  0  0  0  0  0  0  0
   -6.0970    7.9900   13.2800 C   0  0  0  0  0  0  0  0  0  0  0  0
   -5.2130    8.8760   13.5200 O   0  0  0  0  0  0  0  0  0  0  0  0
   -6.9750    8.0920   12.3800 O   0  0  0  0  0  0  0  0  0  0  0  0
  -10.0590    7.5720   14.6620 C   0  0  0  0  0  0  0  0  0  0  0  0
   -9.2600    7.3930   12.0630 H   0  0  0  0  0  0  0  0  0  0  0  0
   -9.7270    8.6080   10.8960 H   0  0  0  0  0  0  0  0  0  0  0  0
  -11.6150   10.0480   11.4140 H   0  0  0  0  0  0  0  0  0  0  0  0
  -12.5180    9.6930   12.8010 H   0  0  0  0  0  0  0  0  0  0  0  0
  -13.2518    7.3376   13.4991 H   0  0  0  0  0  0  0  0  0  0  0  0
  -13.5642    6.3847   15.7846 H   0  0  0  0  0  0  0  0  0  0  0  0
  -11.6796    6.4082   17.4206 H   0  0  0  0  0  0  0  0  0  0  0  0
   -8.8213    8.5376   16.8388 H   0  0  0  0  0  0  0  0  0  0  0  0
   -9.5678    7.3390   17.9959 H   0  0  0  0  0  0  0  0  0  0  0  0
   -8.0500    6.0871   15.8725 H   0  0  0  0  0  0  0  0  0  0  0  0
   -7.1910    5.7150   18.6400 H   0  0  0  0  0  0  0  0  0  0  0  0
  -10.1399    3.5190   18.9870 H   0  0  0  0  0  0  0  0  0  0  0  0
  -12.5140    3.1908   18.2947 H   0  0  0  0  0  0  0  0  0  0  0  0
  -14.2042    2.9750   16.5184 H   0  0  0  0  0  0  0  0  0  0  0  0
  -14.7914    2.8827   14.1013 H   0  0  0  0  0  0  0  0  0  0  0  0
  -13.0086    3.0934   12.3714 H   0  0  0  0  0  0  0  0  0  0  0  0
  -10.6342    3.3970   13.0586 H   0  0  0  0  0  0  0  0  0  0  0  0
   -8.9425    3.6246   14.8291 H   0  0  0  0  0  0  0  0  0  0  0  0
   -3.9805    6.9868   16.8705 H   0  0  0  0  0  0  0  0  0  0  0  0
   -4.6516    5.3948   16.3193 H   0  0  0  0  0  0  0  0  0  0  0  0
   -3.2992    7.4654   14.5387 H   0  0  0  0  0  0  0  0  0  0  0  0
   -2.5496    5.9450   15.1743 H   0  0  0  0  0  0  0  0  0  0  0  0
   -3.7586    6.1372   12.7438 H   0  0  0  0  0  0  0  0  0  0  0  0
   -3.6650    4.6167   13.7377 H   0  0  0  0  0  0  0  0  0  0  0  0
   -5.9626    5.4132   12.6972 H   0  0  0  0  0  0  0  0  0  0  0  0
   -5.8618    4.7117   14.3691 H   0  0  0  0  0  0  0  0  0  0  0  0
   -7.3038    6.7154   14.4573 H   0  0  0  0  0  0  0  0  0  0  0  0
   -9.0375    7.7556   14.2974 H   0  0  0  0  0  0  0  0  0  0  0  0
  1  2  1  0
  2  3  2  0
  2  4  1  0
  4  5  2  0
  5  6  1  0
  6  7  2  0
  7  8  1  0
  8  9  1  0
  9 10  1  0
 10 11  1  0
 11 12  1  0
 12 13  2  0
 12 14  2  0
 12 15  1  0
 15 16  2  0
 16 17  1  0
 17 18  2  0
 18 19  1  0
 19 20  2  0
 20 21  1  0
 21 22  2  0
 22 23  1  0
 23 24  2  0
 10 25  1  0
 25 26  2  0
 25 27  1  0
 27 28  1  0
 28 29  1  0
 29 30  1  0
 30 31  1  0
 31 32  1  0
 32 33  1  0
 33 34  2  0
 33 35  1  0
  8 36  2  0
 36  4  1  0
 24 15  1  0
 32 27  1  0
 23 18  1  0
  1 37  1  0
  1 38  1  0
  3 39  1  0
  3 40  1  0
  5 41  1  0
  6 42  1  0
  7 43  1  0
  9 44  1  0
  9 45  1  0
 10 46  1  6
 11 47  1  0
 16 48  1  0
 17 49  1  0
 19 50  1  0
 20 51  1  0
 21 52  1  0
 22 53  1  0
 24 54  1  0
 28 55  1  0
 28 56  1  0
 29 57  1  0
 29 58  1  0
 30 59  1  0
 30 60  1  0
 31 61  1  0
 31 62  1  0
 32 63  1  1
 36 64  1  0
M  CHG  2   3   1  35  -1
M  END
>  <meeko>  (2) 
{"is_sidechain": [false], "free_energy": -5.844, "intermolecular_energy": -8.534, "internal_energy": -4.054}

$$$$
1k1i_ligand
     RDKit          3D

 64 67  0  0  0  0  0  0  0  0999 V2000
   -4.7980    9.5600   12.1360 N   0  0  0  0  0  0  0  0  0  0  0  0
   -5.7230    8.7680   12.6310 C   0  0  0  0  0  0  0  0  0  0  0  0
   -6.9030    8.6740   12.0700 N   0  0  0  0  0  0  0  0  0  0  0  0
   -5.4310    7.9790   13.8340 C   0  0  0  0  0  0  0  0  0  0  0  0
   -4.2550    8.1380   14.5740 C   0  0  0  0  0  0  0  0  0  0  0  0
   -3.9440    7.2370   15.5980 C   0  0  0  0  0  0  0  0  0  0  0  0
   -4.7720    6.1390   15.8480 C   0  0  0  0  0  0  0  0  0  0  0  0
   -5.9520    5.9730   15.1190 C   0  0  0  0  0  0  0  0  0  0  0  0
   -6.7210    4.6640   15.1120 C   0  0  0  0  0  0  0  0  0  0  0  0
   -8.0620    4.7360   15.8870 C   0  0  2  0  0  0  0  0  0  0  0  0
   -8.0590    5.8060   16.9130 N   0  0  0  0  0  0  0  0  0  0  0  0
   -9.3640    6.8440   16.9780 S   0  0  0  0  0  0  0  0  0  0  0  0
  -10.2810    6.3760   17.9920 O   0  0  0  0  0  0  0  0  0  0  0  0
   -9.8000    7.1140   15.6240 O   0  0  0  0  0  0  0  0  0  0  0  0
   -8.5370    8.2980   17.5780 C   0  0  0  0  0  0  0  0  0  0  0  0
   -9.2760    9.3870   18.0340 C   0  0  0  0  0  0  0  0  0  0  0  0
   -8.6080   10.4910   18.5640 C   0  0  0  0  0  0  0  0  0  0  0  0
   -7.2050   10.5130   18.6430 C   0  0  0  0  0  0  0  0  0  0  0  0
   -6.5210   11.6130   19.1860 C   0  0  0  0  0  0  0  0  0  0  0  0
   -5.1270   11.6230   19.2570 C   0  0  0  0  0  0  0  0  0  0  0  0
   -4.3970   10.5340   18.7870 C   0  0  0  0  0  0  0  0  0  0  0  0
   -5.0600    9.4320   18.2450 C   0  0  0  0  0  0  0  0  0  0  0  0
   -6.4610    9.4060   18.1680 C   0  0  0  0  0  0  0  0  0  0  0  0
   -7.1390    8.3040   17.6310 C   0  0  0  0  0  0  0  0  0  0  0  0
   -8.5160    3.3990   16.4980 C   0  0  0  0  0  0  0  0  0  0  0  0
   -9.3080    2.6860   15.8710 O   0  0  0  0  0  0  0  0  0  0  0  0
   -8.0880    3.0520   17.7870 N   0  0  0  0  0  0  0  0  0  0  0  0
   -9.1590    2.6910   18.7130 C   0  0  0  0  0  0  0  0  0  0  0  0
   -8.6480    2.5460   20.1390 C   0  0  0  0  0  0  0  0  0  0  0  0
   -7.6010    1.4390   20.2450 C   0  0  0  0  0  0  0  0  0  0  0  0
   -6.9130    1.1530   18.9080 C   0  0  0  0  0  0  0  0  0  0  0  0
   -6.7510    2.4230   18.0590 C   0  0  2  0  0  0  0  0  0  0  0  0
   -5.6470    3.3250   18.6810 C   0  0  0  0  0  0  0  0  0  0  0  0
   -5.9180    4.5650   18.8010 O   0  0  0  0  0  0  0  0  0  0  0  0
   -4.5010    2.8320   18.8660 O   0  0  0  0  0  0  0  0  0  0  0  0
   -6.3130    6.9540   14.1920 C   0  0  0  0  0  0  0  0  0  0  0  0
   -3.9080    9.6450   12.6080 H   0  0  0  0  0  0  0  0  0  0  0  0
   -4.9900   10.1230   11.3210 H   0  0  0  0  0  0  0  0  0  0  0  0
   -7.2620    9.2590   11.3340 H   0  0  0  0  0  0  0  0  0  0  0  0
   -7.6490    8.0810   12.4860 H   0  0  0  0  0  0  0  0  0  0  0  0
   -3.5739    8.9724   14.3506 H   0  0  0  0  0  0  0  0  0  0  0  0
   -3.0432    7.3935   16.2096 H   0  0  0  0  0  0  0  0  0  0  0  0
   -4.4943    5.4053   16.6191 H   0  0  0  0  0  0  0  0  0  0  0  0
   -6.9352    4.3906   14.0683 H   0  0  0  0  0  0  0  0  0  0  0  0
   -6.0932    3.9147   15.6164 H   0  0  0  0  0  0  0  0  0  0  0  0
   -8.8075    4.9885   15.1186 H   0  0  0  0  0  0  0  0  0  0  0  0
   -7.8720    5.4360   17.8680 H   0  0  0  0  0  0  0  0  0  0  0  0
  -10.3745    9.3766   17.9768 H   0  0  0  0  0  0  0  0  0  0  0  0
   -9.1862   11.3546   18.9244 H   0  0  0  0  0  0  0  0  0  0  0  0
   -7.0905   12.4767   19.5597 H   0  0  0  0  0  0  0  0  0  0  0  0
   -4.6047   12.4916   19.6845 H   0  0  0  0  0  0  0  0  0  0  0  0
   -3.2985   10.5425   18.8430 H   0  0  0  0  0  0  0  0  0  0  0  0
   -4.4784    8.5750   17.8744 H   0  0  0  0  0  0  0  0  0  0  0  0
   -6.5713    7.4421   17.2504 H   0  0  0  0  0  0  0  0  0  0  0  0
   -9.9299    3.4753   18.6890 H   0  0  0  0  0  0  0  0  0  0  0  0
   -9.5716    1.7214   18.3974 H   0  0  0  0  0  0  0  0  0  0  0  0
   -8.1963    3.4976   20.4560 H   0  0  0  0  0  0  0  0  0  0  0  0
   -9.4974    2.2828   20.7865 H   0  0  0  0  0  0  0  0  0  0  0  0
   -6.8379    1.7440   20.9763 H   0  0  0  0  0  0  0  0  0  0  0  0
   -8.1172    0.5197   20.5587 H   0  0  0  0  0  0  0  0  0  0  0  0
   -5.9175    0.7284   19.1049 H   0  0  0  0  0  0  0  0  0  0  0  0
   -7.5433    0.4478   18.3464 H   0  0  0  0  0  0  0  0  0  0  0  0
   -6.3772    2.1981   17.0492 H   0  0  0  0  0  0  0  0  0  0  0  0
   -7.3124    6.9196   13.7338 H   0  0  0  0  0  0  0  0  0  0  0  0
  1  2  1  0
  2  3  2  0
  2  4  1  0
  4  5  2  0
  5  6  1  0
  6  7  2  0
  7  8  1  0
  8  9  1  0
  9 10  1  0
 10 11  1  0
 11 12  1  0
 12 13  2  0
 12 14  2  0
 12 15  1  0
 15 16  2  0
 16 17  1  0
 17 18  2  0
 18 19  1  0
 19 20  2  0
 20 21  1  0
 21 22  2  0
 22 23  1  0
 23 24  2  0
 10 25  1  0
 25 26  2  0
 25 27  1  0
 27 28  1  0
 28 29  1  0
 29 30  1  0
 30 31  1  0
 31 32  1  0
 32 33  1  0
 33 34  2  0
 33 35  1  0
  8 36  2  0
 36  4  1  0
 24 15  1  0
 32 27  1  0
 23 18  1  0
  1 37  1  0
  1 38  1  0
  3 39  1  0
  3 40  1  0
  5 41  1  0
  6 42  1  0
  7 43  1  0
  9 44  1  0
  9 45  1  0
 10 46  1  6
 11 47  1  0
 16 48  1  0
 17 49  1  0
 19 50  1  0
 20 51  1  0
 21 52  1  0
 22 53  1  0
 24 54  1  0
 28 55  1  0
 28 56  1  0
 29 57  1  0
 29 58  1  0
 30 59  1  0
 30 60  1  0
 31 61  1  0
 31 62  1  0
 32 63  1  6
 36 64  1  0
M  CHG  2   3   1  35  -1
M  END
>  <meeko>  (3) 
{"is_sidechain": [false], "free_energy": -5.815, "intermolecular_energy": -9.308, "internal_energy": -3.236}

$$$$
1k1i_ligand
     RDKit          3D

 64 67  0  0  0  0  0  0  0  0999 V2000
   -6.8300    8.5720   12.1680 N   0  0  0  0  0  0  0  0  0  0  0  0
   -5.7290    8.7240   12.8700 C   0  0  0  0  0  0  0  0  0  0  0  0
   -4.7660    9.5110   12.4570 N   0  0  0  0  0  0  0  0  0  0  0  0
   -5.5730    7.9970   14.1360 C   0  0  0  0  0  0  0  0  0  0  0  0
   -4.4710    8.1770   14.9780 C   0  0  0  0  0  0  0  0  0  0  0  0
   -4.2810    7.3280   16.0740 C   0  0  0  0  0  0  0  0  0  0  0  0
   -5.1540    6.2590   16.2990 C   0  0  0  0  0  0  0  0  0  0  0  0
   -6.2600    6.0740   15.4680 C   0  0  0  0  0  0  0  0  0  0  0  0
   -7.0530    4.7790   15.4550 C   0  0  0  0  0  0  0  0  0  0  0  0
   -8.5080    4.9450   15.9660 C   0  0  2  0  0  0  0  0  0  0  0  0
   -8.5570    5.3510   17.3910 N   0  0  0  0  0  0  0  0  0  0  0  0
   -9.0960    6.8870   17.7580 S   0  0  0  0  0  0  0  0  0  0  0  0
  -10.1640    6.7870   18.7270 O   0  0  0  0  0  0  0  0  0  0  0  0
   -9.2580    7.6220   16.5210 O   0  0  0  0  0  0  0  0  0  0  0  0
   -7.6420    7.5080   18.5690 C   0  0  0  0  0  0  0  0  0  0  0  0
   -6.9680    6.7220   19.4990 C   0  0  0  0  0  0  0  0  0  0  0  0
   -5.7900    7.2020   20.0740 C   0  0  0  0  0  0  0  0  0  0  0  0
   -5.2810    8.4640   19.7220 C   0  0  0  0  0  0  0  0  0  0  0  0
   -4.0910    8.9540   20.2840 C   0  0  0  0  0  0  0  0  0  0  0  0
   -3.5970   10.2100   19.9260 C   0  0  0  0  0  0  0  0  0  0  0  0
   -4.2860   10.9940   19.0030 C   0  0  0  0  0  0  0  0  0  0  0  0
   -5.4700   10.5220   18.4350 C   0  0  0  0  0  0  0  0  0  0  0  0
   -5.9790    9.2610   18.7820 C   0  0  0  0  0  0  0  0  0  0  0  0
   -7.1640    8.7750   18.2150 C   0  0  0  0  0  0  0  0  0  0  0  0
   -9.4130    3.7260   15.7170 C   0  0  0  0  0  0  0  0  0  0  0  0
   -8.9850    2.5940   15.9690 O   0  0  0  0  0  0  0  0  0  0  0  0
  -10.6740    3.9160   15.1360 N   0  0  0  0  0  0  0  0  0  0  0  0
  -11.1280    2.8170   14.2850 C   0  0  0  0  0  0  0  0  0  0  0  0
  -12.3890    3.1830   13.5160 C   0  0  0  0  0  0  0  0  0  0  0  0
  -13.5480    3.4960   14.4630 C   0  0  0  0  0  0  0  0  0  0  0  0
  -13.0690    3.9250   15.8520 C   0  0  0  0  0  0  0  0  0  0  0  0
  -11.7590    4.7250   15.7890 C   0  0  2  0  0  0  0  0  0  0  0  0
  -12.0420    6.1410   15.2110 C   0  0  0  0  0  0  0  0  0  0  0  0
  -11.4080    6.4680   14.1550 O   0  0  0  0  0  0  0  0  0  0  0  0
  -12.7330    6.9430   15.8970 O   0  0  0  0  0  0  0  0  0  0  0  0
   -6.5080    7.0080   14.4590 C   0  0  0  0  0  0  0  0  0  0  0  0
   -7.5420    7.9300   12.4880 H   0  0  0  0  0  0  0  0  0  0  0  0
   -6.9430    9.0500   11.2860 H   0  0  0  0  0  0  0  0  0  0  0  0
   -4.7000    9.9470   11.5530 H   0  0  0  0  0  0  0  0  0  0  0  0
   -3.8780    9.5970   12.9900 H   0  0  0  0  0  0  0  0  0  0  0  0
   -3.7532    8.9864   14.7786 H   0  0  0  0  0  0  0  0  0  0  0  0
   -3.4407    7.5024   16.7621 H   0  0  0  0  0  0  0  0  0  0  0  0
   -4.9690    5.5638   17.1311 H   0  0  0  0  0  0  0  0  0  0  0  0
   -7.0866    4.4006   14.4227 H   0  0  0  0  0  0  0  0  0  0  0  0
   -6.5462    4.0800   16.1366 H   0  0  0  0  0  0  0  0  0  0  0  0
   -8.9209    5.7602   15.3536 H   0  0  0  0  0  0  0  0  0  0  0  0
   -9.0690    4.6620   17.9800 H   0  0  0  0  0  0  0  0  0  0  0  0
   -7.3595    5.7327   19.7781 H   0  0  0  0  0  0  0  0  0  0  0  0
   -5.2541    6.5857   20.8108 H   0  0  0  0  0  0  0  0  0  0  0  0
   -3.5419    8.3416   21.0144 H   0  0  0  0  0  0  0  0  0  0  0  0
   -2.6629   10.5809   20.3731 H   0  0  0  0  0  0  0  0  0  0  0  0
   -3.8971   11.9839   18.7224 H   0  0  0  0  0  0  0  0  0  0  0  0
   -6.0103   11.1452   17.7072 H   0  0  0  0  0  0  0  0  0  0  0  0
   -7.7193    9.3894   17.4911 H   0  0  0  0  0  0  0  0  0  0  0  0
  -10.3320    2.5700   13.5671 H   0  0  0  0  0  0  0  0  0  0  0  0
  -11.3583    1.9567   14.9306 H   0  0  0  0  0  0  0  0  0  0  0  0
  -12.1854    4.0676   12.8947 H   0  0  0  0  0  0  0  0  0  0  0  0
  -12.6748    2.3245   12.8904 H   0  0  0  0  0  0  0  0  0  0  0  0
  -14.1480    4.3097   14.0296 H   0  0  0  0  0  0  0  0  0  0  0  0
  -14.1404    2.5768   14.5823 H   0  0  0  0  0  0  0  0  0  0  0  0
  -13.8449    4.5507   16.3173 H   0  0  0  0  0  0  0  0  0  0  0  0
  -12.8830    3.0157   16.4424 H   0  0  0  0  0  0  0  0  0  0  0  0
  -11.3495    4.9198   16.7912 H   0  0  0  0  0  0  0  0  0  0  0  0
   -7.4585    6.9647   13.9070 H   0  0  0  0  0  0  0  0  0  0  0  0
  1  2  1  0
  2  3  2  0
  2  4  1  0
  4  5  2  0
  5  6  1  0
  6  7  2  0
  7  8  1  0
  8  9  1  0
  9 10  1  0
 10 11  1  0
 11 12  1  0
 12 13  2  0
 12 14  2  0
 12 15  1  0
 15 16  2  0
 16 17  1  0
 17 18  2  0
 18 19  1  0
 19 20  2  0
 20 21  1  0
 21 22  2  0
 22 23  1  0
 23 24  2  0
 10 25  1  0
 25 26  2  0
 25 27  1  0
 27 28  1  0
 28 29  1  0
 29 30  1  0
 30 31  1  0
 31 32  1  0
 32 33  1  0
 33 34  2  0
 33 35  1  0
  8 36  2  0
 36  4  1  0
 24 15  1  0
 32 27  1  0
 23 18  1  0
  1 37  1  0
  1 38  1  0
  3 39  1  0
  3 40  1  0
  5 41  1  0
  6 42  1  0
  7 43  1  0
  9 44  1  0
  9 45  1  0
 10 46  1  6
 11 47  1  0
 16 48  1  0
 17 49  1  0
 19 50  1  0
 20 51  1  0
 21 52  1  0
 22 53  1  0
 24 54  1  0
 28 55  1  0
 28 56  1  0
 29 57  1  0
 29 58  1  0
 30 59  1  0
 30 60  1  0
 31 61  1  0
 31 62  1  0
 32 63  1  1
 36 64  1  0
M  CHG  2   3   1  35  -1
M  END
>  <meeko>  (4) 
{"is_sidechain": [false], "free_energy": -5.768, "intermolecular_energy": -9.049, "internal_energy": -3.422}

$$$$
1k1i_ligand
     RDKit          3D

 64 67  0  0  0  0  0  0  0  0999 V2000
   -4.9250    9.5150   12.5600 N   0  0  0  0  0  0  0  0  0  0  0  0
   -5.8050    8.6210   12.9550 C   0  0  0  0  0  0  0  0  0  0  0  0
   -6.9060    8.4100   12.2770 N   0  0  0  0  0  0  0  0  0  0  0  0
   -5.5530    7.8500   14.1790 C   0  0  0  0  0  0  0  0  0  0  0  0
   -4.4200    8.0480   14.9760 C   0  0  0  0  0  0  0  0  0  0  0  0
   -4.1370    7.1640   16.0230 C   0  0  0  0  0  0  0  0  0  0  0  0
   -4.9470    6.0450   16.2410 C   0  0  0  0  0  0  0  0  0  0  0  0
   -6.0830    5.8410   15.4550 C   0  0  0  0  0  0  0  0  0  0  0  0
   -6.8140    4.5110   15.4220 C   0  0  0  0  0  0  0  0  0  0  0  0
   -8.1080    4.5000   16.2770 C   0  0  2  0  0  0  0  0  0  0  0  0
   -7.8240    4.6410   17.7250 N   0  0  0  0  0  0  0  0  0  0  0  0
   -8.6970    5.7630   18.5980 S   0  0  0  0  0  0  0  0  0  0  0  0
   -8.7890    5.3180   19.9690 O   0  0  0  0  0  0  0  0  0  0  0  0
   -9.8730    6.1210   17.8340 O   0  0  0  0  0  0  0  0  0  0  0  0
   -7.5620    7.1280   18.5130 C   0  0  0  0  0  0  0  0  0  0  0  0
   -7.8160    8.1990   17.6590 C   0  0  0  0  0  0  0  0  0  0  0  0
   -6.9480    9.2920   17.6580 C   0  0  0  0  0  0  0  0  0  0  0  0
   -5.8280    9.3220   18.5060 C   0  0  0  0  0  0  0  0  0  0  0  0
   -4.9540   10.4210   18.5230 C   0  0  0  0  0  0  0  0  0  0  0  0
   -3.8440   10.4370   19.3690 C   0  0  0  0  0  0  0  0  0  0  0  0
   -3.5920    9.3550   20.2100 C   0  0  0  0  0  0  0  0  0  0  0  0
   -4.4510    8.2550   20.2060 C   0  0  0  0  0  0  0  0  0  0  0  0
   -5.5720    8.2240   19.3630 C   0  0  0  0  0  0  0  0  0  0  0  0
   -6.4440    7.1280   19.3540 C   0  0  0  0  0  0  0  0  0  0  0  0
   -9.0320    3.2970   16.0190 C   0  0  0  0  0  0  0  0  0  0  0  0
   -9.4350    3.0800   14.8710 O   0  0  0  0  0  0  0  0  0  0  0  0
   -9.4620    2.5180   17.1010 N   0  0  0  0  0  0  0  0  0  0  0  0
  -10.8590    2.7160   17.4820 C   0  0  0  0  0  0  0  0  0  0  0  0
  -11.1920    2.0140   18.7910 C   0  0  0  0  0  0  0  0  0  0  0  0
  -10.9910    0.5040   18.6790 C   0  0  0  0  0  0  0  0  0  0  0  0
  -10.0080    0.1240   17.5690 C   0  0  0  0  0  0  0  0  0  0  0  0
   -8.8880    1.1640   17.4100 C   0  0  2  0  0  0  0  0  0  0  0  0
   -7.9060    1.0580   18.6120 C   0  0  0  0  0  0  0  0  0  0  0  0
   -7.7770    2.0960   19.3400 O   0  0  0  0  0  0  0  0  0  0  0  0
   -7.1710    0.0370   18.6980 O   0  0  0  0  0  0  0  0  0  0  0  0
   -6.4240    6.8040   14.5020 C   0  0  0  0  0  0  0  0  0  0  0  0
   -4.1030    9.6870   13.1210 H   0  0  0  0  0  0  0  0  0  0  0  0
   -5.0950   10.0660   11.7320 H   0  0  0  0  0  0  0  0  0  0  0  0
   -7.2500    8.9640   11.5110 H   0  0  0  0  0  0  0  0  0  0  0  0
   -7.6210    7.7350   12.6120 H   0  0  0  0  0  0  0  0  0  0  0  0
   -3.7515    8.8991   14.7793 H   0  0  0  0  0  0  0  0  0  0  0  0
   -3.2731    7.3501   16.6779 H   0  0  0  0  0  0  0  0  0  0  0  0
   -4.6891    5.3253   17.0319 H   0  0  0  0  0  0  0  0  0  0  0  0
   -7.0827    4.2862   14.3793 H   0  0  0  0  0  0  0  0  0  0  0  0
   -6.1362    3.7564   15.8476 H   0  0  0  0  0  0  0  0  0  0  0  0
   -8.6636    5.3876   15.9401 H   0  0  0  0  0  0  0  0  0  0  0  0
   -7.8520    3.7270   18.2230 H   0  0  0  0  0  0  0  0  0  0  0  0
   -8.6911    8.1834   16.9927 H   0  0  0  0  0  0  0  0  0  0  0  0
   -7.1431   10.1402   16.9853 H   0  0  0  0  0  0  0  0  0  0  0  0
   -5.1464   11.2790   17.8621 H   0  0  0  0  0  0  0  0  0  0  0  0
   -3.1676   11.3045   19.3718 H   0  0  0  0  0  0  0  0  0  0  0  0
   -2.7169    9.3678   20.8764 H   0  0  0  0  0  0  0  0  0  0  0  0
   -4.2468    7.4030   20.8711 H   0  0  0  0  0  0  0  0  0  0  0  0
   -6.2495    6.2660   20.0091 H   0  0  0  0  0  0  0  0  0  0  0  0
  -11.0474    3.7936   17.5977 H   0  0  0  0  0  0  0  0  0  0  0  0
  -11.4933    2.2868   16.6924 H   0  0  0  0  0  0  0  0  0  0  0  0
  -10.5369    2.4047   19.5836 H   0  0  0  0  0  0  0  0  0  0  0  0
  -12.2487    2.2064   19.0286 H   0  0  0  0  0  0  0  0  0  0  0  0
  -10.6036    0.1277   19.6373 H   0  0  0  0  0  0  0  0  0  0  0  0
  -11.9642    0.0548   18.4317 H   0  0  0  0  0  0  0  0  0  0  0  0
   -9.5568   -0.8493   17.8123 H   0  0  0  0  0  0  0  0  0  0  0  0
  -10.5661    0.0787   16.6222 H   0  0  0  0  0  0  0  0  0  0  0  0
   -8.2592    0.9594   16.5310 H   0  0  0  0  0  0  0  0  0  0  0  0
   -7.3979    6.7384   13.9949 H   0  0  0  0  0  0  0  0  0  0  0  0
  1  2  1  0
  2  3  2  0
  2  4  1  0
  4  5  2  0
  5  6  1  0
  6  7  2  0
  7  8  1  0
  8  9  1  0
  9 10  1  0
 10 11  1  0
 11 12  1  0
 12 13  2  0
 12 14  2  0
 12 15  1  0
 15 16  2  0
 16 17  1  0
 17 18  2  0
 18 19  1  0
 19 20  2  0
 20 21  1  0
 21 22  2  0
 22 23  1  0
 23 24  2  0
 10 25  1  0
 25 26  2  0
 25 27  1  0
 27 28  1  0
 28 29  1  0
 29 30  1  0
 30 31  1  0
 31 32  1  0
 32 33  1  0
 33 34  2  0
 33 35  1  0
  8 36  2  0
 36  4  1  0
 24 15  1  0
 32 27  1  0
 23 18  1  0
  1 37  1  0
  1 38  1  0
  3 39  1  0
  3 40  1  0
  5 41  1  0
  6 42  1  0
  7 43  1  0
  9 44  1  0
  9 45  1  0
 10 46  1  6
 11 47  1  0
 16 48  1  0
 17 49  1  0
 19 50  1  0
 20 51  1  0
 21 52  1  0
 22 53  1  0
 24 54  1  0
 28 55  1  0
 28 56  1  0
 29 57  1  0
 29 58  1  0
 30 59  1  0
 30 60  1  0
 31 61  1  0
 31 62  1  0
 32 63  1  6
 36 64  1  0
M  CHG  2   3   1  35  -1
M  END
>  <meeko>  (5) 
{"is_sidechain": [false], "free_energy": -5.716, "intermolecular_energy": -8.594, "internal_energy": -3.798}

$$$$
1k1i_ligand
     RDKit          3D

 64 67  0  0  0  0  0  0  0  0999 V2000
   -4.7060    9.4740   12.4990 N   0  0  0  0  0  0  0  0  0  0  0  0
   -5.7400    8.7460   12.8600 C   0  0  0  0  0  0  0  0  0  0  0  0
   -6.8120    8.6740   12.1100 N   0  0  0  0  0  0  0  0  0  0  0  0
   -5.6950    8.0050   14.1270 C   0  0  0  0  0  0  0  0  0  0  0  0
   -4.4940    7.6550   14.7540 C   0  0  0  0  0  0  0  0  0  0  0  0
   -4.5050    6.7920   15.8550 C   0  0  0  0  0  0  0  0  0  0  0  0
   -5.7050    6.2260   16.2970 C   0  0  0  0  0  0  0  0  0  0  0  0
   -6.9090    6.5740   15.6830 C   0  0  0  0  0  0  0  0  0  0  0  0
   -8.1840    5.7750   15.8930 C   0  0  0  0  0  0  0  0  0  0  0  0
   -9.4240    6.6610   16.1730 C   0  0  2  0  0  0  0  0  0  0  0  0
   -9.9810    6.4330   17.5280 N   0  0  0  0  0  0  0  0  0  0  0  0
  -10.0260    7.7180   18.5920 S   0  0  0  0  0  0  0  0  0  0  0  0
  -10.5380    7.2540   19.8610 O   0  0  0  0  0  0  0  0  0  0  0  0
  -10.6020    8.8570   17.9090 O   0  0  0  0  0  0  0  0  0  0  0  0
   -8.2800    8.0110   18.7500 C   0  0  0  0  0  0  0  0  0  0  0  0
   -7.7150    9.1750   18.2350 C   0  0  0  0  0  0  0  0  0  0  0  0
   -6.3550    9.4180   18.4290 C   0  0  0  0  0  0  0  0  0  0  0  0
   -5.5550    8.5050   19.1390 C   0  0  0  0  0  0  0  0  0  0  0  0
   -4.1880    8.7430   19.3520 C   0  0  0  0  0  0  0  0  0  0  0  0
   -3.4050    7.8270   20.0580 C   0  0  0  0  0  0  0  0  0  0  0  0
   -3.9780    6.6600   20.5590 C   0  0  0  0  0  0  0  0  0  0  0  0
   -5.3360    6.4080   20.3560 C   0  0  0  0  0  0  0  0  0  0  0  0
   -6.1360    7.3190   19.6510 C   0  0  0  0  0  0  0  0  0  0  0  0
   -7.5010    7.0800   19.4450 C   0  0  0  0  0  0  0  0  0  0  0  0
  -10.5300    6.5640   15.1080 C   0  0  0  0  0  0  0  0  0  0  0  0
  -10.6470    7.4680   14.2730 O   0  0  0  0  0  0  0  0  0  0  0  0
  -11.4340    5.4930   15.1530 N   0  0  0  0  0  0  0  0  0  0  0  0
  -12.8250    5.8540   14.8840 C   0  0  0  0  0  0  0  0  0  0  0  0
  -13.7730    4.6980   15.1680 C   0  0  0  0  0  0  0  0  0  0  0  0
  -13.4640    3.4930   14.2790 C   0  0  0  0  0  0  0  0  0  0  0  0
  -12.0200    3.4950   13.7720 C   0  0  0  0  0  0  0  0  0  0  0  0
  -11.0470    4.0840   14.8040 C   0  0  2  0  0  0  0  0  0  0  0  0
  -10.8620    3.0800   15.9770 C   0  0  0  0  0  0  0  0  0  0  0  0
  -10.9240    3.5580   17.1570 O   0  0  0  0  0  0  0  0  0  0  0  0
  -10.4920    1.9040   15.7090 O   0  0  0  0  0  0  0  0  0  0  0  0
   -6.8950    7.5370   14.6710 C   0  0  0  0  0  0  0  0  0  0  0  0
   -3.9070    9.5450   13.1130 H   0  0  0  0  0  0  0  0  0  0  0  0
   -4.7310   10.0050   11.6410 H   0  0  0  0  0  0  0  0  0  0  0  0
   -7.0120    9.2380   11.3010 H   0  0  0  0  0  0  0  0  0  0  0  0
   -7.6450    8.1340   12.4160 H   0  0  0  0  0  0  0  0  0  0  0  0
   -3.5410    8.0585   14.3811 H   0  0  0  0  0  0  0  0  0  0  0  0
   -3.5649    6.5574   16.3757 H   0  0  0  0  0  0  0  0  0  0  0  0
   -5.6999    5.5063   17.1289 H   0  0  0  0  0  0  0  0  0  0  0  0
   -8.3768    5.1809   14.9875 H   0  0  0  0  0  0  0  0  0  0  0  0
   -8.0293    5.1420   16.7792 H   0  0  0  0  0  0  0  0  0  0  0  0
   -9.0398    7.6903   16.1195 H   0  0  0  0  0  0  0  0  0  0  0  0
  -10.9210    5.9850   17.4980 H   0  0  0  0  0  0  0  0  0  0  0  0
   -8.3347    9.8954   17.6809 H   0  0  0  0  0  0  0  0  0  0  0  0
   -5.9031   10.3345   18.0218 H   0  0  0  0  0  0  0  0  0  0  0  0
   -3.7283    9.6615   18.9583 H   0  0  0  0  0  0  0  0  0  0  0  0
   -2.3353    8.0270   20.2186 H   0  0  0  0  0  0  0  0  0  0  0  0
   -3.3610    5.9380   21.1139 H   0  0  0  0  0  0  0  0  0  0  0  0
   -5.7834    5.4850   20.7533 H   0  0  0  0  0  0  0  0  0  0  0  0
   -7.9611    6.1583   19.8306 H   0  0  0  0  0  0  0  0  0  0  0  0
  -13.1015    6.7064   15.5219 H   0  0  0  0  0  0  0  0  0  0  0  0
  -12.9113    6.1136   13.8186 H   0  0  0  0  0  0  0  0  0  0  0  0
  -13.6699    4.4011   16.2221 H   0  0  0  0  0  0  0  0  0  0  0  0
  -14.7995    5.0313   14.9555 H   0  0  0  0  0  0  0  0  0  0  0  0
  -13.6331    2.5738   14.8591 H   0  0  0  0  0  0  0  0  0  0  0  0
  -14.1265    3.5451   13.4025 H   0  0  0  0  0  0  0  0  0  0  0  0
  -11.7198    2.4599   13.5517 H   0  0  0  0  0  0  0  0  0  0  0  0
  -11.9783    4.1229   12.8697 H   0  0  0  0  0  0  0  0  0  0  0  0
  -10.0344    4.2037   14.3914 H   0  0  0  0  0  0  0  0  0  0  0  0
   -7.8484    7.9356   14.2941 H   0  0  0  0  0  0  0  0  0  0  0  0
  1  2  1  0
  2  3  2  0
  2  4  1  0
  4  5  2  0
  5  6  1  0
  6  7  2  0
  7  8  1  0
  8  9  1  0
  9 10  1  0
 10 11  1  0
 11 12  1  0
 12 13  2  0
 12 14  2  0
 12 15  1  0
 15 16  2  0
 16 17  1  0
 17 18  2  0
 18 19  1  0
 19 20  2  0
 20 21  1  0
 21 22  2  0
 22 23  1  0
 23 24  2  0
 10 25  1  0
 25 26  2  0
 25 27  1  0
 27 28  1  0
 28 29  1  0
 29 30  1  0
 30 31  1  0
 31 32  1  0
 32 33  1  0
 33 34  2  0
 33 35  1  0
  8 36  2  0
 36  4  1  0
 24 15  1  0
 32 27  1  0
 23 18  1  0
  1 37  1  0
  1 38  1  0
  3 39  1  0
  3 40  1  0
  5 41  1  0
  6 42  1  0
  7 43  1  0
  9 44  1  0
  9 45  1  0
 10 46  1  1
 11 47  1  0
 16 48  1  0
 17 49  1  0
 19 50  1  0
 20 51  1  0
 21 52  1  0
 22 53  1  0
 24 54  1  0
 28 55  1  0
 28 56  1  0
 29 57  1  0
 29 58  1  0
 30 59  1  0
 30 60  1  0
 31 61  1  0
 31 62  1  0
 32 63  1  6
 36 64  1  0
M  CHG  2   3   1  35  -1
M  END
>  <meeko>  (6) 
{"is_sidechain": [false], "free_energy": -5.619, "intermolecular_energy": -8.476, "internal_energy": -3.769}

$$$$
1k1i_ligand
     RDKit          3D

 64 67  0  0  0  0  0  0  0  0999 V2000
   -6.9650    8.3730   12.3040 N   0  0  0  0  0  0  0  0  0  0  0  0
   -5.8480    8.6070   12.9560 C   0  0  0  0  0  0  0  0  0  0  0  0
   -4.9750    9.4780   12.5120 N   0  0  0  0  0  0  0  0  0  0  0  0
   -5.5690    7.8770   14.1990 C   0  0  0  0  0  0  0  0  0  0  0  0
   -4.4150    8.0930   14.9580 C   0  0  0  0  0  0  0  0  0  0  0  0
   -4.1110    7.2440   16.0280 C   0  0  0  0  0  0  0  0  0  0  0  0
   -4.9230    6.1410   16.3070 C   0  0  0  0  0  0  0  0  0  0  0  0
   -6.0810    5.9200   15.5600 C   0  0  0  0  0  0  0  0  0  0  0  0
   -6.8240    4.5950   15.5930 C   0  0  0  0  0  0  0  0  0  0  0  0
   -7.8940    4.5200   16.7130 C   0  0  2  0  0  0  0  0  0  0  0  0
   -7.2910    4.5750   18.0670 N   0  0  0  0  0  0  0  0  0  0  0  0
   -8.0220    5.5340   19.2200 S   0  0  0  0  0  0  0  0  0  0  0  0
   -7.7170    5.0040   20.5290 O   0  0  0  0  0  0  0  0  0  0  0  0
   -9.3840    5.7930   18.8030 O   0  0  0  0  0  0  0  0  0  0  0  0
   -7.0900    7.0270   18.9740 C   0  0  0  0  0  0  0  0  0  0  0  0
   -7.5400    7.9960   18.0800 C   0  0  0  0  0  0  0  0  0  0  0  0
   -6.8290    9.1900   17.9530 C   0  0  0  0  0  0  0  0  0  0  0  0
   -5.6710    9.4230   18.7140 C   0  0  0  0  0  0  0  0  0  0  0  0
   -4.9530   10.6250   18.6040 C   0  0  0  0  0  0  0  0  0  0  0  0
   -3.8040   10.8430   19.3660 C   0  0  0  0  0  0  0  0  0  0  0  0
   -3.3550    9.8620   20.2490 C   0  0  0  0  0  0  0  0  0  0  0  0
   -4.0570    8.6610   20.3700 C   0  0  0  0  0  0  0  0  0  0  0  0
   -5.2150    8.4280   19.6130 C   0  0  0  0  0  0  0  0  0  0  0  0
   -5.9300    7.2290   19.7310 C   0  0  0  0  0  0  0  0  0  0  0  0
   -8.8560    3.3260   16.5950 C   0  0  0  0  0  0  0  0  0  0  0  0
   -8.4820    2.2080   16.9690 O   0  0  0  0  0  0  0  0  0  0  0  0
  -10.1090    3.5100   15.9940 N   0  0  0  0  0  0  0  0  0  0  0  0
  -10.4410    4.9000   15.6850 C   0  0  0  0  0  0  0  0  0  0  0  0
  -11.8910    5.0500   15.2460 C   0  0  0  0  0  0  0  0  0  0  0  0
  -12.1730    4.2500   13.9750 C   0  0  0  0  0  0  0  0  0  0  0  0
  -11.1880    3.0950   13.7790 C   0  0  0  0  0  0  0  0  0  0  0  0
  -10.7510    2.4750   15.1150 C   0  0  2  0  0  0  0  0  0  0  0  0
  -11.9290    1.6560   15.7160 C   0  0  0  0  0  0  0  0  0  0  0  0
  -12.2050    1.8620   16.9430 O   0  0  0  0  0  0  0  0  0  0  0  0
  -12.4230    0.7210   15.0280 O   0  0  0  0  0  0  0  0  0  0  0  0
   -6.4400    6.8510   14.5820 C   0  0  0  0  0  0  0  0  0  0  0  0
   -7.6040    7.6690   12.6460 H   0  0  0  0  0  0  0  0  0  0  0  0
   -7.1610    8.8520   11.4380 H   0  0  0  0  0  0  0  0  0  0  0  0
   -4.9910    9.9320   11.6140 H   0  0  0  0  0  0  0  0  0  0  0  0
   -4.0730    9.6310   13.0030 H   0  0  0  0  0  0  0  0  0  0  0  0
   -3.7455    8.9310   14.7139 H   0  0  0  0  0  0  0  0  0  0  0  0
   -3.2284    7.4457   16.6528 H   0  0  0  0  0  0  0  0  0  0  0  0
   -4.6493    5.4471   17.1154 H   0  0  0  0  0  0  0  0  0  0  0  0
   -7.3227    4.4500   14.6233 H   0  0  0  0  0  0  0  0  0  0  0  0
   -6.0814    3.8099   15.7984 H   0  0  0  0  0  0  0  0  0  0  0  0
   -8.5079    5.4206   16.5645 H   0  0  0  0  0  0  0  0  0  0  0  0
   -7.1320    3.6260   18.4660 H   0  0  0  0  0  0  0  0  0  0  0  0
   -8.4459    7.8218   17.4808 H   0  0  0  0  0  0  0  0  0  0  0  0
   -7.1795    9.9585   17.2483 H   0  0  0  0  0  0  0  0  0  0  0  0
   -5.3002   11.4039   17.9091 H   0  0  0  0  0  0  0  0  0  0  0  0
   -3.2523   11.7897   19.2697 H   0  0  0  0  0  0  0  0  0  0  0  0
   -2.4494   10.0338   20.8493 H   0  0  0  0  0  0  0  0  0  0  0  0
   -3.6981    7.8890   21.0666 H   0  0  0  0  0  0  0  0  0  0  0  0
   -5.5795    6.4456   20.4191 H   0  0  0  0  0  0  0  0  0  0  0  0
  -10.2753    5.5138   16.5827 H   0  0  0  0  0  0  0  0  0  0  0  0
   -9.7968    5.2297   14.8566 H   0  0  0  0  0  0  0  0  0  0  0  0
  -12.5480    4.6877   16.0504 H   0  0  0  0  0  0  0  0  0  0  0  0
  -12.0816    6.1129   15.0362 H   0  0  0  0  0  0  0  0  0  0  0  0
  -13.1914    3.8387   14.0357 H   0  0  0  0  0  0  0  0  0  0  0  0
  -12.0628    4.9322   13.1192 H   0  0  0  0  0  0  0  0  0  0  0  0
  -11.6700    2.3176   13.1680 H   0  0  0  0  0  0  0  0  0  0  0  0
  -10.2918    3.4948   13.2819 H   0  0  0  0  0  0  0  0  0  0  0  0
   -9.9481    1.7351   14.9817 H   0  0  0  0  0  0  0  0  0  0  0  0
   -7.4275    6.7759   14.1033 H   0  0  0  0  0  0  0  0  0  0  0  0
  1  2  1  0
  2  3  2  0
  2  4  1  0
  4  5  2  0
  5  6  1  0
  6  7  2  0
  7  8  1  0
  8  9  1  0
  9 10  1  0
 10 11  1  0
 11 12  1  0
 12 13  2  0
 12 14  2  0
 12 15  1  0
 15 16  2  0
 16 17  1  0
 17 18  2  0
 18 19  1  0
 19 20  2  0
 20 21  1  0
 21 22  2  0
 22 23  1  0
 23 24  2  0
 10 25  1  0
 25 26  2  0
 25 27  1  0
 27 28  1  0
 28 29  1  0
 29 30  1  0
 30 31  1  0
 31 32  1  0
 32 33  1  0
 33 34  2  0
 33 35  1  0
  8 36  2  0
 36  4  1  0
 24 15  1  0
 32 27  1  0
 23 18  1  0
  1 37  1  0
  1 38  1  0
  3 39  1  0
  3 40  1  0
  5 41  1  0
  6 42  1  0
  7 43  1  0
  9 44  1  0
  9 45  1  0
 10 46  1  6
 11 47  1  0
 16 48  1  0
 17 49  1  0
 19 50  1  0
 20 51  1  0
 21 52  1  0
 22 53  1  0
 24 54  1  0
 28 55  1  0
 28 56  1  0
 29 57  1  0
 29 58  1  0
 30 59  1  0
 30 60  1  0
 31 61  1  0
 31 62  1  0
 32 63  1  6
 36 64  1  0
M  CHG  2   3   1  35  -1
M  END
>  <meeko>  (7) 
{"is_sidechain": [false], "free_energy": -5.6, "intermolecular_energy": -9.109, "internal_energy": -3.107}

$$$$
1k1i_ligand
     RDKit          3D

 64 67  0  0  0  0  0  0  0  0999 V2000
   -6.2850   12.9030   17.8450 N   0  0  0  0  0  0  0  0  0  0  0  0
   -5.5930   12.9240   18.9620 C   0  0  0  0  0  0  0  0  0  0  0  0
   -5.1050   14.0440   19.4350 N   0  0  0  0  0  0  0  0  0  0  0  0
   -5.3580   11.6700   19.6910 C   0  0  0  0  0  0  0  0  0  0  0  0
   -5.0010   11.6400   21.0430 C   0  0  0  0  0  0  0  0  0  0  0  0
   -4.6100   10.4340   21.6360 C   0  0  0  0  0  0  0  0  0  0  0  0
   -4.5140    9.2680   20.8710 C   0  0  0  0  0  0  0  0  0  0  0  0
   -4.8740    9.2870   19.5220 C   0  0  0  0  0  0  0  0  0  0  0  0
   -4.5000    8.1640   18.5700 C   0  0  0  0  0  0  0  0  0  0  0  0
   -5.6810    7.2130   18.2490 C   0  0  2  0  0  0  0  0  0  0  0  0
   -6.2130    6.5510   19.4640 N   0  0  0  0  0  0  0  0  0  0  0  0
   -7.8680    6.4020   19.6240 S   0  0  0  0  0  0  0  0  0  0  0  0
   -8.1530    5.5940   20.7880 O   0  0  0  0  0  0  0  0  0  0  0  0
   -8.4260    6.0880   18.3250 O   0  0  0  0  0  0  0  0  0  0  0  0
   -8.2680    8.0940   19.9890 C   0  0  0  0  0  0  0  0  0  0  0  0
   -8.0460    8.6080   21.2640 C   0  0  0  0  0  0  0  0  0  0  0  0
   -8.3040    9.9570   21.5110 C   0  0  0  0  0  0  0  0  0  0  0  0
   -8.7800   10.7970   20.4900 C   0  0  0  0  0  0  0  0  0  0  0  0
   -9.0320   12.1590   20.7220 C   0  0  0  0  0  0  0  0  0  0  0  0
   -9.5050   12.9820   19.6990 C   0  0  0  0  0  0  0  0  0  0  0  0
   -9.7350   12.4560   18.4300 C   0  0  0  0  0  0  0  0  0  0  0  0
   -9.4900   11.1040   18.1820 C   0  0  0  0  0  0  0  0  0  0  0  0
   -9.0120   10.2640   19.1990 C   0  0  0  0  0  0  0  0  0  0  0  0
   -8.7570    8.9070   18.9610 C   0  0  0  0  0  0  0  0  0  0  0  0
   -5.3840    6.1760   17.1520 C   0  0  0  0  0  0  0  0  0  0  0  0
   -4.8530    5.1030   17.4630 O   0  0  0  0  0  0  0  0  0  0  0  0
   -5.6460    6.4980   15.8140 N   0  0  0  0  0  0  0  0  0  0  0  0
   -6.6660    7.5270   15.6190 C   0  0  0  0  0  0  0  0  0  0  0  0
   -7.0570    7.6650   14.1550 C   0  0  0  0  0  0  0  0  0  0  0  0
   -5.8630    8.0800   13.2970 C   0  0  0  0  0  0  0  0  0  0  0  0
   -4.5240    7.7100   13.9380 C   0  0  0  0  0  0  0  0  0  0  0  0
   -4.6070    6.3980   14.7330 C   0  0  2  0  0  0  0  0  0  0  0  0
   -4.7120    5.1990   13.7470 C   0  0  0  0  0  0  0  0  0  0  0  0
   -5.6320    4.3480   13.9740 O   0  0  0  0  0  0  0  0  0  0  0  0
   -3.7930    5.0380   12.8980 O   0  0  0  0  0  0  0  0  0  0  0  0
   -5.3880   10.4670   18.9790 C   0  0  0  0  0  0  0  0  0  0  0  0
   -6.6180   12.0210   17.4800 H   0  0  0  0  0  0  0  0  0  0  0  0
   -6.4370   13.7530   17.3230 H   0  0  0  0  0  0  0  0  0  0  0  0
   -5.0820   14.9310   18.9610 H   0  0  0  0  0  0  0  0  0  0  0  0
   -4.5210   14.0540   20.2950 H   0  0  0  0  0  0  0  0  0  0  0  0
   -5.0275   12.5636   21.6399 H   0  0  0  0  0  0  0  0  0  0  0  0
   -4.3768   10.4035   22.7106 H   0  0  0  0  0  0  0  0  0  0  0  0
   -4.1550    8.3358   21.3316 H   0  0  0  0  0  0  0  0  0  0  0  0
   -4.1439    8.6083   17.6288 H   0  0  0  0  0  0  0  0  0  0  0  0
   -3.7231    7.5628   19.0649 H   0  0  0  0  0  0  0  0  0  0  0  0
   -6.4588    7.8745   17.8397 H   0  0  0  0  0  0  0  0  0  0  0  0
   -5.7710    5.6240   19.6340 H   0  0  0  0  0  0  0  0  0  0  0  0
   -7.6712    7.9575   22.0680 H   0  0  0  0  0  0  0  0  0  0  0  0
   -8.1327   10.3677   22.5170 H   0  0  0  0  0  0  0  0  0  0  0  0
   -8.8545   12.5820   21.7218 H   0  0  0  0  0  0  0  0  0  0  0  0
   -9.6964   14.0473   19.8951 H   0  0  0  0  0  0  0  0  0  0  0  0
  -10.1091   13.1048   17.6243 H   0  0  0  0  0  0  0  0  0  0  0  0
   -9.6737   10.6930   17.1784 H   0  0  0  0  0  0  0  0  0  0  0  0
   -8.9416    8.4802   17.9641 H   0  0  0  0  0  0  0  0  0  0  0  0
   -7.5591    7.2581   16.2022 H   0  0  0  0  0  0  0  0  0  0  0  0
   -6.2499    8.4886   15.9538 H   0  0  0  0  0  0  0  0  0  0  0  0
   -7.4389    6.6988   13.7938 H   0  0  0  0  0  0  0  0  0  0  0  0
   -7.8293    8.4442   14.0744 H   0  0  0  0  0  0  0  0  0  0  0  0
   -5.9379    7.5773   12.3215 H   0  0  0  0  0  0  0  0  0  0  0  0
   -5.8918    9.1745   13.1913 H   0  0  0  0  0  0  0  0  0  0  0  0
   -3.7702    7.5971   13.1449 H   0  0  0  0  0  0  0  0  0  0  0  0
   -4.2498    8.5133   14.6376 H   0  0  0  0  0  0  0  0  0  0  0  0
   -3.6841    6.2017   15.2984 H   0  0  0  0  0  0  0  0  0  0  0  0
   -5.8256   10.4494   17.9699 H   0  0  0  0  0  0  0  0  0  0  0  0
  1  2  1  0
  2  3  2  0
  2  4  1  0
  4  5  2  0
  5  6  1  0
  6  7  2  0
  7  8  1  0
  8  9  1  0
  9 10  1  0
 10 11  1  0
 11 12  1  0
 12 13  2  0
 12 14  2  0
 12 15  1  0
 15 16  2  0
 16 17  1  0
 17 18  2  0
 18 19  1  0
 19 20  2  0
 20 21  1  0
 21 22  2  0
 22 23  1  0
 23 24  2  0
 10 25  1  0
 25 26  2  0
 25 27  1  0
 27 28  1  0
 28 29  1  0
 29 30  1  0
 30 31  1  0
 31 32  1  0
 32 33  1  0
 33 34  2  0
 33 35  1  0
  8 36  2  0
 36  4  1  0
 24 15  1  0
 32 27  1  0
 23 18  1  0
  1 37  1  0
  1 38  1  0
  3 39  1  0
  3 40  1  0
  5 41  1  0
  6 42  1  0
  7 43  1  0
  9 44  1  0
  9 45  1  0
 10 46  1  6
 11 47  1  0
 16 48  1  0
 17 49  1  0
 19 50  1  0
 20 51  1  0
 21 52  1  0
 22 53  1  0
 24 54  1  0
 28 55  1  0
 28 56  1  0
 29 57  1  0
 29 58  1  0
 30 59  1  0
 30 60  1  0
 31 61  1  0
 31 62  1  0
 32 63  1  1
 36 64  1  0
M  CHG  2   3   1  35  -1
M  END
>  <meeko>  (8) 
{"is_sidechain": [false], "free_energy": -5.568, "intermolecular_energy": -8.131, "internal_energy": -4.035}

$$$$
1k1i_ligand
     RDKit          3D

 64 67  0  0  0  0  0  0  0  0999 V2000
   -3.5970    6.2010   15.1980 N   0  0  0  0  0  0  0  0  0  0  0  0
   -4.5420    7.0340   14.8210 C   0  0  0  0  0  0  0  0  0  0  0  0
   -4.2480    8.1850   14.2670 N   0  0  0  0  0  0  0  0  0  0  0  0
   -5.9500    6.6710   15.0280 C   0  0  0  0  0  0  0  0  0  0  0  0
   -6.9530    7.6260   15.2240 C   0  0  0  0  0  0  0  0  0  0  0  0
   -8.2400    7.2220   15.6000 C   0  0  0  0  0  0  0  0  0  0  0  0
   -8.5140    5.8730   15.8410 C   0  0  0  0  0  0  0  0  0  0  0  0
   -7.5210    4.9120   15.6420 C   0  0  0  0  0  0  0  0  0  0  0  0
   -7.6470    3.4970   16.1800 C   0  0  0  0  0  0  0  0  0  0  0  0
   -8.6920    3.3630   17.3170 C   0  0  2  0  0  0  0  0  0  0  0  0
   -8.0880    2.8640   18.5760 N   0  0  0  0  0  0  0  0  0  0  0  0
   -8.1890    3.8230   19.9370 S   0  0  0  0  0  0  0  0  0  0  0  0
   -7.6230    3.1050   21.0570 O   0  0  0  0  0  0  0  0  0  0  0  0
   -9.5180    4.3960   19.9950 O   0  0  0  0  0  0  0  0  0  0  0  0
   -7.0660    5.1130   19.4550 C   0  0  0  0  0  0  0  0  0  0  0  0
   -5.7450    4.8090   19.1340 C   0  0  0  0  0  0  0  0  0  0  0  0
   -4.8980    5.8260   18.6920 C   0  0  0  0  0  0  0  0  0  0  0  0
   -5.3640    7.1470   18.5690 C   0  0  0  0  0  0  0  0  0  0  0  0
   -4.5250    8.1770   18.1150 C   0  0  0  0  0  0  0  0  0  0  0  0
   -5.0000    9.4850   17.9980 C   0  0  0  0  0  0  0  0  0  0  0  0
   -6.3190    9.7810   18.3340 C   0  0  0  0  0  0  0  0  0  0  0  0
   -7.1660    8.7680   18.7870 C   0  0  0  0  0  0  0  0  0  0  0  0
   -6.7050    7.4490   18.9080 C   0  0  0  0  0  0  0  0  0  0  0  0
   -7.5470    6.4230   19.3560 C   0  0  0  0  0  0  0  0  0  0  0  0
   -9.9350    2.5360   16.9460 C   0  0  0  0  0  0  0  0  0  0  0  0
   -9.8960    1.3050   17.0510 O   0  0  0  0  0  0  0  0  0  0  0  0
  -11.0600    3.1870   16.4220 N   0  0  0  0  0  0  0  0  0  0  0  0
  -11.4820    4.3750   17.1620 C   0  0  0  0  0  0  0  0  0  0  0  0
  -12.8270    4.8950   16.6750 C   0  0  0  0  0  0  0  0  0  0  0  0
  -12.7650    5.3080   15.2050 C   0  0  0  0  0  0  0  0  0  0  0  0
  -11.6360    4.6060   14.4470 C   0  0  0  0  0  0  0  0  0  0  0  0
  -11.3990    3.1760   14.9580 C   0  0  2  0  0  0  0  0  0  0  0  0
  -12.5700    2.2600   14.5000 C   0  0  0  0  0  0  0  0  0  0  0  0
  -12.9240    1.3360   15.3020 O   0  0  0  0  0  0  0  0  0  0  0  0
  -12.9810    2.3610   13.3120 O   0  0  0  0  0  0  0  0  0  0  0  0
   -6.2820    5.3180   15.1400 C   0  0  0  0  0  0  0  0  0  0  0  0
   -3.8480    5.3370   15.6580 H   0  0  0  0  0  0  0  0  0  0  0  0
   -2.6250    6.4450   15.0800 H   0  0  0  0  0  0  0  0  0  0  0  0
   -3.3330    8.5970   14.2000 H   0  0  0  0  0  0  0  0  0  0  0  0
   -4.9940    8.8610   14.0090 H   0  0  0  0  0  0  0  0  0  0  0  0
   -6.7309    8.6941   15.0828 H   0  0  0  0  0  0  0  0  0  0  0  0
   -9.0393    7.9702   15.7062 H   0  0  0  0  0  0  0  0  0  0  0  0
   -9.5125    5.5682   16.1876 H   0  0  0  0  0  0  0  0  0  0  0  0
   -7.9437    2.8346   15.3535 H   0  0  0  0  0  0  0  0  0  0  0  0
   -6.6695    3.2213   16.6024 H   0  0  0  0  0  0  0  0  0  0  0  0
   -9.0488    4.3905   17.4809 H   0  0  0  0  0  0  0  0  0  0  0  0
   -8.4100    1.9020   18.8140 H   0  0  0  0  0  0  0  0  0  0  0  0
   -5.3734    3.7779   19.2280 H   0  0  0  0  0  0  0  0  0  0  0  0
   -3.8540    5.5917   18.4369 H   0  0  0  0  0  0  0  0  0  0  0  0
   -3.4819    7.9512   17.8485 H   0  0  0  0  0  0  0  0  0  0  0  0
   -4.3319   10.2823   17.6402 H   0  0  0  0  0  0  0  0  0  0  0  0
   -6.6927   10.8115   18.2425 H   0  0  0  0  0  0  0  0  0  0  0  0
   -8.2065    9.0070   19.0520 H   0  0  0  0  0  0  0  0  0  0  0  0
   -8.5882    6.6477   19.6304 H   0  0  0  0  0  0  0  0  0  0  0  0
  -11.5639    4.1197   18.2288 H   0  0  0  0  0  0  0  0  0  0  0  0
  -10.7317    5.1631   17.0010 H   0  0  0  0  0  0  0  0  0  0  0  0
  -13.5811    4.1029   16.7929 H   0  0  0  0  0  0  0  0  0  0  0  0
  -13.0937    5.7792   17.2725 H   0  0  0  0  0  0  0  0  0  0  0  0
  -13.7224    5.0543   14.7265 H   0  0  0  0  0  0  0  0  0  0  0  0
  -12.5697    6.3899   15.1694 H   0  0  0  0  0  0  0  0  0  0  0  0
  -11.8988    4.5624   13.3797 H   0  0  0  0  0  0  0  0  0  0  0  0
  -10.7118    5.1806   14.6071 H   0  0  0  0  0  0  0  0  0  0  0  0
  -10.5074    2.7194   14.5035 H   0  0  0  0  0  0  0  0  0  0  0  0
   -5.5525    4.5568   14.8263 H   0  0  0  0  0  0  0  0  0  0  0  0
  1  2  1  0
  2  3  2  0
  2  4  1  0
  4  5  2  0
  5  6  1  0
  6  7  2  0
  7  8  1  0
  8  9  1  0
  9 10  1  0
 10 11  1  0
 11 12  1  0
 12 13  2  0
 12 14  2  0
 12 15  1  0
 15 16  2  0
 16 17  1  0
 17 18  2  0
 18 19  1  0
 19 20  2  0
 20 21  1  0
 21 22  2  0
 22 23  1  0
 23 24  2  0
 10 25  1  0
 25 26  2  0
 25 27  1  0
 27 28  1  0
 28 29  1  0
 29 30  1  0
 30 31  1  0
 31 32  1  0
 32 33  1  0
 33 34  2  0
 33 35  1  0
  8 36  2  0
 36  4  1  0
 24 15  1  0
 32 27  1  0
 23 18  1  0
  1 37  1  0
  1 38  1  0
  3 39  1  0
  3 40  1  0
  5 41  1  0
  6 42  1  0
  7 43  1  0
  9 44  1  0
  9 45  1  0
 10 46  1  1
 11 47  1  0
 16 48  1  0
 17 49  1  0
 19 50  1  0
 20 51  1  0
 21 52  1  0
 22 53  1  0
 24 54  1  0
 28 55  1  0
 28 56  1  0
 29 57  1  0
 29 58  1  0
 30 59  1  0
 30 60  1  0
 31 61  1  0
 31 62  1  0
 32 63  1  6
 36 64  1  0
M  CHG  2   3   1  35  -1
M  END
>  <meeko>  (9) 
{"is_sidechain": [false], "free_energy": -5.537, "intermolecular_energy": -7.357, "internal_energy": -4.762}

$$$$
