
     RDKit          3D

 17 18  0  0  0  0  0  0  0  0999 V2000
    0.2820   -0.8190    8.5610 C   0  0  0  0  0  0  0  0  0  0  0  0
   -0.9070   -1.2390    7.7000 C   0  0  2  0  0  0  0  0  0  0  0  0
   -2.1040   -0.3050    7.9810 C   0  0  0  0  0  0  0  0  0  0  0  0
   -1.3100   -2.6660    8.1010 C   0  0  0  0  0  0  0  0  0  0  0  0
   -0.5420   -1.1580    6.2080 C   0  0  0  0  0  0  0  0  0  0  0  0
    0.1460   -0.0470    5.7000 C   0  0  0  0  0  0  0  0  0  0  0  0
    0.4650    0.0410    4.3540 C   0  0  0  0  0  0  0  0  0  0  0  0
    0.1160   -1.0010    3.4890 C   0  0  0  0  0  0  0  0  0  0  0  0
   -0.5530   -2.1130    3.9760 C   0  0  0  0  0  0  0  0  0  0  0  0
   -0.9180   -3.2250    3.0710 C   0  0  0  0  0  0  0  0  0  0  0  0
   -2.2310   -3.7170    3.0360 C   0  0  0  0  0  0  0  0  0  0  0  0
   -2.5560   -4.7520    2.1850 C   0  0  0  0  0  0  0  0  0  0  0  0
   -1.5930   -5.3030    1.3660 C   0  0  0  0  0  0  0  0  0  0  0  0
   -0.3190   -4.8290    1.3840 N   0  0  0  0  0  0  0  0  0  0  0  0
    0.0540   -3.8080    2.1950 C   0  0  0  0  0  0  0  0  0  0  0  0
    1.2310   -3.4210    2.1680 O   0  0  0  0  0  0  0  0  0  0  0  0
   -0.8890   -2.1910    5.3190 C   0  0  0  0  0  0  0  0  0  0  0  0
  2  1  1  1
  3  2  1  0
  4  2  1  0
  5  2  1  0
  6  5  2  0
  7  6  1  0
  8  7  2  0
  9  8  1  0
 10  9  1  0
 11 10  2  0
 12 11  1  0
 13 12  2  0
 14 13  1  0
 15 14  1  0
 15 10  1  0
 16 15  2  0
 17  9  2  0
 17  5  1  0
M  END
$$$$
