3b65_ligand
     RDKit          3D

 39 40  0  0  0  0  0  0  0  0999 V2000
   -2.5220   -3.9030   -4.6630 C   0  0  0  0  0  0  0  0  0  0  0  0
   -2.3410   -5.3880   -4.3440 C   0  0  2  0  0  0  0  0  0  0  0  0
   -3.1420   -6.1030   -5.3030 O   0  0  0  0  0  0  0  0  0  0  0  0
   -2.8100   -5.7650   -2.9240 C   0  0  0  0  0  0  0  0  0  0  0  0
   -1.6910   -5.8350   -2.0330 O   0  0  0  0  0  0  0  0  0  0  0  0
   -1.0930   -7.0510   -1.8650 C   0  0  0  0  0  0  0  0  0  0  0  0
   -1.7330   -8.2920   -1.8660 C   0  0  0  0  0  0  0  0  0  0  0  0
   -0.9910   -9.4650   -1.6840 C   0  0  0  0  0  0  0  0  0  0  0  0
    0.3940   -9.4060   -1.4990 C   0  0  0  0  0  0  0  0  0  0  0  0
    1.1490  -10.6100   -1.3140 C   0  0  0  0  0  0  0  0  0  0  0  0
    1.7570  -11.5870   -1.1700 N   0  0  0  0  0  0  0  0  0  0  0  0
    1.0350   -8.1660   -1.4950 C   0  0  0  0  0  0  0  0  0  0  0  0
    0.2910   -6.9970   -1.6780 C   0  0  0  0  0  0  0  0  0  0  0  0
   -0.8650   -5.8360   -4.5050 C   0  0  0  0  0  0  0  0  0  0  0  0
    0.0270   -4.9980   -4.3760 O   0  0  0  0  0  0  0  0  0  0  0  0
   -0.6840   -7.1680   -4.8350 N   0  0  0  0  0  0  0  0  0  0  0  0
    0.5380   -7.8360   -5.0700 C   0  0  0  0  0  0  0  0  0  0  0  0
    1.6090   -7.0560   -5.5220 C   0  0  0  0  0  0  0  0  0  0  0  0
    2.8560   -7.6350   -5.7800 C   0  0  0  0  0  0  0  0  0  0  0  0
    3.0580   -9.0080   -5.5880 C   0  0  0  0  0  0  0  0  0  0  0  0
    4.3580   -9.5470   -5.8670 C   0  0  0  0  0  0  0  0  0  0  0  0
    5.4230   -9.9460   -6.0990 N   0  0  0  0  0  0  0  0  0  0  0  0
    1.9900   -9.7900   -5.1360 C   0  0  0  0  0  0  0  0  0  0  0  0
    2.1640  -11.8600   -4.8080 I   0  0  0  0  0  0  0  0  0  0  0  0
    0.7380   -9.2050   -4.8790 C   0  0  0  0  0  0  0  0  0  0  0  0
   -2.5916   -3.3323   -3.7252 H   0  0  0  0  0  0  0  0  0  0  0  0
   -1.6608   -3.5457   -5.2466 H   0  0  0  0  0  0  0  0  0  0  0  0
   -3.4439   -3.7630   -5.2466 H   0  0  0  0  0  0  0  0  0  0  0  0
   -2.7900   -7.0170   -5.3310 H   0  0  0  0  0  0  0  0  0  0  0  0
   -3.5159   -5.0035   -2.5609 H   0  0  0  0  0  0  0  0  0  0  0  0
   -3.3016   -6.7484   -2.9589 H   0  0  0  0  0  0  0  0  0  0  0  0
   -2.8221   -8.3480   -2.0100 H   0  0  0  0  0  0  0  0  0  0  0  0
   -1.5007  -10.4398   -1.6865 H   0  0  0  0  0  0  0  0  0  0  0  0
    2.1237   -8.1090   -1.3481 H   0  0  0  0  0  0  0  0  0  0  0  0
    0.8011   -6.0224   -1.6748 H   0  0  0  0  0  0  0  0  0  0  0  0
   -1.5120   -7.7490   -4.8880 H   0  0  0  0  0  0  0  0  0  0  0  0
    1.4684   -5.9759   -5.6760 H   0  0  0  0  0  0  0  0  0  0  0  0
    3.6854   -7.0067   -6.1368 H   0  0  0  0  0  0  0  0  0  0  0  0
   -0.0930   -9.8320   -4.5237 H   0  0  0  0  0  0  0  0  0  0  0  0
  1  2  1  0
  2  3  1  6
  2  4  1  0
  4  5  1  0
  5  6  1  0
  6  7  2  0
  7  8  1  0
  8  9  2  0
  9 10  1  0
 10 11  3  0
  9 12  1  0
 12 13  2  0
  2 14  1  0
 14 15  2  0
 14 16  1  0
 16 17  1  0
 17 18  2  0
 18 19  1  0
 19 20  2  0
 20 21  1  0
 21 22  3  0
 20 23  1  0
 23 24  1  0
 23 25  2  0
 13  6  1  0
 25 17  1  0
  1 26  1  0
  1 27  1  0
  1 28  1  0
  3 29  1  0
  4 30  1  0
  4 31  1  0
  7 32  1  0
  8 33  1  0
 12 34  1  0
 13 35  1  0
 16 36  1  0
 18 37  1  0
 19 38  1  0
 25 39  1  0
M  END
>  <meeko>  (1) 
{"is_sidechain": [false], "free_energy": -3.85, "intermolecular_energy": -5.088, "internal_energy": 0.567}

$$$$
3b65_ligand
     RDKit          3D

 39 40  0  0  0  0  0  0  0  0999 V2000
    4.8130   -9.1160   -6.9390 C   0  0  0  0  0  0  0  0  0  0  0  0
    4.0210   -9.2090   -5.6350 C   0  0  2  0  0  0  0  0  0  0  0  0
    4.9740   -9.0120   -4.5730 O   0  0  0  0  0  0  0  0  0  0  0  0
    3.3330  -10.5760   -5.4390 C   0  0  0  0  0  0  0  0  0  0  0  0
    3.3220  -10.9330   -4.0530 O   0  0  0  0  0  0  0  0  0  0  0  0
    2.3070  -10.4430   -3.2820 C   0  0  0  0  0  0  0  0  0  0  0  0
    2.4250   -9.4780   -2.2800 C   0  0  0  0  0  0  0  0  0  0  0  0
    1.2950   -9.0640   -1.5670 C   0  0  0  0  0  0  0  0  0  0  0  0
    0.0390   -9.6130   -1.8480 C   0  0  0  0  0  0  0  0  0  0  0  0
   -1.1160   -9.1850   -1.1160 C   0  0  0  0  0  0  0  0  0  0  0  0
   -2.0490   -8.8330   -0.5240 N   0  0  0  0  0  0  0  0  0  0  0  0
   -0.0800  -10.5800   -2.8480 C   0  0  0  0  0  0  0  0  0  0  0  0
    1.0510  -10.9900   -3.5590 C   0  0  0  0  0  0  0  0  0  0  0  0
    2.9400   -8.1010   -5.5370 C   0  0  0  0  0  0  0  0  0  0  0  0
    3.2990   -6.9250   -5.4700 O   0  0  0  0  0  0  0  0  0  0  0  0
    1.6330   -8.5530   -5.4850 N   0  0  0  0  0  0  0  0  0  0  0  0
    0.4590   -7.7760   -5.3660 C   0  0  0  0  0  0  0  0  0  0  0  0
   -0.2870   -7.5740   -6.5330 C   0  0  0  0  0  0  0  0  0  0  0  0
   -1.4630   -6.8170   -6.5080 C   0  0  0  0  0  0  0  0  0  0  0  0
   -1.9190   -6.2490   -5.3110 C   0  0  0  0  0  0  0  0  0  0  0  0
   -3.1320   -5.4840   -5.3440 C   0  0  0  0  0  0  0  0  0  0  0  0
   -4.1180   -4.8750   -5.4080 N   0  0  0  0  0  0  0  0  0  0  0  0
   -1.1760   -6.4490   -4.1430 C   0  0  0  0  0  0  0  0  0  0  0  0
   -1.7530   -5.6510   -2.2850 I   0  0  0  0  0  0  0  0  0  0  0  0
    0.0070   -7.2100   -4.1730 C   0  0  0  0  0  0  0  0  0  0  0  0
    5.8817   -8.9905   -6.7107 H   0  0  0  0  0  0  0  0  0  0  0  0
    4.6684  -10.0373   -7.5223 H   0  0  0  0  0  0  0  0  0  0  0  0
    4.4589   -8.2533   -7.5223 H   0  0  0  0  0  0  0  0  0  0  0  0
    4.4760   -8.6270   -3.8220 H   0  0  0  0  0  0  0  0  0  0  0  0
    2.2979  -10.5172   -5.8067 H   0  0  0  0  0  0  0  0  0  0  0  0
    3.8899  -11.3404   -6.0007 H   0  0  0  0  0  0  0  0  0  0  0  0
    3.4087   -9.0423   -2.0507 H   0  0  0  0  0  0  0  0  0  0  0  0
    1.3944   -8.3018   -0.7802 H   0  0  0  0  0  0  0  0  0  0  0  0
   -1.0627  -11.0186   -3.0759 H   0  0  0  0  0  0  0  0  0  0  0  0
    0.9516  -11.7522   -4.3459 H   0  0  0  0  0  0  0  0  0  0  0  0
    1.4840   -9.5510   -5.5720 H   0  0  0  0  0  0  0  0  0  0  0  0
    0.0554   -8.0156   -7.4805 H   0  0  0  0  0  0  0  0  0  0  0  0
   -2.0345   -6.6664   -7.4357 H   0  0  0  0  0  0  0  0  0  0  0  0
    0.5814   -7.3604   -3.2470 H   0  0  0  0  0  0  0  0  0  0  0  0
  1  2  1  0
  2  3  1  1
  2  4  1  0
  4  5  1  0
  5  6  1  0
  6  7  2  0
  7  8  1  0
  8  9  2  0
  9 10  1  0
 10 11  3  0
  9 12  1  0
 12 13  2  0
  2 14  1  0
 14 15  2  0
 14 16  1  0
 16 17  1  0
 17 18  2  0
 18 19  1  0
 19 20  2  0
 20 21  1  0
 21 22  3  0
 20 23  1  0
 23 24  1  0
 23 25  2  0
 13  6  1  0
 25 17  1  0
  1 26  1  0
  1 27  1  0
  1 28  1  0
  3 29  1  0
  4 30  1  0
  4 31  1  0
  7 32  1  0
  8 33  1  0
 12 34  1  0
 13 35  1  0
 16 36  1  0
 18 37  1  0
 19 38  1  0
 25 39  1  0
M  END
>  <meeko>  (2) 
{"is_sidechain": [false], "free_energy": -3.776, "intermolecular_energy": -4.015, "internal_energy": -0.409}

$$$$
3b65_ligand
     RDKit          3D

 39 40  0  0  0  0  0  0  0  0999 V2000
   -3.1620   -6.1160   -1.6100 C   0  0  0  0  0  0  0  0  0  0  0  0
   -1.9090   -5.8940   -2.4580 C   0  0  2  0  0  0  0  0  0  0  0  0
   -1.3710   -4.6230   -2.0530 O   0  0  0  0  0  0  0  0  0  0  0  0
   -2.2020   -5.8510   -3.9720 C   0  0  0  0  0  0  0  0  0  0  0  0
   -1.1460   -5.1760   -4.6640 O   0  0  0  0  0  0  0  0  0  0  0  0
   -0.0280   -5.8990   -4.9710 C   0  0  0  0  0  0  0  0  0  0  0  0
    1.2150   -5.8020   -4.3430 C   0  0  0  0  0  0  0  0  0  0  0  0
    2.2780   -6.6100   -4.7610 C   0  0  0  0  0  0  0  0  0  0  0  0
    2.1070   -7.5190   -5.8090 C   0  0  0  0  0  0  0  0  0  0  0  0
    3.1980   -8.3460   -6.2330 C   0  0  0  0  0  0  0  0  0  0  0  0
    4.0830   -9.0170   -6.5700 N   0  0  0  0  0  0  0  0  0  0  0  0
    0.8650   -7.6160   -6.4400 C   0  0  0  0  0  0  0  0  0  0  0  0
   -0.1950   -6.8080   -6.0200 C   0  0  0  0  0  0  0  0  0  0  0  0
   -0.8390   -6.9870   -2.2000 C   0  0  0  0  0  0  0  0  0  0  0  0
   -0.0070   -6.8050   -1.3100 O   0  0  0  0  0  0  0  0  0  0  0  0
   -0.8900   -8.0780   -3.0500 N   0  0  0  0  0  0  0  0  0  0  0  0
   -0.0280   -9.1970   -3.0640 C   0  0  0  0  0  0  0  0  0  0  0  0
    0.2840   -9.7390   -4.3160 C   0  0  0  0  0  0  0  0  0  0  0  0
    1.1310  -10.8480   -4.4240 C   0  0  0  0  0  0  0  0  0  0  0  0
    1.6840  -11.4360   -3.2790 C   0  0  0  0  0  0  0  0  0  0  0  0
    2.5460  -12.5700   -3.4500 C   0  0  0  0  0  0  0  0  0  0  0  0
    3.2400  -13.4840   -3.6260 N   0  0  0  0  0  0  0  0  0  0  0  0
    1.3730  -10.8970   -2.0260 C   0  0  0  0  0  0  0  0  0  0  0  0
    2.1380  -11.6870   -0.2340 I   0  0  0  0  0  0  0  0  0  0  0  0
    0.5210   -9.7830   -1.9220 C   0  0  0  0  0  0  0  0  0  0  0  0
   -2.8961   -6.0689   -0.5436 H   0  0  0  0  0  0  0  0  0  0  0  0
   -3.9023   -5.3350   -1.8382 H   0  0  0  0  0  0  0  0  0  0  0  0
   -3.5889   -7.1038   -1.8382 H   0  0  0  0  0  0  0  0  0  0  0  0
   -1.3710   -4.0540   -2.8510 H   0  0  0  0  0  0  0  0  0  0  0  0
   -2.2873   -6.8789   -4.3543 H   0  0  0  0  0  0  0  0  0  0  0  0
   -3.1436   -5.3073   -4.1387 H   0  0  0  0  0  0  0  0  0  0  0  0
    1.3590   -5.0889   -3.5179 H   0  0  0  0  0  0  0  0  0  0  0  0
    3.2548   -6.5294   -4.2616 H   0  0  0  0  0  0  0  0  0  0  0  0
    0.7212   -8.3275   -7.2665 H   0  0  0  0  0  0  0  0  0  0  0  0
   -1.1714   -6.8881   -6.5202 H   0  0  0  0  0  0  0  0  0  0  0  0
   -1.6440   -8.1040   -3.7250 H   0  0  0  0  0  0  0  0  0  0  0  0
   -0.1411   -9.2885   -5.2251 H   0  0  0  0  0  0  0  0  0  0  0  0
    1.3644  -11.2614   -5.4163 H   0  0  0  0  0  0  0  0  0  0  0  0
    0.2847   -9.3691   -0.9306 H   0  0  0  0  0  0  0  0  0  0  0  0
  1  2  1  0
  2  3  1  1
  2  4  1  0
  4  5  1  0
  5  6  1  0
  6  7  2  0
  7  8  1  0
  8  9  2  0
  9 10  1  0
 10 11  3  0
  9 12  1  0
 12 13  2  0
  2 14  1  0
 14 15  2  0
 14 16  1  0
 16 17  1  0
 17 18  2  0
 18 19  1  0
 19 20  2  0
 20 21  1  0
 21 22  3  0
 20 23  1  0
 23 24  1  0
 23 25  2  0
 13  6  1  0
 25 17  1  0
  1 26  1  0
  1 27  1  0
  1 28  1  0
  3 29  1  0
  4 30  1  0
  4 31  1  0
  7 32  1  0
  8 33  1  0
 12 34  1  0
 13 35  1  0
 16 36  1  0
 18 37  1  0
 19 38  1  0
 25 39  1  0
M  END
>  <meeko>  (3) 
{"is_sidechain": [false], "free_energy": -3.152, "intermolecular_energy": -3.99, "internal_energy": 0.391}

$$$$
3b65_ligand
     RDKit          3D

 39 40  0  0  0  0  0  0  0  0999 V2000
    0.9400  -13.5520   -3.1840 C   0  0  0  0  0  0  0  0  0  0  0  0
    1.6610  -12.3290   -3.7520 C   0  0  2  0  0  0  0  0  0  0  0  0
    1.6220  -12.4720   -5.1840 O   0  0  0  0  0  0  0  0  0  0  0  0
    3.1330  -12.2300   -3.3010 C   0  0  0  0  0  0  0  0  0  0  0  0
    3.9210  -11.5950   -4.3140 O   0  0  0  0  0  0  0  0  0  0  0  0
    3.6700  -10.2790   -4.5790 C   0  0  0  0  0  0  0  0  0  0  0  0
    3.5780   -9.2520   -3.6380 C   0  0  0  0  0  0  0  0  0  0  0  0
    3.3170   -7.9410   -4.0520 C   0  0  0  0  0  0  0  0  0  0  0  0
    3.1450   -7.6480   -5.4090 C   0  0  0  0  0  0  0  0  0  0  0  0
    2.8800   -6.3040   -5.8290 C   0  0  0  0  0  0  0  0  0  0  0  0
    2.6690   -5.2130   -6.1650 N   0  0  0  0  0  0  0  0  0  0  0  0
    3.2350   -8.6740   -6.3510 C   0  0  0  0  0  0  0  0  0  0  0  0
    3.4960   -9.9820   -5.9340 C   0  0  0  0  0  0  0  0  0  0  0  0
    0.9440  -11.0080   -3.3700 C   0  0  0  0  0  0  0  0  0  0  0  0
    0.7190  -10.7770   -2.1820 O   0  0  0  0  0  0  0  0  0  0  0  0
    0.5700  -10.2080   -4.4370 N   0  0  0  0  0  0  0  0  0  0  0  0
   -0.1170   -8.9750   -4.3860 C   0  0  0  0  0  0  0  0  0  0  0  0
   -0.4260   -8.3720   -5.6110 C   0  0  0  0  0  0  0  0  0  0  0  0
   -1.1060   -7.1500   -5.6550 C   0  0  0  0  0  0  0  0  0  0  0  0
   -1.4930   -6.5080   -4.4720 C   0  0  0  0  0  0  0  0  0  0  0  0
   -2.1890   -5.2570   -4.5770 C   0  0  0  0  0  0  0  0  0  0  0  0
   -2.7520   -4.2500   -4.7010 N   0  0  0  0  0  0  0  0  0  0  0  0
   -1.1860   -7.1080   -3.2460 C   0  0  0  0  0  0  0  0  0  0  0  0
   -1.7120   -6.2450   -1.4020 I   0  0  0  0  0  0  0  0  0  0  0  0
   -0.5020   -8.3360   -3.2060 C   0  0  0  0  0  0  0  0  0  0  0  0
    0.9628  -13.5134   -2.0849 H   0  0  0  0  0  0  0  0  0  0  0  0
   -0.1044  -13.5551   -3.5292 H   0  0  0  0  0  0  0  0  0  0  0  0
    1.4430  -14.4673   -3.5292 H   0  0  0  0  0  0  0  0  0  0  0  0
    2.5330  -12.3050   -5.5040 H   0  0  0  0  0  0  0  0  0  0  0  0
    3.1898  -11.6403   -2.3741 H   0  0  0  0  0  0  0  0  0  0  0  0
    3.5231  -13.2437   -3.1269 H   0  0  0  0  0  0  0  0  0  0  0  0
    3.7109   -9.4737   -2.5688 H   0  0  0  0  0  0  0  0  0  0  0  0
    3.2467   -7.1359   -3.3058 H   0  0  0  0  0  0  0  0  0  0  0  0
    3.1007   -8.4533   -7.4202 H   0  0  0  0  0  0  0  0  0  0  0  0
    3.5653  -10.7871   -6.6804 H   0  0  0  0  0  0  0  0  0  0  0  0
    0.8410  -10.5150   -5.3630 H   0  0  0  0  0  0  0  0  0  0  0  0
   -0.1309   -8.8644   -6.5494 H   0  0  0  0  0  0  0  0  0  0  0  0
   -1.3385   -6.6898   -6.6267 H   0  0  0  0  0  0  0  0  0  0  0  0
   -0.2680   -8.7977   -2.2354 H   0  0  0  0  0  0  0  0  0  0  0  0
  1  2  1  0
  2  3  1  6
  2  4  1  0
  4  5  1  0
  5  6  1  0
  6  7  2  0
  7  8  1  0
  8  9  2  0
  9 10  1  0
 10 11  3  0
  9 12  1  0
 12 13  2  0
  2 14  1  0
 14 15  2  0
 14 16  1  0
 16 17  1  0
 17 18  2  0
 18 19  1  0
 19 20  2  0
 20 21  1  0
 21 22  3  0
 20 23  1  0
 23 24  1  0
 23 25  2  0
 13  6  1  0
 25 17  1  0
  1 26  1  0
  1 27  1  0
  1 28  1  0
  3 29  1  0
  4 30  1  0
  4 31  1  0
  7 32  1  0
  8 33  1  0
 12 34  1  0
 13 35  1  0
 16 36  1  0
 18 37  1  0
 19 38  1  0
 25 39  1  0
M  END
>  <meeko>  (4) 
{"is_sidechain": [false], "free_energy": -2.708, "intermolecular_energy": -3.384, "internal_energy": 0.373}

$$$$
3b65_ligand
     RDKit          3D

 39 40  0  0  0  0  0  0  0  0999 V2000
   -3.6390   -5.3990   -3.9440 C   0  0  0  0  0  0  0  0  0  0  0  0
   -2.1930   -5.4590   -4.4380 C   0  0  2  0  0  0  0  0  0  0  0  0
   -1.7400   -4.0960   -4.5170 O   0  0  0  0  0  0  0  0  0  0  0  0
   -2.0540   -6.1110   -5.8290 C   0  0  0  0  0  0  0  0  0  0  0  0
   -0.8000   -5.7570   -6.4210 O   0  0  0  0  0  0  0  0  0  0  0  0
    0.2900   -6.5120   -6.0930 C   0  0  0  0  0  0  0  0  0  0  0  0
    0.4780   -7.8620   -6.3950 C   0  0  0  0  0  0  0  0  0  0  0  0
    1.6520   -8.5130   -5.9970 C   0  0  0  0  0  0  0  0  0  0  0  0
    2.6440   -7.8200   -5.2950 C   0  0  0  0  0  0  0  0  0  0  0  0
    3.8440   -8.4900   -4.8920 C   0  0  0  0  0  0  0  0  0  0  0  0
    4.8170   -9.0350   -4.5710 N   0  0  0  0  0  0  0  0  0  0  0  0
    2.4560   -6.4700   -4.9920 C   0  0  0  0  0  0  0  0  0  0  0  0
    1.2830   -5.8230   -5.3900 C   0  0  0  0  0  0  0  0  0  0  0  0
   -1.2780   -6.2260   -3.4470 C   0  0  0  0  0  0  0  0  0  0  0  0
   -0.7820   -5.6130   -2.5020 O   0  0  0  0  0  0  0  0  0  0  0  0
   -1.0590   -7.5580   -3.7540 N   0  0  0  0  0  0  0  0  0  0  0  0
   -0.2520   -8.4800   -3.0510 C   0  0  0  0  0  0  0  0  0  0  0  0
    0.1930   -8.0910   -1.7820 C   0  0  0  0  0  0  0  0  0  0  0  0
    0.9960   -8.9420   -1.0150 C   0  0  0  0  0  0  0  0  0  0  0  0
    1.3680  -10.2020   -1.5020 C   0  0  0  0  0  0  0  0  0  0  0  0
    2.1920  -11.0330   -0.6720 C   0  0  0  0  0  0  0  0  0  0  0  0
    2.8550  -11.6780    0.0290 N   0  0  0  0  0  0  0  0  0  0  0  0
    0.9240  -10.5930   -2.7700 C   0  0  0  0  0  0  0  0  0  0  0  0
    1.4120  -12.4570   -3.6130 I   0  0  0  0  0  0  0  0  0  0  0  0
    0.1180   -9.7350   -3.5380 C   0  0  0  0  0  0  0  0  0  0  0  0
   -3.6510   -5.3985   -2.8441 H   0  0  0  0  0  0  0  0  0  0  0  0
   -4.1158   -4.4803   -4.3163 H   0  0  0  0  0  0  0  0  0  0  0  0
   -4.1903   -6.2750   -4.3163 H   0  0  0  0  0  0  0  0  0  0  0  0
   -1.0270   -4.0790   -5.1880 H   0  0  0  0  0  0  0  0  0  0  0  0
   -2.1099   -7.2046   -5.7243 H   0  0  0  0  0  0  0  0  0  0  0  0
   -2.8685   -5.7519   -6.4752 H   0  0  0  0  0  0  0  0  0  0  0  0
   -0.2970   -8.4148   -6.9462 H   0  0  0  0  0  0  0  0  0  0  0  0
    1.7953   -9.5767   -6.2380 H   0  0  0  0  0  0  0  0  0  0  0  0
    3.2303   -5.9164   -4.4407 H   0  0  0  0  0  0  0  0  0  0  0  0
    1.1393   -4.7597   -5.1475 H   0  0  0  0  0  0  0  0  0  0  0  0
   -1.5510   -7.9360   -4.5540 H   0  0  0  0  0  0  0  0  0  0  0  0
   -0.0917   -7.1059   -1.3837 H   0  0  0  0  0  0  0  0  0  0  0  0
    1.3384   -8.6190   -0.0208 H   0  0  0  0  0  0  0  0  0  0  0  0
   -0.2247  -10.0556   -4.5329 H   0  0  0  0  0  0  0  0  0  0  0  0
  1  2  1  0
  2  3  1  6
  2  4  1  0
  4  5  1  0
  5  6  1  0
  6  7  2  0
  7  8  1  0
  8  9  2  0
  9 10  1  0
 10 11  3  0
  9 12  1  0
 12 13  2  0
  2 14  1  0
 14 15  2  0
 14 16  1  0
 16 17  1  0
 17 18  2  0
 18 19  1  0
 19 20  2  0
 20 21  1  0
 21 22  3  0
 20 23  1  0
 23 24  1  0
 23 25  2  0
 13  6  1  0
 25 17  1  0
  1 26  1  0
  1 27  1  0
  1 28  1  0
  3 29  1  0
  4 30  1  0
  4 31  1  0
  7 32  1  0
  8 33  1  0
 12 34  1  0
 13 35  1  0
 16 36  1  0
 18 37  1  0
 19 38  1  0
 25 39  1  0
M  END
>  <meeko>  (5) 
{"is_sidechain": [false], "free_energy": -2.212, "intermolecular_energy": -3.233, "internal_energy": 0.876}

$$$$
3b65_ligand
     RDKit          3D

 39 40  0  0  0  0  0  0  0  0999 V2000
    2.7160  -10.6110   -0.9970 C   0  0  0  0  0  0  0  0  0  0  0  0
    1.5800  -11.4290   -1.6130 C   0  0  2  0  0  0  0  0  0  0  0  0
    0.9880  -12.1690   -0.5300 O   0  0  0  0  0  0  0  0  0  0  0  0
    2.0630  -12.4220   -2.6900 C   0  0  0  0  0  0  0  0  0  0  0  0
    3.2050  -11.8970   -3.3750 O   0  0  0  0  0  0  0  0  0  0  0  0
    3.0470  -10.7290   -4.0640 C   0  0  0  0  0  0  0  0  0  0  0  0
    2.1440  -10.5010   -5.1040 C   0  0  0  0  0  0  0  0  0  0  0  0
    2.0860   -9.2460   -5.7220 C   0  0  0  0  0  0  0  0  0  0  0  0
    2.9310   -8.2120   -5.3050 C   0  0  0  0  0  0  0  0  0  0  0  0
    2.8680   -6.9290   -5.9400 C   0  0  0  0  0  0  0  0  0  0  0  0
    2.8100   -5.8890   -6.4530 N   0  0  0  0  0  0  0  0  0  0  0  0
    3.8360   -8.4390   -4.2660 C   0  0  0  0  0  0  0  0  0  0  0  0
    3.8900   -9.6930   -3.6520 C   0  0  0  0  0  0  0  0  0  0  0  0
    0.4920  -10.5200   -2.2410 C   0  0  0  0  0  0  0  0  0  0  0  0
   -0.4840  -11.0450   -2.7760 O   0  0  0  0  0  0  0  0  0  0  0  0
    0.7500   -9.1600   -2.1820 N   0  0  0  0  0  0  0  0  0  0  0  0
   -0.0450   -8.1130   -2.6950 C   0  0  0  0  0  0  0  0  0  0  0  0
   -0.6490   -7.2610   -1.7630 C   0  0  0  0  0  0  0  0  0  0  0  0
   -1.4530   -6.1960   -2.1830 C   0  0  0  0  0  0  0  0  0  0  0  0
   -1.6680   -5.9600   -3.5460 C   0  0  0  0  0  0  0  0  0  0  0  0
   -2.5000   -4.8520   -3.9190 C   0  0  0  0  0  0  0  0  0  0  0  0
   -3.1760   -3.9460   -4.1830 N   0  0  0  0  0  0  0  0  0  0  0  0
   -1.0650   -6.8090   -4.4810 C   0  0  0  0  0  0  0  0  0  0  0  0
   -1.3080   -6.5600   -6.5550 I   0  0  0  0  0  0  0  0  0  0  0  0
   -0.2580   -7.8790   -4.0560 C   0  0  0  0  0  0  0  0  0  0  0  0
    2.6494  -10.6590    0.0999 H   0  0  0  0  0  0  0  0  0  0  0  0
    3.6827  -11.0217   -1.3239 H   0  0  0  0  0  0  0  0  0  0  0  0
    2.6330   -9.5640   -1.3239 H   0  0  0  0  0  0  0  0  0  0  0  0
    1.2510  -13.1040   -0.6570 H   0  0  0  0  0  0  0  0  0  0  0  0
    2.3339  -13.3740   -2.2101 H   0  0  0  0  0  0  0  0  0  0  0  0
    1.2531  -12.5827   -3.4168 H   0  0  0  0  0  0  0  0  0  0  0  0
    1.4767  -11.3090   -5.4386 H   0  0  0  0  0  0  0  0  0  0  0  0
    1.3718   -9.0720   -6.5403 H   0  0  0  0  0  0  0  0  0  0  0  0
    4.5049   -7.6323   -3.9316 H   0  0  0  0  0  0  0  0  0  0  0  0
    4.6048   -9.8670   -2.8342 H   0  0  0  0  0  0  0  0  0  0  0  0
    1.5860   -8.8690   -1.6900 H   0  0  0  0  0  0  0  0  0  0  0  0
   -0.4896   -7.4308   -0.6879 H   0  0  0  0  0  0  0  0  0  0  0  0
   -1.9204   -5.5381   -1.4355 H   0  0  0  0  0  0  0  0  0  0  0  0
    0.2101   -8.5381   -4.8019 H   0  0  0  0  0  0  0  0  0  0  0  0
  1  2  1  0
  2  3  1  1
  2  4  1  0
  4  5  1  0
  5  6  1  0
  6  7  2  0
  7  8  1  0
  8  9  2  0
  9 10  1  0
 10 11  3  0
  9 12  1  0
 12 13  2  0
  2 14  1  0
 14 15  2  0
 14 16  1  0
 16 17  1  0
 17 18  2  0
 18 19  1  0
 19 20  2  0
 20 21  1  0
 21 22  3  0
 20 23  1  0
 23 24  1  0
 23 25  2  0
 13  6  1  0
 25 17  1  0
  1 26  1  0
  1 27  1  0
  1 28  1  0
  3 29  1  0
  4 30  1  0
  4 31  1  0
  7 32  1  0
  8 33  1  0
 12 34  1  0
 13 35  1  0
 16 36  1  0
 18 37  1  0
 19 38  1  0
 25 39  1  0
M  END
>  <meeko>  (6) 
{"is_sidechain": [false], "free_energy": -2.198, "intermolecular_energy": -2.583, "internal_energy": 0.245}

$$$$
3b65_ligand
     RDKit          3D

 39 40  0  0  0  0  0  0  0  0999 V2000
    2.2810  -13.6430   -5.0280 C   0  0  0  0  0  0  0  0  0  0  0  0
    2.6550  -12.7020   -3.8820 C   0  0  2  0  0  0  0  0  0  0  0  0
    3.9620  -13.1100   -3.4390 O   0  0  0  0  0  0  0  0  0  0  0  0
    1.6780  -12.7810   -2.6900 C   0  0  0  0  0  0  0  0  0  0  0  0
    1.9440  -11.7260   -1.7600 O   0  0  0  0  0  0  0  0  0  0  0  0
    1.0990  -10.6520   -1.7640 C   0  0  0  0  0  0  0  0  0  0  0  0
   -0.2840  -10.6930   -1.9530 C   0  0  0  0  0  0  0  0  0  0  0  0
   -1.0300   -9.5090   -1.9290 C   0  0  0  0  0  0  0  0  0  0  0  0
   -0.4010   -8.2780   -1.7180 C   0  0  0  0  0  0  0  0  0  0  0  0
   -1.1700   -7.0690   -1.6930 C   0  0  0  0  0  0  0  0  0  0  0  0
   -1.7960   -6.0930   -1.6690 N   0  0  0  0  0  0  0  0  0  0  0  0
    0.9820   -8.2360   -1.5300 C   0  0  0  0  0  0  0  0  0  0  0  0
    1.7250   -9.4200   -1.5540 C   0  0  0  0  0  0  0  0  0  0  0  0
    2.7330  -11.2260   -4.3510 C   0  0  0  0  0  0  0  0  0  0  0  0
    3.8280  -10.6650   -4.3680 O   0  0  0  0  0  0  0  0  0  0  0  0
    1.5190  -10.6430   -4.6740 N   0  0  0  0  0  0  0  0  0  0  0  0
    1.2900   -9.3160   -5.0990 C   0  0  0  0  0  0  0  0  0  0  0  0
    2.4070   -8.5820   -5.5120 C   0  0  0  0  0  0  0  0  0  0  0  0
    2.2730   -7.2590   -5.9490 C   0  0  0  0  0  0  0  0  0  0  0  0
    1.0140   -6.6450   -5.9840 C   0  0  0  0  0  0  0  0  0  0  0  0
    0.9360   -5.2880   -6.4420 C   0  0  0  0  0  0  0  0  0  0  0  0
    0.9110   -4.1910   -6.8210 N   0  0  0  0  0  0  0  0  0  0  0  0
   -0.1050   -7.3760   -5.5710 C   0  0  0  0  0  0  0  0  0  0  0  0
   -2.0470   -6.5690   -5.5760 I   0  0  0  0  0  0  0  0  0  0  0  0
    0.0340   -8.7040   -5.1320 C   0  0  0  0  0  0  0  0  0  0  0  0
    1.9043  -14.5908   -4.6161 H   0  0  0  0  0  0  0  0  0  0  0  0
    1.5002  -13.1758   -5.6461 H   0  0  0  0  0  0  0  0  0  0  0  0
    3.1695  -13.8392   -5.6461 H   0  0  0  0  0  0  0  0  0  0  0  0
    3.8860  -14.0530   -3.1830 H   0  0  0  0  0  0  0  0  0  0  0  0
    0.6461  -12.6876   -3.0595 H   0  0  0  0  0  0  0  0  0  0  0  0
    1.8099  -13.7478   -2.1822 H   0  0  0  0  0  0  0  0  0  0  0  0
   -0.7875  -11.6565   -2.1209 H   0  0  0  0  0  0  0  0  0  0  0  0
   -2.1193   -9.5471   -2.0772 H   0  0  0  0  0  0  0  0  0  0  0  0
    1.4862   -7.2727   -1.3632 H   0  0  0  0  0  0  0  0  0  0  0  0
    2.8143   -9.3816   -1.4060 H   0  0  0  0  0  0  0  0  0  0  0  0
    0.6970  -11.2330   -4.6350 H   0  0  0  0  0  0  0  0  0  0  0  0
    3.4023   -9.0500   -5.4931 H   0  0  0  0  0  0  0  0  0  0  0  0
    3.1632   -6.6968   -6.2675 H   0  0  0  0  0  0  0  0  0  0  0  0
   -0.8547   -9.2673   -4.8112 H   0  0  0  0  0  0  0  0  0  0  0  0
  1  2  1  0
  2  3  1  1
  2  4  1  0
  4  5  1  0
  5  6  1  0
  6  7  2  0
  7  8  1  0
  8  9  2  0
  9 10  1  0
 10 11  3  0
  9 12  1  0
 12 13  2  0
  2 14  1  0
 14 15  2  0
 14 16  1  0
 16 17  1  0
 17 18  2  0
 18 19  1  0
 19 20  2  0
 20 21  1  0
 21 22  3  0
 20 23  1  0
 23 24  1  0
 23 25  2  0
 13  6  1  0
 25 17  1  0
  1 26  1  0
  1 27  1  0
  1 28  1  0
  3 29  1  0
  4 30  1  0
  4 31  1  0
  7 32  1  0
  8 33  1  0
 12 34  1  0
 13 35  1  0
 16 36  1  0
 18 37  1  0
 19 38  1  0
 25 39  1  0
M  END
>  <meeko>  (7) 
{"is_sidechain": [false], "free_energy": -1.537, "intermolecular_energy": -1.336, "internal_energy": -0.128}

$$$$
