
     RDKit          3D

 29 31  0  0  0  0  0  0  0  0999 V2000
   -2.2900   -5.3350  -13.2660 N   0  0  0  0  0  0  0  0  0  0  0  0
   -1.6540   -4.7650  -12.2830 C   0  0  0  0  0  0  0  0  0  0  0  0
   -1.7800   -5.2630  -11.0530 N   0  0  0  0  0  0  0  0  0  0  0  0
   -0.8150   -3.5610  -12.4860 C   0  0  0  0  0  0  0  0  0  0  0  0
   -0.3990   -3.1990  -13.7760 C   0  0  0  0  0  0  0  0  0  0  0  0
    0.3930   -2.0550  -13.9630 C   0  0  0  0  0  0  0  0  0  0  0  0
    0.7710   -1.2870  -12.8590 C   0  0  0  0  0  0  0  0  0  0  0  0
    1.6440   -0.0730  -13.0370 C   0  0  0  0  0  0  0  0  0  0  0  0
    3.0520   -0.4590  -13.1370 N   0  0  0  0  0  0  0  0  0  0  0  0
    3.7340   -0.3560  -14.3130 C   0  0  0  0  0  0  0  0  0  0  0  0
    3.1850    0.0230  -15.3440 O   0  0  0  0  0  0  0  0  0  0  0  0
    5.1760   -0.8130  -14.3300 C   0  0  2  0  0  0  0  0  0  0  0  0
    6.1190    0.3780  -14.5070 C   0  0  0  0  0  0  0  0  0  0  0  0
    7.1110   -0.0530  -15.5330 C   0  0  0  0  0  0  0  0  0  0  0  0
    6.4200   -1.0680  -16.3910 C   0  0  0  0  0  0  0  0  0  0  0  0
    5.3920   -1.6370  -15.5190 N   0  0  0  0  0  0  0  0  0  0  0  0
    4.6360   -2.7380  -15.7380 C   0  0  0  0  0  0  0  0  0  0  0  0
    3.8010   -3.0860  -14.9210 O   0  0  0  0  0  0  0  0  0  0  0  0
    4.8090   -3.5500  -17.0120 C   0  0  2  0  0  0  0  0  0  0  0  0
    3.4810   -3.9120  -17.5390 N   0  0  0  0  0  0  0  0  0  0  0  0
    5.6170   -4.8520  -16.7320 C   0  0  0  0  0  0  0  0  0  0  0  0
    7.0400   -4.6090  -16.2540 C   0  0  0  0  0  0  0  0  0  0  0  0
    7.3890   -4.9600  -14.9470 C   0  0  0  0  0  0  0  0  0  0  0  0
    8.6800   -4.7300  -14.4620 C   0  0  0  0  0  0  0  0  0  0  0  0
    9.6350   -4.1330  -15.2940 C   0  0  0  0  0  0  0  0  0  0  0  0
    9.3230   -3.7860  -16.6120 C   0  0  0  0  0  0  0  0  0  0  0  0
    8.0090   -4.0450  -17.0930 C   0  0  0  0  0  0  0  0  0  0  0  0
    0.3530   -1.6510  -11.5870 C   0  0  0  0  0  0  0  0  0  0  0  0
   -0.4350   -2.7860  -11.3800 C   0  0  0  0  0  0  0  0  0  0  0  0
  2  1  2  0
  3  2  1  0
  4  2  1  0
  5  4  2  0
  6  5  1  0
  7  6  2  0
  8  7  1  0
  9  8  1  0
 10  9  1  0
 11 10  2  0
 12 10  1  6
 13 12  1  0
 14 13  1  0
 15 14  1  0
 16 12  1  0
 16 15  1  0
 17 16  1  0
 18 17  2  0
 19 17  1  0
 19 20  1  1
 21 19  1  0
 22 21  1  0
 23 22  2  0
 24 23  1  0
 25 24  2  0
 26 25  1  0
 27 26  2  0
 27 22  1  0
 28  7  1  0
 29 28  2  0
 29  4  1  0
M  CHG  2   1   1  20   1
M  END
$$$$
