
     RDKit          3D

 16 18  0  0  0  0  0  0  0  0999 V2000
  -15.8970   -2.3640    5.3920 N   0  0  0  0  0  0  0  0  0  0  0  0
  -14.5320   -2.4150    5.1960 C   0  0  0  0  0  0  0  0  0  0  0  0
  -14.0150   -2.5760    3.8890 C   0  0  0  0  0  0  0  0  0  0  0  0
  -12.6440   -2.6380    3.6810 C   0  0  0  0  0  0  0  0  0  0  0  0
  -11.7490   -2.5320    4.7640 C   0  0  0  0  0  0  0  0  0  0  0  0
  -10.3480   -2.5830    4.5710 C   0  0  0  0  0  0  0  0  0  0  0  0
   -9.4740   -2.4700    5.6850 C   0  0  0  0  0  0  0  0  0  0  0  0
   -8.0850   -2.5100    5.5510 C   0  0  0  0  0  0  0  0  0  0  0  0
   -7.2530   -2.3970    6.6640 C   0  0  0  0  0  0  0  0  0  0  0  0
   -7.8120   -2.2380    7.9570 C   0  0  0  0  0  0  0  0  0  0  0  0
   -6.9960   -2.1260    9.0630 N   0  0  0  0  0  0  0  0  0  0  0  0
   -9.2060   -2.1880    8.1160 C   0  0  0  0  0  0  0  0  0  0  0  0
  -10.0480   -2.3050    6.9830 C   0  0  0  0  0  0  0  0  0  0  0  0
  -11.4180   -2.2600    7.1590 N   0  0  0  0  0  0  0  0  0  0  0  0
  -12.2560   -2.3670    6.0690 C   0  0  0  0  0  0  0  0  0  0  0  0
  -13.6550   -2.3040    6.2800 C   0  0  0  0  0  0  0  0  0  0  0  0
  2  1  1  0
  3  2  2  0
  4  3  1  0
  5  4  2  0
  6  5  1  0
  7  6  2  0
  8  7  1  0
  9  8  2  0
 10  9  1  0
 11 10  1  0
 12 10  2  0
 13 12  1  0
 13  7  1  0
 14 13  2  0
 15  5  1  0
 15 14  1  0
 16  2  1  0
 16 15  2  0
M  CHG  1  14   1
M  END
$$$$
