2wn9_ligand
     RDKit          3D

 41 43  0  0  0  0  0  0  0  0999 V2000
    9.1840   26.2090    7.7860 C   0  0  0  0  0  0  0  0  0  0  0  0
    8.9500   26.2580    9.1900 O   0  0  0  0  0  0  0  0  0  0  0  0
    7.7960   25.6740    9.6520 C   0  0  0  0  0  0  0  0  0  0  0  0
    6.6130   25.5530    8.9150 C   0  0  0  0  0  0  0  0  0  0  0  0
    5.5070   24.9230    9.4850 C   0  0  0  0  0  0  0  0  0  0  0  0
    4.3360   24.7820    8.8010 O   0  0  0  0  0  0  0  0  0  0  0  0
    5.5550   24.4110   10.7750 C   0  0  0  0  0  0  0  0  0  0  0  0
    6.7280   24.5240   11.5190 C   0  0  0  0  0  0  0  0  0  0  0  0
    7.8520   25.1510   10.9610 C   0  0  0  0  0  0  0  0  0  0  0  0
    9.0800   25.2520   11.7640 C   0  0  0  0  0  0  0  0  0  0  0  0
   10.2290   24.6160   11.4650 C   0  0  0  0  0  0  0  0  0  0  0  0
   10.4170   23.7240   10.2560 C   0  0  0  0  0  0  0  0  0  0  0  0
   11.7990   23.9380    9.6430 C   0  0  0  0  0  0  0  0  0  0  0  0
   12.8930   23.6700   10.6620 C   0  0  0  0  0  0  0  0  0  0  0  0
   12.6100   24.3990   11.9180 N   0  0  0  0  0  0  0  0  0  0  0  0
   11.4550   24.8260   12.3070 C   0  0  0  0  0  0  0  0  0  0  0  0
   11.3510   25.5120   13.6040 C   0  0  0  0  0  0  0  0  0  0  0  0
   11.8670   26.7970   13.7710 C   0  0  0  0  0  0  0  0  0  0  0  0
   11.7130   27.4240   15.0060 C   0  0  0  0  0  0  0  0  0  0  0  0
   11.0450   26.7430   16.0130 C   0  0  0  0  0  0  0  0  0  0  0  0
   10.5340   25.4990   15.8650 N   0  0  0  0  0  0  0  0  0  0  0  0
   10.7070   24.8980   14.6710 C   0  0  0  0  0  0  0  0  0  0  0  0
   10.2449   25.9868    7.5986 H   0  0  0  0  0  0  0  0  0  0  0  0
    8.5598   25.4221    7.3375 H   0  0  0  0  0  0  0  0  0  0  0  0
    8.9280   27.1802    7.3375 H   0  0  0  0  0  0  0  0  0  0  0  0
    6.5555   25.9525    7.8917 H   0  0  0  0  0  0  0  0  0  0  0  0
    4.4110   25.2080    7.9310 H   0  0  0  0  0  0  0  0  0  0  0  0
    4.6715   23.9187   11.2074 H   0  0  0  0  0  0  0  0  0  0  0  0
    6.7724   24.1222   12.5420 H   0  0  0  0  0  0  0  0  0  0  0  0
    9.0588   25.8853   12.6632 H   0  0  0  0  0  0  0  0  0  0  0  0
   10.3160   22.6725   10.5628 H   0  0  0  0  0  0  0  0  0  0  0  0
    9.6525   23.9755    9.5061 H   0  0  0  0  0  0  0  0  0  0  0  0
   11.9249   23.2533    8.7914 H   0  0  0  0  0  0  0  0  0  0  0  0
   11.8774   24.9838    9.3110 H   0  0  0  0  0  0  0  0  0  0  0  0
   12.9391   22.5909   10.8705 H   0  0  0  0  0  0  0  0  0  0  0  0
   13.8551   24.0150   10.2553 H   0  0  0  0  0  0  0  0  0  0  0  0
   13.4160   24.5390   12.5390 H   0  0  0  0  0  0  0  0  0  0  0  0
   12.3851   27.3053   12.9445 H   0  0  0  0  0  0  0  0  0  0  0  0
   12.1116   28.4347   15.1781 H   0  0  0  0  0  0  0  0  0  0  0  0
   10.9240   27.2420   16.9858 H   0  0  0  0  0  0  0  0  0  0  0  0
   10.3214   23.8767   14.5354 H   0  0  0  0  0  0  0  0  0  0  0  0
  1  2  1  0
  2  3  1  0
  3  4  2  0
  4  5  1  0
  5  6  1  0
  5  7  2  0
  7  8  1  0
  8  9  2  0
  9 10  1  0
 10 11  2  0
 11 12  1  0
 12 13  1  0
 13 14  1  0
 14 15  1  0
 15 16  2  0
 16 17  1  0
 17 18  2  0
 18 19  1  0
 19 20  2  0
 20 21  1  0
 21 22  2  0
  9  3  1  0
 16 11  1  0
 22 17  1  0
  1 23  1  0
  1 24  1  0
  1 25  1  0
  4 26  1  0
  6 27  1  0
  7 28  1  0
  8 29  1  0
 10 30  1  0
 12 31  1  0
 12 32  1  0
 13 33  1  0
 13 34  1  0
 14 35  1  0
 14 36  1  0
 15 37  1  0
 18 38  1  0
 19 39  1  0
 20 40  1  0
 22 41  1  0
M  CHG  1  15   1
M  END
>  <meeko>  (1) 
{"is_sidechain": [false], "free_energy": -8.074, "intermolecular_energy": -9.726, "internal_energy": -0.176}

$$$$
2wn9_ligand
     RDKit          3D

 41 43  0  0  0  0  0  0  0  0999 V2000
   11.5740   26.7670   14.7140 C   0  0  0  0  0  0  0  0  0  0  0  0
   11.3860   25.5220   14.0490 O   0  0  0  0  0  0  0  0  0  0  0  0
   10.2930   24.7760   14.4180 C   0  0  0  0  0  0  0  0  0  0  0  0
    9.7970   24.6790   15.7230 C   0  0  0  0  0  0  0  0  0  0  0  0
    8.6670   23.9020   15.9750 C   0  0  0  0  0  0  0  0  0  0  0  0
    8.1500   23.7810   17.2300 O   0  0  0  0  0  0  0  0  0  0  0  0
    8.0200   23.2190   14.9520 C   0  0  0  0  0  0  0  0  0  0  0  0
    8.5030   23.3090   13.6490 C   0  0  0  0  0  0  0  0  0  0  0  0
    9.6360   24.0890   13.3760 C   0  0  0  0  0  0  0  0  0  0  0  0
   10.1230   24.1730   11.9900 C   0  0  0  0  0  0  0  0  0  0  0  0
    9.3830   24.6200   10.9580 C   0  0  0  0  0  0  0  0  0  0  0  0
    7.9560   25.1120   11.0860 C   0  0  0  0  0  0  0  0  0  0  0  0
    7.7270   26.3290   10.1940 C   0  0  0  0  0  0  0  0  0  0  0  0
    8.0380   26.0060    8.7420 C   0  0  0  0  0  0  0  0  0  0  0  0
    9.3610   25.3520    8.6370 N   0  0  0  0  0  0  0  0  0  0  0  0
    9.9810   24.7310    9.5850 C   0  0  0  0  0  0  0  0  0  0  0  0
   11.2840   24.1130    9.2960 C   0  0  0  0  0  0  0  0  0  0  0  0
   11.3630   22.7870    8.8720 C   0  0  0  0  0  0  0  0  0  0  0  0
   12.6160   22.2550    8.5730 C   0  0  0  0  0  0  0  0  0  0  0  0
   13.7290   23.0720    8.7040 C   0  0  0  0  0  0  0  0  0  0  0  0
   13.6680   24.3620    9.1090 N   0  0  0  0  0  0  0  0  0  0  0  0
   12.4520   24.8570    9.4120 C   0  0  0  0  0  0  0  0  0  0  0  0
   11.5501   26.6087   15.8023 H   0  0  0  0  0  0  0  0  0  0  0  0
   12.5466   27.1929   14.4267 H   0  0  0  0  0  0  0  0  0  0  0  0
   10.7705   27.4611   14.4267 H   0  0  0  0  0  0  0  0  0  0  0  0
   10.2958   25.2128   16.5454 H   0  0  0  0  0  0  0  0  0  0  0  0
    8.7230   24.2410   17.8660 H   0  0  0  0  0  0  0  0  0  0  0  0
    7.1304   22.6101   15.1706 H   0  0  0  0  0  0  0  0  0  0  0  0
    7.9967   22.7692   12.8352 H   0  0  0  0  0  0  0  0  0  0  0  0
   11.1545   23.8509   11.7846 H   0  0  0  0  0  0  0  0  0  0  0  0
    7.2679   24.3083   10.7851 H   0  0  0  0  0  0  0  0  0  0  0  0
    7.7714   25.3983   12.1319 H   0  0  0  0  0  0  0  0  0  0  0  0
    6.6757   26.6422   10.2757 H   0  0  0  0  0  0  0  0  0  0  0  0
    8.3965   27.1368   10.5245 H   0  0  0  0  0  0  0  0  0  0  0  0
    7.2658   25.3297    8.3466 H   0  0  0  0  0  0  0  0  0  0  0  0
    8.0518   26.9400    8.1611 H   0  0  0  0  0  0  0  0  0  0  0  0
    9.7940   25.3780    7.7070 H   0  0  0  0  0  0  0  0  0  0  0  0
   10.4551   22.1735    8.7755 H   0  0  0  0  0  0  0  0  0  0  0  0
   12.7197   21.2115    8.2409 H   0  0  0  0  0  0  0  0  0  0  0  0
   14.7157   22.6482    8.4656 H   0  0  0  0  0  0  0  0  0  0  0  0
   12.3807   25.8958    9.7668 H   0  0  0  0  0  0  0  0  0  0  0  0
  1  2  1  0
  2  3  1  0
  3  4  2  0
  4  5  1  0
  5  6  1  0
  5  7  2  0
  7  8  1  0
  8  9  2  0
  9 10  1  0
 10 11  2  0
 11 12  1  0
 12 13  1  0
 13 14  1  0
 14 15  1  0
 15 16  2  0
 16 17  1  0
 17 18  2  0
 18 19  1  0
 19 20  2  0
 20 21  1  0
 21 22  2  0
  9  3  1  0
 16 11  1  0
 22 17  1  0
  1 23  1  0
  1 24  1  0
  1 25  1  0
  4 26  1  0
  6 27  1  0
  7 28  1  0
  8 29  1  0
 10 30  1  0
 12 31  1  0
 12 32  1  0
 13 33  1  0
 13 34  1  0
 14 35  1  0
 14 36  1  0
 15 37  1  0
 18 38  1  0
 19 39  1  0
 20 40  1  0
 22 41  1  0
M  CHG  1  15   1
M  END
>  <meeko>  (2) 
{"is_sidechain": [false], "free_energy": -7.926, "intermolecular_energy": -9.24, "internal_energy": -0.485}

$$$$
2wn9_ligand
     RDKit          3D

 41 43  0  0  0  0  0  0  0  0999 V2000
   13.9360   26.1590   10.6760 C   0  0  0  0  0  0  0  0  0  0  0  0
   12.8210   25.3760   10.2620 O   0  0  0  0  0  0  0  0  0  0  0  0
   13.0900   24.2260    9.5610 C   0  0  0  0  0  0  0  0  0  0  0  0
   14.3320   23.5810    9.5330 C   0  0  0  0  0  0  0  0  0  0  0  0
   14.4820   22.4070    8.7970 C   0  0  0  0  0  0  0  0  0  0  0  0
   15.6730   21.7460    8.7440 O   0  0  0  0  0  0  0  0  0  0  0  0
   13.4200   21.8600    8.0880 C   0  0  0  0  0  0  0  0  0  0  0  0
   12.1790   22.4910    8.1090 C   0  0  0  0  0  0  0  0  0  0  0  0
   12.0070   23.6720    8.8470 C   0  0  0  0  0  0  0  0  0  0  0  0
   10.6850   24.3160    8.8590 C   0  0  0  0  0  0  0  0  0  0  0  0
   10.3560   25.3730    8.0920 C   0  0  0  0  0  0  0  0  0  0  0  0
   11.2960   26.0320    7.1040 C   0  0  0  0  0  0  0  0  0  0  0  0
   10.5480   26.4230    5.8330 C   0  0  0  0  0  0  0  0  0  0  0  0
    9.3890   27.3540    6.1480 C   0  0  0  0  0  0  0  0  0  0  0  0
    8.5720   26.7970    7.2480 N   0  0  0  0  0  0  0  0  0  0  0  0
    8.9620   25.9300    8.1230 C   0  0  0  0  0  0  0  0  0  0  0  0
    8.0190   25.5030    9.1690 C   0  0  0  0  0  0  0  0  0  0  0  0
    6.6730   25.2990    8.8710 C   0  0  0  0  0  0  0  0  0  0  0  0
    5.8230   24.8590    9.8840 C   0  0  0  0  0  0  0  0  0  0  0  0
    6.3590   24.6360   11.1440 C   0  0  0  0  0  0  0  0  0  0  0  0
    7.6640   24.8240   11.4470 N   0  0  0  0  0  0  0  0  0  0  0  0
    8.4690   25.2680   10.4620 C   0  0  0  0  0  0  0  0  0  0  0  0
   13.9764   26.1873   11.7749 H   0  0  0  0  0  0  0  0  0  0  0  0
   14.8626   25.7122   10.2865 H   0  0  0  0  0  0  0  0  0  0  0  0
   13.8303   27.1823   10.2865 H   0  0  0  0  0  0  0  0  0  0  0  0
   15.1847   23.9983   10.0887 H   0  0  0  0  0  0  0  0  0  0  0  0
   15.8730   21.3610    9.6130 H   0  0  0  0  0  0  0  0  0  0  0  0
   13.5588   20.9328    7.5127 H   0  0  0  0  0  0  0  0  0  0  0  0
   11.3346   22.0643    7.5478 H   0  0  0  0  0  0  0  0  0  0  0  0
    9.9185   23.9098    9.5354 H   0  0  0  0  0  0  0  0  0  0  0  0
   11.7278   26.9342    7.5618 H   0  0  0  0  0  0  0  0  0  0  0  0
   12.0931   25.3204    6.8427 H   0  0  0  0  0  0  0  0  0  0  0  0
   11.2428   26.9322    5.1489 H   0  0  0  0  0  0  0  0  0  0  0  0
   10.1479   25.5105    5.3669 H   0  0  0  0  0  0  0  0  0  0  0  0
    9.7829   28.3359    6.4490 H   0  0  0  0  0  0  0  0  0  0  0  0
    8.7601   27.4608    5.2518 H   0  0  0  0  0  0  0  0  0  0  0  0
    7.6190   27.1720    7.3240 H   0  0  0  0  0  0  0  0  0  0  0  0
    6.2891   25.4816    7.8565 H   0  0  0  0  0  0  0  0  0  0  0  0
    4.7532   24.6926    9.6893 H   0  0  0  0  0  0  0  0  0  0  0  0
    5.6857   24.2870   11.9408 H   0  0  0  0  0  0  0  0  0  0  0  0
    9.5288   25.4524   10.6918 H   0  0  0  0  0  0  0  0  0  0  0  0
  1  2  1  0
  2  3  1  0
  3  4  2  0
  4  5  1  0
  5  6  1  0
  5  7  2  0
  7  8  1  0
  8  9  2  0
  9 10  1  0
 10 11  2  0
 11 12  1  0
 12 13  1  0
 13 14  1  0
 14 15  1  0
 15 16  2  0
 16 17  1  0
 17 18  2  0
 18 19  1  0
 19 20  2  0
 20 21  1  0
 21 22  2  0
  9  3  1  0
 16 11  1  0
 22 17  1  0
  1 23  1  0
  1 24  1  0
  1 25  1  0
  4 26  1  0
  6 27  1  0
  7 28  1  0
  8 29  1  0
 10 30  1  0
 12 31  1  0
 12 32  1  0
 13 33  1  0
 13 34  1  0
 14 35  1  0
 14 36  1  0
 15 37  1  0
 18 38  1  0
 19 39  1  0
 20 40  1  0
 22 41  1  0
M  CHG  1  15   1
M  END
>  <meeko>  (3) 
{"is_sidechain": [false], "free_energy": -7.74, "intermolecular_energy": -9.422, "internal_energy": -0.078}

$$$$
2wn9_ligand
     RDKit          3D

 41 43  0  0  0  0  0  0  0  0999 V2000
    8.5540   24.8880    6.9870 C   0  0  0  0  0  0  0  0  0  0  0  0
    8.7120   25.6440    8.1830 O   0  0  0  0  0  0  0  0  0  0  0  0
    7.8540   25.3620    9.2190 C   0  0  0  0  0  0  0  0  0  0  0  0
    6.4810   25.6280    9.2110 C   0  0  0  0  0  0  0  0  0  0  0  0
    5.7050   25.2810   10.3170 C   0  0  0  0  0  0  0  0  0  0  0  0
    4.3640   25.5190   10.3500 O   0  0  0  0  0  0  0  0  0  0  0  0
    6.2710   24.6750   11.4320 C   0  0  0  0  0  0  0  0  0  0  0  0
    7.6370   24.4040   11.4510 C   0  0  0  0  0  0  0  0  0  0  0  0
    8.4320   24.7420   10.3460 C   0  0  0  0  0  0  0  0  0  0  0  0
    9.8720   24.4400   10.3890 C   0  0  0  0  0  0  0  0  0  0  0  0
   10.7630   25.1250   11.1310 C   0  0  0  0  0  0  0  0  0  0  0  0
   10.4020   26.2860   12.0340 C   0  0  0  0  0  0  0  0  0  0  0  0
   11.2040   26.2240   13.3320 C   0  0  0  0  0  0  0  0  0  0  0  0
   12.6960   26.2270   13.0510 C   0  0  0  0  0  0  0  0  0  0  0  0
   13.0250   25.2130   12.0250 N   0  0  0  0  0  0  0  0  0  0  0  0
   12.2050   24.7090   11.1630 C   0  0  0  0  0  0  0  0  0  0  0  0
   12.7110   23.7250   10.1930 C   0  0  0  0  0  0  0  0  0  0  0  0
   11.9200   22.6450    9.8000 C   0  0  0  0  0  0  0  0  0  0  0  0
   12.4250   21.7580    8.8510 C   0  0  0  0  0  0  0  0  0  0  0  0
   13.6900   21.9950    8.3330 C   0  0  0  0  0  0  0  0  0  0  0  0
   14.4660   23.0400    8.7010 N   0  0  0  0  0  0  0  0  0  0  0  0
   13.9730   23.8790    9.6330 C   0  0  0  0  0  0  0  0  0  0  0  0
    8.3351   23.8405    7.2416 H   0  0  0  0  0  0  0  0  0  0  0  0
    7.7233   25.3034    6.3977 H   0  0  0  0  0  0  0  0  0  0  0  0
    9.4816   24.9360    6.3977 H   0  0  0  0  0  0  0  0  0  0  0  0
    6.0157   26.1081    8.3375 H   0  0  0  0  0  0  0  0  0  0  0  0
    4.2020   26.4580   10.5430 H   0  0  0  0  0  0  0  0  0  0  0  0
    5.6431   24.4105   12.2956 H   0  0  0  0  0  0  0  0  0  0  0  0
    8.0916   23.9257   12.3311 H   0  0  0  0  0  0  0  0  0  0  0  0
   10.2429   23.6040    9.7779 H   0  0  0  0  0  0  0  0  0  0  0  0
   10.6246   27.2304   11.5158 H   0  0  0  0  0  0  0  0  0  0  0  0
    9.3303   26.2290   12.2751 H   0  0  0  0  0  0  0  0  0  0  0  0
   10.9530   27.0974   13.9519 H   0  0  0  0  0  0  0  0  0  0  0  0
   10.9484   25.2920   13.8574 H   0  0  0  0  0  0  0  0  0  0  0  0
   12.9954   27.2214   12.6882 H   0  0  0  0  0  0  0  0  0  0  0  0
   13.2363   25.9872   13.9787 H   0  0  0  0  0  0  0  0  0  0  0  0
   14.0080   24.9200   11.9910 H   0  0  0  0  0  0  0  0  0  0  0  0
   10.9186   22.4967   10.2302 H   0  0  0  0  0  0  0  0  0  0  0  0
   11.8346   20.8907    8.5206 H   0  0  0  0  0  0  0  0  0  0  0  0
   14.0836   21.2946    7.5817 H   0  0  0  0  0  0  0  0  0  0  0  0
   14.5967   24.7222    9.9647 H   0  0  0  0  0  0  0  0  0  0  0  0
  1  2  1  0
  2  3  1  0
  3  4  2  0
  4  5  1  0
  5  6  1  0
  5  7  2  0
  7  8  1  0
  8  9  2  0
  9 10  1  0
 10 11  2  0
 11 12  1  0
 12 13  1  0
 13 14  1  0
 14 15  1  0
 15 16  2  0
 16 17  1  0
 17 18  2  0
 18 19  1  0
 19 20  2  0
 20 21  1  0
 21 22  2  0
  9  3  1  0
 16 11  1  0
 22 17  1  0
  1 23  1  0
  1 24  1  0
  1 25  1  0
  4 26  1  0
  6 27  1  0
  7 28  1  0
  8 29  1  0
 10 30  1  0
 12 31  1  0
 12 32  1  0
 13 33  1  0
 13 34  1  0
 14 35  1  0
 14 36  1  0
 15 37  1  0
 18 38  1  0
 19 39  1  0
 20 40  1  0
 22 41  1  0
M  CHG  1  15   1
M  END
>  <meeko>  (4) 
{"is_sidechain": [false], "free_energy": -7.67, "intermolecular_energy": -9.416, "internal_energy": 0.0}

$$$$
2wn9_ligand
     RDKit          3D

 41 43  0  0  0  0  0  0  0  0999 V2000
   13.7580   26.1460   10.9860 C   0  0  0  0  0  0  0  0  0  0  0  0
   12.9440   25.0040   11.2330 O   0  0  0  0  0  0  0  0  0  0  0  0
   13.0050   23.9830   10.3160 C   0  0  0  0  0  0  0  0  0  0  0  0
   14.1580   23.6060    9.6180 C   0  0  0  0  0  0  0  0  0  0  0  0
   14.1030   22.5390    8.7220 C   0  0  0  0  0  0  0  0  0  0  0  0
   15.2020   22.1380    8.0230 O   0  0  0  0  0  0  0  0  0  0  0  0
   12.9230   21.8390    8.5080 C   0  0  0  0  0  0  0  0  0  0  0  0
   11.7700   22.2030    9.1990 C   0  0  0  0  0  0  0  0  0  0  0  0
   11.8060   23.2710   10.1060 C   0  0  0  0  0  0  0  0  0  0  0  0
   10.5760   23.6320   10.8280 C   0  0  0  0  0  0  0  0  0  0  0  0
    9.6950   24.5550   10.3980 C   0  0  0  0  0  0  0  0  0  0  0  0
    9.8420   25.3340    9.1070 C   0  0  0  0  0  0  0  0  0  0  0  0
    8.4880   25.4920    8.4210 C   0  0  0  0  0  0  0  0  0  0  0  0
    7.4910   26.1840    9.3350 C   0  0  0  0  0  0  0  0  0  0  0  0
    7.4830   25.5350   10.6640 N   0  0  0  0  0  0  0  0  0  0  0  0
    8.4320   24.8170   11.1680 C   0  0  0  0  0  0  0  0  0  0  0  0
    8.2660   24.2670   12.5220 C   0  0  0  0  0  0  0  0  0  0  0  0
    7.0980   23.5930   12.8750 C   0  0  0  0  0  0  0  0  0  0  0  0
    6.9980   23.0560   14.1570 C   0  0  0  0  0  0  0  0  0  0  0  0
    8.0710   23.2100   15.0230 C   0  0  0  0  0  0  0  0  0  0  0  0
    9.2120   23.8580   14.6930 N   0  0  0  0  0  0  0  0  0  0  0  0
    9.2870   24.3880   13.4560 C   0  0  0  0  0  0  0  0  0  0  0  0
   14.0720   26.5865   11.9438 H   0  0  0  0  0  0  0  0  0  0  0  0
   14.6468   25.8455   10.4117 H   0  0  0  0  0  0  0  0  0  0  0  0
   13.1840   26.8881   10.4117 H   0  0  0  0  0  0  0  0  0  0  0  0
   15.1021   24.1482    9.7753 H   0  0  0  0  0  0  0  0  0  0  0  0
   15.1740   21.1760    7.8930 H   0  0  0  0  0  0  0  0  0  0  0  0
   12.8991   21.0009    7.7960 H   0  0  0  0  0  0  0  0  0  0  0  0
   10.8320   21.6529    9.0332 H   0  0  0  0  0  0  0  0  0  0  0  0
   10.3633   23.1168   11.7763 H   0  0  0  0  0  0  0  0  0  0  0  0
   10.2533   26.3296    9.3298 H   0  0  0  0  0  0  0  0  0  0  0  0
   10.5191   24.7855    8.4357 H   0  0  0  0  0  0  0  0  0  0  0  0
    8.6154   26.0921    7.5079 H   0  0  0  0  0  0  0  0  0  0  0  0
    8.1016   24.4920    8.1747 H   0  0  0  0  0  0  0  0  0  0  0  0
    7.7741   27.2409    9.4481 H   0  0  0  0  0  0  0  0  0  0  0  0
    6.4865   26.1104    8.8928 H   0  0  0  0  0  0  0  0  0  0  0  0
    6.6500   25.7120   11.2380 H   0  0  0  0  0  0  0  0  0  0  0  0
    6.2721   23.4872   12.1562 H   0  0  0  0  0  0  0  0  0  0  0  0
    6.0899   22.5227   14.4748 H   0  0  0  0  0  0  0  0  0  0  0  0
    7.9896   22.7819   16.0330 H   0  0  0  0  0  0  0  0  0  0  0  0
   10.1957   24.9400   13.1740 H   0  0  0  0  0  0  0  0  0  0  0  0
  1  2  1  0
  2  3  1  0
  3  4  2  0
  4  5  1  0
  5  6  1  0
  5  7  2  0
  7  8  1  0
  8  9  2  0
  9 10  1  0
 10 11  2  0
 11 12  1  0
 12 13  1  0
 13 14  1  0
 14 15  1  0
 15 16  2  0
 16 17  1  0
 17 18  2  0
 18 19  1  0
 19 20  2  0
 20 21  1  0
 21 22  2  0
  9  3  1  0
 16 11  1  0
 22 17  1  0
  1 23  1  0
  1 24  1  0
  1 25  1  0
  4 26  1  0
  6 27  1  0
  7 28  1  0
  8 29  1  0
 10 30  1  0
 12 31  1  0
 12 32  1  0
 13 33  1  0
 13 34  1  0
 14 35  1  0
 14 36  1  0
 15 37  1  0
 18 38  1  0
 19 39  1  0
 20 40  1  0
 22 41  1  0
M  CHG  1  15   1
M  END
>  <meeko>  (5) 
{"is_sidechain": [false], "free_energy": -7.614, "intermolecular_energy": -9.01, "internal_energy": -0.339}

$$$$
2wn9_ligand
     RDKit          3D

 41 43  0  0  0  0  0  0  0  0999 V2000
   13.8620   26.0200   11.3620 C   0  0  0  0  0  0  0  0  0  0  0  0
   12.9300   25.6830   10.3400 O   0  0  0  0  0  0  0  0  0  0  0  0
   13.0790   24.4570    9.7370 C   0  0  0  0  0  0  0  0  0  0  0  0
   14.2670   23.9880    9.1670 C   0  0  0  0  0  0  0  0  0  0  0  0
   14.3030   22.7160    8.5970 C   0  0  0  0  0  0  0  0  0  0  0  0
   15.4400   22.2190    8.0320 O   0  0  0  0  0  0  0  0  0  0  0  0
   13.1790   21.9010    8.5840 C   0  0  0  0  0  0  0  0  0  0  0  0
   11.9900   22.3550    9.1500 C   0  0  0  0  0  0  0  0  0  0  0  0
   11.9360   23.6300    9.7310 C   0  0  0  0  0  0  0  0  0  0  0  0
   10.6700   24.0850   10.3280 C   0  0  0  0  0  0  0  0  0  0  0  0
   10.3850   24.0010   11.6420 C   0  0  0  0  0  0  0  0  0  0  0  0
   11.3330   23.4430   12.6840 C   0  0  0  0  0  0  0  0  0  0  0  0
   11.2640   24.2680   13.9660 C   0  0  0  0  0  0  0  0  0  0  0  0
    9.8490   24.3030   14.5160 C   0  0  0  0  0  0  0  0  0  0  0  0
    8.8950   24.6700   13.4460 N   0  0  0  0  0  0  0  0  0  0  0  0
    9.0920   24.5480   12.1750 C   0  0  0  0  0  0  0  0  0  0  0  0
    8.0190   24.9400   11.2490 C   0  0  0  0  0  0  0  0  0  0  0  0
    6.7420   24.3910   11.3690 C   0  0  0  0  0  0  0  0  0  0  0  0
    5.7460   24.8190   10.4930 C   0  0  0  0  0  0  0  0  0  0  0  0
    6.0680   25.7790    9.5460 C   0  0  0  0  0  0  0  0  0  0  0  0
    7.3000   26.3250    9.4210 N   0  0  0  0  0  0  0  0  0  0  0  0
    8.2580   25.8880   10.2620 C   0  0  0  0  0  0  0  0  0  0  0  0
   13.4019   25.8536   12.3472 H   0  0  0  0  0  0  0  0  0  0  0  0
   14.7575   25.3888   11.2642 H   0  0  0  0  0  0  0  0  0  0  0  0
   14.1467   27.0780   11.2642 H   0  0  0  0  0  0  0  0  0  0  0  0
   15.1679   24.6191    9.1684 H   0  0  0  0  0  0  0  0  0  0  0  0
   16.1800   22.8280    8.1950 H   0  0  0  0  0  0  0  0  0  0  0  0
   13.2273   20.9009    8.1286 H   0  0  0  0  0  0  0  0  0  0  0  0
   11.0955   21.7148    9.1412 H   0  0  0  0  0  0  0  0  0  0  0  0
    9.9109   24.5198    9.6612 H   0  0  0  0  0  0  0  0  0  0  0  0
   11.0536   22.4028   12.9075 H   0  0  0  0  0  0  0  0  0  0  0  0
   12.3590   23.4838   12.2896 H   0  0  0  0  0  0  0  0  0  0  0  0
   11.9310   23.8208   14.7177 H   0  0  0  0  0  0  0  0  0  0  0  0
   11.5762   25.2976   13.7370 H   0  0  0  0  0  0  0  0  0  0  0  0
    9.5878   23.3102   14.9111 H   0  0  0  0  0  0  0  0  0  0  0  0
    9.7940   25.0526   15.3192 H   0  0  0  0  0  0  0  0  0  0  0  0
    7.9850   25.0210   13.7670 H   0  0  0  0  0  0  0  0  0  0  0  0
    6.5257   23.6359   12.1391 H   0  0  0  0  0  0  0  0  0  0  0  0
    4.7286   24.4049   10.5516 H   0  0  0  0  0  0  0  0  0  0  0  0
    5.2784   26.1155    8.8581 H   0  0  0  0  0  0  0  0  0  0  0  0
    9.2732   26.2997   10.1627 H   0  0  0  0  0  0  0  0  0  0  0  0
  1  2  1  0
  2  3  1  0
  3  4  2  0
  4  5  1  0
  5  6  1  0
  5  7  2  0
  7  8  1  0
  8  9  2  0
  9 10  1  0
 10 11  2  0
 11 12  1  0
 12 13  1  0
 13 14  1  0
 14 15  1  0
 15 16  2  0
 16 17  1  0
 17 18  2  0
 18 19  1  0
 19 20  2  0
 20 21  1  0
 21 22  2  0
  9  3  1  0
 16 11  1  0
 22 17  1  0
  1 23  1  0
  1 24  1  0
  1 25  1  0
  4 26  1  0
  6 27  1  0
  7 28  1  0
  8 29  1  0
 10 30  1  0
 12 31  1  0
 12 32  1  0
 13 33  1  0
 13 34  1  0
 14 35  1  0
 14 36  1  0
 15 37  1  0
 18 38  1  0
 19 39  1  0
 20 40  1  0
 22 41  1  0
M  CHG  1  15   1
M  END
>  <meeko>  (6) 
{"is_sidechain": [false], "free_energy": -7.608, "intermolecular_energy": -9.019, "internal_energy": -0.322}

$$$$
2wn9_ligand
     RDKit          3D

 41 43  0  0  0  0  0  0  0  0999 V2000
    7.8620   22.6360   14.0750 C   0  0  0  0  0  0  0  0  0  0  0  0
    9.1950   22.9690   13.7020 O   0  0  0  0  0  0  0  0  0  0  0  0
    9.7650   24.0560   14.3200 C   0  0  0  0  0  0  0  0  0  0  0  0
    9.5960   24.3850   15.6700 C   0  0  0  0  0  0  0  0  0  0  0  0
   10.2390   25.5060   16.1920 C   0  0  0  0  0  0  0  0  0  0  0  0
   10.1040   25.8610   17.5010 O   0  0  0  0  0  0  0  0  0  0  0  0
   11.0490   26.3080   15.3960 C   0  0  0  0  0  0  0  0  0  0  0  0
   11.2260   25.9900   14.0520 C   0  0  0  0  0  0  0  0  0  0  0  0
   10.5900   24.8640   13.5100 C   0  0  0  0  0  0  0  0  0  0  0  0
   10.7980   24.5460   12.0880 C   0  0  0  0  0  0  0  0  0  0  0  0
    9.8690   24.7360   11.1310 C   0  0  0  0  0  0  0  0  0  0  0  0
    8.4940   25.3170   11.3850 C   0  0  0  0  0  0  0  0  0  0  0  0
    8.0940   26.2590   10.2520 C   0  0  0  0  0  0  0  0  0  0  0  0
    8.1160   25.5420    8.9140 C   0  0  0  0  0  0  0  0  0  0  0  0
    9.3950   24.8160    8.7460 N   0  0  0  0  0  0  0  0  0  0  0  0
   10.1890   24.4410    9.6940 C   0  0  0  0  0  0  0  0  0  0  0  0
   11.4120   23.7020    9.3460 C   0  0  0  0  0  0  0  0  0  0  0  0
   11.3710   22.3260    9.1250 C   0  0  0  0  0  0  0  0  0  0  0  0
   12.5470   21.6730    8.7620 C   0  0  0  0  0  0  0  0  0  0  0  0
   13.7050   22.4240    8.6270 C   0  0  0  0  0  0  0  0  0  0  0  0
   13.7590   23.7610    8.8320 N   0  0  0  0  0  0  0  0  0  0  0  0
   12.6190   24.3760    9.2020 C   0  0  0  0  0  0  0  0  0  0  0  0
    7.7823   22.6161   15.1719 H   0  0  0  0  0  0  0  0  0  0  0  0
    7.1692   23.3887   13.6706 H   0  0  0  0  0  0  0  0  0  0  0  0
    7.6046   21.6459   13.6706 H   0  0  0  0  0  0  0  0  0  0  0  0
    8.9592   23.7622   16.3154 H   0  0  0  0  0  0  0  0  0  0  0  0
   10.9540   25.7500   17.9600 H   0  0  0  0  0  0  0  0  0  0  0  0
   11.5475   27.1893   15.8258 H   0  0  0  0  0  0  0  0  0  0  0  0
   11.8640   26.6214   13.4162 H   0  0  0  0  0  0  0  0  0  0  0  0
   11.7705   24.1281   11.7887 H   0  0  0  0  0  0  0  0  0  0  0  0
    7.7618   24.4988   11.4510 H   0  0  0  0  0  0  0  0  0  0  0  0
    8.5157   25.8834   12.3277 H   0  0  0  0  0  0  0  0  0  0  0  0
    7.0785   26.6374   10.4405 H   0  0  0  0  0  0  0  0  0  0  0  0
    8.8145   27.0894   10.2162 H   0  0  0  0  0  0  0  0  0  0  0  0
    7.2827   24.8252    8.8718 H   0  0  0  0  0  0  0  0  0  0  0  0
    8.0143   26.2828    8.1072 H   0  0  0  0  0  0  0  0  0  0  0  0
    9.6390   24.5680    7.7800 H   0  0  0  0  0  0  0  0  0  0  0  0
   10.4297   21.7675    9.2350 H   0  0  0  0  0  0  0  0  0  0  0  0
   12.5567   20.5871    8.5866 H   0  0  0  0  0  0  0  0  0  0  0  0
   14.6305   21.9047    8.3374 H   0  0  0  0  0  0  0  0  0  0  0  0
   12.6445   25.4580    9.3986 H   0  0  0  0  0  0  0  0  0  0  0  0
  1  2  1  0
  2  3  1  0
  3  4  2  0
  4  5  1  0
  5  6  1  0
  5  7  2  0
  7  8  1  0
  8  9  2  0
  9 10  1  0
 10 11  2  0
 11 12  1  0
 12 13  1  0
 13 14  1  0
 14 15  1  0
 15 16  2  0
 16 17  1  0
 17 18  2  0
 18 19  1  0
 19 20  2  0
 20 21  1  0
 21 22  2  0
  9  3  1  0
 16 11  1  0
 22 17  1  0
  1 23  1  0
  1 24  1  0
  1 25  1  0
  4 26  1  0
  6 27  1  0
  7 28  1  0
  8 29  1  0
 10 30  1  0
 12 31  1  0
 12 32  1  0
 13 33  1  0
 13 34  1  0
 14 35  1  0
 14 36  1  0
 15 37  1  0
 18 38  1  0
 19 39  1  0
 20 40  1  0
 22 41  1  0
M  CHG  1  15   1
M  END
>  <meeko>  (7) 
{"is_sidechain": [false], "free_energy": -7.502, "intermolecular_energy": -8.701, "internal_energy": -0.512}

$$$$
2wn9_ligand
     RDKit          3D

 41 43  0  0  0  0  0  0  0  0999 V2000
    7.5920   22.5110    4.5120 C   0  0  0  0  0  0  0  0  0  0  0  0
    7.9880   23.4860    5.4720 O   0  0  0  0  0  0  0  0  0  0  0  0
    8.0950   24.7850    5.0370 C   0  0  0  0  0  0  0  0  0  0  0  0
    7.4670   25.2980    3.8970 C   0  0  0  0  0  0  0  0  0  0  0  0
    7.6360   26.6410    3.5620 C   0  0  0  0  0  0  0  0  0  0  0  0
    7.0400   27.1820    2.4620 O   0  0  0  0  0  0  0  0  0  0  0  0
    8.4190   27.4840    4.3410 C   0  0  0  0  0  0  0  0  0  0  0  0
    9.0480   26.9850    5.4790 C   0  0  0  0  0  0  0  0  0  0  0  0
    8.8860   25.6390    5.8340 C   0  0  0  0  0  0  0  0  0  0  0  0
    9.5560   25.1370    7.0440 C   0  0  0  0  0  0  0  0  0  0  0  0
    9.1040   25.3450    8.2950 C   0  0  0  0  0  0  0  0  0  0  0  0
    7.8370   26.1080    8.6260 C   0  0  0  0  0  0  0  0  0  0  0  0
    7.0910   25.4340    9.7740 C   0  0  0  0  0  0  0  0  0  0  0  0
    7.9710   25.3280   11.0070 C   0  0  0  0  0  0  0  0  0  0  0  0
    9.2850   24.7510   10.6480 N   0  0  0  0  0  0  0  0  0  0  0  0
    9.8180   24.7440    9.4710 C   0  0  0  0  0  0  0  0  0  0  0  0
   11.1510   24.1470    9.2990 C   0  0  0  0  0  0  0  0  0  0  0  0
   11.2880   22.8140    8.9150 C   0  0  0  0  0  0  0  0  0  0  0  0
   12.5700   22.3000    8.7270 C   0  0  0  0  0  0  0  0  0  0  0  0
   13.6540   23.1430    8.9230 C   0  0  0  0  0  0  0  0  0  0  0  0
   13.5370   24.4410    9.2900 N   0  0  0  0  0  0  0  0  0  0  0  0
   12.2920   24.9180    9.4860 C   0  0  0  0  0  0  0  0  0  0  0  0
    7.2271   21.6125    5.0311 H   0  0  0  0  0  0  0  0  0  0  0  0
    6.7894   22.9218    3.8818 H   0  0  0  0  0  0  0  0  0  0  0  0
    8.4537   22.2458    3.8818 H   0  0  0  0  0  0  0  0  0  0  0  0
    6.8433   24.6455    3.2683 H   0  0  0  0  0  0  0  0  0  0  0  0
    6.1690   27.5370    2.7030 H   0  0  0  0  0  0  0  0  0  0  0  0
    8.5415   28.5405    4.0602 H   0  0  0  0  0  0  0  0  0  0  0  0
    9.6713   27.6467    6.0985 H   0  0  0  0  0  0  0  0  0  0  0  0
   10.4821   24.5567    6.9189 H   0  0  0  0  0  0  0  0  0  0  0  0
    8.0993   27.1354    8.9186 H   0  0  0  0  0  0  0  0  0  0  0  0
    7.1873   26.1203    7.7385 H   0  0  0  0  0  0  0  0  0  0  0  0
    6.1975   26.0268   10.0196 H   0  0  0  0  0  0  0  0  0  0  0  0
    6.8057   24.4195    9.4588 H   0  0  0  0  0  0  0  0  0  0  0  0
    8.1190   26.3304   11.4352 H   0  0  0  0  0  0  0  0  0  0  0  0
    7.4806   24.6741   11.7432 H   0  0  0  0  0  0  0  0  0  0  0  0
    9.8220   24.3540   11.4290 H   0  0  0  0  0  0  0  0  0  0  0  0
   10.4019   22.1802    8.7633 H   0  0  0  0  0  0  0  0  0  0  0  0
   12.7185   21.2512    8.4304 H   0  0  0  0  0  0  0  0  0  0  0  0
   14.6641   22.7345    8.7720 H   0  0  0  0  0  0  0  0  0  0  0  0
   12.1737   25.9631    9.8080 H   0  0  0  0  0  0  0  0  0  0  0  0
  1  2  1  0
  2  3  1  0
  3  4  2  0
  4  5  1  0
  5  6  1  0
  5  7  2  0
  7  8  1  0
  8  9  2  0
  9 10  1  0
 10 11  2  0
 11 12  1  0
 12 13  1  0
 13 14  1  0
 14 15  1  0
 15 16  2  0
 16 17  1  0
 17 18  2  0
 18 19  1  0
 19 20  2  0
 20 21  1  0
 21 22  2  0
  9  3  1  0
 16 11  1  0
 22 17  1  0
  1 23  1  0
  1 24  1  0
  1 25  1  0
  4 26  1  0
  6 27  1  0
  7 28  1  0
  8 29  1  0
 10 30  1  0
 12 31  1  0
 12 32  1  0
 13 33  1  0
 13 34  1  0
 14 35  1  0
 14 36  1  0
 15 37  1  0
 18 38  1  0
 19 39  1  0
 20 40  1  0
 22 41  1  0
M  CHG  1  15   1
M  END
>  <meeko>  (8) 
{"is_sidechain": [false], "free_energy": -7.411, "intermolecular_energy": -8.386, "internal_energy": -0.717}

$$$$
2wn9_ligand
     RDKit          3D

 41 43  0  0  0  0  0  0  0  0999 V2000
    8.9750   25.1110    6.7620 C   0  0  0  0  0  0  0  0  0  0  0  0
    9.1680   25.8680    7.9530 O   0  0  0  0  0  0  0  0  0  0  0  0
    8.4260   25.5050    9.0510 C   0  0  0  0  0  0  0  0  0  0  0  0
    7.0270   25.4670    9.0920 C   0  0  0  0  0  0  0  0  0  0  0  0
    6.3830   25.0660   10.2600 C   0  0  0  0  0  0  0  0  0  0  0  0
    5.0230   25.0120   10.3430 O   0  0  0  0  0  0  0  0  0  0  0  0
    7.1030   24.7000   11.3910 C   0  0  0  0  0  0  0  0  0  0  0  0
    8.4950   24.7320   11.3630 C   0  0  0  0  0  0  0  0  0  0  0  0
    9.1610   25.1300   10.1950 C   0  0  0  0  0  0  0  0  0  0  0  0
   10.6320   25.1490   10.1880 C   0  0  0  0  0  0  0  0  0  0  0  0
   11.3970   24.0900    9.8610 C   0  0  0  0  0  0  0  0  0  0  0  0
   10.8480   22.7420    9.4420 C   0  0  0  0  0  0  0  0  0  0  0  0
   11.6850   22.1520    8.3100 C   0  0  0  0  0  0  0  0  0  0  0  0
   13.1400   22.0150    8.7220 C   0  0  0  0  0  0  0  0  0  0  0  0
   13.6260   23.2850    9.3070 N   0  0  0  0  0  0  0  0  0  0  0  0
   12.8930   24.2160    9.8210 C   0  0  0  0  0  0  0  0  0  0  0  0
   13.5490   25.4070   10.3840 C   0  0  0  0  0  0  0  0  0  0  0  0
   13.2030   25.8740   11.6520 C   0  0  0  0  0  0  0  0  0  0  0  0
   13.8760   26.9820   12.1620 C   0  0  0  0  0  0  0  0  0  0  0  0
   14.8670   27.5670   11.3870 C   0  0  0  0  0  0  0  0  0  0  0  0
   15.2170   27.1220   10.1580 N   0  0  0  0  0  0  0  0  0  0  0  0
   14.5440   26.0610    9.6700 C   0  0  0  0  0  0  0  0  0  0  0  0
    8.7111   24.0758    7.0242 H   0  0  0  0  0  0  0  0  0  0  0  0
    8.1621   25.5582    6.1710 H   0  0  0  0  0  0  0  0  0  0  0  0
    9.9027   25.1144    6.1710 H   0  0  0  0  0  0  0  0  0  0  0  0
    6.4398   25.7523    8.2067 H   0  0  0  0  0  0  0  0  0  0  0  0
    4.6390   25.0590    9.4510 H   0  0  0  0  0  0  0  0  0  0  0  0
    6.5758   24.3865   12.3041 H   0  0  0  0  0  0  0  0  0  0  0  0
    9.0709   24.4456   12.2554 H   0  0  0  0  0  0  0  0  0  0  0  0
   11.1378   26.0852   10.4668 H   0  0  0  0  0  0  0  0  0  0  0  0
   10.8709   22.0583   10.3034 H   0  0  0  0  0  0  0  0  0  0  0  0
    9.8144   22.8730    9.0891 H   0  0  0  0  0  0  0  0  0  0  0  0
   11.2897   21.1588    8.0506 H   0  0  0  0  0  0  0  0  0  0  0  0
   11.6286   22.8280    7.4441 H   0  0  0  0  0  0  0  0  0  0  0  0
   13.2326   21.2121    9.4681 H   0  0  0  0  0  0  0  0  0  0  0  0
   13.7437   21.7736    7.8347 H   0  0  0  0  0  0  0  0  0  0  0  0
   14.6460   23.4000    9.3270 H   0  0  0  0  0  0  0  0  0  0  0  0
   12.4149   25.3776   12.2372 H   0  0  0  0  0  0  0  0  0  0  0  0
   13.6276   27.3835   13.1555 H   0  0  0  0  0  0  0  0  0  0  0  0
   15.3973   28.4406   11.7940 H   0  0  0  0  0  0  0  0  0  0  0  0
   14.7940   25.6975    8.6623 H   0  0  0  0  0  0  0  0  0  0  0  0
  1  2  1  0
  2  3  1  0
  3  4  2  0
  4  5  1  0
  5  6  1  0
  5  7  2  0
  7  8  1  0
  8  9  2  0
  9 10  1  0
 10 11  2  0
 11 12  1  0
 12 13  1  0
 13 14  1  0
 14 15  1  0
 15 16  2  0
 16 17  1  0
 17 18  2  0
 18 19  1  0
 19 20  2  0
 20 21  1  0
 21 22  2  0
  9  3  1  0
 16 11  1  0
 22 17  1  0
  1 23  1  0
  1 24  1  0
  1 25  1  0
  4 26  1  0
  6 27  1  0
  7 28  1  0
  8 29  1  0
 10 30  1  0
 12 31  1  0
 12 32  1  0
 13 33  1  0
 13 34  1  0
 14 35  1  0
 14 36  1  0
 15 37  1  0
 18 38  1  0
 19 39  1  0
 20 40  1  0
 22 41  1  0
M  CHG  1  15   1
M  END
>  <meeko>  (9) 
{"is_sidechain": [false], "free_energy": -7.376, "intermolecular_energy": -8.547, "internal_energy": -0.514}

$$$$
