3fv2_ligand
     RDKit          3D

 36 37  0  0  0  0  0  0  0  0999 V2000
  -11.0160   -2.2370   -8.6790 N   0  0  0  0  0  0  0  0  0  0  0  0
  -10.7770   -1.4150   -9.9280 C   0  0  1  0  0  0  0  0  0  0  0  0
   -9.2930   -1.4680  -10.3480 C   0  0  0  0  0  0  0  0  0  0  0  0
   -8.4290   -0.3080   -9.8350 C   0  0  2  0  0  0  0  0  0  0  0  0
   -7.6480   -0.8520   -8.5920 C   0  0  0  0  0  0  0  0  0  0  0  0
   -6.4190   -1.1040   -8.8330 O   0  0  0  0  0  0  0  0  0  0  0  0
   -8.3170   -1.0860   -7.5560 O   0  0  0  0  0  0  0  0  0  0  0  0
   -9.1890    0.9580   -9.4550 C   0  0  0  0  0  0  0  0  0  0  0  0
   -8.7490    2.0030  -10.4580 C   0  0  1  0  0  0  0  0  0  0  0  0
   -8.6010    3.2770   -9.8330 O   0  0  0  0  0  0  0  0  0  0  0  0
   -7.7150    4.1380  -10.5510 C   0  0  0  0  0  0  0  0  0  0  0  0
   -6.2730    3.5980  -10.5880 C   0  0  1  0  0  0  0  0  0  0  0  0
   -5.4970    4.1870   -9.5350 O   0  0  0  0  0  0  0  0  0  0  0  0
   -6.2060    2.0640  -10.4680 C   0  0  1  0  0  0  0  0  0  0  0  0
   -6.0220    1.7240   -9.0830 O   0  0  0  0  0  0  0  0  0  0  0  0
   -7.4710    1.4500  -11.0710 C   0  0  1  0  0  0  0  0  0  0  0  0
   -7.5080    0.0290  -10.9300 O   0  0  0  0  0  0  0  0  0  0  0  0
  -11.7600   -1.8800  -11.0500 C   0  0  0  0  0  0  0  0  0  0  0  0
  -12.7870   -1.1920  -11.2570 O   0  0  0  0  0  0  0  0  0  0  0  0
  -11.3260   -2.9310  -11.6310 O   0  0  0  0  0  0  0  0  0  0  0  0
  -10.1600   -2.3490   -8.0950 H   0  0  0  0  0  0  0  0  0  0  0  0
  -11.2800   -3.1900   -8.9530 H   0  0  0  0  0  0  0  0  0  0  0  0
  -11.8130   -1.7890   -8.1990 H   0  0  0  0  0  0  0  0  0  0  0  0
  -10.9888   -0.3544   -9.7275 H   0  0  0  0  0  0  0  0  0  0  0  0
   -8.8644   -2.4066   -9.9668 H   0  0  0  0  0  0  0  0  0  0  0  0
   -9.2827   -1.3954  -11.4456 H   0  0  0  0  0  0  0  0  0  0  0  0
  -10.2742    0.7912   -9.5230 H   0  0  0  0  0  0  0  0  0  0  0  0
   -8.9793    1.2678   -8.4206 H   0  0  0  0  0  0  0  0  0  0  0  0
   -9.4903    2.1856  -11.2500 H   0  0  0  0  0  0  0  0  0  0  0  0
   -8.0807    4.2396  -11.5834 H   0  0  0  0  0  0  0  0  0  0  0  0
   -7.6966    5.1080  -10.0325 H   0  0  0  0  0  0  0  0  0  0  0  0
   -5.8600    3.8737  -11.5695 H   0  0  0  0  0  0  0  0  0  0  0  0
   -5.9220    3.8430   -8.7160 H   0  0  0  0  0  0  0  0  0  0  0  0
   -5.3549    1.6533  -11.0311 H   0  0  0  0  0  0  0  0  0  0  0  0
   -6.9100    1.4850   -8.7190 H   0  0  0  0  0  0  0  0  0  0  0  0
   -7.4246    1.7233  -12.1355 H   0  0  0  0  0  0  0  0  0  0  0  0
  1  2  1  0
  2  3  1  0
  4  3  1  6
  4  5  1  0
  5  6  2  0
  5  7  1  0
  4  8  1  0
  8  9  1  0
  9 10  1  0
 10 11  1  0
 11 12  1  0
 12 13  1  0
 12 14  1  0
 14 15  1  0
 14 16  1  0
 16 17  1  0
  2 18  1  0
 18 19  2  0
 18 20  1  0
 17  4  1  0
 16  9  1  0
  1 21  1  0
  1 22  1  0
  1 23  1  0
  2 24  1  1
  3 25  1  0
  3 26  1  0
  8 27  1  0
  8 28  1  0
  9 29  1  6
 11 30  1  0
 11 31  1  0
 12 32  1  6
 13 33  1  0
 14 34  1  6
 15 35  1  0
 16 36  1  6
M  CHG  3   1   1   7  -1  20  -1
M  END
>  <meeko>  (1) 
{"is_sidechain": [false], "free_energy": -5.419, "intermolecular_energy": -7.162, "internal_energy": -0.908}

$$$$
3fv2_ligand
     RDKit          3D

 36 37  0  0  0  0  0  0  0  0999 V2000
   -5.5010    3.2020  -11.4160 N   0  0  0  0  0  0  0  0  0  0  0  0
   -6.7550    2.6650  -10.7590 C   0  0  1  0  0  0  0  0  0  0  0  0
   -6.4070    1.7780   -9.5460 C   0  0  0  0  0  0  0  0  0  0  0  0
   -7.2950    0.5390   -9.3690 C   0  0  2  0  0  0  0  0  0  0  0  0
   -6.4740   -0.4770   -8.5060 C   0  0  0  0  0  0  0  0  0  0  0  0
   -6.2880   -1.6020   -9.0820 O   0  0  0  0  0  0  0  0  0  0  0  0
   -6.1960   -0.1320   -7.3310 O   0  0  0  0  0  0  0  0  0  0  0  0
   -7.7520   -0.1300  -10.6600 C   0  0  0  0  0  0  0  0  0  0  0  0
   -9.2530    0.0700  -10.7030 C   0  0  1  0  0  0  0  0  0  0  0  0
   -9.9060   -1.0900  -11.2160 O   0  0  0  0  0  0  0  0  0  0  0  0
  -11.2690   -1.1790  -10.7990 C   0  0  0  0  0  0  0  0  0  0  0  0
  -11.4060   -1.3480   -9.2740 C   0  0  1  0  0  0  0  0  0  0  0  0
  -11.5350   -2.7370   -8.9390 O   0  0  0  0  0  0  0  0  0  0  0  0
  -10.2190   -0.7490   -8.4970 C   0  0  1  0  0  0  0  0  0  0  0  0
   -9.2560   -1.7900   -8.2650 O   0  0  0  0  0  0  0  0  0  0  0  0
   -9.6430    0.4340   -9.2780 C   0  0  1  0  0  0  0  0  0  0  0  0
   -8.4920    0.9960   -8.6470 O   0  0  0  0  0  0  0  0  0  0  0  0
   -7.7060    3.8550  -10.4090 C   0  0  0  0  0  0  0  0  0  0  0  0
   -8.9420    3.6770  -10.5300 O   0  0  0  0  0  0  0  0  0  0  0  0
   -7.0420    4.8680  -10.0080 O   0  0  0  0  0  0  0  0  0  0  0  0
   -5.6990    3.7830  -12.2580 H   0  0  0  0  0  0  0  0  0  0  0  0
   -4.9420    2.4140  -11.7610 H   0  0  0  0  0  0  0  0  0  0  0  0
   -4.9800    3.6850  -10.6680 H   0  0  0  0  0  0  0  0  0  0  0  0
   -7.2950    2.0092  -11.4578 H   0  0  0  0  0  0  0  0  0  0  0  0
   -5.3669    1.4383   -9.6595 H   0  0  0  0  0  0  0  0  0  0  0  0
   -6.5697    2.4012   -8.6543 H   0  0  0  0  0  0  0  0  0  0  0  0
   -7.2748    0.3447  -11.5300 H   0  0  0  0  0  0  0  0  0  0  0  0
   -7.4788   -1.1951  -10.6894 H   0  0  0  0  0  0  0  0  0  0  0  0
   -9.5668    0.8703  -11.3893 H   0  0  0  0  0  0  0  0  0  0  0  0
  -11.7917   -0.2595  -11.1010 H   0  0  0  0  0  0  0  0  0  0  0  0
  -11.7086   -2.0673  -11.2760 H   0  0  0  0  0  0  0  0  0  0  0  0
  -12.3105   -0.7964   -8.9780 H   0  0  0  0  0  0  0  0  0  0  0  0
  -12.4500   -2.9590   -9.2300 H   0  0  0  0  0  0  0  0  0  0  0  0
  -10.5352   -0.3589   -7.5183 H   0  0  0  0  0  0  0  0  0  0  0  0
   -8.3830   -1.4620   -8.5940 H   0  0  0  0  0  0  0  0  0  0  0  0
  -10.4597    1.1707   -9.2968 H   0  0  0  0  0  0  0  0  0  0  0  0
  1  2  1  0
  2  3  1  0
  4  3  1  6
  4  5  1  0
  5  6  2  0
  5  7  1  0
  4  8  1  0
  8  9  1  0
  9 10  1  0
 10 11  1  0
 11 12  1  0
 12 13  1  0
 12 14  1  0
 14 15  1  0
 14 16  1  0
 16 17  1  0
  2 18  1  0
 18 19  2  0
 18 20  1  0
 17  4  1  0
 16  9  1  0
  1 21  1  0
  1 22  1  0
  1 23  1  0
  2 24  1  6
  3 25  1  0
  3 26  1  0
  8 27  1  0
  8 28  1  0
  9 29  1  6
 11 30  1  0
 11 31  1  0
 12 32  1  1
 13 33  1  0
 14 34  1  1
 15 35  1  0
 16 36  1  6
M  CHG  3   1   1   7  -1  20  -1
M  END
>  <meeko>  (2) 
{"is_sidechain": [false], "free_energy": -5.122, "intermolecular_energy": -6.809, "internal_energy": -0.868}

$$$$
3fv2_ligand
     RDKit          3D

 36 37  0  0  0  0  0  0  0  0999 V2000
   -4.9390    0.8200  -11.5610 N   0  0  0  0  0  0  0  0  0  0  0  0
   -6.3010    1.2440  -11.0520 C   0  0  1  0  0  0  0  0  0  0  0  0
   -6.5720    0.6630   -9.6490 C   0  0  0  0  0  0  0  0  0  0  0  0
   -8.0100    0.1790   -9.4110 C   0  0  2  0  0  0  0  0  0  0  0  0
   -7.9440   -0.8420   -8.2260 C   0  0  0  0  0  0  0  0  0  0  0  0
   -6.9260   -0.6830   -7.4720 O   0  0  0  0  0  0  0  0  0  0  0  0
   -8.8080   -1.7530   -8.2120 O   0  0  0  0  0  0  0  0  0  0  0  0
   -8.6910   -0.4650  -10.6130 C   0  0  0  0  0  0  0  0  0  0  0  0
   -9.8190    0.4760  -10.9830 C   0  0  1  0  0  0  0  0  0  0  0  0
  -10.9800   -0.2530  -11.3780 O   0  0  0  0  0  0  0  0  0  0  0  0
  -12.1810    0.5060  -11.2230 C   0  0  0  0  0  0  0  0  0  0  0  0
  -12.4700    0.8500   -9.7500 C   0  0  1  0  0  0  0  0  0  0  0  0
  -13.3720   -0.1130   -9.1850 O   0  0  0  0  0  0  0  0  0  0  0  0
  -11.1960    0.9150   -8.8890 C   0  0  1  0  0  0  0  0  0  0  0  0
  -10.9930   -0.3700   -8.2790 O   0  0  0  0  0  0  0  0  0  0  0  0
  -10.0160    1.3570   -9.7580 C   0  0  1  0  0  0  0  0  0  0  0  0
   -8.7840    1.3720   -9.0370 O   0  0  0  0  0  0  0  0  0  0  0  0
   -6.4150    2.8020  -11.1150 C   0  0  0  0  0  0  0  0  0  0  0  0
   -5.4310    3.4800  -10.7350 O   0  0  0  0  0  0  0  0  0  0  0  0
   -7.5420    3.1580  -11.5950 O   0  0  0  0  0  0  0  0  0  0  0  0
   -4.8750    0.8180  -12.6010 H   0  0  0  0  0  0  0  0  0  0  0  0
   -4.7670   -0.1520  -11.2800 H   0  0  0  0  0  0  0  0  0  0  0  0
   -4.2600    1.4350  -11.0860 H   0  0  0  0  0  0  0  0  0  0  0  0
   -7.0899    0.8319  -11.6984 H   0  0  0  0  0  0  0  0  0  0  0  0
   -5.8955   -0.1910   -9.4973 H   0  0  0  0  0  0  0  0  0  0  0  0
   -6.4043    1.4862   -8.9389 H   0  0  0  0  0  0  0  0  0  0  0  0
   -7.9831   -0.5659  -11.4489 H   0  0  0  0  0  0  0  0  0  0  0  0
   -9.0582   -1.4763  -10.3840 H   0  0  0  0  0  0  0  0  0  0  0  0
   -9.5939    1.1030  -11.8584 H   0  0  0  0  0  0  0  0  0  0  0  0
  -12.0835    1.4422  -11.7922 H   0  0  0  0  0  0  0  0  0  0  0  0
  -13.0158   -0.1060  -11.5953 H   0  0  0  0  0  0  0  0  0  0  0  0
  -12.9249    1.8515   -9.7460 H   0  0  0  0  0  0  0  0  0  0  0  0
  -12.8270   -0.5620   -8.4980 H   0  0  0  0  0  0  0  0  0  0  0  0
  -11.2928    1.6577   -8.0834 H   0  0  0  0  0  0  0  0  0  0  0  0
  -11.8680   -0.6700   -7.9260 H   0  0  0  0  0  0  0  0  0  0  0  0
  -10.2795    2.3764  -10.0764 H   0  0  0  0  0  0  0  0  0  0  0  0
  1  2  1  0
  2  3  1  0
  4  3  1  6
  4  5  1  0
  5  6  2  0
  5  7  1  0
  4  8  1  0
  8  9  1  0
  9 10  1  0
 10 11  1  0
 11 12  1  0
 12 13  1  0
 12 14  1  0
 14 15  1  0
 14 16  1  0
 16 17  1  0
  2 18  1  0
 18 19  2  0
 18 20  1  0
 17  4  1  0
 16  9  1  0
  1 21  1  0
  1 22  1  0
  1 23  1  0
  2 24  1  6
  3 25  1  0
  3 26  1  0
  8 27  1  0
  8 28  1  0
  9 29  1  6
 11 30  1  0
 11 31  1  0
 12 32  1  6
 13 33  1  0
 14 34  1  1
 15 35  1  0
 16 36  1  6
M  CHG  3   1   1   7  -1  20  -1
M  END
>  <meeko>  (3) 
{"is_sidechain": [false], "free_energy": -4.988, "intermolecular_energy": -6.789, "internal_energy": -0.71}

$$$$
3fv2_ligand
     RDKit          3D

 36 37  0  0  0  0  0  0  0  0999 V2000
  -11.6110   -2.2610   -8.7980 N   0  0  0  0  0  0  0  0  0  0  0  0
  -10.5040   -1.2280   -8.8200 C   0  0  1  0  0  0  0  0  0  0  0  0
  -11.0190    0.1230   -9.3580 C   0  0  0  0  0  0  0  0  0  0  0  0
   -9.9960    0.9370  -10.1610 C   0  0  2  0  0  0  0  0  0  0  0  0
  -10.8180    1.8530  -11.1290 C   0  0  0  0  0  0  0  0  0  0  0  0
  -10.4200    3.0670  -11.1430 O   0  0  0  0  0  0  0  0  0  0  0  0
  -11.8220    1.3410  -11.6810 O   0  0  0  0  0  0  0  0  0  0  0  0
   -8.9860    0.1180  -10.9560 C   0  0  0  0  0  0  0  0  0  0  0  0
   -7.6460    0.3980  -10.3080 C   0  0  1  0  0  0  0  0  0  0  0  0
   -6.6170    0.5020  -11.2910 O   0  0  0  0  0  0  0  0  0  0  0  0
   -5.4970    1.2610  -10.8310 C   0  0  0  0  0  0  0  0  0  0  0  0
   -5.8610    2.7310  -10.5520 C   0  0  1  0  0  0  0  0  0  0  0  0
   -5.5510    3.5440  -11.6930 O   0  0  0  0  0  0  0  0  0  0  0  0
   -7.3440    2.9210  -10.1840 C   0  0  1  0  0  0  0  0  0  0  0  0
   -8.0730    3.2390  -11.3810 O   0  0  0  0  0  0  0  0  0  0  0  0
   -7.8620    1.6610   -9.4860 C   0  0  1  0  0  0  0  0  0  0  0  0
   -9.2530    1.7410   -9.1780 O   0  0  0  0  0  0  0  0  0  0  0  0
   -9.8610   -1.1290   -7.3980 C   0  0  0  0  0  0  0  0  0  0  0  0
   -8.6640   -1.4800   -7.2670 O   0  0  0  0  0  0  0  0  0  0  0  0
  -10.6910   -0.6540   -6.5540 O   0  0  0  0  0  0  0  0  0  0  0  0
  -12.5450   -1.8530   -8.5840 H   0  0  0  0  0  0  0  0  0  0  0  0
  -11.4300   -2.9270   -8.0380 H   0  0  0  0  0  0  0  0  0  0  0  0
  -11.5490   -2.7550   -9.7020 H   0  0  0  0  0  0  0  0  0  0  0  0
   -9.7119   -1.5393   -9.5169 H   0  0  0  0  0  0  0  0  0  0  0  0
  -11.8825   -0.0766  -10.0096 H   0  0  0  0  0  0  0  0  0  0  0  0
  -11.2673    0.7296   -8.4746 H   0  0  0  0  0  0  0  0  0  0  0  0
   -9.2265   -0.9537  -10.8962 H   0  0  0  0  0  0  0  0  0  0  0  0
   -8.9896    0.3859  -12.0229 H   0  0  0  0  0  0  0  0  0  0  0  0
   -7.2996   -0.4158   -9.6539 H   0  0  0  0  0  0  0  0  0  0  0  0
   -5.1201    0.8077   -9.9023 H   0  0  0  0  0  0  0  0  0  0  0  0
   -4.7340    1.2482  -11.6233 H   0  0  0  0  0  0  0  0  0  0  0  0
   -5.2603    3.0423   -9.6847 H   0  0  0  0  0  0  0  0  0  0  0  0
   -5.6300    2.9170  -12.4490 H   0  0  0  0  0  0  0  0  0  0  0  0
   -7.4788    3.7531   -9.4773 H   0  0  0  0  0  0  0  0  0  0  0  0
   -8.8030    2.5780  -11.4660 H   0  0  0  0  0  0  0  0  0  0  0  0
   -7.2739    1.6021   -8.5583 H   0  0  0  0  0  0  0  0  0  0  0  0
  1  2  1  0
  2  3  1  0
  4  3  1  1
  4  5  1  0
  5  6  2  0
  5  7  1  0
  4  8  1  0
  8  9  1  0
  9 10  1  0
 10 11  1  0
 11 12  1  0
 12 13  1  0
 12 14  1  0
 14 15  1  0
 14 16  1  0
 16 17  1  0
  2 18  1  0
 18 19  2  0
 18 20  1  0
 17  4  1  0
 16  9  1  0
  1 21  1  0
  1 22  1  0
  1 23  1  0
  2 24  1  6
  3 25  1  0
  3 26  1  0
  8 27  1  0
  8 28  1  0
  9 29  1  1
 11 30  1  0
 11 31  1  0
 12 32  1  1
 13 33  1  0
 14 34  1  1
 15 35  1  0
 16 36  1  1
M  CHG  3   1   1   7  -1  20  -1
M  END
>  <meeko>  (4) 
{"is_sidechain": [false], "free_energy": -4.12, "intermolecular_energy": -6.202, "internal_energy": -0.151}

$$$$
3fv2_ligand
     RDKit          3D

 36 37  0  0  0  0  0  0  0  0999 V2000
   -4.5250   -6.3070    6.3180 N   0  0  0  0  0  0  0  0  0  0  0  0
   -5.9890   -6.6890    6.2520 C   0  0  1  0  0  0  0  0  0  0  0  0
   -6.6240   -6.6870    7.6580 C   0  0  0  0  0  0  0  0  0  0  0  0
   -6.6790   -8.0570    8.3500 C   0  0  2  0  0  0  0  0  0  0  0  0
   -5.2860   -8.2640    9.0340 C   0  0  0  0  0  0  0  0  0  0  0  0
   -4.7560   -7.1800    9.4500 O   0  0  0  0  0  0  0  0  0  0  0  0
   -4.8000   -9.4210    8.9970 O   0  0  0  0  0  0  0  0  0  0  0  0
   -6.9900   -9.2390    7.4390 C   0  0  0  0  0  0  0  0  0  0  0  0
   -8.3440   -9.7440    7.8910 C   0  0  1  0  0  0  0  0  0  0  0  0
   -8.3940  -11.1700    7.8520 O   0  0  0  0  0  0  0  0  0  0  0  0
   -9.3860  -11.7060    8.7290 C   0  0  0  0  0  0  0  0  0  0  0  0
   -9.0810  -11.4080   10.2100 C   0  0  1  0  0  0  0  0  0  0  0  0
   -8.3960  -12.5180   10.8070 O   0  0  0  0  0  0  0  0  0  0  0  0
   -8.2420  -10.1320   10.4030 C   0  0  1  0  0  0  0  0  0  0  0  0
   -6.8550  -10.5050   10.4620 O   0  0  0  0  0  0  0  0  0  0  0  0
   -8.5480   -9.1450    9.2750 C   0  0  1  0  0  0  0  0  0  0  0  0
   -7.7500   -7.9630    9.3530 O   0  0  0  0  0  0  0  0  0  0  0  0
   -6.7220   -5.7560    5.2350 C   0  0  0  0  0  0  0  0  0  0  0  0
   -6.0360   -4.9160    4.6050 O   0  0  0  0  0  0  0  0  0  0  0  0
   -7.9680   -6.0280    5.1820 O   0  0  0  0  0  0  0  0  0  0  0  0
   -4.3110   -5.4260    5.8050 H   0  0  0  0  0  0  0  0  0  0  0  0
   -3.9700   -7.0310    5.8480 H   0  0  0  0  0  0  0  0  0  0  0  0
   -4.2850   -6.2940    7.3210 H   0  0  0  0  0  0  0  0  0  0  0  0
   -6.0933   -7.7201    5.8833 H   0  0  0  0  0  0  0  0  0  0  0  0
   -6.0395   -6.0067    8.2949 H   0  0  0  0  0  0  0  0  0  0  0  0
   -7.6686   -6.3704    7.5219 H   0  0  0  0  0  0  0  0  0  0  0  0
   -7.0300   -8.9160    6.3883 H   0  0  0  0  0  0  0  0  0  0  0  0
   -6.2182  -10.0203    7.5018 H   0  0  0  0  0  0  0  0  0  0  0  0
   -9.1666   -9.4356    7.2290 H   0  0  0  0  0  0  0  0  0  0  0  0
  -10.3603  -11.2643    8.4728 H   0  0  0  0  0  0  0  0  0  0  0  0
   -9.3934  -12.7984    8.6005 H   0  0  0  0  0  0  0  0  0  0  0  0
  -10.0507  -11.2455   10.7032 H   0  0  0  0  0  0  0  0  0  0  0  0
   -7.5580  -12.5750   10.2920 H   0  0  0  0  0  0  0  0  0  0  0  0
   -8.4941   -9.6237   11.3454 H   0  0  0  0  0  0  0  0  0  0  0  0
   -6.3330   -9.6760   10.6000 H   0  0  0  0  0  0  0  0  0  0  0  0
   -9.6098   -8.8938    9.4147 H   0  0  0  0  0  0  0  0  0  0  0  0
  1  2  1  0
  2  3  1  0
  4  3  1  6
  4  5  1  0
  5  6  2  0
  5  7  1  0
  4  8  1  0
  8  9  1  0
  9 10  1  0
 10 11  1  0
 11 12  1  0
 12 13  1  0
 12 14  1  0
 14 15  1  0
 14 16  1  0
 16 17  1  0
  2 18  1  0
 18 19  2  0
 18 20  1  0
 17  4  1  0
 16  9  1  0
  1 21  1  0
  1 22  1  0
  1 23  1  0
  2 24  1  6
  3 25  1  0
  3 26  1  0
  8 27  1  0
  8 28  1  0
  9 29  1  6
 11 30  1  0
 11 31  1  0
 12 32  1  1
 13 33  1  0
 14 34  1  1
 15 35  1  0
 16 36  1  6
M  CHG  3   1   1   7  -1  20  -1
M  END
>  <meeko>  (5) 
{"is_sidechain": [false], "free_energy": -3.838, "intermolecular_energy": -5.146, "internal_energy": -0.834}

$$$$
3fv2_ligand
     RDKit          3D

 36 37  0  0  0  0  0  0  0  0999 V2000
  -11.6780   -9.6790    9.6710 N   0  0  0  0  0  0  0  0  0  0  0  0
  -11.1310  -10.0410    8.3070 C   0  0  1  0  0  0  0  0  0  0  0  0
   -9.8460  -10.8850    8.4320 C   0  0  0  0  0  0  0  0  0  0  0  0
   -8.5360  -10.1110    8.2250 C   0  0  2  0  0  0  0  0  0  0  0  0
   -8.2910  -10.0600    6.6790 C   0  0  0  0  0  0  0  0  0  0  0  0
   -7.7580  -11.1220    6.2120 O   0  0  0  0  0  0  0  0  0  0  0  0
   -8.5280   -8.9710    6.1010 O   0  0  0  0  0  0  0  0  0  0  0  0
   -7.3130  -10.6930    8.9240 C   0  0  0  0  0  0  0  0  0  0  0  0
   -6.9280   -9.6700    9.9720 C   0  0  1  0  0  0  0  0  0  0  0  0
   -5.5100   -9.5530   10.0710 O   0  0  0  0  0  0  0  0  0  0  0  0
   -5.1020   -8.2950   10.6110 C   0  0  0  0  0  0  0  0  0  0  0  0
   -5.4860   -7.1140    9.7000 C   0  0  1  0  0  0  0  0  0  0  0  0
   -4.3810   -6.7600    8.8560 O   0  0  0  0  0  0  0  0  0  0  0  0
   -6.7170   -7.4090    8.8240 C   0  0  1  0  0  0  0  0  0  0  0  0
   -6.2630   -7.9050    7.5530 O   0  0  0  0  0  0  0  0  0  0  0  0
   -7.6380   -8.3910    9.5530 C   0  0  1  0  0  0  0  0  0  0  0  0
   -8.7690   -8.7640    8.7670 O   0  0  0  0  0  0  0  0  0  0  0  0
  -12.2530  -10.7350    7.4670 C   0  0  0  0  0  0  0  0  0  0  0  0
  -12.7640  -11.7860    7.9210 O   0  0  0  0  0  0  0  0  0  0  0  0
  -12.5050  -10.0720    6.4060 O   0  0  0  0  0  0  0  0  0  0  0  0
  -12.4260  -10.3280    9.9950 H   0  0  0  0  0  0  0  0  0  0  0  0
  -12.1290   -8.7590    9.6160 H   0  0  0  0  0  0  0  0  0  0  0  0
  -10.8570   -9.6180   10.2930 H   0  0  0  0  0  0  0  0  0  0  0  0
  -10.8332   -9.1299    7.7674 H   0  0  0  0  0  0  0  0  0  0  0  0
   -9.8252  -11.3271    9.4390 H   0  0  0  0  0  0  0  0  0  0  0  0
   -9.8908  -11.6327    7.6264 H   0  0  0  0  0  0  0  0  0  0  0  0
   -7.5607  -11.6548    9.3969 H   0  0  0  0  0  0  0  0  0  0  0  0
   -6.4913  -10.8875    8.2191 H   0  0  0  0  0  0  0  0  0  0  0  0
   -7.2378   -9.9499   10.9897 H   0  0  0  0  0  0  0  0  0  0  0  0
   -5.5842   -8.1575   11.5901 H   0  0  0  0  0  0  0  0  0  0  0  0
   -4.0057   -8.3076   10.7005 H   0  0  0  0  0  0  0  0  0  0  0  0
   -5.7445   -6.2770   10.3654 H   0  0  0  0  0  0  0  0  0  0  0  0
   -4.2870   -7.5410    8.2620 H   0  0  0  0  0  0  0  0  0  0  0  0
   -7.3058   -6.4984    8.6392 H   0  0  0  0  0  0  0  0  0  0  0  0
   -5.3070   -8.1400    7.6540 H   0  0  0  0  0  0  0  0  0  0  0  0
   -7.9662   -7.8425   10.4482 H   0  0  0  0  0  0  0  0  0  0  0  0
  1  2  1  0
  2  3  1  0
  4  3  1  6
  4  5  1  0
  5  6  2  0
  5  7  1  0
  4  8  1  0
  8  9  1  0
  9 10  1  0
 10 11  1  0
 11 12  1  0
 12 13  1  0
 12 14  1  0
 14 15  1  0
 14 16  1  0
 16 17  1  0
  2 18  1  0
 18 19  2  0
 18 20  1  0
 17  4  1  0
 16  9  1  0
  1 21  1  0
  1 22  1  0
  1 23  1  0
  2 24  1  6
  3 25  1  0
  3 26  1  0
  8 27  1  0
  8 28  1  0
  9 29  1  1
 11 30  1  0
 11 31  1  0
 12 32  1  1
 13 33  1  0
 14 34  1  6
 15 35  1  0
 16 36  1  1
M  CHG  3   1   1   7  -1  20  -1
M  END
>  <meeko>  (6) 
{"is_sidechain": [false], "free_energy": -3.789, "intermolecular_energy": -5.005, "internal_energy": -0.911}

$$$$
3fv2_ligand
     RDKit          3D

 36 37  0  0  0  0  0  0  0  0999 V2000
   -7.3590   -8.7280    5.5220 N   0  0  0  0  0  0  0  0  0  0  0  0
   -7.3240   -7.4880    6.3900 C   0  0  1  0  0  0  0  0  0  0  0  0
   -6.6330   -7.7770    7.7390 C   0  0  0  0  0  0  0  0  0  0  0  0
   -7.4470   -8.6370    8.7160 C   0  0  2  0  0  0  0  0  0  0  0  0
   -7.5000   -7.8470   10.0660 C   0  0  0  0  0  0  0  0  0  0  0  0
   -6.3810   -7.8120   10.6810 O   0  0  0  0  0  0  0  0  0  0  0  0
   -8.6270   -7.4450   10.4470 O   0  0  0  0  0  0  0  0  0  0  0  0
   -6.9060  -10.0410    8.9590 C   0  0  0  0  0  0  0  0  0  0  0  0
   -7.9450  -10.9760    8.3740 C   0  0  1  0  0  0  0  0  0  0  0  0
   -8.1070  -12.1330    9.1930 O   0  0  0  0  0  0  0  0  0  0  0  0
   -9.3800  -12.7560    9.0120 C   0  0  0  0  0  0  0  0  0  0  0  0
  -10.5440  -11.8500    9.4550 C   0  0  1  0  0  0  0  0  0  0  0  0
  -10.9290  -12.1610   10.8020 O   0  0  0  0  0  0  0  0  0  0  0  0
  -10.2070  -10.3510    9.3580 C   0  0  1  0  0  0  0  0  0  0  0  0
   -9.7210   -9.9110   10.6370 O   0  0  0  0  0  0  0  0  0  0  0  0
   -9.2000  -10.1270    8.2270 C   0  0  1  0  0  0  0  0  0  0  0  0
   -8.7880   -8.7640    8.1260 O   0  0  0  0  0  0  0  0  0  0  0  0
   -6.6670   -6.3150    5.5920 C   0  0  0  0  0  0  0  0  0  0  0  0
   -7.4180   -5.5580    4.9310 O   0  0  0  0  0  0  0  0  0  0  0  0
   -5.4030   -6.2950    5.7690 O   0  0  0  0  0  0  0  0  0  0  0  0
   -6.6590   -9.4440    5.8070 H   0  0  0  0  0  0  0  0  0  0  0  0
   -7.1010   -8.4700    4.5620 H   0  0  0  0  0  0  0  0  0  0  0  0
   -8.3400   -9.0490    5.5340 H   0  0  0  0  0  0  0  0  0  0  0  0
   -8.3483   -7.1776    6.6439 H   0  0  0  0  0  0  0  0  0  0  0  0
   -5.6869   -8.2987    7.5325 H   0  0  0  0  0  0  0  0  0  0  0  0
   -6.4972   -6.8016    8.2290 H   0  0  0  0  0  0  0  0  0  0  0  0
   -5.9387  -10.1743    8.4524 H   0  0  0  0  0  0  0  0  0  0  0  0
   -6.7346  -10.2354   10.0280 H   0  0  0  0  0  0  0  0  0  0  0  0
   -7.6591  -11.3884    7.3951 H   0  0  0  0  0  0  0  0  0  0  0  0
   -9.5066  -12.9985    7.9466 H   0  0  0  0  0  0  0  0  0  0  0  0
   -9.4027  -13.6614    9.6363 H   0  0  0  0  0  0  0  0  0  0  0  0
  -11.3755  -12.0486    8.7628 H   0  0  0  0  0  0  0  0  0  0  0  0
  -11.5260  -11.4160   11.0470 H   0  0  0  0  0  0  0  0  0  0  0  0
  -11.0975   -9.7537    9.1127 H   0  0  0  0  0  0  0  0  0  0  0  0
   -9.7330  -10.6950   11.2420 H   0  0  0  0  0  0  0  0  0  0  0  0
   -9.7416  -10.4254    7.3173 H   0  0  0  0  0  0  0  0  0  0  0  0
  1  2  1  0
  2  3  1  0
  4  3  1  6
  4  5  1  0
  5  6  2  0
  5  7  1  0
  4  8  1  0
  8  9  1  0
  9 10  1  0
 10 11  1  0
 11 12  1  0
 12 13  1  0
 12 14  1  0
 14 15  1  0
 14 16  1  0
 16 17  1  0
  2 18  1  0
 18 19  2  0
 18 20  1  0
 17  4  1  0
 16  9  1  0
  1 21  1  0
  1 22  1  0
  1 23  1  0
  2 24  1  1
  3 25  1  0
  3 26  1  0
  8 27  1  0
  8 28  1  0
  9 29  1  6
 11 30  1  0
 11 31  1  0
 12 32  1  6
 13 33  1  0
 14 34  1  6
 15 35  1  0
 16 36  1  6
M  CHG  3   1   1   7  -1  20  -1
M  END
>  <meeko>  (7) 
{"is_sidechain": [false], "free_energy": -3.697, "intermolecular_energy": -4.904, "internal_energy": -0.89}

$$$$
3fv2_ligand
     RDKit          3D

 36 37  0  0  0  0  0  0  0  0999 V2000
   -5.2030   -6.6770   10.1720 N   0  0  0  0  0  0  0  0  0  0  0  0
   -4.8040   -7.4680    8.9450 C   0  0  1  0  0  0  0  0  0  0  0  0
   -5.8410   -7.2960    7.8150 C   0  0  0  0  0  0  0  0  0  0  0  0
   -7.0090   -8.2920    7.8470 C   0  0  2  0  0  0  0  0  0  0  0  0
   -7.5620   -8.3750    6.3840 C   0  0  0  0  0  0  0  0  0  0  0  0
   -8.1800   -7.3220    6.0120 O   0  0  0  0  0  0  0  0  0  0  0  0
   -7.4440   -9.4770    5.7930 O   0  0  0  0  0  0  0  0  0  0  0  0
   -8.1390   -7.9440    8.8080 C   0  0  0  0  0  0  0  0  0  0  0  0
   -8.1110   -9.0280    9.8660 C   0  0  1  0  0  0  0  0  0  0  0  0
   -9.4330   -9.3990   10.2500 O   0  0  0  0  0  0  0  0  0  0  0  0
   -9.4920  -10.7140   10.8050 C   0  0  0  0  0  0  0  0  0  0  0  0
   -9.1090  -11.8000    9.7820 C   0  0  1  0  0  0  0  0  0  0  0  0
  -10.2880  -12.3400    9.1690 O   0  0  0  0  0  0  0  0  0  0  0  0
   -8.1610  -11.2810    8.6860 C   0  0  1  0  0  0  0  0  0  0  0  0
   -8.9530  -10.8660    7.5600 O   0  0  0  0  0  0  0  0  0  0  0  0
   -7.2930  -10.1560    9.2530 C   0  0  1  0  0  0  0  0  0  0  0  0
   -6.4360   -9.5790    8.2680 O   0  0  0  0  0  0  0  0  0  0  0  0
   -3.3520   -7.0720    8.5230 C   0  0  0  0  0  0  0  0  0  0  0  0
   -3.1860   -6.5560    7.3920 O   0  0  0  0  0  0  0  0  0  0  0  0
   -2.5200   -7.3240    9.4580 O   0  0  0  0  0  0  0  0  0  0  0  0
   -4.8210   -5.7080   10.1740 H   0  0  0  0  0  0  0  0  0  0  0  0
   -4.8000   -7.1250   11.0030 H   0  0  0  0  0  0  0  0  0  0  0  0
   -6.2320   -6.7380   10.2200 H   0  0  0  0  0  0  0  0  0  0  0  0
   -4.7960   -8.5432    9.1769 H   0  0  0  0  0  0  0  0  0  0  0  0
   -6.2571   -6.2802    7.8858 H   0  0  0  0  0  0  0  0  0  0  0  0
   -5.3033   -7.4840    6.8740 H   0  0  0  0  0  0  0  0  0  0  0  0
   -7.9681   -6.9571    9.2627 H   0  0  0  0  0  0  0  0  0  0  0  0
   -9.1118   -7.8944    8.2969 H   0  0  0  0  0  0  0  0  0  0  0  0
   -7.6477   -8.7039   10.8096 H   0  0  0  0  0  0  0  0  0  0  0  0
   -8.7976  -10.7698   11.6563 H   0  0  0  0  0  0  0  0  0  0  0  0
  -10.5298  -10.8996   11.1190 H   0  0  0  0  0  0  0  0  0  0  0  0
   -8.5745  -12.5825   10.3406 H   0  0  0  0  0  0  0  0  0  0  0  0
  -10.7810  -11.5400    8.8740 H   0  0  0  0  0  0  0  0  0  0  0  0
   -7.4739  -12.0684    8.3426 H   0  0  0  0  0  0  0  0  0  0  0  0
   -9.0230  -11.6410    6.9480 H   0  0  0  0  0  0  0  0  0  0  0  0
   -6.6931  -10.6435   10.0356 H   0  0  0  0  0  0  0  0  0  0  0  0
  1  2  1  0
  2  3  1  0
  4  3  1  6
  4  5  1  0
  5  6  2  0
  5  7  1  0
  4  8  1  0
  8  9  1  0
  9 10  1  0
 10 11  1  0
 11 12  1  0
 12 13  1  0
 12 14  1  0
 14 15  1  0
 14 16  1  0
 16 17  1  0
  2 18  1  0
 18 19  2  0
 18 20  1  0
 17  4  1  0
 16  9  1  0
  1 21  1  0
  1 22  1  0
  1 23  1  0
  2 24  1  1
  3 25  1  0
  3 26  1  0
  8 27  1  0
  8 28  1  0
  9 29  1  1
 11 30  1  0
 11 31  1  0
 12 32  1  1
 13 33  1  0
 14 34  1  6
 15 35  1  0
 16 36  1  1
M  CHG  3   1   1   7  -1  20  -1
M  END
>  <meeko>  (8) 
{"is_sidechain": [false], "free_energy": -3.696, "intermolecular_energy": -5.132, "internal_energy": -0.661}

$$$$
3fv2_ligand
     RDKit          3D

 36 37  0  0  0  0  0  0  0  0999 V2000
   -4.4250   -6.8380    7.7150 N   0  0  0  0  0  0  0  0  0  0  0  0
   -5.0570   -7.4750    8.9350 C   0  0  1  0  0  0  0  0  0  0  0  0
   -5.5820   -8.8890    8.6100 C   0  0  0  0  0  0  0  0  0  0  0  0
   -7.1020   -8.9890    8.4130 C   0  0  2  0  0  0  0  0  0  0  0  0
   -7.3790   -8.6350    6.9140 C   0  0  0  0  0  0  0  0  0  0  0  0
   -7.4740   -9.6600    6.1570 O   0  0  0  0  0  0  0  0  0  0  0  0
   -7.3630   -7.4190    6.6040 O   0  0  0  0  0  0  0  0  0  0  0  0
   -7.9400   -8.0970    9.3200 C   0  0  0  0  0  0  0  0  0  0  0  0
   -8.7040   -9.0470   10.2190 C   0  0  1  0  0  0  0  0  0  0  0  0
  -10.0330   -8.5780   10.4430 O   0  0  0  0  0  0  0  0  0  0  0  0
  -10.9290   -9.6300   10.8070 C   0  0  0  0  0  0  0  0  0  0  0  0
  -11.1090  -10.6630    9.6790 C   0  0  1  0  0  0  0  0  0  0  0  0
  -12.2770  -10.3530    8.9060 O   0  0  0  0  0  0  0  0  0  0  0  0
   -9.8900  -10.7450    8.7420 C   0  0  1  0  0  0  0  0  0  0  0  0
  -10.1160   -9.8700    7.6240 O   0  0  0  0  0  0  0  0  0  0  0  0
   -8.6210  -10.3990    9.5250 C   0  0  1  0  0  0  0  0  0  0  0  0
   -7.4570  -10.3870    8.6990 O   0  0  0  0  0  0  0  0  0  0  0  0
   -4.0380   -7.4450   10.1200 C   0  0  0  0  0  0  0  0  0  0  0  0
   -3.5420   -6.3400   10.4440 O   0  0  0  0  0  0  0  0  0  0  0  0
   -3.8830   -8.6100   10.6180 O   0  0  0  0  0  0  0  0  0  0  0  0
   -3.3870   -6.7790    7.7780 H   0  0  0  0  0  0  0  0  0  0  0  0
   -4.7440   -5.8650    7.6440 H   0  0  0  0  0  0  0  0  0  0  0  0
   -4.7810   -7.3710    6.9060 H   0  0  0  0  0  0  0  0  0  0  0  0
   -5.9397   -6.8978    9.2476 H   0  0  0  0  0  0  0  0  0  0  0  0
   -5.0950   -9.2291    7.6841 H   0  0  0  0  0  0  0  0  0  0  0  0
   -5.3441   -9.5131    9.4840 H   0  0  0  0  0  0  0  0  0  0  0  0
   -7.2927   -7.4380    9.9172 H   0  0  0  0  0  0  0  0  0  0  0  0
   -8.6140   -7.4449    8.7451 H   0  0  0  0  0  0  0  0  0  0  0  0
   -8.2815   -9.1236   11.2317 H   0  0  0  0  0  0  0  0  0  0  0  0
  -10.5305  -10.1423   11.6951 H   0  0  0  0  0  0  0  0  0  0  0  0
  -11.9117   -9.1792   11.0095 H   0  0  0  0  0  0  0  0  0  0  0  0
  -11.2199  -11.6427   10.1667 H   0  0  0  0  0  0  0  0  0  0  0  0
  -11.9090   -9.9570    8.0820 H   0  0  0  0  0  0  0  0  0  0  0  0
   -9.7525  -11.7633    8.3494 H   0  0  0  0  0  0  0  0  0  0  0  0
  -10.5610   -9.0580    7.9710 H   0  0  0  0  0  0  0  0  0  0  0  0
   -8.5401  -11.1961   10.2787 H   0  0  0  0  0  0  0  0  0  0  0  0
  1  2  1  0
  2  3  1  0
  4  3  1  1
  4  5  1  0
  5  6  2  0
  5  7  1  0
  4  8  1  0
  8  9  1  0
  9 10  1  0
 10 11  1  0
 11 12  1  0
 12 13  1  0
 12 14  1  0
 14 15  1  0
 14 16  1  0
 16 17  1  0
  2 18  1  0
 18 19  2  0
 18 20  1  0
 17  4  1  0
 16  9  1  0
  1 21  1  0
  1 22  1  0
  1 23  1  0
  2 24  1  1
  3 25  1  0
  3 26  1  0
  8 27  1  0
  8 28  1  0
  9 29  1  1
 11 30  1  0
 11 31  1  0
 12 32  1  1
 13 33  1  0
 14 34  1  6
 15 35  1  0
 16 36  1  1
M  CHG  3   1   1   7  -1  20  -1
M  END
>  <meeko>  (9) 
{"is_sidechain": [false], "free_energy": -3.616, "intermolecular_energy": -4.865, "internal_energy": -0.822}

$$$$
