
     RDKit          3D

 33 36  0  0  0  0  0  0  0  0999 V2000
   -0.1720    7.0720  -10.8440 O   0  0  0  0  0  0  0  0  0  0  0  0
   -0.6490    6.6630   -9.7790 C   0  0  0  0  0  0  0  0  0  0  0  0
    0.1320    6.3680   -8.7510 N   0  0  0  0  0  0  0  0  0  0  0  0
    1.5570    6.5230   -8.7540 C   0  0  0  0  0  0  0  0  0  0  0  0
    2.0290    6.8180   -7.3430 C   0  0  0  0  0  0  0  0  0  0  0  0
    3.2510    7.2470   -7.1950 C   0  0  0  0  0  0  0  0  0  0  0  0
    3.7750    7.5700   -5.8120 C   0  0  1  0  0  0  0  0  0  0  0  0
    4.8480    6.6930   -5.5260 O   0  0  0  0  0  0  0  0  0  0  0  0
    6.0700    7.3810   -5.6270 C   0  0  1  0  0  0  0  0  0  0  0  0
    6.9270    6.5290   -6.4050 N   0  0  0  0  0  0  0  0  0  0  0  0
    6.7950    6.2080   -7.7110 C   0  0  0  0  0  0  0  0  0  0  0  0
    7.7510    5.3520   -8.0730 N   0  0  0  0  0  0  0  0  0  0  0  0
    8.5230    5.1140   -6.9870 C   0  0  0  0  0  0  0  0  0  0  0  0
    9.6430    4.3230   -6.7430 C   0  0  0  0  0  0  0  0  0  0  0  0
   10.1890    4.3030   -5.5020 N   0  0  0  0  0  0  0  0  0  0  0  0
    9.6280    5.0330   -4.5260 C   0  0  0  0  0  0  0  0  0  0  0  0
    8.5350    5.8170   -4.6990 N   0  0  0  0  0  0  0  0  0  0  0  0
    8.0040    5.8470   -5.9150 C   0  0  0  0  0  0  0  0  0  0  0  0
    5.7450    8.7220   -6.2730 C   0  0  2  0  0  0  0  0  0  0  0  0
    6.6580    9.7430   -5.8850 O   0  0  0  0  0  0  0  0  0  0  0  0
    4.3380    8.9790   -5.7500 C   0  0  2  0  0  0  0  0  0  0  0  0
    4.3520    9.4510   -4.4090 O   0  0  0  0  0  0  0  0  0  0  0  0
   -2.1180    6.4960   -9.6080 C   0  0  0  0  0  0  0  0  0  0  0  0
   -2.9420    6.9540  -10.6240 C   0  0  0  0  0  0  0  0  0  0  0  0
   -4.3160    6.8360  -10.4950 C   0  0  0  0  0  0  0  0  0  0  0  0
   -5.1210    7.3020  -11.5410 N   0  0  0  0  0  0  0  0  0  0  0  0
   -6.3710    7.2320  -11.4570 O   0  0  0  0  0  0  0  0  0  0  0  0
   -4.5300    7.7910  -12.5850 O   0  0  0  0  0  0  0  0  0  0  0  0
   -4.8930    6.2740   -9.3720 C   0  0  0  0  0  0  0  0  0  0  0  0
   -4.0800    5.8200   -8.3470 C   0  0  0  0  0  0  0  0  0  0  0  0
   -4.6010    5.2600   -7.2180 O   0  0  0  0  0  0  0  0  0  0  0  0
   -2.6870    5.9240   -8.4620 C   0  0  0  0  0  0  0  0  0  0  0  0
   -1.9350    5.4670   -7.4490 O   0  0  0  0  0  0  0  0  0  0  0  0
  2  1  2  0
  3  2  1  0
  4  3  1  0
  5  4  1  0
  6  5  2  3
  7  6  1  6
  8  7  1  0
  9  8  1  0
  9 10  1  6
 11 10  1  0
 12 11  2  0
 13 12  1  0
 14 13  2  0
 15 14  1  0
 16 15  2  0
 17 16  1  0
 18 13  1  0
 18 10  1  0
 18 17  2  0
 19  9  1  0
 19 20  1  1
 21  7  1  0
 21 19  1  0
 21 22  1  1
 23  2  1  0
 24 23  2  0
 25 24  1  0
 26 25  1  0
 27 26  2  0
 28 26  1  0
 29 25  2  0
 30 29  1  0
 31 30  1  0
 32 30  2  0
 32 23  1  0
 33 32  1  0
M  CHG  2  26   1  28  -1
M  END
$$$$
