1gpn_ligand
     RDKit          3D

 40 43  0  0  0  0  0  0  0  0999 V2000
    2.9310    8.1960   -5.4590 C   0  0  0  0  0  0  0  0  0  0  0  0
    1.9900    7.0250   -5.4140 C   0  0  0  0  0  0  0  0  0  0  0  0
    2.3420    5.8450   -4.8620 C   0  0  0  0  0  0  0  0  0  0  0  0
    1.4370    4.6220   -4.8200 C   0  0  1  0  0  0  0  0  0  0  0  0
    0.7870    4.4800   -3.4330 C   0  0  0  0  0  0  0  0  0  0  0  0
   -0.3400    5.4660   -3.2220 C   0  0  0  0  0  0  0  0  0  0  0  0
   -0.8230    5.5760   -1.9370 N   0  0  0  0  0  0  0  0  0  0  0  0
   -1.8120    6.4390   -1.5430 C   0  0  0  0  0  0  0  0  0  0  0  0
   -2.2360    6.4940   -0.3980 O   0  0  0  0  0  0  0  0  0  0  0  0
   -2.3410    7.3260   -2.6060 C   0  0  0  0  0  0  0  0  0  0  0  0
   -1.8730    7.2210   -3.8570 C   0  0  0  0  0  0  0  0  0  0  0  0
   -0.8560    6.2320   -4.2090 C   0  0  0  0  0  0  0  0  0  0  0  0
   -0.3840    6.1000   -5.6710 C   0  0  2  0  0  0  0  0  0  0  0  0
    0.6110    7.2510   -6.0110 C   0  0  0  0  0  0  0  0  0  0  0  0
   -1.5830    6.1550   -6.6140 N   0  0  0  0  0  0  0  0  0  0  0  0
   -1.5670    5.2120   -7.7680 C   0  0  0  0  0  0  0  0  0  0  0  0
   -1.5340    3.7800   -7.2500 C   0  0  0  0  0  0  0  0  0  0  0  0
   -0.5880    3.5760   -6.0600 C   0  0  0  0  0  0  0  0  0  0  0  0
    0.3710    4.7620   -5.9210 C   0  0  2  0  0  0  0  0  0  0  0  0
    3.1800    8.5059   -4.4334 H   0  0  0  0  0  0  0  0  0  0  0  0
    3.8510    7.9070   -5.9883 H   0  0  0  0  0  0  0  0  0  0  0  0
    2.4507    9.0322   -5.9883 H   0  0  0  0  0  0  0  0  0  0  0  0
    3.3438    5.7620   -4.4153 H   0  0  0  0  0  0  0  0  0  0  0  0
    2.0278    3.7117   -4.9999 H   0  0  0  0  0  0  0  0  0  0  0  0
    0.3877    3.4600   -3.3326 H   0  0  0  0  0  0  0  0  0  0  0  0
    1.5594    4.6861   -2.6774 H   0  0  0  0  0  0  0  0  0  0  0  0
   -0.4430    5.0000   -1.1910 H   0  0  0  0  0  0  0  0  0  0  0  0
   -3.1164    8.0691   -2.3683 H   0  0  0  0  0  0  0  0  0  0  0  0
   -2.2624    7.8933   -4.6357 H   0  0  0  0  0  0  0  0  0  0  0  0
    0.7075    7.3220   -7.1044 H   0  0  0  0  0  0  0  0  0  0  0  0
    0.2082    8.1789   -5.5788 H   0  0  0  0  0  0  0  0  0  0  0  0
   -2.4270    5.9440   -6.0650 H   0  0  0  0  0  0  0  0  0  0  0  0
   -1.7100    7.1160   -6.9560 H   0  0  0  0  0  0  0  0  0  0  0  0
   -2.4709    5.3614   -8.3767 H   0  0  0  0  0  0  0  0  0  0  0  0
   -0.6758    5.4006   -8.3846 H   0  0  0  0  0  0  0  0  0  0  0  0
   -2.5508    3.5005   -6.9371 H   0  0  0  0  0  0  0  0  0  0  0  0
   -1.1590    3.1502   -8.0702 H   0  0  0  0  0  0  0  0  0  0  0  0
   -1.1817    3.4819   -5.1388 H   0  0  0  0  0  0  0  0  0  0  0  0
    0.0013    2.6628   -6.2293 H   0  0  0  0  0  0  0  0  0  0  0  0
    0.8883    4.7691   -6.8917 H   0  0  0  0  0  0  0  0  0  0  0  0
  1  2  1  0
  2  3  2  0
  3  4  1  0
  4  5  1  0
  5  6  1  0
  6  7  1  0
  7  8  1  0
  8  9  2  0
  8 10  1  0
 10 11  2  0
 11 12  1  0
 12 13  1  0
 13 14  1  6
 13 15  1  0
 15 16  1  0
 16 17  1  0
 17 18  1  0
 18 19  1  0
 14  2  1  0
 19  4  1  0
 12  6  2  0
 19 13  1  0
  1 20  1  0
  1 21  1  0
  1 22  1  0
  3 23  1  0
  4 24  1  6
  5 25  1  0
  5 26  1  0
  7 27  1  0
 10 28  1  0
 11 29  1  0
 14 30  1  0
 14 31  1  0
 15 32  1  0
 15 33  1  0
 16 34  1  0
 16 35  1  0
 17 36  1  0
 17 37  1  0
 18 38  1  0
 18 39  1  0
 19 40  1  6
M  CHG  1  15   1
M  END
>  <meeko>  (1) 
{"is_sidechain": [false], "free_energy": -9.766, "intermolecular_energy": -9.766, "internal_energy": 0.0}

$$$$
1gpn_ligand
     RDKit          3D

 40 43  0  0  0  0  0  0  0  0999 V2000
    3.2490    7.9160   -5.6340 C   0  0  0  0  0  0  0  0  0  0  0  0
    1.8400    7.4990   -5.3210 C   0  0  0  0  0  0  0  0  0  0  0  0
    0.7980    7.8560   -6.0990 C   0  0  0  0  0  0  0  0  0  0  0  0
   -0.6490    7.4850   -5.8070 C   0  0  1  0  0  0  0  0  0  0  0  0
   -1.0860    6.2920   -6.6750 C   0  0  0  0  0  0  0  0  0  0  0  0
   -0.5260    4.9810   -6.1740 C   0  0  0  0  0  0  0  0  0  0  0  0
   -0.6640    3.8970   -7.0120 N   0  0  0  0  0  0  0  0  0  0  0  0
   -0.1890    2.6380   -6.7520 C   0  0  0  0  0  0  0  0  0  0  0  0
   -0.3510    1.6910   -7.5060 O   0  0  0  0  0  0  0  0  0  0  0  0
    0.5560    2.4920   -5.4780 C   0  0  0  0  0  0  0  0  0  0  0  0
    0.6920    3.5450   -4.6600 C   0  0  0  0  0  0  0  0  0  0  0  0
    0.1030    4.8430   -4.9850 C   0  0  0  0  0  0  0  0  0  0  0  0
    0.2290    6.0160   -3.9920 C   0  0  2  0  0  0  0  0  0  0  0  0
    1.6580    6.6340   -4.0840 C   0  0  0  0  0  0  0  0  0  0  0  0
   -0.0330    5.5270   -2.5700 N   0  0  0  0  0  0  0  0  0  0  0  0
   -0.8400    6.4240   -1.6950 C   0  0  0  0  0  0  0  0  0  0  0  0
   -2.2200    6.6210   -2.3100 C   0  0  0  0  0  0  0  0  0  0  0  0
   -2.1950    6.8260   -3.8300 C   0  0  0  0  0  0  0  0  0  0  0  0
   -0.7790    7.1590   -4.3080 C   0  0  2  0  0  0  0  0  0  0  0  0
    3.8001    8.0791   -4.6961 H   0  0  0  0  0  0  0  0  0  0  0  0
    3.7442    7.1259   -6.2176 H   0  0  0  0  0  0  0  0  0  0  0  0
    3.2344    8.8483   -6.2176 H   0  0  0  0  0  0  0  0  0  0  0  0
    1.0065    8.4518   -6.9998 H   0  0  0  0  0  0  0  0  0  0  0  0
   -1.3100    8.3288   -6.0542 H   0  0  0  0  0  0  0  0  0  0  0  0
   -2.1844    6.2331   -6.6676 H   0  0  0  0  0  0  0  0  0  0  0  0
   -0.6986    6.4563   -7.6913 H   0  0  0  0  0  0  0  0  0  0  0  0
   -1.1390    3.9920   -7.9050 H   0  0  0  0  0  0  0  0  0  0  0  0
    0.9960    1.5215   -5.2050 H   0  0  0  0  0  0  0  0  0  0  0  0
    1.2588    3.4301   -3.7243 H   0  0  0  0  0  0  0  0  0  0  0  0
    1.8326    7.2532   -3.1918 H   0  0  0  0  0  0  0  0  0  0  0  0
    2.3774    5.8043   -4.1477 H   0  0  0  0  0  0  0  0  0  0  0  0
   -0.5390    4.6330   -2.6320 H   0  0  0  0  0  0  0  0  0  0  0  0
    0.8590    5.3070   -2.1090 H   0  0  0  0  0  0  0  0  0  0  0  0
   -0.9434    5.9693   -0.6987 H   0  0  0  0  0  0  0  0  0  0  0  0
   -0.3364    7.3975   -1.6016 H   0  0  0  0  0  0  0  0  0  0  0  0
   -2.8284    5.7315   -2.0897 H   0  0  0  0  0  0  0  0  0  0  0  0
   -2.6402    7.5371   -1.8693 H   0  0  0  0  0  0  0  0  0  0  0  0
   -2.5355    5.9042   -4.3243 H   0  0  0  0  0  0  0  0  0  0  0  0
   -2.8605    7.6640   -4.0848 H   0  0  0  0  0  0  0  0  0  0  0  0
   -0.5413    8.0720   -3.7424 H   0  0  0  0  0  0  0  0  0  0  0  0
  1  2  1  0
  2  3  2  0
  3  4  1  0
  4  5  1  0
  5  6  1  0
  6  7  1  0
  7  8  1  0
  8  9  2  0
  8 10  1  0
 10 11  2  0
 11 12  1  0
 12 13  1  0
 13 14  1  1
 13 15  1  0
 15 16  1  0
 16 17  1  0
 17 18  1  0
 18 19  1  0
 14  2  1  0
 19  4  1  0
 12  6  2  0
 19 13  1  0
  1 20  1  0
  1 21  1  0
  1 22  1  0
  3 23  1  0
  4 24  1  6
  5 25  1  0
  5 26  1  0
  7 27  1  0
 10 28  1  0
 11 29  1  0
 14 30  1  0
 14 31  1  0
 15 32  1  0
 15 33  1  0
 16 34  1  0
 16 35  1  0
 17 36  1  0
 17 37  1  0
 18 38  1  0
 18 39  1  0
 19 40  1  1
M  CHG  1  15   1
M  END
>  <meeko>  (2) 
{"is_sidechain": [false], "free_energy": -8.764, "intermolecular_energy": -8.764, "internal_energy": 0.0}

$$$$
1gpn_ligand
     RDKit          3D

 40 43  0  0  0  0  0  0  0  0999 V2000
   -1.4530    3.0270   -6.7800 C   0  0  0  0  0  0  0  0  0  0  0  0
   -0.7810    4.3110   -6.3800 C   0  0  0  0  0  0  0  0  0  0  0  0
   -0.9280    5.4470   -7.0930 C   0  0  0  0  0  0  0  0  0  0  0  0
   -0.2450    6.7630   -6.7470 C   0  0  1  0  0  0  0  0  0  0  0  0
   -1.2250    7.7070   -6.0290 C   0  0  0  0  0  0  0  0  0  0  0  0
   -1.4540    7.3110   -4.5880 C   0  0  0  0  0  0  0  0  0  0  0  0
   -2.4860    7.9470   -3.9360 N   0  0  0  0  0  0  0  0  0  0  0  0
   -2.8700    7.6970   -2.6440 C   0  0  0  0  0  0  0  0  0  0  0  0
   -3.7760    8.2980   -2.0860 O   0  0  0  0  0  0  0  0  0  0  0  0
   -2.1130    6.6270   -1.9530 C   0  0  0  0  0  0  0  0  0  0  0  0
   -1.1070    6.0060   -2.5840 C   0  0  0  0  0  0  0  0  0  0  0  0
   -0.7220    6.3730   -3.9460 C   0  0  0  0  0  0  0  0  0  0  0  0
    0.4790    5.6790   -4.6190 C   0  0  2  0  0  0  0  0  0  0  0  0
    0.0590    4.2610   -5.1150 C   0  0  0  0  0  0  0  0  0  0  0  0
    1.6370    5.5600   -3.6310 N   0  0  0  0  0  0  0  0  0  0  0  0
    3.0010    5.8220   -4.1690 C   0  0  0  0  0  0  0  0  0  0  0  0
    3.0720    7.2500   -4.6960 C   0  0  0  0  0  0  0  0  0  0  0  0
    1.8260    7.6800   -5.4800 C   0  0  0  0  0  0  0  0  0  0  0  0
    0.9820    6.4620   -5.8670 C   0  0  2  0  0  0  0  0  0  0  0  0
   -1.7448    2.4694   -5.8778 H   0  0  0  0  0  0  0  0  0  0  0  0
   -2.3487    3.2525   -7.3774 H   0  0  0  0  0  0  0  0  0  0  0  0
   -0.7572    2.4196   -7.3774 H   0  0  0  0  0  0  0  0  0  0  0  0
   -1.5809    5.4208   -7.9779 H   0  0  0  0  0  0  0  0  0  0  0  0
    0.0824    7.2693   -7.6670 H   0  0  0  0  0  0  0  0  0  0  0  0
   -0.8153    8.7275   -6.0543 H   0  0  0  0  0  0  0  0  0  0  0  0
   -2.1914    7.6481   -6.5511 H   0  0  0  0  0  0  0  0  0  0  0  0
   -3.0380    8.6560   -4.4100 H   0  0  0  0  0  0  0  0  0  0  0  0
   -2.3764    6.3428   -0.9235 H   0  0  0  0  0  0  0  0  0  0  0  0
   -0.5598    5.2040   -2.0669 H   0  0  0  0  0  0  0  0  0  0  0  0
    0.9676    3.6751   -5.3181 H   0  0  0  0  0  0  0  0  0  0  0  0
   -0.5529    3.7992   -4.3261 H   0  0  0  0  0  0  0  0  0  0  0  0
    1.4770    6.2390   -2.8750 H   0  0  0  0  0  0  0  0  0  0  0  0
    1.6150    4.6360   -3.1810 H   0  0  0  0  0  0  0  0  0  0  0  0
    3.7431    5.6892   -3.3680 H   0  0  0  0  0  0  0  0  0  0  0  0
    3.2148    5.1178   -4.9865 H   0  0  0  0  0  0  0  0  0  0  0  0
    3.1960    7.9302   -3.8405 H   0  0  0  0  0  0  0  0  0  0  0  0
    3.9217    7.2937   -5.3932 H   0  0  0  0  0  0  0  0  0  0  0  0
    1.2215    8.3543   -4.8556 H   0  0  0  0  0  0  0  0  0  0  0  0
    2.1462    8.1942   -6.3982 H   0  0  0  0  0  0  0  0  0  0  0  0
    1.6840    5.8601   -6.4627 H   0  0  0  0  0  0  0  0  0  0  0  0
  1  2  1  0
  2  3  2  0
  3  4  1  0
  4  5  1  0
  5  6  1  0
  6  7  1  0
  7  8  1  0
  8  9  2  0
  8 10  1  0
 10 11  2  0
 11 12  1  0
 12 13  1  0
 13 14  1  6
 13 15  1  0
 15 16  1  0
 16 17  1  0
 17 18  1  0
 18 19  1  0
 14  2  1  0
 19  4  1  0
 12  6  2  0
 19 13  1  0
  1 20  1  0
  1 21  1  0
  1 22  1  0
  3 23  1  0
  4 24  1  6
  5 25  1  0
  5 26  1  0
  7 27  1  0
 10 28  1  0
 11 29  1  0
 14 30  1  0
 14 31  1  0
 15 32  1  0
 15 33  1  0
 16 34  1  0
 16 35  1  0
 17 36  1  0
 17 37  1  0
 18 38  1  0
 18 39  1  0
 19 40  1  6
M  CHG  1  15   1
M  END
>  <meeko>  (3) 
{"is_sidechain": [false], "free_energy": -8.043, "intermolecular_energy": -8.043, "internal_energy": 0.0}

$$$$
1gpn_ligand
     RDKit          3D

 40 43  0  0  0  0  0  0  0  0999 V2000
   -1.6060    6.6040   -1.6570 C   0  0  0  0  0  0  0  0  0  0  0  0
   -1.2550    6.1970   -3.0610 C   0  0  0  0  0  0  0  0  0  0  0  0
   -1.7820    6.8150   -4.1380 C   0  0  0  0  0  0  0  0  0  0  0  0
   -1.4820    6.4210   -5.5770 C   0  0  1  0  0  0  0  0  0  0  0  0
   -0.4430    7.3740   -6.1930 C   0  0  0  0  0  0  0  0  0  0  0  0
    0.9580    7.0930   -5.7000 C   0  0  0  0  0  0  0  0  0  0  0  0
    1.9140    8.0350   -6.0080 N   0  0  0  0  0  0  0  0  0  0  0  0
    3.2270    7.9760   -5.6180 C   0  0  0  0  0  0  0  0  0  0  0  0
    4.0570    8.8170   -5.9290 O   0  0  0  0  0  0  0  0  0  0  0  0
    3.5860    6.8130   -4.7720 C   0  0  0  0  0  0  0  0  0  0  0  0
    2.6580    5.8940   -4.4710 C   0  0  0  0  0  0  0  0  0  0  0  0
    1.2900    6.0010   -4.9760 C   0  0  0  0  0  0  0  0  0  0  0  0
    0.2640    4.8940   -4.6590 C   0  0  2  0  0  0  0  0  0  0  0  0
   -0.2560    5.0590   -3.1980 C   0  0  0  0  0  0  0  0  0  0  0  0
    0.9090    3.5200   -4.8260 N   0  0  0  0  0  0  0  0  0  0  0  0
    0.0730    2.4670   -5.4690 C   0  0  0  0  0  0  0  0  0  0  0  0
   -0.2990    2.9070   -6.8800 C   0  0  0  0  0  0  0  0  0  0  0  0
   -0.6920    4.3860   -6.9800 C   0  0  0  0  0  0  0  0  0  0  0  0
   -0.9790    4.9660   -5.5920 C   0  0  2  0  0  0  0  0  0  0  0  0
   -1.0591    5.9698   -0.9438 H   0  0  0  0  0  0  0  0  0  0  0  0
   -1.3277    7.6566   -1.4999 H   0  0  0  0  0  0  0  0  0  0  0  0
   -2.6880    6.4834   -1.4999 H   0  0  0  0  0  0  0  0  0  0  0  0
   -2.4708    7.6552   -3.9656 H   0  0  0  0  0  0  0  0  0  0  0  0
   -2.3957    6.4968   -6.1848 H   0  0  0  0  0  0  0  0  0  0  0  0
   -0.4626    7.2591   -7.2868 H   0  0  0  0  0  0  0  0  0  0  0  0
   -0.7062    8.3986   -5.8913 H   0  0  0  0  0  0  0  0  0  0  0  0
    1.6730    8.8560   -6.5550 H   0  0  0  0  0  0  0  0  0  0  0  0
    4.6125    6.7044   -4.3918 H   0  0  0  0  0  0  0  0  0  0  0  0
    2.9311    5.0420   -3.8311 H   0  0  0  0  0  0  0  0  0  0  0  0
   -0.7434    4.1225   -2.8891 H   0  0  0  0  0  0  0  0  0  0  0  0
    0.6086    5.2943   -2.5599 H   0  0  0  0  0  0  0  0  0  0  0  0
    1.7490    3.6350   -5.4100 H   0  0  0  0  0  0  0  0  0  0  0  0
    1.2490    3.1840   -3.9170 H   0  0  0  0  0  0  0  0  0  0  0  0
    0.6404    1.5258   -5.5157 H   0  0  0  0  0  0  0  0  0  0  0  0
   -0.8425    2.3135   -4.8788 H   0  0  0  0  0  0  0  0  0  0  0  0
    0.5651    2.7318   -7.5378 H   0  0  0  0  0  0  0  0  0  0  0  0
   -1.1793    2.3191   -7.1789 H   0  0  0  0  0  0  0  0  0  0  0  0
    0.1327    4.9481   -7.4425 H   0  0  0  0  0  0  0  0  0  0  0  0
   -1.6019    4.4690   -7.5925 H   0  0  0  0  0  0  0  0  0  0  0  0
   -1.7934    4.3239   -5.2254 H   0  0  0  0  0  0  0  0  0  0  0  0
  1  2  1  0
  2  3  2  0
  3  4  1  0
  4  5  1  0
  5  6  1  0
  6  7  1  0
  7  8  1  0
  8  9  2  0
  8 10  1  0
 10 11  2  0
 11 12  1  0
 12 13  1  0
 13 14  1  1
 13 15  1  0
 15 16  1  0
 16 17  1  0
 17 18  1  0
 18 19  1  0
 14  2  1  0
 19  4  1  0
 12  6  2  0
 19 13  1  0
  1 20  1  0
  1 21  1  0
  1 22  1  0
  3 23  1  0
  4 24  1  6
  5 25  1  0
  5 26  1  0
  7 27  1  0
 10 28  1  0
 11 29  1  0
 14 30  1  0
 14 31  1  0
 15 32  1  0
 15 33  1  0
 16 34  1  0
 16 35  1  0
 17 36  1  0
 17 37  1  0
 18 38  1  0
 18 39  1  0
 19 40  1  1
M  CHG  1  15   1
M  END
>  <meeko>  (4) 
{"is_sidechain": [false], "free_energy": -7.719, "intermolecular_energy": -7.719, "internal_energy": 0.0}

$$$$
1gpn_ligand
     RDKit          3D

 40 43  0  0  0  0  0  0  0  0999 V2000
   -2.8110    6.9560   -2.6790 C   0  0  0  0  0  0  0  0  0  0  0  0
   -1.4360    6.5970   -3.1670 C   0  0  0  0  0  0  0  0  0  0  0  0
   -0.6000    5.8220   -2.4450 C   0  0  0  0  0  0  0  0  0  0  0  0
    0.8120    5.4570   -2.8810 C   0  0  1  0  0  0  0  0  0  0  0  0
    0.8440    4.0350   -3.4690 C   0  0  0  0  0  0  0  0  0  0  0  0
    0.2700    3.9770   -4.8670 C   0  0  0  0  0  0  0  0  0  0  0  0
    0.0390    2.7210   -5.3810 N   0  0  0  0  0  0  0  0  0  0  0  0
   -0.5100    2.4660   -6.6110 C   0  0  0  0  0  0  0  0  0  0  0  0
   -0.6790    1.3380   -7.0490 O   0  0  0  0  0  0  0  0  0  0  0  0
   -0.9020    3.6630   -7.3910 C   0  0  0  0  0  0  0  0  0  0  0  0
   -0.6780    4.8880   -6.8940 C   0  0  0  0  0  0  0  0  0  0  0  0
   -0.0330    5.0750   -5.5950 C   0  0  0  0  0  0  0  0  0  0  0  0
    0.2630    6.4980   -5.0810 C   0  0  2  0  0  0  0  0  0  0  0  0
   -1.0460    7.1430   -4.5310 C   0  0  0  0  0  0  0  0  0  0  0  0
    0.8270    7.3550   -6.2110 N   0  0  0  0  0  0  0  0  0  0  0  0
    1.9470    8.2720   -5.8560 C   0  0  0  0  0  0  0  0  0  0  0  0
    3.1280    7.4550   -5.3480 C   0  0  0  0  0  0  0  0  0  0  0  0
    2.7270    6.3100   -4.4100 C   0  0  0  0  0  0  0  0  0  0  0  0
    1.2910    6.4940   -3.9120 C   0  0  2  0  0  0  0  0  0  0  0  0
   -2.8206    6.9585   -1.5790 H   0  0  0  0  0  0  0  0  0  0  0  0
   -3.0826    7.9552   -3.0503 H   0  0  0  0  0  0  0  0  0  0  0  0
   -3.5364    6.2171   -3.0503 H   0  0  0  0  0  0  0  0  0  0  0  0
   -0.9609    5.4301   -1.4826 H   0  0  0  0  0  0  0  0  0  0  0  0
    1.4873    5.4686   -2.0128 H   0  0  0  0  0  0  0  0  0  0  0  0
    1.8877    3.6892   -3.5009 H   0  0  0  0  0  0  0  0  0  0  0  0
    0.2261    3.3916   -2.8254 H   0  0  0  0  0  0  0  0  0  0  0  0
    0.2680    1.8910   -4.8410 H   0  0  0  0  0  0  0  0  0  0  0  0
   -1.3763    3.5469   -8.3767 H   0  0  0  0  0  0  0  0  0  0  0  0
   -0.9856    5.7699   -7.4750 H   0  0  0  0  0  0  0  0  0  0  0  0
   -0.8952    8.2293   -4.4461 H   0  0  0  0  0  0  0  0  0  0  0  0
   -1.8580    6.9008   -5.2324 H   0  0  0  0  0  0  0  0  0  0  0  0
    1.1780    6.7220   -6.9430 H   0  0  0  0  0  0  0  0  0  0  0  0
    0.0690    7.8910   -6.6510 H   0  0  0  0  0  0  0  0  0  0  0  0
    2.2509    8.8420   -6.7464 H   0  0  0  0  0  0  0  0  0  0  0  0
    1.6171    8.9683   -5.0710 H   0  0  0  0  0  0  0  0  0  0  0  0
    3.6524    7.0265   -6.2148 H   0  0  0  0  0  0  0  0  0  0  0  0
    3.7657    8.1380   -4.7675 H   0  0  0  0  0  0  0  0  0  0  0  0
    2.8012    5.3561   -4.9528 H   0  0  0  0  0  0  0  0  0  0  0  0
    3.4040    6.3104   -3.5430 H   0  0  0  0  0  0  0  0  0  0  0  0
    1.3326    7.4720   -3.4101 H   0  0  0  0  0  0  0  0  0  0  0  0
  1  2  1  0
  2  3  2  0
  3  4  1  0
  4  5  1  0
  5  6  1  0
  6  7  1  0
  7  8  1  0
  8  9  2  0
  8 10  1  0
 10 11  2  0
 11 12  1  0
 12 13  1  0
 13 14  1  1
 13 15  1  0
 15 16  1  0
 16 17  1  0
 17 18  1  0
 18 19  1  0
 14  2  1  0
 19  4  1  0
 12  6  2  0
 19 13  1  0
  1 20  1  0
  1 21  1  0
  1 22  1  0
  3 23  1  0
  4 24  1  1
  5 25  1  0
  5 26  1  0
  7 27  1  0
 10 28  1  0
 11 29  1  0
 14 30  1  0
 14 31  1  0
 15 32  1  0
 15 33  1  0
 16 34  1  0
 16 35  1  0
 17 36  1  0
 17 37  1  0
 18 38  1  0
 18 39  1  0
 19 40  1  1
M  CHG  1  15   1
M  END
>  <meeko>  (5) 
{"is_sidechain": [false], "free_energy": -7.307, "intermolecular_energy": -7.307, "internal_energy": 0.0}

$$$$
1gpn_ligand
     RDKit          3D

 40 43  0  0  0  0  0  0  0  0999 V2000
   -6.7290   16.9300   -6.9630 C   0  0  0  0  0  0  0  0  0  0  0  0
   -7.6220   15.7360   -6.7780 C   0  0  0  0  0  0  0  0  0  0  0  0
   -7.5960   14.6850   -7.6240 C   0  0  0  0  0  0  0  0  0  0  0  0
   -8.5020   13.4680   -7.4970 C   0  0  1  0  0  0  0  0  0  0  0  0
   -7.7430   12.2960   -6.8510 C   0  0  0  0  0  0  0  0  0  0  0  0
   -7.5740   12.4720   -5.3590 C   0  0  0  0  0  0  0  0  0  0  0  0
   -6.7100   11.6010   -4.7350 N   0  0  0  0  0  0  0  0  0  0  0  0
   -6.3980   11.6270   -3.4000 C   0  0  0  0  0  0  0  0  0  0  0  0
   -5.6460   10.8230   -2.8710 O   0  0  0  0  0  0  0  0  0  0  0  0
   -7.0340   12.7160   -2.6220 C   0  0  0  0  0  0  0  0  0  0  0  0
   -7.8760   13.5660   -3.2260 C   0  0  0  0  0  0  0  0  0  0  0  0
   -8.2010   13.4340   -4.6460 C   0  0  0  0  0  0  0  0  0  0  0  0
   -9.2200   14.3930   -5.2940 C   0  0  2  0  0  0  0  0  0  0  0  0
   -8.5450   15.7710   -5.5710 C   0  0  0  0  0  0  0  0  0  0  0  0
  -10.4220   14.5810   -4.3720 N   0  0  0  0  0  0  0  0  0  0  0  0
  -11.7620   14.6140   -5.0230 C   0  0  0  0  0  0  0  0  0  0  0  0
  -12.0110   13.2910   -5.7370 C   0  0  0  0  0  0  0  0  0  0  0  0
  -10.7860   12.7590   -6.4920 C   0  0  0  0  0  0  0  0  0  0  0  0
   -9.7350   13.8590   -6.6630 C   0  0  2  0  0  0  0  0  0  0  0  0
   -6.4346   17.3237   -5.9789 H   0  0  0  0  0  0  0  0  0  0  0  0
   -5.8301   16.6323   -7.5227 H   0  0  0  0  0  0  0  0  0  0  0  0
   -7.2685   17.7082   -7.5227 H   0  0  0  0  0  0  0  0  0  0  0  0
   -6.8766   14.7090   -8.4558 H   0  0  0  0  0  0  0  0  0  0  0  0
   -8.8281   13.1370   -8.4940 H   0  0  0  0  0  0  0  0  0  0  0  0
   -8.3030   11.3675   -7.0361 H   0  0  0  0  0  0  0  0  0  0  0  0
   -6.7396   12.2576   -7.3002 H   0  0  0  0  0  0  0  0  0  0  0  0
   -6.2380   10.8730   -5.2640 H   0  0  0  0  0  0  0  0  0  0  0  0
   -6.8153   12.8267   -1.5497 H   0  0  0  0  0  0  0  0  0  0  0  0
   -8.3318   14.3792   -2.6421 H   0  0  0  0  0  0  0  0  0  0  0  0
   -9.3313   16.5191   -5.7500 H   0  0  0  0  0  0  0  0  0  0  0  0
   -7.9353   16.0267   -4.6919 H   0  0  0  0  0  0  0  0  0  0  0  0
  -10.4320   13.7980   -3.7030 H   0  0  0  0  0  0  0  0  0  0  0  0
  -10.2930   15.4270   -3.8040 H   0  0  0  0  0  0  0  0  0  0  0  0
  -12.5375   14.7701   -4.2587 H   0  0  0  0  0  0  0  0  0  0  0  0
  -11.7959   15.4369   -5.7522 H   0  0  0  0  0  0  0  0  0  0  0  0
  -12.3096   12.5427   -4.9880 H   0  0  0  0  0  0  0  0  0  0  0  0
  -12.7969   13.4718   -6.4851 H   0  0  0  0  0  0  0  0  0  0  0  0
  -10.3467   11.9250   -5.9250 H   0  0  0  0  0  0  0  0  0  0  0  0
  -11.1054   12.4177   -7.4877 H   0  0  0  0  0  0  0  0  0  0  0  0
  -10.2840   14.6351   -7.2165 H   0  0  0  0  0  0  0  0  0  0  0  0
  1  2  1  0
  2  3  2  0
  3  4  1  0
  4  5  1  0
  5  6  1  0
  6  7  1  0
  7  8  1  0
  8  9  2  0
  8 10  1  0
 10 11  2  0
 11 12  1  0
 12 13  1  0
 13 14  1  6
 13 15  1  0
 15 16  1  0
 16 17  1  0
 17 18  1  0
 18 19  1  0
 14  2  1  0
 19  4  1  0
 12  6  2  0
 19 13  1  0
  1 20  1  0
  1 21  1  0
  1 22  1  0
  3 23  1  0
  4 24  1  6
  5 25  1  0
  5 26  1  0
  7 27  1  0
 10 28  1  0
 11 29  1  0
 14 30  1  0
 14 31  1  0
 15 32  1  0
 15 33  1  0
 16 34  1  0
 16 35  1  0
 17 36  1  0
 17 37  1  0
 18 38  1  0
 18 39  1  0
 19 40  1  6
M  CHG  1  15   1
M  END
>  <meeko>  (6) 
{"is_sidechain": [false], "free_energy": -7.17, "intermolecular_energy": -7.17, "internal_energy": 0.0}

$$$$
1gpn_ligand
     RDKit          3D

 40 43  0  0  0  0  0  0  0  0999 V2000
  -12.0610   13.6220   -5.0970 C   0  0  0  0  0  0  0  0  0  0  0  0
  -11.5710   14.3560   -3.8810 C   0  0  0  0  0  0  0  0  0  0  0  0
  -12.0890   14.1350   -2.6540 C   0  0  0  0  0  0  0  0  0  0  0  0
  -11.6480   14.8750   -1.3990 C   0  0  1  0  0  0  0  0  0  0  0  0
  -10.6820   14.0080   -0.5730 C   0  0  0  0  0  0  0  0  0  0  0  0
   -9.2960   13.9590   -1.1730 C   0  0  0  0  0  0  0  0  0  0  0  0
   -8.4330   13.0270   -0.6420 N   0  0  0  0  0  0  0  0  0  0  0  0
   -7.1520   12.8070   -1.0780 C   0  0  0  0  0  0  0  0  0  0  0  0
   -6.4010   11.9880   -0.5680 O   0  0  0  0  0  0  0  0  0  0  0  0
   -6.7230   13.6320   -2.2320 C   0  0  0  0  0  0  0  0  0  0  0  0
   -7.5610   14.5410   -2.7510 C   0  0  0  0  0  0  0  0  0  0  0  0
   -8.8940   14.7540   -2.1900 C   0  0  0  0  0  0  0  0  0  0  0  0
   -9.8090   15.8490   -2.7750 C   0  0  2  0  0  0  0  0  0  0  0  0
  -10.4440   15.3500   -4.1080 C   0  0  0  0  0  0  0  0  0  0  0  0
   -9.0040   17.1220   -3.0290 N   0  0  0  0  0  0  0  0  0  0  0  0
   -9.6700   18.4100   -2.6850 C   0  0  0  0  0  0  0  0  0  0  0  0
   -9.9910   18.4330   -1.1960 C   0  0  0  0  0  0  0  0  0  0  0  0
  -10.5390   17.1020   -0.6640 C   0  0  0  0  0  0  0  0  0  0  0  0
  -10.9850   16.2000   -1.8170 C   0  0  2  0  0  0  0  0  0  0  0  0
  -12.6466   12.7448   -4.7846 H   0  0  0  0  0  0  0  0  0  0  0  0
  -12.6946   14.2906   -5.6983 H   0  0  0  0  0  0  0  0  0  0  0  0
  -11.2006   13.2932   -5.6983 H   0  0  0  0  0  0  0  0  0  0  0  0
  -12.8773   13.3742   -2.5552 H   0  0  0  0  0  0  0  0  0  0  0  0
  -12.5206   15.0895   -0.7644 H   0  0  0  0  0  0  0  0  0  0  0  0
  -10.6129   14.4254    0.4424 H   0  0  0  0  0  0  0  0  0  0  0  0
  -11.0788   12.9821   -0.5608 H   0  0  0  0  0  0  0  0  0  0  0  0
   -8.7250   12.4290    0.1250 H   0  0  0  0  0  0  0  0  0  0  0  0
   -5.7192   13.4989   -2.6618 H   0  0  0  0  0  0  0  0  0  0  0  0
   -7.2389   15.1386   -3.6165 H   0  0  0  0  0  0  0  0  0  0  0  0
  -10.8434   16.2171   -4.6545 H   0  0  0  0  0  0  0  0  0  0  0  0
   -9.6573   14.8374   -4.6810 H   0  0  0  0  0  0  0  0  0  0  0  0
   -8.1440   17.0690   -2.4660 H   0  0  0  0  0  0  0  0  0  0  0  0
   -8.6920   17.1450   -4.0080 H   0  0  0  0  0  0  0  0  0  0  0  0
   -8.9986   19.2466   -2.9284 H   0  0  0  0  0  0  0  0  0  0  0  0
  -10.6010   18.5075   -3.2627 H   0  0  0  0  0  0  0  0  0  0  0  0
   -9.0697   18.6744   -0.6455 H   0  0  0  0  0  0  0  0  0  0  0  0
  -10.7776   19.1875   -1.0477 H   0  0  0  0  0  0  0  0  0  0  0  0
   -9.7519   16.5913   -0.0899 H   0  0  0  0  0  0  0  0  0  0  0  0
  -11.4074   17.3091   -0.0213 H   0  0  0  0  0  0  0  0  0  0  0  0
  -11.7455   16.8132   -2.3226 H   0  0  0  0  0  0  0  0  0  0  0  0
  1  2  1  0
  2  3  2  0
  3  4  1  0
  4  5  1  0
  5  6  1  0
  6  7  1  0
  7  8  1  0
  8  9  2  0
  8 10  1  0
 10 11  2  0
 11 12  1  0
 12 13  1  0
 13 14  1  6
 13 15  1  0
 15 16  1  0
 16 17  1  0
 17 18  1  0
 18 19  1  0
 14  2  1  0
 19  4  1  0
 12  6  2  0
 19 13  1  0
  1 20  1  0
  1 21  1  0
  1 22  1  0
  3 23  1  0
  4 24  1  1
  5 25  1  0
  5 26  1  0
  7 27  1  0
 10 28  1  0
 11 29  1  0
 14 30  1  0
 14 31  1  0
 15 32  1  0
 15 33  1  0
 16 34  1  0
 16 35  1  0
 17 36  1  0
 17 37  1  0
 18 38  1  0
 18 39  1  0
 19 40  1  6
M  CHG  1  15   1
M  END
>  <meeko>  (7) 
{"is_sidechain": [false], "free_energy": -7.093, "intermolecular_energy": -7.093, "internal_energy": 0.0}

$$$$
