
     RDKit          3D

 38 42  0  0  0  0  0  0  0  0999 V2000
    7.2930    5.3430    7.1230 N   0  0  0  0  0  0  0  0  0  0  0  0
    7.1300    4.0020    7.2750 C   0  0  0  0  0  0  0  0  0  0  0  0
    6.4100    3.2770    6.3270 C   0  0  0  0  0  0  0  0  0  0  0  0
    6.2390    1.9330    6.4790 C   0  0  0  0  0  0  0  0  0  0  0  0
    6.8070    1.2750    7.5930 C   0  0  0  0  0  0  0  0  0  0  0  0
    6.6640   -0.1270    7.8030 C   0  0  0  0  0  0  0  0  0  0  0  0
    5.9180   -0.9470    6.8160 C   0  0  0  0  0  0  0  0  0  0  0  0
    5.9230   -2.3620    7.1180 N   0  0  0  0  0  0  0  0  0  0  0  0
    4.7930   -3.0150    7.4450 C   0  0  0  0  0  0  0  0  0  0  0  0
    3.7270   -2.4600    7.5240 O   0  0  0  0  0  0  0  0  0  0  0  0
    4.9340   -4.5010    7.6870 C   0  0  2  0  0  0  0  0  0  0  0  0
    5.2120   -5.1290    6.3250 C   0  0  0  0  0  0  0  0  0  0  0  0
    4.9140   -6.5800    6.2390 C   0  0  0  0  0  0  0  0  0  0  0  0
    5.8140   -7.5150    6.7160 C   0  0  0  0  0  0  0  0  0  0  0  0
    5.5370   -8.8670    6.6360 C   0  0  0  0  0  0  0  0  0  0  0  0
    4.3290   -9.2870    6.0560 C   0  0  0  0  0  0  0  0  0  0  0  0
    3.4130   -8.3480    5.5530 C   0  0  0  0  0  0  0  0  0  0  0  0
    3.7040   -6.9940    5.6420 C   0  0  0  0  0  0  0  0  0  0  0  0
    3.6920   -5.0270    8.2290 N   0  0  0  0  0  0  0  0  0  0  0  0
    3.5520   -5.4230    9.5080 C   0  0  0  0  0  0  0  0  0  0  0  0
    4.4710   -5.3970   10.2920 O   0  0  0  0  0  0  0  0  0  0  0  0
    2.2270   -5.9380    9.9240 C   0  0  0  0  0  0  0  0  0  0  0  0
    1.2070   -6.1260    8.9860 C   0  0  0  0  0  0  0  0  0  0  0  0
   -0.0290   -6.6320    9.3700 C   0  0  0  0  0  0  0  0  0  0  0  0
   -0.2830   -6.9710   10.7260 C   0  0  0  0  0  0  0  0  0  0  0  0
   -1.4990   -7.4770   11.1260 N   0  0  0  0  0  0  0  0  0  0  0  0
   -1.7480   -7.8030   12.4090 C   0  0  0  0  0  0  0  0  0  0  0  0
   -2.8920   -8.2830   12.7080 O   0  0  0  0  0  0  0  0  0  0  0  0
   -0.7460   -7.6150   13.3840 C   0  0  0  0  0  0  0  0  0  0  0  0
    0.4900   -7.1040   13.0230 C   0  0  0  0  0  0  0  0  0  0  0  0
    1.4480   -6.9290   13.9690 O   0  0  0  0  0  0  0  0  0  0  0  0
    0.7570   -6.7630   11.6780 C   0  0  0  0  0  0  0  0  0  0  0  0
    2.0000   -6.2560   11.2750 C   0  0  0  0  0  0  0  0  0  0  0  0
    7.2400   -0.6980    8.9170 C   0  0  0  0  0  0  0  0  0  0  0  0
    7.9640    0.0710    9.8490 C   0  0  0  0  0  0  0  0  0  0  0  0
    8.1130    1.4340    9.6540 C   0  0  0  0  0  0  0  0  0  0  0  0
    7.5350    2.0520    8.5270 C   0  0  0  0  0  0  0  0  0  0  0  0
    7.6870    3.3980    8.3500 N   0  0  0  0  0  0  0  0  0  0  0  0
  2  1  1  0
  3  2  2  0
  4  3  1  0
  5  4  2  0
  6  5  1  0
  7  6  1  0
  8  7  1  0
  9  8  1  0
 10  9  2  0
 11  9  1  0
 11 12  1  6
 13 12  1  0
 14 13  2  0
 15 14  1  0
 16 15  2  0
 17 16  1  0
 18 17  2  0
 18 13  1  0
 19 11  1  0
 20 19  1  0
 21 20  2  0
 22 20  1  0
 23 22  2  0
 24 23  1  0
 25 24  2  0
 26 25  1  0
 27 26  1  0
 28 27  2  0
 29 27  1  0
 30 29  2  0
 31 30  1  0
 32 25  1  0
 32 30  1  0
 33 22  1  0
 33 32  2  0
 34  6  2  0
 35 34  1  0
 36 35  2  0
 37 36  1  0
 37  5  1  0
 38 37  2  0
 38  2  1  0
M  END
$$$$
