
     RDKit          3D

 30 32  0  0  0  0  0  0  0  0999 V2000
   -3.9010   -0.4600    7.4790 C   0  0  0  0  0  0  0  0  0  0  0  0
   -5.0730   -0.0810    8.1690 O   0  0  0  0  0  0  0  0  0  0  0  0
   -5.0680    1.1310    8.7950 C   0  0  0  0  0  0  0  0  0  0  0  0
   -3.9730    1.9820    8.7910 C   0  0  0  0  0  0  0  0  0  0  0  0
   -4.0270    3.2000    9.4120 C   0  0  0  0  0  0  0  0  0  0  0  0
   -5.1790    3.5880   10.0510 C   0  0  0  0  0  0  0  0  0  0  0  0
   -5.2690    4.7910   10.6650 F   0  0  0  0  0  0  0  0  0  0  0  0
   -6.2850    2.7520   10.0870 C   0  0  0  0  0  0  0  0  0  0  0  0
   -7.4100    3.1260   10.7260 F   0  0  0  0  0  0  0  0  0  0  0  0
   -6.2410    1.5030    9.4730 C   0  0  0  0  0  0  0  0  0  0  0  0
   -7.4190    0.5900    9.5420 C   0  0  0  0  0  0  0  0  0  0  0  0
   -8.4820    0.9830    9.0650 O   0  0  0  0  0  0  0  0  0  0  0  0
   -7.2880   -0.7420   10.1760 C   0  0  0  0  0  0  0  0  0  0  0  0
   -6.0860   -1.1540   10.7590 C   0  0  0  0  0  0  0  0  0  0  0  0
   -5.9510   -2.3980   11.2990 N   0  0  0  0  0  0  0  0  0  0  0  0
   -6.9970   -3.2340   11.2960 C   0  0  0  0  0  0  0  0  0  0  0  0
   -6.8190   -4.4880   11.7940 N   0  0  0  0  0  0  0  0  0  0  0  0
   -5.5010   -5.0230   12.0950 C   0  0  1  0  0  0  0  0  0  0  0  0
   -5.5980   -6.3390   12.8410 C   0  0  0  0  0  0  0  0  0  0  0  0
   -4.2020   -6.9140   13.0740 C   0  0  0  0  0  0  0  0  0  0  0  0
   -3.4790   -7.0090   11.8130 N   0  0  0  0  0  0  0  0  0  0  0  0
   -2.3510   -8.1820   11.5860 S   0  0  2  0  0  0  0  0  0  0  0  0
   -0.8070   -7.4540   11.8930 C   0  0  0  0  0  0  0  0  0  0  0  0
   -2.4380   -8.6250   10.2150 O   0  0  0  0  0  0  0  0  0  0  0  0
   -2.6210   -9.2090   12.5660 O   0  0  0  0  0  0  0  0  0  0  0  0
   -3.3710   -5.8130   11.0040 C   0  0  0  0  0  0  0  0  0  0  0  0
   -4.7610   -5.2580   10.7690 C   0  0  0  0  0  0  0  0  0  0  0  0
   -8.2220   -2.8910   10.7970 N   0  0  0  0  0  0  0  0  0  0  0  0
   -8.3800   -1.6560   10.2340 C   0  0  0  0  0  0  0  0  0  0  0  0
   -9.5870   -1.3410    9.7180 N   0  0  0  0  0  0  0  0  0  0  0  0
  2  1  1  0
  3  2  1  0
  4  3  2  0
  5  4  1  0
  6  5  2  0
  7  6  1  0
  8  6  1  0
  9  8  1  0
 10  8  2  0
 10  3  1  0
 11 10  1  0
 12 11  2  0
 13 11  1  0
 14 13  2  0
 15 14  1  0
 16 15  2  0
 17 16  1  0
 18 17  1  6
 19 18  1  0
 20 19  1  0
 21 20  1  0
 22 21  1  0
 22 23  1  1
 24 22  2  0
 25 22  2  0
 26 21  1  0
 27 18  1  0
 27 26  1  0
 28 16  1  0
 29 28  2  0
 29 13  1  0
 30 29  1  0
M  END
$$$$
