
     RDKit          3D

  9  9  0  0  0  0  0  0  0  0999 V2000
   -8.9860   -4.6460    1.4200 C   0  0  0  0  0  0  0  0  0  0  0  0
   -9.5300   -6.0010    1.1150 C   0  0  0  0  0  0  0  0  0  0  0  0
  -10.8070   -6.3540    1.5280 C   0  0  0  0  0  0  0  0  0  0  0  0
  -11.2780   -7.6290    1.2240 C   0  0  0  0  0  0  0  0  0  0  0  0
  -12.6410   -8.0800    1.6310 C   0  0  0  0  0  0  0  0  0  0  0  0
  -10.4790   -8.5040    0.5300 N   0  0  0  0  0  0  0  0  0  0  0  0
   -9.2450   -8.1250    0.1450 C   0  0  0  0  0  0  0  0  0  0  0  0
   -8.4880   -9.0090   -0.5330 N   0  0  0  0  0  0  0  0  0  0  0  0
   -8.7580   -6.8900    0.4210 N   0  0  0  0  0  0  0  0  0  0  0  0
  2  1  1  0
  3  2  2  0
  4  3  1  0
  5  4  1  0
  6  4  2  0
  7  6  1  0
  8  7  1  0
  9  7  2  0
  9  2  1  0
M  END
$$$$
