3kr8_ligand
     RDKit          3D

 32 34  0  0  0  0  0  0  0  0999 V2000
   -4.7050    1.4560   -9.0930 O   0  0  0  0  0  0  0  0  0  0  0  0
   -4.6840    2.2750   -8.1810 C   0  0  0  0  0  0  0  0  0  0  0  0
   -5.0570    1.9430   -6.9140 N   0  0  0  0  0  0  0  0  0  0  0  0
   -5.0340    2.8420   -5.8820 C   0  0  0  0  0  0  0  0  0  0  0  0
   -5.4470    2.3460   -4.5410 C   0  0  0  0  0  0  0  0  0  0  0  0
   -4.6250    1.5110   -3.7750 C   0  0  0  0  0  0  0  0  0  0  0  0
   -5.0540    1.0660   -2.5200 C   0  0  0  0  0  0  0  0  0  0  0  0
   -6.3130    1.4340   -2.0190 C   0  0  0  0  0  0  0  0  0  0  0  0
   -6.7630    0.9670   -0.6540 C   0  0  0  0  0  0  0  0  0  0  0  0
   -5.9340    0.0200   -0.1350 F   0  0  0  0  0  0  0  0  0  0  0  0
   -8.0060    0.4100   -0.6670 F   0  0  0  0  0  0  0  0  0  0  0  0
   -6.8140    1.9680    0.2660 F   0  0  0  0  0  0  0  0  0  0  0  0
   -7.1330    2.2660   -2.7950 C   0  0  0  0  0  0  0  0  0  0  0  0
   -6.7060    2.7120   -4.0490 C   0  0  0  0  0  0  0  0  0  0  0  0
   -4.6580    4.0700   -6.0430 N   0  0  0  0  0  0  0  0  0  0  0  0
   -4.2830    4.4810   -7.3030 C   0  0  0  0  0  0  0  0  0  0  0  0
   -4.2610    3.6800   -8.3840 C   0  0  0  0  0  0  0  0  0  0  0  0
   -3.8520    4.0230   -9.7830 C   0  0  0  0  0  0  0  0  0  0  0  0
   -2.9640    5.6000   -9.9320 S   0  0  0  0  0  0  0  0  0  0  0  0
   -3.9640    6.5610   -8.7680 C   0  0  0  0  0  0  0  0  0  0  0  0
   -3.9070    5.9460   -7.3750 C   0  0  0  0  0  0  0  0  0  0  0  0
   -5.2950    0.9730   -6.7790 H   0  0  0  0  0  0  0  0  0  0  0  0
   -3.6412    1.2046   -4.1601 H   0  0  0  0  0  0  0  0  0  0  0  0
   -4.3973    0.4202   -1.9186 H   0  0  0  0  0  0  0  0  0  0  0  0
   -8.1192    2.5698   -2.4141 H   0  0  0  0  0  0  0  0  0  0  0  0
   -7.3631    3.3546   -4.6533 H   0  0  0  0  0  0  0  0  0  0  0  0
   -3.1980    3.2218  -10.1577 H   0  0  0  0  0  0  0  0  0  0  0  0
   -4.7782    4.1247  -10.3677 H   0  0  0  0  0  0  0  0  0  0  0  0
   -3.5784    7.5903   -8.7245 H   0  0  0  0  0  0  0  0  0  0  0  0
   -5.0084    6.5595   -9.1132 H   0  0  0  0  0  0  0  0  0  0  0  0
   -2.8794    6.0529   -6.9972 H   0  0  0  0  0  0  0  0  0  0  0  0
   -4.6539    6.4836   -6.7724 H   0  0  0  0  0  0  0  0  0  0  0  0
  1  2  2  0
  2  3  1  0
  3  4  1  0
  4  5  1  0
  5  6  2  0
  6  7  1  0
  7  8  2  0
  8  9  1  0
  9 10  1  0
  9 11  1  0
  9 12  1  0
  8 13  1  0
 13 14  2  0
  4 15  2  0
 15 16  1  0
 16 17  2  0
 17 18  1  0
 18 19  1  0
 19 20  1  0
 20 21  1  0
 17  2  1  0
 14  5  1  0
 21 16  1  0
  3 22  1  0
  6 23  1  0
  7 24  1  0
 13 25  1  0
 14 26  1  0
 18 27  1  0
 18 28  1  0
 20 29  1  0
 20 30  1  0
 21 31  1  0
 21 32  1  0
M  END
>  <meeko>  (1) 
{"is_sidechain": [false], "free_energy": -9.894, "intermolecular_energy": -11.051, "internal_energy": -0.359}

$$$$
3kr8_ligand
     RDKit          3D

 32 34  0  0  0  0  0  0  0  0999 V2000
   -3.6940    3.3590   -9.0900 O   0  0  0  0  0  0  0  0  0  0  0  0
   -3.9700    4.1360   -8.1830 C   0  0  0  0  0  0  0  0  0  0  0  0
   -5.1470    4.0480   -7.5030 N   0  0  0  0  0  0  0  0  0  0  0  0
   -5.4700    4.9020   -6.4820 C   0  0  0  0  0  0  0  0  0  0  0  0
   -6.7780    4.6850   -5.8060 C   0  0  0  0  0  0  0  0  0  0  0  0
   -7.8870    5.5020   -6.0590 C   0  0  0  0  0  0  0  0  0  0  0  0
   -9.0980    5.2630   -5.3990 C   0  0  0  0  0  0  0  0  0  0  0  0
   -9.2150    4.2170   -4.4690 C   0  0  0  0  0  0  0  0  0  0  0  0
  -10.5300    3.9510   -3.7750 C   0  0  0  0  0  0  0  0  0  0  0  0
  -10.3630    3.3140   -2.5830 F   0  0  0  0  0  0  0  0  0  0  0  0
  -11.3660    3.1620   -4.5070 F   0  0  0  0  0  0  0  0  0  0  0  0
  -11.2330    5.0840   -3.5020 F   0  0  0  0  0  0  0  0  0  0  0  0
   -8.0980    3.4080   -4.2180 C   0  0  0  0  0  0  0  0  0  0  0  0
   -6.8870    3.6440   -4.8760 C   0  0  0  0  0  0  0  0  0  0  0  0
   -4.6790    5.8520   -6.0990 N   0  0  0  0  0  0  0  0  0  0  0  0
   -3.4790    6.0110   -6.7550 C   0  0  0  0  0  0  0  0  0  0  0  0
   -3.0590    5.2240   -7.7640 C   0  0  0  0  0  0  0  0  0  0  0  0
   -1.7710    5.3010   -8.5230 C   0  0  0  0  0  0  0  0  0  0  0  0
   -0.5120    6.3540   -7.7470 S   0  0  0  0  0  0  0  0  0  0  0  0
   -1.6030    7.6980   -7.2150 C   0  0  0  0  0  0  0  0  0  0  0  0
   -2.6610    7.1800   -6.2480 C   0  0  0  0  0  0  0  0  0  0  0  0
   -5.7360    3.2730   -7.7640 H   0  0  0  0  0  0  0  0  0  0  0  0
   -7.8063    6.3318   -6.7766 H   0  0  0  0  0  0  0  0  0  0  0  0
   -9.9681    5.9017   -5.6111 H   0  0  0  0  0  0  0  0  0  0  0  0
   -8.1748    2.5805   -3.4973 H   0  0  0  0  0  0  0  0  0  0  0  0
   -6.0152    3.0083   -4.6618 H   0  0  0  0  0  0  0  0  0  0  0  0
   -1.3622    4.2837   -8.6130 H   0  0  0  0  0  0  0  0  0  0  0  0
   -2.0050    5.7539   -9.4977 H   0  0  0  0  0  0  0  0  0  0  0  0
   -1.0041    8.4729   -6.7142 H   0  0  0  0  0  0  0  0  0  0  0  0
   -2.1058    8.1173   -8.0990 H   0  0  0  0  0  0  0  0  0  0  0  0
   -2.1532    6.8652   -5.3244 H   0  0  0  0  0  0  0  0  0  0  0  0
   -3.3701    8.0075   -6.0986 H   0  0  0  0  0  0  0  0  0  0  0  0
  1  2  2  0
  2  3  1  0
  3  4  1  0
  4  5  1  0
  5  6  2  0
  6  7  1  0
  7  8  2  0
  8  9  1  0
  9 10  1  0
  9 11  1  0
  9 12  1  0
  8 13  1  0
 13 14  2  0
  4 15  2  0
 15 16  1  0
 16 17  2  0
 17 18  1  0
 18 19  1  0
 19 20  1  0
 20 21  1  0
 17  2  1  0
 14  5  1  0
 21 16  1  0
  3 22  1  0
  6 23  1  0
  7 24  1  0
 13 25  1  0
 14 26  1  0
 18 27  1  0
 18 28  1  0
 20 29  1  0
 20 30  1  0
 21 31  1  0
 21 32  1  0
M  END
>  <meeko>  (2) 
{"is_sidechain": [false], "free_energy": -9.661, "intermolecular_energy": -10.791, "internal_energy": -0.359}

$$$$
3kr8_ligand
     RDKit          3D

 32 34  0  0  0  0  0  0  0  0999 V2000
   -3.4230    3.9850   -9.7930 O   0  0  0  0  0  0  0  0  0  0  0  0
   -3.6120    4.5930   -8.7450 C   0  0  0  0  0  0  0  0  0  0  0  0
   -4.7500    4.4220   -8.0160 N   0  0  0  0  0  0  0  0  0  0  0  0
   -4.9750    5.0870   -6.8400 C   0  0  0  0  0  0  0  0  0  0  0  0
   -6.2510    4.7940   -6.1310 C   0  0  0  0  0  0  0  0  0  0  0  0
   -6.3780    3.7120   -5.2510 C   0  0  0  0  0  0  0  0  0  0  0  0
   -7.5970    3.4730   -4.6070 C   0  0  0  0  0  0  0  0  0  0  0  0
   -8.7080    4.2990   -4.8420 C   0  0  0  0  0  0  0  0  0  0  0  0
  -10.0150    4.0480   -4.1280 C   0  0  0  0  0  0  0  0  0  0  0  0
  -10.6920    5.2030   -3.8730 F   0  0  0  0  0  0  0  0  0  0  0  0
   -9.8530    3.4360   -2.9220 F   0  0  0  0  0  0  0  0  0  0  0  0
  -10.8700    3.2590   -4.8330 F   0  0  0  0  0  0  0  0  0  0  0  0
   -8.5740    5.3770   -5.7280 C   0  0  0  0  0  0  0  0  0  0  0  0
   -7.3570    5.6180   -6.3740 C   0  0  0  0  0  0  0  0  0  0  0  0
   -4.1220    5.9240   -6.3440 N   0  0  0  0  0  0  0  0  0  0  0  0
   -2.9560    6.1590   -7.0380 C   0  0  0  0  0  0  0  0  0  0  0  0
   -2.6300    5.5560   -8.1960 C   0  0  0  0  0  0  0  0  0  0  0  0
   -1.3860    5.7270   -9.0110 C   0  0  0  0  0  0  0  0  0  0  0  0
   -0.0390    6.5790   -8.1410 S   0  0  0  0  0  0  0  0  0  0  0  0
   -1.0370    7.8390   -7.3070 C   0  0  0  0  0  0  0  0  0  0  0  0
   -2.0600    7.1890   -6.3830 C   0  0  0  0  0  0  0  0  0  0  0  0
   -5.3860    3.7280   -8.3740 H   0  0  0  0  0  0  0  0  0  0  0  0
   -5.5193    3.0499   -5.0660 H   0  0  0  0  0  0  0  0  0  0  0  0
   -7.6861    2.6280   -3.9083 H   0  0  0  0  0  0  0  0  0  0  0  0
   -9.4325    6.0384   -5.9167 H   0  0  0  0  0  0  0  0  0  0  0  0
   -7.2681    6.4595   -7.0769 H   0  0  0  0  0  0  0  0  0  0  0  0
   -1.0286    4.7302   -9.3086 H   0  0  0  0  0  0  0  0  0  0  0  0
   -1.6554    6.3570   -9.8715 H   0  0  0  0  0  0  0  0  0  0  0  0
   -0.3766    8.4893   -6.7145 H   0  0  0  0  0  0  0  0  0  0  0  0
   -1.5703    8.4289   -8.0670 H   0  0  0  0  0  0  0  0  0  0  0  0
   -1.5148    6.6952   -5.5651 H   0  0  0  0  0  0  0  0  0  0  0  0
   -2.7226    7.9985   -6.0428 H   0  0  0  0  0  0  0  0  0  0  0  0
  1  2  2  0
  2  3  1  0
  3  4  1  0
  4  5  1  0
  5  6  2  0
  6  7  1  0
  7  8  2  0
  8  9  1  0
  9 10  1  0
  9 11  1  0
  9 12  1  0
  8 13  1  0
 13 14  2  0
  4 15  2  0
 15 16  1  0
 16 17  2  0
 17 18  1  0
 18 19  1  0
 19 20  1  0
 20 21  1  0
 17  2  1  0
 14  5  1  0
 21 16  1  0
  3 22  1  0
  6 23  1  0
  7 24  1  0
 13 25  1  0
 14 26  1  0
 18 27  1  0
 18 28  1  0
 20 29  1  0
 20 30  1  0
 21 31  1  0
 21 32  1  0
M  END
>  <meeko>  (3) 
{"is_sidechain": [false], "free_energy": -9.574, "intermolecular_energy": -10.696, "internal_energy": -0.357}

$$$$
3kr8_ligand
     RDKit          3D

 32 34  0  0  0  0  0  0  0  0999 V2000
   -2.7670    9.1560   -6.4080 O   0  0  0  0  0  0  0  0  0  0  0  0
   -3.0830    8.0290   -6.7750 C   0  0  0  0  0  0  0  0  0  0  0  0
   -4.2090    7.4180   -6.3130 N   0  0  0  0  0  0  0  0  0  0  0  0
   -4.5820    6.1640   -6.7160 C   0  0  0  0  0  0  0  0  0  0  0  0
   -5.8460    5.6190   -6.1500 C   0  0  0  0  0  0  0  0  0  0  0  0
   -5.8980    4.3690   -5.5210 C   0  0  0  0  0  0  0  0  0  0  0  0
   -7.1090    3.8950   -5.0040 C   0  0  0  0  0  0  0  0  0  0  0  0
   -8.2860    4.6520   -5.1220 C   0  0  0  0  0  0  0  0  0  0  0  0
   -9.5860    4.1440   -4.5450 C   0  0  0  0  0  0  0  0  0  0  0  0
  -10.2770    3.3740   -5.4310 F   0  0  0  0  0  0  0  0  0  0  0  0
  -10.4330    5.1470   -4.1810 F   0  0  0  0  0  0  0  0  0  0  0  0
   -9.4180    3.3790   -3.4320 F   0  0  0  0  0  0  0  0  0  0  0  0
   -8.2260    5.9000   -5.7590 C   0  0  0  0  0  0  0  0  0  0  0  0
   -7.0180    6.3760   -6.2750 C   0  0  0  0  0  0  0  0  0  0  0  0
   -3.8870    5.4740   -7.5620 N   0  0  0  0  0  0  0  0  0  0  0  0
   -2.7250    6.0230   -8.0580 C   0  0  0  0  0  0  0  0  0  0  0  0
   -2.2710    7.2490   -7.7360 C   0  0  0  0  0  0  0  0  0  0  0  0
   -1.0390    7.9400   -8.2330 C   0  0  0  0  0  0  0  0  0  0  0  0
   -0.2860    7.1600   -9.6900 S   0  0  0  0  0  0  0  0  0  0  0  0
   -0.5000    5.4330   -9.1870 C   0  0  0  0  0  0  0  0  0  0  0  0
   -1.9770    5.1070   -9.0020 C   0  0  0  0  0  0  0  0  0  0  0  0
   -4.7780    7.9790   -5.6990 H   0  0  0  0  0  0  0  0  0  0  0  0
   -4.9866    3.7594   -5.4332 H   0  0  0  0  0  0  0  0  0  0  0  0
   -7.1393    2.9181   -4.4993 H   0  0  0  0  0  0  0  0  0  0  0  0
   -9.1372    6.5089   -5.8531 H   0  0  0  0  0  0  0  0  0  0  0  0
   -6.9871    7.3514   -6.7826 H   0  0  0  0  0  0  0  0  0  0  0  0
   -1.3053    8.9748   -8.4943 H   0  0  0  0  0  0  0  0  0  0  0  0
   -0.2959    7.8831   -7.4239 H   0  0  0  0  0  0  0  0  0  0  0  0
   -0.0792    4.7759   -9.9623 H   0  0  0  0  0  0  0  0  0  0  0  0
    0.0203    5.2752   -8.2308 H   0  0  0  0  0  0  0  0  0  0  0  0
   -2.4638    5.1622   -9.9869 H   0  0  0  0  0  0  0  0  0  0  0  0
   -2.0144    4.1052   -8.5493 H   0  0  0  0  0  0  0  0  0  0  0  0
  1  2  2  0
  2  3  1  0
  3  4  1  0
  4  5  1  0
  5  6  2  0
  6  7  1  0
  7  8  2  0
  8  9  1  0
  9 10  1  0
  9 11  1  0
  9 12  1  0
  8 13  1  0
 13 14  2  0
  4 15  2  0
 15 16  1  0
 16 17  2  0
 17 18  1  0
 18 19  1  0
 19 20  1  0
 20 21  1  0
 17  2  1  0
 14  5  1  0
 21 16  1  0
  3 22  1  0
  6 23  1  0
  7 24  1  0
 13 25  1  0
 14 26  1  0
 18 27  1  0
 18 28  1  0
 20 29  1  0
 20 30  1  0
 21 31  1  0
 21 32  1  0
M  END
>  <meeko>  (4) 
{"is_sidechain": [false], "free_energy": -9.297, "intermolecular_energy": -10.37, "internal_energy": -0.374}

$$$$
3kr8_ligand
     RDKit          3D

 32 34  0  0  0  0  0  0  0  0999 V2000
   -3.5120    6.7500   -5.6530 O   0  0  0  0  0  0  0  0  0  0  0  0
   -4.3840    6.1400   -6.2610 C   0  0  0  0  0  0  0  0  0  0  0  0
   -5.5580    5.7920   -5.6650 N   0  0  0  0  0  0  0  0  0  0  0  0
   -6.5480    5.1170   -6.3300 C   0  0  0  0  0  0  0  0  0  0  0  0
   -7.7900    4.8150   -5.5690 C   0  0  0  0  0  0  0  0  0  0  0  0
   -8.9660    5.5540   -5.7470 C   0  0  0  0  0  0  0  0  0  0  0  0
  -10.1120    5.2360   -5.0090 C   0  0  0  0  0  0  0  0  0  0  0  0
  -10.0960    4.1890   -4.0730 C   0  0  0  0  0  0  0  0  0  0  0  0
  -11.3410    3.8370   -3.2940 C   0  0  0  0  0  0  0  0  0  0  0  0
  -12.2520    3.1660   -4.0540 F   0  0  0  0  0  0  0  0  0  0  0  0
  -11.9920    4.9310   -2.8100 F   0  0  0  0  0  0  0  0  0  0  0  0
  -11.0940    3.0430   -2.2160 F   0  0  0  0  0  0  0  0  0  0  0  0
   -8.9130    3.4570   -3.8970 C   0  0  0  0  0  0  0  0  0  0  0  0
   -7.7670    3.7730   -4.6330 C   0  0  0  0  0  0  0  0  0  0  0  0
   -6.4310    4.7640   -7.5690 N   0  0  0  0  0  0  0  0  0  0  0  0
   -5.2620    5.0680   -8.2310 C   0  0  0  0  0  0  0  0  0  0  0  0
   -4.2310    5.7330   -7.6770 C   0  0  0  0  0  0  0  0  0  0  0  0
   -2.9350    6.1290   -8.3130 C   0  0  0  0  0  0  0  0  0  0  0  0
   -2.9240    5.9910  -10.1240 S   0  0  0  0  0  0  0  0  0  0  0  0
   -3.8330    4.4310  -10.2620 C   0  0  0  0  0  0  0  0  0  0  0  0
   -5.2250    4.5650   -9.6580 C   0  0  0  0  0  0  0  0  0  0  0  0
   -5.6700    6.1180   -4.7180 H   0  0  0  0  0  0  0  0  0  0  0  0
   -8.9892    6.3850   -6.4673 H   0  0  0  0  0  0  0  0  0  0  0  0
  -11.0358    5.8127   -5.1639 H   0  0  0  0  0  0  0  0  0  0  0  0
   -8.8864    2.6280   -3.1745 H   0  0  0  0  0  0  0  0  0  0  0  0
   -6.8414    3.1997   -4.4761 H   0  0  0  0  0  0  0  0  0  0  0  0
   -2.7243    7.1749   -8.0451 H   0  0  0  0  0  0  0  0  0  0  0  0
   -2.1716    5.4317   -7.9374 H   0  0  0  0  0  0  0  0  0  0  0  0
   -3.9246    4.1589  -11.3239 H   0  0  0  0  0  0  0  0  0  0  0  0
   -3.2831    3.6511   -9.7148 H   0  0  0  0  0  0  0  0  0  0  0  0
   -5.8004    5.2657  -10.2809 H   0  0  0  0  0  0  0  0  0  0  0  0
   -5.6471    3.5495   -9.6350 H   0  0  0  0  0  0  0  0  0  0  0  0
  1  2  2  0
  2  3  1  0
  3  4  1  0
  4  5  1  0
  5  6  2  0
  6  7  1  0
  7  8  2  0
  8  9  1  0
  9 10  1  0
  9 11  1  0
  9 12  1  0
  8 13  1  0
 13 14  2  0
  4 15  2  0
 15 16  1  0
 16 17  2  0
 17 18  1  0
 18 19  1  0
 19 20  1  0
 20 21  1  0
 17  2  1  0
 14  5  1  0
 21 16  1  0
  3 22  1  0
  6 23  1  0
  7 24  1  0
 13 25  1  0
 14 26  1  0
 18 27  1  0
 18 28  1  0
 20 29  1  0
 20 30  1  0
 21 31  1  0
 21 32  1  0
M  END
>  <meeko>  (5) 
{"is_sidechain": [false], "free_energy": -9.225, "intermolecular_energy": -10.305, "internal_energy": -0.358}

$$$$
3kr8_ligand
     RDKit          3D

 32 34  0  0  0  0  0  0  0  0999 V2000
   -2.7960    6.6960  -11.6940 O   0  0  0  0  0  0  0  0  0  0  0  0
   -2.7230    6.5630  -10.4770 C   0  0  0  0  0  0  0  0  0  0  0  0
   -3.8170    6.2550   -9.7270 N   0  0  0  0  0  0  0  0  0  0  0  0
   -3.7540    6.0950   -8.3680 C   0  0  0  0  0  0  0  0  0  0  0  0
   -5.0190    5.7380   -7.6690 C   0  0  0  0  0  0  0  0  0  0  0  0
   -5.6180    4.4820   -7.8170 C   0  0  0  0  0  0  0  0  0  0  0  0
   -6.8080    4.1890   -7.1410 C   0  0  0  0  0  0  0  0  0  0  0  0
   -7.4240    5.1490   -6.3230 C   0  0  0  0  0  0  0  0  0  0  0  0
   -8.6980    4.8210   -5.5800 C   0  0  0  0  0  0  0  0  0  0  0  0
   -9.4160    5.9370   -5.2710 F   0  0  0  0  0  0  0  0  0  0  0  0
   -8.4730    4.1820   -4.3980 F   0  0  0  0  0  0  0  0  0  0  0  0
   -9.5390    4.0160   -6.2840 F   0  0  0  0  0  0  0  0  0  0  0  0
   -6.8200    6.4070   -6.1840 C   0  0  0  0  0  0  0  0  0  0  0  0
   -5.6310    6.7020   -6.8580 C   0  0  0  0  0  0  0  0  0  0  0  0
   -2.6500    6.2300   -7.7060 N   0  0  0  0  0  0  0  0  0  0  0  0
   -1.5070    6.5590   -8.3990 C   0  0  0  0  0  0  0  0  0  0  0  0
   -1.4540    6.7310   -9.7330 C   0  0  0  0  0  0  0  0  0  0  0  0
   -0.2640    7.0670  -10.5780 C   0  0  0  0  0  0  0  0  0  0  0  0
    1.3290    6.8710   -9.7290 S   0  0  0  0  0  0  0  0  0  0  0  0
    0.8420    7.5510   -8.1220 C   0  0  0  0  0  0  0  0  0  0  0  0
   -0.2910    6.7330   -7.5140 C   0  0  0  0  0  0  0  0  0  0  0  0
   -4.6630    6.0940  -10.2500 H   0  0  0  0  0  0  0  0  0  0  0  0
   -5.1532    3.7244   -8.4651 H   0  0  0  0  0  0  0  0  0  0  0  0
   -7.2658    3.1950   -7.2520 H   0  0  0  0  0  0  0  0  0  0  0  0
   -7.2853    7.1676   -5.5397 H   0  0  0  0  0  0  0  0  0  0  0  0
   -5.1737    7.6967   -6.7507 H   0  0  0  0  0  0  0  0  0  0  0  0
   -0.2690    6.4082  -11.4589 H   0  0  0  0  0  0  0  0  0  0  0  0
   -0.3533    8.1311  -10.8419 H   0  0  0  0  0  0  0  0  0  0  0  0
    1.7075    7.5300   -7.4434 H   0  0  0  0  0  0  0  0  0  0  0  0
    0.4954    8.5851   -8.2651 H   0  0  0  0  0  0  0  0  0  0  0  0
    0.1013    5.7337   -7.2743 H   0  0  0  0  0  0  0  0  0  0  0  0
   -0.6332    7.2938   -6.6317 H   0  0  0  0  0  0  0  0  0  0  0  0
  1  2  2  0
  2  3  1  0
  3  4  1  0
  4  5  1  0
  5  6  2  0
  6  7  1  0
  7  8  2  0
  8  9  1  0
  9 10  1  0
  9 11  1  0
  9 12  1  0
  8 13  1  0
 13 14  2  0
  4 15  2  0
 15 16  1  0
 16 17  2  0
 17 18  1  0
 18 19  1  0
 19 20  1  0
 20 21  1  0
 17  2  1  0
 14  5  1  0
 21 16  1  0
  3 22  1  0
  6 23  1  0
  7 24  1  0
 13 25  1  0
 14 26  1  0
 18 27  1  0
 18 28  1  0
 20 29  1  0
 20 30  1  0
 21 31  1  0
 21 32  1  0
M  END
>  <meeko>  (6) 
{"is_sidechain": [false], "free_energy": -8.939, "intermolecular_energy": -9.979, "internal_energy": -0.364}

$$$$
3kr8_ligand
     RDKit          3D

 32 34  0  0  0  0  0  0  0  0999 V2000
   -3.9290    3.2270   -9.5600 O   0  0  0  0  0  0  0  0  0  0  0  0
   -3.4780    4.1700   -8.9190 C   0  0  0  0  0  0  0  0  0  0  0  0
   -2.3250    4.7950   -9.2860 N   0  0  0  0  0  0  0  0  0  0  0  0
   -1.8100    5.8540   -8.5880 C   0  0  0  0  0  0  0  0  0  0  0  0
   -0.5530    6.4600   -9.1070 C   0  0  0  0  0  0  0  0  0  0  0  0
    0.3410    7.1400   -8.2720 C   0  0  0  0  0  0  0  0  0  0  0  0
    1.5110    7.6960   -8.8030 C   0  0  0  0  0  0  0  0  0  0  0  0
    1.7960    7.5950  -10.1740 C   0  0  0  0  0  0  0  0  0  0  0  0
    3.0700    8.1790  -10.7380 C   0  0  0  0  0  0  0  0  0  0  0  0
    4.1500    7.3840  -10.5000 F   0  0  0  0  0  0  0  0  0  0  0  0
    3.3760    9.3960  -10.2080 F   0  0  0  0  0  0  0  0  0  0  0  0
    3.0270    8.3610  -12.0860 F   0  0  0  0  0  0  0  0  0  0  0  0
    0.8920    6.9170  -11.0040 C   0  0  0  0  0  0  0  0  0  0  0  0
   -0.2760    6.3600  -10.4770 C   0  0  0  0  0  0  0  0  0  0  0  0
   -2.3840    6.3300   -7.5310 N   0  0  0  0  0  0  0  0  0  0  0  0
   -3.5460    5.7360   -7.0920 C   0  0  0  0  0  0  0  0  0  0  0  0
   -4.1420    4.6970   -7.7050 C   0  0  0  0  0  0  0  0  0  0  0  0
   -5.4090    3.9970   -7.3220 C   0  0  0  0  0  0  0  0  0  0  0  0
   -6.4100    4.8920   -6.0980 S   0  0  0  0  0  0  0  0  0  0  0  0
   -5.0580    5.4640   -5.0390 C   0  0  0  0  0  0  0  0  0  0  0  0
   -4.0990    6.3510   -5.8230 C   0  0  0  0  0  0  0  0  0  0  0  0
   -1.9100    4.4590  -10.1410 H   0  0  0  0  0  0  0  0  0  0  0  0
    0.1242    7.2376   -7.1980 H   0  0  0  0  0  0  0  0  0  0  0  0
    2.2151    8.2180   -8.1384 H   0  0  0  0  0  0  0  0  0  0  0  0
    1.1041    6.8228  -12.0792 H   0  0  0  0  0  0  0  0  0  0  0  0
   -0.9820    5.8401  -11.1412 H   0  0  0  0  0  0  0  0  0  0  0  0
   -6.0152    3.8587   -8.2294 H   0  0  0  0  0  0  0  0  0  0  0  0
   -5.1168    3.0439   -6.8570 H   0  0  0  0  0  0  0  0  0  0  0  0
   -5.4755    6.0379   -4.1985 H   0  0  0  0  0  0  0  0  0  0  0  0
   -4.5059    4.5887   -4.6662 H   0  0  0  0  0  0  0  0  0  0  0  0
   -4.6336    7.2728   -6.0961 H   0  0  0  0  0  0  0  0  0  0  0  0
   -3.2347    6.5241   -5.1649 H   0  0  0  0  0  0  0  0  0  0  0  0
  1  2  2  0
  2  3  1  0
  3  4  1  0
  4  5  1  0
  5  6  2  0
  6  7  1  0
  7  8  2  0
  8  9  1  0
  9 10  1  0
  9 11  1  0
  9 12  1  0
  8 13  1  0
 13 14  2  0
  4 15  2  0
 15 16  1  0
 16 17  2  0
 17 18  1  0
 18 19  1  0
 19 20  1  0
 20 21  1  0
 17  2  1  0
 14  5  1  0
 21 16  1  0
  3 22  1  0
  6 23  1  0
  7 24  1  0
 13 25  1  0
 14 26  1  0
 18 27  1  0
 18 28  1  0
 20 29  1  0
 20 30  1  0
 21 31  1  0
 21 32  1  0
M  END
>  <meeko>  (7) 
{"is_sidechain": [false], "free_energy": -8.865, "intermolecular_energy": -9.865, "internal_energy": -0.395}

$$$$
3kr8_ligand
     RDKit          3D

 32 34  0  0  0  0  0  0  0  0999 V2000
   -3.5840    7.0330   -5.5600 O   0  0  0  0  0  0  0  0  0  0  0  0
   -3.1650    6.3830   -6.5110 C   0  0  0  0  0  0  0  0  0  0  0  0
   -2.0630    6.7710   -7.2090 N   0  0  0  0  0  0  0  0  0  0  0  0
   -1.5750    6.0550   -8.2700 C   0  0  0  0  0  0  0  0  0  0  0  0
   -0.3500    6.5780   -8.9350 C   0  0  0  0  0  0  0  0  0  0  0  0
    0.5700    7.3880   -8.2600 C   0  0  0  0  0  0  0  0  0  0  0  0
    1.7090    7.8590   -8.9240 C   0  0  0  0  0  0  0  0  0  0  0  0
    1.9370    7.5400  -10.2720 C   0  0  0  0  0  0  0  0  0  0  0  0
    3.1770    8.0340  -10.9780 C   0  0  0  0  0  0  0  0  0  0  0  0
    3.3560    9.3760  -10.8280 F   0  0  0  0  0  0  0  0  0  0  0  0
    3.1490    7.8080  -12.3220 F   0  0  0  0  0  0  0  0  0  0  0  0
    4.3210    7.4500  -10.5270 F   0  0  0  0  0  0  0  0  0  0  0  0
    1.0070    6.7320  -10.9420 C   0  0  0  0  0  0  0  0  0  0  0  0
   -0.1310    6.2610  -10.2810 C   0  0  0  0  0  0  0  0  0  0  0  0
   -2.1340    4.9630   -8.6820 N   0  0  0  0  0  0  0  0  0  0  0  0
   -3.2640    4.5190   -8.0330 C   0  0  0  0  0  0  0  0  0  0  0  0
   -3.8220    5.1400   -6.9760 C   0  0  0  0  0  0  0  0  0  0  0  0
   -5.0310    4.7300   -6.1930 C   0  0  0  0  0  0  0  0  0  0  0  0
   -5.5750    3.0260   -6.5040 S   0  0  0  0  0  0  0  0  0  0  0  0
   -5.3160    3.0040   -8.2960 C   0  0  0  0  0  0  0  0  0  0  0  0
   -3.8510    3.2590   -8.6310 C   0  0  0  0  0  0  0  0  0  0  0  0
   -1.5970    7.5900   -6.8520 H   0  0  0  0  0  0  0  0  0  0  0  0
    0.3981    7.6549   -7.2068 H   0  0  0  0  0  0  0  0  0  0  0  0
    2.4333    8.4860   -8.3835 H   0  0  0  0  0  0  0  0  0  0  0  0
    1.1744    6.4667  -11.9963 H   0  0  0  0  0  0  0  0  0  0  0  0
   -0.8586    5.6377  -10.8214 H   0  0  0  0  0  0  0  0  0  0  0  0
   -4.7984    4.8281   -5.1224 H   0  0  0  0  0  0  0  0  0  0  0  0
   -5.8528    5.3879   -6.5121 H   0  0  0  0  0  0  0  0  0  0  0  0
   -5.6112    2.0210   -8.6916 H   0  0  0  0  0  0  0  0  0  0  0  0
   -5.9266    3.7974   -8.7517 H   0  0  0  0  0  0  0  0  0  0  0  0
   -3.2643    2.4033   -8.2655 H   0  0  0  0  0  0  0  0  0  0  0  0
   -3.8052    3.3886   -9.7224 H   0  0  0  0  0  0  0  0  0  0  0  0
  1  2  2  0
  2  3  1  0
  3  4  1  0
  4  5  1  0
  5  6  2  0
  6  7  1  0
  7  8  2  0
  8  9  1  0
  9 10  1  0
  9 11  1  0
  9 12  1  0
  8 13  1  0
 13 14  2  0
  4 15  2  0
 15 16  1  0
 16 17  2  0
 17 18  1  0
 18 19  1  0
 19 20  1  0
 20 21  1  0
 17  2  1  0
 14  5  1  0
 21 16  1  0
  3 22  1  0
  6 23  1  0
  7 24  1  0
 13 25  1  0
 14 26  1  0
 18 27  1  0
 18 28  1  0
 20 29  1  0
 20 30  1  0
 21 31  1  0
 21 32  1  0
M  END
>  <meeko>  (8) 
{"is_sidechain": [false], "free_energy": -8.8, "intermolecular_energy": -9.791, "internal_energy": -0.398}

$$$$
3kr8_ligand
     RDKit          3D

 32 34  0  0  0  0  0  0  0  0999 V2000
   -6.0480    2.3540   -3.9170 O   0  0  0  0  0  0  0  0  0  0  0  0
   -6.1270    3.3330   -4.6500 C   0  0  0  0  0  0  0  0  0  0  0  0
   -5.0270    3.8670   -5.2490 N   0  0  0  0  0  0  0  0  0  0  0  0
   -5.0960    4.9560   -6.0760 C   0  0  0  0  0  0  0  0  0  0  0  0
   -3.8220    5.4270   -6.6840 C   0  0  0  0  0  0  0  0  0  0  0  0
   -3.0580    6.4480   -6.1060 C   0  0  0  0  0  0  0  0  0  0  0  0
   -1.8670    6.8610   -6.7120 C   0  0  0  0  0  0  0  0  0  0  0  0
   -1.4290    6.2740   -7.9100 C   0  0  0  0  0  0  0  0  0  0  0  0
   -0.1320    6.7090   -8.5500 C   0  0  0  0  0  0  0  0  0  0  0  0
    0.8180    7.0240   -7.6260 F   0  0  0  0  0  0  0  0  0  0  0  0
   -0.2720    7.8140   -9.3340 F   0  0  0  0  0  0  0  0  0  0  0  0
    0.4210    5.7550   -9.3470 F   0  0  0  0  0  0  0  0  0  0  0  0
   -2.2030    5.2560   -8.4860 C   0  0  0  0  0  0  0  0  0  0  0  0
   -3.3940    4.8410   -7.8820 C   0  0  0  0  0  0  0  0  0  0  0  0
   -6.2140    5.5530   -6.3410 N   0  0  0  0  0  0  0  0  0  0  0  0
   -7.3660    5.0780   -5.7550 C   0  0  0  0  0  0  0  0  0  0  0  0
   -7.4120    4.0120   -4.9340 C   0  0  0  0  0  0  0  0  0  0  0  0
   -8.6090    3.4070   -4.2680 C   0  0  0  0  0  0  0  0  0  0  0  0
  -10.1990    3.9800   -4.9340 S   0  0  0  0  0  0  0  0  0  0  0  0
   -9.7680    5.7270   -5.1390 C   0  0  0  0  0  0  0  0  0  0  0  0
   -8.5990    5.8830   -6.1040 C   0  0  0  0  0  0  0  0  0  0  0  0
   -4.1670    3.3670   -5.0880 H   0  0  0  0  0  0  0  0  0  0  0  0
   -3.3948    6.9259   -5.1742 H   0  0  0  0  0  0  0  0  0  0  0  0
   -1.2663    7.6551   -6.2445 H   0  0  0  0  0  0  0  0  0  0  0  0
   -1.8705    4.7802   -9.4204 H   0  0  0  0  0  0  0  0  0  0  0  0
   -3.9981    4.0500   -8.3503 H   0  0  0  0  0  0  0  0  0  0  0  0
   -8.5569    2.3151   -4.3902 H   0  0  0  0  0  0  0  0  0  0  0  0
   -8.5763    3.7193   -3.2138 H   0  0  0  0  0  0  0  0  0  0  0  0
  -10.6387    6.2697   -5.5356 H   0  0  0  0  0  0  0  0  0  0  0  0
   -9.4765    6.1368   -4.1607 H   0  0  0  0  0  0  0  0  0  0  0  0
   -8.9379    5.5712   -7.1029 H   0  0  0  0  0  0  0  0  0  0  0  0
   -8.2990    6.9401   -6.0530 H   0  0  0  0  0  0  0  0  0  0  0  0
  1  2  2  0
  2  3  1  0
  3  4  1  0
  4  5  1  0
  5  6  2  0
  6  7  1  0
  7  8  2  0
  8  9  1  0
  9 10  1  0
  9 11  1  0
  9 12  1  0
  8 13  1  0
 13 14  2  0
  4 15  2  0
 15 16  1  0
 16 17  2  0
 17 18  1  0
 18 19  1  0
 19 20  1  0
 20 21  1  0
 17  2  1  0
 14  5  1  0
 21 16  1  0
  3 22  1  0
  6 23  1  0
  7 24  1  0
 13 25  1  0
 14 26  1  0
 18 27  1  0
 18 28  1  0
 20 29  1  0
 20 30  1  0
 21 31  1  0
 21 32  1  0
M  END
>  <meeko>  (9) 
{"is_sidechain": [false], "free_energy": -8.512, "intermolecular_energy": -9.509, "internal_energy": -0.357}

$$$$
