2yge_ligand
     RDKit          3D

 80 81  0  0  0  0  0  0  0  0999 V2000
   -3.8170    3.5800    0.4730 C   0  0  0  0  0  0  0  0  0  0  0  0
   -3.9380    3.6000   -0.9470 O   0  0  0  0  0  0  0  0  0  0  0  0
   -4.5320    2.4710   -1.5040 C   0  0  0  0  0  0  0  0  0  0  0  0
   -5.8450    2.5080   -1.7940 C   0  0  0  0  0  0  0  0  0  0  0  0
   -6.7000    3.7360   -1.5440 C   0  0  0  0  0  0  0  0  0  0  0  0
   -6.5910    4.8150   -2.6510 C   0  0  2  0  0  0  0  0  0  0  0  0
   -7.4520    6.0330   -2.3140 C   0  0  0  0  0  0  0  0  0  0  0  0
   -6.8280    4.2920   -4.0840 C   0  0  0  0  0  0  0  0  0  0  0  0
   -8.2600    3.9060   -4.5500 C   0  0  2  0  0  0  0  0  0  0  0  0
   -9.1490    3.8110   -3.4410 O   0  0  0  0  0  0  0  0  0  0  0  0
  -10.3830    4.4940   -3.6230 C   0  0  0  0  0  0  0  0  0  0  0  0
   -8.1940    2.5580   -5.3240 C   0  0  2  0  0  0  0  0  0  0  0  0
   -6.8280    2.1210   -5.4240 O   0  0  0  0  0  0  0  0  0  0  0  0
   -8.8710    2.5670   -6.7220 C   0  0  1  0  0  0  0  0  0  0  0  0
   -8.0480    3.2890   -7.7900 C   0  0  0  0  0  0  0  0  0  0  0  0
   -9.1180    1.1340   -7.1660 C   0  0  0  0  0  0  0  0  0  0  0  0
  -10.2510    0.6130   -7.6860 C   0  0  0  0  0  0  0  0  0  0  0  0
  -11.4680    1.4270   -8.0380 C   0  0  0  0  0  0  0  0  0  0  0  0
  -10.3540   -0.8970   -7.9330 C   0  0  2  0  0  0  0  0  0  0  0  0
  -10.9640   -1.0690   -9.2290 O   0  0  0  0  0  0  0  0  0  0  0  0
  -10.1700   -1.5300  -10.2110 C   0  0  0  0  0  0  0  0  0  0  0  0
  -10.2210   -2.8800  -10.2400 N   0  0  0  0  0  0  0  0  0  0  0  0
   -9.4850   -0.8700  -10.9760 O   0  0  0  0  0  0  0  0  0  0  0  0
  -11.1670   -1.6150   -6.7960 C   0  0  1  0  0  0  0  0  0  0  0  0
  -12.5300   -1.8030   -7.2160 O   0  0  0  0  0  0  0  0  0  0  0  0
  -13.4780   -1.5540   -6.1870 C   0  0  0  0  0  0  0  0  0  0  0  0
  -10.5740   -2.9620   -6.4590 C   0  0  0  0  0  0  0  0  0  0  0  0
   -9.3710   -3.2090   -5.9170 C   0  0  0  0  0  0  0  0  0  0  0  0
   -8.4050   -2.2190   -5.5020 C   0  0  0  0  0  0  0  0  0  0  0  0
   -7.2370   -2.4910   -4.8890 C   0  0  0  0  0  0  0  0  0  0  0  0
   -6.6670   -3.8320   -4.5590 C   0  0  0  0  0  0  0  0  0  0  0  0
   -6.3400   -1.3380   -4.6080 C   0  0  0  0  0  0  0  0  0  0  0  0
   -5.6170   -0.8880   -5.4880 O   0  0  0  0  0  0  0  0  0  0  0  0
   -6.4120   -0.9160   -3.3020 N   0  0  0  0  0  0  0  0  0  0  0  0
   -5.7060    0.1060   -2.6910 C   0  0  0  0  0  0  0  0  0  0  0  0
   -4.4070    0.0860   -2.3870 C   0  0  0  0  0  0  0  0  0  0  0  0
   -3.7370    1.2220   -1.7320 C   0  0  0  0  0  0  0  0  0  0  0  0
   -2.5600    1.1140   -1.4060 O   0  0  0  0  0  0  0  0  0  0  0  0
   -6.5270    1.3080   -2.3480 C   0  0  0  0  0  0  0  0  0  0  0  0
   -7.7390    1.2680   -2.5440 O   0  0  0  0  0  0  0  0  0  0  0  0
   -4.8053    3.7434    0.9275 H   0  0  0  0  0  0  0  0  0  0  0  0
   -3.4226    2.6045    0.7937 H   0  0  0  0  0  0  0  0  0  0  0  0
   -3.1297    4.3767    0.7937 H   0  0  0  0  0  0  0  0  0  0  0  0
   -7.7506    3.4177   -1.4733 H   0  0  0  0  0  0  0  0  0  0  0  0
   -6.3336    4.1954   -0.6141 H   0  0  0  0  0  0  0  0  0  0  0  0
   -5.5383    5.1341   -2.6596 H   0  0  0  0  0  0  0  0  0  0  0  0
   -7.5265    6.1384   -1.2216 H   0  0  0  0  0  0  0  0  0  0  0  0
   -6.9910    6.9368   -2.7390 H   0  0  0  0  0  0  0  0  0  0  0  0
   -8.4578    5.8999   -2.7390 H   0  0  0  0  0  0  0  0  0  0  0  0
   -6.4727    5.0755   -4.7695 H   0  0  0  0  0  0  0  0  0  0  0  0
   -6.2950    3.3298   -4.0904 H   0  0  0  0  0  0  0  0  0  0  0  0
   -8.6490    4.6907   -5.2155 H   0  0  0  0  0  0  0  0  0  0  0  0
  -10.8173    4.7344   -2.6414 H   0  0  0  0  0  0  0  0  0  0  0  0
  -10.2082    5.4238   -4.1842 H   0  0  0  0  0  0  0  0  0  0  0  0
  -11.0780    3.8522   -4.1842 H   0  0  0  0  0  0  0  0  0  0  0  0
   -8.7861    1.8449   -4.7316 H   0  0  0  0  0  0  0  0  0  0  0  0
   -6.7900    1.3890   -6.0630 H   0  0  0  0  0  0  0  0  0  0  0  0
   -9.8153    3.1212   -6.6169 H   0  0  0  0  0  0  0  0  0  0  0  0
   -7.3063    3.9397   -7.3037 H   0  0  0  0  0  0  0  0  0  0  0  0
   -7.5306    2.5481   -8.4172 H   0  0  0  0  0  0  0  0  0  0  0  0
   -8.7152    3.8985   -8.4172 H   0  0  0  0  0  0  0  0  0  0  0  0
   -8.2737    0.4385   -7.0501 H   0  0  0  0  0  0  0  0  0  0  0  0
  -11.9658    1.7600   -7.1153 H   0  0  0  0  0  0  0  0  0  0  0  0
  -11.1642    2.3044   -8.6279 H   0  0  0  0  0  0  0  0  0  0  0  0
  -12.1629    0.8113   -8.6279 H   0  0  0  0  0  0  0  0  0  0  0  0
   -9.3578   -1.3632   -7.9174 H   0  0  0  0  0  0  0  0  0  0  0  0
   -9.5900   -3.3740  -10.8510 H   0  0  0  0  0  0  0  0  0  0  0  0
  -10.6970   -3.3630   -9.4940 H   0  0  0  0  0  0  0  0  0  0  0  0
  -11.1249   -0.9761   -5.9015 H   0  0  0  0  0  0  0  0  0  0  0  0
  -12.9963   -1.6805   -5.2062 H   0  0  0  0  0  0  0  0  0  0  0  0
  -13.8576   -0.5257   -6.2791 H   0  0  0  0  0  0  0  0  0  0  0  0
  -14.3139   -2.2630   -6.2791 H   0  0  0  0  0  0  0  0  0  0  0  0
  -11.1980   -3.8398   -6.6828 H   0  0  0  0  0  0  0  0  0  0  0  0
   -9.0952   -4.2644   -5.7757 H   0  0  0  0  0  0  0  0  0  0  0  0
   -8.6409   -1.1633   -5.7016 H   0  0  0  0  0  0  0  0  0  0  0  0
   -6.6167   -3.9503   -3.4665 H   0  0  0  0  0  0  0  0  0  0  0  0
   -7.3089   -4.6179   -4.9837 H   0  0  0  0  0  0  0  0  0  0  0  0
   -5.6557   -3.9152   -4.9837 H   0  0  0  0  0  0  0  0  0  0  0  0
   -7.0210   -1.4340   -2.6680 H   0  0  0  0  0  0  0  0  0  0  0  0
   -3.8169   -0.8089   -2.6339 H   0  0  0  0  0  0  0  0  0  0  0  0
  1  2  1  0
  2  3  1  0
  3  4  2  0
  4  5  1  0
  5  6  1  0
  6  7  1  0
  6  8  1  0
  8  9  1  0
  9 10  1  0
 10 11  1  0
  9 12  1  0
 12 13  1  0
 12 14  1  0
 14 15  1  0
 14 16  1  0
 16 17  2  0
 17 18  1  0
 17 19  1  0
 19 20  1  0
 20 21  1  0
 21 22  1  0
 21 23  2  0
 19 24  1  0
 24 25  1  0
 25 26  1  0
 24 27  1  0
 27 28  2  0
 28 29  1  0
 29 30  2  0
 30 31  1  0
 30 32  1  0
 32 33  2  0
 32 34  1  0
 34 35  1  0
 35 36  2  0
 36 37  1  0
 37 38  2  0
 35 39  1  0
 39 40  2  0
 37  3  1  0
 39  4  1  0
  1 41  1  0
  1 42  1  0
  1 43  1  0
  5 44  1  0
  5 45  1  0
  6 46  1  6
  7 47  1  0
  7 48  1  0
  7 49  1  0
  8 50  1  0
  8 51  1  0
  9 52  1  6
 11 53  1  0
 11 54  1  0
 11 55  1  0
 12 56  1  1
 13 57  1  0
 14 58  1  1
 15 59  1  0
 15 60  1  0
 15 61  1  0
 16 62  1  0
 18 63  1  0
 18 64  1  0
 18 65  1  0
 19 66  1  6
 22 67  1  0
 22 68  1  0
 24 69  1  1
 26 70  1  0
 26 71  1  0
 26 72  1  0
 27 73  1  0
 28 74  1  0
 29 75  1  0
 31 76  1  0
 31 77  1  0
 31 78  1  0
 34 79  1  0
 36 80  1  0
M  END
>  <meeko>  (1) 
{"is_sidechain": [false], "free_energy": -5.826, "intermolecular_energy": -11.787, "internal_energy": -1.911}

$$$$
2yge_ligand
     RDKit          3D

 80 81  0  0  0  0  0  0  0  0999 V2000
  -10.3660    5.7780   -0.0600 C   0  0  0  0  0  0  0  0  0  0  0  0
  -10.2780    6.3830   -1.3480 O   0  0  0  0  0  0  0  0  0  0  0  0
  -10.2910    5.4940   -2.4190 C   0  0  0  0  0  0  0  0  0  0  0  0
   -9.1210    5.1460   -2.9850 C   0  0  0  0  0  0  0  0  0  0  0  0
   -7.7890    5.6820   -2.4960 C   0  0  0  0  0  0  0  0  0  0  0  0
   -6.9970    4.6870   -1.6100 C   0  0  2  0  0  0  0  0  0  0  0  0
   -6.7940    5.2500   -0.2030 C   0  0  0  0  0  0  0  0  0  0  0  0
   -5.6870    4.1670   -2.2420 C   0  0  0  0  0  0  0  0  0  0  0  0
   -5.3510    2.6490   -2.2100 C   0  0  2  0  0  0  0  0  0  0  0  0
   -4.2580    2.3880   -1.3350 O   0  0  0  0  0  0  0  0  0  0  0  0
   -4.4130    1.2180   -0.5420 C   0  0  0  0  0  0  0  0  0  0  0  0
   -5.0380    2.1990   -3.6700 C   0  0  2  0  0  0  0  0  0  0  0  0
   -5.2430    3.3110   -4.5580 O   0  0  0  0  0  0  0  0  0  0  0  0
   -5.7710    0.9340   -4.1960 C   0  0  1  0  0  0  0  0  0  0  0  0
   -7.1950    0.7910   -3.6580 C   0  0  0  0  0  0  0  0  0  0  0  0
   -5.8130    0.9780   -5.7150 C   0  0  0  0  0  0  0  0  0  0  0  0
   -5.3530    0.0490   -6.5810 C   0  0  0  0  0  0  0  0  0  0  0  0
   -4.8100   -1.2940   -6.1680 C   0  0  0  0  0  0  0  0  0  0  0  0
   -5.3490    0.3430   -8.0860 C   0  0  2  0  0  0  0  0  0  0  0  0
   -4.0190    0.7880   -8.4230 O   0  0  0  0  0  0  0  0  0  0  0  0
   -3.2350   -0.0920   -9.0680 C   0  0  0  0  0  0  0  0  0  0  0  0
   -1.9440    0.2950   -8.9740 N   0  0  0  0  0  0  0  0  0  0  0  0
   -3.5900   -1.0940   -9.6680 O   0  0  0  0  0  0  0  0  0  0  0  0
   -6.4430    1.4030   -8.4710 C   0  0  1  0  0  0  0  0  0  0  0  0
   -5.8510    2.4480   -9.2630 O   0  0  0  0  0  0  0  0  0  0  0  0
   -6.4070    3.7310   -9.0110 C   0  0  0  0  0  0  0  0  0  0  0  0
   -7.5680    0.7760   -9.2600 C   0  0  0  0  0  0  0  0  0  0  0  0
   -8.8690    0.7350   -8.9300 C   0  0  0  0  0  0  0  0  0  0  0  0
   -9.4690    1.3300   -7.7580 C   0  0  0  0  0  0  0  0  0  0  0  0
  -10.5250    0.8260   -7.0930 C   0  0  0  0  0  0  0  0  0  0  0  0
  -11.2590   -0.4460   -7.3700 C   0  0  0  0  0  0  0  0  0  0  0  0
  -10.9510    1.5440   -5.8620 C   0  0  0  0  0  0  0  0  0  0  0  0
  -11.8720    1.1110   -5.1820 O   0  0  0  0  0  0  0  0  0  0  0  0
  -10.2340    2.6960   -5.6450 N   0  0  0  0  0  0  0  0  0  0  0  0
  -10.3770    3.6150   -4.6190 C   0  0  0  0  0  0  0  0  0  0  0  0
  -11.5280    3.9790   -4.0490 C   0  0  0  0  0  0  0  0  0  0  0  0
  -11.5850    4.9680   -2.9610 C   0  0  0  0  0  0  0  0  0  0  0  0
  -12.6780    5.3220   -2.5310 O   0  0  0  0  0  0  0  0  0  0  0  0
   -9.0960    4.2340   -4.1590 C   0  0  0  0  0  0  0  0  0  0  0  0
   -8.0610    3.9620   -4.7620 O   0  0  0  0  0  0  0  0  0  0  0  0
  -10.2538    6.5496    0.7160 H   0  0  0  0  0  0  0  0  0  0  0  0
  -11.3449    5.2881    0.0489 H   0  0  0  0  0  0  0  0  0  0  0  0
   -9.5673    5.0296    0.0489 H   0  0  0  0  0  0  0  0  0  0  0  0
   -7.1731    5.9306   -3.3728 H   0  0  0  0  0  0  0  0  0  0  0  0
   -8.0090    6.5599   -1.8708 H   0  0  0  0  0  0  0  0  0  0  0  0
   -7.6247    3.7873   -1.5291 H   0  0  0  0  0  0  0  0  0  0  0  0
   -7.0690    4.4872    0.5403 H   0  0  0  0  0  0  0  0  0  0  0  0
   -5.7386    5.5293   -0.0686 H   0  0  0  0  0  0  0  0  0  0  0  0
   -7.4284    6.1385   -0.0686 H   0  0  0  0  0  0  0  0  0  0  0  0
   -5.7066    4.4645   -3.3008 H   0  0  0  0  0  0  0  0  0  0  0  0
   -4.9082    4.6093   -1.6034 H   0  0  0  0  0  0  0  0  0  0  0  0
   -6.2055    2.0759   -1.8210 H   0  0  0  0  0  0  0  0  0  0  0  0
   -4.3770    1.4897    0.5233 H   0  0  0  0  0  0  0  0  0  0  0  0
   -5.3813    0.7475   -0.7679 H   0  0  0  0  0  0  0  0  0  0  0  0
   -3.6006    0.5116   -0.7679 H   0  0  0  0  0  0  0  0  0  0  0  0
   -3.9859    1.8791   -3.6442 H   0  0  0  0  0  0  0  0  0  0  0  0
   -4.6970    3.1710   -5.3500 H   0  0  0  0  0  0  0  0  0  0  0  0
   -5.2043    0.0623   -3.8369 H   0  0  0  0  0  0  0  0  0  0  0  0
   -7.1734    0.7932   -2.5582 H   0  0  0  0  0  0  0  0  0  0  0  0
   -7.8078    1.6321   -4.0144 H   0  0  0  0  0  0  0  0  0  0  0  0
   -7.6283   -0.1552   -4.0144 H   0  0  0  0  0  0  0  0  0  0  0  0
   -6.2723    1.8721   -6.1617 H   0  0  0  0  0  0  0  0  0  0  0  0
   -4.7844   -1.3573   -5.0701 H   0  0  0  0  0  0  0  0  0  0  0  0
   -5.4572   -2.0894   -6.5661 H   0  0  0  0  0  0  0  0  0  0  0  0
   -3.7919   -1.4161   -6.5661 H   0  0  0  0  0  0  0  0  0  0  0  0
   -5.6037   -0.5603   -8.6598 H   0  0  0  0  0  0  0  0  0  0  0  0
   -1.2490   -0.2060   -9.5060 H   0  0  0  0  0  0  0  0  0  0  0  0
   -1.7370    1.2010   -8.5850 H   0  0  0  0  0  0  0  0  0  0  0  0
   -6.8528    1.8133   -7.5363 H   0  0  0  0  0  0  0  0  0  0  0  0
   -6.4773    3.8933   -7.9253 H   0  0  0  0  0  0  0  0  0  0  0  0
   -5.7630    4.5036   -9.4563 H   0  0  0  0  0  0  0  0  0  0  0  0
   -7.4111    3.7894   -9.4563 H   0  0  0  0  0  0  0  0  0  0  0  0
   -7.2904    0.2995  -10.2118 H   0  0  0  0  0  0  0  0  0  0  0  0
   -9.5407    0.1983   -9.6161 H   0  0  0  0  0  0  0  0  0  0  0  0
   -9.0297    2.2653   -7.3809 H   0  0  0  0  0  0  0  0  0  0  0  0
  -11.5352   -0.9246   -6.4188 H   0  0  0  0  0  0  0  0  0  0  0  0
  -12.1690   -0.2259   -7.9475 H   0  0  0  0  0  0  0  0  0  0  0  0
  -10.6131   -1.1237   -7.9475 H   0  0  0  0  0  0  0  0  0  0  0  0
   -9.5330    2.9570   -6.3390 H   0  0  0  0  0  0  0  0  0  0  0  0
  -12.4646    3.5246   -4.4044 H   0  0  0  0  0  0  0  0  0  0  0  0
  1  2  1  0
  2  3  1  0
  3  4  2  0
  4  5  1  0
  5  6  1  0
  6  7  1  0
  6  8  1  0
  8  9  1  0
  9 10  1  0
 10 11  1  0
  9 12  1  0
 12 13  1  0
 12 14  1  0
 14 15  1  0
 14 16  1  0
 16 17  2  0
 17 18  1  0
 17 19  1  0
 19 20  1  0
 20 21  1  0
 21 22  1  0
 21 23  2  0
 19 24  1  0
 24 25  1  0
 25 26  1  0
 24 27  1  0
 27 28  2  0
 28 29  1  0
 29 30  2  0
 30 31  1  0
 30 32  1  0
 32 33  2  0
 32 34  1  0
 34 35  1  0
 35 36  2  0
 36 37  1  0
 37 38  2  0
 35 39  1  0
 39 40  2  0
 37  3  1  0
 39  4  1  0
  1 41  1  0
  1 42  1  0
  1 43  1  0
  5 44  1  0
  5 45  1  0
  6 46  1  1
  7 47  1  0
  7 48  1  0
  7 49  1  0
  8 50  1  0
  8 51  1  0
  9 52  1  1
 11 53  1  0
 11 54  1  0
 11 55  1  0
 12 56  1  1
 13 57  1  0
 14 58  1  6
 15 59  1  0
 15 60  1  0
 15 61  1  0
 16 62  1  0
 18 63  1  0
 18 64  1  0
 18 65  1  0
 19 66  1  6
 22 67  1  0
 22 68  1  0
 24 69  1  1
 26 70  1  0
 26 71  1  0
 26 72  1  0
 27 73  1  0
 28 74  1  0
 29 75  1  0
 31 76  1  0
 31 77  1  0
 31 78  1  0
 34 79  1  0
 36 80  1  0
M  END
>  <meeko>  (2) 
{"is_sidechain": [false], "free_energy": -5.565, "intermolecular_energy": -10.717, "internal_energy": -2.453}

$$$$
2yge_ligand
     RDKit          3D

 80 81  0  0  0  0  0  0  0  0999 V2000
   -3.9150    3.0310    0.4050 C   0  0  0  0  0  0  0  0  0  0  0  0
   -4.3490    3.3030   -0.9250 O   0  0  0  0  0  0  0  0  0  0  0  0
   -4.9850    2.2440   -1.5660 C   0  0  0  0  0  0  0  0  0  0  0  0
   -6.2760    2.3810   -1.9150 C   0  0  0  0  0  0  0  0  0  0  0  0
   -7.0640    3.6480   -1.6440 C   0  0  0  0  0  0  0  0  0  0  0  0
   -6.9510    4.7120   -2.7650 C   0  0  2  0  0  0  0  0  0  0  0  0
   -6.8530    6.1190   -2.1750 C   0  0  0  0  0  0  0  0  0  0  0  0
   -8.0250    4.5980   -3.8680 C   0  0  0  0  0  0  0  0  0  0  0  0
   -7.7160    3.8310   -5.1850 C   0  0  2  0  0  0  0  0  0  0  0  0
   -6.9910    4.6510   -6.0960 O   0  0  0  0  0  0  0  0  0  0  0  0
   -5.6340    4.2650   -6.2740 C   0  0  0  0  0  0  0  0  0  0  0  0
   -9.0640    3.3510   -5.7930 C   0  0  2  0  0  0  0  0  0  0  0  0
  -10.0770    3.3210   -4.7730 O   0  0  0  0  0  0  0  0  0  0  0  0
   -9.0360    2.0120   -6.5790 C   0  0  1  0  0  0  0  0  0  0  0  0
   -7.7320    1.2330   -6.4040 C   0  0  0  0  0  0  0  0  0  0  0  0
  -10.2000    1.1440   -6.1270 C   0  0  0  0  0  0  0  0  0  0  0  0
  -11.1090    0.5120   -6.9010 C   0  0  0  0  0  0  0  0  0  0  0  0
  -11.0450    0.4610   -8.4050 C   0  0  0  0  0  0  0  0  0  0  0  0
  -12.3040   -0.1960   -6.2520 C   0  0  2  0  0  0  0  0  0  0  0  0
  -13.1010    0.8240   -5.6170 O   0  0  0  0  0  0  0  0  0  0  0  0
  -14.3320    1.0270   -6.1200 C   0  0  0  0  0  0  0  0  0  0  0  0
  -15.1970    1.2770   -5.1130 N   0  0  0  0  0  0  0  0  0  0  0  0
  -14.6630    0.9910   -7.2930 O   0  0  0  0  0  0  0  0  0  0  0  0
  -11.8400   -1.3020   -5.2370 C   0  0  1  0  0  0  0  0  0  0  0  0
  -12.9600   -1.7390   -4.4470 O   0  0  0  0  0  0  0  0  0  0  0  0
  -13.8460   -2.5990   -5.1500 C   0  0  0  0  0  0  0  0  0  0  0  0
  -11.2560   -2.4980   -5.9510 C   0  0  0  0  0  0  0  0  0  0  0  0
   -9.9560   -2.7990   -6.1050 C   0  0  0  0  0  0  0  0  0  0  0  0
   -8.8410   -2.0510   -5.5740 C   0  0  0  0  0  0  0  0  0  0  0  0
   -7.6690   -2.5870   -5.1830 C   0  0  0  0  0  0  0  0  0  0  0  0
   -7.2480   -4.0180   -5.2560 C   0  0  0  0  0  0  0  0  0  0  0  0
   -6.6120   -1.6410   -4.7340 C   0  0  0  0  0  0  0  0  0  0  0  0
   -5.5400   -1.5870   -5.3220 O   0  0  0  0  0  0  0  0  0  0  0  0
   -6.9810   -0.9230   -3.6220 N   0  0  0  0  0  0  0  0  0  0  0  0
   -6.2440    0.0200   -2.9260 C   0  0  0  0  0  0  0  0  0  0  0  0
   -4.9650   -0.1000   -2.5630 C   0  0  0  0  0  0  0  0  0  0  0  0
   -4.2590    0.9580   -1.8200 C   0  0  0  0  0  0  0  0  0  0  0  0
   -3.1090    0.7580   -1.4450 O   0  0  0  0  0  0  0  0  0  0  0  0
   -7.0030    1.2550   -2.5620 C   0  0  0  0  0  0  0  0  0  0  0  0
   -8.2040    1.3040   -2.8160 O   0  0  0  0  0  0  0  0  0  0  0  0
   -4.6234    3.4750    1.1199 H   0  0  0  0  0  0  0  0  0  0  0  0
   -3.8703    1.9430    0.5608 H   0  0  0  0  0  0  0  0  0  0  0  0
   -2.9164    3.4651    0.5608 H   0  0  0  0  0  0  0  0  0  0  0  0
   -8.1241    3.3781   -1.5288 H   0  0  0  0  0  0  0  0  0  0  0  0
   -6.6403    4.0980   -0.7340 H   0  0  0  0  0  0  0  0  0  0  0  0
   -6.0096    4.4984   -3.2925 H   0  0  0  0  0  0  0  0  0  0  0  0
   -6.8573    6.0572   -1.0767 H   0  0  0  0  0  0  0  0  0  0  0  0
   -5.9196    6.5937   -2.5119 H   0  0  0  0  0  0  0  0  0  0  0  0
   -7.7116    6.7185   -2.5119 H   0  0  0  0  0  0  0  0  0  0  0  0
   -8.8962    4.1052   -3.4117 H   0  0  0  0  0  0  0  0  0  0  0  0
   -8.1477    5.6374   -4.2064 H   0  0  0  0  0  0  0  0  0  0  0  0
   -7.0782    2.9599   -4.9743 H   0  0  0  0  0  0  0  0  0  0  0  0
   -5.1592    4.1300   -5.2910 H   0  0  0  0  0  0  0  0  0  0  0  0
   -5.5923    3.3194   -6.8344 H   0  0  0  0  0  0  0  0  0  0  0  0
   -5.1008    5.0471   -6.8344 H   0  0  0  0  0  0  0  0  0  0  0  0
   -9.2988    4.0978   -6.5657 H   0  0  0  0  0  0  0  0  0  0  0  0
   -9.7990    2.6870   -4.0900 H   0  0  0  0  0  0  0  0  0  0  0  0
   -9.1167    2.2655   -7.6463 H   0  0  0  0  0  0  0  0  0  0  0  0
   -7.5212    1.1071   -5.3318 H   0  0  0  0  0  0  0  0  0  0  0  0
   -7.8290    0.2447   -6.8772 H   0  0  0  0  0  0  0  0  0  0  0  0
   -6.9077    1.7868   -6.8772 H   0  0  0  0  0  0  0  0  0  0  0  0
  -10.3155    1.0155   -5.0407 H   0  0  0  0  0  0  0  0  0  0  0  0
  -10.2196   -0.1968   -8.7148 H   0  0  0  0  0  0  0  0  0  0  0  0
  -11.9941    0.0689   -8.7993 H   0  0  0  0  0  0  0  0  0  0  0  0
  -10.8746    1.4737   -8.7993 H   0  0  0  0  0  0  0  0  0  0  0  0
  -12.8998   -0.7272   -7.0089 H   0  0  0  0  0  0  0  0  0  0  0  0
  -16.1810    1.3380   -5.3260 H   0  0  0  0  0  0  0  0  0  0  0  0
  -14.8840    1.1560   -4.1630 H   0  0  0  0  0  0  0  0  0  0  0  0
  -11.0645   -0.8599   -4.5942 H   0  0  0  0  0  0  0  0  0  0  0  0
  -14.4428   -3.1783   -4.4302 H   0  0  0  0  0  0  0  0  0  0  0  0
  -14.5161   -1.9978   -5.7820 H   0  0  0  0  0  0  0  0  0  0  0  0
  -13.2650   -3.2867   -5.7820 H   0  0  0  0  0  0  0  0  0  0  0  0
  -11.9760   -3.2014   -6.3946 H   0  0  0  0  0  0  0  0  0  0  0  0
   -9.7187   -3.6996   -6.6904 H   0  0  0  0  0  0  0  0  0  0  0  0
   -8.9576   -0.9611   -5.4819 H   0  0  0  0  0  0  0  0  0  0  0  0
   -7.1303   -4.4180   -4.2381 H   0  0  0  0  0  0  0  0  0  0  0  0
   -8.0134   -4.5985   -5.7918 H   0  0  0  0  0  0  0  0  0  0  0  0
   -6.2902   -4.0915   -5.7918 H   0  0  0  0  0  0  0  0  0  0  0  0
   -7.8910   -1.1240   -3.2060 H   0  0  0  0  0  0  0  0  0  0  0  0
   -4.4207   -1.0186   -2.8273 H   0  0  0  0  0  0  0  0  0  0  0  0
  1  2  1  0
  2  3  1  0
  3  4  2  0
  4  5  1  0
  5  6  1  0
  6  7  1  0
  6  8  1  0
  8  9  1  0
  9 10  1  0
 10 11  1  0
  9 12  1  0
 12 13  1  0
 12 14  1  0
 14 15  1  0
 14 16  1  0
 16 17  2  0
 17 18  1  0
 17 19  1  0
 19 20  1  0
 20 21  1  0
 21 22  1  0
 21 23  2  0
 19 24  1  0
 24 25  1  0
 25 26  1  0
 24 27  1  0
 27 28  2  0
 28 29  1  0
 29 30  2  0
 30 31  1  0
 30 32  1  0
 32 33  2  0
 32 34  1  0
 34 35  1  0
 35 36  2  0
 36 37  1  0
 37 38  2  0
 35 39  1  0
 39 40  2  0
 37  3  1  0
 39  4  1  0
  1 41  1  0
  1 42  1  0
  1 43  1  0
  5 44  1  0
  5 45  1  0
  6 46  1  6
  7 47  1  0
  7 48  1  0
  7 49  1  0
  8 50  1  0
  8 51  1  0
  9 52  1  1
 11 53  1  0
 11 54  1  0
 11 55  1  0
 12 56  1  6
 13 57  1  0
 14 58  1  6
 15 59  1  0
 15 60  1  0
 15 61  1  0
 16 62  1  0
 18 63  1  0
 18 64  1  0
 18 65  1  0
 19 66  1  6
 22 67  1  0
 22 68  1  0
 24 69  1  1
 26 70  1  0
 26 71  1  0
 26 72  1  0
 27 73  1  0
 28 74  1  0
 29 75  1  0
 31 76  1  0
 31 77  1  0
 31 78  1  0
 34 79  1  0
 36 80  1  0
M  END
>  <meeko>  (3) 
{"is_sidechain": [false], "free_energy": -5.528, "intermolecular_energy": -10.717, "internal_energy": -2.377}

$$$$
2yge_ligand
     RDKit          3D

 80 81  0  0  0  0  0  0  0  0999 V2000
   -4.0780    2.9250   -0.0540 C   0  0  0  0  0  0  0  0  0  0  0  0
   -4.3410    3.8950   -1.0650 O   0  0  0  0  0  0  0  0  0  0  0  0
   -5.6880    4.1590   -1.2920 C   0  0  0  0  0  0  0  0  0  0  0  0
   -6.2710    3.6480   -2.3910 C   0  0  0  0  0  0  0  0  0  0  0  0
   -5.5160    2.7900   -3.3890 C   0  0  0  0  0  0  0  0  0  0  0  0
   -5.8270    1.2760   -3.2780 C   0  0  2  0  0  0  0  0  0  0  0  0
   -4.6110    0.5050   -2.7630 C   0  0  0  0  0  0  0  0  0  0  0  0
   -6.4370    0.6510   -4.5510 C   0  0  0  0  0  0  0  0  0  0  0  0
   -6.8230   -0.8560   -4.5760 C   0  0  2  0  0  0  0  0  0  0  0  0
   -6.1070   -1.5480   -5.5950 O   0  0  0  0  0  0  0  0  0  0  0  0
   -5.1730   -0.7420   -6.3010 C   0  0  0  0  0  0  0  0  0  0  0  0
   -8.3780   -0.9590   -4.8280 C   0  0  2  0  0  0  0  0  0  0  0  0
   -8.7220   -2.3210   -5.1300 O   0  0  0  0  0  0  0  0  0  0  0  0
   -8.9530    0.0050   -5.9020 C   0  0  1  0  0  0  0  0  0  0  0  0
   -8.8020   -0.5200   -7.3300 C   0  0  0  0  0  0  0  0  0  0  0  0
  -10.4260    0.2500   -5.6140 C   0  0  0  0  0  0  0  0  0  0  0  0
  -11.0850    1.4300   -5.6250 C   0  0  0  0  0  0  0  0  0  0  0  0
  -10.4710    2.7340   -6.0610 C   0  0  0  0  0  0  0  0  0  0  0  0
  -12.5440    1.4940   -5.1570 C   0  0  2  0  0  0  0  0  0  0  0  0
  -13.2570    0.4590   -5.8660 O   0  0  0  0  0  0  0  0  0  0  0  0
  -14.1350   -0.2650   -5.1510 C   0  0  0  0  0  0  0  0  0  0  0  0
  -13.5310   -1.3800   -4.6840 N   0  0  0  0  0  0  0  0  0  0  0  0
  -15.3070   -0.0020   -4.9390 O   0  0  0  0  0  0  0  0  0  0  0  0
  -13.1670    2.9150   -5.4000 C   0  0  1  0  0  0  0  0  0  0  0  0
  -13.9670    2.8980   -6.5960 O   0  0  0  0  0  0  0  0  0  0  0  0
  -14.9720    3.9020   -6.6170 C   0  0  0  0  0  0  0  0  0  0  0  0
  -14.0370    3.3430   -4.2420 C   0  0  0  0  0  0  0  0  0  0  0  0
  -13.6520    3.9900   -3.1300 C   0  0  0  0  0  0  0  0  0  0  0  0
  -12.3160    4.4520   -2.8340 C   0  0  0  0  0  0  0  0  0  0  0  0
  -11.9840    5.7280   -2.5660 C   0  0  0  0  0  0  0  0  0  0  0  0
  -12.8940    6.9090   -2.4630 C   0  0  0  0  0  0  0  0  0  0  0  0
  -10.5640    5.9940   -2.2100 C   0  0  0  0  0  0  0  0  0  0  0  0
  -10.1460    7.1430   -2.1520 O   0  0  0  0  0  0  0  0  0  0  0  0
   -9.8420    4.8420   -2.0110 N   0  0  0  0  0  0  0  0  0  0  0  0
   -8.5010    4.7130   -1.6930 C   0  0  0  0  0  0  0  0  0  0  0  0
   -7.9010    5.2190   -0.6120 C   0  0  0  0  0  0  0  0  0  0  0  0
   -6.4640    5.0340   -0.3550 C   0  0  0  0  0  0  0  0  0  0  0  0
   -5.9540    5.5880    0.6130 O   0  0  0  0  0  0  0  0  0  0  0  0
   -7.6970    3.9450   -2.6920 C   0  0  0  0  0  0  0  0  0  0  0  0
   -8.2440    3.5750   -3.7270 O   0  0  0  0  0  0  0  0  0  0  0  0
   -4.2028    3.3854    0.9372 H   0  0  0  0  0  0  0  0  0  0  0  0
   -4.7810    2.0855   -0.1595 H   0  0  0  0  0  0  0  0  0  0  0  0
   -3.0473    2.5556   -0.1595 H   0  0  0  0  0  0  0  0  0  0  0  0
   -5.7805    3.1244   -4.4030 H   0  0  0  0  0  0  0  0  0  0  0  0
   -4.4451    2.9127   -3.1695 H   0  0  0  0  0  0  0  0  0  0  0  0
   -6.6293    1.1852   -2.5309 H   0  0  0  0  0  0  0  0  0  0  0  0
   -4.6144    0.5072   -1.6630 H   0  0  0  0  0  0  0  0  0  0  0  0
   -4.6529   -0.5319   -3.1278 H   0  0  0  0  0  0  0  0  0  0  0  0
   -3.6910    0.9851   -3.1278 H   0  0  0  0  0  0  0  0  0  0  0  0
   -7.3542    1.2163   -4.7728 H   0  0  0  0  0  0  0  0  0  0  0  0
   -5.6139    0.7107   -5.2783 H   0  0  0  0  0  0  0  0  0  0  0  0
   -6.5608   -1.3232   -3.6153 H   0  0  0  0  0  0  0  0  0  0  0  0
   -4.5421   -0.1976   -5.5830 H   0  0  0  0  0  0  0  0  0  0  0  0
   -4.5403   -1.3823   -6.9332 H   0  0  0  0  0  0  0  0  0  0  0  0
   -5.7138   -0.0224   -6.9332 H   0  0  0  0  0  0  0  0  0  0  0  0
   -8.8517   -0.6283   -3.8920 H   0  0  0  0  0  0  0  0  0  0  0  0
   -8.9080   -2.3820   -6.0830 H   0  0  0  0  0  0  0  0  0  0  0  0
   -8.3726    0.9374   -5.8401 H   0  0  0  0  0  0  0  0  0  0  0  0
   -8.4980   -1.5768   -7.3019 H   0  0  0  0  0  0  0  0  0  0  0  0
   -9.7628   -0.4287   -7.8577 H   0  0  0  0  0  0  0  0  0  0  0  0
   -8.0365    0.0678   -7.8577 H   0  0  0  0  0  0  0  0  0  0  0  0
  -11.0262   -0.6383   -5.3676 H   0  0  0  0  0  0  0  0  0  0  0  0
  -10.1936    3.3232   -5.1745 H   0  0  0  0  0  0  0  0  0  0  0  0
   -9.5729    2.5331   -6.6635 H   0  0  0  0  0  0  0  0  0  0  0  0
  -11.1980    3.2983   -6.6635 H   0  0  0  0  0  0  0  0  0  0  0  0
  -12.6131    1.3276   -4.0719 H   0  0  0  0  0  0  0  0  0  0  0  0
  -14.0940   -2.0780   -4.2240 H   0  0  0  0  0  0  0  0  0  0  0  0
  -12.6040   -1.6020   -5.0120 H   0  0  0  0  0  0  0  0  0  0  0  0
  -12.3371    3.6297   -5.5019 H   0  0  0  0  0  0  0  0  0  0  0  0
  -15.2422    4.1719   -5.5854 H   0  0  0  0  0  0  0  0  0  0  0  0
  -14.5912    4.7911   -7.1409 H   0  0  0  0  0  0  0  0  0  0  0  0
  -15.8607    3.5203   -7.1409 H   0  0  0  0  0  0  0  0  0  0  0  0
  -15.1065    3.0971   -4.3180 H   0  0  0  0  0  0  0  0  0  0  0  0
  -14.4265    4.1864   -2.3740 H   0  0  0  0  0  0  0  0  0  0  0  0
  -11.5092    3.7044   -2.8272 H   0  0  0  0  0  0  0  0  0  0  0  0
  -13.0736    7.1421   -1.4031 H   0  0  0  0  0  0  0  0  0  0  0  0
  -12.4276    7.7753   -2.9550 H   0  0  0  0  0  0  0  0  0  0  0  0
  -13.8505    6.6789   -2.9550 H   0  0  0  0  0  0  0  0  0  0  0  0
  -10.3190    3.9510   -2.1560 H   0  0  0  0  0  0  0  0  0  0  0  0
   -8.5009    5.7928    0.1097 H   0  0  0  0  0  0  0  0  0  0  0  0
  1  2  1  0
  2  3  1  0
  3  4  2  0
  4  5  1  0
  5  6  1  0
  6  7  1  0
  6  8  1  0
  8  9  1  0
  9 10  1  0
 10 11  1  0
  9 12  1  0
 12 13  1  0
 12 14  1  0
 14 15  1  0
 14 16  1  0
 16 17  2  0
 17 18  1  0
 17 19  1  0
 19 20  1  0
 20 21  1  0
 21 22  1  0
 21 23  2  0
 19 24  1  0
 24 25  1  0
 25 26  1  0
 24 27  1  0
 27 28  2  0
 28 29  1  0
 29 30  2  0
 30 31  1  0
 30 32  1  0
 32 33  2  0
 32 34  1  0
 34 35  1  0
 35 36  2  0
 36 37  1  0
 37 38  2  0
 35 39  1  0
 39 40  2  0
 37  3  1  0
 39  4  1  0
  1 41  1  0
  1 42  1  0
  1 43  1  0
  5 44  1  0
  5 45  1  0
  6 46  1  1
  7 47  1  0
  7 48  1  0
  7 49  1  0
  8 50  1  0
  8 51  1  0
  9 52  1  1
 11 53  1  0
 11 54  1  0
 11 55  1  0
 12 56  1  1
 13 57  1  0
 14 58  1  6
 15 59  1  0
 15 60  1  0
 15 61  1  0
 16 62  1  0
 18 63  1  0
 18 64  1  0
 18 65  1  0
 19 66  1  1
 22 67  1  0
 22 68  1  0
 24 69  1  6
 26 70  1  0
 26 71  1  0
 26 72  1  0
 27 73  1  0
 28 74  1  0
 29 75  1  0
 31 76  1  0
 31 77  1  0
 31 78  1  0
 34 79  1  0
 36 80  1  0
M  END
>  <meeko>  (4) 
{"is_sidechain": [false], "free_energy": -5.468, "intermolecular_energy": -10.293, "internal_energy": -2.68}

$$$$
2yge_ligand
     RDKit          3D

 80 81  0  0  0  0  0  0  0  0999 V2000
  -12.0160    0.5040   -9.6340 C   0  0  0  0  0  0  0  0  0  0  0  0
  -12.6150    0.4730   -8.3410 O   0  0  0  0  0  0  0  0  0  0  0  0
  -11.9890    1.2640   -7.3830 C   0  0  0  0  0  0  0  0  0  0  0  0
  -11.2870    0.6620   -6.4060 C   0  0  0  0  0  0  0  0  0  0  0  0
  -11.1460   -0.8450   -6.3140 C   0  0  0  0  0  0  0  0  0  0  0  0
   -9.9790   -1.4210   -7.1550 C   0  0  2  0  0  0  0  0  0  0  0  0
  -10.3720   -2.7520   -7.7970 C   0  0  0  0  0  0  0  0  0  0  0  0
   -8.6260   -1.4900   -6.4130 C   0  0  0  0  0  0  0  0  0  0  0  0
   -7.6380   -0.2910   -6.4740 C   0  0  2  0  0  0  0  0  0  0  0  0
   -7.2490   -0.0190   -7.8170 O   0  0  0  0  0  0  0  0  0  0  0  0
   -7.7970    1.1800   -8.3500 C   0  0  0  0  0  0  0  0  0  0  0  0
   -6.3970   -0.6230   -5.5850 C   0  0  2  0  0  0  0  0  0  0  0  0
   -5.8960   -1.9320   -5.9060 O   0  0  0  0  0  0  0  0  0  0  0  0
   -6.6050   -0.4740   -4.0530 C   0  0  1  0  0  0  0  0  0  0  0  0
   -6.3310   -1.7630   -3.2760 C   0  0  0  0  0  0  0  0  0  0  0  0
   -5.6960    0.6270   -3.5310 C   0  0  0  0  0  0  0  0  0  0  0  0
   -6.0280    1.6610   -2.7280 C   0  0  0  0  0  0  0  0  0  0  0  0
   -7.3830    1.8350   -2.0940 C   0  0  0  0  0  0  0  0  0  0  0  0
   -4.9990    2.7580   -2.4310 C   0  0  2  0  0  0  0  0  0  0  0  0
   -5.1020    3.0600   -1.0250 O   0  0  0  0  0  0  0  0  0  0  0  0
   -4.0440    2.7370   -0.2600 C   0  0  0  0  0  0  0  0  0  0  0  0
   -4.0510    3.4860    0.8650 N   0  0  0  0  0  0  0  0  0  0  0  0
   -3.1820    1.9100   -0.5070 O   0  0  0  0  0  0  0  0  0  0  0  0
   -5.2310    4.0270   -3.3280 C   0  0  1  0  0  0  0  0  0  0  0  0
   -6.2040    3.7330   -4.3460 O   0  0  0  0  0  0  0  0  0  0  0  0
   -5.6900    3.8400   -5.6660 C   0  0  0  0  0  0  0  0  0  0  0  0
   -5.7230    5.1990   -2.5120 C   0  0  0  0  0  0  0  0  0  0  0  0
   -6.9740    5.6850   -2.4580 C   0  0  0  0  0  0  0  0  0  0  0  0
   -8.1250    5.1490   -3.1460 C   0  0  0  0  0  0  0  0  0  0  0  0
   -9.3390    4.9720   -2.5940 C   0  0  0  0  0  0  0  0  0  0  0  0
   -9.7760    5.3250   -1.2090 C   0  0  0  0  0  0  0  0  0  0  0  0
  -10.4210    4.4770   -3.4880 C   0  0  0  0  0  0  0  0  0  0  0  0
  -11.5820    4.8130   -3.2970 O   0  0  0  0  0  0  0  0  0  0  0  0
   -9.9570    3.6220   -4.4580 N   0  0  0  0  0  0  0  0  0  0  0  0
  -10.6800    2.9620   -5.4370 C   0  0  0  0  0  0  0  0  0  0  0  0
  -11.3900    3.5400   -6.4090 C   0  0  0  0  0  0  0  0  0  0  0  0
  -12.1320    2.7550   -7.4100 C   0  0  0  0  0  0  0  0  0  0  0  0
  -12.8300    3.3420   -8.2300 O   0  0  0  0  0  0  0  0  0  0  0  0
  -10.6400    1.4710   -5.3380 C   0  0  0  0  0  0  0  0  0  0  0  0
  -10.0660    0.9600   -4.3790 O   0  0  0  0  0  0  0  0  0  0  0  0
  -10.9224    0.5606   -9.5302 H   0  0  0  0  0  0  0  0  0  0  0  0
  -12.2853   -0.4093  -10.1848 H   0  0  0  0  0  0  0  0  0  0  0  0
  -12.3781    1.3846  -10.1848 H   0  0  0  0  0  0  0  0  0  0  0  0
  -10.9784   -1.1131   -5.2604 H   0  0  0  0  0  0  0  0  0  0  0  0
  -12.0733   -1.2768   -6.7184 H   0  0  0  0  0  0  0  0  0  0  0  0
   -9.7996   -0.6947   -7.9614 H   0  0  0  0  0  0  0  0  0  0  0  0
  -10.5895   -3.4888   -7.0097 H   0  0  0  0  0  0  0  0  0  0  0  0
  -11.2660   -2.6080   -8.4216 H   0  0  0  0  0  0  0  0  0  0  0  0
   -9.5432   -3.1167   -8.4216 H   0  0  0  0  0  0  0  0  0  0  0  0
   -8.8560   -1.6568   -5.3503 H   0  0  0  0  0  0  0  0  0  0  0  0
   -8.0873   -2.2859   -6.9480 H   0  0  0  0  0  0  0  0  0  0  0  0
   -8.1316    0.6147   -6.0918 H   0  0  0  0  0  0  0  0  0  0  0  0
   -8.0999    1.8427   -7.5260 H   0  0  0  0  0  0  0  0  0  0  0  0
   -7.0406    1.6857   -8.9682 H   0  0  0  0  0  0  0  0  0  0  0  0
   -8.6744    0.9390   -8.9682 H   0  0  0  0  0  0  0  0  0  0  0  0
   -5.6536    0.1487   -5.8338 H   0  0  0  0  0  0  0  0  0  0  0  0
   -6.2160   -2.5520   -5.2290 H   0  0  0  0  0  0  0  0  0  0  0  0
   -7.6648   -0.2247   -3.8959 H   0  0  0  0  0  0  0  0  0  0  0  0
   -6.3748   -1.5567   -2.1964 H   0  0  0  0  0  0  0  0  0  0  0  0
   -7.0891   -2.5163   -3.5364 H   0  0  0  0  0  0  0  0  0  0  0  0
   -5.3320   -2.1428   -3.5364 H   0  0  0  0  0  0  0  0  0  0  0  0
   -4.6429    0.5754   -3.8445 H   0  0  0  0  0  0  0  0  0  0  0  0
   -7.2799    1.8218   -0.9989 H   0  0  0  0  0  0  0  0  0  0  0  0
   -7.8150    2.7960   -2.4100 H   0  0  0  0  0  0  0  0  0  0  0  0
   -8.0438    1.0143   -2.4100 H   0  0  0  0  0  0  0  0  0  0  0  0
   -3.9824    2.4136   -2.6715 H   0  0  0  0  0  0  0  0  0  0  0  0
   -3.2580    3.4360    1.4840 H   0  0  0  0  0  0  0  0  0  0  0  0
   -4.7130    4.2430    0.9390 H   0  0  0  0  0  0  0  0  0  0  0  0
   -4.2660    4.2936   -3.7837 H   0  0  0  0  0  0  0  0  0  0  0  0
   -4.6139    4.0640   -5.6234 H   0  0  0  0  0  0  0  0  0  0  0  0
   -5.8460    2.8901   -6.1984 H   0  0  0  0  0  0  0  0  0  0  0  0
   -6.2121    4.6487   -6.1984 H   0  0  0  0  0  0  0  0  0  0  0  0
   -4.9726    5.7120   -1.8925 H   0  0  0  0  0  0  0  0  0  0  0  0
   -7.1370    6.5742   -1.8313 H   0  0  0  0  0  0  0  0  0  0  0  0
   -7.9996    4.8639   -4.2010 H   0  0  0  0  0  0  0  0  0  0  0  0
   -9.1356    4.8077   -0.4794 H   0  0  0  0  0  0  0  0  0  0  0  0
   -9.6926    6.4122   -1.0641 H   0  0  0  0  0  0  0  0  0  0  0  0
  -10.8214    5.0149   -1.0641 H   0  0  0  0  0  0  0  0  0  0  0  0
   -8.9640    3.3890   -4.4510 H   0  0  0  0  0  0  0  0  0  0  0  0
  -11.4217    4.6382   -6.4638 H   0  0  0  0  0  0  0  0  0  0  0  0
  1  2  1  0
  2  3  1  0
  3  4  2  0
  4  5  1  0
  5  6  1  0
  6  7  1  0
  6  8  1  0
  8  9  1  0
  9 10  1  0
 10 11  1  0
  9 12  1  0
 12 13  1  0
 12 14  1  0
 14 15  1  0
 14 16  1  0
 16 17  2  0
 17 18  1  0
 17 19  1  0
 19 20  1  0
 20 21  1  0
 21 22  1  0
 21 23  2  0
 19 24  1  0
 24 25  1  0
 25 26  1  0
 24 27  1  0
 27 28  2  0
 28 29  1  0
 29 30  2  0
 30 31  1  0
 30 32  1  0
 32 33  2  0
 32 34  1  0
 34 35  1  0
 35 36  2  0
 36 37  1  0
 37 38  2  0
 35 39  1  0
 39 40  2  0
 37  3  1  0
 39  4  1  0
  1 41  1  0
  1 42  1  0
  1 43  1  0
  5 44  1  0
  5 45  1  0
  6 46  1  6
  7 47  1  0
  7 48  1  0
  7 49  1  0
  8 50  1  0
  8 51  1  0
  9 52  1  1
 11 53  1  0
 11 54  1  0
 11 55  1  0
 12 56  1  6
 13 57  1  0
 14 58  1  6
 15 59  1  0
 15 60  1  0
 15 61  1  0
 16 62  1  0
 18 63  1  0
 18 64  1  0
 18 65  1  0
 19 66  1  1
 22 67  1  0
 22 68  1  0
 24 69  1  6
 26 70  1  0
 26 71  1  0
 26 72  1  0
 27 73  1  0
 28 74  1  0
 29 75  1  0
 31 76  1  0
 31 77  1  0
 31 78  1  0
 34 79  1  0
 36 80  1  0
M  END
>  <meeko>  (5) 
{"is_sidechain": [false], "free_energy": -5.319, "intermolecular_energy": -10.306, "internal_energy": -2.366}

$$$$
2yge_ligand
     RDKit          3D

 80 81  0  0  0  0  0  0  0  0999 V2000
  -12.7850   -0.0070   -8.0310 C   0  0  0  0  0  0  0  0  0  0  0  0
  -12.3720    1.3450   -8.2100 O   0  0  0  0  0  0  0  0  0  0  0  0
  -11.8120    1.9440   -7.0850 C   0  0  0  0  0  0  0  0  0  0  0  0
  -10.5010    2.2460   -7.0990 C   0  0  0  0  0  0  0  0  0  0  0  0
   -9.6130    1.9640   -8.2950 C   0  0  0  0  0  0  0  0  0  0  0  0
   -8.4210    1.0220   -7.9870 C   0  0  2  0  0  0  0  0  0  0  0  0
   -7.4120    1.0240   -9.1350 C   0  0  0  0  0  0  0  0  0  0  0  0
   -8.8250   -0.4010   -7.5470 C   0  0  0  0  0  0  0  0  0  0  0  0
   -8.5570   -0.8760   -6.0910 C   0  0  2  0  0  0  0  0  0  0  0  0
   -9.5540   -0.3840   -5.2010 O   0  0  0  0  0  0  0  0  0  0  0  0
  -10.7420   -1.1650   -5.1680 C   0  0  0  0  0  0  0  0  0  0  0  0
   -7.1280   -0.3720   -5.6570 C   0  0  2  0  0  0  0  0  0  0  0  0
   -6.1120   -1.1500   -6.3110 O   0  0  0  0  0  0  0  0  0  0  0  0
   -6.8710   -0.3060   -4.1260 C   0  0  1  0  0  0  0  0  0  0  0  0
   -5.9190   -1.3920   -3.6250 C   0  0  0  0  0  0  0  0  0  0  0  0
   -6.3000    1.0590   -3.7760 C   0  0  0  0  0  0  0  0  0  0  0  0
   -6.8000    1.9650   -2.9070 C   0  0  0  0  0  0  0  0  0  0  0  0
   -7.9870    1.7130   -2.0160 C   0  0  0  0  0  0  0  0  0  0  0  0
   -6.1600    3.3550   -2.8010 C   0  0  2  0  0  0  0  0  0  0  0  0
   -4.9700    3.3310   -3.6150 O   0  0  0  0  0  0  0  0  0  0  0  0
   -4.9720    4.1140   -4.7080 C   0  0  0  0  0  0  0  0  0  0  0  0
   -4.9720    5.4130   -4.3370 N   0  0  0  0  0  0  0  0  0  0  0  0
   -4.9820    3.7510   -5.8730 O   0  0  0  0  0  0  0  0  0  0  0  0
   -5.8500    3.7370   -1.3090 C   0  0  1  0  0  0  0  0  0  0  0  0
   -4.4750    3.4420   -1.0060 O   0  0  0  0  0  0  0  0  0  0  0  0
   -3.9480    4.2300    0.0520 C   0  0  0  0  0  0  0  0  0  0  0  0
   -6.0980    5.2040   -1.0500 C   0  0  0  0  0  0  0  0  0  0  0  0
   -7.1100    5.9530   -1.5180 C   0  0  0  0  0  0  0  0  0  0  0  0
   -8.2040    5.4890   -2.3390 C   0  0  0  0  0  0  0  0  0  0  0  0
   -9.4720    5.3330   -1.9170 C   0  0  0  0  0  0  0  0  0  0  0  0
  -10.0330    5.6440   -0.5670 C   0  0  0  0  0  0  0  0  0  0  0  0
  -10.4750    4.9150   -2.9340 C   0  0  0  0  0  0  0  0  0  0  0  0
  -11.5650    5.4680   -2.9900 O   0  0  0  0  0  0  0  0  0  0  0  0
  -10.0370    3.8710   -3.7120 N   0  0  0  0  0  0  0  0  0  0  0  0
  -10.7100    3.2190   -4.7310 C   0  0  0  0  0  0  0  0  0  0  0  0
  -12.0070    2.9030   -4.7340 C   0  0  0  0  0  0  0  0  0  0  0  0
  -12.6410    2.2050   -5.8650 C   0  0  0  0  0  0  0  0  0  0  0  0
  -13.8180    1.8710   -5.7770 O   0  0  0  0  0  0  0  0  0  0  0  0
   -9.8560    2.8460   -5.9000 C   0  0  0  0  0  0  0  0  0  0  0  0
   -8.6470    3.0550   -5.8360 O   0  0  0  0  0  0  0  0  0  0  0  0
  -12.8532   -0.2303   -6.9561 H   0  0  0  0  0  0  0  0  0  0  0  0
  -13.7693   -0.1548   -8.4994 H   0  0  0  0  0  0  0  0  0  0  0  0
  -12.0513   -0.6796   -8.4994 H   0  0  0  0  0  0  0  0  0  0  0  0
  -10.2274    1.4991   -9.0801 H   0  0  0  0  0  0  0  0  0  0  0  0
   -9.1846    2.9277   -8.6076 H   0  0  0  0  0  0  0  0  0  0  0  0
   -7.9257    1.4405   -7.0985 H   0  0  0  0  0  0  0  0  0  0  0  0
   -6.3910    1.0260   -8.7257 H   0  0  0  0  0  0  0  0  0  0  0  0
   -7.5576    0.1256   -9.7527 H   0  0  0  0  0  0  0  0  0  0  0  0
   -7.5612    1.9219   -9.7527 H   0  0  0  0  0  0  0  0  0  0  0  0
   -9.9088   -0.4880   -7.7138 H   0  0  0  0  0  0  0  0  0  0  0  0
   -8.1644   -1.0451   -8.1460 H   0  0  0  0  0  0  0  0  0  0  0  0
   -8.5957   -1.9746   -6.0501 H   0  0  0  0  0  0  0  0  0  0  0  0
  -11.0282   -1.3531   -4.1227 H   0  0  0  0  0  0  0  0  0  0  0  0
  -11.5517   -0.6225   -5.6779 H   0  0  0  0  0  0  0  0  0  0  0  0
  -10.5650   -2.1235   -5.6779 H   0  0  0  0  0  0  0  0  0  0  0  0
   -7.0841    0.6774   -5.9837 H   0  0  0  0  0  0  0  0  0  0  0  0
   -5.3100   -1.1240   -5.7610 H   0  0  0  0  0  0  0  0  0  0  0  0
   -7.8382   -0.4742   -3.6297 H   0  0  0  0  0  0  0  0  0  0  0  0
   -5.9147   -1.3969   -2.5250 H   0  0  0  0  0  0  0  0  0  0  0  0
   -6.2540   -2.3723   -3.9947 H   0  0  0  0  0  0  0  0  0  0  0  0
   -4.9032   -1.1882   -3.9947 H   0  0  0  0  0  0  0  0  0  0  0  0
   -5.3702    1.3425   -4.2909 H   0  0  0  0  0  0  0  0  0  0  0  0
   -7.6757    1.7791   -0.9630 H   0  0  0  0  0  0  0  0  0  0  0  0
   -8.7628    2.4665   -2.2170 H   0  0  0  0  0  0  0  0  0  0  0  0
   -8.3898    0.7093   -2.2170 H   0  0  0  0  0  0  0  0  0  0  0  0
   -6.8511    4.1310   -3.1619 H   0  0  0  0  0  0  0  0  0  0  0  0
   -5.0870    6.1180   -5.0480 H   0  0  0  0  0  0  0  0  0  0  0  0
   -5.1030    5.6380   -3.3640 H   0  0  0  0  0  0  0  0  0  0  0  0
   -6.5210    3.1462   -0.6681 H   0  0  0  0  0  0  0  0  0  0  0  0
   -4.2414    3.7913    1.0172 H   0  0  0  0  0  0  0  0  0  0  0  0
   -2.8507    4.2551   -0.0210 H   0  0  0  0  0  0  0  0  0  0  0  0
   -4.3439    5.2537   -0.0210 H   0  0  0  0  0  0  0  0  0  0  0  0
   -5.3682    5.7165   -0.4060 H   0  0  0  0  0  0  0  0  0  0  0  0
   -7.1051    7.0201   -1.2509 H   0  0  0  0  0  0  0  0  0  0  0  0
   -7.9838    5.2447   -3.3887 H   0  0  0  0  0  0  0  0  0  0  0  0
   -9.3514    5.2661    0.2093 H   0  0  0  0  0  0  0  0  0  0  0  0
  -10.1448    6.7329   -0.4584 H   0  0  0  0  0  0  0  0  0  0  0  0
  -11.0157    5.1619   -0.4584 H   0  0  0  0  0  0  0  0  0  0  0  0
   -9.1200    3.4750   -3.5040 H   0  0  0  0  0  0  0  0  0  0  0  0
  -12.6223    3.1729   -3.8630 H   0  0  0  0  0  0  0  0  0  0  0  0
  1  2  1  0
  2  3  1  0
  3  4  2  0
  4  5  1  0
  5  6  1  0
  6  7  1  0
  6  8  1  0
  8  9  1  0
  9 10  1  0
 10 11  1  0
  9 12  1  0
 12 13  1  0
 12 14  1  0
 14 15  1  0
 14 16  1  0
 16 17  2  0
 17 18  1  0
 17 19  1  0
 19 20  1  0
 20 21  1  0
 21 22  1  0
 21 23  2  0
 19 24  1  0
 24 25  1  0
 25 26  1  0
 24 27  1  0
 27 28  2  0
 28 29  1  0
 29 30  2  0
 30 31  1  0
 30 32  1  0
 32 33  2  0
 32 34  1  0
 34 35  1  0
 35 36  2  0
 36 37  1  0
 37 38  2  0
 35 39  1  0
 39 40  2  0
 37  3  1  0
 39  4  1  0
  1 41  1  0
  1 42  1  0
  1 43  1  0
  5 44  1  0
  5 45  1  0
  6 46  1  1
  7 47  1  0
  7 48  1  0
  7 49  1  0
  8 50  1  0
  8 51  1  0
  9 52  1  6
 11 53  1  0
 11 54  1  0
 11 55  1  0
 12 56  1  6
 13 57  1  0
 14 58  1  1
 15 59  1  0
 15 60  1  0
 15 61  1  0
 16 62  1  0
 18 63  1  0
 18 64  1  0
 18 65  1  0
 19 66  1  6
 22 67  1  0
 22 68  1  0
 24 69  1  1
 26 70  1  0
 26 71  1  0
 26 72  1  0
 27 73  1  0
 28 74  1  0
 29 75  1  0
 31 76  1  0
 31 77  1  0
 31 78  1  0
 34 79  1  0
 36 80  1  0
M  END
>  <meeko>  (6) 
{"is_sidechain": [false], "free_energy": -5.295, "intermolecular_energy": -10.412, "internal_energy": -2.21}

$$$$
2yge_ligand
     RDKit          3D

 80 81  0  0  0  0  0  0  0  0999 V2000
  -14.1520    3.5180   -7.0120 C   0  0  0  0  0  0  0  0  0  0  0  0
  -13.7170    2.6470   -5.9710 O   0  0  0  0  0  0  0  0  0  0  0  0
  -12.6200    3.1000   -5.2430 C   0  0  0  0  0  0  0  0  0  0  0  0
  -11.4000    2.6230   -5.5470 C   0  0  0  0  0  0  0  0  0  0  0  0
  -11.1730    1.6150   -6.6570 C   0  0  0  0  0  0  0  0  0  0  0  0
  -11.1660    0.1410   -6.1770 C   0  0  2  0  0  0  0  0  0  0  0  0
  -12.4770   -0.2110   -5.4730 C   0  0  0  0  0  0  0  0  0  0  0  0
   -9.9200   -0.2620   -5.3600 C   0  0  0  0  0  0  0  0  0  0  0  0
   -8.8820   -1.2570   -5.9540 C   0  0  2  0  0  0  0  0  0  0  0  0
   -9.1410   -2.5860   -5.5140 O   0  0  0  0  0  0  0  0  0  0  0  0
   -9.8170   -3.3940   -6.4690 C   0  0  0  0  0  0  0  0  0  0  0  0
   -7.4310   -0.7800   -5.4980 C   0  0  2  0  0  0  0  0  0  0  0  0
   -6.4190   -1.4960   -6.2280 O   0  0  0  0  0  0  0  0  0  0  0  0
   -7.1580   -0.8490   -3.9700 C   0  0  1  0  0  0  0  0  0  0  0  0
   -6.5020   -2.1580   -3.5300 C   0  0  0  0  0  0  0  0  0  0  0  0
   -6.2660    0.3160   -3.5710 C   0  0  0  0  0  0  0  0  0  0  0  0
   -6.5320    1.2900   -2.6740 C   0  0  0  0  0  0  0  0  0  0  0  0
   -7.7560    1.3180   -1.7970 C   0  0  0  0  0  0  0  0  0  0  0  0
   -5.5630    2.4690   -2.5180 C   0  0  2  0  0  0  0  0  0  0  0  0
   -4.7330    2.4880   -3.6970 O   0  0  0  0  0  0  0  0  0  0  0  0
   -5.0360    3.4050   -4.6330 C   0  0  0  0  0  0  0  0  0  0  0  0
   -5.3280    2.7850   -5.7970 N   0  0  0  0  0  0  0  0  0  0  0  0
   -5.0480    4.6170   -4.4990 O   0  0  0  0  0  0  0  0  0  0  0  0
   -4.7170    2.3530   -1.1990 C   0  0  1  0  0  0  0  0  0  0  0  0
   -3.4080    1.8400   -1.5040 O   0  0  0  0  0  0  0  0  0  0  0  0
   -2.3550    2.6040   -0.9330 C   0  0  0  0  0  0  0  0  0  0  0  0
   -4.5660    3.6920   -0.5180 C   0  0  0  0  0  0  0  0  0  0  0  0
   -5.5230    4.6100   -0.3060 C   0  0  0  0  0  0  0  0  0  0  0  0
   -6.9190    4.4810   -0.6540 C   0  0  0  0  0  0  0  0  0  0  0  0
   -7.5650    5.2520   -1.5460 C   0  0  0  0  0  0  0  0  0  0  0  0
   -6.9980    6.3460   -2.3930 C   0  0  0  0  0  0  0  0  0  0  0  0
   -8.9880    4.9140   -1.8250 C   0  0  0  0  0  0  0  0  0  0  0  0
   -9.8240    4.9780   -0.9340 O   0  0  0  0  0  0  0  0  0  0  0  0
   -9.1920    4.5120   -3.1230 N   0  0  0  0  0  0  0  0  0  0  0  0
  -10.3740    4.1050   -3.7180 C   0  0  0  0  0  0  0  0  0  0  0  0
  -11.5950    4.5600   -3.4260 C   0  0  0  0  0  0  0  0  0  0  0  0
  -12.8000    4.0660   -4.1120 C   0  0  0  0  0  0  0  0  0  0  0  0
  -13.9010    4.4630   -3.7450 O   0  0  0  0  0  0  0  0  0  0  0  0
  -10.2100    3.0490   -4.7630 C   0  0  0  0  0  0  0  0  0  0  0  0
   -9.0930    2.5720   -4.9470 O   0  0  0  0  0  0  0  0  0  0  0  0
  -14.6023    4.4197   -6.5714 H   0  0  0  0  0  0  0  0  0  0  0  0
  -13.2912    3.8045   -7.6340 H   0  0  0  0  0  0  0  0  0  0  0  0
  -14.8982    3.0020   -7.6340 H   0  0  0  0  0  0  0  0  0  0  0  0
  -11.9747    1.7329   -7.4009 H   0  0  0  0  0  0  0  0  0  0  0  0
  -10.1757    1.8192   -7.0739 H   0  0  0  0  0  0  0  0  0  0  0  0
  -11.0930   -0.4735   -7.0864 H   0  0  0  0  0  0  0  0  0  0  0  0
  -12.3302   -0.1716   -4.3835 H   0  0  0  0  0  0  0  0  0  0  0  0
  -13.2548    0.5101   -5.7645 H   0  0  0  0  0  0  0  0  0  0  0  0
  -12.7890   -1.2247   -5.7645 H   0  0  0  0  0  0  0  0  0  0  0  0
   -9.3752    0.6667   -5.1349 H   0  0  0  0  0  0  0  0  0  0  0  0
  -10.3457   -0.8203   -4.5132 H   0  0  0  0  0  0  0  0  0  0  0  0
   -8.9507   -1.2630   -7.0518 H   0  0  0  0  0  0  0  0  0  0  0  0
  -10.4383   -4.1366   -5.9469 H   0  0  0  0  0  0  0  0  0  0  0  0
  -10.4567   -2.7589   -7.0994 H   0  0  0  0  0  0  0  0  0  0  0  0
   -9.0790   -3.9116   -7.0994 H   0  0  0  0  0  0  0  0  0  0  0  0
   -7.3913    0.2923   -5.7401 H   0  0  0  0  0  0  0  0  0  0  0  0
   -6.1850   -2.2910   -5.7200 H   0  0  0  0  0  0  0  0  0  0  0  0
   -8.1345   -0.7960   -3.4664 H   0  0  0  0  0  0  0  0  0  0  0  0
   -6.4784   -2.2051   -2.4313 H   0  0  0  0  0  0  0  0  0  0  0  0
   -7.0808   -3.0078   -3.9211 H   0  0  0  0  0  0  0  0  0  0  0  0
   -5.4749   -2.2030   -3.9211 H   0  0  0  0  0  0  0  0  0  0  0  0
   -5.2884    0.3721   -4.0722 H   0  0  0  0  0  0  0  0  0  0  0  0
   -7.4502    1.3110   -0.7404 H   0  0  0  0  0  0  0  0  0  0  0  0
   -8.3354    2.2296   -2.0050 H   0  0  0  0  0  0  0  0  0  0  0  0
   -8.3764    0.4338   -2.0050 H   0  0  0  0  0  0  0  0  0  0  0  0
   -6.1142    3.4165   -2.4267 H   0  0  0  0  0  0  0  0  0  0  0  0
   -5.4650    3.3470   -6.6230 H   0  0  0  0  0  0  0  0  0  0  0  0
   -5.1640    1.7940   -5.8730 H   0  0  0  0  0  0  0  0  0  0  0  0
   -5.2497    1.6704   -0.5206 H   0  0  0  0  0  0  0  0  0  0  0  0
   -2.4206    2.5564    0.1640 H   0  0  0  0  0  0  0  0  0  0  0  0
   -1.3871    2.1966   -1.2605 H   0  0  0  0  0  0  0  0  0  0  0  0
   -2.4420    3.6505   -1.2605 H   0  0  0  0  0  0  0  0  0  0  0  0
   -3.5588    3.9440   -0.1546 H   0  0  0  0  0  0  0  0  0  0  0  0
   -5.2148    5.5484    0.1782 H   0  0  0  0  0  0  0  0  0  0  0  0
   -7.4974    3.6921   -0.1510 H   0  0  0  0  0  0  0  0  0  0  0  0
   -6.5886    7.1359   -1.7460 H   0  0  0  0  0  0  0  0  0  0  0  0
   -6.1967    5.9402   -3.0280 H   0  0  0  0  0  0  0  0  0  0  0  0
   -7.7915    6.7668   -3.0280 H   0  0  0  0  0  0  0  0  0  0  0  0
   -8.3790    4.4520   -3.7360 H   0  0  0  0  0  0  0  0  0  0  0  0
  -11.7039    5.3292   -2.6473 H   0  0  0  0  0  0  0  0  0  0  0  0
  1  2  1  0
  2  3  1  0
  3  4  2  0
  4  5  1  0
  5  6  1  0
  6  7  1  0
  6  8  1  0
  8  9  1  0
  9 10  1  0
 10 11  1  0
  9 12  1  0
 12 13  1  0
 12 14  1  0
 14 15  1  0
 14 16  1  0
 16 17  2  0
 17 18  1  0
 17 19  1  0
 19 20  1  0
 20 21  1  0
 21 22  1  0
 21 23  2  0
 19 24  1  0
 24 25  1  0
 25 26  1  0
 24 27  1  0
 27 28  2  0
 28 29  1  0
 29 30  2  0
 30 31  1  0
 30 32  1  0
 32 33  2  0
 32 34  1  0
 34 35  1  0
 35 36  2  0
 36 37  1  0
 37 38  2  0
 35 39  1  0
 39 40  2  0
 37  3  1  0
 39  4  1  0
  1 41  1  0
  1 42  1  0
  1 43  1  0
  5 44  1  0
  5 45  1  0
  6 46  1  6
  7 47  1  0
  7 48  1  0
  7 49  1  0
  8 50  1  0
  8 51  1  0
  9 52  1  6
 11 53  1  0
 11 54  1  0
 11 55  1  0
 12 56  1  6
 13 57  1  0
 14 58  1  1
 15 59  1  0
 15 60  1  0
 15 61  1  0
 16 62  1  0
 18 63  1  0
 18 64  1  0
 18 65  1  0
 19 66  1  1
 22 67  1  0
 22 68  1  0
 24 69  1  1
 26 70  1  0
 26 71  1  0
 26 72  1  0
 27 73  1  0
 28 74  1  0
 29 75  1  0
 31 76  1  0
 31 77  1  0
 31 78  1  0
 34 79  1  0
 36 80  1  0
M  END
>  <meeko>  (7) 
{"is_sidechain": [false], "free_energy": -5.247, "intermolecular_energy": -10.951, "internal_energy": -1.574}

$$$$
2yge_ligand
     RDKit          3D

 80 81  0  0  0  0  0  0  0  0999 V2000
  -15.1280    0.5850   -7.1850 C   0  0  0  0  0  0  0  0  0  0  0  0
  -13.9910    1.2750   -7.6970 O   0  0  0  0  0  0  0  0  0  0  0  0
  -13.1700    1.8540   -6.7340 C   0  0  0  0  0  0  0  0  0  0  0  0
  -12.1620    1.1270   -6.2200 C   0  0  0  0  0  0  0  0  0  0  0  0
  -11.8830   -0.2990   -6.6550 C   0  0  0  0  0  0  0  0  0  0  0  0
  -10.9780   -0.4090   -7.9090 C   0  0  2  0  0  0  0  0  0  0  0  0
  -11.0350   -1.8180   -8.5010 C   0  0  0  0  0  0  0  0  0  0  0  0
   -9.5350    0.0970   -7.7050 C   0  0  0  0  0  0  0  0  0  0  0  0
   -8.4550   -0.8400   -7.0940 C   0  0  2  0  0  0  0  0  0  0  0  0
   -8.8690   -1.3360   -5.8250 O   0  0  0  0  0  0  0  0  0  0  0  0
   -9.0900   -2.7400   -5.7920 C   0  0  0  0  0  0  0  0  0  0  0  0
   -7.1320   -0.0130   -6.9650 C   0  0  2  0  0  0  0  0  0  0  0  0
   -6.3330   -0.1690   -8.1500 O   0  0  0  0  0  0  0  0  0  0  0  0
   -6.2810   -0.2670   -5.6910 C   0  0  1  0  0  0  0  0  0  0  0  0
   -4.9640   -0.9910   -5.9760 C   0  0  0  0  0  0  0  0  0  0  0  0
   -5.9840    1.0630   -5.0170 C   0  0  0  0  0  0  0  0  0  0  0  0
   -5.5400    1.2700   -3.7580 C   0  0  0  0  0  0  0  0  0  0  0  0
   -5.1340    0.1680   -2.8150 C   0  0  0  0  0  0  0  0  0  0  0  0
   -5.4440    2.6980   -3.2070 C   0  0  2  0  0  0  0  0  0  0  0  0
   -4.6340    3.4500   -4.1340 O   0  0  0  0  0  0  0  0  0  0  0  0
   -5.1750    4.5770   -4.6290 C   0  0  0  0  0  0  0  0  0  0  0  0
   -5.1280    5.5520   -3.6950 N   0  0  0  0  0  0  0  0  0  0  0  0
   -5.6560    4.7380   -5.7390 O   0  0  0  0  0  0  0  0  0  0  0  0
   -4.8530    2.7190   -1.7520 C   0  0  1  0  0  0  0  0  0  0  0  0
   -3.5600    3.3500   -1.7600 O   0  0  0  0  0  0  0  0  0  0  0  0
   -3.2920    4.1040   -0.5870 C   0  0  0  0  0  0  0  0  0  0  0  0
   -5.7520    3.4700   -0.8000 C   0  0  0  0  0  0  0  0  0  0  0  0
   -7.0250    3.8430   -1.0060 C   0  0  0  0  0  0  0  0  0  0  0  0
   -7.8160    3.5580   -2.1800 C   0  0  0  0  0  0  0  0  0  0  0  0
   -8.5670    4.4580   -2.8410 C   0  0  0  0  0  0  0  0  0  0  0  0
   -8.7080    5.9190   -2.5560 C   0  0  0  0  0  0  0  0  0  0  0  0
   -9.2510    3.9890   -4.0760 C   0  0  0  0  0  0  0  0  0  0  0  0
   -8.6690    4.0150   -5.1530 O   0  0  0  0  0  0  0  0  0  0  0  0
  -10.5460    3.5910   -3.8460 N   0  0  0  0  0  0  0  0  0  0  0  0
  -11.4750    3.1240   -4.7600 C   0  0  0  0  0  0  0  0  0  0  0  0
  -12.4870    3.8270   -5.2760 C   0  0  0  0  0  0  0  0  0  0  0  0
  -13.4310    3.2460   -6.2450 C   0  0  0  0  0  0  0  0  0  0  0  0
  -14.3860    3.9160   -6.6230 O   0  0  0  0  0  0  0  0  0  0  0  0
  -11.2910    1.6950   -5.1570 C   0  0  0  0  0  0  0  0  0  0  0  0
  -10.4170    1.0370   -4.5970 O   0  0  0  0  0  0  0  0  0  0  0  0
  -15.1020    0.6008   -6.0854 H   0  0  0  0  0  0  0  0  0  0  0  0
  -16.0458    1.0786   -7.5372 H   0  0  0  0  0  0  0  0  0  0  0  0
  -15.1138   -0.4570   -7.5372 H   0  0  0  0  0  0  0  0  0  0  0  0
  -11.3886   -0.8238   -5.8243 H   0  0  0  0  0  0  0  0  0  0  0  0
  -12.8520   -0.7464   -6.9211 H   0  0  0  0  0  0  0  0  0  0  0  0
  -11.3978    0.2885   -8.6488 H   0  0  0  0  0  0  0  0  0  0  0  0
  -11.0649   -2.5569   -7.6867 H   0  0  0  0  0  0  0  0  0  0  0  0
  -11.9380   -1.9189   -9.1211 H   0  0  0  0  0  0  0  0  0  0  0  0
  -10.1431   -1.9916   -9.1211 H   0  0  0  0  0  0  0  0  0  0  0  0
   -9.1646    0.4037   -8.6943 H   0  0  0  0  0  0  0  0  0  0  0  0
   -9.6500    0.8784   -6.9394 H   0  0  0  0  0  0  0  0  0  0  0  0
   -8.2983   -1.7144   -7.7427 H   0  0  0  0  0  0  0  0  0  0  0  0
   -9.1433   -3.0783   -4.7467 H   0  0  0  0  0  0  0  0  0  0  0  0
  -10.0361   -2.9743   -6.3019 H   0  0  0  0  0  0  0  0  0  0  0  0
   -8.2616   -3.2537   -6.3019 H   0  0  0  0  0  0  0  0  0  0  0  0
   -7.4685    1.0282   -6.8527 H   0  0  0  0  0  0  0  0  0  0  0  0
   -5.3970   -0.1450   -7.8890 H   0  0  0  0  0  0  0  0  0  0  0  0
   -6.8721   -0.9240   -5.0360 H   0  0  0  0  0  0  0  0  0  0  0  0
   -4.4790   -1.2576   -5.0254 H   0  0  0  0  0  0  0  0  0  0  0  0
   -5.1656   -1.9051   -6.5538 H   0  0  0  0  0  0  0  0  0  0  0  0
   -4.3003   -0.3309   -6.5538 H   0  0  0  0  0  0  0  0  0  0  0  0
   -6.1503    1.9634   -5.6267 H   0  0  0  0  0  0  0  0  0  0  0  0
   -5.2596    0.5090   -1.7768 H   0  0  0  0  0  0  0  0  0  0  0  0
   -5.7657   -0.7154   -2.9898 H   0  0  0  0  0  0  0  0  0  0  0  0
   -4.0802   -0.0944   -2.9898 H   0  0  0  0  0  0  0  0  0  0  0  0
   -6.4429    3.1505   -3.1208 H   0  0  0  0  0  0  0  0  0  0  0  0
   -5.5990    6.4240   -3.8820 H   0  0  0  0  0  0  0  0  0  0  0  0
   -4.8450    5.3120   -2.7580 H   0  0  0  0  0  0  0  0  0  0  0  0
   -4.7703    1.6763   -1.4115 H   0  0  0  0  0  0  0  0  0  0  0  0
   -3.5097    3.4915    0.3003 H   0  0  0  0  0  0  0  0  0  0  0  0
   -2.2331    4.4015   -0.5763 H   0  0  0  0  0  0  0  0  0  0  0  0
   -3.9256    5.0031   -0.5763 H   0  0  0  0  0  0  0  0  0  0  0  0
   -5.3148    3.7423    0.1720 H   0  0  0  0  0  0  0  0  0  0  0  0
   -7.5111    4.4198   -0.2054 H   0  0  0  0  0  0  0  0  0  0  0  0
   -7.8037    2.5269   -2.5631 H   0  0  0  0  0  0  0  0  0  0  0  0
   -8.7236    6.0805   -1.4680 H   0  0  0  0  0  0  0  0  0  0  0  0
   -7.8581    6.4619   -2.9951 H   0  0  0  0  0  0  0  0  0  0  0  0
   -9.6461    6.2894   -2.9951 H   0  0  0  0  0  0  0  0  0  0  0  0
  -10.9110    3.6860   -2.8980 H   0  0  0  0  0  0  0  0  0  0  0  0
  -12.6194    4.8743   -4.9668 H   0  0  0  0  0  0  0  0  0  0  0  0
  1  2  1  0
  2  3  1  0
  3  4  2  0
  4  5  1  0
  5  6  1  0
  6  7  1  0
  6  8  1  0
  8  9  1  0
  9 10  1  0
 10 11  1  0
  9 12  1  0
 12 13  1  0
 12 14  1  0
 14 15  1  0
 14 16  1  0
 16 17  2  0
 17 18  1  0
 17 19  1  0
 19 20  1  0
 20 21  1  0
 21 22  1  0
 21 23  2  0
 19 24  1  0
 24 25  1  0
 25 26  1  0
 24 27  1  0
 27 28  2  0
 28 29  1  0
 29 30  2  0
 30 31  1  0
 30 32  1  0
 32 33  2  0
 32 34  1  0
 34 35  1  0
 35 36  2  0
 36 37  1  0
 37 38  2  0
 35 39  1  0
 39 40  2  0
 37  3  1  0
 39  4  1  0
  1 41  1  0
  1 42  1  0
  1 43  1  0
  5 44  1  0
  5 45  1  0
  6 46  1  6
  7 47  1  0
  7 48  1  0
  7 49  1  0
  8 50  1  0
  8 51  1  0
  9 52  1  6
 11 53  1  0
 11 54  1  0
 11 55  1  0
 12 56  1  1
 13 57  1  0
 14 58  1  1
 15 59  1  0
 15 60  1  0
 15 61  1  0
 16 62  1  0
 18 63  1  0
 18 64  1  0
 18 65  1  0
 19 66  1  1
 22 67  1  0
 22 68  1  0
 24 69  1  1
 26 70  1  0
 26 71  1  0
 26 72  1  0
 27 73  1  0
 28 74  1  0
 29 75  1  0
 31 76  1  0
 31 77  1  0
 31 78  1  0
 34 79  1  0
 36 80  1  0
M  END
>  <meeko>  (8) 
{"is_sidechain": [false], "free_energy": -5.051, "intermolecular_energy": -10.239, "internal_energy": -1.89}

$$$$
2yge_ligand
     RDKit          3D

 80 81  0  0  0  0  0  0  0  0999 V2000
   -6.9030    5.3540   -0.6400 C   0  0  0  0  0  0  0  0  0  0  0  0
   -7.2000    5.9590   -1.8950 O   0  0  0  0  0  0  0  0  0  0  0  0
   -8.2500    5.3740   -2.5980 C   0  0  0  0  0  0  0  0  0  0  0  0
   -7.9690    4.6510   -3.6970 C   0  0  0  0  0  0  0  0  0  0  0  0
   -6.5520    4.4450   -4.1960 C   0  0  0  0  0  0  0  0  0  0  0  0
   -5.8320    3.2270   -3.5630 C   0  0  2  0  0  0  0  0  0  0  0  0
   -4.5870    3.6690   -2.7930 C   0  0  0  0  0  0  0  0  0  0  0  0
   -5.5510    2.0670   -4.5410 C   0  0  0  0  0  0  0  0  0  0  0  0
   -6.5960    0.9300   -4.7290 C   0  0  2  0  0  0  0  0  0  0  0  0
   -6.6210    0.0690   -3.5940 O   0  0  0  0  0  0  0  0  0  0  0  0
   -7.7690    0.2260   -2.7690 C   0  0  0  0  0  0  0  0  0  0  0  0
   -6.2270    0.1290   -6.0320 C   0  0  2  0  0  0  0  0  0  0  0  0
   -4.8000   -0.0380   -6.0880 O   0  0  0  0  0  0  0  0  0  0  0  0
   -6.7660    0.6980   -7.3730 C   0  0  1  0  0  0  0  0  0  0  0  0
   -5.7350    0.6720   -8.5010 C   0  0  0  0  0  0  0  0  0  0  0  0
   -7.9900   -0.0990   -7.7960 C   0  0  0  0  0  0  0  0  0  0  0  0
   -9.1720    0.3770   -8.2430 C   0  0  0  0  0  0  0  0  0  0  0  0
   -9.4440    1.8320   -8.5220 C   0  0  0  0  0  0  0  0  0  0  0  0
  -10.3430   -0.5840   -8.4780 C   0  0  2  0  0  0  0  0  0  0  0  0
   -9.8840   -1.5820   -9.4140 O   0  0  0  0  0  0  0  0  0  0  0  0
  -10.2670   -2.8490   -9.1790 C   0  0  0  0  0  0  0  0  0  0  0  0
  -10.5680   -2.9980   -7.8700 N   0  0  0  0  0  0  0  0  0  0  0  0
  -10.3360   -3.7600   -9.9880 O   0  0  0  0  0  0  0  0  0  0  0  0
  -11.6180    0.1720   -8.9970 C   0  0  1  0  0  0  0  0  0  0  0  0
  -11.9160   -0.2410  -10.3430 O   0  0  0  0  0  0  0  0  0  0  0  0
  -13.2250   -0.7710  -10.4950 C   0  0  0  0  0  0  0  0  0  0  0  0
  -12.8210   -0.1090   -8.1280 C   0  0  0  0  0  0  0  0  0  0  0  0
  -13.2050    0.5590   -7.0280 C   0  0  0  0  0  0  0  0  0  0  0  0
  -12.5580    1.7250   -6.4720 C   0  0  0  0  0  0  0  0  0  0  0  0
  -13.1540    2.9150   -6.2750 C   0  0  0  0  0  0  0  0  0  0  0  0
  -14.5820    3.2770   -6.5250 C   0  0  0  0  0  0  0  0  0  0  0  0
  -12.3410    3.9750   -5.6190 C   0  0  0  0  0  0  0  0  0  0  0  0
  -12.5230    5.1530   -5.8950 O   0  0  0  0  0  0  0  0  0  0  0  0
  -11.4040    3.4640   -4.7540 N   0  0  0  0  0  0  0  0  0  0  0  0
  -10.4700    4.1520   -3.9970 C   0  0  0  0  0  0  0  0  0  0  0  0
  -10.7290    4.8810   -2.9090 C   0  0  0  0  0  0  0  0  0  0  0  0
   -9.6690    5.5820   -2.1650 C   0  0  0  0  0  0  0  0  0  0  0  0
   -9.9780    6.3010   -1.2200 O   0  0  0  0  0  0  0  0  0  0  0  0
   -9.0660    4.0470   -4.5000 C   0  0  0  0  0  0  0  0  0  0  0  0
   -8.8620    3.4570   -5.5570 O   0  0  0  0  0  0  0  0  0  0  0  0
   -7.2292    6.0185    0.1737 H   0  0  0  0  0  0  0  0  0  0  0  0
   -7.4315    4.3924   -0.5623 H   0  0  0  0  0  0  0  0  0  0  0  0
   -5.8190    5.1840   -0.5623 H   0  0  0  0  0  0  0  0  0  0  0  0
   -6.5868    4.2984   -5.2856 H   0  0  0  0  0  0  0  0  0  0  0  0
   -5.9796    5.3388   -3.9071 H   0  0  0  0  0  0  0  0  0  0  0  0
   -6.5428    2.7952   -2.8431 H   0  0  0  0  0  0  0  0  0  0  0  0
   -4.7806    3.6003   -1.7124 H   0  0  0  0  0  0  0  0  0  0  0  0
   -3.7419    3.0160   -3.0564 H   0  0  0  0  0  0  0  0  0  0  0  0
   -4.3429    4.7087   -3.0564 H   0  0  0  0  0  0  0  0  0  0  0  0
   -5.3939    2.5192   -5.5314 H   0  0  0  0  0  0  0  0  0  0  0  0
   -4.6988    1.5492   -4.0767 H   0  0  0  0  0  0  0  0  0  0  0  0
   -7.6021    1.3630   -4.8301 H   0  0  0  0  0  0  0  0  0  0  0  0
   -7.4690    0.1850   -1.7115 H   0  0  0  0  0  0  0  0  0  0  0  0
   -8.2412    1.1971   -2.9787 H   0  0  0  0  0  0  0  0  0  0  0  0
   -8.4846   -0.5826   -2.9787 H   0  0  0  0  0  0  0  0  0  0  0  0
   -6.7487   -0.8349   -5.9379 H   0  0  0  0  0  0  0  0  0  0  0  0
   -4.4180    0.7580   -6.4950 H   0  0  0  0  0  0  0  0  0  0  0  0
   -7.0181    1.7539   -7.1952 H   0  0  0  0  0  0  0  0  0  0  0  0
   -4.7225    0.6465   -8.0718 H   0  0  0  0  0  0  0  0  0  0  0  0
   -5.8929   -0.2224   -9.1215 H   0  0  0  0  0  0  0  0  0  0  0  0
   -5.8476    1.5733   -9.1215 H   0  0  0  0  0  0  0  0  0  0  0  0
   -7.9021   -1.1935   -7.7300 H   0  0  0  0  0  0  0  0  0  0  0  0
   -9.5455    2.3750   -7.5708 H   0  0  0  0  0  0  0  0  0  0  0  0
   -8.6097    2.2568   -9.0995 H   0  0  0  0  0  0  0  0  0  0  0  0
  -10.3754    1.9267   -9.0995 H   0  0  0  0  0  0  0  0  0  0  0  0
  -10.6513   -1.0597   -7.5353 H   0  0  0  0  0  0  0  0  0  0  0  0
  -10.7620   -3.9230   -7.5210 H   0  0  0  0  0  0  0  0  0  0  0  0
  -10.3560   -2.2430   -7.2360 H   0  0  0  0  0  0  0  0  0  0  0  0
  -11.4015    1.2500   -8.9637 H   0  0  0  0  0  0  0  0  0  0  0  0
  -13.6658   -0.9495   -9.5031 H   0  0  0  0  0  0  0  0  0  0  0  0
  -13.8485   -0.0545  -11.0498 H   0  0  0  0  0  0  0  0  0  0  0  0
  -13.1744   -1.7195  -11.0498 H   0  0  0  0  0  0  0  0  0  0  0  0
  -13.4540   -0.9564   -8.4302 H   0  0  0  0  0  0  0  0  0  0  0  0
  -14.0948    0.1835   -6.5014 H   0  0  0  0  0  0  0  0  0  0  0  0
  -11.4991    1.6330   -6.1886 H   0  0  0  0  0  0  0  0  0  0  0  0
  -15.1006    3.4085   -5.5639 H   0  0  0  0  0  0  0  0  0  0  0  0
  -14.6276    4.2151   -7.0976 H   0  0  0  0  0  0  0  0  0  0  0  0
  -15.0690    2.4739   -7.0976 H   0  0  0  0  0  0  0  0  0  0  0  0
  -11.3320    2.4500   -4.6740 H   0  0  0  0  0  0  0  0  0  0  0  0
  -11.7680    4.9606   -2.5568 H   0  0  0  0  0  0  0  0  0  0  0  0
  1  2  1  0
  2  3  1  0
  3  4  2  0
  4  5  1  0
  5  6  1  0
  6  7  1  0
  6  8  1  0
  8  9  1  0
  9 10  1  0
 10 11  1  0
  9 12  1  0
 12 13  1  0
 12 14  1  0
 14 15  1  0
 14 16  1  0
 16 17  2  0
 17 18  1  0
 17 19  1  0
 19 20  1  0
 20 21  1  0
 21 22  1  0
 21 23  2  0
 19 24  1  0
 24 25  1  0
 25 26  1  0
 24 27  1  0
 27 28  2  0
 28 29  1  0
 29 30  2  0
 30 31  1  0
 30 32  1  0
 32 33  2  0
 32 34  1  0
 34 35  1  0
 35 36  2  0
 36 37  1  0
 37 38  2  0
 35 39  1  0
 39 40  2  0
 37  3  1  0
 39  4  1  0
  1 41  1  0
  1 42  1  0
  1 43  1  0
  5 44  1  0
  5 45  1  0
  6 46  1  1
  7 47  1  0
  7 48  1  0
  7 49  1  0
  8 50  1  0
  8 51  1  0
  9 52  1  6
 11 53  1  0
 11 54  1  0
 11 55  1  0
 12 56  1  1
 13 57  1  0
 14 58  1  1
 15 59  1  0
 15 60  1  0
 15 61  1  0
 16 62  1  0
 18 63  1  0
 18 64  1  0
 18 65  1  0
 19 66  1  1
 22 67  1  0
 22 68  1  0
 24 69  1  6
 26 70  1  0
 26 71  1  0
 26 72  1  0
 27 73  1  0
 28 74  1  0
 29 75  1  0
 31 76  1  0
 31 77  1  0
 31 78  1  0
 34 79  1  0
 36 80  1  0
M  END
>  <meeko>  (9) 
{"is_sidechain": [false], "free_energy": -5.047, "intermolecular_energy": -9.111, "internal_energy": -3.011}

$$$$
