
     RDKit          3D

 37 40  0  0  0  0  0  0  0  0999 V2000
    4.0620  -13.6880    2.6390 C   0  0  0  0  0  0  0  0  0  0  0  0
    4.4080  -14.5080    3.7480 O   0  0  0  0  0  0  0  0  0  0  0  0
    5.2900  -15.5270    3.5350 C   0  0  0  0  0  0  0  0  0  0  0  0
    5.9790  -15.6610    2.3550 C   0  0  0  0  0  0  0  0  0  0  0  0
    6.8920  -16.7100    2.2020 C   0  0  0  0  0  0  0  0  0  0  0  0
    7.0940  -17.6160    3.2350 C   0  0  0  0  0  0  0  0  0  0  0  0
    8.0730  -18.7290    3.0730 C   0  0  0  0  0  0  0  0  0  0  0  0
    7.6230  -19.6790    2.0720 N   0  0  0  0  0  0  0  0  0  0  0  0
    6.8580  -20.7650    2.3630 C   0  0  0  0  0  0  0  0  0  0  0  0
    6.5480  -21.0560    3.5040 O   0  0  0  0  0  0  0  0  0  0  0  0
    6.3950  -21.5740    1.2160 C   0  0  0  0  0  0  0  0  0  0  0  0
    7.2870  -21.8510    0.1920 C   0  0  0  0  0  0  0  0  0  0  0  0
    6.8760  -22.6130   -0.9060 C   0  0  0  0  0  0  0  0  0  0  0  0
    7.7540  -22.8900   -1.9610 C   0  0  0  0  0  0  0  0  0  0  0  0
    7.3490  -23.6650   -3.0270 C   0  0  0  0  0  0  0  0  0  0  0  0
    6.0420  -24.1820   -3.0790 C   0  0  0  0  0  0  0  0  0  0  0  0
    5.1550  -23.9110   -2.0520 C   0  0  0  0  0  0  0  0  0  0  0  0
    5.5680  -23.1210   -0.9530 C   0  0  0  0  0  0  0  0  0  0  0  0
    4.6720  -22.8520    0.0880 C   0  0  0  0  0  0  0  0  0  0  0  0
    5.0670  -22.0840    1.1660 C   0  0  0  0  0  0  0  0  0  0  0  0
    4.0440  -21.8250    2.2530 C   0  0  0  0  0  0  0  0  0  0  0  0
    3.0590  -20.7750    1.8680 N   0  0  0  0  0  0  0  0  0  0  0  0
    1.9300  -20.8360    2.8020 C   0  0  0  0  0  0  0  0  0  0  0  0
    3.6800  -19.4100    1.8190 C   0  0  0  0  0  0  0  0  0  0  0  0
    2.6690  -18.2920    1.5680 C   0  0  0  0  0  0  0  0  0  0  0  0
    2.2620  -17.5000    2.6350 C   0  0  0  0  0  0  0  0  0  0  0  0
    1.3410  -16.4940    2.4520 C   0  0  0  0  0  0  0  0  0  0  0  0
    0.7740  -16.2960    1.2080 C   0  0  0  0  0  0  0  0  0  0  0  0
    1.1560  -17.0790    0.1330 C   0  0  0  0  0  0  0  0  0  0  0  0
    0.6170  -16.9310   -1.1210 O   0  0  0  0  0  0  0  0  0  0  0  0
   -0.4480  -15.9660   -1.2460 C   0  0  0  0  0  0  0  0  0  0  0  0
    2.1300  -18.0760    0.2750 C   0  0  0  0  0  0  0  0  0  0  0  0
    2.5680  -18.8410   -0.9160 C   0  0  0  0  0  0  0  0  0  0  0  0
    2.8980  -20.0350   -0.8000 O   0  0  0  0  0  0  0  0  0  0  0  0
    2.6710  -18.2260   -2.0130 O   0  0  0  0  0  0  0  0  0  0  0  0
    6.3770  -17.4970    4.4090 C   0  0  0  0  0  0  0  0  0  0  0  0
    5.4650  -16.4410    4.5570 C   0  0  0  0  0  0  0  0  0  0  0  0
  2  1  1  0
  3  2  1  0
  4  3  2  0
  5  4  1  0
  6  5  2  0
  7  6  1  0
  8  7  1  0
  9  8  1  0
 10  9  2  0
 11  9  1  0
 12 11  2  0
 13 12  1  0
 14 13  2  0
 15 14  1  0
 16 15  2  0
 17 16  1  0
 18 17  2  0
 18 13  1  0
 19 18  1  0
 20 19  2  0
 20 11  1  0
 21 20  1  0
 22 21  1  0
 23 22  1  0
 24 22  1  0
 25 24  1  0
 26 25  2  0
 27 26  1  0
 28 27  2  0
 29 28  1  0
 30 29  1  0
 31 30  1  0
 32 29  2  0
 32 25  1  0
 33 32  1  0
 34 33  2  0
 35 33  1  0
 36  6  1  0
 37  3  1  0
 37 36  2  0
M  CHG  2  22   1  35  -1
M  END
$$$$
