
     RDKit          3D

 30 32  0  0  0  0  0  0  0  0999 V2000
   24.0660    9.7180   -9.2930 C   0  0  0  0  0  0  0  0  0  0  0  0
   23.0820   10.1610   -8.2910 C   0  0  0  0  0  0  0  0  0  0  0  0
   21.7270    9.5830   -8.5080 N   0  0  0  0  0  0  0  0  0  0  0  0
   20.7310   10.2920   -7.6680 C   0  0  0  0  0  0  0  0  0  0  0  0
   20.2750   11.5960   -8.2720 C   0  0  0  0  0  0  0  0  0  0  0  0
   21.7220    8.1190   -8.3250 C   0  0  1  0  0  0  0  0  0  0  0  0
   20.8480    7.6420   -7.1930 C   0  0  0  0  0  0  0  0  0  0  0  0
   20.7780    6.1320   -7.1620 C   0  0  0  0  0  0  0  0  0  0  0  0
   20.3170    5.5880   -8.4470 N   0  0  0  0  0  0  0  0  0  0  0  0
   20.2620    4.1550   -8.4340 C   0  0  0  0  0  0  0  0  0  0  0  0
   19.2060    3.5050   -7.5950 C   0  0  0  0  0  0  0  0  0  0  0  0
   19.4840    2.3010   -6.9570 C   0  0  0  0  0  0  0  0  0  0  0  0
   18.5400    1.6650   -6.1770 C   0  0  0  0  0  0  0  0  0  0  0  0
   18.8290    0.4520   -5.5340 C   0  0  0  0  0  0  0  0  0  0  0  0
   19.0520   -0.5840   -4.9710 C   0  0  0  0  0  0  0  0  0  0  0  0
   19.3400   -1.8250   -4.2950 C   0  0  0  0  0  0  0  0  0  0  0  0
   20.7560   -2.1080   -4.3100 N   0  0  0  0  0  0  0  0  0  0  0  0
   21.3180   -2.6960   -5.4050 C   0  0  0  0  0  0  0  0  0  0  0  0
   22.5780   -2.2580   -5.7970 C   0  0  0  0  0  0  0  0  0  0  0  0
   23.1760   -2.7840   -6.9080 C   0  0  0  0  0  0  0  0  0  0  0  0
   22.5250   -3.7880   -7.6460 C   0  0  0  0  0  0  0  0  0  0  0  0
   21.2810   -4.2230   -7.2350 C   0  0  0  0  0  0  0  0  0  0  0  0
   20.6780   -3.6890   -6.1220 C   0  0  0  0  0  0  0  0  0  0  0  0
   17.2770    2.2230   -6.0260 C   0  0  0  0  0  0  0  0  0  0  0  0
   16.9840    3.4090   -6.6620 C   0  0  0  0  0  0  0  0  0  0  0  0
   15.0880    4.2130   -6.4400 I   0  0  0  0  0  0  0  0  0  0  0  0
   17.9480    4.0690   -7.4520 C   0  0  0  0  0  0  0  0  0  0  0  0
   17.6630    5.2440   -8.0750 O   0  0  0  0  0  0  0  0  0  0  0  0
   21.2050    6.0150   -9.5350 C   0  0  0  0  0  0  0  0  0  0  0  0
   21.2480    7.5120   -9.6130 C   0  0  0  0  0  0  0  0  0  0  0  0
  2  1  1  0
  3  2  1  0
  4  3  1  0
  5  4  1  0
  6  3  1  6
  7  6  1  0
  8  7  1  0
  9  8  1  0
 10  9  1  0
 11 10  1  0
 12 11  2  0
 13 12  1  0
 14 13  1  0
 15 14  3  0
 16 15  1  0
 17 16  1  0
 18 17  1  0
 19 18  2  0
 20 19  1  0
 21 20  2  0
 22 21  1  0
 23 22  2  0
 23 18  1  0
 24 13  2  0
 25 24  1  0
 26 25  1  0
 27 25  2  0
 27 11  1  0
 28 27  1  0
 29  9  1  0
 30 29  1  0
 30  6  1  0
M  CHG  1   3   1
M  END
$$$$
