
     RDKit          3D

 20 22  0  0  0  0  0  0  0  0999 V2000
    0.3160   -7.8150  -13.4350 C   0  0  0  0  0  0  0  0  0  0  0  0
    1.1480   -6.9130  -12.1430 S   0  0  0  0  0  0  0  0  0  0  0  0
    2.7520   -7.6910  -12.1300 C   0  0  0  0  0  0  0  0  0  0  0  0
    3.0380   -8.5420  -10.9020 C   0  0  1  0  0  0  0  0  0  0  0  0
    4.4230   -9.0690  -10.9280 N   0  0  0  0  0  0  0  0  0  0  0  0
    5.3020   -7.9560  -10.4110 C   0  0  1  0  0  0  0  0  0  0  0  0
    5.9330   -7.2730  -11.6260 C   0  0  0  0  0  0  0  0  0  0  0  0
    6.5240   -7.9010  -12.7080 C   0  0  0  0  0  0  0  0  0  0  0  0
    6.9970   -6.9890  -13.5910 N   0  0  0  0  0  0  0  0  0  0  0  0
    6.7370   -5.7560  -13.1120 C   0  0  0  0  0  0  0  0  0  0  0  0
    6.9970   -4.4420  -13.6240 C   0  0  0  0  0  0  0  0  0  0  0  0
    7.6060   -4.2400  -14.8060 N   0  0  0  0  0  0  0  0  0  0  0  0
    6.6010   -3.3840  -12.8880 N   0  0  0  0  0  0  0  0  0  0  0  0
    5.9860   -3.5700  -11.6970 C   0  0  0  0  0  0  0  0  0  0  0  0
    5.7120   -4.7660  -11.1760 N   0  0  0  0  0  0  0  0  0  0  0  0
    6.0800   -5.8830  -11.8800 C   0  0  0  0  0  0  0  0  0  0  0  0
    4.4280   -7.1200   -9.5230 C   0  0  2  0  0  0  0  0  0  0  0  0
    4.9140   -7.1710   -8.1920 O   0  0  0  0  0  0  0  0  0  0  0  0
    3.0310   -7.7860   -9.5990 C   0  0  2  0  0  0  0  0  0  0  0  0
    2.8580   -8.7200   -8.5560 O   0  0  0  0  0  0  0  0  0  0  0  0
  2  1  1  0
  3  2  1  0
  4  3  1  6
  5  4  1  0
  6  5  1  0
  6  7  1  6
  8  7  2  0
  9  8  1  0
 10  9  1  0
 11 10  2  0
 12 11  1  0
 13 11  1  0
 14 13  2  0
 15 14  1  0
 16 10  1  0
 16  7  1  0
 16 15  2  0
 17  6  1  0
 17 18  1  1
 19  4  1  0
 19 17  1  0
 19 20  1  1
M  CHG  1   5   1
M  END
$$$$
