
     RDKit          3D

 14 15  0  0  0  0  0  0  0  0999 V2000
   -2.6220    9.7590   -1.2210 C   0  0  0  0  0  0  0  0  0  0  0  0
   -2.1980   10.9930   -0.4250 C   0  0  0  0  0  0  0  0  0  0  0  0
   -3.0510   12.2180   -0.7000 C   0  0  1  0  0  0  0  0  0  0  0  0
   -2.9890   12.7430   -2.1080 C   0  0  0  0  0  0  0  0  0  0  0  0
   -1.9590   12.9300   -2.7250 O   0  0  0  0  0  0  0  0  0  0  0  0
   -4.2920   12.9910   -2.5350 N   0  0  0  0  0  0  0  0  0  0  0  0
   -4.6440   13.5590   -3.7420 C   0  0  0  0  0  0  0  0  0  0  0  0
   -3.7770   13.9750   -4.6690 N   0  0  0  0  0  0  0  0  0  0  0  0
   -4.4900   14.4610   -5.6950 N   0  0  0  0  0  0  0  0  0  0  0  0
   -5.7780   14.3410   -5.3830 N   0  0  0  0  0  0  0  0  0  0  0  0
   -5.8780   13.7930   -4.1780 N   0  0  0  0  0  0  0  0  0  0  0  0
   -5.2020   12.5900   -1.5660 N   0  0  0  0  0  0  0  0  0  0  0  0
   -4.5210   12.0950   -0.5080 C   0  0  0  0  0  0  0  0  0  0  0  0
   -5.2050   11.5460    0.7050 C   0  0  0  0  0  0  0  0  0  0  0  0
  2  1  1  0
  3  2  1  6
  4  3  1  0
  5  4  2  0
  6  4  1  0
  7  6  1  0
  8  7  2  0
  9  8  1  0
 10  9  2  0
 11 10  1  0
 11  7  1  0
 12  6  1  0
 13 12  2  0
 13  3  1  0
 14 13  1  0
M  CHG  1  12   1
M  END
$$$$
