
     RDKit          3D

 31 34  0  0  0  0  0  0  0  0999 V2000
   -1.3040    3.4000   10.6950 O   0  0  0  0  0  0  0  0  0  0  0  0
   -0.0640    4.0510   10.3170 S   0  0  1  0  0  0  0  0  0  0  0  0
    1.1040    3.1460   10.3290 O   0  0  0  0  0  0  0  0  0  0  0  0
   -0.2190    4.6980    8.8190 N   0  0  0  0  0  0  0  0  0  0  0  0
    0.8170    5.2280    8.0460 C   0  0  0  0  0  0  0  0  0  0  0  0
    0.4560    5.7220    6.8040 C   0  0  0  0  0  0  0  0  0  0  0  0
    1.4090    6.2590    5.9630 C   0  0  0  0  0  0  0  0  0  0  0  0
    0.9270    6.8930    4.4260 Cl  0  0  0  0  0  0  0  0  0  0  0  0
    2.7490    6.3040    6.3830 C   0  0  0  0  0  0  0  0  0  0  0  0
    3.7060    6.8640    5.5800 O   0  0  0  0  0  0  0  0  0  0  0  0
    4.1330    8.1940    5.7870 C   0  0  0  0  0  0  0  0  0  0  0  0
    4.6930    8.8680    4.7060 C   0  0  0  0  0  0  0  0  0  0  0  0
    5.1290   10.1460    4.8100 N   0  0  0  0  0  0  0  0  0  0  0  0
    5.0370   10.8120    6.0090 C   0  0  0  0  0  0  0  0  0  0  0  0
    5.4950   12.1370    6.1380 C   0  0  0  0  0  0  0  0  0  0  0  0
    5.4120   12.8110    7.3320 C   0  0  0  0  0  0  0  0  0  0  0  0
    4.8600   12.1920    8.4500 C   0  0  0  0  0  0  0  0  0  0  0  0
    4.3950   10.8880    8.3530 C   0  0  0  0  0  0  0  0  0  0  0  0
    4.4740   10.1770    7.1420 C   0  0  0  0  0  0  0  0  0  0  0  0
    4.0180    8.8520    7.0090 C   0  0  0  0  0  0  0  0  0  0  0  0
    3.1210    5.7860    7.6090 C   0  0  0  0  0  0  0  0  0  0  0  0
    4.8210    5.8250    8.0960 Cl  0  0  0  0  0  0  0  0  0  0  0  0
    2.1650    5.2600    8.4310 C   0  0  0  0  0  0  0  0  0  0  0  0
    0.2200    5.3560   11.4510 C   0  0  0  0  0  0  0  0  0  0  0  0
    1.3980    5.3520   12.1770 C   0  0  0  0  0  0  0  0  0  0  0  0
    1.6370    6.3460   13.1150 C   0  0  0  0  0  0  0  0  0  0  0  0
    0.6960    7.3300   13.3320 C   0  0  0  0  0  0  0  0  0  0  0  0
    0.9830    8.5500   14.5080 Cl  0  0  0  0  0  0  0  0  0  0  0  0
   -0.4870    7.3330   12.6110 C   0  0  0  0  0  0  0  0  0  0  0  0
   -0.7460    6.3400   11.6710 C   0  0  0  0  0  0  0  0  0  0  0  0
   -2.2630    6.3920   10.7420 Cl  0  0  0  0  0  0  0  0  0  0  0  0
  2  1  2  0
  3  2  2  0
  2  4  1  6
  5  4  1  0
  6  5  2  0
  7  6  1  0
  8  7  1  0
  9  7  2  0
 10  9  1  0
 11 10  1  0
 12 11  2  0
 13 12  1  0
 14 13  2  0
 15 14  1  0
 16 15  2  0
 17 16  1  0
 18 17  2  0
 19 18  1  0
 19 14  1  0
 20 19  2  0
 20 11  1  0
 21  9  1  0
 22 21  1  0
 23  5  1  0
 23 21  2  0
 24  2  1  0
 25 24  2  0
 26 25  1  0
 27 26  2  0
 28 27  1  0
 29 27  1  0
 30 24  1  0
 30 29  2  0
 31 30  1  0
M  END
$$$$
