
     RDKit          3D

 27 30  0  0  0  0  0  0  0  0999 V2000
   -4.5500    7.5800    5.7080 C   0  0  0  0  0  0  0  0  0  0  0  0
   -3.9370    8.8110    6.3150 C   0  0  0  0  0  0  0  0  0  0  0  0
   -2.6310    8.9630    6.4930 N   0  0  0  0  0  0  0  0  0  0  0  0
   -2.4310   10.1870    7.0520 O   0  0  0  0  0  0  0  0  0  0  0  0
   -3.5960   10.7930    7.2090 C   0  0  0  0  0  0  0  0  0  0  0  0
   -3.6720   12.1710    7.7740 C   0  0  0  0  0  0  0  0  0  0  0  0
   -4.6110    9.9540    6.7660 C   0  0  0  0  0  0  0  0  0  0  0  0
   -6.0480   10.2150    6.8140 C   0  0  0  0  0  0  0  0  0  0  0  0
   -6.5890   10.7680    7.9610 C   0  0  0  0  0  0  0  0  0  0  0  0
   -7.9490   11.0360    8.0280 C   0  0  0  0  0  0  0  0  0  0  0  0
   -8.7660   10.7320    6.9540 C   0  0  0  0  0  0  0  0  0  0  0  0
  -10.1660   11.0490    7.0330 C   0  0  0  0  0  0  0  0  0  0  0  0
  -10.9030   11.3730    5.9430 N   0  0  0  0  0  0  0  0  0  0  0  0
  -12.1230   11.6840    6.4100 C   0  0  0  0  0  0  0  0  0  0  0  0
  -13.2460   12.0950    5.6820 C   0  0  0  0  0  0  0  0  0  0  0  0
  -14.3790   12.3610    6.3760 N   0  0  0  0  0  0  0  0  0  0  0  0
  -14.4160   12.2400    7.7160 C   0  0  0  0  0  0  0  0  0  0  0  0
  -13.3000   11.8270    8.4380 C   0  0  0  0  0  0  0  0  0  0  0  0
  -12.1560   11.5420    7.7460 N   0  0  0  0  0  0  0  0  0  0  0  0
  -10.9400   11.1200    8.1900 C   0  0  0  0  0  0  0  0  0  0  0  0
  -10.6000   10.8300    9.4920 N   0  0  0  0  0  0  0  0  0  0  0  0
  -10.6410    9.4590   10.0760 C   0  0  2  0  0  0  0  0  0  0  0  0
   -9.9630    9.5380   11.4560 C   0  0  0  0  0  0  0  0  0  0  0  0
   -9.8990    8.4570    9.2180 C   0  0  0  0  0  0  0  0  0  0  0  0
  -12.0960    9.0040   10.2490 C   0  0  0  0  0  0  0  0  0  0  0  0
   -8.2340   10.1670    5.8160 C   0  0  0  0  0  0  0  0  0  0  0  0
   -6.8760    9.9170    5.7460 C   0  0  0  0  0  0  0  0  0  0  0  0
  2  1  1  0
  3  2  2  0
  4  3  1  0
  5  4  1  0
  6  5  1  0
  7  5  2  0
  7  2  1  0
  8  7  1  0
  9  8  2  0
 10  9  1  0
 11 10  2  0
 12 11  1  0
 13 12  1  0
 14 13  2  0
 15 14  1  0
 16 15  2  0
 17 16  1  0
 18 17  2  0
 19 18  1  0
 19 14  1  0
 20 19  1  0
 20 12  2  0
 21 20  1  0
 22 21  1  0
 22 23  1  1
 24 22  1  0
 25 22  1  0
 26 11  1  0
 27 26  2  0
 27  8  1  0
M  END
$$$$
