
     RDKit          3D

 37 40  0  0  0  0  0  0  0  0999 V2000
   -4.6350  -11.6400    0.7820 O   0  0  0  0  0  0  0  0  0  0  0  0
   -4.4010  -11.4370   -0.4240 C   0  0  0  0  0  0  0  0  0  0  0  0
   -3.7140  -10.4800   -0.8420 O   0  0  0  0  0  0  0  0  0  0  0  0
   -5.0000  -12.3950   -1.4500 C   0  0  0  0  0  0  0  0  0  0  0  0
   -4.8270  -11.9020   -2.7530 O   0  0  0  0  0  0  0  0  0  0  0  0
   -5.6530  -12.4800   -3.7200 C   0  0  0  0  0  0  0  0  0  0  0  0
   -5.3130  -13.5290   -4.5340 C   0  0  0  0  0  0  0  0  0  0  0  0
   -4.0260  -14.2780   -4.5230 C   0  0  0  0  0  0  0  0  0  0  0  0
   -3.9610  -15.3030   -5.2360 O   0  0  0  0  0  0  0  0  0  0  0  0
   -3.0770  -13.8240   -3.8400 O   0  0  0  0  0  0  0  0  0  0  0  0
   -6.6030  -13.9200   -5.6130 S   0  0  0  0  0  0  0  0  0  0  0  0
   -7.6090  -12.7030   -5.0010 C   0  0  0  0  0  0  0  0  0  0  0  0
   -8.9480  -12.5050   -5.5290 C   0  0  0  0  0  0  0  0  0  0  0  0
   -9.2070  -12.7680   -6.8840 C   0  0  0  0  0  0  0  0  0  0  0  0
  -10.4970  -12.5800   -7.4220 C   0  0  0  0  0  0  0  0  0  0  0  0
  -11.5160  -12.1310   -6.5740 C   0  0  0  0  0  0  0  0  0  0  0  0
  -11.2510  -11.8780   -5.2390 C   0  0  0  0  0  0  0  0  0  0  0  0
  -12.2200  -11.4250   -4.3850 N   0  0  0  0  0  0  0  0  0  0  0  0
  -13.2680  -10.5590   -4.7840 C   0  0  2  0  0  0  0  0  0  0  0  0
  -12.6830   -9.1660   -4.9290 C   0  0  0  0  0  0  0  0  0  0  0  0
  -13.7820   -8.1720   -5.1250 C   0  0  0  0  0  0  0  0  0  0  0  0
  -14.7080   -8.3140   -3.9850 N   0  0  0  0  0  0  0  0  0  0  0  0
  -15.6450   -7.0350   -3.6280 S   0  0  2  0  0  0  0  0  0  0  0  0
  -14.8070   -5.8390   -3.6320 O   0  0  0  0  0  0  0  0  0  0  0  0
  -16.3000   -7.3140   -2.3410 O   0  0  0  0  0  0  0  0  0  0  0  0
  -16.8590   -6.9070   -4.8870 C   0  0  0  0  0  0  0  0  0  0  0  0
  -17.6500   -5.6880   -4.6700 C   0  0  0  0  0  0  0  0  0  0  0  0
  -18.8370   -5.7360   -3.8880 C   0  0  0  0  0  0  0  0  0  0  0  0
  -19.5630   -4.5520   -3.6500 C   0  0  0  0  0  0  0  0  0  0  0  0
  -19.1210   -3.3360   -4.1910 C   0  0  0  0  0  0  0  0  0  0  0  0
  -17.9560   -3.2980   -4.9950 C   0  0  0  0  0  0  0  0  0  0  0  0
  -17.2270   -4.4760   -5.2440 C   0  0  0  0  0  0  0  0  0  0  0  0
  -15.3630   -9.6130   -3.9360 C   0  0  0  0  0  0  0  0  0  0  0  0
  -14.3240  -10.6320   -3.6890 C   0  0  0  0  0  0  0  0  0  0  0  0
   -9.9770  -12.0870   -4.7100 C   0  0  0  0  0  0  0  0  0  0  0  0
   -6.9430  -12.0230   -3.9790 C   0  0  0  0  0  0  0  0  0  0  0  0
   -7.6270  -10.5840   -2.9760 Br  0  0  0  0  0  0  0  0  0  0  0  0
  2  1  1  0
  3  2  2  0
  4  2  1  0
  5  4  1  0
  6  5  1  0
  7  6  2  0
  8  7  1  0
  9  8  2  0
 10  8  1  0
 11  7  1  0
 12 11  1  0
 13 12  1  0
 14 13  2  0
 15 14  1  0
 16 15  2  0
 17 16  1  0
 18 17  1  0
 19 18  1  1
 20 19  1  0
 21 20  1  0
 22 21  1  0
 23 22  1  0
 24 23  2  0
 25 23  2  0
 23 26  1  6
 27 26  1  0
 28 27  2  0
 29 28  1  0
 30 29  2  0
 31 30  1  0
 32 27  1  0
 32 31  2  0
 33 22  1  0
 34 33  1  0
 34 19  1  0
 35 17  2  0
 35 13  1  0
 36 12  2  0
 36  6  1  0
 37 36  1  0
M  CHG  2   1  -1  10  -1
M  END
$$$$
