3acw_ligand
     RDKit          3D

 43 46  0  0  0  0  0  0  0  0999 V2000
   -0.2010    1.5740   -1.2150 O   0  0  0  0  0  0  0  0  0  0  0  0
    0.7800    1.4590   -0.1680 C   0  0  2  0  0  0  0  0  0  0  0  0
    1.7970    2.5700   -0.3900 C   0  0  0  0  0  0  0  0  0  0  0  0
    1.6300    3.7990    0.2770 C   0  0  0  0  0  0  0  0  0  0  0  0
    2.5420    4.8480    0.1120 C   0  0  0  0  0  0  0  0  0  0  0  0
    3.6640    4.7070   -0.7130 C   0  0  0  0  0  0  0  0  0  0  0  0
    4.6260    5.8070   -0.8870 C   0  0  0  0  0  0  0  0  0  0  0  0
    4.6000    6.6170   -2.0340 C   0  0  0  0  0  0  0  0  0  0  0  0
    5.5130    7.6620   -2.1990 C   0  0  0  0  0  0  0  0  0  0  0  0
    6.4680    7.9150   -1.2190 C   0  0  0  0  0  0  0  0  0  0  0  0
    6.5110    7.1260   -0.0730 C   0  0  0  0  0  0  0  0  0  0  0  0
    5.5980    6.0810    0.0910 C   0  0  0  0  0  0  0  0  0  0  0  0
    3.8450    3.4760   -1.3590 C   0  0  0  0  0  0  0  0  0  0  0  0
    2.9340    2.4240   -1.1950 C   0  0  0  0  0  0  0  0  0  0  0  0
    1.4420    0.0430   -0.2950 C   0  0  0  0  0  0  0  0  0  0  0  0
    0.8160   -0.9050    0.7340 N   0  0  2  0  0  0  0  0  0  0  0  0
   -0.6960   -0.8950    0.6080 C   0  0  0  0  0  0  0  0  0  0  0  0
   -1.2030    0.4690    1.0720 C   0  0  0  0  0  0  0  0  0  0  0  0
   -0.0220    1.4660    1.1790 C   0  0  1  0  0  0  0  0  0  0  0  0
    0.8720    0.9640    2.3360 C   0  0  0  0  0  0  0  0  0  0  0  0
    1.2460   -0.5060    2.1270 C   0  0  0  0  0  0  0  0  0  0  0  0
    0.2330    1.9680   -1.9980 H   0  0  0  0  0  0  0  0  0  0  0  0
    0.7646    3.9376    0.9417 H   0  0  0  0  0  0  0  0  0  0  0  0
    2.3742    5.7987    0.6393 H   0  0  0  0  0  0  0  0  0  0  0  0
    3.8491    6.4258   -2.8148 H   0  0  0  0  0  0  0  0  0  0  0  0
    5.4767    8.2853   -3.1046 H   0  0  0  0  0  0  0  0  0  0  0  0
    7.1874    8.7368   -1.3497 H   0  0  0  0  0  0  0  0  0  0  0  0
    7.2640    7.3252    0.7038 H   0  0  0  0  0  0  0  0  0  0  0  0
    5.6405    5.4629    0.9999 H   0  0  0  0  0  0  0  0  0  0  0  0
    4.7211    3.3329   -2.0086 H   0  0  0  0  0  0  0  0  0  0  0  0
    3.1148    1.4674   -1.7071 H   0  0  0  0  0  0  0  0  0  0  0  0
    1.2735   -0.3515   -1.3079 H   0  0  0  0  0  0  0  0  0  0  0  0
    2.5232    0.1246   -0.1098 H   0  0  0  0  0  0  0  0  0  0  0  0
    1.1510   -1.8580    0.5380 H   0  0  0  0  0  0  0  0  0  0  0  0
   -0.9837   -1.0626   -0.4404 H   0  0  0  0  0  0  0  0  0  0  0  0
   -1.1345   -1.6938    1.2241 H   0  0  0  0  0  0  0  0  0  0  0  0
   -1.9370    0.8505    0.3470 H   0  0  0  0  0  0  0  0  0  0  0  0
   -1.6748    0.3615    2.0598 H   0  0  0  0  0  0  0  0  0  0  0  0
   -0.3678    2.4928    1.3689 H   0  0  0  0  0  0  0  0  0  0  0  0
    1.7898    1.5692    2.3728 H   0  0  0  0  0  0  0  0  0  0  0  0
    0.3167    1.0585    3.2809 H   0  0  0  0  0  0  0  0  0  0  0  0
    2.3336   -0.6329    2.2325 H   0  0  0  0  0  0  0  0  0  0  0  0
    0.7460   -1.1373    2.8763 H   0  0  0  0  0  0  0  0  0  0  0  0
  2  1  1  6
  2  3  1  0
  3  4  2  0
  4  5  1  0
  5  6  2  0
  6  7  1  0
  7  8  2  0
  8  9  1  0
  9 10  2  0
 10 11  1  0
 11 12  2  0
  6 13  1  0
 13 14  2  0
  2 15  1  0
 15 16  1  0
 16 17  1  0
 17 18  1  0
 18 19  1  0
 19 20  1  0
 20 21  1  0
 19  2  1  0
 14  3  1  0
 21 16  1  0
 12  7  1  0
  1 22  1  0
  4 23  1  0
  5 24  1  0
  8 25  1  0
  9 26  1  0
 10 27  1  0
 11 28  1  0
 12 29  1  0
 13 30  1  0
 14 31  1  0
 15 32  1  0
 15 33  1  0
 16 34  1  1
 17 35  1  0
 17 36  1  0
 18 37  1  0
 18 38  1  0
 19 39  1  6
 20 40  1  0
 20 41  1  0
 21 42  1  0
 21 43  1  0
M  CHG  1  16   1
M  END
>  <meeko>  (1) 
{"is_sidechain": [false], "free_energy": -8.707, "intermolecular_energy": -9.98, "internal_energy": -0.667}

$$$$
3acw_ligand
     RDKit          3D

 43 46  0  0  0  0  0  0  0  0999 V2000
    0.6850   -0.9740   -1.0900 O   0  0  0  0  0  0  0  0  0  0  0  0
    0.2200   -0.0200   -0.1190 C   0  0  2  0  0  0  0  0  0  0  0  0
    1.0940    1.2190   -0.2610 C   0  0  0  0  0  0  0  0  0  0  0  0
    1.9460    1.3360   -1.3760 C   0  0  0  0  0  0  0  0  0  0  0  0
    2.7620    2.4580   -1.5550 C   0  0  0  0  0  0  0  0  0  0  0  0
    2.7500    3.5150   -0.6380 C   0  0  0  0  0  0  0  0  0  0  0  0
    3.6060    4.6980   -0.8250 C   0  0  0  0  0  0  0  0  0  0  0  0
    4.2470    5.3070    0.2660 C   0  0  0  0  0  0  0  0  0  0  0  0
    5.0600    6.4310    0.0880 C   0  0  0  0  0  0  0  0  0  0  0  0
    5.2450    6.9640   -1.1840 C   0  0  0  0  0  0  0  0  0  0  0  0
    4.6200    6.3740   -2.2800 C   0  0  0  0  0  0  0  0  0  0  0  0
    3.8060    5.2520   -2.1010 C   0  0  0  0  0  0  0  0  0  0  0  0
    1.8850    3.4120    0.4610 C   0  0  0  0  0  0  0  0  0  0  0  0
    1.0660    2.2890    0.6430 C   0  0  0  0  0  0  0  0  0  0  0  0
    0.3790   -0.6720    1.2980 C   0  0  0  0  0  0  0  0  0  0  0  0
   -0.9780   -1.2100    1.7650 N   0  0  2  0  0  0  0  0  0  0  0  0
   -1.5770   -2.1190    0.7080 C   0  0  0  0  0  0  0  0  0  0  0  0
   -1.9640   -1.2600   -0.4930 C   0  0  0  0  0  0  0  0  0  0  0  0
   -1.3180    0.1440   -0.3740 C   0  0  1  0  0  0  0  0  0  0  0  0
   -1.9910    0.8330    0.8350 C   0  0  0  0  0  0  0  0  0  0  0  0
   -1.9060   -0.0580    2.0780 C   0  0  0  0  0  0  0  0  0  0  0  0
    0.4080   -0.6680   -1.9770 H   0  0  0  0  0  0  0  0  0  0  0  0
    1.9704    0.5280   -2.1220 H   0  0  0  0  0  0  0  0  0  0  0  0
    3.4245    2.5103   -2.4316 H   0  0  0  0  0  0  0  0  0  0  0  0
    4.1076    4.8938    1.2758 H   0  0  0  0  0  0  0  0  0  0  0  0
    5.5539    6.8944    0.9548 H   0  0  0  0  0  0  0  0  0  0  0  0
    5.8832    7.8490   -1.3236 H   0  0  0  0  0  0  0  0  0  0  0  0
    4.7671    6.7913   -3.2871 H   0  0  0  0  0  0  0  0  0  0  0  0
    3.3142    4.7954   -2.9726 H   0  0  0  0  0  0  0  0  0  0  0  0
    1.8484    4.2298    1.1958 H   0  0  0  0  0  0  0  0  0  0  0  0
    0.3902    2.2472    1.5099 H   0  0  0  0  0  0  0  0  0  0  0  0
    1.1024   -1.4988    1.2426 H   0  0  0  0  0  0  0  0  0  0  0  0
    0.7408    0.0828    2.0117 H   0  0  0  0  0  0  0  0  0  0  0  0
   -0.8270   -1.7630    2.6200 H   0  0  0  0  0  0  0  0  0  0  0  0
   -0.8375   -2.8742    0.4033 H   0  0  0  0  0  0  0  0  0  0  0  0
   -2.4620   -2.6360    1.1074 H   0  0  0  0  0  0  0  0  0  0  0  0
   -1.6127   -1.7451   -1.4156 H   0  0  0  0  0  0  0  0  0  0  0  0
   -3.0583   -1.1516   -0.5205 H   0  0  0  0  0  0  0  0  0  0  0  0
   -1.4540    0.7392   -1.2890 H   0  0  0  0  0  0  0  0  0  0  0  0
   -1.4813    1.7864    1.0379 H   0  0  0  0  0  0  0  0  0  0  0  0
   -3.0502    1.0114    0.5977 H   0  0  0  0  0  0  0  0  0  0  0  0
   -1.5100    0.5206    2.9256 H   0  0  0  0  0  0  0  0  0  0  0  0
   -2.9040   -0.4339    2.3475 H   0  0  0  0  0  0  0  0  0  0  0  0
  2  1  1  6
  2  3  1  0
  3  4  2  0
  4  5  1  0
  5  6  2  0
  6  7  1  0
  7  8  2  0
  8  9  1  0
  9 10  2  0
 10 11  1  0
 11 12  2  0
  6 13  1  0
 13 14  2  0
  2 15  1  0
 15 16  1  0
 16 17  1  0
 17 18  1  0
 18 19  1  0
 19 20  1  0
 20 21  1  0
 19  2  1  0
 14  3  1  0
 21 16  1  0
 12  7  1  0
  1 22  1  0
  4 23  1  0
  5 24  1  0
  8 25  1  0
  9 26  1  0
 10 27  1  0
 11 28  1  0
 12 29  1  0
 13 30  1  0
 14 31  1  0
 15 32  1  0
 15 33  1  0
 16 34  1  6
 17 35  1  0
 17 36  1  0
 18 37  1  0
 18 38  1  0
 19 39  1  1
 20 40  1  0
 20 41  1  0
 21 42  1  0
 21 43  1  0
M  CHG  1  16   1
M  END
>  <meeko>  (2) 
{"is_sidechain": [false], "free_energy": -8.459, "intermolecular_energy": -9.769, "internal_energy": -0.595}

$$$$
3acw_ligand
     RDKit          3D

 43 46  0  0  0  0  0  0  0  0999 V2000
   -2.8090    0.8550    2.9690 O   0  0  0  0  0  0  0  0  0  0  0  0
   -2.1080   -0.0270    2.0740 C   0  0  2  0  0  0  0  0  0  0  0  0
   -1.0240    0.8000    1.3950 C   0  0  0  0  0  0  0  0  0  0  0  0
   -0.1730    1.5990    2.1830 C   0  0  0  0  0  0  0  0  0  0  0  0
    0.8420    2.3700    1.6070 C   0  0  0  0  0  0  0  0  0  0  0  0
    1.0580    2.3640    0.2240 C   0  0  0  0  0  0  0  0  0  0  0  0
    2.1270    3.1720   -0.3850 C   0  0  0  0  0  0  0  0  0  0  0  0
    2.1090    4.5740   -0.3050 C   0  0  0  0  0  0  0  0  0  0  0  0
    3.1230    5.3430   -0.8830 C   0  0  0  0  0  0  0  0  0  0  0  0
    4.1740    4.7210   -1.5500 C   0  0  0  0  0  0  0  0  0  0  0  0
    4.2140    3.3330   -1.6390 C   0  0  0  0  0  0  0  0  0  0  0  0
    3.1980    2.5650   -1.0630 C   0  0  0  0  0  0  0  0  0  0  0  0
    0.2270    1.5510   -0.5600 C   0  0  0  0  0  0  0  0  0  0  0  0
   -0.7900    0.7770    0.0140 C   0  0  0  0  0  0  0  0  0  0  0  0
   -3.1490   -0.5700    1.0340 C   0  0  0  0  0  0  0  0  0  0  0  0
   -3.5880   -1.9800    1.4430 N   0  0  2  0  0  0  0  0  0  0  0  0
   -4.0620   -1.9880    2.8840 C   0  0  0  0  0  0  0  0  0  0  0  0
   -2.8520   -1.7500    3.7850 C   0  0  0  0  0  0  0  0  0  0  0  0
   -1.6520   -1.2510    2.9410 C   0  0  1  0  0  0  0  0  0  0  0  0
   -1.2380   -2.4280    2.0290 C   0  0  0  0  0  0  0  0  0  0  0  0
   -2.4440   -2.9500    1.2440 C   0  0  0  0  0  0  0  0  0  0  0  0
   -2.2800    0.9470    3.7860 H   0  0  0  0  0  0  0  0  0  0  0  0
   -0.3094    1.6171    3.2744 H   0  0  0  0  0  0  0  0  0  0  0  0
    1.4811    2.9914    2.2515 H   0  0  0  0  0  0  0  0  0  0  0  0
    1.2832    5.0752    0.2212 H   0  0  0  0  0  0  0  0  0  0  0  0
    3.0902    6.4401   -0.8106 H   0  0  0  0  0  0  0  0  0  0  0  0
    4.9718    5.3256   -2.0061 H   0  0  0  0  0  0  0  0  0  0  0  0
    5.0459    2.8397   -2.1631 H   0  0  0  0  0  0  0  0  0  0  0  0
    3.2373    1.4685   -1.1416 H   0  0  0  0  0  0  0  0  0  0  0  0
    0.3768    1.5203   -1.6493 H   0  0  0  0  0  0  0  0  0  0  0  0
   -1.4149    0.1409   -0.6302 H   0  0  0  0  0  0  0  0  0  0  0  0
   -4.0251    0.0948    1.0101 H   0  0  0  0  0  0  0  0  0  0  0  0
   -2.6883   -0.6034    0.0357 H   0  0  0  0  0  0  0  0  0  0  0  0
   -4.3740   -2.2590    0.8420 H   0  0  0  0  0  0  0  0  0  0  0  0
   -4.8030   -1.1895    3.0368 H   0  0  0  0  0  0  0  0  0  0  0  0
   -4.5312   -2.9534    3.1246 H   0  0  0  0  0  0  0  0  0  0  0  0
   -3.1048   -0.9928    4.5418 H   0  0  0  0  0  0  0  0  0  0  0  0
   -2.5783   -2.6942    4.2785 H   0  0  0  0  0  0  0  0  0  0  0  0
   -0.8102   -0.9313    3.5728 H   0  0  0  0  0  0  0  0  0  0  0  0
   -0.4678   -2.0847    1.3227 H   0  0  0  0  0  0  0  0  0  0  0  0
   -0.8434   -3.2412    2.6559 H   0  0  0  0  0  0  0  0  0  0  0  0
   -2.1930   -3.0167    0.1751 H   0  0  0  0  0  0  0  0  0  0  0  0
   -2.7266   -3.9517    1.5999 H   0  0  0  0  0  0  0  0  0  0  0  0
  2  1  1  1
  2  3  1  0
  3  4  2  0
  4  5  1  0
  5  6  2  0
  6  7  1  0
  7  8  2  0
  8  9  1  0
  9 10  2  0
 10 11  1  0
 11 12  2  0
  6 13  1  0
 13 14  2  0
  2 15  1  0
 15 16  1  0
 16 17  1  0
 17 18  1  0
 18 19  1  0
 19 20  1  0
 20 21  1  0
 19  2  1  0
 14  3  1  0
 21 16  1  0
 12  7  1  0
  1 22  1  0
  4 23  1  0
  5 24  1  0
  8 25  1  0
  9 26  1  0
 10 27  1  0
 11 28  1  0
 12 29  1  0
 13 30  1  0
 14 31  1  0
 15 32  1  0
 15 33  1  0
 16 34  1  1
 17 35  1  0
 17 36  1  0
 18 37  1  0
 18 38  1  0
 19 39  1  6
 20 40  1  0
 20 41  1  0
 21 42  1  0
 21 43  1  0
M  CHG  1  16   1
M  END
>  <meeko>  (3) 
{"is_sidechain": [false], "free_energy": -8.304, "intermolecular_energy": -9.444, "internal_energy": -0.741}

$$$$
3acw_ligand
     RDKit          3D

 43 46  0  0  0  0  0  0  0  0999 V2000
   -1.1020   -1.6410    0.5040 O   0  0  0  0  0  0  0  0  0  0  0  0
   -1.3690   -0.4680    1.2940 C   0  0  2  0  0  0  0  0  0  0  0  0
   -0.3690    0.5950    0.8580 C   0  0  0  0  0  0  0  0  0  0  0  0
    0.0650    0.6250   -0.4810 C   0  0  0  0  0  0  0  0  0  0  0  0
    0.9760    1.5870   -0.9310 C   0  0  0  0  0  0  0  0  0  0  0  0
    1.4800    2.5650   -0.0670 C   0  0  0  0  0  0  0  0  0  0  0  0
    2.4370    3.5800   -0.5380 C   0  0  0  0  0  0  0  0  0  0  0  0
    2.3540    4.9120   -0.1000 C   0  0  0  0  0  0  0  0  0  0  0  0
    3.2620    5.8750   -0.5480 C   0  0  0  0  0  0  0  0  0  0  0  0
    4.2690    5.5220   -1.4410 C   0  0  0  0  0  0  0  0  0  0  0  0
    4.3710    4.2070   -1.8870 C   0  0  0  0  0  0  0  0  0  0  0  0
    3.4620    3.2450   -1.4400 C   0  0  0  0  0  0  0  0  0  0  0  0
    1.0320    2.5520    1.2620 C   0  0  0  0  0  0  0  0  0  0  0  0
    0.1190    1.5900    1.7150 C   0  0  0  0  0  0  0  0  0  0  0  0
   -1.1700   -0.8570    2.8000 C   0  0  0  0  0  0  0  0  0  0  0  0
   -2.5380   -1.1130    3.4430 N   0  0  2  0  0  0  0  0  0  0  0  0
   -3.3260   -2.1170    2.6230 C   0  0  0  0  0  0  0  0  0  0  0  0
   -3.7070   -1.4560    1.3000 C   0  0  0  0  0  0  0  0  0  0  0  0
   -2.8920   -0.1530    1.1030 C   0  0  1  0  0  0  0  0  0  0  0  0
   -3.3750    0.8340    2.1890 C   0  0  0  0  0  0  0  0  0  0  0  0
   -3.2930    0.1900    3.5760 C   0  0  0  0  0  0  0  0  0  0  0  0
   -1.1280   -1.3870   -0.4400 H   0  0  0  0  0  0  0  0  0  0  0  0
   -0.3204   -0.1239   -1.1886 H   0  0  0  0  0  0  0  0  0  0  0  0
    1.3013    1.5740   -1.9817 H   0  0  0  0  0  0  0  0  0  0  0  0
    1.5621    5.2015    0.6065 H   0  0  0  0  0  0  0  0  0  0  0  0
    3.1806    6.9134   -0.1943 H   0  0  0  0  0  0  0  0  0  0  0  0
    4.9832    6.2805   -1.7940 H   0  0  0  0  0  0  0  0  0  0  0  0
    5.1675    3.9255   -2.5915 H   0  0  0  0  0  0  0  0  0  0  0  0
    3.5496    2.2091   -1.7994 H   0  0  0  0  0  0  0  0  0  0  0  0
    1.4050    3.3128    1.9635 H   0  0  0  0  0  0  0  0  0  0  0  0
   -0.2201    1.6167    2.7611 H   0  0  0  0  0  0  0  0  0  0  0  0
   -0.5568   -1.7678    2.8662 H   0  0  0  0  0  0  0  0  0  0  0  0
   -0.6627   -0.0363    3.3283 H   0  0  0  0  0  0  0  0  0  0  0  0
   -2.3830   -1.5100    4.3790 H   0  0  0  0  0  0  0  0  0  0  0  0
   -2.7091   -3.0072    2.4308 H   0  0  0  0  0  0  0  0  0  0  0  0
   -4.2299   -2.4275    3.1676 H   0  0  0  0  0  0  0  0  0  0  0  0
   -3.4927   -2.1481    0.4723 H   0  0  0  0  0  0  0  0  0  0  0  0
   -4.7794   -1.2117    1.3147 H   0  0  0  0  0  0  0  0  0  0  0  0
   -3.0327    0.2724    0.0984 H   0  0  0  0  0  0  0  0  0  0  0  0
   -2.7406    1.7324    2.1693 H   0  0  0  0  0  0  0  0  0  0  0  0
   -4.4216    1.1034    1.9839 H   0  0  0  0  0  0  0  0  0  0  0  0
   -2.7617    0.8602    4.2678 H   0  0  0  0  0  0  0  0  0  0  0  0
   -4.3027    0.0075    3.9725 H   0  0  0  0  0  0  0  0  0  0  0  0
  2  1  1  6
  2  3  1  0
  3  4  2  0
  4  5  1  0
  5  6  2  0
  6  7  1  0
  7  8  2  0
  8  9  1  0
  9 10  2  0
 10 11  1  0
 11 12  2  0
  6 13  1  0
 13 14  2  0
  2 15  1  0
 15 16  1  0
 16 17  1  0
 17 18  1  0
 18 19  1  0
 19 20  1  0
 20 21  1  0
 19  2  1  0
 14  3  1  0
 21 16  1  0
 12  7  1  0
  1 22  1  0
  4 23  1  0
  5 24  1  0
  8 25  1  0
  9 26  1  0
 10 27  1  0
 11 28  1  0
 12 29  1  0
 13 30  1  0
 14 31  1  0
 15 32  1  0
 15 33  1  0
 16 34  1  6
 17 35  1  0
 17 36  1  0
 18 37  1  0
 18 38  1  0
 19 39  1  1
 20 40  1  0
 20 41  1  0
 21 42  1  0
 21 43  1  0
M  CHG  1  16   1
M  END
>  <meeko>  (4) 
{"is_sidechain": [false], "free_energy": -8.157, "intermolecular_energy": -9.3, "internal_energy": -0.717}

$$$$
3acw_ligand
     RDKit          3D

 43 46  0  0  0  0  0  0  0  0999 V2000
   -2.4700   -0.4090    1.0340 O   0  0  0  0  0  0  0  0  0  0  0  0
   -1.1340   -0.8170    1.3800 C   0  0  2  0  0  0  0  0  0  0  0  0
   -0.1990    0.2950    0.9220 C   0  0  0  0  0  0  0  0  0  0  0  0
    0.4170    0.2000   -0.3410 C   0  0  0  0  0  0  0  0  0  0  0  0
    1.2770    1.1990   -0.8090 C   0  0  0  0  0  0  0  0  0  0  0  0
    1.5460    2.3390   -0.0430 C   0  0  0  0  0  0  0  0  0  0  0  0
    2.4490    3.3930   -0.5350 C   0  0  0  0  0  0  0  0  0  0  0  0
    3.4670    3.1010   -1.4570 C   0  0  0  0  0  0  0  0  0  0  0  0
    4.3250    4.1000   -1.9230 C   0  0  0  0  0  0  0  0  0  0  0  0
    4.1790    5.4100   -1.4760 C   0  0  0  0  0  0  0  0  0  0  0  0
    3.1750    5.7220   -0.5630 C   0  0  0  0  0  0  0  0  0  0  0  0
    2.3180    4.7210   -0.0960 C   0  0  0  0  0  0  0  0  0  0  0  0
    0.9160    2.4470    1.2040 C   0  0  0  0  0  0  0  0  0  0  0  0
    0.0530    1.4480    1.6760 C   0  0  0  0  0  0  0  0  0  0  0  0
   -0.8390   -2.1590    0.6250 C   0  0  0  0  0  0  0  0  0  0  0  0
   -1.0200   -3.3350    1.5900 N   0  0  2  0  0  0  0  0  0  0  0  0
   -2.3810   -3.2650    2.2580 C   0  0  0  0  0  0  0  0  0  0  0  0
   -2.3850   -2.0650    3.2030 C   0  0  0  0  0  0  0  0  0  0  0  0
   -1.1660   -1.1540    2.9100 C   0  0  1  0  0  0  0  0  0  0  0  0
    0.0900   -1.9620    3.3070 C   0  0  0  0  0  0  0  0  0  0  0  0
    0.0890   -3.3300    2.6180 C   0  0  0  0  0  0  0  0  0  0  0  0
   -2.8870   -0.0210    1.8280 H   0  0  0  0  0  0  0  0  0  0  0  0
    0.2176   -0.6782   -0.9726 H   0  0  0  0  0  0  0  0  0  0  0  0
    1.7499    1.0867   -1.7958 H   0  0  0  0  0  0  0  0  0  0  0  0
    3.5908    2.0693   -1.8180 H   0  0  0  0  0  0  0  0  0  0  0  0
    5.1172    3.8510   -2.6443 H   0  0  0  0  0  0  0  0  0  0  0  0
    4.8548    6.1966   -1.8429 H   0  0  0  0  0  0  0  0  0  0  0  0
    3.0561    6.7567   -0.2090 H   0  0  0  0  0  0  0  0  0  0  0  0
    1.5290    4.9772    0.6263 H   0  0  0  0  0  0  0  0  0  0  0  0
    1.1026    3.3348    1.8260 H   0  0  0  0  0  0  0  0  0  0  0  0
   -0.4341    1.5718    2.6545 H   0  0  0  0  0  0  0  0  0  0  0  0
   -1.5360   -2.2662   -0.2192 H   0  0  0  0  0  0  0  0  0  0  0  0
    0.1940   -2.1490    0.2470 H   0  0  0  0  0  0  0  0  0  0  0  0
   -0.9710   -4.2070    1.0470 H   0  0  0  0  0  0  0  0  0  0  0  0
   -3.1645   -3.1419    1.4958 H   0  0  0  0  0  0  0  0  0  0  0  0
   -2.5788   -4.1912    2.8175 H   0  0  0  0  0  0  0  0  0  0  0  0
   -3.3119   -1.4906    3.0582 H   0  0  0  0  0  0  0  0  0  0  0  0
   -2.3259   -2.4235    4.2413 H   0  0  0  0  0  0  0  0  0  0  0  0
   -1.2152   -0.2085    3.4700 H   0  0  0  0  0  0  0  0  0  0  0  0
    0.9891   -1.4051    3.0044 H   0  0  0  0  0  0  0  0  0  0  0  0
    0.0857   -2.1129    4.3966 H   0  0  0  0  0  0  0  0  0  0  0  0
    1.0569   -3.4996    2.1237 H   0  0  0  0  0  0  0  0  0  0  0  0
   -0.0710   -4.1295    3.3564 H   0  0  0  0  0  0  0  0  0  0  0  0
  2  1  1  6
  2  3  1  0
  3  4  2  0
  4  5  1  0
  5  6  2  0
  6  7  1  0
  7  8  2  0
  8  9  1  0
  9 10  2  0
 10 11  1  0
 11 12  2  0
  6 13  1  0
 13 14  2  0
  2 15  1  0
 15 16  1  0
 16 17  1  0
 17 18  1  0
 18 19  1  0
 19 20  1  0
 20 21  1  0
 19  2  1  0
 14  3  1  0
 21 16  1  0
 12  7  1  0
  1 22  1  0
  4 23  1  0
  5 24  1  0
  8 25  1  0
  9 26  1  0
 10 27  1  0
 11 28  1  0
 12 29  1  0
 13 30  1  0
 14 31  1  0
 15 32  1  0
 15 33  1  0
 16 34  1  1
 17 35  1  0
 17 36  1  0
 18 37  1  0
 18 38  1  0
 19 39  1  6
 20 40  1  0
 20 41  1  0
 21 42  1  0
 21 43  1  0
M  CHG  1  16   1
M  END
>  <meeko>  (5) 
{"is_sidechain": [false], "free_energy": -8.025, "intermolecular_energy": -9.126, "internal_energy": -0.739}

$$$$
3acw_ligand
     RDKit          3D

 43 46  0  0  0  0  0  0  0  0999 V2000
   -1.0630   -2.5390   -0.4590 O   0  0  0  0  0  0  0  0  0  0  0  0
   -0.7750   -1.8510    0.7720 C   0  0  2  0  0  0  0  0  0  0  0  0
    0.0800   -0.6420    0.4150 C   0  0  0  0  0  0  0  0  0  0  0  0
   -0.5320    0.4880   -0.1620 C   0  0  0  0  0  0  0  0  0  0  0  0
    0.2090    1.6250   -0.5010 C   0  0  0  0  0  0  0  0  0  0  0  0
    1.5870    1.6870   -0.2640 C   0  0  0  0  0  0  0  0  0  0  0  0
    2.3690    2.8830   -0.6170 C   0  0  0  0  0  0  0  0  0  0  0  0
    3.5140    2.7870   -1.4240 C   0  0  0  0  0  0  0  0  0  0  0  0
    4.2570    3.9220   -1.7590 C   0  0  0  0  0  0  0  0  0  0  0  0
    3.8660    5.1740   -1.2930 C   0  0  0  0  0  0  0  0  0  0  0  0
    2.7330    5.2920   -0.4930 C   0  0  0  0  0  0  0  0  0  0  0  0
    1.9920    4.1560   -0.1570 C   0  0  0  0  0  0  0  0  0  0  0  0
    2.1940    0.5720    0.3320 C   0  0  0  0  0  0  0  0  0  0  0  0
    1.4550   -0.5680    0.6720 C   0  0  0  0  0  0  0  0  0  0  0  0
    0.0030   -2.8480    1.6990 C   0  0  0  0  0  0  0  0  0  0  0  0
   -0.9650   -3.4480    2.7250 N   0  0  2  0  0  0  0  0  0  0  0  0
   -2.1740   -4.0390    2.0260 C   0  0  0  0  0  0  0  0  0  0  0  0
   -2.9930   -2.8910    1.4390 C   0  0  0  0  0  0  0  0  0  0  0  0
   -2.1610   -1.5840    1.4530 C   0  0  1  0  0  0  0  0  0  0  0  0
   -1.9640   -1.2070    2.9390 C   0  0  0  0  0  0  0  0  0  0  0  0
   -1.3790   -2.3870    3.7200 C   0  0  0  0  0  0  0  0  0  0  0  0
   -0.3360   -2.3570   -1.0880 H   0  0  0  0  0  0  0  0  0  0  0  0
   -1.6157    0.4760   -0.3500 H   0  0  0  0  0  0  0  0  0  0  0  0
   -0.2998    2.4847   -0.9615 H   0  0  0  0  0  0  0  0  0  0  0  0
    3.8312    1.8025   -1.7985 H   0  0  0  0  0  0  0  0  0  0  0  0
    5.1518    3.8260   -2.3916 H   0  0  0  0  0  0  0  0  0  0  0  0
    4.4508    6.0677   -1.5562 H   0  0  0  0  0  0  0  0  0  0  0  0
    2.4207    6.2804   -0.1250 H   0  0  0  0  0  0  0  0  0  0  0  0
    1.0995    4.2599    0.4776 H   0  0  0  0  0  0  0  0  0  0  0  0
    3.2745    0.5934    0.5370 H   0  0  0  0  0  0  0  0  0  0  0  0
    1.9627   -1.4194    1.1488 H   0  0  0  0  0  0  0  0  0  0  0  0
    0.4374   -3.6537    1.0890 H   0  0  0  0  0  0  0  0  0  0  0  0
    0.8082   -2.3117    2.2225 H   0  0  0  0  0  0  0  0  0  0  0  0
   -0.4770   -4.2040    3.2230 H   0  0  0  0  0  0  0  0  0  0  0  0
   -1.8463   -4.7128    1.2206 H   0  0  0  0  0  0  0  0  0  0  0  0
   -2.7823   -4.6144    2.7393 H   0  0  0  0  0  0  0  0  0  0  0  0
   -3.2710   -3.1346    0.4030 H   0  0  0  0  0  0  0  0  0  0  0  0
   -3.8997   -2.7479    2.0452 H   0  0  0  0  0  0  0  0  0  0  0  0
   -2.6621   -0.7714    0.9066 H   0  0  0  0  0  0  0  0  0  0  0  0
   -1.2759   -0.3515    3.0070 H   0  0  0  0  0  0  0  0  0  0  0  0
   -2.9408   -0.9442    3.3713 H   0  0  0  0  0  0  0  0  0  0  0  0
   -0.5035   -2.0550    4.2974 H   0  0  0  0  0  0  0  0  0  0  0  0
   -2.1265   -2.7902    4.4191 H   0  0  0  0  0  0  0  0  0  0  0  0
  2  1  1  6
  2  3  1  0
  3  4  2  0
  4  5  1  0
  5  6  2  0
  6  7  1  0
  7  8  2  0
  8  9  1  0
  9 10  2  0
 10 11  1  0
 11 12  2  0
  6 13  1  0
 13 14  2  0
  2 15  1  0
 15 16  1  0
 16 17  1  0
 17 18  1  0
 18 19  1  0
 19 20  1  0
 20 21  1  0
 19  2  1  0
 14  3  1  0
 21 16  1  0
 12  7  1  0
  1 22  1  0
  4 23  1  0
  5 24  1  0
  8 25  1  0
  9 26  1  0
 10 27  1  0
 11 28  1  0
 12 29  1  0
 13 30  1  0
 14 31  1  0
 15 32  1  0
 15 33  1  0
 16 34  1  6
 17 35  1  0
 17 36  1  0
 18 37  1  0
 18 38  1  0
 19 39  1  1
 20 40  1  0
 20 41  1  0
 21 42  1  0
 21 43  1  0
M  CHG  1  16   1
M  END
>  <meeko>  (6) 
{"is_sidechain": [false], "free_energy": -7.805, "intermolecular_energy": -8.878, "internal_energy": -0.735}

$$$$
3acw_ligand
     RDKit          3D

 43 46  0  0  0  0  0  0  0  0999 V2000
    1.7260    4.1090   -2.1760 O   0  0  0  0  0  0  0  0  0  0  0  0
    2.5740    3.8710   -1.0380 C   0  0  2  0  0  0  0  0  0  0  0  0
    2.0550    2.6130   -0.3550 C   0  0  0  0  0  0  0  0  0  0  0  0
    1.2730    2.7360    0.8100 C   0  0  0  0  0  0  0  0  0  0  0  0
    0.7670    1.6100    1.4700 C   0  0  0  0  0  0  0  0  0  0  0  0
    1.0090    0.3190    0.9860 C   0  0  0  0  0  0  0  0  0  0  0  0
    0.4750   -0.8660    1.6770 C   0  0  0  0  0  0  0  0  0  0  0  0
    0.6800   -1.0540    3.0540 C   0  0  0  0  0  0  0  0  0  0  0  0
    0.1740   -2.1800    3.7100 C   0  0  0  0  0  0  0  0  0  0  0  0
   -0.5460   -3.1360    3.0010 C   0  0  0  0  0  0  0  0  0  0  0  0
   -0.7610   -2.9690    1.6350 C   0  0  0  0  0  0  0  0  0  0  0  0
   -0.2540   -1.8440    0.9800 C   0  0  0  0  0  0  0  0  0  0  0  0
    1.7680    0.1960   -0.1860 C   0  0  0  0  0  0  0  0  0  0  0  0
    2.2760    1.3210   -0.8490 C   0  0  0  0  0  0  0  0  0  0  0  0
    2.4630    5.1210   -0.0970 C   0  0  0  0  0  0  0  0  0  0  0  0
    3.6800    6.0280   -0.3120 N   0  0  2  0  0  0  0  0  0  0  0  0
    3.8430    6.3520   -1.7850 C   0  0  0  0  0  0  0  0  0  0  0  0
    4.2590    5.0730   -2.5090 C   0  0  0  0  0  0  0  0  0  0  0  0
    4.0420    3.8460   -1.5890 C   0  0  1  0  0  0  0  0  0  0  0  0
    5.0520    3.9860   -0.4270 C   0  0  0  0  0  0  0  0  0  0  0  0
    4.9200    5.3600    0.2370 C   0  0  0  0  0  0  0  0  0  0  0  0
    0.9070    3.5870   -2.0620 H   0  0  0  0  0  0  0  0  0  0  0  0
    1.0554    3.7376    1.2094 H   0  0  0  0  0  0  0  0  0  0  0  0
    0.1694    1.7418    2.3840 H   0  0  0  0  0  0  0  0  0  0  0  0
    1.2472   -0.3039    3.6246 H   0  0  0  0  0  0  0  0  0  0  0  0
    0.3455   -2.3103    4.7887 H   0  0  0  0  0  0  0  0  0  0  0  0
   -0.9445   -4.0215    3.5178 H   0  0  0  0  0  0  0  0  0  0  0  0
   -1.3302   -3.7232    1.0718 H   0  0  0  0  0  0  0  0  0  0  0  0
   -0.4285   -1.7219   -0.0992 H   0  0  0  0  0  0  0  0  0  0  0  0
    1.9692   -0.8055   -0.5941 H   0  0  0  0  0  0  0  0  0  0  0  0
    2.8580    1.1874   -1.7728 H   0  0  0  0  0  0  0  0  0  0  0  0
    1.5439    5.6776   -0.3326 H   0  0  0  0  0  0  0  0  0  0  0  0
    2.4310    4.7905    0.9517 H   0  0  0  0  0  0  0  0  0  0  0  0
    3.5180    6.9070    0.1970 H   0  0  0  0  0  0  0  0  0  0  0  0
    2.8899    6.7187   -2.1938 H   0  0  0  0  0  0  0  0  0  0  0  0
    4.6061    7.1325   -1.9214 H   0  0  0  0  0  0  0  0  0  0  0  0
    3.6528    4.9568   -3.4195 H   0  0  0  0  0  0  0  0  0  0  0  0
    5.3243    5.1399   -2.7746 H   0  0  0  0  0  0  0  0  0  0  0  0
    4.1925    2.8979   -2.1260 H   0  0  0  0  0  0  0  0  0  0  0  0
    4.8551    3.2028    0.3199 H   0  0  0  0  0  0  0  0  0  0  0  0
    6.0712    3.8812   -0.8274 H   0  0  0  0  0  0  0  0  0  0  0  0
    4.8281    5.2406    1.3266 H   0  0  0  0  0  0  0  0  0  0  0  0
    5.8088    5.9728    0.0262 H   0  0  0  0  0  0  0  0  0  0  0  0
  2  1  1  6
  2  3  1  0
  3  4  2  0
  4  5  1  0
  5  6  2  0
  6  7  1  0
  7  8  2  0
  8  9  1  0
  9 10  2  0
 10 11  1  0
 11 12  2  0
  6 13  1  0
 13 14  2  0
  2 15  1  0
 15 16  1  0
 16 17  1  0
 17 18  1  0
 18 19  1  0
 19 20  1  0
 20 21  1  0
 19  2  1  0
 14  3  1  0
 21 16  1  0
 12  7  1  0
  1 22  1  0
  4 23  1  0
  5 24  1  0
  8 25  1  0
  9 26  1  0
 10 27  1  0
 11 28  1  0
 12 29  1  0
 13 30  1  0
 14 31  1  0
 15 32  1  0
 15 33  1  0
 16 34  1  6
 17 35  1  0
 17 36  1  0
 18 37  1  0
 18 38  1  0
 19 39  1  1
 20 40  1  0
 20 41  1  0
 21 42  1  0
 21 43  1  0
M  CHG  1  16   1
M  END
>  <meeko>  (7) 
{"is_sidechain": [false], "free_energy": -7.648, "intermolecular_energy": -8.705, "internal_energy": -0.728}

$$$$
3acw_ligand
     RDKit          3D

 43 46  0  0  0  0  0  0  0  0999 V2000
   -5.8650   -6.4740    0.2670 O   0  0  0  0  0  0  0  0  0  0  0  0
   -4.5660   -6.5020   -0.3520 C   0  0  2  0  0  0  0  0  0  0  0  0
   -3.9420   -5.1300   -0.1340 C   0  0  0  0  0  0  0  0  0  0  0  0
   -3.2430   -4.8740    1.0620 C   0  0  0  0  0  0  0  0  0  0  0  0
   -2.6460   -3.6320    1.3050 C   0  0  0  0  0  0  0  0  0  0  0  0
   -2.7090   -2.6020    0.3600 C   0  0  0  0  0  0  0  0  0  0  0  0
   -2.0790   -1.2960    0.6120 C   0  0  0  0  0  0  0  0  0  0  0  0
   -1.9810   -0.7790    1.9150 C   0  0  0  0  0  0  0  0  0  0  0  0
   -1.3840    0.4620    2.1550 C   0  0  0  0  0  0  0  0  0  0  0  0
   -0.8730    1.2060    1.0960 C   0  0  0  0  0  0  0  0  0  0  0  0
   -0.9580    0.7130   -0.2030 C   0  0  0  0  0  0  0  0  0  0  0  0
   -1.5570   -0.5270   -0.4420 C   0  0  0  0  0  0  0  0  0  0  0  0
   -3.3830   -2.8630   -0.8410 C   0  0  0  0  0  0  0  0  0  0  0  0
   -3.9820   -4.1050   -1.0880 C   0  0  0  0  0  0  0  0  0  0  0  0
   -4.7750   -6.7990   -1.8770 C   0  0  0  0  0  0  0  0  0  0  0  0
   -4.4970   -8.2820   -2.1490 N   0  0  2  0  0  0  0  0  0  0  0  0
   -5.3130   -9.1520   -1.2120 C   0  0  0  0  0  0  0  0  0  0  0  0
   -4.7650   -8.9720    0.2030 C   0  0  0  0  0  0  0  0  0  0  0  0
   -3.8230   -7.7420    0.2550 C   0  0  1  0  0  0  0  0  0  0  0  0
   -2.5880   -8.0990   -0.6030 C   0  0  0  0  0  0  0  0  0  0  0  0
   -3.0180   -8.5610   -1.9980 C   0  0  0  0  0  0  0  0  0  0  0  0
   -5.9840   -7.3060    0.7660 H   0  0  0  0  0  0  0  0  0  0  0  0
   -3.1649   -5.6668    1.8205 H   0  0  0  0  0  0  0  0  0  0  0  0
   -2.1182   -3.4625    2.2551 H   0  0  0  0  0  0  0  0  0  0  0  0
   -2.3803   -1.3600    2.7594 H   0  0  0  0  0  0  0  0  0  0  0  0
   -1.3181    0.8507    3.1819 H   0  0  0  0  0  0  0  0  0  0  0  0
   -0.4026    2.1822    1.2850 H   0  0  0  0  0  0  0  0  0  0  0  0
   -0.5538    1.2993   -1.0414 H   0  0  0  0  0  0  0  0  0  0  0  0
   -1.6209   -0.9072   -1.4722 H   0  0  0  0  0  0  0  0  0  0  0  0
   -3.4429   -2.0752   -1.6064 H   0  0  0  0  0  0  0  0  0  0  0  0
   -4.4922   -4.2783   -2.0470 H   0  0  0  0  0  0  0  0  0  0  0  0
   -5.8117   -6.5622   -2.1584 H   0  0  0  0  0  0  0  0  0  0  0  0
   -4.0850   -6.1807   -2.4700 H   0  0  0  0  0  0  0  0  0  0  0  0
   -4.7820   -8.4900   -3.1150 H   0  0  0  0  0  0  0  0  0  0  0  0
   -6.3691   -8.8459   -1.2443 H   0  0  0  0  0  0  0  0  0  0  0  0
   -5.2439  -10.2071   -1.5155 H   0  0  0  0  0  0  0  0  0  0  0  0
   -5.6016   -8.8198    0.9009 H   0  0  0  0  0  0  0  0  0  0  0  0
   -4.1998   -9.8716    0.4882 H   0  0  0  0  0  0  0  0  0  0  0  0
   -3.5249   -7.4955    1.2847 H   0  0  0  0  0  0  0  0  0  0  0  0
   -1.9448   -7.2117   -0.6981 H   0  0  0  0  0  0  0  0  0  0  0  0
   -2.0385   -8.9157   -0.1120 H   0  0  0  0  0  0  0  0  0  0  0  0
   -2.4541   -8.0088   -2.7642 H   0  0  0  0  0  0  0  0  0  0  0  0
   -2.8177   -9.6354   -2.1227 H   0  0  0  0  0  0  0  0  0  0  0  0
  2  1  1  1
  2  3  1  0
  3  4  2  0
  4  5  1  0
  5  6  2  0
  6  7  1  0
  7  8  2  0
  8  9  1  0
  9 10  2  0
 10 11  1  0
 11 12  2  0
  6 13  1  0
 13 14  2  0
  2 15  1  0
 15 16  1  0
 16 17  1  0
 17 18  1  0
 18 19  1  0
 19 20  1  0
 20 21  1  0
 19  2  1  0
 14  3  1  0
 21 16  1  0
 12  7  1  0
  1 22  1  0
  4 23  1  0
  5 24  1  0
  8 25  1  0
  9 26  1  0
 10 27  1  0
 11 28  1  0
 12 29  1  0
 13 30  1  0
 14 31  1  0
 15 32  1  0
 15 33  1  0
 16 34  1  1
 17 35  1  0
 17 36  1  0
 18 37  1  0
 18 38  1  0
 19 39  1  6
 20 40  1  0
 20 41  1  0
 21 42  1  0
 21 43  1  0
M  CHG  1  16   1
M  END
>  <meeko>  (8) 
{"is_sidechain": [false], "free_energy": -6.992, "intermolecular_energy": -7.95, "internal_energy": -0.732}

$$$$
3acw_ligand
     RDKit          3D

 43 46  0  0  0  0  0  0  0  0999 V2000
   -4.5480   -5.1470    1.6850 O   0  0  0  0  0  0  0  0  0  0  0  0
   -3.4280   -5.3170    0.7970 C   0  0  2  0  0  0  0  0  0  0  0  0
   -2.6260   -4.0230    0.8440 C   0  0  0  0  0  0  0  0  0  0  0  0
   -2.8980   -3.0110   -0.0970 C   0  0  0  0  0  0  0  0  0  0  0  0
   -2.1940   -1.8020   -0.0900 C   0  0  0  0  0  0  0  0  0  0  0  0
   -1.2010   -1.5480    0.8640 C   0  0  0  0  0  0  0  0  0  0  0  0
   -0.4610   -0.2760    0.8740 C   0  0  0  0  0  0  0  0  0  0  0  0
   -0.0780    0.3480   -0.3240 C   0  0  0  0  0  0  0  0  0  0  0  0
    0.6260    1.5560   -0.3150 C   0  0  0  0  0  0  0  0  0  0  0  0
    0.9570    2.1600    0.8940 C   0  0  0  0  0  0  0  0  0  0  0  0
    0.5860    1.5590    2.0940 C   0  0  0  0  0  0  0  0  0  0  0  0
   -0.1160    0.3510    2.0840 C   0  0  0  0  0  0  0  0  0  0  0  0
   -0.9460   -2.5450    1.8160 C   0  0  0  0  0  0  0  0  0  0  0  0
   -1.6490   -3.7570    1.8120 C   0  0  0  0  0  0  0  0  0  0  0  0
   -4.0000   -5.5840   -0.6380 C   0  0  0  0  0  0  0  0  0  0  0  0
   -3.9510   -7.0870   -0.9330 N   0  0  2  0  0  0  0  0  0  0  0  0
   -4.6300   -7.8650    0.1790 C   0  0  0  0  0  0  0  0  0  0  0  0
   -3.7670   -7.7520    1.4330 C   0  0  0  0  0  0  0  0  0  0  0  0
   -2.7090   -6.6330    1.2520 C   0  0  1  0  0  0  0  0  0  0  0  0
   -1.7400   -7.1220    0.1510 C   0  0  0  0  0  0  0  0  0  0  0  0
   -2.5150   -7.5280   -1.1050 C   0  0  0  0  0  0  0  0  0  0  0  0
   -4.2690   -4.5670    2.4220 H   0  0  0  0  0  0  0  0  0  0  0  0
   -3.6801   -3.1745   -0.8530 H   0  0  0  0  0  0  0  0  0  0  0  0
   -2.4245   -1.0379   -0.8469 H   0  0  0  0  0  0  0  0  0  0  0  0
   -0.3359   -0.1210   -1.2850 H   0  0  0  0  0  0  0  0  0  0  0  0
    0.9183    2.0291   -1.2641 H   0  0  0  0  0  0  0  0  0  0  0  0
    1.5107    3.1105    0.9018 H   0  0  0  0  0  0  0  0  0  0  0  0
    0.8458    2.0357    3.0507 H   0  0  0  0  0  0  0  0  0  0  0  0
   -0.4031   -0.1165    3.0374 H   0  0  0  0  0  0  0  0  0  0  0  0
   -0.1769   -2.3719    2.5832 H   0  0  0  0  0  0  0  0  0  0  0  0
   -1.4302   -4.5119    2.5815 H   0  0  0  0  0  0  0  0  0  0  0  0
   -5.0414   -5.2336   -0.6892 H   0  0  0  0  0  0  0  0  0  0  0  0
   -3.3956   -5.0434   -1.3813 H   0  0  0  0  0  0  0  0  0  0  0  0
   -4.4640   -7.2590   -1.8080 H   0  0  0  0  0  0  0  0  0  0  0  0
   -5.6273   -7.4435    0.3736 H   0  0  0  0  0  0  0  0  0  0  0  0
   -4.7455   -8.9201   -0.1100 H   0  0  0  0  0  0  0  0  0  0  0  0
   -4.4070   -7.5118    2.2948 H   0  0  0  0  0  0  0  0  0  0  0  0
   -3.2531   -8.7094    1.6041 H   0  0  0  0  0  0  0  0  0  0  0  0
   -2.1667   -6.4240    2.1859 H   0  0  0  0  0  0  0  0  0  0  0  0
   -1.0407   -6.3114   -0.1016 H   0  0  0  0  0  0  0  0  0  0  0  0
   -1.1881   -7.9965    0.5262 H   0  0  0  0  0  0  0  0  0  0  0  0
   -2.0777   -7.0385   -1.9877 H   0  0  0  0  0  0  0  0  0  0  0  0
   -2.4652   -8.6175   -1.2484 H   0  0  0  0  0  0  0  0  0  0  0  0
  2  1  1  1
  2  3  1  0
  3  4  2  0
  4  5  1  0
  5  6  2  0
  6  7  1  0
  7  8  2  0
  8  9  1  0
  9 10  2  0
 10 11  1  0
 11 12  2  0
  6 13  1  0
 13 14  2  0
  2 15  1  0
 15 16  1  0
 16 17  1  0
 17 18  1  0
 18 19  1  0
 19 20  1  0
 20 21  1  0
 19  2  1  0
 14  3  1  0
 21 16  1  0
 12  7  1  0
  1 22  1  0
  4 23  1  0
  5 24  1  0
  8 25  1  0
  9 26  1  0
 10 27  1  0
 11 28  1  0
 12 29  1  0
 13 30  1  0
 14 31  1  0
 15 32  1  0
 15 33  1  0
 16 34  1  1
 17 35  1  0
 17 36  1  0
 18 37  1  0
 18 38  1  0
 19 39  1  6
 20 40  1  0
 20 41  1  0
 21 42  1  0
 21 43  1  0
M  CHG  1  16   1
M  END
>  <meeko>  (9) 
{"is_sidechain": [false], "free_energy": -6.977, "intermolecular_energy": -7.935, "internal_energy": -0.728}

$$$$
