3g0w_ligand
     RDKit          3D

 37 39  0  0  0  0  0  0  0  0999 V2000
   -1.3730   -7.7620   -0.5890 C   0  0  0  0  0  0  0  0  0  0  0  0
   -1.2050   -7.3350   -2.0250 C   0  0  0  0  0  0  0  0  0  0  0  0
   -0.3600   -8.0600   -2.8890 C   0  0  0  0  0  0  0  0  0  0  0  0
    0.3630   -9.1790   -2.4500 N   0  0  0  0  0  0  0  0  0  0  0  0
    1.1870   -9.7310   -3.2750 C   0  0  0  0  0  0  0  0  0  0  0  0
    1.3410   -9.3030   -4.5630 O   0  0  0  0  0  0  0  0  0  0  0  0
    2.2980  -10.1480   -5.2420 C   0  0  1  0  0  0  0  0  0  0  0  0
    3.5460   -9.3700   -5.6150 C   0  0  0  0  0  0  0  0  0  0  0  0
    4.6610   -9.9640   -5.1320 F   0  0  0  0  0  0  0  0  0  0  0  0
    3.6930   -9.2380   -6.9500 F   0  0  0  0  0  0  0  0  0  0  0  0
    3.5020   -8.1220   -5.0900 F   0  0  0  0  0  0  0  0  0  0  0  0
    2.6390  -11.2490   -4.2580 C   0  0  2  0  0  0  0  0  0  0  0  0
    2.0050  -12.6100   -4.5630 C   0  0  1  0  0  0  0  0  0  0  0  0
    2.8230  -13.4150   -5.3920 O   0  0  0  0  0  0  0  0  0  0  0  0
    1.8520  -13.1900   -3.1600 C   0  0  0  0  0  0  0  0  0  0  0  0
    1.3900  -11.9850   -2.3420 C   0  0  0  0  0  0  0  0  0  0  0  0
    1.9700  -10.8290   -3.0350 N   0  0  0  0  0  0  0  0  0  0  0  0
   -0.1900   -7.6400   -4.2140 C   0  0  0  0  0  0  0  0  0  0  0  0
   -0.8760   -6.5330   -4.7070 C   0  0  0  0  0  0  0  0  0  0  0  0
   -1.7450   -5.8210   -3.8750 C   0  0  0  0  0  0  0  0  0  0  0  0
   -2.4410   -4.6940   -4.4240 C   0  0  0  0  0  0  0  0  0  0  0  0
   -2.9880   -3.7880   -4.8990 N   0  0  0  0  0  0  0  0  0  0  0  0
   -1.9100   -6.2220   -2.5370 C   0  0  0  0  0  0  0  0  0  0  0  0
   -3.0000   -5.3430   -1.5050 Cl  0  0  0  0  0  0  0  0  0  0  0  0
   -1.0522   -6.9466    0.0759 H   0  0  0  0  0  0  0  0  0  0  0  0
   -2.4305   -7.9967   -0.3976 H   0  0  0  0  0  0  0  0  0  0  0  0
   -0.7589   -8.6543   -0.3976 H   0  0  0  0  0  0  0  0  0  0  0  0
    1.8836  -10.5462   -6.1799 H   0  0  0  0  0  0  0  0  0  0  0  0
    3.7317  -11.3750   -4.2497 H   0  0  0  0  0  0  0  0  0  0  0  0
    1.0625  -12.5461   -5.1266 H   0  0  0  0  0  0  0  0  0  0  0  0
    2.2620  -14.0030   -5.9290 H   0  0  0  0  0  0  0  0  0  0  0  0
    1.0994  -13.9920   -3.1431 H   0  0  0  0  0  0  0  0  0  0  0  0
    2.7754  -13.6480   -2.7758 H   0  0  0  0  0  0  0  0  0  0  0  0
    0.2919  -11.9208   -2.3298 H   0  0  0  0  0  0  0  0  0  0  0  0
    1.7071  -12.0458   -1.2905 H   0  0  0  0  0  0  0  0  0  0  0  0
    0.4948   -8.1921   -4.8744 H   0  0  0  0  0  0  0  0  0  0  0  0
   -0.7341   -6.2186   -5.7515 H   0  0  0  0  0  0  0  0  0  0  0  0
  1  2  1  0
  2  3  2  0
  3  4  1  0
  4  5  2  0
  5  6  1  0
  6  7  1  0
  7  8  1  0
  8  9  1  0
  8 10  1  0
  8 11  1  0
  7 12  1  0
 12 13  1  0
 13 14  1  0
 13 15  1  0
 15 16  1  0
 16 17  1  0
  3 18  1  0
 18 19  2  0
 19 20  1  0
 20 21  1  0
 21 22  3  0
 20 23  2  0
 23 24  1  0
 23  2  1  0
 17  5  1  0
 17 12  1  0
  1 25  1  0
  1 26  1  0
  1 27  1  0
  7 28  1  6
 12 29  1  1
 13 30  1  6
 14 31  1  0
 15 32  1  0
 15 33  1  0
 16 34  1  0
 16 35  1  0
 18 36  1  0
 19 37  1  0
M  END
>  <meeko>  (1) 
{"is_sidechain": [false], "free_energy": -6.763, "intermolecular_energy": -7.752, "internal_energy": 0.735}

$$$$
3g0w_ligand
     RDKit          3D

 37 39  0  0  0  0  0  0  0  0999 V2000
   -0.6750   -9.0160   -4.9550 C   0  0  0  0  0  0  0  0  0  0  0  0
   -0.8850   -7.7760   -4.1240 C   0  0  0  0  0  0  0  0  0  0  0  0
   -0.3690   -7.7000   -2.8150 C   0  0  0  0  0  0  0  0  0  0  0  0
    0.3340   -8.7660   -2.2330 N   0  0  0  0  0  0  0  0  0  0  0  0
    1.3130   -9.2810   -2.8980 C   0  0  0  0  0  0  0  0  0  0  0  0
    1.6540   -8.8660   -4.1530 O   0  0  0  0  0  0  0  0  0  0  0  0
    2.7570   -9.6620   -4.6440 C   0  0  1  0  0  0  0  0  0  0  0  0
    4.0030   -8.8160   -4.8270 C   0  0  0  0  0  0  0  0  0  0  0  0
    3.7300   -7.6700   -5.4890 F   0  0  0  0  0  0  0  0  0  0  0  0
    4.5810   -8.4870   -3.6520 F   0  0  0  0  0  0  0  0  0  0  0  0
    4.9290   -9.4860   -5.5560 F   0  0  0  0  0  0  0  0  0  0  0  0
    2.9920  -10.7240   -3.5890 C   0  0  2  0  0  0  0  0  0  0  0  0
    2.4960  -12.1260   -3.9570 C   0  0  1  0  0  0  0  0  0  0  0  0
    3.4840  -12.8930   -4.6200 O   0  0  0  0  0  0  0  0  0  0  0  0
    2.1460  -12.6910   -2.5840 C   0  0  0  0  0  0  0  0  0  0  0  0
    1.4870  -11.5020   -1.8850 C   0  0  0  0  0  0  0  0  0  0  0  0
    2.1070  -10.3250   -2.5030 N   0  0  0  0  0  0  0  0  0  0  0  0
   -0.5910   -6.5540   -2.0410 C   0  0  0  0  0  0  0  0  0  0  0  0
   -1.2860   -5.4640   -2.5610 C   0  0  0  0  0  0  0  0  0  0  0  0
   -1.7770   -5.5080   -3.8700 C   0  0  0  0  0  0  0  0  0  0  0  0
   -2.4770   -4.3610   -4.3710 C   0  0  0  0  0  0  0  0  0  0  0  0
   -3.0390   -3.4170   -4.7460 N   0  0  0  0  0  0  0  0  0  0  0  0
   -1.5760   -6.6600   -4.6490 C   0  0  0  0  0  0  0  0  0  0  0  0
   -2.1750   -6.7090   -6.2810 Cl  0  0  0  0  0  0  0  0  0  0  0  0
   -0.5285   -9.8813   -4.2919 H   0  0  0  0  0  0  0  0  0  0  0  0
   -1.5572   -9.1857   -5.5898 H   0  0  0  0  0  0  0  0  0  0  0  0
    0.2139   -8.8858   -5.5898 H   0  0  0  0  0  0  0  0  0  0  0  0
    2.5275  -10.0993   -5.6269 H   0  0  0  0  0  0  0  0  0  0  0  0
    4.0738  -10.7834   -3.3989 H   0  0  0  0  0  0  0  0  0  0  0  0
    1.6571  -12.1291   -4.6685 H   0  0  0  0  0  0  0  0  0  0  0  0
    4.0200  -13.3710   -3.9610 H   0  0  0  0  0  0  0  0  0  0  0  0
    1.4477  -13.5366   -2.6700 H   0  0  0  0  0  0  0  0  0  0  0  0
    3.0173  -13.0863   -2.0413 H   0  0  0  0  0  0  0  0  0  0  0  0
    0.4003  -11.5039   -2.0554 H   0  0  0  0  0  0  0  0  0  0  0  0
    1.6286  -11.5261   -0.7944 H   0  0  0  0  0  0  0  0  0  0  0  0
   -0.2118   -6.5139   -1.0092 H   0  0  0  0  0  0  0  0  0  0  0  0
   -1.4485   -4.5691   -1.9423 H   0  0  0  0  0  0  0  0  0  0  0  0
  1  2  1  0
  2  3  2  0
  3  4  1  0
  4  5  2  0
  5  6  1  0
  6  7  1  0
  7  8  1  0
  8  9  1  0
  8 10  1  0
  8 11  1  0
  7 12  1  0
 12 13  1  0
 13 14  1  0
 13 15  1  0
 15 16  1  0
 16 17  1  0
  3 18  1  0
 18 19  2  0
 19 20  1  0
 20 21  1  0
 21 22  3  0
 20 23  2  0
 23 24  1  0
 23  2  1  0
 17  5  1  0
 17 12  1  0
  1 25  1  0
  1 26  1  0
  1 27  1  0
  7 28  1  6
 12 29  1  1
 13 30  1  6
 14 31  1  0
 15 32  1  0
 15 33  1  0
 16 34  1  0
 16 35  1  0
 18 36  1  0
 19 37  1  0
M  END
>  <meeko>  (2) 
{"is_sidechain": [false], "free_energy": -5.585, "intermolecular_energy": -7.426, "internal_energy": 1.76}

$$$$
3g0w_ligand
     RDKit          3D

 37 39  0  0  0  0  0  0  0  0999 V2000
   -1.4340   -6.2900   -6.4960 C   0  0  0  0  0  0  0  0  0  0  0  0
   -1.1460   -6.4650   -5.0260 C   0  0  0  0  0  0  0  0  0  0  0  0
    0.0280   -7.1210   -4.6040 C   0  0  0  0  0  0  0  0  0  0  0  0
    0.9530   -7.6460   -5.5190 N   0  0  0  0  0  0  0  0  0  0  0  0
    1.5950   -8.7150   -5.1870 C   0  0  0  0  0  0  0  0  0  0  0  0
    1.4480   -9.3170   -3.9700 O   0  0  0  0  0  0  0  0  0  0  0  0
    2.3290  -10.4610   -3.8860 C   0  0  1  0  0  0  0  0  0  0  0  0
    1.5410  -11.7540   -3.7950 C   0  0  0  0  0  0  0  0  0  0  0  0
    0.2450  -11.5220   -3.4860 F   0  0  0  0  0  0  0  0  0  0  0  0
    1.5730  -12.4590   -4.9450 F   0  0  0  0  0  0  0  0  0  0  0  0
    2.0460  -12.5490   -2.8210 F   0  0  0  0  0  0  0  0  0  0  0  0
    3.1510  -10.4340   -5.1590 C   0  0  2  0  0  0  0  0  0  0  0  0
    4.5980   -9.9610   -4.9870 C   0  0  1  0  0  0  0  0  0  0  0  0
    5.4870  -11.0280   -4.7090 O   0  0  0  0  0  0  0  0  0  0  0  0
    4.8670   -9.3200   -6.3450 C   0  0  0  0  0  0  0  0  0  0  0  0
    3.5590   -8.5870   -6.6400 C   0  0  0  0  0  0  0  0  0  0  0  0
    2.5360   -9.3680   -5.9370 N   0  0  0  0  0  0  0  0  0  0  0  0
    0.2740   -7.3020   -3.2380 C   0  0  0  0  0  0  0  0  0  0  0  0
   -0.6090   -6.8070   -2.2810 C   0  0  0  0  0  0  0  0  0  0  0  0
   -1.7620   -6.1240   -2.6800 C   0  0  0  0  0  0  0  0  0  0  0  0
   -2.6400   -5.6210   -1.6640 C   0  0  0  0  0  0  0  0  0  0  0  0
   -3.3280   -5.2270   -0.8170 N   0  0  0  0  0  0  0  0  0  0  0  0
   -2.0290   -5.9530   -4.0490 C   0  0  0  0  0  0  0  0  0  0  0  0
   -3.4570   -5.0930   -4.5460 Cl  0  0  0  0  0  0  0  0  0  0  0  0
   -2.3679   -5.7225   -6.6216 H   0  0  0  0  0  0  0  0  0  0  0  0
   -0.6057   -5.7424   -6.9693 H   0  0  0  0  0  0  0  0  0  0  0  0
   -1.5385   -7.2775   -6.9693 H   0  0  0  0  0  0  0  0  0  0  0  0
    2.9589  -10.4141   -2.9855 H   0  0  0  0  0  0  0  0  0  0  0  0
    3.1712  -11.4522   -5.5749 H   0  0  0  0  0  0  0  0  0  0  0  0
    4.7466   -9.2821   -4.1344 H   0  0  0  0  0  0  0  0  0  0  0  0
    5.1070  -11.5950   -4.0140 H   0  0  0  0  0  0  0  0  0  0  0  0
    5.7113   -8.6170   -6.2908 H   0  0  0  0  0  0  0  0  0  0  0  0
    5.1427  -10.0477   -7.1225 H   0  0  0  0  0  0  0  0  0  0  0  0
    3.5948   -7.5570   -6.2554 H   0  0  0  0  0  0  0  0  0  0  0  0
    3.3575   -8.5069   -7.7184 H   0  0  0  0  0  0  0  0  0  0  0  0
    1.1765   -7.8422   -2.9159 H   0  0  0  0  0  0  0  0  0  0  0  0
   -0.3991   -6.9535   -1.2112 H   0  0  0  0  0  0  0  0  0  0  0  0
  1  2  1  0
  2  3  2  0
  3  4  1  0
  4  5  2  0
  5  6  1  0
  6  7  1  0
  7  8  1  0
  8  9  1  0
  8 10  1  0
  8 11  1  0
  7 12  1  0
 12 13  1  0
 13 14  1  0
 13 15  1  0
 15 16  1  0
 16 17  1  0
  3 18  1  0
 18 19  2  0
 19 20  1  0
 20 21  1  0
 21 22  3  0
 20 23  2  0
 23 24  1  0
 23  2  1  0
 17  5  1  0
 17 12  1  0
  1 25  1  0
  1 26  1  0
  1 27  1  0
  7 28  1  1
 12 29  1  6
 13 30  1  1
 14 31  1  0
 15 32  1  0
 15 33  1  0
 16 34  1  0
 16 35  1  0
 18 36  1  0
 19 37  1  0
M  END
>  <meeko>  (3) 
{"is_sidechain": [false], "free_energy": -4.385, "intermolecular_energy": -4.722, "internal_energy": 0.431}

$$$$
