4j3l_ligand
     RDKit          3D

 45 47  0  0  0  0  0  0  0  0999 V2000
   12.4340    9.6130   -5.3850 C   0  0  0  0  0  0  0  0  0  0  0  0
   12.6900    8.4840   -4.5600 O   0  0  0  0  0  0  0  0  0  0  0  0
   12.2250    8.6520   -3.2190 C   0  0  0  0  0  0  0  0  0  0  0  0
   11.2760    7.5410   -2.7520 C   0  0  0  0  0  0  0  0  0  0  0  0
   10.1150    7.4080   -3.6180 N   0  0  0  0  0  0  0  0  0  0  0  0
    9.9840    6.3430   -4.4850 C   0  0  0  0  0  0  0  0  0  0  0  0
   10.8650    5.5180   -4.6950 O   0  0  0  0  0  0  0  0  0  0  0  0
    8.6720    6.2080   -5.1730 C   0  0  0  0  0  0  0  0  0  0  0  0
    8.6010    6.5100   -6.5360 C   0  0  0  0  0  0  0  0  0  0  0  0
    7.3870    6.4010   -7.2200 C   0  0  0  0  0  0  0  0  0  0  0  0
    6.2160    5.9970   -6.5550 C   0  0  0  0  0  0  0  0  0  0  0  0
    4.9640    5.8960   -7.3180 C   0  0  0  0  0  0  0  0  0  0  0  0
    4.0170    6.9300   -7.2810 C   0  0  0  0  0  0  0  0  0  0  0  0
    2.8190    6.8360   -8.0020 C   0  0  0  0  0  0  0  0  0  0  0  0
    2.5370    5.7050   -8.7750 C   0  0  0  0  0  0  0  0  0  0  0  0
    1.2890    5.5500   -9.5570 C   0  0  0  0  0  0  0  0  0  0  0  0
    0.2560    6.6380   -9.5450 C   0  0  0  0  0  0  0  0  0  0  0  0
    1.1050    4.4260  -10.2700 C   0  0  0  0  0  0  0  0  0  0  0  0
    2.1050    3.3350  -10.3040 C   0  0  0  0  0  0  0  0  0  0  0  0
    1.9090    2.3220  -10.9650 O   0  0  0  0  0  0  0  0  0  0  0  0
    3.2400    3.5220   -9.5680 N   0  0  0  0  0  0  0  0  0  0  0  0
    3.4880    4.6710   -8.8060 C   0  0  0  0  0  0  0  0  0  0  0  0
    4.6840    4.7600   -8.0890 C   0  0  0  0  0  0  0  0  0  0  0  0
    6.3000    5.7150   -5.1780 C   0  0  0  0  0  0  0  0  0  0  0  0
    4.9100    5.2370   -4.2630 Cl  0  0  0  0  0  0  0  0  0  0  0  0
    7.5150    5.8220   -4.4900 C   0  0  0  0  0  0  0  0  0  0  0  0
   12.2349   10.4912   -4.7532 H   0  0  0  0  0  0  0  0  0  0  0  0
   13.3104    9.8093   -6.0201 H   0  0  0  0  0  0  0  0  0  0  0  0
   11.5586    9.4121   -6.0201 H   0  0  0  0  0  0  0  0  0  0  0  0
   13.0969    8.6686   -2.5486 H   0  0  0  0  0  0  0  0  0  0  0  0
   11.6565    9.5933   -3.1913 H   0  0  0  0  0  0  0  0  0  0  0  0
   11.8238    6.5871   -2.7454 H   0  0  0  0  0  0  0  0  0  0  0  0
   10.9176    7.8047   -1.7460 H   0  0  0  0  0  0  0  0  0  0  0  0
    9.2830    7.9130   -3.3430 H   0  0  0  0  0  0  0  0  0  0  0  0
    9.5046    6.8349   -7.0726 H   0  0  0  0  0  0  0  0  0  0  0  0
    7.3472    6.6347   -8.2942 H   0  0  0  0  0  0  0  0  0  0  0  0
    4.2175    7.8275   -6.6774 H   0  0  0  0  0  0  0  0  0  0  0  0
    2.0924    7.6608   -7.9595 H   0  0  0  0  0  0  0  0  0  0  0  0
    0.0093    6.8979   -8.5050 H   0  0  0  0  0  0  0  0  0  0  0  0
    0.6520    7.5253  -10.0606 H   0  0  0  0  0  0  0  0  0  0  0  0
   -0.6506    6.2885  -10.0606 H   0  0  0  0  0  0  0  0  0  0  0  0
    0.1771    4.3124  -10.8498 H   0  0  0  0  0  0  0  0  0  0  0  0
    3.9160    2.7710   -9.6020 H   0  0  0  0  0  0  0  0  0  0  0  0
    5.4094    3.9341   -8.1300 H   0  0  0  0  0  0  0  0  0  0  0  0
    7.5589    5.6025   -3.4130 H   0  0  0  0  0  0  0  0  0  0  0  0
  1  2  1  0
  2  3  1  0
  3  4  1  0
  4  5  1  0
  5  6  1  0
  6  7  2  0
  6  8  1  0
  8  9  2  0
  9 10  1  0
 10 11  2  0
 11 12  1  0
 12 13  2  0
 13 14  1  0
 14 15  2  0
 15 16  1  0
 16 17  1  0
 16 18  2  0
 18 19  1  0
 19 20  2  0
 19 21  1  0
 21 22  1  0
 22 23  2  0
 11 24  1  0
 24 25  1  0
 24 26  2  0
 26  8  1  0
 23 12  1  0
 22 15  1  0
  1 27  1  0
  1 28  1  0
  1 29  1  0
  3 30  1  0
  3 31  1  0
  4 32  1  0
  4 33  1  0
  5 34  1  0
  9 35  1  0
 10 36  1  0
 13 37  1  0
 14 38  1  0
 17 39  1  0
 17 40  1  0
 17 41  1  0
 18 42  1  0
 21 43  1  0
 23 44  1  0
 26 45  1  0
M  END
>  <meeko>  (1) 
{"is_sidechain": [false], "free_energy": -9.596, "intermolecular_energy": -12.401, "internal_energy": -0.793}

$$$$
4j3l_ligand
     RDKit          3D

 45 47  0  0  0  0  0  0  0  0999 V2000
   12.8150    8.5360   -5.3840 C   0  0  0  0  0  0  0  0  0  0  0  0
   11.5990    9.1520   -5.7870 O   0  0  0  0  0  0  0  0  0  0  0  0
   10.8690    9.7190   -4.6970 C   0  0  0  0  0  0  0  0  0  0  0  0
   10.0380    8.6940   -3.9130 C   0  0  0  0  0  0  0  0  0  0  0  0
    8.9500    8.1450   -4.7060 N   0  0  0  0  0  0  0  0  0  0  0  0
    8.8900    6.8000   -5.0100 C   0  0  0  0  0  0  0  0  0  0  0  0
    9.7860    6.0010   -4.7650 O   0  0  0  0  0  0  0  0  0  0  0  0
    7.6360    6.3240   -5.6540 C   0  0  0  0  0  0  0  0  0  0  0  0
    7.5700    6.3070   -7.0500 C   0  0  0  0  0  0  0  0  0  0  0  0
    6.4100    5.8710   -7.6950 C   0  0  0  0  0  0  0  0  0  0  0  0
    5.2880    5.4500   -6.9600 C   0  0  0  0  0  0  0  0  0  0  0  0
    4.0920    4.9990   -7.6840 C   0  0  0  0  0  0  0  0  0  0  0  0
    3.7490    3.6400   -7.7290 C   0  0  0  0  0  0  0  0  0  0  0  0
    2.6130    3.2050   -8.4230 C   0  0  0  0  0  0  0  0  0  0  0  0
    1.7910    4.1180   -9.0920 C   0  0  0  0  0  0  0  0  0  0  0  0
    0.5780    3.7170   -9.8420 C   0  0  0  0  0  0  0  0  0  0  0  0
    0.1800    2.2720   -9.9060 C   0  0  0  0  0  0  0  0  0  0  0  0
   -0.1490    4.6660  -10.4540 C   0  0  0  0  0  0  0  0  0  0  0  0
    0.2160    6.0990  -10.4080 C   0  0  0  0  0  0  0  0  0  0  0  0
   -0.4690    6.9420  -10.9770 O   0  0  0  0  0  0  0  0  0  0  0  0
    1.3420    6.4220   -9.7060 N   0  0  0  0  0  0  0  0  0  0  0  0
    2.1400    5.4780   -9.0470 C   0  0  0  0  0  0  0  0  0  0  0  0
    3.2730    5.9170   -8.3560 C   0  0  0  0  0  0  0  0  0  0  0  0
    5.3630    5.4900   -5.5550 C   0  0  0  0  0  0  0  0  0  0  0  0
    4.0270    5.0210   -4.5600 Cl  0  0  0  0  0  0  0  0  0  0  0  0
    6.5250    5.9260   -4.9050 C   0  0  0  0  0  0  0  0  0  0  0  0
   12.8664    8.5100   -4.2855 H   0  0  0  0  0  0  0  0  0  0  0  0
   12.8539    7.5095   -5.7773 H   0  0  0  0  0  0  0  0  0  0  0  0
   13.6657    9.1119   -5.7773 H   0  0  0  0  0  0  0  0  0  0  0  0
   11.5849   10.1877   -4.0057 H   0  0  0  0  0  0  0  0  0  0  0  0
   10.1631   10.4457   -5.1256 H   0  0  0  0  0  0  0  0  0  0  0  0
   10.6965    7.8712   -3.5978 H   0  0  0  0  0  0  0  0  0  0  0  0
    9.5971    9.2092   -3.0468 H   0  0  0  0  0  0  0  0  0  0  0  0
    8.0980    8.6890   -4.7460 H   0  0  0  0  0  0  0  0  0  0  0  0
    8.4350    6.6383   -7.6433 H   0  0  0  0  0  0  0  0  0  0  0  0
    6.3740    5.8569   -8.7943 H   0  0  0  0  0  0  0  0  0  0  0  0
    4.3820    2.9043   -7.2112 H   0  0  0  0  0  0  0  0  0  0  0  0
    2.3644    2.1336   -8.4422 H   0  0  0  0  0  0  0  0  0  0  0  0
    0.0710    1.8762   -8.8855 H   0  0  0  0  0  0  0  0  0  0  0  0
   -0.7773    2.1786  -10.4397 H   0  0  0  0  0  0  0  0  0  0  0  0
    0.9545    1.7016  -10.4397 H   0  0  0  0  0  0  0  0  0  0  0  0
   -1.0495    4.3666  -11.0103 H   0  0  0  0  0  0  0  0  0  0  0  0
    1.5780    7.4040   -9.6800 H   0  0  0  0  0  0  0  0  0  0  0  0
    3.5232    6.9880   -8.3395 H   0  0  0  0  0  0  0  0  0  0  0  0
    6.5630    5.9551   -3.8060 H   0  0  0  0  0  0  0  0  0  0  0  0
  1  2  1  0
  2  3  1  0
  3  4  1  0
  4  5  1  0
  5  6  1  0
  6  7  2  0
  6  8  1  0
  8  9  2  0
  9 10  1  0
 10 11  2  0
 11 12  1  0
 12 13  2  0
 13 14  1  0
 14 15  2  0
 15 16  1  0
 16 17  1  0
 16 18  2  0
 18 19  1  0
 19 20  2  0
 19 21  1  0
 21 22  1  0
 22 23  2  0
 11 24  1  0
 24 25  1  0
 24 26  2  0
 26  8  1  0
 23 12  1  0
 22 15  1  0
  1 27  1  0
  1 28  1  0
  1 29  1  0
  3 30  1  0
  3 31  1  0
  4 32  1  0
  4 33  1  0
  5 34  1  0
  9 35  1  0
 10 36  1  0
 13 37  1  0
 14 38  1  0
 17 39  1  0
 17 40  1  0
 17 41  1  0
 18 42  1  0
 21 43  1  0
 23 44  1  0
 26 45  1  0
M  END
>  <meeko>  (2) 
{"is_sidechain": [false], "free_energy": -9.438, "intermolecular_energy": -12.243, "internal_energy": -0.746}

$$$$
4j3l_ligand
     RDKit          3D

 45 47  0  0  0  0  0  0  0  0999 V2000
   12.6070    8.5910   -2.8600 C   0  0  0  0  0  0  0  0  0  0  0  0
   11.3370    8.0990   -2.4530 O   0  0  0  0  0  0  0  0  0  0  0  0
   11.2280    6.6770   -2.5480 C   0  0  0  0  0  0  0  0  0  0  0  0
   11.2170    6.1550   -3.9910 C   0  0  0  0  0  0  0  0  0  0  0  0
    9.8710    5.8880   -4.4700 N   0  0  0  0  0  0  0  0  0  0  0  0
    9.1840    6.8090   -5.2350 C   0  0  0  0  0  0  0  0  0  0  0  0
    9.5800    7.9480   -5.4560 O   0  0  0  0  0  0  0  0  0  0  0  0
    7.9010    6.3480   -5.8300 C   0  0  0  0  0  0  0  0  0  0  0  0
    7.7960    6.2910   -7.2220 C   0  0  0  0  0  0  0  0  0  0  0  0
    6.6070    5.8670   -7.8230 C   0  0  0  0  0  0  0  0  0  0  0  0
    5.4940    5.5000   -7.0450 C   0  0  0  0  0  0  0  0  0  0  0  0
    4.2670    5.0610   -7.7220 C   0  0  0  0  0  0  0  0  0  0  0  0
    3.8920    3.7100   -7.7240 C   0  0  0  0  0  0  0  0  0  0  0  0
    2.7260    3.2860   -8.3730 C   0  0  0  0  0  0  0  0  0  0  0  0
    1.9050    4.2020   -9.0400 C   0  0  0  0  0  0  0  0  0  0  0  0
    0.6620    3.8120   -9.7430 C   0  0  0  0  0  0  0  0  0  0  0  0
    0.2280    2.3760   -9.7600 C   0  0  0  0  0  0  0  0  0  0  0  0
   -0.0620    4.7630  -10.3570 C   0  0  0  0  0  0  0  0  0  0  0  0
    0.3380    6.1890  -10.3570 C   0  0  0  0  0  0  0  0  0  0  0  0
   -0.3440    7.0340  -10.9250 O   0  0  0  0  0  0  0  0  0  0  0  0
    1.4910    6.5010   -9.6960 N   0  0  0  0  0  0  0  0  0  0  0  0
    2.2870    5.5540   -9.0380 C   0  0  0  0  0  0  0  0  0  0  0  0
    3.4490    5.9820   -8.3910 C   0  0  0  0  0  0  0  0  0  0  0  0
    5.6090    5.5820   -5.6440 C   0  0  0  0  0  0  0  0  0  0  0  0
    4.2890    5.1810   -4.5990 Cl  0  0  0  0  0  0  0  0  0  0  0  0
    6.8000    6.0050   -5.0390 C   0  0  0  0  0  0  0  0  0  0  0  0
   13.2115    8.8252   -1.9713 H   0  0  0  0  0  0  0  0  0  0  0  0
   13.1206    7.8268   -3.4618 H   0  0  0  0  0  0  0  0  0  0  0  0
   12.4717    9.5018   -3.4618 H   0  0  0  0  0  0  0  0  0  0  0  0
   12.0831    6.2271   -2.0223 H   0  0  0  0  0  0  0  0  0  0  0  0
   10.2644    6.3973   -2.0972 H   0  0  0  0  0  0  0  0  0  0  0  0
   11.6818    6.9087   -4.6435 H   0  0  0  0  0  0  0  0  0  0  0  0
   11.7757    5.2076   -4.0108 H   0  0  0  0  0  0  0  0  0  0  0  0
    9.5870    4.9180   -4.5100 H   0  0  0  0  0  0  0  0  0  0  0  0
    8.6527    6.5810   -7.8480 H   0  0  0  0  0  0  0  0  0  0  0  0
    6.5409    5.8197   -8.9200 H   0  0  0  0  0  0  0  0  0  0  0  0
    4.5235    2.9719   -7.2078 H   0  0  0  0  0  0  0  0  0  0  0  0
    2.4523    2.2207   -8.3584 H   0  0  0  0  0  0  0  0  0  0  0  0
    0.1185    2.0138   -8.7271 H   0  0  0  0  0  0  0  0  0  0  0  0
   -0.7361    2.2905  -10.2827 H   0  0  0  0  0  0  0  0  0  0  0  0
    0.9834    1.7708  -10.2827 H   0  0  0  0  0  0  0  0  0  0  0  0
   -0.9856    4.4717  -10.8787 H   0  0  0  0  0  0  0  0  0  0  0  0
    1.7510    7.4780   -9.7010 H   0  0  0  0  0  0  0  0  0  0  0  0
    3.7233    7.0471   -8.4067 H   0  0  0  0  0  0  0  0  0  0  0  0
    6.8688    6.0672   -3.9429 H   0  0  0  0  0  0  0  0  0  0  0  0
  1  2  1  0
  2  3  1  0
  3  4  1  0
  4  5  1  0
  5  6  1  0
  6  7  2  0
  6  8  1  0
  8  9  2  0
  9 10  1  0
 10 11  2  0
 11 12  1  0
 12 13  2  0
 13 14  1  0
 14 15  2  0
 15 16  1  0
 16 17  1  0
 16 18  2  0
 18 19  1  0
 19 20  2  0
 19 21  1  0
 21 22  1  0
 22 23  2  0
 11 24  1  0
 24 25  1  0
 24 26  2  0
 26  8  1  0
 23 12  1  0
 22 15  1  0
  1 27  1  0
  1 28  1  0
  1 29  1  0
  3 30  1  0
  3 31  1  0
  4 32  1  0
  4 33  1  0
  5 34  1  0
  9 35  1  0
 10 36  1  0
 13 37  1  0
 14 38  1  0
 17 39  1  0
 17 40  1  0
 17 41  1  0
 18 42  1  0
 21 43  1  0
 23 44  1  0
 26 45  1  0
M  END
>  <meeko>  (3) 
{"is_sidechain": [false], "free_energy": -9.427, "intermolecular_energy": -12.223, "internal_energy": -0.752}

$$$$
4j3l_ligand
     RDKit          3D

 45 47  0  0  0  0  0  0  0  0999 V2000
   -0.0120    6.1840  -10.2270 C   0  0  0  0  0  0  0  0  0  0  0  0
   -0.2580    4.8040  -10.4630 O   0  0  0  0  0  0  0  0  0  0  0  0
   -0.6750    4.0990   -9.2910 C   0  0  0  0  0  0  0  0  0  0  0  0
    0.3040    3.0020   -8.8510 C   0  0  0  0  0  0  0  0  0  0  0  0
    1.4550    3.5420   -8.1460 N   0  0  0  0  0  0  0  0  0  0  0  0
    2.7160    3.5160   -8.7050 C   0  0  0  0  0  0  0  0  0  0  0  0
    2.9930    2.9330   -9.7470 O   0  0  0  0  0  0  0  0  0  0  0  0
    3.7750    4.2710   -7.9820 C   0  0  0  0  0  0  0  0  0  0  0  0
    4.8150    4.8370   -8.7260 C   0  0  0  0  0  0  0  0  0  0  0  0
    5.8320    5.5510   -8.0860 C   0  0  0  0  0  0  0  0  0  0  0  0
    5.8370    5.7070   -6.6890 C   0  0  0  0  0  0  0  0  0  0  0  0
    6.9280    6.4660   -6.0630 C   0  0  0  0  0  0  0  0  0  0  0  0
    7.1080    7.8280   -6.3430 C   0  0  0  0  0  0  0  0  0  0  0  0
    8.1500    8.5550   -5.7540 C   0  0  0  0  0  0  0  0  0  0  0  0
    9.0400    7.9370   -4.8680 C   0  0  0  0  0  0  0  0  0  0  0  0
   10.1590    8.6540   -4.2150 C   0  0  0  0  0  0  0  0  0  0  0  0
   10.3780   10.1130   -4.4890 C   0  0  0  0  0  0  0  0  0  0  0  0
   10.9640    7.9760   -3.3800 C   0  0  0  0  0  0  0  0  0  0  0  0
   10.7740    6.5380   -3.0880 C   0  0  0  0  0  0  0  0  0  0  0  0
   11.5250    5.9470   -2.3200 O   0  0  0  0  0  0  0  0  0  0  0  0
    9.7300    5.9190   -3.7120 N   0  0  0  0  0  0  0  0  0  0  0  0
    8.8580    6.5720   -4.5930 C   0  0  0  0  0  0  0  0  0  0  0  0
    7.8190    5.8430   -5.1790 C   0  0  0  0  0  0  0  0  0  0  0  0
    4.7940    5.1140   -5.9520 C   0  0  0  0  0  0  0  0  0  0  0  0
    4.7260    5.2230   -4.2250 Cl  0  0  0  0  0  0  0  0  0  0  0  0
    3.7730    4.3990   -6.5900 C   0  0  0  0  0  0  0  0  0  0  0  0
    0.0212    6.3705   -9.1434 H   0  0  0  0  0  0  0  0  0  0  0  0
    0.9508    6.4671  -10.6775 H   0  0  0  0  0  0  0  0  0  0  0  0
   -0.8176    6.7823  -10.6775 H   0  0  0  0  0  0  0  0  0  0  0  0
   -0.7786    4.8224   -8.4688 H   0  0  0  0  0  0  0  0  0  0  0  0
   -1.6259    3.6028   -9.5351 H   0  0  0  0  0  0  0  0  0  0  0  0
   -0.2233    2.3033   -8.1849 H   0  0  0  0  0  0  0  0  0  0  0  0
    0.6703    2.4945   -9.7555 H   0  0  0  0  0  0  0  0  0  0  0  0
    1.2650    4.2110   -7.4120 H   0  0  0  0  0  0  0  0  0  0  0  0
    4.8328    4.7198   -9.8196 H   0  0  0  0  0  0  0  0  0  0  0  0
    6.6401    5.9973   -8.6842 H   0  0  0  0  0  0  0  0  0  0  0  0
    6.4198    8.3336   -7.0364 H   0  0  0  0  0  0  0  0  0  0  0  0
    8.2702    9.6226   -5.9901 H   0  0  0  0  0  0  0  0  0  0  0  0
   10.4596   10.6568   -3.5363 H   0  0  0  0  0  0  0  0  0  0  0  0
   11.3057   10.2426   -5.0658 H   0  0  0  0  0  0  0  0  0  0  0  0
    9.5293   10.5092   -5.0658 H   0  0  0  0  0  0  0  0  0  0  0  0
   11.7950    8.5096   -2.8956 H   0  0  0  0  0  0  0  0  0  0  0  0
    9.6100    4.9380   -3.5020 H   0  0  0  0  0  0  0  0  0  0  0  0
    7.7003    4.7748   -4.9449 H   0  0  0  0  0  0  0  0  0  0  0  0
    2.9698    3.9383   -5.9962 H   0  0  0  0  0  0  0  0  0  0  0  0
  1  2  1  0
  2  3  1  0
  3  4  1  0
  4  5  1  0
  5  6  1  0
  6  7  2  0
  6  8  1  0
  8  9  2  0
  9 10  1  0
 10 11  2  0
 11 12  1  0
 12 13  2  0
 13 14  1  0
 14 15  2  0
 15 16  1  0
 16 17  1  0
 16 18  2  0
 18 19  1  0
 19 20  2  0
 19 21  1  0
 21 22  1  0
 22 23  2  0
 11 24  1  0
 24 25  1  0
 24 26  2  0
 26  8  1  0
 23 12  1  0
 22 15  1  0
  1 27  1  0
  1 28  1  0
  1 29  1  0
  3 30  1  0
  3 31  1  0
  4 32  1  0
  4 33  1  0
  5 34  1  0
  9 35  1  0
 10 36  1  0
 13 37  1  0
 14 38  1  0
 17 39  1  0
 17 40  1  0
 17 41  1  0
 18 42  1  0
 21 43  1  0
 23 44  1  0
 26 45  1  0
M  END
>  <meeko>  (4) 
{"is_sidechain": [false], "free_energy": -9.324, "intermolecular_energy": -12.176, "internal_energy": -0.666}

$$$$
4j3l_ligand
     RDKit          3D

 45 47  0  0  0  0  0  0  0  0999 V2000
    6.3510    2.9960   -0.9360 C   0  0  0  0  0  0  0  0  0  0  0  0
    4.9930    2.9130   -0.5210 O   0  0  0  0  0  0  0  0  0  0  0  0
    4.0970    3.6090   -1.3900 C   0  0  0  0  0  0  0  0  0  0  0  0
    4.8040    4.3900   -2.5070 C   0  0  0  0  0  0  0  0  0  0  0  0
    3.9050    4.7220   -3.6000 N   0  0  0  0  0  0  0  0  0  0  0  0
    4.3830    5.2030   -4.8020 C   0  0  0  0  0  0  0  0  0  0  0  0
    5.5520    5.5120   -5.0010 O   0  0  0  0  0  0  0  0  0  0  0  0
    3.3940    5.3180   -5.9080 C   0  0  0  0  0  0  0  0  0  0  0  0
    2.3060    6.1790   -5.7390 C   0  0  0  0  0  0  0  0  0  0  0  0
    1.3510    6.3140   -6.7510 C   0  0  0  0  0  0  0  0  0  0  0  0
    1.4590    5.5870   -7.9500 C   0  0  0  0  0  0  0  0  0  0  0  0
    0.4310    5.7640   -8.9840 C   0  0  0  0  0  0  0  0  0  0  0  0
    0.3870    6.9310   -9.7600 C   0  0  0  0  0  0  0  0  0  0  0  0
   -0.5950    7.1080  -10.7430 C   0  0  0  0  0  0  0  0  0  0  0  0
   -1.5600    6.1210  -10.9740 C   0  0  0  0  0  0  0  0  0  0  0  0
   -2.6210    6.2510  -11.9990 C   0  0  0  0  0  0  0  0  0  0  0  0
   -2.6950    7.4850  -12.8500 C   0  0  0  0  0  0  0  0  0  0  0  0
   -3.5050    5.2510  -12.1480 C   0  0  0  0  0  0  0  0  0  0  0  0
   -3.4580    4.0210  -11.3250 C   0  0  0  0  0  0  0  0  0  0  0  0
   -4.2790    3.1250  -11.4860 O   0  0  0  0  0  0  0  0  0  0  0  0
   -2.4630    3.9450  -10.3940 N   0  0  0  0  0  0  0  0  0  0  0  0
   -1.5140    4.9550  -10.1920 C   0  0  0  0  0  0  0  0  0  0  0  0
   -0.5350    4.7750   -9.2100 C   0  0  0  0  0  0  0  0  0  0  0  0
    2.5510    4.7110   -8.0970 C   0  0  0  0  0  0  0  0  0  0  0  0
    2.7590    3.7490   -9.5210 Cl  0  0  0  0  0  0  0  0  0  0  0  0
    3.5100    4.5730   -7.0850 C   0  0  0  0  0  0  0  0  0  0  0  0
    7.0031    3.0359   -0.0510 H   0  0  0  0  0  0  0  0  0  0  0  0
    6.6048    2.1117   -1.5390 H   0  0  0  0  0  0  0  0  0  0  0  0
    6.4953    3.9046   -1.5390 H   0  0  0  0  0  0  0  0  0  0  0  0
    3.4217    2.8746   -1.8533 H   0  0  0  0  0  0  0  0  0  0  0  0
    3.5580    4.3443   -0.7746 H   0  0  0  0  0  0  0  0  0  0  0  0
    5.2087    5.3221   -2.0858 H   0  0  0  0  0  0  0  0  0  0  0  0
    5.6041    3.7519   -2.9104 H   0  0  0  0  0  0  0  0  0  0  0  0
    2.9880    4.2950   -3.5800 H   0  0  0  0  0  0  0  0  0  0  0  0
    2.2008    6.7525   -4.8063 H   0  0  0  0  0  0  0  0  0  0  0  0
    0.5025    6.9991   -6.6073 H   0  0  0  0  0  0  0  0  0  0  0  0
    1.1354    7.7199   -9.5942 H   0  0  0  0  0  0  0  0  0  0  0  0
   -0.6079    8.0321  -11.3395 H   0  0  0  0  0  0  0  0  0  0  0  0
   -2.7483    8.3735  -12.2037 H   0  0  0  0  0  0  0  0  0  0  0  0
   -1.7989    7.5467  -13.4850 H   0  0  0  0  0  0  0  0  0  0  0  0
   -3.5920    7.4392  -13.4850 H   0  0  0  0  0  0  0  0  0  0  0  0
   -4.2928    5.3493  -12.9093 H   0  0  0  0  0  0  0  0  0  0  0  0
   -2.4410    3.0990   -9.8410 H   0  0  0  0  0  0  0  0  0  0  0  0
   -0.5233    3.8519   -8.6118 H   0  0  0  0  0  0  0  0  0  0  0  0
    4.3533    3.8791   -7.2165 H   0  0  0  0  0  0  0  0  0  0  0  0
  1  2  1  0
  2  3  1  0
  3  4  1  0
  4  5  1  0
  5  6  1  0
  6  7  2  0
  6  8  1  0
  8  9  2  0
  9 10  1  0
 10 11  2  0
 11 12  1  0
 12 13  2  0
 13 14  1  0
 14 15  2  0
 15 16  1  0
 16 17  1  0
 16 18  2  0
 18 19  1  0
 19 20  2  0
 19 21  1  0
 21 22  1  0
 22 23  2  0
 11 24  1  0
 24 25  1  0
 24 26  2  0
 26  8  1  0
 23 12  1  0
 22 15  1  0
  1 27  1  0
  1 28  1  0
  1 29  1  0
  3 30  1  0
  3 31  1  0
  4 32  1  0
  4 33  1  0
  5 34  1  0
  9 35  1  0
 10 36  1  0
 13 37  1  0
 14 38  1  0
 17 39  1  0
 17 40  1  0
 17 41  1  0
 18 42  1  0
 21 43  1  0
 23 44  1  0
 26 45  1  0
M  END
>  <meeko>  (5) 
{"is_sidechain": [false], "free_energy": -9.254, "intermolecular_energy": -12.119, "internal_energy": -0.632}

$$$$
4j3l_ligand
     RDKit          3D

 45 47  0  0  0  0  0  0  0  0999 V2000
   -5.6210    0.2700  -15.9690 C   0  0  0  0  0  0  0  0  0  0  0  0
   -5.6330    1.3270  -15.0190 O   0  0  0  0  0  0  0  0  0  0  0  0
   -5.6280    2.6230  -15.6200 C   0  0  0  0  0  0  0  0  0  0  0  0
   -5.9870    3.7550  -14.6480 C   0  0  0  0  0  0  0  0  0  0  0  0
   -4.8760    4.1060  -13.7780 N   0  0  0  0  0  0  0  0  0  0  0  0
   -4.7720    3.5900  -12.5020 C   0  0  0  0  0  0  0  0  0  0  0  0
   -5.6460    2.9240  -11.9590 O   0  0  0  0  0  0  0  0  0  0  0  0
   -3.4990    3.8610  -11.7810 C   0  0  0  0  0  0  0  0  0  0  0  0
   -3.1680    5.1880  -11.4910 C   0  0  0  0  0  0  0  0  0  0  0  0
   -1.9800    5.4870  -10.8190 C   0  0  0  0  0  0  0  0  0  0  0  0
   -1.0920    4.4680  -10.4310 C   0  0  0  0  0  0  0  0  0  0  0  0
    0.1440    4.8330   -9.7260 C   0  0  0  0  0  0  0  0  0  0  0  0
    1.3880    4.3620  -10.1690 C   0  0  0  0  0  0  0  0  0  0  0  0
    2.5690    4.7020   -9.4970 C   0  0  0  0  0  0  0  0  0  0  0  0
    2.5360    5.5200   -8.3620 C   0  0  0  0  0  0  0  0  0  0  0  0
    3.7500    5.9130   -7.6120 C   0  0  0  0  0  0  0  0  0  0  0  0
    5.0980    5.4310   -8.0610 C   0  0  0  0  0  0  0  0  0  0  0  0
    3.6190    6.7020   -6.5320 C   0  0  0  0  0  0  0  0  0  0  0  0
    2.3040    7.1950   -6.0650 C   0  0  0  0  0  0  0  0  0  0  0  0
    2.2170    7.9150   -5.0760 O   0  0  0  0  0  0  0  0  0  0  0  0
    1.2120    6.8080   -6.7880 N   0  0  0  0  0  0  0  0  0  0  0  0
    1.2870    5.9870   -7.9200 C   0  0  0  0  0  0  0  0  0  0  0  0
    0.1060    5.6500   -8.5880 C   0  0  0  0  0  0  0  0  0  0  0  0
   -1.4300    3.1380  -10.7470 C   0  0  0  0  0  0  0  0  0  0  0  0
   -0.3920    1.8150  -10.3380 Cl  0  0  0  0  0  0  0  0  0  0  0  0
   -2.6210    2.8350  -11.4190 C   0  0  0  0  0  0  0  0  0  0  0  0
   -5.6100   -0.6959  -15.4427 H   0  0  0  0  0  0  0  0  0  0  0  0
   -6.5199    0.3337  -16.5998 H   0  0  0  0  0  0  0  0  0  0  0  0
   -4.7238    0.3541  -16.5998 H   0  0  0  0  0  0  0  0  0  0  0  0
   -4.6222    2.8158  -16.0214 H   0  0  0  0  0  0  0  0  0  0  0  0
   -6.3988    2.6165  -16.4047 H   0  0  0  0  0  0  0  0  0  0  0  0
   -6.2755    4.6430  -15.2296 H   0  0  0  0  0  0  0  0  0  0  0  0
   -6.8147    3.4051  -14.0136 H   0  0  0  0  0  0  0  0  0  0  0  0
   -4.0410    4.4570  -14.2270 H   0  0  0  0  0  0  0  0  0  0  0  0
   -3.8457    6.0001  -11.7931 H   0  0  0  0  0  0  0  0  0  0  0  0
   -1.7358    6.5348  -10.5901 H   0  0  0  0  0  0  0  0  0  0  0  0
    1.4373    3.7157  -11.0577 H   0  0  0  0  0  0  0  0  0  0  0  0
    3.5332    4.3218   -9.8655 H   0  0  0  0  0  0  0  0  0  0  0  0
    5.7197    5.2087   -7.1812 H   0  0  0  0  0  0  0  0  0  0  0  0
    4.9789    4.5197   -8.6655 H   0  0  0  0  0  0  0  0  0  0  0  0
    5.5837    6.2112   -8.6655 H   0  0  0  0  0  0  0  0  0  0  0  0
    4.5220    6.9919   -5.9748 H   0  0  0  0  0  0  0  0  0  0  0  0
    0.3210    7.1530   -6.4590 H   0  0  0  0  0  0  0  0  0  0  0  0
   -0.8585    6.0283   -8.2183 H   0  0  0  0  0  0  0  0  0  0  0  0
   -2.8654    1.7903  -11.6618 H   0  0  0  0  0  0  0  0  0  0  0  0
  1  2  1  0
  2  3  1  0
  3  4  1  0
  4  5  1  0
  5  6  1  0
  6  7  2  0
  6  8  1  0
  8  9  2  0
  9 10  1  0
 10 11  2  0
 11 12  1  0
 12 13  2  0
 13 14  1  0
 14 15  2  0
 15 16  1  0
 16 17  1  0
 16 18  2  0
 18 19  1  0
 19 20  2  0
 19 21  1  0
 21 22  1  0
 22 23  2  0
 11 24  1  0
 24 25  1  0
 24 26  2  0
 26  8  1  0
 23 12  1  0
 22 15  1  0
  1 27  1  0
  1 28  1  0
  1 29  1  0
  3 30  1  0
  3 31  1  0
  4 32  1  0
  4 33  1  0
  5 34  1  0
  9 35  1  0
 10 36  1  0
 13 37  1  0
 14 38  1  0
 17 39  1  0
 17 40  1  0
 17 41  1  0
 18 42  1  0
 21 43  1  0
 23 44  1  0
 26 45  1  0
M  END
>  <meeko>  (6) 
{"is_sidechain": [false], "free_energy": -9.118, "intermolecular_energy": -12.108, "internal_energy": -0.468}

$$$$
4j3l_ligand
     RDKit          3D

 45 47  0  0  0  0  0  0  0  0999 V2000
    4.4380    4.0990   -2.0270 C   0  0  0  0  0  0  0  0  0  0  0  0
    4.7130    4.7340   -3.2690 O   0  0  0  0  0  0  0  0  0  0  0  0
    3.5660    4.8320   -4.1160 C   0  0  0  0  0  0  0  0  0  0  0  0
    3.6590    5.9610   -5.1520 C   0  0  0  0  0  0  0  0  0  0  0  0
    2.6680    5.8230   -6.2070 N   0  0  0  0  0  0  0  0  0  0  0  0
    2.8510    4.9420   -7.2530 C   0  0  0  0  0  0  0  0  0  0  0  0
    3.8880    4.3200   -7.4530 O   0  0  0  0  0  0  0  0  0  0  0  0
    1.6880    4.7430   -8.1600 C   0  0  0  0  0  0  0  0  0  0  0  0
    0.7590    5.7800   -8.2860 C   0  0  0  0  0  0  0  0  0  0  0  0
   -0.3500    5.6340   -9.1250 C   0  0  0  0  0  0  0  0  0  0  0  0
   -0.5590    4.4460   -9.8480 C   0  0  0  0  0  0  0  0  0  0  0  0
   -1.7390    4.3410  -10.7170 C   0  0  0  0  0  0  0  0  0  0  0  0
   -2.3900    3.1120  -10.8970 C   0  0  0  0  0  0  0  0  0  0  0  0
   -3.5120    3.0050  -11.7290 C   0  0  0  0  0  0  0  0  0  0  0  0
   -4.0100    4.1250  -12.4040 C   0  0  0  0  0  0  0  0  0  0  0  0
   -5.1910    4.0720  -13.2950 C   0  0  0  0  0  0  0  0  0  0  0  0
   -5.9150    2.7750  -13.5070 C   0  0  0  0  0  0  0  0  0  0  0  0
   -5.5960    5.2010  -13.9030 C   0  0  0  0  0  0  0  0  0  0  0  0
   -4.9050    6.4960  -13.7130 C   0  0  0  0  0  0  0  0  0  0  0  0
   -5.3000    7.5090  -14.2810 O   0  0  0  0  0  0  0  0  0  0  0  0
   -3.8220    6.4960  -12.8830 N   0  0  0  0  0  0  0  0  0  0  0  0
   -3.3530    5.3530  -12.2230 C   0  0  0  0  0  0  0  0  0  0  0  0
   -2.2330    5.4640  -11.3930 C   0  0  0  0  0  0  0  0  0  0  0  0
    0.3760    3.4040   -9.6960 C   0  0  0  0  0  0  0  0  0  0  0  0
    0.1940    1.8930  -10.5190 Cl  0  0  0  0  0  0  0  0  0  0  0  0
    1.4890    3.5480   -8.8570 C   0  0  0  0  0  0  0  0  0  0  0  0
    4.7271    4.7666   -1.2019 H   0  0  0  0  0  0  0  0  0  0  0  0
    3.3629    3.8765   -1.9591 H   0  0  0  0  0  0  0  0  0  0  0  0
    5.0112    3.1626   -1.9591 H   0  0  0  0  0  0  0  0  0  0  0  0
    3.4470    3.8784   -4.6512 H   0  0  0  0  0  0  0  0  0  0  0  0
    2.7065    5.0598   -3.4684 H   0  0  0  0  0  0  0  0  0  0  0  0
    3.5018    6.9230   -4.6423 H   0  0  0  0  0  0  0  0  0  0  0  0
    4.6549    5.9113   -5.6164 H   0  0  0  0  0  0  0  0  0  0  0  0
    1.7290    6.1290   -5.9900 H   0  0  0  0  0  0  0  0  0  0  0  0
    0.9010    6.7143   -7.7230 H   0  0  0  0  0  0  0  0  0  0  0  0
   -1.0695    6.4605   -9.2209 H   0  0  0  0  0  0  0  0  0  0  0  0
   -2.0140    2.2185  -10.3771 H   0  0  0  0  0  0  0  0  0  0  0  0
   -4.0067    2.0304  -11.8530 H   0  0  0  0  0  0  0  0  0  0  0  0
   -6.1633    2.3301  -12.5321 H   0  0  0  0  0  0  0  0  0  0  0  0
   -6.8404    2.9598  -14.0722 H   0  0  0  0  0  0  0  0  0  0  0  0
   -5.2720    2.0843  -14.0722 H   0  0  0  0  0  0  0  0  0  0  0  0
   -6.4729    5.1606  -14.5658 H   0  0  0  0  0  0  0  0  0  0  0  0
   -3.3610    7.3870  -12.7600 H   0  0  0  0  0  0  0  0  0  0  0  0
   -1.7373    6.4383  -11.2703 H   0  0  0  0  0  0  0  0  0  0  0  0
    2.2058    2.7209   -8.7470 H   0  0  0  0  0  0  0  0  0  0  0  0
  1  2  1  0
  2  3  1  0
  3  4  1  0
  4  5  1  0
  5  6  1  0
  6  7  2  0
  6  8  1  0
  8  9  2  0
  9 10  1  0
 10 11  2  0
 11 12  1  0
 12 13  2  0
 13 14  1  0
 14 15  2  0
 15 16  1  0
 16 17  1  0
 16 18  2  0
 18 19  1  0
 19 20  2  0
 19 21  1  0
 21 22  1  0
 22 23  2  0
 11 24  1  0
 24 25  1  0
 24 26  2  0
 26  8  1  0
 23 12  1  0
 22 15  1  0
  1 27  1  0
  1 28  1  0
  1 29  1  0
  3 30  1  0
  3 31  1  0
  4 32  1  0
  4 33  1  0
  5 34  1  0
  9 35  1  0
 10 36  1  0
 13 37  1  0
 14 38  1  0
 17 39  1  0
 17 40  1  0
 17 41  1  0
 18 42  1  0
 21 43  1  0
 23 44  1  0
 26 45  1  0
M  END
>  <meeko>  (7) 
{"is_sidechain": [false], "free_energy": -9.037, "intermolecular_energy": -12.366, "internal_energy": -0.105}

$$$$
4j3l_ligand
     RDKit          3D

 45 47  0  0  0  0  0  0  0  0999 V2000
   -3.4040    9.2090  -13.8640 C   0  0  0  0  0  0  0  0  0  0  0  0
   -3.3710    8.0980  -12.9760 O   0  0  0  0  0  0  0  0  0  0  0  0
   -4.3770    7.1230  -13.2590 C   0  0  0  0  0  0  0  0  0  0  0  0
   -4.0780    5.7390  -12.6660 C   0  0  0  0  0  0  0  0  0  0  0  0
   -2.9380    5.7620  -11.7640 N   0  0  0  0  0  0  0  0  0  0  0  0
   -2.3760    4.5950  -11.2880 C   0  0  0  0  0  0  0  0  0  0  0  0
   -2.8530    3.4810  -11.4670 O   0  0  0  0  0  0  0  0  0  0  0  0
   -1.0990    4.7350  -10.5350 C   0  0  0  0  0  0  0  0  0  0  0  0
   -0.9630    5.8100   -9.6530 C   0  0  0  0  0  0  0  0  0  0  0  0
    0.2200    5.9820   -8.9290 C   0  0  0  0  0  0  0  0  0  0  0  0
    1.2950    5.0880   -9.0770 C   0  0  0  0  0  0  0  0  0  0  0  0
    2.5180    5.3100   -8.2940 C   0  0  0  0  0  0  0  0  0  0  0  0
    3.6700    5.8360   -8.8960 C   0  0  0  0  0  0  0  0  0  0  0  0
    4.8410    6.0440   -8.1540 C   0  0  0  0  0  0  0  0  0  0  0  0
    4.8890    5.7290   -6.7920 C   0  0  0  0  0  0  0  0  0  0  0  0
    6.0970    5.9260   -5.9580 C   0  0  0  0  0  0  0  0  0  0  0  0
    7.3450    6.4920   -6.5680 C   0  0  0  0  0  0  0  0  0  0  0  0
    6.0480    5.5930   -4.6570 C   0  0  0  0  0  0  0  0  0  0  0  0
    4.8310    5.0350   -4.0260 C   0  0  0  0  0  0  0  0  0  0  0  0
    4.8190    4.7410   -2.8350 O   0  0  0  0  0  0  0  0  0  0  0  0
    3.7430    4.8710   -4.8330 N   0  0  0  0  0  0  0  0  0  0  0  0
    3.7330    5.1990   -6.1940 C   0  0  0  0  0  0  0  0  0  0  0  0
    2.5630    4.9900   -6.9300 C   0  0  0  0  0  0  0  0  0  0  0  0
    1.1490    4.0210   -9.9850 C   0  0  0  0  0  0  0  0  0  0  0  0
    2.4240    2.8830  -10.2620 Cl  0  0  0  0  0  0  0  0  0  0  0  0
   -0.0350    3.8460  -10.7110 C   0  0  0  0  0  0  0  0  0  0  0  0
   -3.4317   10.1424  -13.2826 H   0  0  0  0  0  0  0  0  0  0  0  0
   -2.5051    9.1985  -14.4980 H   0  0  0  0  0  0  0  0  0  0  0  0
   -4.3006    9.1452  -14.4980 H   0  0  0  0  0  0  0  0  0  0  0  0
   -5.3321    7.4792  -12.8456 H   0  0  0  0  0  0  0  0  0  0  0  0
   -4.4116    7.0042  -14.3520 H   0  0  0  0  0  0  0  0  0  0  0  0
   -4.9622    5.3932  -12.1105 H   0  0  0  0  0  0  0  0  0  0  0  0
   -3.8367    5.0606  -13.4976 H   0  0  0  0  0  0  0  0  0  0  0  0
   -2.3800    6.6050  -11.7570 H   0  0  0  0  0  0  0  0  0  0  0  0
   -1.7904    6.5239   -9.5279 H   0  0  0  0  0  0  0  0  0  0  0  0
    0.3114    6.8291   -8.2333 H   0  0  0  0  0  0  0  0  0  0  0  0
    3.6546    6.0892   -9.9664 H   0  0  0  0  0  0  0  0  0  0  0  0
    5.7317    6.4594   -8.6481 H   0  0  0  0  0  0  0  0  0  0  0  0
    8.0342    6.8046   -5.7696 H   0  0  0  0  0  0  0  0  0  0  0  0
    7.8290    5.7253   -7.1908 H   0  0  0  0  0  0  0  0  0  0  0  0
    7.0871    7.3612   -7.1908 H   0  0  0  0  0  0  0  0  0  0  0  0
    6.9454    5.7406   -4.0382 H   0  0  0  0  0  0  0  0  0  0  0  0
    2.9180    4.4910   -4.3880 H   0  0  0  0  0  0  0  0  0  0  0  0
    1.6732    4.5723   -6.4363 H   0  0  0  0  0  0  0  0  0  0  0  0
   -0.1279    3.0096  -11.4194 H   0  0  0  0  0  0  0  0  0  0  0  0
  1  2  1  0
  2  3  1  0
  3  4  1  0
  4  5  1  0
  5  6  1  0
  6  7  2  0
  6  8  1  0
  8  9  2  0
  9 10  1  0
 10 11  2  0
 11 12  1  0
 12 13  2  0
 13 14  1  0
 14 15  2  0
 15 16  1  0
 16 17  1  0
 16 18  2  0
 18 19  1  0
 19 20  2  0
 19 21  1  0
 21 22  1  0
 22 23  2  0
 11 24  1  0
 24 25  1  0
 24 26  2  0
 26  8  1  0
 23 12  1  0
 22 15  1  0
  1 27  1  0
  1 28  1  0
  1 29  1  0
  3 30  1  0
  3 31  1  0
  4 32  1  0
  4 33  1  0
  5 34  1  0
  9 35  1  0
 10 36  1  0
 13 37  1  0
 14 38  1  0
 17 39  1  0
 17 40  1  0
 17 41  1  0
 18 42  1  0
 21 43  1  0
 23 44  1  0
 26 45  1  0
M  END
>  <meeko>  (8) 
{"is_sidechain": [false], "free_energy": -9.013, "intermolecular_energy": -11.754, "internal_energy": -0.687}

$$$$
4j3l_ligand
     RDKit          3D

 45 47  0  0  0  0  0  0  0  0999 V2000
    0.8730    2.5240  -10.5330 C   0  0  0  0  0  0  0  0  0  0  0  0
    0.2870    2.6090   -9.2410 O   0  0  0  0  0  0  0  0  0  0  0  0
   -0.8910    3.4190   -9.2110 C   0  0  0  0  0  0  0  0  0  0  0  0
   -0.7000    4.7570   -8.4830 C   0  0  0  0  0  0  0  0  0  0  0  0
    0.6820    4.9760   -8.0870 N   0  0  0  0  0  0  0  0  0  0  0  0
    1.1760    6.2480   -7.8800 C   0  0  0  0  0  0  0  0  0  0  0  0
    0.5570    7.2740   -8.1350 O   0  0  0  0  0  0  0  0  0  0  0  0
    2.5390    6.3390   -7.2890 C   0  0  0  0  0  0  0  0  0  0  0  0
    3.5430    6.9720   -8.0270 C   0  0  0  0  0  0  0  0  0  0  0  0
    4.8370    7.0760   -7.5110 C   0  0  0  0  0  0  0  0  0  0  0  0
    5.1590    6.5420   -6.2510 C   0  0  0  0  0  0  0  0  0  0  0  0
    6.5340    6.6770   -5.7510 C   0  0  0  0  0  0  0  0  0  0  0  0
    7.1160    5.6690   -4.9700 C   0  0  0  0  0  0  0  0  0  0  0  0
    8.4240    5.7960   -4.4860 C   0  0  0  0  0  0  0  0  0  0  0  0
    9.1840    6.9360   -4.7700 C   0  0  0  0  0  0  0  0  0  0  0  0
   10.5710    7.1250   -4.2860 C   0  0  0  0  0  0  0  0  0  0  0  0
   11.2260    6.0640   -3.4530 C   0  0  0  0  0  0  0  0  0  0  0  0
   11.2220    8.2560   -4.6090 C   0  0  0  0  0  0  0  0  0  0  0  0
   10.6030    9.3200   -5.4310 C   0  0  0  0  0  0  0  0  0  0  0  0
   11.2240   10.3410   -5.7090 O   0  0  0  0  0  0  0  0  0  0  0  0
    9.3240    9.1020   -5.8550 N   0  0  0  0  0  0  0  0  0  0  0  0
    8.5950    7.9450   -5.5500 C   0  0  0  0  0  0  0  0  0  0  0  0
    7.2900    7.8230   -6.0350 C   0  0  0  0  0  0  0  0  0  0  0  0
    4.1410    5.8910   -5.5280 C   0  0  0  0  0  0  0  0  0  0  0  0
    4.4420    5.1750   -3.9810 Cl  0  0  0  0  0  0  0  0  0  0  0  0
    2.8420    5.7860   -6.0410 C   0  0  0  0  0  0  0  0  0  0  0  0
    1.9572    2.3667  -10.4342 H   0  0  0  0  0  0  0  0  0  0  0  0
    0.4287    1.6809  -11.0824 H   0  0  0  0  0  0  0  0  0  0  0  0
    0.6866    3.4586  -11.0824 H   0  0  0  0  0  0  0  0  0  0  0  0
   -1.1958    3.6276  -10.2471 H   0  0  0  0  0  0  0  0  0  0  0  0
   -1.6549    2.8559   -8.6547 H   0  0  0  0  0  0  0  0  0  0  0  0
   -1.0095    5.5722   -9.1536 H   0  0  0  0  0  0  0  0  0  0  0  0
   -1.3128    4.7344   -7.5698 H   0  0  0  0  0  0  0  0  0  0  0  0
    1.1610    4.1950   -7.6600 H   0  0  0  0  0  0  0  0  0  0  0  0
    3.3133    7.3900   -9.0182 H   0  0  0  0  0  0  0  0  0  0  0  0
    5.6157    7.5833   -8.0994 H   0  0  0  0  0  0  0  0  0  0  0  0
    6.5365    4.7644   -4.7337 H   0  0  0  0  0  0  0  0  0  0  0  0
    8.8587    4.9906   -3.8758 H   0  0  0  0  0  0  0  0  0  0  0  0
   11.0835    6.2948   -2.3870 H   0  0  0  0  0  0  0  0  0  0  0  0
   10.7732    5.0877   -3.6805 H   0  0  0  0  0  0  0  0  0  0  0  0
   12.3017    6.0313   -3.6805 H   0  0  0  0  0  0  0  0  0  0  0  0
   12.2521    8.3958   -4.2494 H   0  0  0  0  0  0  0  0  0  0  0  0
    8.9150    9.8350   -6.4170 H   0  0  0  0  0  0  0  0  0  0  0  0
    6.8540    8.6299   -6.6424 H   0  0  0  0  0  0  0  0  0  0  0  0
    2.0615    5.2694   -5.4631 H   0  0  0  0  0  0  0  0  0  0  0  0
  1  2  1  0
  2  3  1  0
  3  4  1  0
  4  5  1  0
  5  6  1  0
  6  7  2  0
  6  8  1  0
  8  9  2  0
  9 10  1  0
 10 11  2  0
 11 12  1  0
 12 13  2  0
 13 14  1  0
 14 15  2  0
 15 16  1  0
 16 17  1  0
 16 18  2  0
 18 19  1  0
 19 20  2  0
 19 21  1  0
 21 22  1  0
 22 23  2  0
 11 24  1  0
 24 25  1  0
 24 26  2  0
 26  8  1  0
 23 12  1  0
 22 15  1  0
  1 27  1  0
  1 28  1  0
  1 29  1  0
  3 30  1  0
  3 31  1  0
  4 32  1  0
  4 33  1  0
  5 34  1  0
  9 35  1  0
 10 36  1  0
 13 37  1  0
 14 38  1  0
 17 39  1  0
 17 40  1  0
 17 41  1  0
 18 42  1  0
 21 43  1  0
 23 44  1  0
 26 45  1  0
M  END
>  <meeko>  (9) 
{"is_sidechain": [false], "free_energy": -8.938, "intermolecular_energy": -12.206, "internal_energy": -0.137}

$$$$
