2weg_ligand
     RDKit          3D

 17 17  0  0  0  0  0  0  0  0999 V2000
    3.5900    1.3020  -10.3030 N   0  0  0  0  0  0  0  0  0  0  0  0
    2.7600   -0.1030  -10.7210 S   0  0  0  0  0  0  0  0  0  0  0  0
    1.3940    0.2860  -10.9780 O   0  0  0  0  0  0  0  0  0  0  0  0
    3.5640   -0.7790  -11.7130 O   0  0  0  0  0  0  0  0  0  0  0  0
    2.7920   -1.0610   -9.2470 C   0  0  0  0  0  0  0  0  0  0  0  0
    3.5410   -2.2390   -9.1840 C   0  0  0  0  0  0  0  0  0  0  0  0
    3.5410   -2.9910   -8.0080 C   0  0  0  0  0  0  0  0  0  0  0  0
    2.7980   -2.5660   -6.9040 C   0  0  0  0  0  0  0  0  0  0  0  0
    2.0550   -1.3870   -6.9740 C   0  0  0  0  0  0  0  0  0  0  0  0
    2.0540   -0.6390   -8.1480 C   0  0  0  0  0  0  0  0  0  0  0  0
    1.3600    0.5060   -8.1800 F   0  0  0  0  0  0  0  0  0  0  0  0
    4.5260    1.1300   -9.9370 H   0  0  0  0  0  0  0  0  0  0  0  0
    3.0200    1.8240   -9.6330 H   0  0  0  0  0  0  0  0  0  0  0  0
    4.1260   -2.5711  -10.0543 H   0  0  0  0  0  0  0  0  0  0  0  0
    4.1272   -3.9200   -7.9505 H   0  0  0  0  0  0  0  0  0  0  0  0
    2.7987   -3.1612   -5.9789 H   0  0  0  0  0  0  0  0  0  0  0  0
    1.4720   -1.0497   -6.1043 H   0  0  0  0  0  0  0  0  0  0  0  0
  1  2  1  0
  2  3  2  0
  2  4  2  0
  2  5  1  0
  5  6  2  0
  6  7  1  0
  7  8  2  0
  8  9  1  0
  9 10  2  0
 10 11  1  0
 10  5  1  0
  1 12  1  0
  1 13  1  0
  6 14  1  0
  7 15  1  0
  8 16  1  0
  9 17  1  0
M  END
>  <meeko>  (1) 
{"is_sidechain": [false], "free_energy": -4.693, "intermolecular_energy": -5.104, "internal_energy": 0.054}

$$$$
2weg_ligand
     RDKit          3D

 17 17  0  0  0  0  0  0  0  0999 V2000
    3.2050    1.7420   -9.9710 N   0  0  0  0  0  0  0  0  0  0  0  0
    1.7630    0.9340   -9.6370 S   0  0  0  0  0  0  0  0  0  0  0  0
    1.0480    1.7470   -8.6820 O   0  0  0  0  0  0  0  0  0  0  0  0
    1.1920    0.5660  -10.9120 O   0  0  0  0  0  0  0  0  0  0  0  0
    2.2870   -0.5360   -8.8270 C   0  0  0  0  0  0  0  0  0  0  0  0
    1.8440   -0.8270   -7.5330 C   0  0  0  0  0  0  0  0  0  0  0  0
    2.2840   -1.9930   -6.9040 C   0  0  0  0  0  0  0  0  0  0  0  0
    3.1570   -2.8600   -7.5640 C   0  0  0  0  0  0  0  0  0  0  0  0
    3.5920   -2.5640   -8.8570 C   0  0  0  0  0  0  0  0  0  0  0  0
    3.1550   -1.3990   -9.4830 C   0  0  0  0  0  0  0  0  0  0  0  0
    3.5590   -1.1530  -10.7360 F   0  0  0  0  0  0  0  0  0  0  0  0
    3.6480    2.1440   -9.1460 H   0  0  0  0  0  0  0  0  0  0  0  0
    3.0160    2.4580  -10.6760 H   0  0  0  0  0  0  0  0  0  0  0  0
    1.1550   -0.1433   -7.0154 H   0  0  0  0  0  0  0  0  0  0  0  0
    1.9420   -2.2294   -5.8856 H   0  0  0  0  0  0  0  0  0  0  0  0
    3.5024   -3.7772   -7.0646 H   0  0  0  0  0  0  0  0  0  0  0  0
    4.2771   -3.2480   -9.3793 H   0  0  0  0  0  0  0  0  0  0  0  0
  1  2  1  0
  2  3  2  0
  2  4  2  0
  2  5  1  0
  5  6  2  0
  6  7  1  0
  7  8  2  0
  8  9  1  0
  9 10  2  0
 10 11  1  0
 10  5  1  0
  1 12  1  0
  1 13  1  0
  6 14  1  0
  7 15  1  0
  8 16  1  0
  9 17  1  0
M  END
>  <meeko>  (2) 
{"is_sidechain": [false], "free_energy": -4.653, "intermolecular_energy": -5.052, "internal_energy": 0.045}

$$$$
2weg_ligand
     RDKit          3D

 17 17  0  0  0  0  0  0  0  0999 V2000
    3.3640    1.3690  -10.3150 N   0  0  0  0  0  0  0  0  0  0  0  0
    1.8950    0.8610   -9.6660 S   0  0  0  0  0  0  0  0  0  0  0  0
    1.5360    1.8250   -8.6530 O   0  0  0  0  0  0  0  0  0  0  0  0
    1.0300    0.5650  -10.7840 O   0  0  0  0  0  0  0  0  0  0  0  0
    2.2930   -0.6540   -8.8670 C   0  0  0  0  0  0  0  0  0  0  0  0
    3.4060   -1.3970   -9.2730 C   0  0  0  0  0  0  0  0  0  0  0  0
    3.6960   -2.6040   -8.6340 C   0  0  0  0  0  0  0  0  0  0  0  0
    2.8800   -3.0620   -7.5970 C   0  0  0  0  0  0  0  0  0  0  0  0
    1.7730   -2.3130   -7.1960 C   0  0  0  0  0  0  0  0  0  0  0  0
    1.4840   -1.1100   -7.8350 C   0  0  0  0  0  0  0  0  0  0  0  0
    0.4350   -0.3930   -7.4110 F   0  0  0  0  0  0  0  0  0  0  0  0
    3.2640    1.9980  -11.1110 H   0  0  0  0  0  0  0  0  0  0  0  0
    3.9090    0.5400  -10.5650 H   0  0  0  0  0  0  0  0  0  0  0  0
    4.0477   -1.0335  -10.0891 H   0  0  0  0  0  0  0  0  0  0  0  0
    4.5688   -3.1954   -8.9478 H   0  0  0  0  0  0  0  0  0  0  0  0
    3.1102   -4.0139   -7.0960 H   0  0  0  0  0  0  0  0  0  0  0  0
    1.1309   -2.6716   -6.3780 H   0  0  0  0  0  0  0  0  0  0  0  0
  1  2  1  0
  2  3  2  0
  2  4  2  0
  2  5  1  0
  5  6  2  0
  6  7  1  0
  7  8  2  0
  8  9  1  0
  9 10  2  0
 10 11  1  0
 10  5  1  0
  1 12  1  0
  1 13  1  0
  6 14  1  0
  7 15  1  0
  8 16  1  0
  9 17  1  0
M  END
>  <meeko>  (3) 
{"is_sidechain": [false], "free_energy": -4.651, "intermolecular_energy": -5.086, "internal_energy": 0.081}

$$$$
2weg_ligand
     RDKit          3D

 17 17  0  0  0  0  0  0  0  0999 V2000
   -0.1680   -1.4480   -7.5050 N   0  0  0  0  0  0  0  0  0  0  0  0
    1.5060   -1.3320   -7.6570 S   0  0  0  0  0  0  0  0  0  0  0  0
    1.8950   -0.1040   -7.0050 O   0  0  0  0  0  0  0  0  0  0  0  0
    2.0460   -2.6130   -7.2640 O   0  0  0  0  0  0  0  0  0  0  0  0
    1.7550   -1.1400   -9.3870 C   0  0  0  0  0  0  0  0  0  0  0  0
    0.6890   -0.7920  -10.2210 C   0  0  0  0  0  0  0  0  0  0  0  0
    0.9060   -0.6590  -11.5940 C   0  0  0  0  0  0  0  0  0  0  0  0
    2.1810   -0.8710  -12.1260 C   0  0  0  0  0  0  0  0  0  0  0  0
    3.2400   -1.2150  -11.2860 C   0  0  0  0  0  0  0  0  0  0  0  0
    3.0220   -1.3490   -9.9170 C   0  0  0  0  0  0  0  0  0  0  0  0
    4.0610   -1.6480   -9.1260 F   0  0  0  0  0  0  0  0  0  0  0  0
   -0.5210   -2.4010   -7.5880 H   0  0  0  0  0  0  0  0  0  0  0  0
   -0.5970   -0.8330   -8.2000 H   0  0  0  0  0  0  0  0  0  0  0  0
   -0.3130   -0.6242   -9.7993 H   0  0  0  0  0  0  0  0  0  0  0  0
    0.0722   -0.3870  -12.2579 H   0  0  0  0  0  0  0  0  0  0  0  0
    2.3494   -0.7665  -13.2080 H   0  0  0  0  0  0  0  0  0  0  0  0
    4.2442   -1.3799  -11.7035 H   0  0  0  0  0  0  0  0  0  0  0  0
  1  2  1  0
  2  3  2  0
  2  4  2  0
  2  5  1  0
  5  6  2  0
  6  7  1  0
  7  8  2  0
  8  9  1  0
  9 10  2  0
 10 11  1  0
 10  5  1  0
  1 12  1  0
  1 13  1  0
  6 14  1  0
  7 15  1  0
  8 16  1  0
  9 17  1  0
M  END
>  <meeko>  (4) 
{"is_sidechain": [false], "free_energy": -4.432, "intermolecular_energy": -4.747, "internal_energy": -0.02}

$$$$
2weg_ligand
     RDKit          3D

 17 17  0  0  0  0  0  0  0  0999 V2000
    2.8510   -0.9150   -6.2770 N   0  0  0  0  0  0  0  0  0  0  0  0
    2.3880   -1.9280   -7.5410 S   0  0  0  0  0  0  0  0  0  0  0  0
    3.4070   -2.9460   -7.6470 O   0  0  0  0  0  0  0  0  0  0  0  0
    0.9980   -2.2530   -7.3220 O   0  0  0  0  0  0  0  0  0  0  0  0
    2.4920   -0.8970   -8.9610 C   0  0  0  0  0  0  0  0  0  0  0  0
    3.3210   -1.2460  -10.0310 C   0  0  0  0  0  0  0  0  0  0  0  0
    3.3990   -0.4050  -11.1430 C   0  0  0  0  0  0  0  0  0  0  0  0
    2.6510    0.7740  -11.1840 C   0  0  0  0  0  0  0  0  0  0  0  0
    1.8220    1.1140  -10.1130 C   0  0  0  0  0  0  0  0  0  0  0  0
    1.7470    0.2750   -9.0040 C   0  0  0  0  0  0  0  0  0  0  0  0
    0.9210    0.6050   -8.0030 F   0  0  0  0  0  0  0  0  0  0  0  0
    2.0780   -0.6300   -5.6780 H   0  0  0  0  0  0  0  0  0  0  0  0
    3.3300   -0.1030   -6.6750 H   0  0  0  0  0  0  0  0  0  0  0  0
    3.9074   -2.1760   -9.9973 H   0  0  0  0  0  0  0  0  0  0  0  0
    4.0506   -0.6714  -11.9882 H   0  0  0  0  0  0  0  0  0  0  0  0
    2.7151    1.4352  -12.0608 H   0  0  0  0  0  0  0  0  0  0  0  0
    1.2305    2.0409  -10.1452 H   0  0  0  0  0  0  0  0  0  0  0  0
  1  2  1  0
  2  3  2  0
  2  4  2  0
  2  5  1  0
  5  6  2  0
  6  7  1  0
  7  8  2  0
  8  9  1  0
  9 10  2  0
 10 11  1  0
 10  5  1  0
  1 12  1  0
  1 13  1  0
  6 14  1  0
  7 15  1  0
  8 16  1  0
  9 17  1  0
M  END
>  <meeko>  (5) 
{"is_sidechain": [false], "free_energy": -4.416, "intermolecular_energy": -4.794, "internal_energy": 0.045}

$$$$
2weg_ligand
     RDKit          3D

 17 17  0  0  0  0  0  0  0  0999 V2000
    3.8380    0.5520  -11.4940 N   0  0  0  0  0  0  0  0  0  0  0  0
    2.2950   -0.0520  -11.1900 S   0  0  0  0  0  0  0  0  0  0  0  0
    1.4150    1.0900  -11.1040 O   0  0  0  0  0  0  0  0  0  0  0  0
    2.0750   -1.1200  -12.1360 O   0  0  0  0  0  0  0  0  0  0  0  0
    2.4330   -0.7610   -9.5870 C   0  0  0  0  0  0  0  0  0  0  0  0
    1.8180   -0.1540   -8.4880 C   0  0  0  0  0  0  0  0  0  0  0  0
    1.9530   -0.7270   -7.2220 C   0  0  0  0  0  0  0  0  0  0  0  0
    2.6960   -1.8980   -7.0580 C   0  0  0  0  0  0  0  0  0  0  0  0
    3.3050   -2.5000   -8.1600 C   0  0  0  0  0  0  0  0  0  0  0  0
    3.1710   -1.9260   -9.4220 C   0  0  0  0  0  0  0  0  0  0  0  0
    3.7370   -2.5400  -10.4700 F   0  0  0  0  0  0  0  0  0  0  0  0
    3.8610    1.5600  -11.6430 H   0  0  0  0  0  0  0  0  0  0  0  0
    4.2270    0.0510  -12.2960 H   0  0  0  0  0  0  0  0  0  0  0  0
    1.2324    0.7678   -8.6197 H   0  0  0  0  0  0  0  0  0  0  0  0
    1.4731   -0.2551   -6.3519 H   0  0  0  0  0  0  0  0  0  0  0  0
    2.8014   -2.3464   -6.0591 H   0  0  0  0  0  0  0  0  0  0  0  0
    3.8883   -3.4238   -8.0325 H   0  0  0  0  0  0  0  0  0  0  0  0
  1  2  1  0
  2  3  2  0
  2  4  2  0
  2  5  1  0
  5  6  2  0
  6  7  1  0
  7  8  2  0
  8  9  1  0
  9 10  2  0
 10 11  1  0
 10  5  1  0
  1 12  1  0
  1 13  1  0
  6 14  1  0
  7 15  1  0
  8 16  1  0
  9 17  1  0
M  END
>  <meeko>  (6) 
{"is_sidechain": [false], "free_energy": -4.357, "intermolecular_energy": -4.775, "internal_energy": 0.089}

$$$$
2weg_ligand
     RDKit          3D

 17 17  0  0  0  0  0  0  0  0999 V2000
   -0.1330   -1.6220   -7.5270 N   0  0  0  0  0  0  0  0  0  0  0  0
    1.3480   -0.8330   -7.6800 S   0  0  0  0  0  0  0  0  0  0  0  0
    1.0880    0.5730   -7.4800 O   0  0  0  0  0  0  0  0  0  0  0  0
    2.2910   -1.5620   -6.8640 O   0  0  0  0  0  0  0  0  0  0  0  0
    1.7790   -1.0780   -9.3670 C   0  0  0  0  0  0  0  0  0  0  0  0
    3.0030   -1.6620   -9.7070 C   0  0  0  0  0  0  0  0  0  0  0  0
    3.3310   -1.8340  -11.0530 C   0  0  0  0  0  0  0  0  0  0  0  0
    2.4400   -1.4280  -12.0490 C   0  0  0  0  0  0  0  0  0  0  0  0
    1.2190   -0.8490  -11.7010 C   0  0  0  0  0  0  0  0  0  0  0  0
    0.8940   -0.6750  -10.3580 C   0  0  0  0  0  0  0  0  0  0  0  0
   -0.2980   -0.1470  -10.0480 F   0  0  0  0  0  0  0  0  0  0  0  0
   -0.6010   -1.4450   -6.6380 H   0  0  0  0  0  0  0  0  0  0  0  0
    0.0200   -2.6230   -7.6720 H   0  0  0  0  0  0  0  0  0  0  0  0
    3.7017   -1.9833   -8.9205 H   0  0  0  0  0  0  0  0  0  0  0  0
    4.2930   -2.2901  -11.3297 H   0  0  0  0  0  0  0  0  0  0  0  0
    2.7010   -1.5648  -13.1088 H   0  0  0  0  0  0  0  0  0  0  0  0
    0.5156   -0.5311  -12.4847 H   0  0  0  0  0  0  0  0  0  0  0  0
  1  2  1  0
  2  3  2  0
  2  4  2  0
  2  5  1  0
  5  6  2  0
  6  7  1  0
  7  8  2  0
  8  9  1  0
  9 10  2  0
 10 11  1  0
 10  5  1  0
  1 12  1  0
  1 13  1  0
  6 14  1  0
  7 15  1  0
  8 16  1  0
  9 17  1  0
M  END
>  <meeko>  (7) 
{"is_sidechain": [false], "free_energy": -4.318, "intermolecular_energy": -4.708, "internal_energy": 0.065}

$$$$
2weg_ligand
     RDKit          3D

 17 17  0  0  0  0  0  0  0  0999 V2000
    1.2920   -1.0780  -11.7250 N   0  0  0  0  0  0  0  0  0  0  0  0
    2.0460    0.0230  -10.6960 S   0  0  0  0  0  0  0  0  0  0  0  0
    3.2870    0.3980  -11.3320 O   0  0  0  0  0  0  0  0  0  0  0  0
    1.0460    0.9990  -10.3310 O   0  0  0  0  0  0  0  0  0  0  0  0
    2.4250   -0.9320   -9.2690 C   0  0  0  0  0  0  0  0  0  0  0  0
    1.9170   -0.5680   -8.0190 C   0  0  0  0  0  0  0  0  0  0  0  0
    2.2420   -1.3320   -6.8960 C   0  0  0  0  0  0  0  0  0  0  0  0
    3.0670   -2.4520   -7.0260 C   0  0  0  0  0  0  0  0  0  0  0  0
    3.5680   -2.8100   -8.2780 C   0  0  0  0  0  0  0  0  0  0  0  0
    3.2440   -2.0460   -9.3960 C   0  0  0  0  0  0  0  0  0  0  0  0
    3.7100   -2.4280  -10.5930 F   0  0  0  0  0  0  0  0  0  0  0  0
    0.5890   -0.6560  -12.3310 H   0  0  0  0  0  0  0  0  0  0  0  0
    0.8890   -1.8260  -11.1550 H   0  0  0  0  0  0  0  0  0  0  0  0
    1.2663    0.3134   -7.9204 H   0  0  0  0  0  0  0  0  0  0  0  0
    1.8480   -1.0516   -5.9080 H   0  0  0  0  0  0  0  0  0  0  0  0
    3.3219   -3.0523   -6.1402 H   0  0  0  0  0  0  0  0  0  0  0  0
    4.2165   -3.6925   -8.3814 H   0  0  0  0  0  0  0  0  0  0  0  0
  1  2  1  0
  2  3  2  0
  2  4  2  0
  2  5  1  0
  5  6  2  0
  6  7  1  0
  7  8  2  0
  8  9  1  0
  9 10  2  0
 10 11  1  0
 10  5  1  0
  1 12  1  0
  1 13  1  0
  6 14  1  0
  7 15  1  0
  8 16  1  0
  9 17  1  0
M  END
>  <meeko>  (8) 
{"is_sidechain": [false], "free_energy": -4.313, "intermolecular_energy": -4.683, "internal_energy": 0.046}

$$$$
2weg_ligand
     RDKit          3D

 17 17  0  0  0  0  0  0  0  0999 V2000
    2.6650   -0.6520   -6.5430 N   0  0  0  0  0  0  0  0  0  0  0  0
    1.4040   -0.2520   -7.5870 S   0  0  0  0  0  0  0  0  0  0  0  0
    0.4510   -1.3340   -7.5150 O   0  0  0  0  0  0  0  0  0  0  0  0
    1.0390    1.1140   -7.2890 O   0  0  0  0  0  0  0  0  0  0  0  0
    2.1530   -0.2830   -9.1770 C   0  0  0  0  0  0  0  0  0  0  0  0
    2.0870    0.8360  -10.0130 C   0  0  0  0  0  0  0  0  0  0  0  0
    2.6770    0.7840  -11.2780 C   0  0  0  0  0  0  0  0  0  0  0  0
    3.3290   -0.3760  -11.7010 C   0  0  0  0  0  0  0  0  0  0  0  0
    3.3930   -1.4880  -10.8590 C   0  0  0  0  0  0  0  0  0  0  0  0
    2.8030   -1.4360   -9.5990 C   0  0  0  0  0  0  0  0  0  0  0  0
    2.9060   -2.5030   -8.7960 F   0  0  0  0  0  0  0  0  0  0  0  0
    3.0090    0.1370   -5.9970 H   0  0  0  0  0  0  0  0  0  0  0  0
    3.4150   -1.0760   -7.0940 H   0  0  0  0  0  0  0  0  0  0  0  0
    1.5747    1.7497   -9.6772 H   0  0  0  0  0  0  0  0  0  0  0  0
    2.6279    1.6591  -11.9427 H   0  0  0  0  0  0  0  0  0  0  0  0
    3.7924   -0.4138  -12.6979 H   0  0  0  0  0  0  0  0  0  0  0  0
    3.9078   -2.4020  -11.1900 H   0  0  0  0  0  0  0  0  0  0  0  0
  1  2  1  0
  2  3  2  0
  2  4  2  0
  2  5  1  0
  5  6  2  0
  6  7  1  0
  7  8  2  0
  8  9  1  0
  9 10  2  0
 10 11  1  0
 10  5  1  0
  1 12  1  0
  1 13  1  0
  6 14  1  0
  7 15  1  0
  8 16  1  0
  9 17  1  0
M  END
>  <meeko>  (9) 
{"is_sidechain": [false], "free_energy": -4.244, "intermolecular_energy": -4.628, "internal_energy": 0.065}

$$$$
