
     RDKit          3D

 31 34  0  0  0  0  0  0  0  0999 V2000
   -6.9570    6.9400    3.8250 C   0  0  0  0  0  0  0  0  0  0  0  0
   -5.5400    7.1740    4.3360 C   0  0  0  0  0  0  0  0  0  0  0  0
   -5.1840    7.2310    5.5910 N   0  0  0  0  0  0  0  0  0  0  0  0
   -3.8670    7.4380    5.8190 C   0  0  0  0  0  0  0  0  0  0  0  0
   -3.2660    7.5120    7.1730 C   0  0  0  0  0  0  0  0  0  0  0  0
   -3.1450    7.6130    4.6150 C   0  0  0  0  0  0  0  0  0  0  0  0
   -1.7020    7.8790    4.4640 C   0  0  0  0  0  0  0  0  0  0  0  0
   -1.2830    7.9710    3.0680 N   0  0  0  0  0  0  0  0  0  0  0  0
   -1.4290    9.1450    2.3680 C   0  0  0  0  0  0  0  0  0  0  0  0
   -1.9740   10.2220    2.9670 N   0  0  0  0  0  0  0  0  0  0  0  0
   -2.1340   11.3650    2.2630 C   0  0  0  0  0  0  0  0  0  0  0  0
   -2.6830   12.4480    2.8620 O   0  0  0  0  0  0  0  0  0  0  0  0
   -2.7870   12.5450    4.2480 C   0  0  0  0  0  0  0  0  0  0  0  0
   -3.5360   13.8120    4.6080 C   0  0  0  0  0  0  0  0  0  0  0  0
   -2.9170   15.0720    4.0800 C   0  0  0  0  0  0  0  0  0  0  0  0
   -3.6650   16.2650    4.5310 C   0  0  0  0  0  0  0  0  0  0  0  0
   -3.3710   16.8490    5.7500 C   0  0  0  0  0  0  0  0  0  0  0  0
   -4.1060   17.9520    6.1890 C   0  0  0  0  0  0  0  0  0  0  0  0
   -5.1500   18.4420    5.3880 C   0  0  0  0  0  0  0  0  0  0  0  0
   -5.9540   19.5270    5.7980 C   0  0  0  0  0  0  0  0  0  0  0  0
   -6.9810   19.9840    4.9920 C   0  0  0  0  0  0  0  0  0  0  0  0
   -7.2420   19.3630    3.7550 C   0  0  0  0  0  0  0  0  0  0  0  0
   -6.4710   18.2900    3.3280 C   0  0  0  0  0  0  0  0  0  0  0  0
   -5.4080   17.8070    4.1520 C   0  0  0  0  0  0  0  0  0  0  0  0
   -4.6590   16.7290    3.7410 N   0  0  0  0  0  0  0  0  0  0  0  0
   -1.7950   11.5050    0.9840 N   0  0  0  0  0  0  0  0  0  0  0  0
   -1.2430   10.4610    0.3550 C   0  0  0  0  0  0  0  0  0  0  0  0
   -0.8280   10.6980   -1.2780 Cl  0  0  0  0  0  0  0  0  0  0  0  0
   -1.0380    9.2450    1.0160 C   0  0  0  0  0  0  0  0  0  0  0  0
   -0.4260    8.0700    0.2850 C   0  0  0  0  0  0  0  0  0  0  0  0
   -4.2170    7.4310    3.2750 S   0  0  0  0  0  0  0  0  0  0  0  0
  2  1  1  0
  3  2  2  0
  4  3  1  0
  5  4  1  0
  6  4  2  0
  7  6  1  0
  8  7  1  0
  9  8  1  0
 10  9  2  0
 11 10  1  0
 12 11  1  0
 13 12  1  0
 14 13  1  0
 15 14  1  0
 16 15  1  0
 17 16  2  0
 18 17  1  0
 19 18  2  0
 20 19  1  0
 21 20  2  0
 22 21  1  0
 23 22  2  0
 24 23  1  0
 24 19  1  0
 25 16  1  0
 25 24  2  0
 26 11  2  0
 27 26  1  0
 28 27  1  0
 29 27  2  0
 29  9  1  0
 30 29  1  0
 31  2  1  0
 31  6  1  0
M  END
$$$$
