4hge_ligand
     RDKit          3D

 38 41  0  0  0  0  0  0  0  0999 V2000
    0.9000   -1.0380    9.3020 C   0  0  0  0  0  0  0  0  0  0  0  0
    0.5030    0.3880    9.2170 C   0  0  0  0  0  0  0  0  0  0  0  0
   -0.5120    1.0500    9.9350 C   0  0  0  0  0  0  0  0  0  0  0  0
   -0.5530    2.3250    9.4110 C   0  0  0  0  0  0  0  0  0  0  0  0
   -1.5420    3.2670    9.6600 N   0  0  0  0  0  0  0  0  0  0  0  0
   -1.4590    4.1900   10.6900 C   0  0  0  0  0  0  0  0  0  0  0  0
   -0.5720    4.2330   11.5350 O   0  0  0  0  0  0  0  0  0  0  0  0
   -2.5250    5.1760   10.6850 C   0  0  0  0  0  0  0  0  0  0  0  0
   -3.7580    5.1000   11.3630 C   0  0  0  0  0  0  0  0  0  0  0  0
   -4.5370    6.1650   11.1630 N   0  0  0  0  0  0  0  0  0  0  0  0
   -3.8100    6.9610   10.3460 N   0  0  0  0  0  0  0  0  0  0  0  0
   -4.1690    8.2030    9.8310 C   0  0  0  0  0  0  0  0  0  0  0  0
   -3.3270    8.8740    9.0330 C   0  0  0  0  0  0  0  0  0  0  0  0
   -2.0300    8.1950    8.7690 C   0  0  0  0  0  0  0  0  0  0  0  0
   -1.6560    7.0370    9.2300 N   0  0  0  0  0  0  0  0  0  0  0  0
   -2.5680    6.3960   10.0350 C   0  0  0  0  0  0  0  0  0  0  0  0
    0.5850    2.4380    8.6050 N   0  0  0  0  0  0  0  0  0  0  0  0
    1.3310    3.5890    8.2090 C   0  0  0  0  0  0  0  0  0  0  0  0
    2.6690    3.7140    8.6210 C   0  0  0  0  0  0  0  0  0  0  0  0
    3.4150    4.8400    8.2670 C   0  0  0  0  0  0  0  0  0  0  0  0
    2.8280    5.8560    7.5160 C   0  0  0  0  0  0  0  0  0  0  0  0
    1.4930    5.7460    7.1290 C   0  0  0  0  0  0  0  0  0  0  0  0
    0.7610    7.0150    6.2240 Cl  0  0  0  0  0  0  0  0  0  0  0  0
    0.7380    4.6260    7.4790 C   0  0  0  0  0  0  0  0  0  0  0  0
    1.1100    1.2010    8.3520 N   0  0  0  0  0  0  0  0  0  0  0  0
    0.9822   -1.3334   10.3584 H   0  0  0  0  0  0  0  0  0  0  0  0
    0.1409   -1.6602    8.8053 H   0  0  0  0  0  0  0  0  0  0  0  0
    1.8714   -1.1784    8.8053 H   0  0  0  0  0  0  0  0  0  0  0  0
   -1.1376    0.6384   10.7407 H   0  0  0  0  0  0  0  0  0  0  0  0
   -2.1610    3.5220    8.8910 H   0  0  0  0  0  0  0  0  0  0  0  0
   -4.0494    4.2476   11.9943 H   0  0  0  0  0  0  0  0  0  0  0  0
   -5.1489    8.6362   10.0802 H   0  0  0  0  0  0  0  0  0  0  0  0
   -3.5768    9.8557    8.6043 H   0  0  0  0  0  0  0  0  0  0  0  0
   -1.3166    8.7240    8.1200 H   0  0  0  0  0  0  0  0  0  0  0  0
    3.1312    2.9200    9.2259 H   0  0  0  0  0  0  0  0  0  0  0  0
    4.4658    4.9248    8.5810 H   0  0  0  0  0  0  0  0  0  0  0  0
    3.4151    6.7410    7.2296 H   0  0  0  0  0  0  0  0  0  0  0  0
   -0.3191    4.5581    7.1825 H   0  0  0  0  0  0  0  0  0  0  0  0
  1  2  1  0
  2  3  1  0
  3  4  2  0
  4  5  1  0
  5  6  1  0
  6  7  2  0
  6  8  1  0
  8  9  1  0
  9 10  2  0
 10 11  1  0
 11 12  1  0
 12 13  2  0
 13 14  1  0
 14 15  2  0
 15 16  1  0
  4 17  1  0
 17 18  1  0
 18 19  2  0
 19 20  1  0
 20 21  2  0
 21 22  1  0
 22 23  1  0
 22 24  2  0
 17 25  1  0
 25  2  2  0
 16  8  2  0
 24 18  1  0
 16 11  1  0
  1 26  1  0
  1 27  1  0
  1 28  1  0
  3 29  1  0
  5 30  1  0
  9 31  1  0
 12 32  1  0
 13 33  1  0
 14 34  1  0
 19 35  1  0
 20 36  1  0
 21 37  1  0
 24 38  1  0
M  END
>  <meeko>  (1) 
{"is_sidechain": [false], "free_energy": -8.839, "intermolecular_energy": -10.389, "internal_energy": -1.08}

$$$$
4hge_ligand
     RDKit          3D

 38 41  0  0  0  0  0  0  0  0999 V2000
   -3.4660    8.9720    8.6580 C   0  0  0  0  0  0  0  0  0  0  0  0
   -2.8570    7.7080    9.1350 C   0  0  0  0  0  0  0  0  0  0  0  0
   -1.4960    7.4370    9.3760 C   0  0  0  0  0  0  0  0  0  0  0  0
   -1.4440    6.0970    9.6920 C   0  0  0  0  0  0  0  0  0  0  0  0
   -0.2860    5.3370    9.7950 N   0  0  0  0  0  0  0  0  0  0  0  0
    0.3240    4.7430    8.7020 C   0  0  0  0  0  0  0  0  0  0  0  0
   -0.1160    4.7400    7.5580 O   0  0  0  0  0  0  0  0  0  0  0  0
    1.5990    4.1190    9.0050 C   0  0  0  0  0  0  0  0  0  0  0  0
    2.8440    4.3880    8.4010 C   0  0  0  0  0  0  0  0  0  0  0  0
    3.8400    3.6490    8.8940 N   0  0  0  0  0  0  0  0  0  0  0  0
    3.2510    2.8830    9.8400 N   0  0  0  0  0  0  0  0  0  0  0  0
    3.8530    1.9300   10.6560 C   0  0  0  0  0  0  0  0  0  0  0  0
    3.1260    1.2540   11.5560 C   0  0  0  0  0  0  0  0  0  0  0  0
    1.6810    1.6090   11.5980 C   0  0  0  0  0  0  0  0  0  0  0  0
    1.0800    2.4910   10.8540 N   0  0  0  0  0  0  0  0  0  0  0  0
    1.8800    3.1450    9.9450 C   0  0  0  0  0  0  0  0  0  0  0  0
   -2.7740    5.6990    9.8730 N   0  0  0  0  0  0  0  0  0  0  0  0
   -3.3270    4.6340   10.6450 C   0  0  0  0  0  0  0  0  0  0  0  0
   -3.1310    3.3080   10.2240 C   0  0  0  0  0  0  0  0  0  0  0  0
   -3.6800    2.2480   10.9490 C   0  0  0  0  0  0  0  0  0  0  0  0
   -4.4410    2.5030   12.0880 C   0  0  0  0  0  0  0  0  0  0  0  0
   -4.6580    3.8200   12.4920 C   0  0  0  0  0  0  0  0  0  0  0  0
   -5.6220    4.1350   13.8840 Cl  0  0  0  0  0  0  0  0  0  0  0  0
   -4.1160    4.8860   11.7740 C   0  0  0  0  0  0  0  0  0  0  0  0
   -3.6210    6.6360    9.3510 N   0  0  0  0  0  0  0  0  0  0  0  0
   -3.7616    9.5855    9.5219 H   0  0  0  0  0  0  0  0  0  0  0  0
   -2.7351    9.5242    8.0490 H   0  0  0  0  0  0  0  0  0  0  0  0
   -4.3534    8.7445    8.0490 H   0  0  0  0  0  0  0  0  0  0  0  0
   -0.6548    8.1438    9.3232 H   0  0  0  0  0  0  0  0  0  0  0  0
    0.3180    5.4980   10.6010 H   0  0  0  0  0  0  0  0  0  0  0  0
    2.9809    5.1326    7.6030 H   0  0  0  0  0  0  0  0  0  0  0  0
    4.9307    1.7307   10.5618 H   0  0  0  0  0  0  0  0  0  0  0  0
    3.5653    0.4917   12.2162 H   0  0  0  0  0  0  0  0  0  0  0  0
    1.0599    1.0726   12.3305 H   0  0  0  0  0  0  0  0  0  0  0  0
   -2.5417    3.1035    9.3180 H   0  0  0  0  0  0  0  0  0  0  0  0
   -3.5116    1.2117   10.6208 H   0  0  0  0  0  0  0  0  0  0  0  0
   -4.8683    1.6700   12.6654 H   0  0  0  0  0  0  0  0  0  0  0  0
   -4.3077    5.9210   12.0936 H   0  0  0  0  0  0  0  0  0  0  0  0
  1  2  1  0
  2  3  1  0
  3  4  2  0
  4  5  1  0
  5  6  1  0
  6  7  2  0
  6  8  1  0
  8  9  1  0
  9 10  2  0
 10 11  1  0
 11 12  1  0
 12 13  2  0
 13 14  1  0
 14 15  2  0
 15 16  1  0
  4 17  1  0
 17 18  1  0
 18 19  2  0
 19 20  1  0
 20 21  2  0
 21 22  1  0
 22 23  1  0
 22 24  2  0
 17 25  1  0
 25  2  2  0
 16  8  2  0
 24 18  1  0
 16 11  1  0
  1 26  1  0
  1 27  1  0
  1 28  1  0
  3 29  1  0
  5 30  1  0
  9 31  1  0
 12 32  1  0
 13 33  1  0
 14 34  1  0
 19 35  1  0
 20 36  1  0
 21 37  1  0
 24 38  1  0
M  END
>  <meeko>  (2) 
{"is_sidechain": [false], "free_energy": -8.462, "intermolecular_energy": -9.951, "internal_energy": -1.074}

$$$$
4hge_ligand
     RDKit          3D

 38 41  0  0  0  0  0  0  0  0999 V2000
   -5.7210    2.2040   12.7330 C   0  0  0  0  0  0  0  0  0  0  0  0
   -4.5550    2.9170   12.1590 C   0  0  0  0  0  0  0  0  0  0  0  0
   -3.3530    2.3660   11.6760 C   0  0  0  0  0  0  0  0  0  0  0  0
   -2.5590    3.4480   11.3620 C   0  0  0  0  0  0  0  0  0  0  0  0
   -1.2060    3.3930   11.0530 N   0  0  0  0  0  0  0  0  0  0  0  0
   -0.7300    2.9210    9.8400 C   0  0  0  0  0  0  0  0  0  0  0  0
   -1.4160    2.4290    8.9510 O   0  0  0  0  0  0  0  0  0  0  0  0
    0.7020    3.0850    9.6640 C   0  0  0  0  0  0  0  0  0  0  0  0
    1.7240    2.2910   10.2200 C   0  0  0  0  0  0  0  0  0  0  0  0
    2.9500    2.6920    9.8770 N   0  0  0  0  0  0  0  0  0  0  0  0
    2.7390    3.7640    9.0790 N   0  0  0  0  0  0  0  0  0  0  0  0
    3.6950    4.5580    8.4540 C   0  0  0  0  0  0  0  0  0  0  0  0
    3.3200    5.5900    7.6850 C   0  0  0  0  0  0  0  0  0  0  0  0
    1.8500    5.7900    7.5680 C   0  0  0  0  0  0  0  0  0  0  0  0
    0.9250    5.0730    8.1350 N   0  0  0  0  0  0  0  0  0  0  0  0
    1.3750    4.0350    8.9180 C   0  0  0  0  0  0  0  0  0  0  0  0
   -3.4000    4.5650   11.4270 N   0  0  0  0  0  0  0  0  0  0  0  0
   -3.3140    5.8300   10.7730 C   0  0  0  0  0  0  0  0  0  0  0  0
   -4.4690    6.6230   10.6570 C   0  0  0  0  0  0  0  0  0  0  0  0
   -4.4190    7.8550   10.0030 C   0  0  0  0  0  0  0  0  0  0  0  0
   -3.2210    8.2980    9.4440 C   0  0  0  0  0  0  0  0  0  0  0  0
   -2.0810    7.5010    9.5350 C   0  0  0  0  0  0  0  0  0  0  0  0
   -0.6090    8.0380    8.8210 Cl  0  0  0  0  0  0  0  0  0  0  0  0
   -2.1210    6.2670   10.1850 C   0  0  0  0  0  0  0  0  0  0  0  0
   -4.5530    4.2490   12.0900 N   0  0  0  0  0  0  0  0  0  0  0  0
   -5.6668    2.2371   13.8312 H   0  0  0  0  0  0  0  0  0  0  0  0
   -6.6493    2.6891   12.3969 H   0  0  0  0  0  0  0  0  0  0  0  0
   -5.7122    1.1566   12.3969 H   0  0  0  0  0  0  0  0  0  0  0  0
   -3.1013    1.3003   11.5716 H   0  0  0  0  0  0  0  0  0  0  0  0
   -0.5760    4.0150   11.5590 H   0  0  0  0  0  0  0  0  0  0  0  0
    1.5309    1.4264   10.8721 H   0  0  0  0  0  0  0  0  0  0  0  0
    4.7640    4.3380    8.5915 H   0  0  0  0  0  0  0  0  0  0  0  0
    4.0462    6.2418    7.1773 H   0  0  0  0  0  0  0  0  0  0  0  0
    1.5124    6.6273    6.9396 H   0  0  0  0  0  0  0  0  0  0  0  0
   -5.4190    6.2700   11.0847 H   0  0  0  0  0  0  0  0  0  0  0  0
   -5.3240    8.4759    9.9287 H   0  0  0  0  0  0  0  0  0  0  0  0
   -3.1757    9.2715    8.9338 H   0  0  0  0  0  0  0  0  0  0  0  0
   -1.2186    5.6399   10.2352 H   0  0  0  0  0  0  0  0  0  0  0  0
  1  2  1  0
  2  3  1  0
  3  4  2  0
  4  5  1  0
  5  6  1  0
  6  7  2  0
  6  8  1  0
  8  9  1  0
  9 10  2  0
 10 11  1  0
 11 12  1  0
 12 13  2  0
 13 14  1  0
 14 15  2  0
 15 16  1  0
  4 17  1  0
 17 18  1  0
 18 19  2  0
 19 20  1  0
 20 21  2  0
 21 22  1  0
 22 23  1  0
 22 24  2  0
 17 25  1  0
 25  2  2  0
 16  8  2  0
 24 18  1  0
 16 11  1  0
  1 26  1  0
  1 27  1  0
  1 28  1  0
  3 29  1  0
  5 30  1  0
  9 31  1  0
 12 32  1  0
 13 33  1  0
 14 34  1  0
 19 35  1  0
 20 36  1  0
 21 37  1  0
 24 38  1  0
M  END
>  <meeko>  (3) 
{"is_sidechain": [false], "free_energy": -8.433, "intermolecular_energy": -10.25, "internal_energy": -0.742}

$$$$
4hge_ligand
     RDKit          3D

 38 41  0  0  0  0  0  0  0  0999 V2000
   -0.2360   -1.3190    9.4920 C   0  0  0  0  0  0  0  0  0  0  0  0
    0.2070    0.0840    9.6640 C   0  0  0  0  0  0  0  0  0  0  0  0
   -0.5890    1.2280    9.8640 C   0  0  0  0  0  0  0  0  0  0  0  0
    0.2900    2.2890    9.8480 C   0  0  0  0  0  0  0  0  0  0  0  0
   -0.0650    3.6300    9.7910 N   0  0  0  0  0  0  0  0  0  0  0  0
    0.2460    4.4460    8.7150 C   0  0  0  0  0  0  0  0  0  0  0  0
    0.9270    4.1190    7.7500 O   0  0  0  0  0  0  0  0  0  0  0  0
   -0.3430    5.7710    8.7910 C   0  0  0  0  0  0  0  0  0  0  0  0
    0.2530    6.9910    8.4150 C   0  0  0  0  0  0  0  0  0  0  0  0
   -0.5410    8.0470    8.6030 N   0  0  0  0  0  0  0  0  0  0  0  0
   -1.6810    7.5220    9.1060 N   0  0  0  0  0  0  0  0  0  0  0  0
   -2.8360    8.2010    9.4800 C   0  0  0  0  0  0  0  0  0  0  0  0
   -3.8910    7.5290    9.9600 C   0  0  0  0  0  0  0  0  0  0  0  0
   -3.7160    6.0540   10.0460 C   0  0  0  0  0  0  0  0  0  0  0  0
   -2.6550    5.3810    9.7080 N   0  0  0  0  0  0  0  0  0  0  0  0
   -1.6040    6.1300    9.2300 C   0  0  0  0  0  0  0  0  0  0  0  0
    1.5690    1.7210    9.8980 N   0  0  0  0  0  0  0  0  0  0  0  0
    2.8020    2.2540   10.3780 C   0  0  0  0  0  0  0  0  0  0  0  0
    2.8620    2.7800   11.6800 C   0  0  0  0  0  0  0  0  0  0  0  0
    4.0510    3.3270   12.1680 C   0  0  0  0  0  0  0  0  0  0  0  0
    5.1820    3.3700   11.3550 C   0  0  0  0  0  0  0  0  0  0  0  0
    5.1170    2.8730   10.0540 C   0  0  0  0  0  0  0  0  0  0  0  0
    6.5090    2.9510    9.0430 Cl  0  0  0  0  0  0  0  0  0  0  0  0
    3.9340    2.3250    9.5570 C   0  0  0  0  0  0  0  0  0  0  0  0
    1.5050    0.3890    9.5980 N   0  0  0  0  0  0  0  0  0  0  0  0
   -0.3819   -1.7811   10.4795 H   0  0  0  0  0  0  0  0  0  0  0  0
   -1.1840   -1.3384    8.9344 H   0  0  0  0  0  0  0  0  0  0  0  0
    0.5289   -1.8793    8.9344 H   0  0  0  0  0  0  0  0  0  0  0  0
   -1.6795    1.2665   10.0033 H   0  0  0  0  0  0  0  0  0  0  0  0
   -0.8520    3.9380   10.3630 H   0  0  0  0  0  0  0  0  0  0  0  0
    1.2718    7.0657    8.0069 H   0  0  0  0  0  0  0  0  0  0  0  0
   -2.8834    9.2955    9.3811 H   0  0  0  0  0  0  0  0  0  0  0  0
   -4.8196    8.0316   10.2683 H   0  0  0  0  0  0  0  0  0  0  0  0
   -4.5675    5.4755   10.4335 H   0  0  0  0  0  0  0  0  0  0  0  0
    1.9667    2.7608   12.3189 H   0  0  0  0  0  0  0  0  0  0  0  0
    4.0946    3.7235   13.1931 H   0  0  0  0  0  0  0  0  0  0  0  0
    6.1219    3.7942   11.7380 H   0  0  0  0  0  0  0  0  0  0  0  0
    3.8908    1.9501    8.5238 H   0  0  0  0  0  0  0  0  0  0  0  0
  1  2  1  0
  2  3  1  0
  3  4  2  0
  4  5  1  0
  5  6  1  0
  6  7  2  0
  6  8  1  0
  8  9  1  0
  9 10  2  0
 10 11  1  0
 11 12  1  0
 12 13  2  0
 13 14  1  0
 14 15  2  0
 15 16  1  0
  4 17  1  0
 17 18  1  0
 18 19  2  0
 19 20  1  0
 20 21  2  0
 21 22  1  0
 22 23  1  0
 22 24  2  0
 17 25  1  0
 25  2  2  0
 16  8  2  0
 24 18  1  0
 16 11  1  0
  1 26  1  0
  1 27  1  0
  1 28  1  0
  3 29  1  0
  5 30  1  0
  9 31  1  0
 12 32  1  0
 13 33  1  0
 14 34  1  0
 19 35  1  0
 20 36  1  0
 21 37  1  0
 24 38  1  0
M  END
>  <meeko>  (4) 
{"is_sidechain": [false], "free_energy": -8.332, "intermolecular_energy": -9.773, "internal_energy": -1.1}

$$$$
4hge_ligand
     RDKit          3D

 38 41  0  0  0  0  0  0  0  0999 V2000
   -4.9850    1.8860   12.2910 C   0  0  0  0  0  0  0  0  0  0  0  0
   -3.8950    2.7200   11.7320 C   0  0  0  0  0  0  0  0  0  0  0  0
   -2.6670    2.2950   11.1900 C   0  0  0  0  0  0  0  0  0  0  0  0
   -1.9690    3.4530   10.9200 C   0  0  0  0  0  0  0  0  0  0  0  0
   -0.6260    3.5240   10.5770 N   0  0  0  0  0  0  0  0  0  0  0  0
   -0.1640    3.2910    9.2910 C   0  0  0  0  0  0  0  0  0  0  0  0
   -0.8520    2.9210    8.3460 O   0  0  0  0  0  0  0  0  0  0  0  0
    1.2520    3.5600    9.1160 C   0  0  0  0  0  0  0  0  0  0  0  0
    1.8670    4.2110    8.0290 C   0  0  0  0  0  0  0  0  0  0  0  0
    3.1920    4.3080    8.1520 N   0  0  0  0  0  0  0  0  0  0  0  0
    3.4610    3.7180    9.3390 N   0  0  0  0  0  0  0  0  0  0  0  0
    4.7030    3.5500    9.9420 C   0  0  0  0  0  0  0  0  0  0  0  0
    4.8020    2.9430   11.1330 C   0  0  0  0  0  0  0  0  0  0  0  0
    3.5110    2.4920   11.7210 C   0  0  0  0  0  0  0  0  0  0  0  0
    2.3310    2.6280   11.1910 N   0  0  0  0  0  0  0  0  0  0  0  0
    2.2990    3.2510    9.9650 C   0  0  0  0  0  0  0  0  0  0  0  0
   -2.8940    4.4940   11.0680 N   0  0  0  0  0  0  0  0  0  0  0  0
   -2.9270    5.7960   10.4840 C   0  0  0  0  0  0  0  0  0  0  0  0
   -4.1210    6.5360   10.5240 C   0  0  0  0  0  0  0  0  0  0  0  0
   -4.1870    7.8030    9.9410 C   0  0  0  0  0  0  0  0  0  0  0  0
   -3.0690    8.3340    9.3000 C   0  0  0  0  0  0  0  0  0  0  0  0
   -1.8920    7.5900    9.2370 C   0  0  0  0  0  0  0  0  0  0  0  0
   -0.5200    8.2360    8.4220 Cl  0  0  0  0  0  0  0  0  0  0  0  0
   -1.8160    6.3220    9.8150 C   0  0  0  0  0  0  0  0  0  0  0  0
   -4.0000    4.0500   11.7380 N   0  0  0  0  0  0  0  0  0  0  0  0
   -4.9440    1.9174   13.3898 H   0  0  0  0  0  0  0  0  0  0  0  0
   -5.9558    2.2741   11.9491 H   0  0  0  0  0  0  0  0  0  0  0  0
   -4.8643    0.8475   11.9491 H   0  0  0  0  0  0  0  0  0  0  0  0
   -2.3354    1.2603   11.0186 H   0  0  0  0  0  0  0  0  0  0  0  0
   -0.0130    4.0850   11.1690 H   0  0  0  0  0  0  0  0  0  0  0  0
    1.3101    4.6009    7.1642 H   0  0  0  0  0  0  0  0  0  0  0  0
    5.6094    3.9174    9.4386 H   0  0  0  0  0  0  0  0  0  0  0  0
    5.7666    2.7894   11.6388 H   0  0  0  0  0  0  0  0  0  0  0  0
    3.5598    1.9944   12.7008 H   0  0  0  0  0  0  0  0  0  0  0  0
   -5.0091    6.1145   11.0176 H   0  0  0  0  0  0  0  0  0  0  0  0
   -5.1211    8.3820    9.9876 H   0  0  0  0  0  0  0  0  0  0  0  0
   -3.1153    9.3350    8.8462 H   0  0  0  0  0  0  0  0  0  0  0  0
   -0.8863    5.7382    9.7450 H   0  0  0  0  0  0  0  0  0  0  0  0
  1  2  1  0
  2  3  1  0
  3  4  2  0
  4  5  1  0
  5  6  1  0
  6  7  2  0
  6  8  1  0
  8  9  1  0
  9 10  2  0
 10 11  1  0
 11 12  1  0
 12 13  2  0
 13 14  1  0
 14 15  2  0
 15 16  1  0
  4 17  1  0
 17 18  1  0
 18 19  2  0
 19 20  1  0
 20 21  2  0
 21 22  1  0
 22 23  1  0
 22 24  2  0
 17 25  1  0
 25  2  2  0
 16  8  2  0
 24 18  1  0
 16 11  1  0
  1 26  1  0
  1 27  1  0
  1 28  1  0
  3 29  1  0
  5 30  1  0
  9 31  1  0
 12 32  1  0
 13 33  1  0
 14 34  1  0
 19 35  1  0
 20 36  1  0
 21 37  1  0
 24 38  1  0
M  END
>  <meeko>  (5) 
{"is_sidechain": [false], "free_energy": -8.312, "intermolecular_energy": -10.017, "internal_energy": -0.833}

$$$$
4hge_ligand
     RDKit          3D

 38 41  0  0  0  0  0  0  0  0999 V2000
   -3.8170    8.6250    9.8840 C   0  0  0  0  0  0  0  0  0  0  0  0
   -2.9100    7.4800    9.6290 C   0  0  0  0  0  0  0  0  0  0  0  0
   -3.2280    6.1090    9.6040 C   0  0  0  0  0  0  0  0  0  0  0  0
   -2.0240    5.4600    9.4400 C   0  0  0  0  0  0  0  0  0  0  0  0
   -1.8190    4.0930    9.5750 N   0  0  0  0  0  0  0  0  0  0  0  0
   -1.3420    3.5150   10.7410 C   0  0  0  0  0  0  0  0  0  0  0  0
   -0.9720    4.1270   11.7370 O   0  0  0  0  0  0  0  0  0  0  0  0
   -1.3410    2.0630   10.7220 C   0  0  0  0  0  0  0  0  0  0  0  0
   -2.2190    1.2020   11.4090 C   0  0  0  0  0  0  0  0  0  0  0  0
   -1.9660   -0.0910   11.1930 N   0  0  0  0  0  0  0  0  0  0  0  0
   -0.9100   -0.0880   10.3490 N   0  0  0  0  0  0  0  0  0  0  0  0
   -0.2490   -1.1880    9.8120 C   0  0  0  0  0  0  0  0  0  0  0  0
    0.7860   -1.0160    8.9790 C   0  0  0  0  0  0  0  0  0  0  0  0
    1.1400    0.4010    8.6930 C   0  0  0  0  0  0  0  0  0  0  0  0
    0.5490    1.4570    9.1740 N   0  0  0  0  0  0  0  0  0  0  0  0
   -0.5000    1.2120   10.0290 C   0  0  0  0  0  0  0  0  0  0  0  0
   -1.0960    6.4600    9.1220 N   0  0  0  0  0  0  0  0  0  0  0  0
    0.1310    6.3900    8.3970 C   0  0  0  0  0  0  0  0  0  0  0  0
    0.2850    7.1630    7.2340 C   0  0  0  0  0  0  0  0  0  0  0  0
    1.4670    7.0970    6.4930 C   0  0  0  0  0  0  0  0  0  0  0  0
    2.4950    6.2480    6.8970 C   0  0  0  0  0  0  0  0  0  0  0  0
    2.3330    5.4610    8.0360 C   0  0  0  0  0  0  0  0  0  0  0  0
    3.5950    4.3920    8.5180 Cl  0  0  0  0  0  0  0  0  0  0  0  0
    1.1560    5.5180    8.7820 C   0  0  0  0  0  0  0  0  0  0  0  0
   -1.6080    7.6910    9.4230 N   0  0  0  0  0  0  0  0  0  0  0  0
   -3.9305    8.7683   10.9687 H   0  0  0  0  0  0  0  0  0  0  0  0
   -3.3926    9.5357    9.4362 H   0  0  0  0  0  0  0  0  0  0  0  0
   -4.8007    8.4204    9.4362 H   0  0  0  0  0  0  0  0  0  0  0  0
   -4.2249    5.6532    9.6958 H   0  0  0  0  0  0  0  0  0  0  0  0
   -2.3410    3.4710    8.9590 H   0  0  0  0  0  0  0  0  0  0  0  0
   -3.0318    1.5592   12.0585 H   0  0  0  0  0  0  0  0  0  0  0  0
   -0.5780   -2.2047   10.0728 H   0  0  0  0  0  0  0  0  0  0  0  0
    1.3347   -1.8613    8.5381 H   0  0  0  0  0  0  0  0  0  0  0  0
    1.9835    0.5732    8.0082 H   0  0  0  0  0  0  0  0  0  0  0  0
   -0.5303    7.8242    6.9051 H   0  0  0  0  0  0  0  0  0  0  0  0
    1.5862    7.7150    5.5909 H   0  0  0  0  0  0  0  0  0  0  0  0
    3.4301    6.1989    6.3199 H   0  0  0  0  0  0  0  0  0  0  0  0
    1.0336    4.8800    9.6697 H   0  0  0  0  0  0  0  0  0  0  0  0
  1  2  1  0
  2  3  1  0
  3  4  2  0
  4  5  1  0
  5  6  1  0
  6  7  2  0
  6  8  1  0
  8  9  1  0
  9 10  2  0
 10 11  1  0
 11 12  1  0
 12 13  2  0
 13 14  1  0
 14 15  2  0
 15 16  1  0
  4 17  1  0
 17 18  1  0
 18 19  2  0
 19 20  1  0
 20 21  2  0
 21 22  1  0
 22 23  1  0
 22 24  2  0
 17 25  1  0
 25  2  2  0
 16  8  2  0
 24 18  1  0
 16 11  1  0
  1 26  1  0
  1 27  1  0
  1 28  1  0
  3 29  1  0
  5 30  1  0
  9 31  1  0
 12 32  1  0
 13 33  1  0
 14 34  1  0
 19 35  1  0
 20 36  1  0
 21 37  1  0
 24 38  1  0
M  END
>  <meeko>  (6) 
{"is_sidechain": [false], "free_energy": -8.163, "intermolecular_energy": -9.681, "internal_energy": -0.993}

$$$$
4hge_ligand
     RDKit          3D

 38 41  0  0  0  0  0  0  0  0999 V2000
    3.6500    7.2310    6.5030 C   0  0  0  0  0  0  0  0  0  0  0  0
    2.6230    6.4590    7.2420 C   0  0  0  0  0  0  0  0  0  0  0  0
    2.7890    5.2610    7.9630 C   0  0  0  0  0  0  0  0  0  0  0  0
    1.5200    4.8980    8.3600 C   0  0  0  0  0  0  0  0  0  0  0  0
    1.1680    3.6730    8.9120 N   0  0  0  0  0  0  0  0  0  0  0  0
    0.7320    2.6020    8.1480 C   0  0  0  0  0  0  0  0  0  0  0  0
    0.5270    2.6280    6.9390 O   0  0  0  0  0  0  0  0  0  0  0  0
    0.5560    1.3730    8.9020 C   0  0  0  0  0  0  0  0  0  0  0  0
    1.1320    0.1170    8.6280 C   0  0  0  0  0  0  0  0  0  0  0  0
    0.7800   -0.8270    9.5040 N   0  0  0  0  0  0  0  0  0  0  0  0
   -0.0360   -0.1880   10.3730 N   0  0  0  0  0  0  0  0  0  0  0  0
   -0.6810   -0.7240   11.4830 C   0  0  0  0  0  0  0  0  0  0  0  0
   -1.4580    0.0490   12.2530 C   0  0  0  0  0  0  0  0  0  0  0  0
   -1.5560    1.4710   11.8270 C   0  0  0  0  0  0  0  0  0  0  0  0
   -0.9710    2.0120   10.7980 N   0  0  0  0  0  0  0  0  0  0  0  0
   -0.1940    1.1630   10.0440 C   0  0  0  0  0  0  0  0  0  0  0  0
    0.7080    6.0040    8.0870 N   0  0  0  0  0  0  0  0  0  0  0  0
   -0.5210    6.4230    8.6800 C   0  0  0  0  0  0  0  0  0  0  0  0
   -0.9250    7.7620    8.5490 C   0  0  0  0  0  0  0  0  0  0  0  0
   -2.1120    8.2040    9.1390 C   0  0  0  0  0  0  0  0  0  0  0  0
   -2.8930    7.3180    9.8770 C   0  0  0  0  0  0  0  0  0  0  0  0
   -2.4800    5.9950   10.0300 C   0  0  0  0  0  0  0  0  0  0  0  0
   -3.4340    4.9080   10.9660 Cl  0  0  0  0  0  0  0  0  0  0  0  0
   -1.2960    5.5440    9.4470 C   0  0  0  0  0  0  0  0  0  0  0  0
    1.3520    6.8650    7.2430 N   0  0  0  0  0  0  0  0  0  0  0  0
    4.3174    7.7327    7.2192 H   0  0  0  0  0  0  0  0  0  0  0  0
    4.2371    6.5487    5.8707 H   0  0  0  0  0  0  0  0  0  0  0  0
    3.1577    7.9846    5.8707 H   0  0  0  0  0  0  0  0  0  0  0  0
    3.7300    4.7287    8.1660 H   0  0  0  0  0  0  0  0  0  0  0  0
    1.5550    3.4330    9.8240 H   0  0  0  0  0  0  0  0  0  0  0  0
    1.8046   -0.0675    7.7773 H   0  0  0  0  0  0  0  0  0  0  0  0
   -0.5522   -1.7882   11.7296 H   0  0  0  0  0  0  0  0  0  0  0  0
   -1.9856   -0.3396   13.1366 H   0  0  0  0  0  0  0  0  0  0  0  0
   -2.1852    2.1305   12.4427 H   0  0  0  0  0  0  0  0  0  0  0  0
   -0.3029    8.4671    7.9783 H   0  0  0  0  0  0  0  0  0  0  0  0
   -2.4292    9.2506    9.0207 H   0  0  0  0  0  0  0  0  0  0  0  0
   -3.8316    7.6604   10.3372 H   0  0  0  0  0  0  0  0  0  0  0  0
   -0.9722    4.5024    9.5890 H   0  0  0  0  0  0  0  0  0  0  0  0
  1  2  1  0
  2  3  1  0
  3  4  2  0
  4  5  1  0
  5  6  1  0
  6  7  2  0
  6  8  1  0
  8  9  1  0
  9 10  2  0
 10 11  1  0
 11 12  1  0
 12 13  2  0
 13 14  1  0
 14 15  2  0
 15 16  1  0
  4 17  1  0
 17 18  1  0
 18 19  2  0
 19 20  1  0
 20 21  2  0
 21 22  1  0
 22 23  1  0
 22 24  2  0
 17 25  1  0
 25  2  2  0
 16  8  2  0
 24 18  1  0
 16 11  1  0
  1 26  1  0
  1 27  1  0
  1 28  1  0
  3 29  1  0
  5 30  1  0
  9 31  1  0
 12 32  1  0
 13 33  1  0
 14 34  1  0
 19 35  1  0
 20 36  1  0
 21 37  1  0
 24 38  1  0
M  END
>  <meeko>  (7) 
{"is_sidechain": [false], "free_energy": -8.08, "intermolecular_energy": -9.588, "internal_energy": -0.989}

$$$$
4hge_ligand
     RDKit          3D

 38 41  0  0  0  0  0  0  0  0999 V2000
   -1.7020   -0.3290    9.9500 C   0  0  0  0  0  0  0  0  0  0  0  0
   -0.7210    0.7770    9.8470 C   0  0  0  0  0  0  0  0  0  0  0  0
    0.6610    0.6900    9.5880 C   0  0  0  0  0  0  0  0  0  0  0  0
    1.1340    1.9790    9.7090 C   0  0  0  0  0  0  0  0  0  0  0  0
    2.4720    2.3460    9.7530 N   0  0  0  0  0  0  0  0  0  0  0  0
    3.1810    2.4650   10.9370 C   0  0  0  0  0  0  0  0  0  0  0  0
    2.7090    2.3500   12.0630 O   0  0  0  0  0  0  0  0  0  0  0  0
    4.6000    2.7140   10.7530 C   0  0  0  0  0  0  0  0  0  0  0  0
    5.3760    3.7170   11.3670 C   0  0  0  0  0  0  0  0  0  0  0  0
    6.6570    3.6960   10.9950 N   0  0  0  0  0  0  0  0  0  0  0  0
    6.7350    2.6630   10.1260 N   0  0  0  0  0  0  0  0  0  0  0  0
    7.8590    2.2130    9.4410 C   0  0  0  0  0  0  0  0  0  0  0  0
    7.7720    1.1630    8.6120 C   0  0  0  0  0  0  0  0  0  0  0  0
    6.4180    0.5540    8.5040 C   0  0  0  0  0  0  0  0  0  0  0  0
    5.3430    0.9440    9.1250 N   0  0  0  0  0  0  0  0  0  0  0  0
    5.4980    2.0300    9.9540 C   0  0  0  0  0  0  0  0  0  0  0  0
   -0.0030    2.7940    9.7770 N   0  0  0  0  0  0  0  0  0  0  0  0
   -0.1820    4.1660    9.4320 C   0  0  0  0  0  0  0  0  0  0  0  0
   -1.0310    4.9660   10.2160 C   0  0  0  0  0  0  0  0  0  0  0  0
   -1.2420    6.3070    9.8870 C   0  0  0  0  0  0  0  0  0  0  0  0
   -0.6220    6.8540    8.7660 C   0  0  0  0  0  0  0  0  0  0  0  0
    0.2000    6.0550    7.9720 C   0  0  0  0  0  0  0  0  0  0  0  0
    0.9430    6.7270    6.5710 Cl  0  0  0  0  0  0  0  0  0  0  0  0
    0.4150    4.7140    8.2900 C   0  0  0  0  0  0  0  0  0  0  0  0
   -1.1090    2.0380   10.0470 N   0  0  0  0  0  0  0  0  0  0  0  0
   -1.8969   -0.5487   11.0101 H   0  0  0  0  0  0  0  0  0  0  0  0
   -2.6406   -0.0336    9.4582 H   0  0  0  0  0  0  0  0  0  0  0  0
   -1.2967   -1.2256    9.4582 H   0  0  0  0  0  0  0  0  0  0  0  0
    1.2388   -0.2131    9.3419 H   0  0  0  0  0  0  0  0  0  0  0  0
    3.0360    2.1880    8.9180 H   0  0  0  0  0  0  0  0  0  0  0  0
    4.9662    4.4453   12.0823 H   0  0  0  0  0  0  0  0  0  0  0  0
    8.8244    2.7215    9.5803 H   0  0  0  0  0  0  0  0  0  0  0  0
    8.6379    0.7795    8.0525 H   0  0  0  0  0  0  0  0  0  0  0  0
    6.3161   -0.3115    7.8327 H   0  0  0  0  0  0  0  0  0  0  0  0
   -1.5325    4.5333   11.0942 H   0  0  0  0  0  0  0  0  0  0  0  0
   -1.8973    6.9307   10.5127 H   0  0  0  0  0  0  0  0  0  0  0  0
   -0.7801    7.9116    8.5082 H   0  0  0  0  0  0  0  0  0  0  0  0
    1.0513    4.0892    7.6460 H   0  0  0  0  0  0  0  0  0  0  0  0
  1  2  1  0
  2  3  1  0
  3  4  2  0
  4  5  1  0
  5  6  1  0
  6  7  2  0
  6  8  1  0
  8  9  1  0
  9 10  2  0
 10 11  1  0
 11 12  1  0
 12 13  2  0
 13 14  1  0
 14 15  2  0
 15 16  1  0
  4 17  1  0
 17 18  1  0
 18 19  2  0
 19 20  1  0
 20 21  2  0
 21 22  1  0
 22 23  1  0
 22 24  2  0
 17 25  1  0
 25  2  2  0
 16  8  2  0
 24 18  1  0
 16 11  1  0
  1 26  1  0
  1 27  1  0
  1 28  1  0
  3 29  1  0
  5 30  1  0
  9 31  1  0
 12 32  1  0
 13 33  1  0
 14 34  1  0
 19 35  1  0
 20 36  1  0
 21 37  1  0
 24 38  1  0
M  END
>  <meeko>  (8) 
{"is_sidechain": [false], "free_energy": -8.005, "intermolecular_energy": -9.454, "internal_energy": -1.034}

$$$$
4hge_ligand
     RDKit          3D

 38 41  0  0  0  0  0  0  0  0999 V2000
    3.6300    7.3330    6.3720 C   0  0  0  0  0  0  0  0  0  0  0  0
    2.7980    6.4390    7.2110 C   0  0  0  0  0  0  0  0  0  0  0  0
    3.1840    5.2500    7.8610 C   0  0  0  0  0  0  0  0  0  0  0  0
    2.0250    4.7430    8.4070 C   0  0  0  0  0  0  0  0  0  0  0  0
    1.8790    3.4760    8.9560 N   0  0  0  0  0  0  0  0  0  0  0  0
    1.2090    2.4490    8.3100 C   0  0  0  0  0  0  0  0  0  0  0  0
    0.6070    2.5520    7.2470 O   0  0  0  0  0  0  0  0  0  0  0  0
    1.2990    1.1680    8.9880 C   0  0  0  0  0  0  0  0  0  0  0  0
    0.2370    0.2980    9.3080 C   0  0  0  0  0  0  0  0  0  0  0  0
    0.6340   -0.8100    9.9370 N   0  0  0  0  0  0  0  0  0  0  0  0
    1.9760   -0.6760   10.0330 N   0  0  0  0  0  0  0  0  0  0  0  0
    2.8790   -1.5630   10.6120 C   0  0  0  0  0  0  0  0  0  0  0  0
    4.1900   -1.2850   10.6220 C   0  0  0  0  0  0  0  0  0  0  0  0
    4.5680    0.0030    9.9790 C   0  0  0  0  0  0  0  0  0  0  0  0
    3.7580    0.8590    9.4280 N   0  0  0  0  0  0  0  0  0  0  0  0
    2.4250    0.5190    9.4580 C   0  0  0  0  0  0  0  0  0  0  0  0
    1.0710    5.7610    8.2830 N   0  0  0  0  0  0  0  0  0  0  0  0
   -0.1030    6.0310    9.0470 C   0  0  0  0  0  0  0  0  0  0  0  0
   -0.4370    5.1810   10.1150 C   0  0  0  0  0  0  0  0  0  0  0  0
   -1.5930    5.4090   10.8650 C   0  0  0  0  0  0  0  0  0  0  0  0
   -2.4310    6.4740   10.5450 C   0  0  0  0  0  0  0  0  0  0  0  0
   -2.1150    7.3030    9.4690 C   0  0  0  0  0  0  0  0  0  0  0  0
   -3.1670    8.6030    9.0590 Cl  0  0  0  0  0  0  0  0  0  0  0  0
   -0.9640    7.0830    8.7120 C   0  0  0  0  0  0  0  0  0  0  0  0
    1.5030    6.7050    7.3930 N   0  0  0  0  0  0  0  0  0  0  0  0
    4.2360    7.9841    7.0192 H   0  0  0  0  0  0  0  0  0  0  0  0
    4.2933    6.7274    5.7370 H   0  0  0  0  0  0  0  0  0  0  0  0
    2.9784    7.9512    5.7370 H   0  0  0  0  0  0  0  0  0  0  0  0
    4.1943    4.8188    7.9199 H   0  0  0  0  0  0  0  0  0  0  0  0
    2.5520    3.1840    9.6640 H   0  0  0  0  0  0  0  0  0  0  0  0
   -0.8141    0.5111    9.0636 H   0  0  0  0  0  0  0  0  0  0  0  0
    2.5146   -2.4973   11.0639 H   0  0  0  0  0  0  0  0  0  0  0  0
    4.9327   -1.9597   11.0727 H   0  0  0  0  0  0  0  0  0  0  0  0
    5.6384    0.2562    9.9687 H   0  0  0  0  0  0  0  0  0  0  0  0
    0.2160    4.3309   10.3619 H   0  0  0  0  0  0  0  0  0  0  0  0
   -1.8413    4.7475   11.7081 H   0  0  0  0  0  0  0  0  0  0  0  0
   -3.3383    6.6606   11.1383 H   0  0  0  0  0  0  0  0  0  0  0  0
   -0.7338    7.7335    7.8553 H   0  0  0  0  0  0  0  0  0  0  0  0
  1  2  1  0
  2  3  1  0
  3  4  2  0
  4  5  1  0
  5  6  1  0
  6  7  2  0
  6  8  1  0
  8  9  1  0
  9 10  2  0
 10 11  1  0
 11 12  1  0
 12 13  2  0
 13 14  1  0
 14 15  2  0
 15 16  1  0
  4 17  1  0
 17 18  1  0
 18 19  2  0
 19 20  1  0
 20 21  2  0
 21 22  1  0
 22 23  1  0
 22 24  2  0
 17 25  1  0
 25  2  2  0
 16  8  2  0
 24 18  1  0
 16 11  1  0
  1 26  1  0
  1 27  1  0
  1 28  1  0
  3 29  1  0
  5 30  1  0
  9 31  1  0
 12 32  1  0
 13 33  1  0
 14 34  1  0
 19 35  1  0
 20 36  1  0
 21 37  1  0
 24 38  1  0
M  END
>  <meeko>  (9) 
{"is_sidechain": [false], "free_energy": -7.941, "intermolecular_energy": -9.612, "internal_energy": -0.802}

$$$$
