
     RDKit          3D

 30 33  0  0  0  0  0  0  0  0999 V2000
   -2.0680   18.9480    2.2990 C   0  0  0  0  0  0  0  0  0  0  0  0
   -2.1930   18.4690    3.7280 C   0  0  0  0  0  0  0  0  0  0  0  0
   -2.2940   17.0170    3.8150 N   0  0  0  0  0  0  0  0  0  0  0  0
   -1.1850   16.2360    3.6310 C   0  0  0  0  0  0  0  0  0  0  0  0
   -0.0920   16.6740    3.4820 O   0  0  0  0  0  0  0  0  0  0  0  0
   -1.4720   14.7360    3.6190 C   0  0  0  0  0  0  0  0  0  0  0  0
   -0.3920   14.0010    2.8440 C   0  0  2  0  0  0  0  0  0  0  0  0
   -0.3680   14.5030    1.4540 N   0  0  0  0  0  0  0  0  0  0  0  0
    0.5620   14.1670    0.5920 C   0  0  0  0  0  0  0  0  0  0  0  0
    0.4470   14.7290   -0.7790 C   0  0  0  0  0  0  0  0  0  0  0  0
   -0.3560   15.8250   -1.0450 C   0  0  0  0  0  0  0  0  0  0  0  0
   -0.4900   16.3210   -2.3400 C   0  0  0  0  0  0  0  0  0  0  0  0
    0.1710   15.7120   -3.3940 C   0  0  0  0  0  0  0  0  0  0  0  0
   -0.0020   16.2960   -5.0140 Cl  0  0  0  0  0  0  0  0  0  0  0  0
    0.9520   14.5960   -3.1390 C   0  0  0  0  0  0  0  0  0  0  0  0
    1.0810   14.1110   -1.8410 C   0  0  0  0  0  0  0  0  0  0  0  0
    1.6850   13.2730    0.9330 C   0  0  0  0  0  0  0  0  0  0  0  0
    2.9610   13.6190    0.4790 C   0  0  0  0  0  0  0  0  0  0  0  0
    4.0550   12.7910    0.7500 C   0  0  0  0  0  0  0  0  0  0  0  0
    5.3140   13.1710    0.3350 O   0  0  0  0  0  0  0  0  0  0  0  0
    6.4070   12.3060    0.5300 C   0  0  0  0  0  0  0  0  0  0  0  0
    3.8800   11.6130    1.4950 C   0  0  0  0  0  0  0  0  0  0  0  0
    2.5970   11.2730    1.9550 C   0  0  0  0  0  0  0  0  0  0  0  0
    1.4930   12.0800    1.6690 C   0  0  0  0  0  0  0  0  0  0  0  0
    0.2180   11.6970    2.1710 N   0  0  0  0  0  0  0  0  0  0  0  0
   -0.3790   10.4610    2.2070 C   0  0  0  0  0  0  0  0  0  0  0  0
    0.1750    9.1570    1.6860 C   0  0  0  0  0  0  0  0  0  0  0  0
   -1.5710   10.5760    2.7860 N   0  0  0  0  0  0  0  0  0  0  0  0
   -1.7570   11.8760    3.1230 N   0  0  0  0  0  0  0  0  0  0  0  0
   -0.6460   12.5360    2.7740 C   0  0  0  0  0  0  0  0  0  0  0  0
  2  1  1  0
  3  2  1  0
  4  3  1  0
  5  4  2  0
  6  4  1  0
  7  6  1  1
  8  7  1  0
  9  8  2  0
 10  9  1  0
 11 10  2  0
 12 11  1  0
 13 12  2  0
 14 13  1  0
 15 13  1  0
 16 15  2  0
 16 10  1  0
 17  9  1  0
 18 17  2  0
 19 18  1  0
 20 19  1  0
 21 20  1  0
 22 19  2  0
 23 22  1  0
 24 23  2  0
 24 17  1  0
 25 24  1  0
 26 25  1  0
 27 26  1  0
 28 26  2  0
 29 28  1  0
 30 29  2  0
 30 25  1  0
 30  7  1  0
M  END
$$$$
