
     RDKit          3D

 47 50  0  0  0  0  0  0  0  0999 V2000
    7.8990    6.3750  -19.7500 C   0  0  0  0  0  0  0  0  0  0  0  0
    6.4180    6.5040  -19.7630 C   0  0  0  0  0  0  0  0  0  0  0  0
    5.6670    6.7170  -18.6300 N   0  0  0  0  0  0  0  0  0  0  0  0
    5.8710    7.7020  -17.7330 C   0  0  0  0  0  0  0  0  0  0  0  0
    6.8440    8.4520  -17.7900 O   0  0  0  0  0  0  0  0  0  0  0  0
    4.8300    7.9520  -16.6720 C   0  0  1  0  0  0  0  0  0  0  0  0
    3.6330    8.6390  -17.3020 C   0  0  0  0  0  0  0  0  0  0  0  0
    2.4360    8.0220  -16.6870 C   0  0  0  0  0  0  0  0  0  0  0  0
    2.8530    6.6950  -16.1510 C   0  0  0  0  0  0  0  0  0  0  0  0
    4.2980    6.7720  -15.9860 N   0  0  0  0  0  0  0  0  0  0  0  0
    5.0720    5.8760  -15.3210 C   0  0  0  0  0  0  0  0  0  0  0  0
    6.2740    6.0290  -15.2660 O   0  0  0  0  0  0  0  0  0  0  0  0
    4.3990    4.6900  -14.6760 C   0  0  1  0  0  0  0  0  0  0  0  0
    4.4000    3.4370  -15.5740 C   0  0  0  0  0  0  0  0  0  0  0  0
    5.6710    2.7310  -15.1760 C   0  0  2  0  0  0  0  0  0  0  0  0
    5.8570    1.2540  -15.4460 C   0  0  0  0  0  0  0  0  0  0  0  0
    7.2940    0.8720  -15.0400 C   0  0  0  0  0  0  0  0  0  0  0  0
    7.6180    1.2720  -13.5910 C   0  0  0  0  0  0  0  0  0  0  0  0
    7.2680    2.7370  -13.3060 C   0  0  0  0  0  0  0  0  0  0  0  0
    5.7820    2.9520  -13.6900 C   0  0  1  0  0  0  0  0  0  0  0  0
    5.1080    4.2570  -13.4850 N   0  0  0  0  0  0  0  0  0  0  0  0
    4.9670    4.9640  -12.3590 C   0  0  0  0  0  0  0  0  0  0  0  0
    4.4150    6.0440  -12.3850 O   0  0  0  0  0  0  0  0  0  0  0  0
    5.3920    4.3240  -11.0430 C   0  0  2  0  0  0  0  0  0  0  0  0
    4.2150    3.6620  -10.4200 N   0  0  0  0  0  0  0  0  0  0  0  0
    6.0550    5.2010   -9.9710 C   0  0  0  0  0  0  0  0  0  0  0  0
    5.7530    6.6640   -9.9760 C   0  0  0  0  0  0  0  0  0  0  0  0
    4.9370    7.2680   -9.0050 C   0  0  0  0  0  0  0  0  0  0  0  0
    4.8780    8.6640   -9.1480 N   0  0  0  0  0  0  0  0  0  0  0  0
    4.1410    9.5420   -8.5020 C   0  0  0  0  0  0  0  0  0  0  0  0
    3.2450    9.1890   -7.6340 N   0  0  0  0  0  0  0  0  0  0  0  0
    4.3690   10.8060   -8.8030 N   0  0  0  0  0  0  0  0  0  0  0  0
    5.7540    6.4800  -21.0380 C   0  0  0  0  0  0  0  0  0  0  0  0
    5.9370    7.3800  -21.8530 O   0  0  0  0  0  0  0  0  0  0  0  0
    4.9350    5.4270  -21.2220 N   0  0  0  0  0  0  0  0  0  0  0  0
    3.9750    5.3490  -22.3360 C   0  0  2  0  0  0  0  0  0  0  0  0
    3.0590    4.1460  -22.1010 C   0  0  0  0  0  0  0  0  0  0  0  0
    2.2470    4.4200  -20.8940 C   0  0  0  0  0  0  0  0  0  0  0  0
    2.4420    3.6750  -19.7400 C   0  0  0  0  0  0  0  0  0  0  0  0
    1.6720    3.9250  -18.6010 C   0  0  0  0  0  0  0  0  0  0  0  0
    0.7030    4.9220  -18.6310 C   0  0  0  0  0  0  0  0  0  0  0  0
   -0.1370    5.2100  -17.3930 C   0  0  0  0  0  0  0  0  0  0  0  0
    0.4940    5.6680  -19.7790 C   0  0  0  0  0  0  0  0  0  0  0  0
    1.2570    5.4160  -20.9040 C   0  0  0  0  0  0  0  0  0  0  0  0
    4.5630    5.2610  -23.7080 C   0  0  0  0  0  0  0  0  0  0  0  0
    5.8990    5.1030  -23.8600 N   0  0  0  0  0  0  0  0  0  0  0  0
    3.8190    5.3220  -24.7120 O   0  0  0  0  0  0  0  0  0  0  0  0
  2  1  1  0
  3  2  2  3
  4  3  1  0
  5  4  2  0
  6  4  1  6
  7  6  1  0
  8  7  1  0
  9  8  1  0
 10  6  1  0
 10  9  1  0
 11 10  1  0
 12 11  2  0
 13 11  1  6
 14 13  1  0
 15 14  1  1
 16 15  1  0
 17 16  1  0
 18 17  1  0
 19 18  1  0
 20 19  1  6
 20 15  1  0
 21 13  1  0
 21 20  1  0
 22 21  1  0
 23 22  2  0
 24 22  1  0
 24 25  1  1
 26 24  1  0
 27 26  1  0
 28 27  2  3
 29 28  1  0
 30 29  1  0
 31 30  1  0
 32 30  2  0
 33  2  1  0
 34 33  2  0
 35 33  1  0
 36 35  1  0
 36 37  1  1
 38 37  1  0
 39 38  2  0
 40 39  1  0
 41 40  2  0
 42 41  1  0
 43 41  1  0
 44 38  1  0
 44 43  2  0
 45 36  1  0
 46 45  1  0
 47 45  2  0
M  CHG  1  25   1
M  END
$$$$
