
     RDKit          3D

 16 18  0  0  0  0  0  0  0  0999 V2000
    3.6240   -5.2590   -6.6510 O   0  0  0  0  0  0  0  0  0  0  0  0
    3.4650   -4.4120   -7.5390 C   0  0  0  0  0  0  0  0  0  0  0  0
    4.3340   -3.3880   -7.7140 N   0  0  0  0  0  0  0  0  0  0  0  0
    4.1560   -2.4600   -8.6940 C   0  0  0  0  0  0  0  0  0  0  0  0
    3.1210   -2.4970   -9.5490 N   0  0  0  0  0  0  0  0  0  0  0  0
    2.2100   -3.4890   -9.4460 C   0  0  0  0  0  0  0  0  0  0  0  0
    2.3480   -4.4650   -8.4470 C   0  0  0  0  0  0  0  0  0  0  0  0
    1.0890   -5.5700   -8.5130 S   0  0  0  0  0  0  0  0  0  0  0  0
    0.3150   -4.8230   -9.8410 C   0  0  0  0  0  0  0  0  0  0  0  0
   -0.8520   -5.1910  -10.4800 C   0  0  0  0  0  0  0  0  0  0  0  0
   -1.7440   -6.6120   -9.9210 Cl  0  0  0  0  0  0  0  0  0  0  0  0
   -1.3170   -4.4560  -11.5480 C   0  0  0  0  0  0  0  0  0  0  0  0
   -0.6200   -3.3520  -11.9910 C   0  0  0  0  0  0  0  0  0  0  0  0
    0.5540   -2.9760  -11.3560 C   0  0  0  0  0  0  0  0  0  0  0  0
    1.3900   -1.5890  -11.9900 Cl  0  0  0  0  0  0  0  0  0  0  0  0
    1.0360   -3.7040  -10.2580 C   0  0  0  0  0  0  0  0  0  0  0  0
  2  1  2  0
  3  2  1  0
  4  3  1  0
  5  4  2  0
  6  5  1  0
  7  6  2  0
  7  2  1  0
  8  7  1  0
  9  8  1  0
 10  9  2  0
 11 10  1  0
 12 10  1  0
 13 12  2  0
 14 13  1  0
 15 14  1  0
 16 14  2  0
 16  9  1  0
 16  6  1  0
M  END
$$$$
