
     RDKit          3D

 31 35  0  0  0  0  0  0  0  0999 V2000
   -3.5230  -18.4780    4.4000 C   0  0  0  0  0  0  0  0  0  0  0  0
   -2.8910  -19.7140    3.9020 N   0  0  2  0  0  0  0  0  0  0  0  0
   -3.4620  -20.8940    4.5560 C   0  0  0  0  0  0  0  0  0  0  0  0
   -1.4300  -19.6560    4.1420 C   0  0  0  0  0  0  0  0  0  0  0  0
   -3.1670  -19.8600    2.4250 C   0  0  0  0  0  0  0  0  0  0  0  0
   -2.3630  -18.9510    1.5350 C   0  0  0  0  0  0  0  0  0  0  0  0
   -2.6010  -19.2480    0.0770 C   0  0  0  0  0  0  0  0  0  0  0  0
   -1.6380  -18.5090   -0.7150 N   0  0  0  0  0  0  0  0  0  0  0  0
   -0.3420  -18.8970   -0.9270 C   0  0  0  0  0  0  0  0  0  0  0  0
    0.1370  -19.9090   -0.5050 O   0  0  0  0  0  0  0  0  0  0  0  0
    0.3620  -17.9420   -1.8190 C   0  0  2  0  0  0  0  0  0  0  0  0
   -0.6580  -16.8020   -1.9670 C   0  0  2  0  0  0  0  0  0  0  0  0
   -1.9140  -17.3360   -1.3420 C   0  0  0  0  0  0  0  0  0  0  0  0
   -3.0170  -16.8120   -1.3420 O   0  0  0  0  0  0  0  0  0  0  0  0
   -0.7460  -16.5890   -3.4890 C   0  0  2  0  0  0  0  0  0  0  0  0
   -2.0040  -15.9150   -3.8750 C   0  0  0  0  0  0  0  0  0  0  0  0
   -2.9930  -16.2880   -4.7790 C   0  0  0  0  0  0  0  0  0  0  0  0
   -3.9670  -15.3230   -4.7370 O   0  0  0  0  0  0  0  0  0  0  0  0
   -3.5080  -14.4280   -3.8410 C   0  0  0  0  0  0  0  0  0  0  0  0
   -4.1440  -13.2420   -3.4140 C   0  0  0  0  0  0  0  0  0  0  0  0
   -3.5200  -12.3980   -2.5330 C   0  0  0  0  0  0  0  0  0  0  0  0
   -4.2730  -11.3230   -2.1750 C   0  0  0  0  0  0  0  0  0  0  0  0
   -5.4320  -11.3120   -2.7530 C   0  0  0  0  0  0  0  0  0  0  0  0
   -6.4790  -10.0350   -2.3730 Cl  0  0  0  0  0  0  0  0  0  0  0  0
   -5.6670  -12.6390   -3.7940 S   0  0  0  0  0  0  0  0  0  0  0  0
   -2.3460  -14.7640   -3.3010 N   0  0  0  0  0  0  0  0  0  0  0  0
   -0.5350  -17.9500   -4.0780 N   0  0  0  0  0  0  0  0  0  0  0  0
    0.0380  -17.8780   -5.4460 C   0  0  0  0  0  0  0  0  0  0  0  0
    1.5520  -18.0240   -5.2900 C   0  0  0  0  0  0  0  0  0  0  0  0
    1.8220  -18.3240   -3.8420 C   0  0  0  0  0  0  0  0  0  0  0  0
    0.4840  -18.5960   -3.1920 C   0  0  1  0  0  0  0  0  0  0  0  0
  2  1  1  1
  3  2  1  0
  4  2  1  0
  5  2  1  0
  6  5  1  0
  7  6  1  0
  8  7  1  0
  9  8  1  0
 10  9  2  0
 11  9  1  1
 12 11  1  0
 12 13  1  6
 13  8  1  0
 14 13  2  0
 15 12  1  0
 15 16  1  1
 17 16  2  0
 18 17  1  0
 19 18  1  0
 20 19  1  0
 21 20  2  0
 22 21  1  0
 23 22  2  0
 24 23  1  0
 25 23  1  0
 25 20  1  0
 26 19  2  0
 26 16  1  0
 27 15  1  0
 28 27  1  0
 29 28  1  0
 30 29  1  0
 31 30  1  6
 31 27  1  0
 31 11  1  0
M  CHG  2   2   1  27   1
M  END
$$$$
