1nc3_ligand
     RDKit          3D

 32 34  0  0  0  0  0  0  0  0999 V2000
  -10.2090  -16.3530   -1.5610 N   0  0  0  0  0  0  0  0  0  0  0  0
   -9.1520  -15.5660   -1.1330 C   0  0  0  0  0  0  0  0  0  0  0  0
   -9.4000  -14.2850   -0.8170 N   0  0  0  0  0  0  0  0  0  0  0  0
   -8.3690  -13.5110   -0.4190 C   0  0  0  0  0  0  0  0  0  0  0  0
   -7.0780  -13.8550   -0.2980 N   0  0  0  0  0  0  0  0  0  0  0  0
   -6.8490  -15.1510   -0.6030 C   0  0  0  0  0  0  0  0  0  0  0  0
   -5.6660  -15.9350   -0.6060 C   0  0  0  0  0  0  0  0  0  0  0  0
   -4.2710  -15.5120   -0.2580 C   0  0  2  0  0  0  0  0  0  0  0  0
   -3.7980  -16.0930    0.9760 O   0  0  0  0  0  0  0  0  0  0  0  0
   -3.2010  -15.0450    1.7820 C   0  0  2  0  0  0  0  0  0  0  0  0
   -4.1520  -14.7560    2.9490 C   0  0  0  0  0  0  0  0  0  0  0  0
   -5.0720  -15.8350    3.1080 O   0  0  0  0  0  0  0  0  0  0  0  0
   -3.0190  -13.8400    0.8680 C   0  0  1  0  0  0  0  0  0  0  0  0
   -1.7850  -13.9420    0.1440 O   0  0  0  0  0  0  0  0  0  0  0  0
   -4.1800  -13.9890   -0.0990 C   0  0  1  0  0  0  0  0  0  0  0  0
   -3.9170  -13.2950   -1.3210 O   0  0  0  0  0  0  0  0  0  0  0  0
   -5.9040  -17.1900   -1.0350 N   0  0  0  0  0  0  0  0  0  0  0  0
   -7.2420  -17.2110   -1.2150 N   0  0  0  0  0  0  0  0  0  0  0  0
   -7.8490  -16.0070   -1.0210 C   0  0  0  0  0  0  0  0  0  0  0  0
   -9.9460  -17.1910   -2.0610 H   0  0  0  0  0  0  0  0  0  0  0  0
  -10.8760  -15.7690   -2.0590 H   0  0  0  0  0  0  0  0  0  0  0  0
   -8.6174  -12.4706   -0.1623 H   0  0  0  0  0  0  0  0  0  0  0  0
   -3.6467  -15.8657   -1.0917 H   0  0  0  0  0  0  0  0  0  0  0  0
   -2.2234  -15.3205    2.2045 H   0  0  0  0  0  0  0  0  0  0  0  0
   -3.5681  -14.6360    3.8735 H   0  0  0  0  0  0  0  0  0  0  0  0
   -4.7116  -13.8327    2.7384 H   0  0  0  0  0  0  0  0  0  0  0  0
   -4.7530  -16.5310    2.4960 H   0  0  0  0  0  0  0  0  0  0  0  0
   -2.9952  -12.8821    1.4083 H   0  0  0  0  0  0  0  0  0  0  0  0
   -1.1060  -13.5590    0.7380 H   0  0  0  0  0  0  0  0  0  0  0  0
   -5.1294  -13.5521    0.2442 H   0  0  0  0  0  0  0  0  0  0  0  0
   -4.4980  -13.7040   -1.9960 H   0  0  0  0  0  0  0  0  0  0  0  0
   -7.6830  -18.0860   -1.4780 H   0  0  0  0  0  0  0  0  0  0  0  0
  1  2  1  0
  2  3  2  0
  3  4  1  0
  4  5  2  0
  5  6  1  0
  6  7  1  0
  7  8  1  0
  8  9  1  0
  9 10  1  0
 10 11  1  0
 11 12  1  0
 10 13  1  0
 13 14  1  0
 13 15  1  0
 15 16  1  0
  7 17  2  0
 17 18  1  0
 18 19  1  0
 19  2  1  0
 19  6  2  0
 15  8  1  0
  1 20  1  0
  1 21  1  0
  4 22  1  0
  8 23  1  6
 10 24  1  1
 11 25  1  0
 11 26  1  0
 12 27  1  0
 13 28  1  1
 14 29  1  0
 15 30  1  1
 16 31  1  0
 18 32  1  0
M  END
>  <meeko>  (1) 
{"is_sidechain": [false], "free_energy": -8.998, "intermolecular_energy": -11.102, "internal_energy": -0.046}

$$$$
1nc3_ligand
     RDKit          3D

 32 34  0  0  0  0  0  0  0  0999 V2000
  -10.0760  -16.5300   -2.0330 N   0  0  0  0  0  0  0  0  0  0  0  0
   -9.3700  -15.5400   -1.3700 C   0  0  0  0  0  0  0  0  0  0  0  0
   -9.9490  -14.3380   -1.2210 N   0  0  0  0  0  0  0  0  0  0  0  0
   -9.2560  -13.3650   -0.5930 C   0  0  0  0  0  0  0  0  0  0  0  0
   -8.0170  -13.4330   -0.0820 N   0  0  0  0  0  0  0  0  0  0  0  0
   -7.4570  -14.6530   -0.2240 C   0  0  0  0  0  0  0  0  0  0  0  0
   -6.1950  -15.1740    0.1640 C   0  0  0  0  0  0  0  0  0  0  0  0
   -5.0780  -14.4700    0.8720 C   0  0  2  0  0  0  0  0  0  0  0  0
   -4.1840  -13.7840   -0.0300 O   0  0  0  0  0  0  0  0  0  0  0  0
   -2.8180  -14.1090    0.3340 C   0  0  2  0  0  0  0  0  0  0  0  0
   -2.2600  -15.0480   -0.7400 C   0  0  0  0  0  0  0  0  0  0  0  0
   -0.9690  -14.6040   -1.1540 O   0  0  0  0  0  0  0  0  0  0  0  0
   -2.8770  -14.7650    1.7080 C   0  0  1  0  0  0  0  0  0  0  0  0
   -2.8810  -13.7690    2.7400 O   0  0  0  0  0  0  0  0  0  0  0  0
   -4.2260  -15.4590    1.6780 C   0  0  1  0  0  0  0  0  0  0  0  0
   -4.7090  -15.6920    3.0030 O   0  0  0  0  0  0  0  0  0  0  0  0
   -6.0430  -16.4530   -0.2340 N   0  0  0  0  0  0  0  0  0  0  0  0
   -7.2360  -16.7520   -0.7910 N   0  0  0  0  0  0  0  0  0  0  0  0
   -8.0980  -15.7000   -0.8580 C   0  0  0  0  0  0  0  0  0  0  0  0
  -10.8310  -16.9470   -1.5050 H   0  0  0  0  0  0  0  0  0  0  0  0
   -9.4190  -17.2070   -2.4140 H   0  0  0  0  0  0  0  0  0  0  0  0
   -9.7695  -12.3980   -0.4871 H   0  0  0  0  0  0  0  0  0  0  0  0
   -5.5701  -13.7369    1.5281 H   0  0  0  0  0  0  0  0  0  0  0  0
   -2.1577  -13.2309    0.3879 H   0  0  0  0  0  0  0  0  0  0  0  0
   -2.1808  -16.0652   -0.3289 H   0  0  0  0  0  0  0  0  0  0  0  0
   -2.9370  -15.0474   -1.6070 H   0  0  0  0  0  0  0  0  0  0  0  0
   -0.4220  -14.6220   -0.3400 H   0  0  0  0  0  0  0  0  0  0  0  0
   -2.0254  -15.4314    1.9096 H   0  0  0  0  0  0  0  0  0  0  0  0
   -2.9240  -14.2710    3.5810 H   0  0  0  0  0  0  0  0  0  0  0  0
   -4.2215  -16.4626    1.2277 H   0  0  0  0  0  0  0  0  0  0  0  0
   -4.2440  -15.0510    3.5790 H   0  0  0  0  0  0  0  0  0  0  0  0
   -7.3970  -17.7000   -1.1140 H   0  0  0  0  0  0  0  0  0  0  0  0
  1  2  1  0
  2  3  2  0
  3  4  1  0
  4  5  2  0
  5  6  1  0
  6  7  1  0
  7  8  1  0
  8  9  1  0
  9 10  1  0
 10 11  1  0
 11 12  1  0
 10 13  1  0
 13 14  1  0
 13 15  1  0
 15 16  1  0
  7 17  2  0
 17 18  1  0
 18 19  1  0
 19  2  1  0
 19  6  2  0
 15  8  1  0
  1 20  1  0
  1 21  1  0
  4 22  1  0
  8 23  1  1
 10 24  1  1
 11 25  1  0
 11 26  1  0
 12 27  1  0
 13 28  1  1
 14 29  1  0
 15 30  1  6
 16 31  1  0
 18 32  1  0
M  END
>  <meeko>  (2) 
{"is_sidechain": [false], "free_energy": -7.613, "intermolecular_energy": -9.057, "internal_energy": -0.382}

$$$$
1nc3_ligand
     RDKit          3D

 32 34  0  0  0  0  0  0  0  0999 V2000
    7.1040   -6.4400    5.3140 N   0  0  0  0  0  0  0  0  0  0  0  0
    6.0680   -7.1180    5.9340 C   0  0  0  0  0  0  0  0  0  0  0  0
    5.0150   -6.4080    6.3710 N   0  0  0  0  0  0  0  0  0  0  0  0
    4.0130   -7.0620    6.9930 C   0  0  0  0  0  0  0  0  0  0  0  0
    3.9210   -8.3760    7.2520 N   0  0  0  0  0  0  0  0  0  0  0  0
    4.9790   -9.0770    6.7900 C   0  0  0  0  0  0  0  0  0  0  0  0
    5.2960  -10.4600    6.8290 C   0  0  0  0  0  0  0  0  0  0  0  0
    4.5010  -11.5790    7.4300 C   0  0  2  0  0  0  0  0  0  0  0  0
    5.2740  -12.7840    7.6120 O   0  0  0  0  0  0  0  0  0  0  0  0
    4.5110  -13.9060    7.1010 C   0  0  2  0  0  0  0  0  0  0  0  0
    5.1690  -14.3640    5.7950 C   0  0  0  0  0  0  0  0  0  0  0  0
    6.1080  -15.4050    6.0600 O   0  0  0  0  0  0  0  0  0  0  0  0
    3.0870  -13.4060    6.8910 C   0  0  1  0  0  0  0  0  0  0  0  0
    2.3390  -13.4930    8.1120 O   0  0  0  0  0  0  0  0  0  0  0  0
    3.3050  -11.9450    6.5430 C   0  0  1  0  0  0  0  0  0  0  0  0
    2.1300  -11.1760    6.8100 O   0  0  0  0  0  0  0  0  0  0  0  0
    6.5010  -10.7080    6.2780 N   0  0  0  0  0  0  0  0  0  0  0  0
    6.8930   -9.4980    5.8240 N   0  0  0  0  0  0  0  0  0  0  0  0
    6.0470   -8.4810    6.1470 C   0  0  0  0  0  0  0  0  0  0  0  0
    7.4610   -5.6420    5.8220 H   0  0  0  0  0  0  0  0  0  0  0  0
    6.8370   -6.2300    4.3550 H   0  0  0  0  0  0  0  0  0  0  0  0
    3.1679   -6.4432    7.3292 H   0  0  0  0  0  0  0  0  0  0  0  0
    4.1723  -11.2035    8.4103 H   0  0  0  0  0  0  0  0  0  0  0  0
    4.4884  -14.7673    7.7848 H   0  0  0  0  0  0  0  0  0  0  0  0
    4.3949  -14.7379    5.1088 H   0  0  0  0  0  0  0  0  0  0  0  0
    5.6939  -13.5125    5.3374 H   0  0  0  0  0  0  0  0  0  0  0  0
    6.8010  -15.3020    5.3740 H   0  0  0  0  0  0  0  0  0  0  0  0
    2.5317  -13.9784    6.1334 H   0  0  0  0  0  0  0  0  0  0  0  0
    2.7550  -14.2240    8.6160 H   0  0  0  0  0  0  0  0  0  0  0  0
    3.5035  -11.7461    5.4795 H   0  0  0  0  0  0  0  0  0  0  0  0
    1.4980  -11.3860    6.0930 H   0  0  0  0  0  0  0  0  0  0  0  0
    7.7590   -9.4340    5.2990 H   0  0  0  0  0  0  0  0  0  0  0  0
  1  2  1  0
  2  3  2  0
  3  4  1  0
  4  5  2  0
  5  6  1  0
  6  7  1  0
  7  8  1  0
  8  9  1  0
  9 10  1  0
 10 11  1  0
 11 12  1  0
 10 13  1  0
 13 14  1  0
 13 15  1  0
 15 16  1  0
  7 17  2  0
 17 18  1  0
 18 19  1  0
 19  2  1  0
 19  6  2  0
 15  8  1  0
  1 20  1  0
  1 21  1  0
  4 22  1  0
  8 23  1  1
 10 24  1  1
 11 25  1  0
 11 26  1  0
 12 27  1  0
 13 28  1  6
 14 29  1  0
 15 30  1  6
 16 31  1  0
 18 32  1  0
M  END
>  <meeko>  (3) 
{"is_sidechain": [false], "free_energy": -6.425, "intermolecular_energy": -7.45, "internal_energy": -0.523}

$$$$
1nc3_ligand
     RDKit          3D

 32 34  0  0  0  0  0  0  0  0999 V2000
    5.4670  -14.3330    5.1320 N   0  0  0  0  0  0  0  0  0  0  0  0
    4.8060  -13.4040    5.9200 C   0  0  0  0  0  0  0  0  0  0  0  0
    3.5500  -13.6770    6.3060 N   0  0  0  0  0  0  0  0  0  0  0  0
    2.8960  -12.7660    7.0560 C   0  0  0  0  0  0  0  0  0  0  0  0
    3.3430  -11.5750    7.4820 N   0  0  0  0  0  0  0  0  0  0  0  0
    4.6140  -11.3240    7.1000 C   0  0  0  0  0  0  0  0  0  0  0  0
    5.4770  -10.2200    7.3250 C   0  0  0  0  0  0  0  0  0  0  0  0
    5.1940   -8.9600    8.0850 C   0  0  2  0  0  0  0  0  0  0  0  0
    3.7890   -8.6370    8.1360 O   0  0  0  0  0  0  0  0  0  0  0  0
    3.6220   -7.2360    7.7980 C   0  0  2  0  0  0  0  0  0  0  0  0
    3.0020   -7.1640    6.3980 C   0  0  0  0  0  0  0  0  0  0  0  0
    2.1340   -8.2780    6.1910 O   0  0  0  0  0  0  0  0  0  0  0  0
    5.0080   -6.6060    7.8550 C   0  0  1  0  0  0  0  0  0  0  0  0
    5.3260   -6.2120    9.1960 O   0  0  0  0  0  0  0  0  0  0  0  0
    5.9050   -7.7600    7.4470 C   0  0  1  0  0  0  0  0  0  0  0  0
    7.2390   -7.5600    7.9200 O   0  0  0  0  0  0  0  0  0  0  0  0
    6.6620  -10.3820    6.7030 N   0  0  0  0  0  0  0  0  0  0  0  0
    6.5670  -11.6170    6.1660 N   0  0  0  0  0  0  0  0  0  0  0  0
    5.3490  -12.2030    6.3280 C   0  0  0  0  0  0  0  0  0  0  0  0
    5.0230  -15.2390    5.0730 H   0  0  0  0  0  0  0  0  0  0  0  0
    6.4440  -14.3720    5.4140 H   0  0  0  0  0  0  0  0  0  0  0  0
    1.8713  -13.0322    7.3546 H   0  0  0  0  0  0  0  0  0  0  0  0
    5.5630   -9.1498    9.1037 H   0  0  0  0  0  0  0  0  0  0  0  0
    2.9571   -6.6946    8.4871 H   0  0  0  0  0  0  0  0  0  0  0  0
    2.4270   -6.2312    6.3017 H   0  0  0  0  0  0  0  0  0  0  0  0
    3.8044   -7.1867    5.6460 H   0  0  0  0  0  0  0  0  0  0  0  0
    2.1090   -8.7430    7.0540 H   0  0  0  0  0  0  0  0  0  0  0  0
    5.1046   -5.7083    7.2267 H   0  0  0  0  0  0  0  0  0  0  0  0
    6.0840   -6.7750    9.4570 H   0  0  0  0  0  0  0  0  0  0  0  0
    6.0347   -7.8861    6.3620 H   0  0  0  0  0  0  0  0  0  0  0  0
    7.7000   -7.0420    7.2280 H   0  0  0  0  0  0  0  0  0  0  0  0
    7.3770  -12.0030    5.6920 H   0  0  0  0  0  0  0  0  0  0  0  0
  1  2  1  0
  2  3  2  0
  3  4  1  0
  4  5  2  0
  5  6  1  0
  6  7  1  0
  7  8  1  0
  8  9  1  0
  9 10  1  0
 10 11  1  0
 11 12  1  0
 10 13  1  0
 13 14  1  0
 13 15  1  0
 15 16  1  0
  7 17  2  0
 17 18  1  0
 18 19  1  0
 19  2  1  0
 19  6  2  0
 15  8  1  0
  1 20  1  0
  1 21  1  0
  4 22  1  0
  8 23  1  1
 10 24  1  1
 11 25  1  0
 11 26  1  0
 12 27  1  0
 13 28  1  6
 14 29  1  0
 15 30  1  6
 16 31  1  0
 18 32  1  0
M  END
>  <meeko>  (4) 
{"is_sidechain": [false], "free_energy": -6.291, "intermolecular_energy": -7.338, "internal_energy": -0.471}

$$$$
1nc3_ligand
     RDKit          3D

 32 34  0  0  0  0  0  0  0  0999 V2000
    6.8210   -6.6690    5.5490 N   0  0  0  0  0  0  0  0  0  0  0  0
    6.1190   -7.7030    6.1460 C   0  0  0  0  0  0  0  0  0  0  0  0
    5.1170   -7.3900    6.9830 N   0  0  0  0  0  0  0  0  0  0  0  0
    4.4440   -8.3940    7.5820 C   0  0  0  0  0  0  0  0  0  0  0  0
    4.6490   -9.7150    7.4580 N   0  0  0  0  0  0  0  0  0  0  0  0
    5.6480  -10.0120    6.5990 C   0  0  0  0  0  0  0  0  0  0  0  0
    6.1940  -11.2470    6.1620 C   0  0  0  0  0  0  0  0  0  0  0  0
    5.7920  -12.6340    6.5630 C   0  0  2  0  0  0  0  0  0  0  0  0
    4.4370  -12.9570    6.1860 O   0  0  0  0  0  0  0  0  0  0  0  0
    3.7680  -13.5560    7.3260 C   0  0  2  0  0  0  0  0  0  0  0  0
    2.7660  -12.5320    7.8700 C   0  0  0  0  0  0  0  0  0  0  0  0
    2.4100  -11.6050    6.8450 O   0  0  0  0  0  0  0  0  0  0  0  0
    4.8550  -13.9000    8.3370 C   0  0  1  0  0  0  0  0  0  0  0  0
    5.4280  -15.1810    8.0400 O   0  0  0  0  0  0  0  0  0  0  0  0
    5.8890  -12.8190    8.0820 C   0  0  1  0  0  0  0  0  0  0  0  0
    7.1810  -13.2330    8.5320 O   0  0  0  0  0  0  0  0  0  0  0  0
    7.2320  -11.0610    5.3230 N   0  0  0  0  0  0  0  0  0  0  0  0
    7.2760   -9.7200    5.1720 N   0  0  0  0  0  0  0  0  0  0  0  0
    6.3880   -9.0420    5.9490 C   0  0  0  0  0  0  0  0  0  0  0  0
    7.8150   -6.8260    5.4490 H   0  0  0  0  0  0  0  0  0  0  0  0
    6.5880   -5.7960    6.0160 H   0  0  0  0  0  0  0  0  0  0  0  0
    3.6271   -8.0935    8.2545 H   0  0  0  0  0  0  0  0  0  0  0  0
    6.4887  -13.3003    6.0333 H   0  0  0  0  0  0  0  0  0  0  0  0
    3.2110  -14.4712    7.0768 H   0  0  0  0  0  0  0  0  0  0  0  0
    1.8630  -13.0552    8.2176 H   0  0  0  0  0  0  0  0  0  0  0  0
    3.2262  -11.9859    8.7066 H   0  0  0  0  0  0  0  0  0  0  0  0
    2.4310  -10.7270    7.2800 H   0  0  0  0  0  0  0  0  0  0  0  0
    4.4883  -13.9450    9.3731 H   0  0  0  0  0  0  0  0  0  0  0  0
    5.4330  -15.6640    8.8930 H   0  0  0  0  0  0  0  0  0  0  0  0
    5.7189  -11.8774    8.6246 H   0  0  0  0  0  0  0  0  0  0  0  0
    7.0260  -13.9360    9.1960 H   0  0  0  0  0  0  0  0  0  0  0  0
    7.9470   -9.3270    4.5190 H   0  0  0  0  0  0  0  0  0  0  0  0
  1  2  1  0
  2  3  2  0
  3  4  1  0
  4  5  2  0
  5  6  1  0
  6  7  1  0
  7  8  1  0
  8  9  1  0
  9 10  1  0
 10 11  1  0
 11 12  1  0
 10 13  1  0
 13 14  1  0
 13 15  1  0
 15 16  1  0
  7 17  2  0
 17 18  1  0
 18 19  1  0
 19  2  1  0
 19  6  2  0
 15  8  1  0
  1 20  1  0
  1 21  1  0
  4 22  1  0
  8 23  1  6
 10 24  1  6
 11 25  1  0
 11 26  1  0
 12 27  1  0
 13 28  1  1
 14 29  1  0
 15 30  1  1
 16 31  1  0
 18 32  1  0
M  END
>  <meeko>  (5) 
{"is_sidechain": [false], "free_energy": -6.056, "intermolecular_energy": -6.828, "internal_energy": -0.69}

$$$$
