1c5z_ligand
     RDKit          3D

 18 18  0  0  0  0  0  0  0  0999 V2000
   -5.6200   -8.7800   -4.1750 N   0  0  0  0  0  0  0  0  0  0  0  0
   -5.3200   -7.5560   -4.5510 C   0  0  0  0  0  0  0  0  0  0  0  0
   -4.0730   -7.1800   -4.7360 N   0  0  0  0  0  0  0  0  0  0  0  0
   -6.4020   -6.5870   -4.7670 C   0  0  0  0  0  0  0  0  0  0  0  0
   -7.7440   -6.9730   -4.6290 C   0  0  0  0  0  0  0  0  0  0  0  0
   -8.7710   -6.0500   -4.8330 C   0  0  0  0  0  0  0  0  0  0  0  0
   -8.4680   -4.7350   -5.1770 C   0  0  0  0  0  0  0  0  0  0  0  0
   -7.1400   -4.3390   -5.3180 C   0  0  0  0  0  0  0  0  0  0  0  0
   -6.1110   -5.2580   -5.1130 C   0  0  0  0  0  0  0  0  0  0  0  0
   -6.5940   -9.0490   -4.0690 H   0  0  0  0  0  0  0  0  0  0  0  0
   -4.9190   -9.4890   -4.0110 H   0  0  0  0  0  0  0  0  0  0  0  0
   -3.8720   -6.2210   -5.0030 H   0  0  0  0  0  0  0  0  0  0  0  0
   -3.2890   -7.8020   -4.6020 H   0  0  0  0  0  0  0  0  0  0  0  0
   -7.9885   -8.0107   -4.3580 H   0  0  0  0  0  0  0  0  0  0  0  0
   -9.8201   -6.3614   -4.7220 H   0  0  0  0  0  0  0  0  0  0  0  0
   -9.2781   -4.0084   -5.3375 H   0  0  0  0  0  0  0  0  0  0  0  0
   -6.9025   -3.3003   -5.5913 H   0  0  0  0  0  0  0  0  0  0  0  0
   -5.0640   -4.9391   -5.2232 H   0  0  0  0  0  0  0  0  0  0  0  0
  1  2  1  0
  2  3  2  0
  2  4  1  0
  4  5  2  0
  5  6  1  0
  6  7  2  0
  7  8  1  0
  8  9  2  0
  9  4  1  0
  1 10  1  0
  1 11  1  0
  3 12  1  0
  3 13  1  0
  5 14  1  0
  6 15  1  0
  7 16  1  0
  8 17  1  0
  9 18  1  0
M  CHG  1   3   1
M  END
>  <meeko>  (1) 
{"is_sidechain": [false], "free_energy": -5.292, "intermolecular_energy": -5.601, "internal_energy": -0.036}

$$$$
1c5z_ligand
     RDKit          3D

 18 18  0  0  0  0  0  0  0  0999 V2000
   -4.0600   -7.1680   -4.7260 N   0  0  0  0  0  0  0  0  0  0  0  0
   -5.3070   -7.5370   -4.5340 C   0  0  0  0  0  0  0  0  0  0  0  0
   -5.6120   -8.7600   -4.1580 N   0  0  0  0  0  0  0  0  0  0  0  0
   -6.3840   -6.5630   -4.7460 C   0  0  0  0  0  0  0  0  0  0  0  0
   -6.0870   -5.2300   -5.0740 C   0  0  0  0  0  0  0  0  0  0  0  0
   -7.1120   -4.3050   -5.2770 C   0  0  0  0  0  0  0  0  0  0  0  0
   -8.4420   -4.7000   -5.1540 C   0  0  0  0  0  0  0  0  0  0  0  0
   -8.7510   -6.0180   -4.8270 C   0  0  0  0  0  0  0  0  0  0  0  0
   -7.7290   -6.9470   -4.6260 C   0  0  0  0  0  0  0  0  0  0  0  0
   -3.8540   -6.2080   -4.9870 H   0  0  0  0  0  0  0  0  0  0  0  0
   -3.2780   -7.7940   -4.5960 H   0  0  0  0  0  0  0  0  0  0  0  0
   -6.5860   -9.0220   -4.0410 H   0  0  0  0  0  0  0  0  0  0  0  0
   -4.9140   -9.4730   -3.9990 H   0  0  0  0  0  0  0  0  0  0  0  0
   -5.0383   -4.9127   -5.1716 H   0  0  0  0  0  0  0  0  0  0  0  0
   -6.8695   -3.2634   -5.5343 H   0  0  0  0  0  0  0  0  0  0  0  0
   -9.2491   -3.9702   -5.3153 H   0  0  0  0  0  0  0  0  0  0  0  0
   -9.8019   -6.3272   -4.7270 H   0  0  0  0  0  0  0  0  0  0  0  0
   -7.9792   -7.9876   -4.3717 H   0  0  0  0  0  0  0  0  0  0  0  0
  1  2  1  0
  2  3  2  0
  2  4  1  0
  4  5  2  0
  5  6  1  0
  6  7  2  0
  7  8  1  0
  8  9  2  0
  9  4  1  0
  1 10  1  0
  1 11  1  0
  3 12  1  0
  3 13  1  0
  5 14  1  0
  6 15  1  0
  7 16  1  0
  8 17  1  0
  9 18  1  0
M  CHG  1   3   1
M  END
>  <meeko>  (2) 
{"is_sidechain": [false], "free_energy": -5.29, "intermolecular_energy": -5.599, "internal_energy": -0.036}

$$$$
1c5z_ligand
     RDKit          3D

 18 18  0  0  0  0  0  0  0  0999 V2000
   -4.0420   -7.1720   -4.7360 N   0  0  0  0  0  0  0  0  0  0  0  0
   -5.2870   -7.5400   -4.5220 C   0  0  0  0  0  0  0  0  0  0  0  0
   -5.5870   -8.7650   -4.1510 N   0  0  0  0  0  0  0  0  0  0  0  0
   -6.3640   -6.5600   -4.7030 C   0  0  0  0  0  0  0  0  0  0  0  0
   -7.7080   -6.9440   -4.5700 C   0  0  0  0  0  0  0  0  0  0  0  0
   -8.7320   -6.0100   -4.7410 C   0  0  0  0  0  0  0  0  0  0  0  0
   -8.4240   -4.6870   -5.0470 C   0  0  0  0  0  0  0  0  0  0  0  0
   -7.0950   -4.2930   -5.1840 C   0  0  0  0  0  0  0  0  0  0  0  0
   -6.0690   -5.2220   -5.0110 C   0  0  0  0  0  0  0  0  0  0  0  0
   -3.8390   -6.2110   -4.9930 H   0  0  0  0  0  0  0  0  0  0  0  0
   -3.2600   -7.8020   -4.6280 H   0  0  0  0  0  0  0  0  0  0  0  0
   -6.5600   -9.0260   -4.0180 H   0  0  0  0  0  0  0  0  0  0  0  0
   -4.8890   -9.4820   -4.0130 H   0  0  0  0  0  0  0  0  0  0  0  0
   -7.9562   -7.9883   -4.3293 H   0  0  0  0  0  0  0  0  0  0  0  0
   -9.7821   -6.3195   -4.6339 H   0  0  0  0  0  0  0  0  0  0  0  0
   -9.2313   -3.9519   -5.1807 H   0  0  0  0  0  0  0  0  0  0  0  0
   -6.8543   -3.2480   -5.4289 H   0  0  0  0  0  0  0  0  0  0  0  0
   -5.0212   -4.9043   -5.1166 H   0  0  0  0  0  0  0  0  0  0  0  0
  1  2  1  0
  2  3  2  0
  2  4  1  0
  4  5  2  0
  5  6  1  0
  6  7  2  0
  7  8  1  0
  8  9  2  0
  9  4  1  0
  1 10  1  0
  1 11  1  0
  3 12  1  0
  3 13  1  0
  5 14  1  0
  6 15  1  0
  7 16  1  0
  8 17  1  0
  9 18  1  0
M  CHG  1   3   1
M  END
>  <meeko>  (3) 
{"is_sidechain": [false], "free_energy": -5.276, "intermolecular_energy": -5.585, "internal_energy": -0.036}

$$$$
1c5z_ligand
     RDKit          3D

 18 18  0  0  0  0  0  0  0  0999 V2000
   -6.8080   -3.2200   -3.2680 N   0  0  0  0  0  0  0  0  0  0  0  0
   -6.5750   -3.7800   -4.4350 C   0  0  0  0  0  0  0  0  0  0  0  0
   -6.4170   -3.0580   -5.5230 N   0  0  0  0  0  0  0  0  0  0  0  0
   -6.4920   -5.2420   -4.5250 C   0  0  0  0  0  0  0  0  0  0  0  0
   -5.2510   -5.8790   -4.6810 C   0  0  0  0  0  0  0  0  0  0  0  0
   -5.1730   -7.2700   -4.7640 C   0  0  0  0  0  0  0  0  0  0  0  0
   -6.3330   -8.0380   -4.6950 C   0  0  0  0  0  0  0  0  0  0  0  0
   -7.5720   -7.4200   -4.5410 C   0  0  0  0  0  0  0  0  0  0  0  0
   -7.6530   -6.0290   -4.4540 C   0  0  0  0  0  0  0  0  0  0  0  0
   -6.8960   -3.8020   -2.4400 H   0  0  0  0  0  0  0  0  0  0  0  0
   -6.8760   -2.2200   -3.1450 H   0  0  0  0  0  0  0  0  0  0  0  0
   -6.2630   -3.5210   -6.4150 H   0  0  0  0  0  0  0  0  0  0  0  0
   -6.4660   -2.0500   -5.5230 H   0  0  0  0  0  0  0  0  0  0  0  0
   -4.3322   -5.2768   -4.7383 H   0  0  0  0  0  0  0  0  0  0  0  0
   -4.1954   -7.7598   -4.8839 H   0  0  0  0  0  0  0  0  0  0  0  0
   -6.2707   -9.1342   -4.7622 H   0  0  0  0  0  0  0  0  0  0  0  0
   -8.4869   -8.0283   -4.4879 H   0  0  0  0  0  0  0  0  0  0  0  0
   -8.6333   -5.5459   -4.3289 H   0  0  0  0  0  0  0  0  0  0  0  0
  1  2  1  0
  2  3  2  0
  2  4  1  0
  4  5  2  0
  5  6  1  0
  6  7  2  0
  7  8  1  0
  8  9  2  0
  9  4  1  0
  1 10  1  0
  1 11  1  0
  3 12  1  0
  3 13  1  0
  5 14  1  0
  6 15  1  0
  7 16  1  0
  8 17  1  0
  9 18  1  0
M  CHG  1   3   1
M  END
>  <meeko>  (4) 
{"is_sidechain": [false], "free_energy": -4.951, "intermolecular_energy": -5.256, "internal_energy": -0.021}

$$$$
1c5z_ligand
     RDKit          3D

 18 18  0  0  0  0  0  0  0  0999 V2000
   -6.0120   -5.6710   -3.0650 N   0  0  0  0  0  0  0  0  0  0  0  0
   -5.8770   -6.0310   -4.3230 C   0  0  0  0  0  0  0  0  0  0  0  0
   -4.8820   -6.7970   -4.7150 N   0  0  0  0  0  0  0  0  0  0  0  0
   -6.8560   -5.5650   -5.3110 C   0  0  0  0  0  0  0  0  0  0  0  0
   -6.7250   -4.2990   -5.9050 C   0  0  0  0  0  0  0  0  0  0  0  0
   -7.6570   -3.8580   -6.8460 C   0  0  0  0  0  0  0  0  0  0  0  0
   -8.7280   -4.6740   -7.2010 C   0  0  0  0  0  0  0  0  0  0  0  0
   -8.8720   -5.9310   -6.6190 C   0  0  0  0  0  0  0  0  0  0  0  0
   -7.9410   -6.3770   -5.6800 C   0  0  0  0  0  0  0  0  0  0  0  0
   -6.8070   -5.1040   -2.7880 H   0  0  0  0  0  0  0  0  0  0  0  0
   -5.3690   -5.9610   -2.3410 H   0  0  0  0  0  0  0  0  0  0  0  0
   -4.7900   -7.0380   -5.6980 H   0  0  0  0  0  0  0  0  0  0  0  0
   -4.1770   -7.1460   -4.0810 H   0  0  0  0  0  0  0  0  0  0  0  0
   -5.8816   -3.6501   -5.6266 H   0  0  0  0  0  0  0  0  0  0  0  0
   -7.5453   -2.8656   -7.3072 H   0  0  0  0  0  0  0  0  0  0  0  0
   -9.4617   -4.3251   -7.9426 H   0  0  0  0  0  0  0  0  0  0  0  0
   -9.7202   -6.5727   -6.8997 H   0  0  0  0  0  0  0  0  0  0  0  0
   -8.0577   -7.3719   -5.2255 H   0  0  0  0  0  0  0  0  0  0  0  0
  1  2  1  0
  2  3  2  0
  2  4  1  0
  4  5  2  0
  5  6  1  0
  6  7  2  0
  7  8  1  0
  8  9  2  0
  9  4  1  0
  1 10  1  0
  1 11  1  0
  3 12  1  0
  3 13  1  0
  5 14  1  0
  6 15  1  0
  7 16  1  0
  8 17  1  0
  9 18  1  0
M  CHG  1   3   1
M  END
>  <meeko>  (5) 
{"is_sidechain": [false], "free_energy": -4.712, "intermolecular_energy": -5.003, "internal_energy": -0.02}

$$$$
1c5z_ligand
     RDKit          3D

 18 18  0  0  0  0  0  0  0  0999 V2000
   -8.9860    8.6060   -7.3950 N   0  0  0  0  0  0  0  0  0  0  0  0
   -9.6650    7.4960   -7.2050 C   0  0  0  0  0  0  0  0  0  0  0  0
   -9.4160    6.4100   -7.9040 N   0  0  0  0  0  0  0  0  0  0  0  0
  -10.7250    7.4680   -6.1900 C   0  0  0  0  0  0  0  0  0  0  0  0
  -12.0450    7.1460   -6.5440 C   0  0  0  0  0  0  0  0  0  0  0  0
  -13.0520    7.1200   -5.5780 C   0  0  0  0  0  0  0  0  0  0  0  0
  -12.7510    7.4150   -4.2500 C   0  0  0  0  0  0  0  0  0  0  0  0
  -11.4460    7.7380   -3.8850 C   0  0  0  0  0  0  0  0  0  0  0  0
  -10.4360    7.7630   -4.8480 C   0  0  0  0  0  0  0  0  0  0  0  0
   -9.1810    9.4190   -6.8190 H   0  0  0  0  0  0  0  0  0  0  0  0
   -8.2470    8.6840   -8.0790 H   0  0  0  0  0  0  0  0  0  0  0  0
   -9.9740    5.5750   -7.7520 H   0  0  0  0  0  0  0  0  0  0  0  0
   -8.7010    6.3700   -8.6160 H   0  0  0  0  0  0  0  0  0  0  0  0
  -12.2874    6.9123   -7.5912 H   0  0  0  0  0  0  0  0  0  0  0  0
  -14.0832    6.8666   -5.8651 H   0  0  0  0  0  0  0  0  0  0  0  0
  -13.5448    7.3928   -3.4888 H   0  0  0  0  0  0  0  0  0  0  0  0
  -11.2112    7.9736   -2.8365 H   0  0  0  0  0  0  0  0  0  0  0  0
   -9.4066    8.0155   -4.5536 H   0  0  0  0  0  0  0  0  0  0  0  0
  1  2  1  0
  2  3  2  0
  2  4  1  0
  4  5  2  0
  5  6  1  0
  6  7  2  0
  7  8  1  0
  8  9  2  0
  9  4  1  0
  1 10  1  0
  1 11  1  0
  3 12  1  0
  3 13  1  0
  5 14  1  0
  6 15  1  0
  7 16  1  0
  8 17  1  0
  9 18  1  0
M  CHG  1   3   1
M  END
>  <meeko>  (6) 
{"is_sidechain": [false], "free_energy": -4.679, "intermolecular_energy": -4.963, "internal_energy": -0.025}

$$$$
1c5z_ligand
     RDKit          3D

 18 18  0  0  0  0  0  0  0  0999 V2000
   -7.9010   -2.6750   -3.5840 N   0  0  0  0  0  0  0  0  0  0  0  0
   -7.9290   -3.4130   -4.6730 C   0  0  0  0  0  0  0  0  0  0  0  0
   -8.5360   -3.0030   -5.7650 N   0  0  0  0  0  0  0  0  0  0  0  0
   -7.2690   -4.7240   -4.6670 C   0  0  0  0  0  0  0  0  0  0  0  0
   -8.0260   -5.9040   -4.5730 C   0  0  0  0  0  0  0  0  0  0  0  0
   -7.3970   -7.1500   -4.5690 C   0  0  0  0  0  0  0  0  0  0  0  0
   -6.0090   -7.2310   -4.6570 C   0  0  0  0  0  0  0  0  0  0  0  0
   -5.2470   -6.0690   -4.7500 C   0  0  0  0  0  0  0  0  0  0  0  0
   -5.8720   -4.8210   -4.7570 C   0  0  0  0  0  0  0  0  0  0  0  0
   -7.3990   -3.0060   -2.7660 H   0  0  0  0  0  0  0  0  0  0  0  0
   -8.3370   -1.7660   -3.5290 H   0  0  0  0  0  0  0  0  0  0  0  0
   -8.5610   -3.6060   -6.5830 H   0  0  0  0  0  0  0  0  0  0  0  0
   -9.0070   -2.1120   -5.8270 H   0  0  0  0  0  0  0  0  0  0  0  0
   -9.1221   -5.8454   -4.5021 H   0  0  0  0  0  0  0  0  0  0  0  0
   -7.9977   -8.0687   -4.4963 H   0  0  0  0  0  0  0  0  0  0  0  0
   -5.5145   -8.2136   -4.6530 H   0  0  0  0  0  0  0  0  0  0  0  0
   -4.1511   -6.1348   -4.8180 H   0  0  0  0  0  0  0  0  0  0  0  0
   -5.2650   -3.9068   -4.8336 H   0  0  0  0  0  0  0  0  0  0  0  0
  1  2  1  0
  2  3  2  0
  2  4  1  0
  4  5  2  0
  5  6  1  0
  6  7  2  0
  7  8  1  0
  8  9  2  0
  9  4  1  0
  1 10  1  0
  1 11  1  0
  3 12  1  0
  3 13  1  0
  5 14  1  0
  6 15  1  0
  7 16  1  0
  8 17  1  0
  9 18  1  0
M  CHG  1   3   1
M  END
>  <meeko>  (7) 
{"is_sidechain": [false], "free_energy": -4.608, "intermolecular_energy": -4.892, "internal_energy": -0.021}

$$$$
1c5z_ligand
     RDKit          3D

 18 18  0  0  0  0  0  0  0  0999 V2000
   -9.7590    5.5170   -8.0870 N   0  0  0  0  0  0  0  0  0  0  0  0
   -9.6250    6.5960   -7.3470 C   0  0  0  0  0  0  0  0  0  0  0  0
   -8.9310    7.6330   -7.7640 N   0  0  0  0  0  0  0  0  0  0  0  0
  -10.2630    6.6440   -6.0270 C   0  0  0  0  0  0  0  0  0  0  0  0
  -10.6150    5.4590   -5.3600 C   0  0  0  0  0  0  0  0  0  0  0  0
  -11.2210    5.5070   -4.1040 C   0  0  0  0  0  0  0  0  0  0  0  0
  -11.4820    6.7350   -3.5010 C   0  0  0  0  0  0  0  0  0  0  0  0
  -11.1390    7.9180   -4.1520 C   0  0  0  0  0  0  0  0  0  0  0  0
  -10.5310    7.8750   -5.4070 C   0  0  0  0  0  0  0  0  0  0  0  0
  -10.3250    4.7440   -7.7500 H   0  0  0  0  0  0  0  0  0  0  0  0
   -9.3420    5.4270   -9.0030 H   0  0  0  0  0  0  0  0  0  0  0  0
   -8.8250    8.4430   -7.1610 H   0  0  0  0  0  0  0  0  0  0  0  0
   -8.4690    7.6570   -8.6620 H   0  0  0  0  0  0  0  0  0  0  0  0
  -10.4115    4.4861   -5.8312 H   0  0  0  0  0  0  0  0  0  0  0  0
  -11.4930    4.5736   -3.5894 H   0  0  0  0  0  0  0  0  0  0  0  0
  -11.9591    6.7708   -2.5105 H   0  0  0  0  0  0  0  0  0  0  0  0
  -11.3478    8.8874   -3.6758 H   0  0  0  0  0  0  0  0  0  0  0  0
  -10.2596    8.8124   -5.9145 H   0  0  0  0  0  0  0  0  0  0  0  0
  1  2  1  0
  2  3  2  0
  2  4  1  0
  4  5  2  0
  5  6  1  0
  6  7  2  0
  7  8  1  0
  8  9  2  0
  9  4  1  0
  1 10  1  0
  1 11  1  0
  3 12  1  0
  3 13  1  0
  5 14  1  0
  6 15  1  0
  7 16  1  0
  8 17  1  0
  9 18  1  0
M  CHG  1   3   1
M  END
>  <meeko>  (8) 
{"is_sidechain": [false], "free_energy": -4.439, "intermolecular_energy": -4.701, "internal_energy": -0.034}

$$$$
1c5z_ligand
     RDKit          3D

 18 18  0  0  0  0  0  0  0  0999 V2000
   -9.6150   -4.5160   -7.2780 N   0  0  0  0  0  0  0  0  0  0  0  0
   -8.3580   -4.8870   -7.3960 C   0  0  0  0  0  0  0  0  0  0  0  0
   -7.7890   -5.0180   -8.5740 N   0  0  0  0  0  0  0  0  0  0  0  0
   -7.5750   -5.1630   -6.1860 C   0  0  0  0  0  0  0  0  0  0  0  0
   -6.7030   -4.1950   -5.6640 C   0  0  0  0  0  0  0  0  0  0  0  0
   -5.9600   -4.4580   -4.5110 C   0  0  0  0  0  0  0  0  0  0  0  0
   -6.0800   -5.6890   -3.8710 C   0  0  0  0  0  0  0  0  0  0  0  0
   -6.9410   -6.6590   -4.3790 C   0  0  0  0  0  0  0  0  0  0  0  0
   -7.6880   -6.3990   -5.5290 C   0  0  0  0  0  0  0  0  0  0  0  0
  -10.0180   -4.3950   -6.3540 H   0  0  0  0  0  0  0  0  0  0  0  0
  -10.2020   -4.3140   -8.0740 H   0  0  0  0  0  0  0  0  0  0  0  0
   -6.8240   -5.3300   -8.6340 H   0  0  0  0  0  0  0  0  0  0  0  0
   -8.2780   -4.8440   -9.4410 H   0  0  0  0  0  0  0  0  0  0  0  0
   -6.6040   -3.2217   -6.1669 H   0  0  0  0  0  0  0  0  0  0  0  0
   -5.2800   -3.6928   -4.1084 H   0  0  0  0  0  0  0  0  0  0  0  0
   -5.4941   -5.8956   -2.9632 H   0  0  0  0  0  0  0  0  0  0  0  0
   -7.0324   -7.6315   -3.8730 H   0  0  0  0  0  0  0  0  0  0  0  0
   -8.3696   -7.1671   -5.9232 H   0  0  0  0  0  0  0  0  0  0  0  0
  1  2  1  0
  2  3  2  0
  2  4  1  0
  4  5  2  0
  5  6  1  0
  6  7  2  0
  7  8  1  0
  8  9  2  0
  9  4  1  0
  1 10  1  0
  1 11  1  0
  3 12  1  0
  3 13  1  0
  5 14  1  0
  6 15  1  0
  7 16  1  0
  8 17  1  0
  9 18  1  0
M  CHG  1   3   1
M  END
>  <meeko>  (9) 
{"is_sidechain": [false], "free_energy": -4.435, "intermolecular_energy": -4.71, "internal_energy": -0.021}

$$$$
