2fxs_ligand
     RDKit          3D

 48 49  0  0  0  0  0  0  0  0999 V2000
    0.2160    3.5010   -0.8930 C   0  0  0  0  0  0  0  0  0  0  0  0
   -1.1570    3.3010   -1.2350 O   0  0  0  0  0  0  0  0  0  0  0  0
   -1.9980    3.3080   -0.1790 C   0  0  0  0  0  0  0  0  0  0  0  0
   -1.8630    2.7040    0.8740 O   0  0  0  0  0  0  0  0  0  0  0  0
   -3.0780    4.2950   -0.3840 C   0  0  0  0  0  0  0  0  0  0  0  0
   -2.7900    5.6160    0.0090 C   0  0  0  0  0  0  0  0  0  0  0  0
   -1.6120    5.9830    0.6070 O   0  0  0  0  0  0  0  0  0  0  0  0
   -3.7150    6.6340   -0.1850 C   0  0  0  0  0  0  0  0  0  0  0  0
   -4.9500    6.3270   -0.7340 C   0  0  0  0  0  0  0  0  0  0  0  0
   -5.8320    7.3630   -0.8920 O   0  0  0  0  0  0  0  0  0  0  0  0
   -5.2810    5.0080   -1.0820 C   0  0  0  0  0  0  0  0  0  0  0  0
   -6.8830    4.7220   -1.6850 Cl  0  0  0  0  0  0  0  0  0  0  0  0
   -4.3490    3.9590   -0.9150 C   0  0  0  0  0  0  0  0  0  0  0  0
   -4.7440    2.5200   -1.1950 C   0  0  0  0  0  0  0  0  0  0  0  0
   -4.3000    2.0820   -2.5910 C   0  0  0  0  0  0  0  0  0  0  0  0
   -5.4670    2.0230   -3.5630 C   0  0  0  0  0  0  0  0  0  0  0  0
   -5.3880    2.4590   -4.7050 O   0  0  0  0  0  0  0  0  0  0  0  0
   -6.5720    1.4080   -2.9940 N   0  0  0  0  0  0  0  0  0  0  0  0
   -7.8230    1.1630   -3.5430 C   0  0  0  0  0  0  0  0  0  0  0  0
   -8.7300    2.1120   -3.8310 C   0  0  0  0  0  0  0  0  0  0  0  0
  -10.0490    1.8410   -4.4880 C   0  0  2  0  0  0  0  0  0  0  0  0
  -11.0730    2.2490   -3.5900 O   0  0  0  0  0  0  0  0  0  0  0  0
  -10.2820    0.3880   -4.8680 C   0  0  0  0  0  0  0  0  0  0  0  0
  -11.4890    0.1960   -5.5140 O   0  0  0  0  0  0  0  0  0  0  0  0
  -11.7110    0.8830   -6.7400 C   0  0  0  0  0  0  0  0  0  0  0  0
   -9.3850   -0.5720   -4.5710 C   0  0  0  0  0  0  0  0  0  0  0  0
   -8.1130   -0.3050   -3.8240 C   0  0  1  0  0  0  0  0  0  0  0  0
   -7.0340   -0.8330   -4.5940 O   0  0  0  0  0  0  0  0  0  0  0  0
    0.3227    3.5165    0.2017 H   0  0  0  0  0  0  0  0  0  0  0  0
    0.8206    2.6814   -1.3087 H   0  0  0  0  0  0  0  0  0  0  0  0
    0.5616    4.4590   -1.3087 H   0  0  0  0  0  0  0  0  0  0  0  0
   -0.9200    6.0930   -0.0800 H   0  0  0  0  0  0  0  0  0  0  0  0
   -3.4706    7.6698    0.0933 H   0  0  0  0  0  0  0  0  0  0  0  0
   -5.9880    7.7530   -0.0120 H   0  0  0  0  0  0  0  0  0  0  0  0
   -4.2705    1.8668   -0.4473 H   0  0  0  0  0  0  0  0  0  0  0  0
   -5.8401    2.4446   -1.1404 H   0  0  0  0  0  0  0  0  0  0  0  0
   -3.5574    2.7997   -2.9697 H   0  0  0  0  0  0  0  0  0  0  0  0
   -3.8704    1.0725   -2.5116 H   0  0  0  0  0  0  0  0  0  0  0  0
   -6.4470    1.0260   -2.0590 H   0  0  0  0  0  0  0  0  0  0  0  0
   -8.4890    3.1525   -3.5680 H   0  0  0  0  0  0  0  0  0  0  0  0
  -10.0568    2.4037   -5.4332 H   0  0  0  0  0  0  0  0  0  0  0  0
  -11.4670    1.4250   -3.2550 H   0  0  0  0  0  0  0  0  0  0  0  0
  -12.0430    1.9104   -6.5297 H   0  0  0  0  0  0  0  0  0  0  0  0
  -10.7762    0.9110   -7.3191 H   0  0  0  0  0  0  0  0  0  0  0  0
  -12.4855    0.3587   -7.3191 H   0  0  0  0  0  0  0  0  0  0  0  0
   -9.5962   -1.6026   -4.8924 H   0  0  0  0  0  0  0  0  0  0  0  0
   -8.2261   -0.7845   -2.8405 H   0  0  0  0  0  0  0  0  0  0  0  0
   -7.3040   -0.7490   -5.5250 H   0  0  0  0  0  0  0  0  0  0  0  0
  1  2  1  0
  2  3  1  0
  3  4  2  0
  3  5  1  0
  5  6  2  0
  6  7  1  0
  6  8  1  0
  8  9  2  0
  9 10  1  0
  9 11  1  0
 11 12  1  0
 11 13  2  0
 13 14  1  0
 14 15  1  0
 15 16  1  0
 16 17  2  0
 16 18  1  0
 18 19  1  0
 19 20  2  0
 20 21  1  0
 21 22  1  0
 21 23  1  0
 23 24  1  0
 24 25  1  0
 23 26  2  0
 26 27  1  0
 27 28  1  0
 13  5  1  0
 27 19  1  0
  1 29  1  0
  1 30  1  0
  1 31  1  0
  7 32  1  0
  8 33  1  0
 10 34  1  0
 14 35  1  0
 14 36  1  0
 15 37  1  0
 15 38  1  0
 18 39  1  0
 20 40  1  0
 21 41  1  6
 22 42  1  0
 25 43  1  0
 25 44  1  0
 25 45  1  0
 26 46  1  0
 27 47  1  1
 28 48  1  0
M  END
>  <meeko>  (1) 
{"is_sidechain": [false], "free_energy": -7.212, "intermolecular_energy": -11.007, "internal_energy": -1.39}

$$$$
2fxs_ligand
     RDKit          3D

 48 49  0  0  0  0  0  0  0  0999 V2000
   -7.4840    2.0750   -3.7820 C   0  0  0  0  0  0  0  0  0  0  0  0
   -6.5650    1.8050   -4.8410 O   0  0  0  0  0  0  0  0  0  0  0  0
   -7.1400    1.6830   -6.0560 C   0  0  0  0  0  0  0  0  0  0  0  0
   -8.3310    1.7540   -6.3180 O   0  0  0  0  0  0  0  0  0  0  0  0
   -6.1080    1.6020   -7.1110 C   0  0  0  0  0  0  0  0  0  0  0  0
   -5.3190    0.4360   -7.1140 C   0  0  0  0  0  0  0  0  0  0  0  0
   -5.4330   -0.5520   -6.1710 O   0  0  0  0  0  0  0  0  0  0  0  0
   -4.3540    0.2330   -8.0930 C   0  0  0  0  0  0  0  0  0  0  0  0
   -4.1430    1.2170   -9.0470 C   0  0  0  0  0  0  0  0  0  0  0  0
   -3.1710    0.9760   -9.9810 O   0  0  0  0  0  0  0  0  0  0  0  0
   -4.8800    2.4120   -9.0300 C   0  0  0  0  0  0  0  0  0  0  0  0
   -4.4810    3.6090  -10.2210 Cl  0  0  0  0  0  0  0  0  0  0  0  0
   -5.8820    2.6320   -8.0590 C   0  0  0  0  0  0  0  0  0  0  0  0
   -6.6050    3.9640   -7.9810 C   0  0  0  0  0  0  0  0  0  0  0  0
   -5.7160    5.0460   -7.3670 C   0  0  0  0  0  0  0  0  0  0  0  0
   -5.8520    5.0990   -5.8540 C   0  0  0  0  0  0  0  0  0  0  0  0
   -6.9280    5.2990   -5.3030 O   0  0  0  0  0  0  0  0  0  0  0  0
   -4.6370    4.8720   -5.2260 N   0  0  0  0  0  0  0  0  0  0  0  0
   -4.3410    4.8420   -3.8700 C   0  0  0  0  0  0  0  0  0  0  0  0
   -4.2210    3.7210   -3.1390 C   0  0  0  0  0  0  0  0  0  0  0  0
   -3.8320    3.7010   -1.6920 C   0  0  2  0  0  0  0  0  0  0  0  0
   -4.9040    3.1180   -0.9630 O   0  0  0  0  0  0  0  0  0  0  0  0
   -3.5210    5.0640   -1.0980 C   0  0  0  0  0  0  0  0  0  0  0  0
   -3.1200    4.9890    0.2220 O   0  0  0  0  0  0  0  0  0  0  0  0
   -1.8880    4.3390    0.5140 C   0  0  0  0  0  0  0  0  0  0  0  0
   -3.6520    6.1940   -1.8200 C   0  0  0  0  0  0  0  0  0  0  0  0
   -4.1370    6.2120   -3.2370 C   0  0  1  0  0  0  0  0  0  0  0  0
   -3.1820    6.9270   -4.0190 O   0  0  0  0  0  0  0  0  0  0  0  0
   -6.9820    1.9275   -2.8144 H   0  0  0  0  0  0  0  0  0  0  0  0
   -7.8358    3.1145   -3.8579 H   0  0  0  0  0  0  0  0  0  0  0  0
   -8.3421    1.3910   -3.8579 H   0  0  0  0  0  0  0  0  0  0  0  0
   -6.2770   -1.0340   -6.3080 H   0  0  0  0  0  0  0  0  0  0  0  0
   -3.7652   -0.6960   -8.1110 H   0  0  0  0  0  0  0  0  0  0  0  0
   -2.9890    1.8170  -10.4400 H   0  0  0  0  0  0  0  0  0  0  0  0
   -6.8961    4.2732   -8.9957 H   0  0  0  0  0  0  0  0  0  0  0  0
   -7.4913    3.8400   -7.3415 H   0  0  0  0  0  0  0  0  0  0  0  0
   -4.6676    4.8325   -7.6227 H   0  0  0  0  0  0  0  0  0  0  0  0
   -6.0325    6.0184   -7.7724 H   0  0  0  0  0  0  0  0  0  0  0  0
   -3.8510    4.6390   -5.8280 H   0  0  0  0  0  0  0  0  0  0  0  0
   -4.4206    2.7587   -3.6332 H   0  0  0  0  0  0  0  0  0  0  0  0
   -2.8985    3.1235   -1.6208 H   0  0  0  0  0  0  0  0  0  0  0  0
   -5.6730    3.6910   -1.1300 H   0  0  0  0  0  0  0  0  0  0  0  0
   -1.7588    4.2708    1.6043 H   0  0  0  0  0  0  0  0  0  0  0  0
   -1.8956    3.3275    0.0817 H   0  0  0  0  0  0  0  0  0  0  0  0
   -1.0574    4.9163    0.0817 H   0  0  0  0  0  0  0  0  0  0  0  0
   -3.3897    7.1509   -1.3452 H   0  0  0  0  0  0  0  0  0  0  0  0
   -5.1294    6.6859   -3.2164 H   0  0  0  0  0  0  0  0  0  0  0  0
   -2.7770    7.5760   -3.4170 H   0  0  0  0  0  0  0  0  0  0  0  0
  1  2  1  0
  2  3  1  0
  3  4  2  0
  3  5  1  0
  5  6  2  0
  6  7  1  0
  6  8  1  0
  8  9  2  0
  9 10  1  0
  9 11  1  0
 11 12  1  0
 11 13  2  0
 13 14  1  0
 14 15  1  0
 15 16  1  0
 16 17  2  0
 16 18  1  0
 18 19  1  0
 19 20  2  0
 20 21  1  0
 21 22  1  0
 21 23  1  0
 23 24  1  0
 24 25  1  0
 23 26  2  0
 26 27  1  0
 27 28  1  0
 13  5  1  0
 27 19  1  0
  1 29  1  0
  1 30  1  0
  1 31  1  0
  7 32  1  0
  8 33  1  0
 10 34  1  0
 14 35  1  0
 14 36  1  0
 15 37  1  0
 15 38  1  0
 18 39  1  0
 20 40  1  0
 21 41  1  6
 22 42  1  0
 25 43  1  0
 25 44  1  0
 25 45  1  0
 26 46  1  0
 27 47  1  1
 28 48  1  0
M  END
>  <meeko>  (2) 
{"is_sidechain": [false], "free_energy": -6.947, "intermolecular_energy": -10.344, "internal_energy": -1.648}

$$$$
2fxs_ligand
     RDKit          3D

 48 49  0  0  0  0  0  0  0  0999 V2000
   -6.5460    5.2000   -4.0700 C   0  0  0  0  0  0  0  0  0  0  0  0
   -6.2360    5.7910   -2.8070 O   0  0  0  0  0  0  0  0  0  0  0  0
   -6.3000    4.9360   -1.7640 C   0  0  0  0  0  0  0  0  0  0  0  0
   -7.2580    4.2570   -1.4260 O   0  0  0  0  0  0  0  0  0  0  0  0
   -4.9720    4.7880   -1.1340 C   0  0  0  0  0  0  0  0  0  0  0  0
   -4.3410    5.9810   -0.7340 C   0  0  0  0  0  0  0  0  0  0  0  0
   -4.8730    7.2250   -0.9590 O   0  0  0  0  0  0  0  0  0  0  0  0
   -3.1130    5.9540   -0.0870 C   0  0  0  0  0  0  0  0  0  0  0  0
   -2.4880    4.7350    0.1250 C   0  0  0  0  0  0  0  0  0  0  0  0
   -1.2730    4.7620    0.7550 O   0  0  0  0  0  0  0  0  0  0  0  0
   -3.0720    3.5350   -0.3150 C   0  0  0  0  0  0  0  0  0  0  0  0
   -2.1680    2.0750   -0.0720 Cl  0  0  0  0  0  0  0  0  0  0  0  0
   -4.3300    3.5360   -0.9560 C   0  0  0  0  0  0  0  0  0  0  0  0
   -4.9110    2.2520   -1.5220 C   0  0  0  0  0  0  0  0  0  0  0  0
   -4.4350    2.0080   -2.9540 C   0  0  0  0  0  0  0  0  0  0  0  0
   -5.5940    1.7170   -3.8930 C   0  0  0  0  0  0  0  0  0  0  0  0
   -5.4320    1.5500   -5.0970 O   0  0  0  0  0  0  0  0  0  0  0  0
   -6.7980    1.6490   -3.2090 N   0  0  0  0  0  0  0  0  0  0  0  0
   -8.0750    1.4100   -3.6980 C   0  0  0  0  0  0  0  0  0  0  0  0
   -8.9600    2.3670   -4.0240 C   0  0  0  0  0  0  0  0  0  0  0  0
  -10.3100    2.0940   -4.6160 C   0  0  2  0  0  0  0  0  0  0  0  0
  -11.2880    2.6010   -3.7170 O   0  0  0  0  0  0  0  0  0  0  0  0
  -10.6030    0.6270   -4.8810 C   0  0  0  0  0  0  0  0  0  0  0  0
  -11.8370    0.4310   -5.4720 O   0  0  0  0  0  0  0  0  0  0  0  0
  -12.0660    1.0010   -6.7550 C   0  0  0  0  0  0  0  0  0  0  0  0
   -9.7270   -0.3390   -4.5450 C   0  0  0  0  0  0  0  0  0  0  0  0
   -8.4220   -0.0640   -3.8620 C   0  0  1  0  0  0  0  0  0  0  0  0
   -7.3880   -0.6830   -4.6260 O   0  0  0  0  0  0  0  0  0  0  0  0
   -7.0515    4.2363   -3.9097 H   0  0  0  0  0  0  0  0  0  0  0  0
   -7.2080    5.8715   -4.6365 H   0  0  0  0  0  0  0  0  0  0  0  0
   -5.6172    5.0371   -4.6365 H   0  0  0  0  0  0  0  0  0  0  0  0
   -5.7620    7.1290   -1.3630 H   0  0  0  0  0  0  0  0  0  0  0  0
   -2.6420    6.8881    0.2531 H   0  0  0  0  0  0  0  0  0  0  0  0
   -0.5860    4.8290    0.0650 H   0  0  0  0  0  0  0  0  0  0  0  0
   -4.5954    1.4079   -0.8912 H   0  0  0  0  0  0  0  0  0  0  0  0
   -6.0072    2.3432   -1.5324 H   0  0  0  0  0  0  0  0  0  0  0  0
   -3.9046    2.9034   -3.3102 H   0  0  0  0  0  0  0  0  0  0  0  0
   -3.7713    1.1308   -2.9485 H   0  0  0  0  0  0  0  0  0  0  0  0
   -6.7490    1.7300   -2.1960 H   0  0  0  0  0  0  0  0  0  0  0  0
   -8.6767    3.4148   -3.8456 H   0  0  0  0  0  0  0  0  0  0  0  0
  -10.3329    2.5864   -5.5994 H   0  0  0  0  0  0  0  0  0  0  0  0
  -11.4110    3.5340   -3.9690 H   0  0  0  0  0  0  0  0  0  0  0  0
  -12.4737    2.0159   -6.6379 H   0  0  0  0  0  0  0  0  0  0  0  0
  -11.1173    1.0488   -7.3096 H   0  0  0  0  0  0  0  0  0  0  0  0
  -12.7841    0.3791   -7.3096 H   0  0  0  0  0  0  0  0  0  0  0  0
   -9.9822   -1.3820   -4.7839 H   0  0  0  0  0  0  0  0  0  0  0  0
   -8.5160   -0.4680   -2.8432 H   0  0  0  0  0  0  0  0  0  0  0  0
   -6.6720   -0.8780   -3.9970 H   0  0  0  0  0  0  0  0  0  0  0  0
  1  2  1  0
  2  3  1  0
  3  4  2  0
  3  5  1  0
  5  6  2  0
  6  7  1  0
  6  8  1  0
  8  9  2  0
  9 10  1  0
  9 11  1  0
 11 12  1  0
 11 13  2  0
 13 14  1  0
 14 15  1  0
 15 16  1  0
 16 17  2  0
 16 18  1  0
 18 19  1  0
 19 20  2  0
 20 21  1  0
 21 22  1  0
 21 23  1  0
 23 24  1  0
 24 25  1  0
 23 26  2  0
 26 27  1  0
 27 28  1  0
 13  5  1  0
 27 19  1  0
  1 29  1  0
  1 30  1  0
  1 31  1  0
  7 32  1  0
  8 33  1  0
 10 34  1  0
 14 35  1  0
 14 36  1  0
 15 37  1  0
 15 38  1  0
 18 39  1  0
 20 40  1  0
 21 41  1  6
 22 42  1  0
 25 43  1  0
 25 44  1  0
 25 45  1  0
 26 46  1  0
 27 47  1  1
 28 48  1  0
M  END
>  <meeko>  (3) 
{"is_sidechain": [false], "free_energy": -6.829, "intermolecular_energy": -10.192, "internal_energy": -1.621}

$$$$
2fxs_ligand
     RDKit          3D

 48 49  0  0  0  0  0  0  0  0999 V2000
  -10.6160    0.5390   -4.8440 C   0  0  0  0  0  0  0  0  0  0  0  0
   -9.8710    1.7070   -5.1940 O   0  0  0  0  0  0  0  0  0  0  0  0
   -8.7400    1.8780   -4.4780 C   0  0  0  0  0  0  0  0  0  0  0  0
   -8.6540    2.1640   -3.2930 O   0  0  0  0  0  0  0  0  0  0  0  0
   -7.5560    1.5140   -5.2850 C   0  0  0  0  0  0  0  0  0  0  0  0
   -6.9620    0.2740   -4.9840 C   0  0  0  0  0  0  0  0  0  0  0  0
   -7.3930   -0.5410   -3.9690 O   0  0  0  0  0  0  0  0  0  0  0  0
   -5.8750   -0.1900   -5.7140 C   0  0  0  0  0  0  0  0  0  0  0  0
   -5.3490    0.6060   -6.7200 C   0  0  0  0  0  0  0  0  0  0  0  0
   -4.2690    0.1110   -7.4010 O   0  0  0  0  0  0  0  0  0  0  0  0
   -5.8900    1.8710   -7.0010 C   0  0  0  0  0  0  0  0  0  0  0  0
   -5.1060    2.8180   -8.2250 Cl  0  0  0  0  0  0  0  0  0  0  0  0
   -7.0090    2.3540   -6.2870 C   0  0  0  0  0  0  0  0  0  0  0  0
   -7.5280    3.7620   -6.5220 C   0  0  0  0  0  0  0  0  0  0  0  0
   -6.4990    4.8120   -6.1030 C   0  0  0  0  0  0  0  0  0  0  0  0
   -6.1770    4.7290   -4.6210 C   0  0  0  0  0  0  0  0  0  0  0  0
   -7.0060    4.9910   -3.7570 O   0  0  0  0  0  0  0  0  0  0  0  0
   -4.8740    4.3070   -4.4070 N   0  0  0  0  0  0  0  0  0  0  0  0
   -4.1990    4.1080   -3.2100 C   0  0  0  0  0  0  0  0  0  0  0  0
   -3.4670    5.0440   -2.5810 C   0  0  0  0  0  0  0  0  0  0  0  0
   -2.8020    4.8360   -1.2540 C   0  0  2  0  0  0  0  0  0  0  0  0
   -1.4020    4.9990   -1.4420 O   0  0  0  0  0  0  0  0  0  0  0  0
   -3.0550    3.4780   -0.6220 C   0  0  0  0  0  0  0  0  0  0  0  0
   -2.4620    3.3520    0.6200 O   0  0  0  0  0  0  0  0  0  0  0  0
   -2.3190    2.0450    1.1660 C   0  0  0  0  0  0  0  0  0  0  0  0
   -3.7750    2.5290   -1.2520 C   0  0  0  0  0  0  0  0  0  0  0  0
   -4.3540    2.7120   -2.6220 C   0  0  1  0  0  0  0  0  0  0  0  0
   -5.7460    2.4090   -2.5540 O   0  0  0  0  0  0  0  0  0  0  0  0
  -10.6706    0.4535   -3.7487 H   0  0  0  0  0  0  0  0  0  0  0  0
  -11.6327    0.6152   -5.2569 H   0  0  0  0  0  0  0  0  0  0  0  0
  -10.1183   -0.3508   -5.2569 H   0  0  0  0  0  0  0  0  0  0  0  0
   -8.3650   -0.4530   -3.8740 H   0  0  0  0  0  0  0  0  0  0  0  0
   -5.4375   -1.1756   -5.4968 H   0  0  0  0  0  0  0  0  0  0  0  0
   -3.7860    0.8700   -7.7780 H   0  0  0  0  0  0  0  0  0  0  0  0
   -7.7521    3.8871   -7.5916 H   0  0  0  0  0  0  0  0  0  0  0  0
   -8.4342    3.9032   -5.9147 H   0  0  0  0  0  0  0  0  0  0  0  0
   -5.5744    4.6530   -6.6773 H   0  0  0  0  0  0  0  0  0  0  0  0
   -6.9247    5.8061   -6.3044 H   0  0  0  0  0  0  0  0  0  0  0  0
   -4.3380    4.0500   -5.2330 H   0  0  0  0  0  0  0  0  0  0  0  0
   -3.3489    6.0222   -3.0701 H   0  0  0  0  0  0  0  0  0  0  0  0
   -3.2331    5.5737   -0.5612 H   0  0  0  0  0  0  0  0  0  0  0  0
   -1.0920    4.1580   -1.8220 H   0  0  0  0  0  0  0  0  0  0  0  0
   -2.3254    2.1038    2.2644 H   0  0  0  0  0  0  0  0  0  0  0  0
   -3.1534    1.4130    0.8277 H   0  0  0  0  0  0  0  0  0  0  0  0
   -1.3677    1.6084    0.8277 H   0  0  0  0  0  0  0  0  0  0  0  0
   -3.9461    1.5731   -0.7353 H   0  0  0  0  0  0  0  0  0  0  0  0
   -3.7910    2.0401   -3.2865 H   0  0  0  0  0  0  0  0  0  0  0  0
   -6.1920    3.0760   -3.1060 H   0  0  0  0  0  0  0  0  0  0  0  0
  1  2  1  0
  2  3  1  0
  3  4  2  0
  3  5  1  0
  5  6  2  0
  6  7  1  0
  6  8  1  0
  8  9  2  0
  9 10  1  0
  9 11  1  0
 11 12  1  0
 11 13  2  0
 13 14  1  0
 14 15  1  0
 15 16  1  0
 16 17  2  0
 16 18  1  0
 18 19  1  0
 19 20  2  0
 20 21  1  0
 21 22  1  0
 21 23  1  0
 23 24  1  0
 24 25  1  0
 23 26  2  0
 26 27  1  0
 27 28  1  0
 13  5  1  0
 27 19  1  0
  1 29  1  0
  1 30  1  0
  1 31  1  0
  7 32  1  0
  8 33  1  0
 10 34  1  0
 14 35  1  0
 14 36  1  0
 15 37  1  0
 15 38  1  0
 18 39  1  0
 20 40  1  0
 21 41  1  1
 22 42  1  0
 25 43  1  0
 25 44  1  0
 25 45  1  0
 26 46  1  0
 27 47  1  6
 28 48  1  0
M  END
>  <meeko>  (4) 
{"is_sidechain": [false], "free_energy": -6.665, "intermolecular_energy": -9.874, "internal_energy": -1.688}

$$$$
2fxs_ligand
     RDKit          3D

 48 49  0  0  0  0  0  0  0  0999 V2000
   -5.7270    0.1110   -5.9420 C   0  0  0  0  0  0  0  0  0  0  0  0
   -6.5190    1.2030   -5.4710 O   0  0  0  0  0  0  0  0  0  0  0  0
   -7.1060    0.9870   -4.2750 C   0  0  0  0  0  0  0  0  0  0  0  0
   -6.5510    0.8630   -3.1940 O   0  0  0  0  0  0  0  0  0  0  0  0
   -8.5760    1.0710   -4.3970 C   0  0  0  0  0  0  0  0  0  0  0  0
   -9.2640   -0.1570   -4.4330 C   0  0  0  0  0  0  0  0  0  0  0  0
   -8.6320   -1.3740   -4.4200 O   0  0  0  0  0  0  0  0  0  0  0  0
  -10.6510   -0.1930   -4.4950 C   0  0  0  0  0  0  0  0  0  0  0  0
  -11.3550    0.9990   -4.5670 C   0  0  0  0  0  0  0  0  0  0  0  0
  -12.7190    0.9090   -4.6410 O   0  0  0  0  0  0  0  0  0  0  0  0
  -10.6870    2.2340   -4.5890 C   0  0  0  0  0  0  0  0  0  0  0  0
  -11.6600    3.6610   -4.7630 Cl  0  0  0  0  0  0  0  0  0  0  0  0
   -9.2790    2.2980   -4.5050 C   0  0  0  0  0  0  0  0  0  0  0  0
   -8.5550    3.6260   -4.6330 C   0  0  0  0  0  0  0  0  0  0  0  0
   -8.1760    4.1890   -3.2620 C   0  0  0  0  0  0  0  0  0  0  0  0
   -6.6700    4.2850   -3.0870 C   0  0  0  0  0  0  0  0  0  0  0  0
   -5.9340    4.6890   -3.9790 O   0  0  0  0  0  0  0  0  0  0  0  0
   -6.2800    3.8880   -1.8170 N   0  0  0  0  0  0  0  0  0  0  0  0
   -5.0070    3.8270   -1.2670 C   0  0  0  0  0  0  0  0  0  0  0  0
   -4.2560    2.7140   -1.2010 C   0  0  0  0  0  0  0  0  0  0  0  0
   -2.8560    2.6780   -0.6670 C   0  0  2  0  0  0  0  0  0  0  0  0
   -2.8420    1.8020    0.4530 O   0  0  0  0  0  0  0  0  0  0  0  0
   -2.3030    4.0270   -0.2400 C   0  0  0  0  0  0  0  0  0  0  0  0
   -0.9950    3.9500    0.1980 O   0  0  0  0  0  0  0  0  0  0  0  0
    0.0070    3.5760   -0.7420 C   0  0  0  0  0  0  0  0  0  0  0  0
   -3.0540    5.1450   -0.2900 C   0  0  0  0  0  0  0  0  0  0  0  0
   -4.4860    5.1540   -0.7320 C   0  0  1  0  0  0  0  0  0  0  0  0
   -4.6210    6.1330   -1.7600 O   0  0  0  0  0  0  0  0  0  0  0  0
   -5.3230   -0.4460   -5.0837 H   0  0  0  0  0  0  0  0  0  0  0  0
   -6.3512   -0.5582   -6.5524 H   0  0  0  0  0  0  0  0  0  0  0  0
   -4.8971    0.4965   -6.5524 H   0  0  0  0  0  0  0  0  0  0  0  0
   -7.7730   -1.2970   -4.8870 H   0  0  0  0  0  0  0  0  0  0  0  0
  -11.1841   -1.1551   -4.4871 H   0  0  0  0  0  0  0  0  0  0  0  0
  -13.0800    1.8050   -4.5040 H   0  0  0  0  0  0  0  0  0  0  0  0
   -7.6397    3.4791   -5.2251 H   0  0  0  0  0  0  0  0  0  0  0  0
   -9.2287    4.3416   -5.1271 H   0  0  0  0  0  0  0  0  0  0  0  0
   -8.6112    5.1938   -3.1573 H   0  0  0  0  0  0  0  0  0  0  0  0
   -8.5663    3.5063   -2.4928 H   0  0  0  0  0  0  0  0  0  0  0  0
   -7.0260    3.6580   -1.1640 H   0  0  0  0  0  0  0  0  0  0  0  0
   -4.6958    1.7722   -1.5609 H   0  0  0  0  0  0  0  0  0  0  0  0
   -2.2096    2.3366   -1.4890 H   0  0  0  0  0  0  0  0  0  0  0  0
   -2.9940    2.3710    1.2280 H   0  0  0  0  0  0  0  0  0  0  0  0
    0.9064    3.2403   -0.2051 H   0  0  0  0  0  0  0  0  0  0  0  0
   -0.3698    2.7580   -1.3736 H   0  0  0  0  0  0  0  0  0  0  0  0
    0.2584    4.4408   -1.3736 H   0  0  0  0  0  0  0  0  0  0  0  0
   -2.5930    6.0981    0.0084 H   0  0  0  0  0  0  0  0  0  0  0  0
   -5.0842    5.3742    0.1645 H   0  0  0  0  0  0  0  0  0  0  0  0
   -5.0320    5.6740   -2.5130 H   0  0  0  0  0  0  0  0  0  0  0  0
  1  2  1  0
  2  3  1  0
  3  4  2  0
  3  5  1  0
  5  6  2  0
  6  7  1  0
  6  8  1  0
  8  9  2  0
  9 10  1  0
  9 11  1  0
 11 12  1  0
 11 13  2  0
 13 14  1  0
 14 15  1  0
 15 16  1  0
 16 17  2  0
 16 18  1  0
 18 19  1  0
 19 20  2  0
 20 21  1  0
 21 22  1  0
 21 23  1  0
 23 24  1  0
 24 25  1  0
 23 26  2  0
 26 27  1  0
 27 28  1  0
 13  5  1  0
 27 19  1  0
  1 29  1  0
  1 30  1  0
  1 31  1  0
  7 32  1  0
  8 33  1  0
 10 34  1  0
 14 35  1  0
 14 36  1  0
 15 37  1  0
 15 38  1  0
 18 39  1  0
 20 40  1  0
 21 41  1  6
 22 42  1  0
 25 43  1  0
 25 44  1  0
 25 45  1  0
 26 46  1  0
 27 47  1  1
 28 48  1  0
M  END
>  <meeko>  (5) 
{"is_sidechain": [false], "free_energy": -6.571, "intermolecular_energy": -10.076, "internal_energy": -1.343}

$$$$
2fxs_ligand
     RDKit          3D

 48 49  0  0  0  0  0  0  0  0999 V2000
   -8.1340   -1.3750   -3.7480 C   0  0  0  0  0  0  0  0  0  0  0  0
   -8.3150   -0.0300   -4.1970 O   0  0  0  0  0  0  0  0  0  0  0  0
   -7.2230    0.7520   -4.0570 C   0  0  0  0  0  0  0  0  0  0  0  0
   -6.4760    0.8070   -3.0920 O   0  0  0  0  0  0  0  0  0  0  0  0
   -6.9270    1.4580   -5.3200 C   0  0  0  0  0  0  0  0  0  0  0  0
   -6.0450    0.8030   -6.2010 C   0  0  0  0  0  0  0  0  0  0  0  0
   -5.4340   -0.3880   -5.9060 O   0  0  0  0  0  0  0  0  0  0  0  0
   -5.7370    1.3540   -7.4380 C   0  0  0  0  0  0  0  0  0  0  0  0
   -6.2750    2.5850   -7.7820 C   0  0  0  0  0  0  0  0  0  0  0  0
   -5.9300    3.0910   -9.0070 O   0  0  0  0  0  0  0  0  0  0  0  0
   -7.1120    3.2830   -6.8970 C   0  0  0  0  0  0  0  0  0  0  0  0
   -7.6650    4.8500   -7.3930 Cl  0  0  0  0  0  0  0  0  0  0  0  0
   -7.4580    2.7330   -5.6420 C   0  0  0  0  0  0  0  0  0  0  0  0
   -8.2780    3.5330   -4.6460 C   0  0  0  0  0  0  0  0  0  0  0  0
   -7.4780    4.7070   -4.0800 C   0  0  0  0  0  0  0  0  0  0  0  0
   -6.6260    4.2910   -2.8930 C   0  0  0  0  0  0  0  0  0  0  0  0
   -7.1200    3.9260   -1.8320 O   0  0  0  0  0  0  0  0  0  0  0  0
   -5.2740    4.3600   -3.1880 N   0  0  0  0  0  0  0  0  0  0  0  0
   -4.1810    4.0710   -2.3820 C   0  0  0  0  0  0  0  0  0  0  0  0
   -3.8140    2.8330   -2.0090 C   0  0  0  0  0  0  0  0  0  0  0  0
   -2.5920    2.5310   -1.1960 C   0  0  2  0  0  0  0  0  0  0  0  0
   -3.0170    1.9140    0.0130 O   0  0  0  0  0  0  0  0  0  0  0  0
   -1.7400    3.7410   -0.8540 C   0  0  0  0  0  0  0  0  0  0  0  0
   -0.6010    3.4060   -0.1470 O   0  0  0  0  0  0  0  0  0  0  0  0
    0.6350    3.3550   -0.8500 C   0  0  0  0  0  0  0  0  0  0  0  0
   -2.1080    4.9870   -1.2130 C   0  0  0  0  0  0  0  0  0  0  0  0
   -3.3830    5.2890   -1.9390 C   0  0  1  0  0  0  0  0  0  0  0  0
   -3.0550    6.0540   -3.0980 O   0  0  0  0  0  0  0  0  0  0  0  0
   -8.1310   -1.3972   -2.6482 H   0  0  0  0  0  0  0  0  0  0  0  0
   -8.9560   -2.0012   -4.1251 H   0  0  0  0  0  0  0  0  0  0  0  0
   -7.1757   -1.7616   -4.1251 H   0  0  0  0  0  0  0  0  0  0  0  0
   -4.4800   -0.2290   -5.7360 H   0  0  0  0  0  0  0  0  0  0  0  0
   -5.0748    0.8208   -8.1360 H   0  0  0  0  0  0  0  0  0  0  0  0
   -5.4600    3.9330   -8.8540 H   0  0  0  0  0  0  0  0  0  0  0  0
   -9.1749    3.9213   -5.1508 H   0  0  0  0  0  0  0  0  0  0  0  0
   -8.5551    2.8695   -3.8135 H   0  0  0  0  0  0  0  0  0  0  0  0
   -6.8208    5.1027   -4.8684 H   0  0  0  0  0  0  0  0  0  0  0  0
   -8.1905    5.4718   -3.7373 H   0  0  0  0  0  0  0  0  0  0  0  0
   -5.0300    4.6040   -4.1460 H   0  0  0  0  0  0  0  0  0  0  0  0
   -4.4493    1.9903   -2.3194 H   0  0  0  0  0  0  0  0  0  0  0  0
   -1.9534    1.8796   -1.8107 H   0  0  0  0  0  0  0  0  0  0  0  0
   -3.2250    2.6470    0.6180 H   0  0  0  0  0  0  0  0  0  0  0  0
    1.4655    3.3207   -0.1295 H   0  0  0  0  0  0  0  0  0  0  0  0
    0.6605    2.4550   -1.4820 H   0  0  0  0  0  0  0  0  0  0  0  0
    0.7346    4.2498   -1.4820 H   0  0  0  0  0  0  0  0  0  0  0  0
   -1.4393    5.8231   -0.9605 H   0  0  0  0  0  0  0  0  0  0  0  0
   -4.0251    5.8262   -1.2255 H   0  0  0  0  0  0  0  0  0  0  0  0
   -3.1140    5.4380   -3.8500 H   0  0  0  0  0  0  0  0  0  0  0  0
  1  2  1  0
  2  3  1  0
  3  4  2  0
  3  5  1  0
  5  6  2  0
  6  7  1  0
  6  8  1  0
  8  9  2  0
  9 10  1  0
  9 11  1  0
 11 12  1  0
 11 13  2  0
 13 14  1  0
 14 15  1  0
 15 16  1  0
 16 17  2  0
 16 18  1  0
 18 19  1  0
 19 20  2  0
 20 21  1  0
 21 22  1  0
 21 23  1  0
 23 24  1  0
 24 25  1  0
 23 26  2  0
 26 27  1  0
 27 28  1  0
 13  5  1  0
 27 19  1  0
  1 29  1  0
  1 30  1  0
  1 31  1  0
  7 32  1  0
  8 33  1  0
 10 34  1  0
 14 35  1  0
 14 36  1  0
 15 37  1  0
 15 38  1  0
 18 39  1  0
 20 40  1  0
 21 41  1  6
 22 42  1  0
 25 43  1  0
 25 44  1  0
 25 45  1  0
 26 46  1  0
 27 47  1  1
 28 48  1  0
M  END
>  <meeko>  (6) 
{"is_sidechain": [false], "free_energy": -6.483, "intermolecular_energy": -9.759, "internal_energy": -1.526}

$$$$
2fxs_ligand
     RDKit          3D

 48 49  0  0  0  0  0  0  0  0999 V2000
   -4.5810    5.3790   -6.3040 C   0  0  0  0  0  0  0  0  0  0  0  0
   -4.1410    4.6310   -5.1690 O   0  0  0  0  0  0  0  0  0  0  0  0
   -4.9840    4.6740   -4.1160 C   0  0  0  0  0  0  0  0  0  0  0  0
   -6.2050    4.6800   -4.1500 O   0  0  0  0  0  0  0  0  0  0  0  0
   -4.2350    4.5540   -2.8480 C   0  0  0  0  0  0  0  0  0  0  0  0
   -3.4700    5.6750   -2.4730 C   0  0  0  0  0  0  0  0  0  0  0  0
   -3.3560    6.8000   -3.2480 O   0  0  0  0  0  0  0  0  0  0  0  0
   -2.7680    5.6890   -1.2760 C   0  0  0  0  0  0  0  0  0  0  0  0
   -2.7910    4.5640   -0.4660 C   0  0  0  0  0  0  0  0  0  0  0  0
   -2.0710    4.6220    0.6970 O   0  0  0  0  0  0  0  0  0  0  0  0
   -3.5010    3.4130   -0.8450 C   0  0  0  0  0  0  0  0  0  0  0  0
   -3.3980    2.0330    0.2010 Cl  0  0  0  0  0  0  0  0  0  0  0  0
   -4.2420    3.3830   -2.0480 C   0  0  0  0  0  0  0  0  0  0  0  0
   -4.9240    2.1060   -2.5050 C   0  0  0  0  0  0  0  0  0  0  0  0
   -6.3600    2.0240   -1.9870 C   0  0  0  0  0  0  0  0  0  0  0  0
   -7.2880    1.3680   -2.9950 C   0  0  0  0  0  0  0  0  0  0  0  0
   -7.2500    0.1660   -3.2310 O   0  0  0  0  0  0  0  0  0  0  0  0
   -8.1570    2.2890   -3.5600 N   0  0  0  0  0  0  0  0  0  0  0  0
   -9.1460    2.0940   -4.5140 C   0  0  0  0  0  0  0  0  0  0  0  0
  -10.4580    1.9810   -4.2440 C   0  0  0  0  0  0  0  0  0  0  0  0
  -11.5210    1.8410   -5.2900 C   0  0  2  0  0  0  0  0  0  0  0  0
  -12.1770    0.5970   -5.0780 O   0  0  0  0  0  0  0  0  0  0  0  0
  -11.0140    1.8880   -6.7220 C   0  0  0  0  0  0  0  0  0  0  0  0
  -12.0350    1.8040   -7.6500 O   0  0  0  0  0  0  0  0  0  0  0  0
  -11.9580    0.7880   -8.6420 C   0  0  0  0  0  0  0  0  0  0  0  0
   -9.7000    1.9880   -7.0020 C   0  0  0  0  0  0  0  0  0  0  0  0
   -8.6360    2.0270   -5.9470 C   0  0  1  0  0  0  0  0  0  0  0  0
   -7.8250    3.1760   -6.1860 O   0  0  0  0  0  0  0  0  0  0  0  0
   -5.1116    6.2811   -5.9654 H   0  0  0  0  0  0  0  0  0  0  0  0
   -3.7109    5.6713   -6.9102 H   0  0  0  0  0  0  0  0  0  0  0  0
   -5.2592    4.7605   -6.9102 H   0  0  0  0  0  0  0  0  0  0  0  0
   -2.5130    7.2550   -3.0370 H   0  0  0  0  0  0  0  0  0  0  0  0
   -2.2004    6.5814   -0.9736 H   0  0  0  0  0  0  0  0  0  0  0  0
   -1.1480    4.8350    0.4610 H   0  0  0  0  0  0  0  0  0  0  0  0
   -4.9383    2.0818   -3.6046 H   0  0  0  0  0  0  0  0  0  0  0  0
   -4.3617    1.2504   -2.1028 H   0  0  0  0  0  0  0  0  0  0  0  0
   -6.3701    1.4349   -1.0581 H   0  0  0  0  0  0  0  0  0  0  0  0
   -6.7181    3.0489   -1.8099 H   0  0  0  0  0  0  0  0  0  0  0  0
   -8.1150    3.2370   -3.1930 H   0  0  0  0  0  0  0  0  0  0  0  0
  -10.7704    1.9920   -3.1894 H   0  0  0  0  0  0  0  0  0  0  0  0
  -12.1919    2.7058   -5.1807 H   0  0  0  0  0  0  0  0  0  0  0  0
  -11.9930    0.0680   -5.8750 H   0  0  0  0  0  0  0  0  0  0  0  0
  -11.8835   -0.1954   -8.1547 H   0  0  0  0  0  0  0  0  0  0  0  0
  -12.8611    0.8189   -9.2693 H   0  0  0  0  0  0  0  0  0  0  0  0
  -11.0699    0.9546   -9.2693 H   0  0  0  0  0  0  0  0  0  0  0  0
   -9.3929    2.0438   -8.0568 H   0  0  0  0  0  0  0  0  0  0  0  0
   -8.0867    1.0774   -6.0275 H   0  0  0  0  0  0  0  0  0  0  0  0
   -6.9970    3.0240   -5.6980 H   0  0  0  0  0  0  0  0  0  0  0  0
  1  2  1  0
  2  3  1  0
  3  4  2  0
  3  5  1  0
  5  6  2  0
  6  7  1  0
  6  8  1  0
  8  9  2  0
  9 10  1  0
  9 11  1  0
 11 12  1  0
 11 13  2  0
 13 14  1  0
 14 15  1  0
 15 16  1  0
 16 17  2  0
 16 18  1  0
 18 19  1  0
 19 20  2  0
 20 21  1  0
 21 22  1  0
 21 23  1  0
 23 24  1  0
 24 25  1  0
 23 26  2  0
 26 27  1  0
 27 28  1  0
 13  5  1  0
 27 19  1  0
  1 29  1  0
  1 30  1  0
  1 31  1  0
  7 32  1  0
  8 33  1  0
 10 34  1  0
 14 35  1  0
 14 36  1  0
 15 37  1  0
 15 38  1  0
 18 39  1  0
 20 40  1  0
 21 41  1  6
 22 42  1  0
 25 43  1  0
 25 44  1  0
 25 45  1  0
 26 46  1  0
 27 47  1  1
 28 48  1  0
M  END
>  <meeko>  (7) 
{"is_sidechain": [false], "free_energy": -6.475, "intermolecular_energy": -9.515, "internal_energy": -1.756}

$$$$
2fxs_ligand
     RDKit          3D

 48 49  0  0  0  0  0  0  0  0999 V2000
   -1.2320    1.2860   -1.2320 C   0  0  0  0  0  0  0  0  0  0  0  0
   -1.7190    1.9290   -0.0530 O   0  0  0  0  0  0  0  0  0  0  0  0
   -3.0430    2.1940   -0.0730 C   0  0  0  0  0  0  0  0  0  0  0  0
   -3.9110    1.6580    0.5990 O   0  0  0  0  0  0  0  0  0  0  0  0
   -3.3240    3.3650   -0.9280 C   0  0  0  0  0  0  0  0  0  0  0  0
   -2.9070    4.6120   -0.4240 C   0  0  0  0  0  0  0  0  0  0  0  0
   -2.3300    4.7690    0.8090 O   0  0  0  0  0  0  0  0  0  0  0  0
   -3.0760    5.7730   -1.1680 C   0  0  0  0  0  0  0  0  0  0  0  0
   -3.7040    5.6980   -2.4020 C   0  0  0  0  0  0  0  0  0  0  0  0
   -3.8600    6.8720   -3.0890 O   0  0  0  0  0  0  0  0  0  0  0  0
   -4.1790    4.4740   -2.9000 C   0  0  0  0  0  0  0  0  0  0  0  0
   -5.0210    4.5060   -4.4170 Cl  0  0  0  0  0  0  0  0  0  0  0  0
   -3.9990    3.2770   -2.1730 C   0  0  0  0  0  0  0  0  0  0  0  0
   -4.6020    1.9740   -2.6650 C   0  0  0  0  0  0  0  0  0  0  0  0
   -6.1050    1.9160   -2.3910 C   0  0  0  0  0  0  0  0  0  0  0  0
   -6.8840    1.4480   -3.6090 C   0  0  0  0  0  0  0  0  0  0  0  0
   -6.3680    0.7750   -4.4940 O   0  0  0  0  0  0  0  0  0  0  0  0
   -8.2070    1.8570   -3.5550 N   0  0  0  0  0  0  0  0  0  0  0  0
   -9.2340    1.6390   -4.4640 C   0  0  0  0  0  0  0  0  0  0  0  0
   -9.5420    2.4620   -5.4800 C   0  0  0  0  0  0  0  0  0  0  0  0
  -10.6080    2.1790   -6.4950 C   0  0  2  0  0  0  0  0  0  0  0  0
  -11.5790    3.2140   -6.4040 O   0  0  0  0  0  0  0  0  0  0  0  0
  -11.3040    0.8390   -6.3290 C   0  0  0  0  0  0  0  0  0  0  0  0
  -12.2420    0.6030   -7.3150 O   0  0  0  0  0  0  0  0  0  0  0  0
  -11.7810    0.4070   -8.6480 C   0  0  0  0  0  0  0  0  0  0  0  0
  -11.0100    0.0140   -5.3050 C   0  0  0  0  0  0  0  0  0  0  0  0
  -10.0130    0.3500   -4.2380 C   0  0  1  0  0  0  0  0  0  0  0  0
   -9.0810   -0.7260   -4.1550 O   0  0  0  0  0  0  0  0  0  0  0  0
   -0.5902    0.4386   -0.9490 H   0  0  0  0  0  0  0  0  0  0  0  0
   -2.0814    0.9199   -1.8274 H   0  0  0  0  0  0  0  0  0  0  0  0
   -0.6494    2.0044   -1.8274 H   0  0  0  0  0  0  0  0  0  0  0  0
   -2.5080    5.6770    1.1370 H   0  0  0  0  0  0  0  0  0  0  0  0
   -2.7165    6.7388   -0.7833 H   0  0  0  0  0  0  0  0  0  0  0  0
   -4.6180    7.3440   -2.6970 H   0  0  0  0  0  0  0  0  0  0  0  0
   -4.4322    1.8877   -3.7484 H   0  0  0  0  0  0  0  0  0  0  0  0
   -4.1199    1.1446   -2.1268 H   0  0  0  0  0  0  0  0  0  0  0  0
   -6.2888    1.2177   -1.5611 H   0  0  0  0  0  0  0  0  0  0  0  0
   -6.4453    2.9308   -2.1372 H   0  0  0  0  0  0  0  0  0  0  0  0
   -8.4980    2.3410   -2.7080 H   0  0  0  0  0  0  0  0  0  0  0  0
   -8.9772    3.4014   -5.5728 H   0  0  0  0  0  0  0  0  0  0  0  0
  -10.1122    2.1392   -7.4761 H   0  0  0  0  0  0  0  0  0  0  0  0
  -11.3420    3.8530   -7.0990 H   0  0  0  0  0  0  0  0  0  0  0  0
  -10.7689   -0.0233   -8.6264 H   0  0  0  0  0  0  0  0  0  0  0  0
  -12.4604   -0.2801   -9.1736 H   0  0  0  0  0  0  0  0  0  0  0  0
  -11.7576    1.3730   -9.1736 H   0  0  0  0  0  0  0  0  0  0  0  0
  -11.5279   -0.9549   -5.2495 H   0  0  0  0  0  0  0  0  0  0  0  0
  -10.5890    0.5027   -3.3134 H   0  0  0  0  0  0  0  0  0  0  0  0
   -9.5390   -1.5040   -4.5180 H   0  0  0  0  0  0  0  0  0  0  0  0
  1  2  1  0
  2  3  1  0
  3  4  2  0
  3  5  1  0
  5  6  2  0
  6  7  1  0
  6  8  1  0
  8  9  2  0
  9 10  1  0
  9 11  1  0
 11 12  1  0
 11 13  2  0
 13 14  1  0
 14 15  1  0
 15 16  1  0
 16 17  2  0
 16 18  1  0
 18 19  1  0
 19 20  2  0
 20 21  1  0
 21 22  1  0
 21 23  1  0
 23 24  1  0
 24 25  1  0
 23 26  2  0
 26 27  1  0
 27 28  1  0
 13  5  1  0
 27 19  1  0
  1 29  1  0
  1 30  1  0
  1 31  1  0
  7 32  1  0
  8 33  1  0
 10 34  1  0
 14 35  1  0
 14 36  1  0
 15 37  1  0
 15 38  1  0
 18 39  1  0
 20 40  1  0
 21 41  1  6
 22 42  1  0
 25 43  1  0
 25 44  1  0
 25 45  1  0
 26 46  1  0
 27 47  1  1
 28 48  1  0
M  END
>  <meeko>  (8) 
{"is_sidechain": [false], "free_energy": -6.471, "intermolecular_energy": -10.117, "internal_energy": -1.148}

$$$$
2fxs_ligand
     RDKit          3D

 48 49  0  0  0  0  0  0  0  0999 V2000
   -6.8870    6.9140   -1.1370 C   0  0  0  0  0  0  0  0  0  0  0  0
   -6.0340    5.7890   -0.9200 O   0  0  0  0  0  0  0  0  0  0  0  0
   -5.0780    5.6290   -1.8590 C   0  0  0  0  0  0  0  0  0  0  0  0
   -5.1130    6.0140   -3.0180 O   0  0  0  0  0  0  0  0  0  0  0  0
   -3.8600    5.0430   -1.2640 C   0  0  0  0  0  0  0  0  0  0  0  0
   -3.1380    5.8770   -0.3890 C   0  0  0  0  0  0  0  0  0  0  0  0
   -3.4830    7.1790   -0.1340 O   0  0  0  0  0  0  0  0  0  0  0  0
   -2.0050    5.4100    0.2650 C   0  0  0  0  0  0  0  0  0  0  0  0
   -1.5630    4.1200    0.0130 C   0  0  0  0  0  0  0  0  0  0  0  0
   -0.4340    3.7120    0.6720 O   0  0  0  0  0  0  0  0  0  0  0  0
   -2.2350    3.2890   -0.8980 C   0  0  0  0  0  0  0  0  0  0  0  0
   -1.5510    1.7240   -1.2000 Cl  0  0  0  0  0  0  0  0  0  0  0  0
   -3.4020    3.7340   -1.5580 C   0  0  0  0  0  0  0  0  0  0  0  0
   -4.0670    2.8730   -2.6180 C   0  0  0  0  0  0  0  0  0  0  0  0
   -5.1000    1.9290   -2.0020 C   0  0  0  0  0  0  0  0  0  0  0  0
   -6.4930    2.1770   -2.5550 C   0  0  0  0  0  0  0  0  0  0  0  0
   -7.2900    2.9270   -2.0020 O   0  0  0  0  0  0  0  0  0  0  0  0
   -6.7040    1.4790   -3.7340 N   0  0  0  0  0  0  0  0  0  0  0  0
   -7.8340    1.4350   -4.5400 C   0  0  0  0  0  0  0  0  0  0  0  0
   -8.9990    0.8640   -4.1920 C   0  0  0  0  0  0  0  0  0  0  0  0
  -10.2310    0.8860   -5.0440 C   0  0  2  0  0  0  0  0  0  0  0  0
  -10.5710   -0.4610   -5.3490 O   0  0  0  0  0  0  0  0  0  0  0  0
  -10.0920    1.6610   -6.3430 C   0  0  0  0  0  0  0  0  0  0  0  0
  -11.2670    1.6930   -7.0700 O   0  0  0  0  0  0  0  0  0  0  0  0
  -11.1830    1.5890   -8.4870 C   0  0  0  0  0  0  0  0  0  0  0  0
   -8.9240    2.2250   -6.7060 C   0  0  0  0  0  0  0  0  0  0  0  0
   -7.6700    2.1130   -5.8930 C   0  0  1  0  0  0  0  0  0  0  0  0
   -7.1710    3.4320   -5.6750 O   0  0  0  0  0  0  0  0  0  0  0  0
   -7.2012    7.3283   -0.1676 H   0  0  0  0  0  0  0  0  0  0  0  0
   -6.3427    7.6827   -1.7052 H   0  0  0  0  0  0  0  0  0  0  0  0
   -7.7741    6.5974   -1.7052 H   0  0  0  0  0  0  0  0  0  0  0  0
   -4.3720    7.3570   -0.5090 H   0  0  0  0  0  0  0  0  0  0  0  0
   -1.4653    6.0552    0.9738 H   0  0  0  0  0  0  0  0  0  0  0  0
   -0.4160    4.1690    1.5340 H   0  0  0  0  0  0  0  0  0  0  0  0
   -4.5689    3.5264   -3.3468 H   0  0  0  0  0  0  0  0  0  0  0  0
   -3.2914    2.2658   -3.1076 H   0  0  0  0  0  0  0  0  0  0  0  0
   -4.8094    0.8911   -2.2219 H   0  0  0  0  0  0  0  0  0  0  0  0
   -5.1256    2.1117   -0.9176 H   0  0  0  0  0  0  0  0  0  0  0  0
   -5.9090    0.9640   -4.1050 H   0  0  0  0  0  0  0  0  0  0  0  0
   -9.0516    0.3485   -3.2217 H   0  0  0  0  0  0  0  0  0  0  0  0
  -11.0091    1.4066   -4.4665 H   0  0  0  0  0  0  0  0  0  0  0  0
  -10.1650   -0.6400   -6.2160 H   0  0  0  0  0  0  0  0  0  0  0  0
  -10.5126    0.7590   -8.7546 H   0  0  0  0  0  0  0  0  0  0  0  0
  -12.1844    1.3995   -8.9008 H   0  0  0  0  0  0  0  0  0  0  0  0
  -10.7870    2.5282   -8.9008 H   0  0  0  0  0  0  0  0  0  0  0  0
   -8.8888    2.7960   -7.6455 H   0  0  0  0  0  0  0  0  0  0  0  0
   -6.9839    1.4744   -6.4687 H   0  0  0  0  0  0  0  0  0  0  0  0
   -7.0520    3.5160   -4.7120 H   0  0  0  0  0  0  0  0  0  0  0  0
  1  2  1  0
  2  3  1  0
  3  4  2  0
  3  5  1  0
  5  6  2  0
  6  7  1  0
  6  8  1  0
  8  9  2  0
  9 10  1  0
  9 11  1  0
 11 12  1  0
 11 13  2  0
 13 14  1  0
 14 15  1  0
 15 16  1  0
 16 17  2  0
 16 18  1  0
 18 19  1  0
 19 20  2  0
 20 21  1  0
 21 22  1  0
 21 23  1  0
 23 24  1  0
 24 25  1  0
 23 26  2  0
 26 27  1  0
 27 28  1  0
 13  5  1  0
 27 19  1  0
  1 29  1  0
  1 30  1  0
  1 31  1  0
  7 32  1  0
  8 33  1  0
 10 34  1  0
 14 35  1  0
 14 36  1  0
 15 37  1  0
 15 38  1  0
 18 39  1  0
 20 40  1  0
 21 41  1  1
 22 42  1  0
 25 43  1  0
 25 44  1  0
 25 45  1  0
 26 46  1  0
 27 47  1  6
 28 48  1  0
M  END
>  <meeko>  (9) 
{"is_sidechain": [false], "free_energy": -6.47, "intermolecular_energy": -9.948, "internal_energy": -1.316}

$$$$
