3u8k_ligand
     RDKit          3D

 36 37  0  0  0  0  0  0  0  0999 V2000
    5.1040   21.0280   18.3310 C   0  0  0  0  0  0  0  0  0  0  0  0
    3.7650   21.7360   18.4530 C   0  0  0  0  0  0  0  0  0  0  0  0
    2.6880   20.8400   18.1690 O   0  0  0  0  0  0  0  0  0  0  0  0
    1.6080   20.8340   19.0020 C   0  0  0  0  0  0  0  0  0  0  0  0
    1.1530   21.8640   19.8060 C   0  0  0  0  0  0  0  0  0  0  0  0
    0.0730   21.7590   20.6130 N   0  0  0  0  0  0  0  0  0  0  0  0
   -0.5880   20.5760   20.6050 C   0  0  0  0  0  0  0  0  0  0  0  0
   -0.2490   19.4620   19.8300 C   0  0  0  0  0  0  0  0  0  0  0  0
   -0.9280   18.2340   19.8640 N   0  0  0  0  0  0  0  0  0  0  0  0
   -2.4080   18.2500   19.8730 C   0  0  0  0  0  0  0  0  0  0  0  0
   -2.9740   17.5530   21.1160 C   0  0  0  0  0  0  0  0  0  0  0  0
   -2.3590   16.1920   21.4160 C   0  0  0  0  0  0  0  0  0  0  0  0
   -0.8680   16.2230   21.3840 N   0  0  0  0  0  0  0  0  0  0  0  0
   -0.2030   15.8810   20.0740 C   0  0  0  0  0  0  0  0  0  0  0  0
   -0.2940   17.1050   19.1280 C   0  0  0  0  0  0  0  0  0  0  0  0
    0.8920   19.6320   19.0300 C   0  0  0  0  0  0  0  0  0  0  0  0
    5.5007   20.8182   19.3353 H   0  0  0  0  0  0  0  0  0  0  0  0
    4.9705   20.0826   17.7847 H   0  0  0  0  0  0  0  0  0  0  0  0
    5.8101   21.6706   17.7847 H   0  0  0  0  0  0  0  0  0  0  0  0
    3.6529   22.1211   19.4773 H   0  0  0  0  0  0  0  0  0  0  0  0
    3.7362   22.5622   17.7274 H   0  0  0  0  0  0  0  0  0  0  0  0
    1.6987   22.8189   19.7878 H   0  0  0  0  0  0  0  0  0  0  0  0
   -1.4646   20.4841   21.2631 H   0  0  0  0  0  0  0  0  0  0  0  0
   -2.7535   19.2943   19.8612 H   0  0  0  0  0  0  0  0  0  0  0  0
   -2.7627   17.7080   18.9839 H   0  0  0  0  0  0  0  0  0  0  0  0
   -2.8013   18.2062   21.9840 H   0  0  0  0  0  0  0  0  0  0  0  0
   -4.0407   17.3752   20.9148 H   0  0  0  0  0  0  0  0  0  0  0  0
   -2.6844   15.8699   22.4162 H   0  0  0  0  0  0  0  0  0  0  0  0
   -2.6970   15.4920   20.6377 H   0  0  0  0  0  0  0  0  0  0  0  0
   -0.4650   15.6860   22.1620 H   0  0  0  0  0  0  0  0  0  0  0  0
   -0.6000   17.2150   21.5330 H   0  0  0  0  0  0  0  0  0  0  0  0
    0.8531   15.6293   20.2510 H   0  0  0  0  0  0  0  0  0  0  0  0
   -0.7075   15.0180   19.6150 H   0  0  0  0  0  0  0  0  0  0  0  0
    0.7154   17.3964   18.8023 H   0  0  0  0  0  0  0  0  0  0  0  0
   -0.8964   16.8500   18.2436 H   0  0  0  0  0  0  0  0  0  0  0  0
    1.2341   18.7937   18.4053 H   0  0  0  0  0  0  0  0  0  0  0  0
  1  2  1  0
  2  3  1  0
  3  4  1  0
  4  5  2  0
  5  6  1  0
  6  7  2  0
  7  8  1  0
  8  9  1  0
  9 10  1  0
 10 11  1  0
 11 12  1  0
 12 13  1  0
 13 14  1  0
 14 15  1  0
  8 16  2  0
 16  4  1  0
 15  9  1  0
  1 17  1  0
  1 18  1  0
  1 19  1  0
  2 20  1  0
  2 21  1  0
  5 22  1  0
  7 23  1  0
 10 24  1  0
 10 25  1  0
 11 26  1  0
 11 27  1  0
 12 28  1  0
 12 29  1  0
 13 30  1  0
 13 31  1  0
 14 32  1  0
 14 33  1  0
 15 34  1  0
 15 35  1  0
 16 36  1  0
M  CHG  1  13   1
M  END
>  <meeko>  (1) 
{"is_sidechain": [false], "free_energy": -4.588, "intermolecular_energy": -7.002, "internal_energy": 0.238}

$$$$
3u8k_ligand
     RDKit          3D

 36 37  0  0  0  0  0  0  0  0999 V2000
    4.9490   21.5210   18.1660 C   0  0  0  0  0  0  0  0  0  0  0  0
    3.5340   21.8920   17.7580 C   0  0  0  0  0  0  0  0  0  0  0  0
    2.6430   20.7910   17.9520 O   0  0  0  0  0  0  0  0  0  0  0  0
    1.6390   20.9180   18.8670 C   0  0  0  0  0  0  0  0  0  0  0  0
    1.3950   21.9840   19.7140 C   0  0  0  0  0  0  0  0  0  0  0  0
    0.3760   22.0130   20.6020 N   0  0  0  0  0  0  0  0  0  0  0  0
   -0.4420   20.9330   20.6350 C   0  0  0  0  0  0  0  0  0  0  0  0
   -0.3220   19.7990   19.8250 C   0  0  0  0  0  0  0  0  0  0  0  0
   -1.1620   18.6770   19.8990 N   0  0  0  0  0  0  0  0  0  0  0  0
   -0.6400   17.3770   19.4180 C   0  0  0  0  0  0  0  0  0  0  0  0
   -0.4030   16.4000   20.5760 C   0  0  0  0  0  0  0  0  0  0  0  0
   -1.6860   15.9020   21.2620 C   0  0  0  0  0  0  0  0  0  0  0  0
   -2.9170   16.3290   20.5370 N   0  0  0  0  0  0  0  0  0  0  0  0
   -3.3270   17.7730   20.6740 C   0  0  0  0  0  0  0  0  0  0  0  0
   -2.0860   18.6160   21.0660 C   0  0  0  0  0  0  0  0  0  0  0  0
    0.7660   19.8260   18.9390 C   0  0  0  0  0  0  0  0  0  0  0  0
    5.0211   21.5021   19.2635 H   0  0  0  0  0  0  0  0  0  0  0  0
    5.1976   20.5273   17.7650 H   0  0  0  0  0  0  0  0  0  0  0  0
    5.6532   22.2649   17.7650 H   0  0  0  0  0  0  0  0  0  0  0  0
    3.1944   22.7422   18.3678 H   0  0  0  0  0  0  0  0  0  0  0  0
    3.5343   22.1607   16.6913 H   0  0  0  0  0  0  0  0  0  0  0  0
    2.0657   22.8544   19.6623 H   0  0  0  0  0  0  0  0  0  0  0  0
   -1.2696   20.9496   21.3594 H   0  0  0  0  0  0  0  0  0  0  0  0
   -1.3684   16.9355   18.7219 H   0  0  0  0  0  0  0  0  0  0  0  0
    0.3228   17.5570   18.9175 H   0  0  0  0  0  0  0  0  0  0  0  0
    0.1381   15.5265   20.1834 H   0  0  0  0  0  0  0  0  0  0  0  0
    0.1664   16.9510   21.3390 H   0  0  0  0  0  0  0  0  0  0  0  0
   -1.6622   14.8030   21.3020 H   0  0  0  0  0  0  0  0  0  0  0  0
   -1.7203   16.3397   22.2706 H   0  0  0  0  0  0  0  0  0  0  0  0
   -3.7020   15.6950   20.7260 H   0  0  0  0  0  0  0  0  0  0  0  0
   -2.6980   16.2410   19.5260 H   0  0  0  0  0  0  0  0  0  0  0  0
   -3.7305   18.1341   19.7165 H   0  0  0  0  0  0  0  0  0  0  0  0
   -4.1003   17.8673   21.4506 H   0  0  0  0  0  0  0  0  0  0  0  0
   -2.4015   19.6330   21.3419 H   0  0  0  0  0  0  0  0  0  0  0  0
   -1.5756   18.1549   21.9244 H   0  0  0  0  0  0  0  0  0  0  0  0
    0.9382   18.9620   18.2804 H   0  0  0  0  0  0  0  0  0  0  0  0
  1  2  1  0
  2  3  1  0
  3  4  1  0
  4  5  2  0
  5  6  1  0
  6  7  2  0
  7  8  1  0
  8  9  1  0
  9 10  1  0
 10 11  1  0
 11 12  1  0
 12 13  1  0
 13 14  1  0
 14 15  1  0
  8 16  2  0
 16  4  1  0
 15  9  1  0
  1 17  1  0
  1 18  1  0
  1 19  1  0
  2 20  1  0
  2 21  1  0
  5 22  1  0
  7 23  1  0
 10 24  1  0
 10 25  1  0
 11 26  1  0
 11 27  1  0
 12 28  1  0
 12 29  1  0
 13 30  1  0
 13 31  1  0
 14 32  1  0
 14 33  1  0
 15 34  1  0
 15 35  1  0
 16 36  1  0
M  CHG  1  13   1
M  END
>  <meeko>  (2) 
{"is_sidechain": [false], "free_energy": -4.424, "intermolecular_energy": -6.702, "internal_energy": 0.188}

$$$$
3u8k_ligand
     RDKit          3D

 36 37  0  0  0  0  0  0  0  0999 V2000
    0.1160   20.8540   20.1950 C   0  0  0  0  0  0  0  0  0  0  0  0
    0.5410   19.7710   19.2190 C   0  0  0  0  0  0  0  0  0  0  0  0
   -0.5930   19.0440   18.7390 O   0  0  0  0  0  0  0  0  0  0  0  0
   -1.2890   18.2670   19.6180 C   0  0  0  0  0  0  0  0  0  0  0  0
   -2.5610   18.4840   20.1160 C   0  0  0  0  0  0  0  0  0  0  0  0
   -3.1680   17.6590   20.9990 N   0  0  0  0  0  0  0  0  0  0  0  0
   -2.4750   16.5620   21.3910 C   0  0  0  0  0  0  0  0  0  0  0  0
   -1.1930   16.2130   20.9540 C   0  0  0  0  0  0  0  0  0  0  0  0
   -0.4800   15.0890   21.4000 N   0  0  0  0  0  0  0  0  0  0  0  0
    0.3790   14.3720   20.4300 C   0  0  0  0  0  0  0  0  0  0  0  0
    0.7310   12.9630   20.9200 C   0  0  0  0  0  0  0  0  0  0  0  0
    2.0470   12.8710   21.6930 C   0  0  0  0  0  0  0  0  0  0  0  0
    2.0670   13.7210   22.9190 N   0  0  0  0  0  0  0  0  0  0  0  0
    1.5700   15.1380   22.7800 C   0  0  0  0  0  0  0  0  0  0  0  0
    0.0200   15.1330   22.8030 C   0  0  0  0  0  0  0  0  0  0  0  0
   -0.6140   17.1210   20.0540 C   0  0  0  0  0  0  0  0  0  0  0  0
    0.2569   20.4950   21.2252 H   0  0  0  0  0  0  0  0  0  0  0  0
    0.7277   21.7538   20.0334 H   0  0  0  0  0  0  0  0  0  0  0  0
   -0.9444   21.0976   20.0334 H   0  0  0  0  0  0  0  0  0  0  0  0
    1.0576   20.2366   18.3667 H   0  0  0  0  0  0  0  0  0  0  0  0
    1.2123   19.0721   19.7395 H   0  0  0  0  0  0  0  0  0  0  0  0
   -3.1082   19.3754   19.7756 H   0  0  0  0  0  0  0  0  0  0  0  0
   -2.9616   15.8900   22.1132 H   0  0  0  0  0  0  0  0  0  0  0  0
   -0.1543   14.2934   19.4712 H   0  0  0  0  0  0  0  0  0  0  0  0
    1.3144   14.9392   20.3146 H   0  0  0  0  0  0  0  0  0  0  0  0
   -0.0791   12.6157   21.5782 H   0  0  0  0  0  0  0  0  0  0  0  0
    0.8518   12.3403   20.0213 H   0  0  0  0  0  0  0  0  0  0  0  0
    2.2057   11.8239   21.9905 H   0  0  0  0  0  0  0  0  0  0  0  0
    2.8438   13.2359   21.0282 H   0  0  0  0  0  0  0  0  0  0  0  0
    2.9820   13.6870   23.3830 H   0  0  0  0  0  0  0  0  0  0  0  0
    1.3830   13.2940   23.5730 H   0  0  0  0  0  0  0  0  0  0  0  0
    1.9494   15.7456   23.6148 H   0  0  0  0  0  0  0  0  0  0  0  0
    1.9265   15.5658   21.8314 H   0  0  0  0  0  0  0  0  0  0  0  0
   -0.3389   14.2496   23.3514 H   0  0  0  0  0  0  0  0  0  0  0  0
   -0.3497   16.0400   23.3037 H   0  0  0  0  0  0  0  0  0  0  0  0
    0.4018   16.9260   19.6797 H   0  0  0  0  0  0  0  0  0  0  0  0
  1  2  1  0
  2  3  1  0
  3  4  1  0
  4  5  2  0
  5  6  1  0
  6  7  2  0
  7  8  1  0
  8  9  1  0
  9 10  1  0
 10 11  1  0
 11 12  1  0
 12 13  1  0
 13 14  1  0
 14 15  1  0
  8 16  2  0
 16  4  1  0
 15  9  1  0
  1 17  1  0
  1 18  1  0
  1 19  1  0
  2 20  1  0
  2 21  1  0
  5 22  1  0
  7 23  1  0
 10 24  1  0
 10 25  1  0
 11 26  1  0
 11 27  1  0
 12 28  1  0
 12 29  1  0
 13 30  1  0
 13 31  1  0
 14 32  1  0
 14 33  1  0
 15 34  1  0
 15 35  1  0
 16 36  1  0
M  CHG  1  13   1
M  END
>  <meeko>  (3) 
{"is_sidechain": [false], "free_energy": -4.419, "intermolecular_energy": -6.813, "internal_energy": 0.307}

$$$$
3u8k_ligand
     RDKit          3D

 36 37  0  0  0  0  0  0  0  0999 V2000
    3.0830   21.1180   17.6620 C   0  0  0  0  0  0  0  0  0  0  0  0
    2.0030   21.0150   18.7250 C   0  0  0  0  0  0  0  0  0  0  0  0
    1.3790   19.7290   18.6940 O   0  0  0  0  0  0  0  0  0  0  0  0
    0.0600   19.6360   19.0290 C   0  0  0  0  0  0  0  0  0  0  0  0
   -0.9270   20.5900   18.8560 C   0  0  0  0  0  0  0  0  0  0  0  0
   -2.2130   20.4100   19.2340 N   0  0  0  0  0  0  0  0  0  0  0  0
   -2.5270   19.2200   19.7990 C   0  0  0  0  0  0  0  0  0  0  0  0
   -1.6350   18.1640   20.0160 C   0  0  0  0  0  0  0  0  0  0  0  0
   -1.9750   16.9510   20.6350 N   0  0  0  0  0  0  0  0  0  0  0  0
   -3.2470   16.2980   20.2480 C   0  0  0  0  0  0  0  0  0  0  0  0
   -4.2010   16.1680   21.4410 C   0  0  0  0  0  0  0  0  0  0  0  0
   -3.5630   15.5960   22.7100 C   0  0  0  0  0  0  0  0  0  0  0  0
   -2.2350   16.1960   23.0260 N   0  0  0  0  0  0  0  0  0  0  0  0
   -1.0220   15.5350   22.4220 C   0  0  0  0  0  0  0  0  0  0  0  0
   -0.8480   16.0350   20.9650 C   0  0  0  0  0  0  0  0  0  0  0  0
   -0.3150   18.4230   19.6180 C   0  0  0  0  0  0  0  0  0  0  0  0
    4.0663   21.2118   18.1462 H   0  0  0  0  0  0  0  0  0  0  0  0
    3.0677   20.2143   17.0350 H   0  0  0  0  0  0  0  0  0  0  0  0
    2.8972   22.0025   17.0350 H   0  0  0  0  0  0  0  0  0  0  0  0
    2.4558   21.1720   19.7151 H   0  0  0  0  0  0  0  0  0  0  0  0
    1.2395   21.7815   18.5263 H   0  0  0  0  0  0  0  0  0  0  0  0
   -0.6511   21.5456   18.3861 H   0  0  0  0  0  0  0  0  0  0  0  0
   -3.5705   19.0711   20.1136 H   0  0  0  0  0  0  0  0  0  0  0  0
   -3.7334   16.8995   19.4659 H   0  0  0  0  0  0  0  0  0  0  0  0
   -3.0166   15.2872   19.8802 H   0  0  0  0  0  0  0  0  0  0  0  0
   -4.5944   17.1680   21.6759 H   0  0  0  0  0  0  0  0  0  0  0  0
   -4.9829   15.4561   21.1379 H   0  0  0  0  0  0  0  0  0  0  0  0
   -4.2406   15.7832   23.5560 H   0  0  0  0  0  0  0  0  0  0  0  0
   -3.4017   14.5217   22.5371 H   0  0  0  0  0  0  0  0  0  0  0  0
   -2.1200   16.3410   24.0360 H   0  0  0  0  0  0  0  0  0  0  0  0
   -2.2350   17.1360   22.5860 H   0  0  0  0  0  0  0  0  0  0  0  0
   -0.1293   15.7945   23.0101 H   0  0  0  0  0  0  0  0  0  0  0  0
   -1.1526   14.4428   22.4271 H   0  0  0  0  0  0  0  0  0  0  0  0
    0.1064   16.5737   20.8703 H   0  0  0  0  0  0  0  0  0  0  0  0
   -0.8465   15.1795   20.2736 H   0  0  0  0  0  0  0  0  0  0  0  0
    0.4498   17.6479   19.7738 H   0  0  0  0  0  0  0  0  0  0  0  0
  1  2  1  0
  2  3  1  0
  3  4  1  0
  4  5  2  0
  5  6  1  0
  6  7  2  0
  7  8  1  0
  8  9  1  0
  9 10  1  0
 10 11  1  0
 11 12  1  0
 12 13  1  0
 13 14  1  0
 14 15  1  0
  8 16  2  0
 16  4  1  0
 15  9  1  0
  1 17  1  0
  1 18  1  0
  1 19  1  0
  2 20  1  0
  2 21  1  0
  5 22  1  0
  7 23  1  0
 10 24  1  0
 10 25  1  0
 11 26  1  0
 11 27  1  0
 12 28  1  0
 12 29  1  0
 13 30  1  0
 13 31  1  0
 14 32  1  0
 14 33  1  0
 15 34  1  0
 15 35  1  0
 16 36  1  0
M  CHG  1  13   1
M  END
>  <meeko>  (4) 
{"is_sidechain": [false], "free_energy": -4.415, "intermolecular_energy": -6.745, "internal_energy": 0.246}

$$$$
3u8k_ligand
     RDKit          3D

 36 37  0  0  0  0  0  0  0  0999 V2000
    1.9950   13.3740   22.4380 C   0  0  0  0  0  0  0  0  0  0  0  0
    1.6910   14.4930   21.4560 C   0  0  0  0  0  0  0  0  0  0  0  0
    0.3620   14.3730   20.9420 O   0  0  0  0  0  0  0  0  0  0  0  0
   -0.3240   15.5110   20.6370 C   0  0  0  0  0  0  0  0  0  0  0  0
   -0.1510   16.3360   19.5410 C   0  0  0  0  0  0  0  0  0  0  0  0
   -0.8760   17.4580   19.3290 N   0  0  0  0  0  0  0  0  0  0  0  0
   -1.8240   17.7600   20.2490 C   0  0  0  0  0  0  0  0  0  0  0  0
   -2.1160   17.0070   21.3910 C   0  0  0  0  0  0  0  0  0  0  0  0
   -3.0790   17.3570   22.3500 N   0  0  0  0  0  0  0  0  0  0  0  0
   -2.9820   18.6890   22.9890 C   0  0  0  0  0  0  0  0  0  0  0  0
   -3.0690   18.5920   24.5170 C   0  0  0  0  0  0  0  0  0  0  0  0
   -4.1420   17.6270   25.0470 C   0  0  0  0  0  0  0  0  0  0  0  0
   -4.0000   16.2480   24.4960 N   0  0  0  0  0  0  0  0  0  0  0  0
   -4.8400   15.9010   23.2920 C   0  0  0  0  0  0  0  0  0  0  0  0
   -4.4590   16.8440   22.1220 C   0  0  0  0  0  0  0  0  0  0  0  0
   -1.3150   15.8670   21.5600 C   0  0  0  0  0  0  0  0  0  0  0  0
    1.8926   13.7508   23.4664 H   0  0  0  0  0  0  0  0  0  0  0  0
    1.2895   12.5451   22.2793 H   0  0  0  0  0  0  0  0  0  0  0  0
    3.0229   13.0160   22.2793 H   0  0  0  0  0  0  0  0  0  0  0  0
    1.7927   15.4605   21.9695 H   0  0  0  0  0  0  0  0  0  0  0  0
    2.3997   14.4272   20.6173 H   0  0  0  0  0  0  0  0  0  0  0  0
    0.6174   16.0654   18.8019 H   0  0  0  0  0  0  0  0  0  0  0  0
   -2.4133   18.6740   20.0838 H   0  0  0  0  0  0  0  0  0  0  0  0
   -2.0201   19.1468   22.7149 H   0  0  0  0  0  0  0  0  0  0  0  0
   -3.8246   19.3014   22.6355 H   0  0  0  0  0  0  0  0  0  0  0  0
   -2.0917   18.2558   24.8937 H   0  0  0  0  0  0  0  0  0  0  0  0
   -3.3535   19.5933   24.8728 H   0  0  0  0  0  0  0  0  0  0  0  0
   -4.0606   17.5780   26.1429 H   0  0  0  0  0  0  0  0  0  0  0  0
   -5.1217   18.0125   24.7282 H   0  0  0  0  0  0  0  0  0  0  0  0
   -4.0870   15.5390   25.2330 H   0  0  0  0  0  0  0  0  0  0  0  0
   -3.0290   16.1850   24.1320 H   0  0  0  0  0  0  0  0  0  0  0  0
   -4.6528   14.8571   23.0002 H   0  0  0  0  0  0  0  0  0  0  0  0
   -5.9059   16.0223   23.5351 H   0  0  0  0  0  0  0  0  0  0  0  0
   -4.4952   16.2891   21.1729 H   0  0  0  0  0  0  0  0  0  0  0  0
   -5.1672   17.6843   22.0729 H   0  0  0  0  0  0  0  0  0  0  0  0
   -1.4706   15.2332   22.4455 H   0  0  0  0  0  0  0  0  0  0  0  0
  1  2  1  0
  2  3  1  0
  3  4  1  0
  4  5  2  0
  5  6  1  0
  6  7  2  0
  7  8  1  0
  8  9  1  0
  9 10  1  0
 10 11  1  0
 11 12  1  0
 12 13  1  0
 13 14  1  0
 14 15  1  0
  8 16  2  0
 16  4  1  0
 15  9  1  0
  1 17  1  0
  1 18  1  0
  1 19  1  0
  2 20  1  0
  2 21  1  0
  5 22  1  0
  7 23  1  0
 10 24  1  0
 10 25  1  0
 11 26  1  0
 11 27  1  0
 12 28  1  0
 12 29  1  0
 13 30  1  0
 13 31  1  0
 14 32  1  0
 14 33  1  0
 15 34  1  0
 15 35  1  0
 16 36  1  0
M  CHG  1  13   1
M  END
>  <meeko>  (5) 
{"is_sidechain": [false], "free_energy": -4.386, "intermolecular_energy": -6.668, "internal_energy": 0.211}

$$$$
3u8k_ligand
     RDKit          3D

 36 37  0  0  0  0  0  0  0  0999 V2000
    1.8580   13.7410   22.0820 C   0  0  0  0  0  0  0  0  0  0  0  0
    0.8680   14.8120   22.5060 C   0  0  0  0  0  0  0  0  0  0  0  0
   -0.4760   14.3440   22.3770 O   0  0  0  0  0  0  0  0  0  0  0  0
   -1.4510   15.2400   22.0530 C   0  0  0  0  0  0  0  0  0  0  0  0
   -2.7640   15.2590   22.4890 C   0  0  0  0  0  0  0  0  0  0  0  0
   -3.6660   16.1870   22.1000 N   0  0  0  0  0  0  0  0  0  0  0  0
   -3.2330   17.1460   21.2460 C   0  0  0  0  0  0  0  0  0  0  0  0
   -1.9330   17.2560   20.7420 C   0  0  0  0  0  0  0  0  0  0  0  0
   -1.5150   18.2390   19.8310 N   0  0  0  0  0  0  0  0  0  0  0  0
   -0.5840   17.8420   18.7500 C   0  0  0  0  0  0  0  0  0  0  0  0
    0.7470   18.5960   18.8450 C   0  0  0  0  0  0  0  0  0  0  0  0
    0.6020   20.1200   18.9860 C   0  0  0  0  0  0  0  0  0  0  0  0
   -0.4050   20.4940   20.0200 N   0  0  0  0  0  0  0  0  0  0  0  0
   -1.8290   20.6740   19.5560 C   0  0  0  0  0  0  0  0  0  0  0  0
   -2.5140   19.2860   19.4790 C   0  0  0  0  0  0  0  0  0  0  0  0
   -1.0520   16.2510   21.1710 C   0  0  0  0  0  0  0  0  0  0  0  0
    2.2935   13.2699   22.9755 H   0  0  0  0  0  0  0  0  0  0  0  0
    1.3392   12.9791   21.4817 H   0  0  0  0  0  0  0  0  0  0  0  0
    2.6583   14.1984   21.4817 H   0  0  0  0  0  0  0  0  0  0  0  0
    1.0564   15.0813   23.5558 H   0  0  0  0  0  0  0  0  0  0  0  0
    0.9987   15.6890   21.8550 H   0  0  0  0  0  0  0  0  0  0  0  0
   -3.0911   14.4768   23.1898 H   0  0  0  0  0  0  0  0  0  0  0  0
   -3.9649   17.9007   20.9223 H   0  0  0  0  0  0  0  0  0  0  0  0
   -0.3886   16.7622   18.8261 H   0  0  0  0  0  0  0  0  0  0  0  0
   -1.0514   18.0902   17.7857 H   0  0  0  0  0  0  0  0  0  0  0  0
    1.2945   18.2194   19.7216 H   0  0  0  0  0  0  0  0  0  0  0  0
    1.2791   18.4163   17.8992 H   0  0  0  0  0  0  0  0  0  0  0  0
    1.5764   20.5443   19.2699 H   0  0  0  0  0  0  0  0  0  0  0  0
    0.2596   20.5187   18.0197 H   0  0  0  0  0  0  0  0  0  0  0  0
   -0.0880   21.2940   20.5800 H   0  0  0  0  0  0  0  0  0  0  0  0
   -0.4680   19.6820   20.6640 H   0  0  0  0  0  0  0  0  0  0  0  0
   -2.3709   21.3136   20.2682 H   0  0  0  0  0  0  0  0  0  0  0  0
   -1.8393   21.1490   18.5639 H   0  0  0  0  0  0  0  0  0  0  0  0
   -3.3545   19.2485   20.1876 H   0  0  0  0  0  0  0  0  0  0  0  0
   -2.8953   19.1127   18.4618 H   0  0  0  0  0  0  0  0  0  0  0  0
   -0.0156   16.2581   20.8025 H   0  0  0  0  0  0  0  0  0  0  0  0
  1  2  1  0
  2  3  1  0
  3  4  1  0
  4  5  2  0
  5  6  1  0
  6  7  2  0
  7  8  1  0
  8  9  1  0
  9 10  1  0
 10 11  1  0
 11 12  1  0
 12 13  1  0
 13 14  1  0
 14 15  1  0
  8 16  2  0
 16  4  1  0
 15  9  1  0
  1 17  1  0
  1 18  1  0
  1 19  1  0
  2 20  1  0
  2 21  1  0
  5 22  1  0
  7 23  1  0
 10 24  1  0
 10 25  1  0
 11 26  1  0
 11 27  1  0
 12 28  1  0
 12 29  1  0
 13 30  1  0
 13 31  1  0
 14 32  1  0
 14 33  1  0
 15 34  1  0
 15 35  1  0
 16 36  1  0
M  CHG  1  13   1
M  END
>  <meeko>  (6) 
{"is_sidechain": [false], "free_energy": -4.367, "intermolecular_energy": -6.601, "internal_energy": 0.175}

$$$$
3u8k_ligand
     RDKit          3D

 36 37  0  0  0  0  0  0  0  0999 V2000
    2.1760   20.7720   18.1180 C   0  0  0  0  0  0  0  0  0  0  0  0
    1.2290   20.5310   19.2810 C   0  0  0  0  0  0  0  0  0  0  0  0
    0.0430   19.8650   18.8430 O   0  0  0  0  0  0  0  0  0  0  0  0
   -0.2520   18.6430   19.3720 C   0  0  0  0  0  0  0  0  0  0  0  0
    0.3710   17.4350   19.1130 C   0  0  0  0  0  0  0  0  0  0  0  0
   -0.0030   16.2660   19.6800 N   0  0  0  0  0  0  0  0  0  0  0  0
   -1.0380   16.3090   20.5530 C   0  0  0  0  0  0  0  0  0  0  0  0
   -1.7440   17.4600   20.9190 C   0  0  0  0  0  0  0  0  0  0  0  0
   -2.8360   17.4770   21.8010 N   0  0  0  0  0  0  0  0  0  0  0  0
   -4.1040   16.8540   21.3590 C   0  0  0  0  0  0  0  0  0  0  0  0
   -4.4500   15.6180   22.1970 C   0  0  0  0  0  0  0  0  0  0  0  0
   -4.8720   15.9350   23.6470 C   0  0  0  0  0  0  0  0  0  0  0  0
   -4.9190   17.4010   23.9160 N   0  0  0  0  0  0  0  0  0  0  0  0
   -3.5970   18.1130   24.0640 C   0  0  0  0  0  0  0  0  0  0  0  0
   -2.5200   17.3510   23.2510 C   0  0  0  0  0  0  0  0  0  0  0  0
   -1.3170   18.6350   20.2810 C   0  0  0  0  0  0  0  0  0  0  0  0
    3.1741   21.0260   18.5044 H   0  0  0  0  0  0  0  0  0  0  0  0
    2.2414   19.8619   17.5037 H   0  0  0  0  0  0  0  0  0  0  0  0
    1.7983   21.6027   17.5037 H   0  0  0  0  0  0  0  0  0  0  0  0
    1.7344   19.9085   20.0340 H   0  0  0  0  0  0  0  0  0  0  0  0
    0.9475   21.5030   19.7123 H   0  0  0  0  0  0  0  0  0  0  0  0
    1.2155   17.4252   18.4083 H   0  0  0  0  0  0  0  0  0  0  0  0
   -1.3494   15.3594   21.0126 H   0  0  0  0  0  0  0  0  0  0  0  0
   -4.9159   17.5898   21.4567 H   0  0  0  0  0  0  0  0  0  0  0  0
   -3.9839   16.5366   20.3127 H   0  0  0  0  0  0  0  0  0  0  0  0
   -5.2787   15.0882   21.7045 H   0  0  0  0  0  0  0  0  0  0  0  0
   -3.5342   15.0119   22.2596 H   0  0  0  0  0  0  0  0  0  0  0  0
   -5.8710   15.5106   23.8253 H   0  0  0  0  0  0  0  0  0  0  0  0
   -4.1217   15.4937   24.3195 H   0  0  0  0  0  0  0  0  0  0  0  0
   -5.5530   17.6190   24.6940 H   0  0  0  0  0  0  0  0  0  0  0  0
   -5.3260   17.8340   23.0650 H   0  0  0  0  0  0  0  0  0  0  0  0
   -3.6873   19.1412   23.6837 H   0  0  0  0  0  0  0  0  0  0  0  0
   -3.3086   18.1446   25.1250 H   0  0  0  0  0  0  0  0  0  0  0  0
   -1.5292   17.7841   23.4526 H   0  0  0  0  0  0  0  0  0  0  0  0
   -2.5130   16.2901   23.5415 H   0  0  0  0  0  0  0  0  0  0  0  0
   -1.8355   19.5796   20.5021 H   0  0  0  0  0  0  0  0  0  0  0  0
  1  2  1  0
  2  3  1  0
  3  4  1  0
  4  5  2  0
  5  6  1  0
  6  7  2  0
  7  8  1  0
  8  9  1  0
  9 10  1  0
 10 11  1  0
 11 12  1  0
 12 13  1  0
 13 14  1  0
 14 15  1  0
  8 16  2  0
 16  4  1  0
 15  9  1  0
  1 17  1  0
  1 18  1  0
  1 19  1  0
  2 20  1  0
  2 21  1  0
  5 22  1  0
  7 23  1  0
 10 24  1  0
 10 25  1  0
 11 26  1  0
 11 27  1  0
 12 28  1  0
 12 29  1  0
 13 30  1  0
 13 31  1  0
 14 32  1  0
 14 33  1  0
 15 34  1  0
 15 35  1  0
 16 36  1  0
M  CHG  1  13   1
M  END
>  <meeko>  (7) 
{"is_sidechain": [false], "free_energy": -4.303, "intermolecular_energy": -6.544, "internal_energy": 0.216}

$$$$
3u8k_ligand
     RDKit          3D

 36 37  0  0  0  0  0  0  0  0999 V2000
    0.2800   15.3930   20.9050 C   0  0  0  0  0  0  0  0  0  0  0  0
   -0.8720   16.1320   20.2480 C   0  0  0  0  0  0  0  0  0  0  0  0
   -0.3900   17.1520   19.3700 O   0  0  0  0  0  0  0  0  0  0  0  0
   -0.5370   18.4560   19.7410 C   0  0  0  0  0  0  0  0  0  0  0  0
   -1.4690   18.9870   20.6140 C   0  0  0  0  0  0  0  0  0  0  0  0
   -1.5460   20.3040   20.9120 N   0  0  0  0  0  0  0  0  0  0  0  0
   -0.6440   21.1230   20.3180 C   0  0  0  0  0  0  0  0  0  0  0  0
    0.3600   20.7180   19.4320 C   0  0  0  0  0  0  0  0  0  0  0  0
    1.2630   21.5880   18.8030 N   0  0  0  0  0  0  0  0  0  0  0  0
    1.4620   22.9340   19.3850 C   0  0  0  0  0  0  0  0  0  0  0  0
    2.7190   22.9910   20.2620 C   0  0  0  0  0  0  0  0  0  0  0  0
    4.0430   22.6880   19.5220 C   0  0  0  0  0  0  0  0  0  0  0  0
    3.9590   22.9500   18.0570 N   0  0  0  0  0  0  0  0  0  0  0  0
    3.1300   21.9940   17.2360 C   0  0  0  0  0  0  0  0  0  0  0  0
    2.4640   20.9630   18.1820 C   0  0  0  0  0  0  0  0  0  0  0  0
    0.3720   19.3420   19.1530 C   0  0  0  0  0  0  0  0  0  0  0  0
    0.1805   15.4569   21.9986 H   0  0  0  0  0  0  0  0  0  0  0  0
    0.2622   14.3374   20.5962 H   0  0  0  0  0  0  0  0  0  0  0  0
    1.2321   15.8493   20.5962 H   0  0  0  0  0  0  0  0  0  0  0  0
   -1.4765   15.4165   19.6712 H   0  0  0  0  0  0  0  0  0  0  0  0
   -1.4804   16.6037   21.0338 H   0  0  0  0  0  0  0  0  0  0  0  0
   -2.1854   18.3021   21.0911 H   0  0  0  0  0  0  0  0  0  0  0  0
   -0.7067   22.1959   20.5522 H   0  0  0  0  0  0  0  0  0  0  0  0
    1.5632   23.6643   18.5686 H   0  0  0  0  0  0  0  0  0  0  0  0
    0.5919   23.1675   20.0162 H   0  0  0  0  0  0  0  0  0  0  0  0
    2.7908   24.0013   20.6912 H   0  0  0  0  0  0  0  0  0  0  0  0
    2.6021   22.2032   21.0207 H   0  0  0  0  0  0  0  0  0  0  0  0
    4.8360   23.3206   19.9473 H   0  0  0  0  0  0  0  0  0  0  0  0
    4.2594   21.6177   19.6551 H   0  0  0  0  0  0  0  0  0  0  0  0
    4.8900   23.0880   17.6470 H   0  0  0  0  0  0  0  0  0  0  0  0
    3.4500   23.8490   17.9560 H   0  0  0  0  0  0  0  0  0  0  0  0
    2.3530   22.5521   16.6931 H   0  0  0  0  0  0  0  0  0  0  0  0
    3.7727   21.4725   16.5114 H   0  0  0  0  0  0  0  0  0  0  0  0
    2.1632   20.0744   17.6076 H   0  0  0  0  0  0  0  0  0  0  0  0
    3.1749   20.6599   18.9648 H   0  0  0  0  0  0  0  0  0  0  0  0
    1.1202   18.9480   18.4495 H   0  0  0  0  0  0  0  0  0  0  0  0
  1  2  1  0
  2  3  1  0
  3  4  1  0
  4  5  2  0
  5  6  1  0
  6  7  2  0
  7  8  1  0
  8  9  1  0
  9 10  1  0
 10 11  1  0
 11 12  1  0
 12 13  1  0
 13 14  1  0
 14 15  1  0
  8 16  2  0
 16  4  1  0
 15  9  1  0
  1 17  1  0
  1 18  1  0
  1 19  1  0
  2 20  1  0
  2 21  1  0
  5 22  1  0
  7 23  1  0
 10 24  1  0
 10 25  1  0
 11 26  1  0
 11 27  1  0
 12 28  1  0
 12 29  1  0
 13 30  1  0
 13 31  1  0
 14 32  1  0
 14 33  1  0
 15 34  1  0
 15 35  1  0
 16 36  1  0
M  CHG  1  13   1
M  END
>  <meeko>  (8) 
{"is_sidechain": [false], "free_energy": -4.213, "intermolecular_energy": -6.434, "internal_energy": 0.242}

$$$$
3u8k_ligand
     RDKit          3D

 36 37  0  0  0  0  0  0  0  0999 V2000
   -2.1640   16.6710   19.8810 C   0  0  0  0  0  0  0  0  0  0  0  0
   -0.7220   17.1500   19.8950 C   0  0  0  0  0  0  0  0  0  0  0  0
   -0.5540   18.2840   19.0420 O   0  0  0  0  0  0  0  0  0  0  0  0
   -0.3380   19.5030   19.6130 C   0  0  0  0  0  0  0  0  0  0  0  0
   -1.1470   20.1710   20.5150 C   0  0  0  0  0  0  0  0  0  0  0  0
   -0.8530   21.3910   21.0200 N   0  0  0  0  0  0  0  0  0  0  0  0
    0.3070   21.9620   20.6140 C   0  0  0  0  0  0  0  0  0  0  0  0
    1.2240   21.3920   19.7240 C   0  0  0  0  0  0  0  0  0  0  0  0
    2.4040   22.0160   19.2910 N   0  0  0  0  0  0  0  0  0  0  0  0
    2.5560   22.3030   17.8460 C   0  0  0  0  0  0  0  0  0  0  0  0
    3.7480   21.5510   17.2430 C   0  0  0  0  0  0  0  0  0  0  0  0
    5.0580   21.7010   18.0150 C   0  0  0  0  0  0  0  0  0  0  0  0
    4.8740   21.5350   19.4860 N   0  0  0  0  0  0  0  0  0  0  0  0
    4.5380   22.7740   20.2780 C   0  0  0  0  0  0  0  0  0  0  0  0
    3.0080   23.0120   20.2200 C   0  0  0  0  0  0  0  0  0  0  0  0
    0.8490   20.1350   19.2240 C   0  0  0  0  0  0  0  0  0  0  0  0
   -2.5210   16.5524   20.9147 H   0  0  0  0  0  0  0  0  0  0  0  0
   -2.7906   17.4093   19.3591 H   0  0  0  0  0  0  0  0  0  0  0  0
   -2.2243   15.7046   19.3591 H   0  0  0  0  0  0  0  0  0  0  0  0
   -0.4446   17.4278   20.9225 H   0  0  0  0  0  0  0  0  0  0  0  0
   -0.0775   16.3367   19.5301 H   0  0  0  0  0  0  0  0  0  0  0  0
   -2.0788   19.6841   20.8387 H   0  0  0  0  0  0  0  0  0  0  0  0
    0.5478   22.9565   21.0178 H   0  0  0  0  0  0  0  0  0  0  0  0
    1.6385   21.9958   17.3227 H   0  0  0  0  0  0  0  0  0  0  0  0
    2.7342   23.3819   17.7267 H   0  0  0  0  0  0  0  0  0  0  0  0
    3.4939   20.4814   17.2050 H   0  0  0  0  0  0  0  0  0  0  0  0
    3.9217   21.9918   16.2503 H   0  0  0  0  0  0  0  0  0  0  0  0
    5.7667   20.9386   17.6595 H   0  0  0  0  0  0  0  0  0  0  0  0
    5.4371   22.7182   17.8373 H   0  0  0  0  0  0  0  0  0  0  0  0
    5.6560   21.0200   19.9060 H   0  0  0  0  0  0  0  0  0  0  0  0
    4.0280   20.9450   19.6030 H   0  0  0  0  0  0  0  0  0  0  0  0
    4.8506   22.6389   21.3240 H   0  0  0  0  0  0  0  0  0  0  0  0
    5.0648   23.6408   19.8522 H   0  0  0  0  0  0  0  0  0  0  0  0
    2.5763   22.8905   21.2244 H   0  0  0  0  0  0  0  0  0  0  0  0
    2.8008   24.0314   19.8625 H   0  0  0  0  0  0  0  0  0  0  0  0
    1.5092   19.6303   18.5033 H   0  0  0  0  0  0  0  0  0  0  0  0
  1  2  1  0
  2  3  1  0
  3  4  1  0
  4  5  2  0
  5  6  1  0
  6  7  2  0
  7  8  1  0
  8  9  1  0
  9 10  1  0
 10 11  1  0
 11 12  1  0
 12 13  1  0
 13 14  1  0
 14 15  1  0
  8 16  2  0
 16  4  1  0
 15  9  1  0
  1 17  1  0
  1 18  1  0
  1 19  1  0
  2 20  1  0
  2 21  1  0
  5 22  1  0
  7 23  1  0
 10 24  1  0
 10 25  1  0
 11 26  1  0
 11 27  1  0
 12 28  1  0
 12 29  1  0
 13 30  1  0
 13 31  1  0
 14 32  1  0
 14 33  1  0
 15 34  1  0
 15 35  1  0
 16 36  1  0
M  CHG  1  13   1
M  END
>  <meeko>  (9) 
{"is_sidechain": [false], "free_energy": -4.142, "intermolecular_energy": -6.321, "internal_energy": 0.238}

$$$$
