
     RDKit          3D

 34 37  0  0  0  0  0  0  0  0999 V2000
    1.8510    0.0440   -5.8310 O   0  0  0  0  0  0  0  0  0  0  0  0
    3.0550    0.1630   -6.1510 C   0  0  0  0  0  0  0  0  0  0  0  0
    3.5420   -0.2630   -7.4070 C   0  0  0  0  0  0  0  0  0  0  0  0
    4.8670   -0.1130   -7.7050 C   0  0  0  0  0  0  0  0  0  0  0  0
    5.7360    0.4560   -6.7430 C   0  0  0  0  0  0  0  0  0  0  0  0
    5.2250    0.8800   -5.5100 C   0  0  0  0  0  0  0  0  0  0  0  0
    3.9330    0.7170   -5.2210 N   0  0  0  0  0  0  0  0  0  0  0  0
    6.0800    1.5440   -4.4660 C   0  0  0  0  0  0  0  0  0  0  0  0
    7.5330    1.6140   -4.7730 C   0  0  0  0  0  0  0  0  0  0  0  0
    7.8990    1.6480   -6.2600 C   0  0  0  0  0  0  0  0  0  0  0  0
    7.1920    0.5920   -7.0310 C   0  0  2  0  0  0  0  0  0  0  0  0
    7.5650    0.1370   -8.3240 N   0  0  0  0  0  0  0  0  0  0  0  0
    8.0700    0.9840   -9.3300 C   0  0  0  0  0  0  0  0  0  0  0  0
    7.6180    0.5020  -10.6770 C   0  0  0  0  0  0  0  0  0  0  0  0
    6.3320    1.1420  -11.0610 C   0  0  0  0  0  0  0  0  0  0  0  0
    5.8090    0.6590  -12.3870 C   0  0  0  0  0  0  0  0  0  0  0  0
    4.8530   -0.4940  -12.2680 C   0  0  0  0  0  0  0  0  0  0  0  0
    4.4070   -0.9190  -13.6480 C   0  0  0  0  0  0  0  0  0  0  0  0
    4.0640   -2.3790  -13.7480 C   0  0  0  0  0  0  0  0  0  0  0  0
    4.5560   -2.9200  -15.0640 C   0  0  0  0  0  0  0  0  0  0  0  0
    3.7840   -4.1680  -15.4890 C   0  0  0  0  0  0  0  0  0  0  0  0
    4.0930   -4.5430  -16.9220 C   0  0  0  0  0  0  0  0  0  0  0  0
    3.0690   -5.3690  -17.3980 N   0  0  0  0  0  0  0  0  0  0  0  0
    3.1160   -5.6770  -18.8050 C   0  0  2  0  0  0  0  0  0  0  0  0
    2.1580   -4.8520  -19.6360 C   0  0  0  0  0  0  0  0  0  0  0  0
    0.7790   -5.4810  -19.6800 C   0  0  0  0  0  0  0  0  0  0  0  0
    0.8010   -6.8920  -20.2280 C   0  0  0  0  0  0  0  0  0  0  0  0
    1.9780   -7.7190  -19.7520 C   0  0  0  0  0  0  0  0  0  0  0  0
    1.9410   -9.0490  -19.9930 N   0  0  0  0  0  0  0  0  0  0  0  0
    2.9660   -9.8810  -19.5800 C   0  0  0  0  0  0  0  0  0  0  0  0
    2.8620  -11.1020  -19.8220 O   0  0  0  0  0  0  0  0  0  0  0  0
    4.0780   -9.3250  -18.8950 C   0  0  0  0  0  0  0  0  0  0  0  0
    4.1330   -7.9730  -18.6470 C   0  0  0  0  0  0  0  0  0  0  0  0
    3.0720   -7.1490  -19.0820 C   0  0  0  0  0  0  0  0  0  0  0  0
  2  1  2  0
  3  2  1  0
  4  3  2  0
  5  4  1  0
  6  5  2  0
  7  6  1  0
  7  2  1  0
  8  6  1  0
  9  8  1  0
 10  9  1  0
 11 10  1  0
 11  5  1  0
 11 12  1  6
 13 12  1  0
 14 13  1  0
 15 14  1  0
 16 15  1  0
 17 16  1  0
 18 17  1  0
 19 18  1  0
 20 19  1  0
 21 20  1  0
 22 21  1  0
 23 22  1  0
 24 23  1  1
 25 24  1  0
 26 25  1  0
 27 26  1  0
 28 27  1  0
 29 28  1  0
 30 29  1  0
 31 30  2  0
 32 30  1  0
 33 32  2  0
 34 33  1  0
 34 28  2  0
 34 24  1  0
M  CHG  2  12   1  23   1
M  END
$$$$
