
     RDKit          3D

 18 18  0  0  0  0  0  0  0  0999 V2000
   -1.0920   -3.2870    3.6980 N   0  0  0  0  0  0  0  0  0  0  0  0
    0.4500   -2.7670    3.9110 S   0  0  2  0  0  0  0  0  0  0  0  0
    0.6480   -2.4200    5.2990 O   0  0  0  0  0  0  0  0  0  0  0  0
    0.7420   -1.7080    2.9660 O   0  0  0  0  0  0  0  0  0  0  0  0
    1.5380   -4.1250    3.5510 C   0  0  0  0  0  0  0  0  0  0  0  0
    2.5970   -3.9560    2.6610 C   0  0  0  0  0  0  0  0  0  0  0  0
    3.4560   -5.0160    2.3970 C   0  0  0  0  0  0  0  0  0  0  0  0
    3.2700   -6.2460    3.0060 C   0  0  0  0  0  0  0  0  0  0  0  0
    4.2200   -7.3630    2.7140 C   0  0  0  0  0  0  0  0  0  0  0  0
    5.0730   -7.2400    1.8320 O   0  0  0  0  0  0  0  0  0  0  0  0
    4.1360   -8.5300    3.4510 N   0  0  0  0  0  0  0  0  0  0  0  0
    5.1050   -9.5930    3.1880 C   0  0  0  0  0  0  0  0  0  0  0  0
    6.3030   -9.5710    4.0920 C   0  0  1  0  0  0  0  0  0  0  0  0
    7.4150   -9.7080    3.3800 F   0  0  0  0  0  0  0  0  0  0  0  0
    6.4030   -8.4230    4.7830 F   0  0  0  0  0  0  0  0  0  0  0  0
    6.2130  -10.5550    4.9690 F   0  0  0  0  0  0  0  0  0  0  0  0
    2.2240   -6.3920    3.9060 C   0  0  0  0  0  0  0  0  0  0  0  0
    1.3550   -5.3430    4.1830 C   0  0  0  0  0  0  0  0  0  0  0  0
  2  1  1  1
  3  2  2  0
  4  2  2  0
  5  2  1  0
  6  5  2  0
  7  6  1  0
  8  7  2  0
  9  8  1  0
 10  9  2  0
 11  9  1  0
 12 11  1  0
 13 12  1  0
 13 14  1  6
 15 13  1  0
 16 13  1  0
 17  8  1  0
 18 17  2  0
 18  5  1  0
M  END
$$$$
