
     RDKit          3D

 18 20  0  0  0  0  0  0  0  0999 V2000
   -1.3400   -1.9860   -9.2460 C   0  0  0  0  0  0  0  0  0  0  0  0
   -2.6210   -1.6020   -8.6500 C   0  0  0  0  0  0  0  0  0  0  0  0
   -2.8300   -0.7830   -7.5990 C   0  0  0  0  0  0  0  0  0  0  0  0
   -1.7290   -0.3110   -6.7160 C   0  0  1  0  0  0  0  0  0  0  0  0
   -1.8780    1.1710   -6.4200 C   0  0  0  0  0  0  0  0  0  0  0  0
   -3.0960    1.8450   -6.6030 C   0  0  0  0  0  0  0  0  0  0  0  0
   -3.2400    3.2740   -6.2000 C   0  0  0  0  0  0  0  0  0  0  0  0
   -4.2870    1.1810   -7.2290 C   0  0  0  0  0  0  0  0  0  0  0  0
   -4.1990   -0.3630   -7.1070 C   0  0  1  0  0  0  0  0  0  0  0  0
   -5.2740   -0.9770   -7.9440 N   0  0  0  0  0  0  0  0  0  0  0  0
   -4.3420   -0.7930   -5.6470 C   0  0  0  0  0  0  0  0  0  0  0  0
   -5.5880   -0.7810   -5.0330 C   0  0  0  0  0  0  0  0  0  0  0  0
   -5.7120   -1.1460   -3.6910 C   0  0  0  0  0  0  0  0  0  0  0  0
   -4.5670   -1.5230   -2.9500 C   0  0  0  0  0  0  0  0  0  0  0  0
   -4.6370   -1.8410   -1.7650 O   0  0  0  0  0  0  0  0  0  0  0  0
   -3.3450   -1.5210   -3.5720 N   0  0  0  0  0  0  0  0  0  0  0  0
   -3.2110   -1.1790   -4.8880 C   0  0  0  0  0  0  0  0  0  0  0  0
   -1.8030   -1.1870   -5.4490 C   0  0  0  0  0  0  0  0  0  0  0  0
  2  1  1  0
  3  2  2  3
  4  3  1  0
  5  4  1  0
  6  5  2  0
  7  6  1  0
  8  6  1  0
  9  8  1  0
  9  3  1  0
  9 10  1  6
 11  9  1  0
 12 11  1  0
 13 12  2  0
 14 13  1  0
 15 14  2  0
 16 14  1  0
 17 11  2  0
 17 16  1  0
  4 18  1  1
 18 17  1  0
M  CHG  1  10   1
M  END
$$$$
