3gr2_ligand
     RDKit          3D

 25 26  0  0  0  0  0  0  0  0999 V2000
   -4.4140   -9.8660   11.1170 C   0  0  0  0  0  0  0  0  0  0  0  0
   -4.0810   -8.5260   11.7560 C   0  0  0  0  0  0  0  0  0  0  0  0
   -4.4110   -7.3460   10.8430 C   0  0  2  0  0  0  0  0  0  0  0  0
   -3.1890   -6.8850   10.0370 C   0  0  0  0  0  0  0  0  0  0  0  0
   -2.5380   -7.5280    9.2360 O   0  0  0  0  0  0  0  0  0  0  0  0
   -2.9880   -5.5740   10.4230 N   0  0  0  0  0  0  0  0  0  0  0  0
   -2.0000   -4.7580    9.9660 C   0  0  0  0  0  0  0  0  0  0  0  0
   -1.8240   -3.4950   10.2850 N   0  0  0  0  0  0  0  0  0  0  0  0
   -0.7120   -3.0850    9.5880 N   0  0  0  0  0  0  0  0  0  0  0  0
   -0.2170   -4.0750    8.8580 N   0  0  0  0  0  0  0  0  0  0  0  0
   -1.0150   -5.1250    9.0880 N   0  0  0  0  0  0  0  0  0  0  0  0
   -3.9800   -5.1560   11.3990 N   0  0  0  0  0  0  0  0  0  0  0  0
   -4.7930   -6.1170   11.6460 C   0  0  0  0  0  0  0  0  0  0  0  0
   -5.9150   -5.9770   12.5990 C   0  0  0  0  0  0  0  0  0  0  0  0
   -4.5993  -10.6116   11.9042 H   0  0  0  0  0  0  0  0  0  0  0  0
   -5.3134   -9.7610   10.4924 H   0  0  0  0  0  0  0  0  0  0  0  0
   -3.5701  -10.1942   10.4924 H   0  0  0  0  0  0  0  0  0  0  0  0
   -4.6592   -8.4251   12.6863 H   0  0  0  0  0  0  0  0  0  0  0  0
   -2.9983   -8.5071   11.9496 H   0  0  0  0  0  0  0  0  0  0  0  0
   -5.2255   -7.7084   10.1985 H   0  0  0  0  0  0  0  0  0  0  0  0
   -0.8350   -6.0150    8.6310 H   0  0  0  0  0  0  0  0  0  0  0  0
   -4.0130   -4.2190   11.8160 H   0  0  0  0  0  0  0  0  0  0  0  0
   -5.5300   -6.0250   13.6283 H   0  0  0  0  0  0  0  0  0  0  0  0
   -6.4136   -5.0097   12.4388 H   0  0  0  0  0  0  0  0  0  0  0  0
   -6.6360   -6.7921   12.4388 H   0  0  0  0  0  0  0  0  0  0  0  0
  1  2  1  0
  2  3  1  0
  3  4  1  0
  4  5  2  0
  4  6  1  0
  6  7  1  0
  7  8  2  0
  8  9  1  0
  9 10  2  0
 10 11  1  0
  6 12  1  0
 12 13  2  0
 13 14  1  0
 13  3  1  0
 11  7  1  0
  1 15  1  0
  1 16  1  0
  1 17  1  0
  2 18  1  0
  2 19  1  0
  3 20  1  6
 11 21  1  0
 12 22  1  0
 14 23  1  0
 14 24  1  0
 14 25  1  0
M  CHG  1  12   1
M  END
>  <meeko>  (1) 
{"is_sidechain": [false], "free_energy": -6.23, "intermolecular_energy": -6.958, "internal_energy": -0.413}

$$$$
3gr2_ligand
     RDKit          3D

 25 26  0  0  0  0  0  0  0  0999 V2000
    7.9060   -4.7940    7.7960 C   0  0  0  0  0  0  0  0  0  0  0  0
    6.4790   -5.0980    7.3640 C   0  0  0  0  0  0  0  0  0  0  0  0
    6.1960   -4.6510    5.9310 C   0  0  2  0  0  0  0  0  0  0  0  0
    7.2630   -5.1550    4.9510 C   0  0  0  0  0  0  0  0  0  0  0  0
    7.5630   -6.3070    4.7010 O   0  0  0  0  0  0  0  0  0  0  0  0
    7.8160   -4.0090    4.4130 N   0  0  0  0  0  0  0  0  0  0  0  0
    8.8170   -3.9700    3.4920 C   0  0  0  0  0  0  0  0  0  0  0  0
    8.6750   -4.0130    2.1860 N   0  0  0  0  0  0  0  0  0  0  0  0
    9.9470   -3.9460    1.6700 N   0  0  0  0  0  0  0  0  0  0  0  0
   10.8500   -3.8640    2.6380 N   0  0  0  0  0  0  0  0  0  0  0  0
   10.1530   -3.8780    3.7800 N   0  0  0  0  0  0  0  0  0  0  0  0
    7.1880   -2.8170    4.9580 N   0  0  0  0  0  0  0  0  0  0  0  0
    6.2740   -3.1410    5.7980 C   0  0  0  0  0  0  0  0  0  0  0  0
    5.4600   -2.1310    6.5080 C   0  0  0  0  0  0  0  0  0  0  0  0
    7.9619   -4.7821    8.8945 H   0  0  0  0  0  0  0  0  0  0  0  0
    8.5810   -5.5685    7.4029 H   0  0  0  0  0  0  0  0  0  0  0  0
    8.2067   -3.8116    7.4029 H   0  0  0  0  0  0  0  0  0  0  0  0
    6.3121   -6.1829    7.4350 H   0  0  0  0  0  0  0  0  0  0  0  0
    5.8019   -4.5414    8.0286 H   0  0  0  0  0  0  0  0  0  0  0  0
    5.1969   -5.0514    5.7042 H   0  0  0  0  0  0  0  0  0  0  0  0
   10.6340   -3.8250    4.6750 H   0  0  0  0  0  0  0  0  0  0  0  0
    7.4480   -1.8610    4.6920 H   0  0  0  0  0  0  0  0  0  0  0  0
    5.5706   -2.2683    7.5938 H   0  0  0  0  0  0  0  0  0  0  0  0
    5.8012   -1.1231    6.2292 H   0  0  0  0  0  0  0  0  0  0  0  0
    4.4026   -2.2503    6.2292 H   0  0  0  0  0  0  0  0  0  0  0  0
  1  2  1  0
  2  3  1  0
  3  4  1  0
  4  5  2  0
  4  6  1  0
  6  7  1  0
  7  8  2  0
  8  9  1  0
  9 10  2  0
 10 11  1  0
  6 12  1  0
 12 13  2  0
 13 14  1  0
 13  3  1  0
 11  7  1  0
  1 15  1  0
  1 16  1  0
  1 17  1  0
  2 18  1  0
  2 19  1  0
  3 20  1  6
 11 21  1  0
 12 22  1  0
 14 23  1  0
 14 24  1  0
 14 25  1  0
M  CHG  1  12   1
M  END
>  <meeko>  (2) 
{"is_sidechain": [false], "free_energy": -5.918, "intermolecular_energy": -6.754, "internal_energy": -0.269}

$$$$
3gr2_ligand
     RDKit          3D

 25 26  0  0  0  0  0  0  0  0999 V2000
   -5.9860  -11.1550   13.4010 C   0  0  0  0  0  0  0  0  0  0  0  0
   -5.3600  -10.4650   12.1970 C   0  0  0  0  0  0  0  0  0  0  0  0
   -4.2640   -9.4790   12.5960 C   0  0  2  0  0  0  0  0  0  0  0  0
   -4.8290   -8.0870   12.9060 C   0  0  0  0  0  0  0  0  0  0  0  0
   -5.6350   -7.7830   13.7650 O   0  0  0  0  0  0  0  0  0  0  0  0
   -4.2230   -7.2480   11.9910 N   0  0  0  0  0  0  0  0  0  0  0  0
   -4.4300   -5.9070   11.8870 C   0  0  0  0  0  0  0  0  0  0  0  0
   -3.8190   -5.0870   11.0610 N   0  0  0  0  0  0  0  0  0  0  0  0
   -4.3480   -3.8440   11.3120 N   0  0  0  0  0  0  0  0  0  0  0  0
   -5.2620   -3.8990   12.2700 N   0  0  0  0  0  0  0  0  0  0  0  0
   -5.3210   -5.1860   12.6350 N   0  0  0  0  0  0  0  0  0  0  0  0
   -3.3120   -7.9830   11.1290 N   0  0  0  0  0  0  0  0  0  0  0  0
   -3.3050   -9.2260   11.4470 C   0  0  0  0  0  0  0  0  0  0  0  0
   -2.4620  -10.2170   10.7430 C   0  0  0  0  0  0  0  0  0  0  0  0
   -5.5857  -10.7137   14.3257 H   0  0  0  0  0  0  0  0  0  0  0  0
   -7.0775  -11.0214   13.3737 H   0  0  0  0  0  0  0  0  0  0  0  0
   -5.7472  -12.2284   13.3737 H   0  0  0  0  0  0  0  0  0  0  0  0
   -4.9239  -11.2305   11.5383 H   0  0  0  0  0  0  0  0  0  0  0  0
   -6.1520   -9.8976   11.6862 H   0  0  0  0  0  0  0  0  0  0  0  0
   -3.7779   -9.9377   13.4696 H   0  0  0  0  0  0  0  0  0  0  0  0
   -5.9610   -5.4810   13.3680 H   0  0  0  0  0  0  0  0  0  0  0  0
   -2.7590   -7.5520   10.3810 H   0  0  0  0  0  0  0  0  0  0  0  0
   -1.9333  -10.8386   11.4806 H   0  0  0  0  0  0  0  0  0  0  0  0
   -3.0971  -10.8566   10.1124 H   0  0  0  0  0  0  0  0  0  0  0  0
   -1.7288   -9.6927   10.1124 H   0  0  0  0  0  0  0  0  0  0  0  0
  1  2  1  0
  2  3  1  0
  3  4  1  0
  4  5  2  0
  4  6  1  0
  6  7  1  0
  7  8  2  0
  8  9  1  0
  9 10  2  0
 10 11  1  0
  6 12  1  0
 12 13  2  0
 13 14  1  0
 13  3  1  0
 11  7  1  0
  1 15  1  0
  1 16  1  0
  1 17  1  0
  2 18  1  0
  2 19  1  0
  3 20  1  1
 11 21  1  0
 12 22  1  0
 14 23  1  0
 14 24  1  0
 14 25  1  0
M  CHG  1  12   1
M  END
>  <meeko>  (3) 
{"is_sidechain": [false], "free_energy": -5.79, "intermolecular_energy": -6.503, "internal_energy": -0.377}

$$$$
3gr2_ligand
     RDKit          3D

 25 26  0  0  0  0  0  0  0  0999 V2000
   -2.1940  -10.7570   10.4530 C   0  0  0  0  0  0  0  0  0  0  0  0
   -2.9110  -10.0720   11.6080 C   0  0  0  0  0  0  0  0  0  0  0  0
   -4.1960   -9.3740   11.1640 C   0  0  2  0  0  0  0  0  0  0  0  0
   -3.9660   -7.8870   10.8630 C   0  0  0  0  0  0  0  0  0  0  0  0
   -3.2250   -7.4000   10.0310 O   0  0  0  0  0  0  0  0  0  0  0  0
   -4.7870   -7.2180   11.7490 N   0  0  0  0  0  0  0  0  0  0  0  0
   -4.9090   -5.8670   11.8500 C   0  0  0  0  0  0  0  0  0  0  0  0
   -5.9520   -5.2100   12.3070 N   0  0  0  0  0  0  0  0  0  0  0  0
   -5.6220   -3.8790   12.2210 N   0  0  0  0  0  0  0  0  0  0  0  0
   -4.4040   -3.7210   11.7220 N   0  0  0  0  0  0  0  0  0  0  0  0
   -3.9490   -4.9580   11.4880 N   0  0  0  0  0  0  0  0  0  0  0  0
   -5.5270   -8.1490   12.5840 N   0  0  0  0  0  0  0  0  0  0  0  0
   -5.2280   -9.3580   12.2750 C   0  0  0  0  0  0  0  0  0  0  0  0
   -5.8360  -10.5210   12.9570 C   0  0  0  0  0  0  0  0  0  0  0  0
   -1.4523  -11.4656   10.8504 H   0  0  0  0  0  0  0  0  0  0  0  0
   -2.9262  -11.2996    9.8370 H   0  0  0  0  0  0  0  0  0  0  0  0
   -1.6853  -10.0008    9.8370 H   0  0  0  0  0  0  0  0  0  0  0  0
   -3.1635  -10.8285   12.3655 H   0  0  0  0  0  0  0  0  0  0  0  0
   -2.2356   -9.3047   12.0143 H   0  0  0  0  0  0  0  0  0  0  0  0
   -4.5284   -9.9344   10.2777 H   0  0  0  0  0  0  0  0  0  0  0  0
   -3.0210   -5.0980   11.0980 H   0  0  0  0  0  0  0  0  0  0  0  0
   -6.1940   -7.8620   13.3090 H   0  0  0  0  0  0  0  0  0  0  0  0
   -5.7652  -10.3855   14.0463 H   0  0  0  0  0  0  0  0  0  0  0  0
   -6.8935  -10.6051   12.6660 H   0  0  0  0  0  0  0  0  0  0  0  0
   -5.3016  -11.4373   12.6660 H   0  0  0  0  0  0  0  0  0  0  0  0
  1  2  1  0
  2  3  1  0
  3  4  1  0
  4  5  2  0
  4  6  1  0
  6  7  1  0
  7  8  2  0
  8  9  1  0
  9 10  2  0
 10 11  1  0
  6 12  1  0
 12 13  2  0
 13 14  1  0
 13  3  1  0
 11  7  1  0
  1 15  1  0
  1 16  1  0
  1 17  1  0
  2 18  1  0
  2 19  1  0
  3 20  1  6
 11 21  1  0
 12 22  1  0
 14 23  1  0
 14 24  1  0
 14 25  1  0
M  CHG  1  12   1
M  END
>  <meeko>  (4) 
{"is_sidechain": [false], "free_energy": -5.762, "intermolecular_energy": -6.419, "internal_energy": -0.43}

$$$$
3gr2_ligand
     RDKit          3D

 25 26  0  0  0  0  0  0  0  0999 V2000
   -5.6250  -10.7560   12.6910 C   0  0  0  0  0  0  0  0  0  0  0  0
   -5.4950   -9.3430   13.2410 C   0  0  0  0  0  0  0  0  0  0  0  0
   -5.9000   -8.2810   12.2190 C   0  0  2  0  0  0  0  0  0  0  0  0
   -4.7170   -7.8460   11.3440 C   0  0  0  0  0  0  0  0  0  0  0  0
   -4.0470   -8.5350   10.5990 O   0  0  0  0  0  0  0  0  0  0  0  0
   -4.5760   -6.4940   11.5900 N   0  0  0  0  0  0  0  0  0  0  0  0
   -3.6390   -5.6810   11.0310 C   0  0  0  0  0  0  0  0  0  0  0  0
   -3.6610   -4.3670   11.0100 N   0  0  0  0  0  0  0  0  0  0  0  0
   -2.5200   -3.9860   10.3460 N   0  0  0  0  0  0  0  0  0  0  0  0
   -1.8140   -5.0420    9.9660 N   0  0  0  0  0  0  0  0  0  0  0  0
   -2.5050   -6.1070   10.3910 N   0  0  0  0  0  0  0  0  0  0  0  0
   -5.5720   -6.0270   12.5390 N   0  0  0  0  0  0  0  0  0  0  0  0
   -6.3320   -6.9960   12.9010 C   0  0  0  0  0  0  0  0  0  0  0  0
   -7.4440   -6.8140   13.8590 C   0  0  0  0  0  0  0  0  0  0  0  0
   -5.6907  -11.4697   13.5255 H   0  0  0  0  0  0  0  0  0  0  0  0
   -6.5335  -10.8275   12.0750 H   0  0  0  0  0  0  0  0  0  0  0  0
   -4.7448  -10.9921   12.0750 H   0  0  0  0  0  0  0  0  0  0  0  0
   -6.1420   -9.2472   14.1255 H   0  0  0  0  0  0  0  0  0  0  0  0
   -4.4377   -9.1779   13.4956 H   0  0  0  0  0  0  0  0  0  0  0  0
   -6.7049   -8.7476   11.6321 H   0  0  0  0  0  0  0  0  0  0  0  0
   -2.1590   -7.0460   10.2150 H   0  0  0  0  0  0  0  0  0  0  0  0
   -5.6470   -5.0550   12.8590 H   0  0  0  0  0  0  0  0  0  0  0  0
   -7.0567   -6.8774   14.8866 H   0  0  0  0  0  0  0  0  0  0  0  0
   -7.9061   -5.8283   13.7014 H   0  0  0  0  0  0  0  0  0  0  0  0
   -8.1962   -7.6010   13.7014 H   0  0  0  0  0  0  0  0  0  0  0  0
  1  2  1  0
  2  3  1  0
  3  4  1  0
  4  5  2  0
  4  6  1  0
  6  7  1  0
  7  8  2  0
  8  9  1  0
  9 10  2  0
 10 11  1  0
  6 12  1  0
 12 13  2  0
 13 14  1  0
 13  3  1  0
 11  7  1  0
  1 15  1  0
  1 16  1  0
  1 17  1  0
  2 18  1  0
  2 19  1  0
  3 20  1  6
 11 21  1  0
 12 22  1  0
 14 23  1  0
 14 24  1  0
 14 25  1  0
M  CHG  1  12   1
M  END
>  <meeko>  (5) 
{"is_sidechain": [false], "free_energy": -5.744, "intermolecular_energy": -6.434, "internal_energy": -0.395}

$$$$
3gr2_ligand
     RDKit          3D

 25 26  0  0  0  0  0  0  0  0999 V2000
   -3.2110   -8.2000   10.2460 C   0  0  0  0  0  0  0  0  0  0  0  0
   -4.4840   -7.5090   10.7130 C   0  0  0  0  0  0  0  0  0  0  0  0
   -4.2630   -6.6670   11.9690 C   0  0  2  0  0  0  0  0  0  0  0  0
   -4.7570   -7.3820   13.2330 C   0  0  0  0  0  0  0  0  0  0  0  0
   -4.3780   -8.4440   13.6870 O   0  0  0  0  0  0  0  0  0  0  0  0
   -5.7340   -6.5520   13.7470 N   0  0  0  0  0  0  0  0  0  0  0  0
   -6.4610   -6.7870   14.8730 C   0  0  0  0  0  0  0  0  0  0  0  0
   -7.7440   -7.0680   14.9270 N   0  0  0  0  0  0  0  0  0  0  0  0
   -8.0360   -7.2240   16.2610 N   0  0  0  0  0  0  0  0  0  0  0  0
   -6.9570   -7.0430   17.0090 N   0  0  0  0  0  0  0  0  0  0  0  0
   -5.9670   -6.7700   16.1500 N   0  0  0  0  0  0  0  0  0  0  0  0
   -5.9010   -5.3650   12.9250 N   0  0  0  0  0  0  0  0  0  0  0  0
   -5.0880   -5.3940   11.9330 C   0  0  0  0  0  0  0  0  0  0  0  0
   -5.0280   -4.3100   10.9280 C   0  0  0  0  0  0  0  0  0  0  0  0
   -2.6246   -8.5183   11.1205 H   0  0  0  0  0  0  0  0  0  0  0  0
   -3.4726   -9.0799    9.6400 H   0  0  0  0  0  0  0  0  0  0  0  0
   -2.6157   -7.5012    9.6400 H   0  0  0  0  0  0  0  0  0  0  0  0
   -4.8459   -6.8533    9.9073 H   0  0  0  0  0  0  0  0  0  0  0  0
   -5.2189   -8.2900   10.9580 H   0  0  0  0  0  0  0  0  0  0  0  0
   -3.1800   -6.4760   11.9921 H   0  0  0  0  0  0  0  0  0  0  0  0
   -5.0260   -6.5900   16.4930 H   0  0  0  0  0  0  0  0  0  0  0  0
   -6.5730   -4.6180   13.1280 H   0  0  0  0  0  0  0  0  0  0  0  0
   -4.9742   -3.3379   11.4400 H   0  0  0  0  0  0  0  0  0  0  0  0
   -4.1358   -4.4427   10.2984 H   0  0  0  0  0  0  0  0  0  0  0  0
   -5.9294   -4.3434   10.2984 H   0  0  0  0  0  0  0  0  0  0  0  0
  1  2  1  0
  2  3  1  0
  3  4  1  0
  4  5  2  0
  4  6  1  0
  6  7  1  0
  7  8  2  0
  8  9  1  0
  9 10  2  0
 10 11  1  0
  6 12  1  0
 12 13  2  0
 13 14  1  0
 13  3  1  0
 11  7  1  0
  1 15  1  0
  1 16  1  0
  1 17  1  0
  2 18  1  0
  2 19  1  0
  3 20  1  1
 11 21  1  0
 12 22  1  0
 14 23  1  0
 14 24  1  0
 14 25  1  0
M  CHG  1  12   1
M  END
>  <meeko>  (6) 
{"is_sidechain": [false], "free_energy": -5.74, "intermolecular_energy": -6.471, "internal_energy": -0.353}

$$$$
3gr2_ligand
     RDKit          3D

 25 26  0  0  0  0  0  0  0  0999 V2000
   -4.1090   -3.6610   11.7320 C   0  0  0  0  0  0  0  0  0  0  0  0
   -4.3400   -4.4740   10.4670 C   0  0  0  0  0  0  0  0  0  0  0  0
   -4.7610   -5.9120   10.7670 C   0  0  2  0  0  0  0  0  0  0  0  0
   -5.6110   -6.0070   12.0420 C   0  0  0  0  0  0  0  0  0  0  0  0
   -6.6830   -5.4780   12.2650 O   0  0  0  0  0  0  0  0  0  0  0  0
   -4.8880   -6.8260   12.8870 N   0  0  0  0  0  0  0  0  0  0  0  0
   -5.2560   -7.1880   14.1450 C   0  0  0  0  0  0  0  0  0  0  0  0
   -4.9020   -8.2860   14.7750 N   0  0  0  0  0  0  0  0  0  0  0  0
   -5.5080   -8.2220   16.0070 N   0  0  0  0  0  0  0  0  0  0  0  0
   -6.2190   -7.1100   16.1300 N   0  0  0  0  0  0  0  0  0  0  0  0
   -6.0670   -6.4560   14.9720 N   0  0  0  0  0  0  0  0  0  0  0  0
   -3.6540   -7.2700   12.2590 N   0  0  0  0  0  0  0  0  0  0  0  0
   -3.5600   -6.7860   11.0740 C   0  0  0  0  0  0  0  0  0  0  0  0
   -2.4080   -7.0750   10.1920 C   0  0  0  0  0  0  0  0  0  0  0  0
   -4.2890   -4.2946   12.6130 H   0  0  0  0  0  0  0  0  0  0  0  0
   -3.0715   -3.2958   11.7488 H   0  0  0  0  0  0  0  0  0  0  0  0
   -4.7994   -2.8048   11.7488 H   0  0  0  0  0  0  0  0  0  0  0  0
   -5.1316   -3.9903    9.8759 H   0  0  0  0  0  0  0  0  0  0  0  0
   -3.3897   -4.5113    9.9143 H   0  0  0  0  0  0  0  0  0  0  0  0
   -5.3110   -6.2364    9.8713 H   0  0  0  0  0  0  0  0  0  0  0  0
   -6.5260   -5.5610   14.8250 H   0  0  0  0  0  0  0  0  0  0  0  0
   -2.9710   -7.8860   12.7120 H   0  0  0  0  0  0  0  0  0  0  0  0
   -1.5227   -7.2971   10.8060 H   0  0  0  0  0  0  0  0  0  0  0  0
   -2.6409   -7.9426    9.5571 H   0  0  0  0  0  0  0  0  0  0  0  0
   -2.2038   -6.2003    9.5571 H   0  0  0  0  0  0  0  0  0  0  0  0
  1  2  1  0
  2  3  1  0
  3  4  1  0
  4  5  2  0
  4  6  1  0
  6  7  1  0
  7  8  2  0
  8  9  1  0
  9 10  2  0
 10 11  1  0
  6 12  1  0
 12 13  2  0
 13 14  1  0
 13  3  1  0
 11  7  1  0
  1 15  1  0
  1 16  1  0
  1 17  1  0
  2 18  1  0
  2 19  1  0
  3 20  1  6
 11 21  1  0
 12 22  1  0
 14 23  1  0
 14 24  1  0
 14 25  1  0
M  CHG  1  12   1
M  END
>  <meeko>  (7) 
{"is_sidechain": [false], "free_energy": -5.618, "intermolecular_energy": -6.376, "internal_energy": -0.312}

$$$$
3gr2_ligand
     RDKit          3D

 25 26  0  0  0  0  0  0  0  0999 V2000
   -7.8800   -6.8950   14.8420 C   0  0  0  0  0  0  0  0  0  0  0  0
   -7.1140   -7.4210   13.6380 C   0  0  0  0  0  0  0  0  0  0  0  0
   -5.6020   -7.2730   13.8000 C   0  0  2  0  0  0  0  0  0  0  0  0
   -4.9670   -6.5350   12.6140 C   0  0  0  0  0  0  0  0  0  0  0  0
   -5.1960   -5.4050   12.2290 O   0  0  0  0  0  0  0  0  0  0  0  0
   -4.0740   -7.4400   12.0730 N   0  0  0  0  0  0  0  0  0  0  0  0
   -3.2830   -7.2200   10.9890 C   0  0  0  0  0  0  0  0  0  0  0  0
   -2.9040   -8.1170   10.1060 N   0  0  0  0  0  0  0  0  0  0  0  0
   -2.1210   -7.4420    9.2000 N   0  0  0  0  0  0  0  0  0  0  0  0
   -2.0210   -6.1600    9.5200 N   0  0  0  0  0  0  0  0  0  0  0  0
   -2.7450   -6.0110   10.6360 N   0  0  0  0  0  0  0  0  0  0  0  0
   -4.0780   -8.6890   12.8160 N   0  0  0  0  0  0  0  0  0  0  0  0
   -4.9100   -8.6230   13.7910 C   0  0  0  0  0  0  0  0  0  0  0  0
   -5.1220   -9.7500   14.7270 C   0  0  0  0  0  0  0  0  0  0  0  0
   -7.3879   -7.2329   15.7659 H   0  0  0  0  0  0  0  0  0  0  0  0
   -7.8947   -5.7954   14.8155 H   0  0  0  0  0  0  0  0  0  0  0  0
   -8.9115   -7.2762   14.8155 H   0  0  0  0  0  0  0  0  0  0  0  0
   -7.3525   -8.4866   13.5055 H   0  0  0  0  0  0  0  0  0  0  0  0
   -7.4172   -6.8283   12.7623 H   0  0  0  0  0  0  0  0  0  0  0  0
   -5.4738   -6.7309   14.7485 H   0  0  0  0  0  0  0  0  0  0  0  0
   -2.8200   -5.0990   11.0800 H   0  0  0  0  0  0  0  0  0  0  0  0
   -3.4880   -9.4950   12.5840 H   0  0  0  0  0  0  0  0  0  0  0  0
   -5.0533   -9.3847   15.7623 H   0  0  0  0  0  0  0  0  0  0  0  0
   -6.1178  -10.1854   14.5571 H   0  0  0  0  0  0  0  0  0  0  0  0
   -4.3525  -10.5174   14.5571 H   0  0  0  0  0  0  0  0  0  0  0  0
  1  2  1  0
  2  3  1  0
  3  4  1  0
  4  5  2  0
  4  6  1  0
  6  7  1  0
  7  8  2  0
  8  9  1  0
  9 10  2  0
 10 11  1  0
  6 12  1  0
 12 13  2  0
 13 14  1  0
 13  3  1  0
 11  7  1  0
  1 15  1  0
  1 16  1  0
  1 17  1  0
  2 18  1  0
  2 19  1  0
  3 20  1  1
 11 21  1  0
 12 22  1  0
 14 23  1  0
 14 24  1  0
 14 25  1  0
M  CHG  1  12   1
M  END
>  <meeko>  (8) 
{"is_sidechain": [false], "free_energy": -5.535, "intermolecular_energy": -6.151, "internal_energy": -0.445}

$$$$
3gr2_ligand
     RDKit          3D

 25 26  0  0  0  0  0  0  0  0999 V2000
   -7.8460   -6.9030   15.0340 C   0  0  0  0  0  0  0  0  0  0  0  0
   -6.4780   -6.5920   14.4440 C   0  0  0  0  0  0  0  0  0  0  0  0
   -6.4260   -6.8330   12.9360 C   0  0  2  0  0  0  0  0  0  0  0  0
   -5.8560   -8.2160   12.5950 C   0  0  0  0  0  0  0  0  0  0  0  0
   -6.2960   -9.3040   12.9140 O   0  0  0  0  0  0  0  0  0  0  0  0
   -4.7250   -7.9560   11.8450 N   0  0  0  0  0  0  0  0  0  0  0  0
   -3.8870   -8.8930   11.3250 C   0  0  0  0  0  0  0  0  0  0  0  0
   -2.5740   -8.8440   11.3150 N   0  0  0  0  0  0  0  0  0  0  0  0
   -2.1620   -9.9970   10.6920 N   0  0  0  0  0  0  0  0  0  0  0  0
   -3.1990  -10.7370   10.3260 N   0  0  0  0  0  0  0  0  0  0  0  0
   -4.2820  -10.0550   10.7180 N   0  0  0  0  0  0  0  0  0  0  0  0
   -4.5290   -6.5260   11.6710 N   0  0  0  0  0  0  0  0  0  0  0  0
   -5.4650   -5.8740   12.2580 C   0  0  0  0  0  0  0  0  0  0  0  0
   -5.5290   -4.3960   12.2420 C   0  0  0  0  0  0  0  0  0  0  0  0
   -7.7835   -6.8888   16.1321 H   0  0  0  0  0  0  0  0  0  0  0  0
   -8.5707   -6.1467   14.6982 H   0  0  0  0  0  0  0  0  0  0  0  0
   -8.1725   -7.8983   14.6982 H   0  0  0  0  0  0  0  0  0  0  0  0
   -6.2397   -5.5365   14.6415 H   0  0  0  0  0  0  0  0  0  0  0  0
   -5.7477   -7.2652   14.9168 H   0  0  0  0  0  0  0  0  0  0  0  0
   -7.4652   -6.7134   12.5957 H   0  0  0  0  0  0  0  0  0  0  0  0
   -5.2120  -10.4270   10.5440 H   0  0  0  0  0  0  0  0  0  0  0  0
   -3.7500   -6.1160   11.1450 H   0  0  0  0  0  0  0  0  0  0  0  0
   -5.5453   -4.0185   13.2751 H   0  0  0  0  0  0  0  0  0  0  0  0
   -4.6473   -3.9964   11.7195 H   0  0  0  0  0  0  0  0  0  0  0  0
   -6.4419   -4.0742   11.7195 H   0  0  0  0  0  0  0  0  0  0  0  0
  1  2  1  0
  2  3  1  0
  3  4  1  0
  4  5  2  0
  4  6  1  0
  6  7  1  0
  7  8  2  0
  8  9  1  0
  9 10  2  0
 10 11  1  0
  6 12  1  0
 12 13  2  0
 13 14  1  0
 13  3  1  0
 11  7  1  0
  1 15  1  0
  1 16  1  0
  1 17  1  0
  2 18  1  0
  2 19  1  0
  3 20  1  6
 11 21  1  0
 12 22  1  0
 14 23  1  0
 14 24  1  0
 14 25  1  0
M  CHG  1  12   1
M  END
>  <meeko>  (9) 
{"is_sidechain": [false], "free_energy": -5.516, "intermolecular_energy": -6.135, "internal_energy": -0.439}

$$$$
