
     RDKit          3D

 24 26  0  0  0  0  0  0  0  0999 V2000
   -2.3630   -3.5620   -2.7660 C   0  0  0  0  0  0  0  0  0  0  0  0
   -1.1300   -2.7320   -2.8980 C   0  0  0  0  0  0  0  0  0  0  0  0
   -0.2830   -2.9220   -4.1280 C   0  0  0  0  0  0  0  0  0  0  0  0
   -0.8000   -1.8670   -1.9390 C   0  0  0  0  0  0  0  0  0  0  0  0
    0.3230   -0.8950   -1.9560 C   0  0  0  0  0  0  0  0  0  0  0  0
    0.4160   -0.2900   -0.5870 C   0  0  0  0  0  0  0  0  0  0  0  0
    1.1170    1.0270   -0.5540 C   0  0  0  0  0  0  0  0  0  0  0  0
    0.4890    2.1880   -1.2690 C   0  0  0  0  0  0  0  0  0  0  0  0
    2.2560    1.1710    0.1250 C   0  0  0  0  0  0  0  0  0  0  0  0
    2.9550    2.4590    0.2460 C   0  0  0  0  0  0  0  0  0  0  0  0
    3.7320    2.5170    1.4580 N   0  0  0  0  0  0  0  0  0  0  0  0
    3.7980    3.8470    1.9730 C   0  0  0  0  0  0  0  0  0  0  0  0
    5.2180    4.1720    2.2970 C   0  0  0  0  0  0  0  0  0  0  0  0
    5.2820    5.3900    3.0180 N   0  0  0  0  0  0  0  0  0  0  0  0
    6.6050    5.7090    3.4200 C   0  0  2  0  0  0  0  0  0  0  0  0
    6.6460    6.3350    4.7990 C   0  0  2  0  0  0  0  0  0  0  0  0
    6.0660    7.7000    4.8130 C   0  0  0  0  0  0  0  0  0  0  0  0
    6.8280    8.5720    3.8570 C   0  0  1  0  0  0  0  0  0  0  0  0
    8.2780    8.6300    4.2800 C   0  0  0  0  0  0  0  0  0  0  0  0
    8.8630    7.2420    4.2490 C   0  0  1  0  0  0  0  0  0  0  0  0
    8.0870    6.3890    5.2230 C   0  0  0  0  0  0  0  0  0  0  0  0
    8.7670    6.6810    2.8500 C   0  0  0  0  0  0  0  0  0  0  0  0
    7.3210    6.6200    2.4180 C   0  0  2  0  0  0  0  0  0  0  0  0
    6.7580    7.9970    2.4640 C   0  0  0  0  0  0  0  0  0  0  0  0
  2  1  1  0
  3  2  1  0
  4  2  2  3
  5  4  1  0
  6  5  1  0
  7  6  1  0
  8  7  1  0
  9  7  2  3
 10  9  1  0
 11 10  1  0
 12 11  1  0
 13 12  1  0
 14 13  1  0
 15 14  1  6
 16 15  1  0
 16 17  1  6
 18 17  1  1
 19 18  1  0
 20 19  1  6
 21 20  1  0
 21 16  1  0
 22 20  1  0
 23 22  1  1
 23 15  1  0
 24 23  1  0
 24 18  1  0
M  CHG  2  11   1  14   1
M  END
$$$$
