
     RDKit          3D

 20 21  0  0  0  0  0  0  0  0999 V2000
   14.2200   -3.4110   10.2590 C   0  0  0  0  0  0  0  0  0  0  0  0
   14.8580   -3.4020    8.9110 C   0  0  0  0  0  0  0  0  0  0  0  0
   15.7940   -4.3750    8.5540 C   0  0  0  0  0  0  0  0  0  0  0  0
   16.3820   -4.3470    7.3280 C   0  0  0  0  0  0  0  0  0  0  0  0
   16.0400   -3.3810    6.3870 C   0  0  0  0  0  0  0  0  0  0  0  0
   16.6390   -3.3620    5.1170 N   0  0  0  0  0  0  0  0  0  0  0  0
   17.2910   -4.4480    4.4690 C   0  0  0  0  0  0  0  0  0  0  0  0
   17.2810   -5.7340    4.9720 C   0  0  0  0  0  0  0  0  0  0  0  0
   17.9210   -6.7570    4.3310 C   0  0  0  0  0  0  0  0  0  0  0  0
   18.5890   -6.5400    3.1540 C   0  0  0  0  0  0  0  0  0  0  0  0
   18.6030   -5.2610    2.6020 C   0  0  0  0  0  0  0  0  0  0  0  0
   17.9670   -4.2130    3.2460 C   0  0  0  0  0  0  0  0  0  0  0  0
   18.0100   -2.8370    2.6320 C   0  0  0  0  0  0  0  0  0  0  0  0
   18.3680   -2.7130    1.4640 O   0  0  0  0  0  0  0  0  0  0  0  0
   17.6700   -1.8880    3.3300 O   0  0  0  0  0  0  0  0  0  0  0  0
   15.1010   -2.4040    6.7340 C   0  0  0  0  0  0  0  0  0  0  0  0
   14.6880   -1.3130    5.7620 C   0  0  0  0  0  0  0  0  0  0  0  0
   15.3580   -1.1480    4.7450 O   0  0  0  0  0  0  0  0  0  0  0  0
   13.7090   -0.6580    6.0340 O   0  0  0  0  0  0  0  0  0  0  0  0
   14.5130   -2.4200    7.9890 C   0  0  0  0  0  0  0  0  0  0  0  0
  2  1  1  0
  3  2  2  0
  4  3  1  0
  5  4  2  0
  6  5  1  0
  7  6  1  0
  8  7  2  0
  9  8  1  0
 10  9  2  0
 11 10  1  0
 12 11  2  0
 12  7  1  0
 13 12  1  0
 14 13  2  0
 15 13  1  0
 16  5  1  0
 17 16  1  0
 18 17  2  0
 19 17  1  0
 20 16  2  0
 20  2  1  0
M  CHG  2  15  -1  19  -1
M  END
$$$$
