1o3f_ligand
     RDKit          3D

 43 46  0  0  0  0  0  0  0  0999 V2000
   -3.6000   10.4760   23.4080 N   0  0  0  0  0  0  0  0  0  0  0  0
   -3.7450   10.8930   22.1690 C   0  0  0  0  0  0  0  0  0  0  0  0
   -3.7680   12.1740   21.8720 N   0  0  0  0  0  0  0  0  0  0  0  0
   -3.8800    9.9050   21.0930 C   0  0  0  0  0  0  0  0  0  0  0  0
   -3.5560    8.5600   21.3220 C   0  0  0  0  0  0  0  0  0  0  0  0
   -3.6740    7.5990   20.3110 C   0  0  0  0  0  0  0  0  0  0  0  0
   -4.1300    8.0310   19.0630 C   0  0  0  0  0  0  0  0  0  0  0  0
   -4.3420    7.3270   17.9020 N   0  0  0  0  0  0  0  0  0  0  0  0
   -4.8050    8.1410   16.8890 C   0  0  0  0  0  0  0  0  0  0  0  0
   -5.1130    7.6290   15.5390 C   0  0  0  0  0  0  0  0  0  0  0  0
   -5.9450    8.3800   14.6930 C   0  0  0  0  0  0  0  0  0  0  0  0
   -6.2650    7.9370   13.4080 C   0  0  0  0  0  0  0  0  0  0  0  0
   -5.7580    6.7280   12.9390 C   0  0  0  0  0  0  0  0  0  0  0  0
   -4.9230    5.9400   13.7460 C   0  0  0  0  0  0  0  0  0  0  0  0
   -4.4110    4.6720   13.2120 C   0  0  0  0  0  0  0  0  0  0  0  0
   -5.1730    3.4980   13.3050 C   0  0  0  0  0  0  0  0  0  0  0  0
   -4.6940    2.2960   12.7790 C   0  0  0  0  0  0  0  0  0  0  0  0
   -3.4480    2.2550   12.1560 C   0  0  0  0  0  0  0  0  0  0  0  0
   -2.6790    3.4140   12.0580 C   0  0  0  0  0  0  0  0  0  0  0  0
   -3.1580    4.6150   12.5850 C   0  0  0  0  0  0  0  0  0  0  0  0
   -4.6090    6.4020   15.0450 C   0  0  0  0  0  0  0  0  0  0  0  0
   -3.7880    5.6470   15.8610 O   0  0  0  0  0  0  0  0  0  0  0  0
   -4.8850    9.4120   17.4380 C   0  0  0  0  0  0  0  0  0  0  0  0
   -4.4630    9.3540   18.7960 C   0  0  0  0  0  0  0  0  0  0  0  0
   -4.3360   10.3070   19.8240 C   0  0  0  0  0  0  0  0  0  0  0  0
   -3.6130    9.4800   23.6060 H   0  0  0  0  0  0  0  0  0  0  0  0
   -3.5000   11.1090   24.1900 H   0  0  0  0  0  0  0  0  0  0  0  0
   -3.6760   12.9000   22.5690 H   0  0  0  0  0  0  0  0  0  0  0  0
   -3.8560   12.4610   20.9010 H   0  0  0  0  0  0  0  0  0  0  0  0
   -3.2016    8.2536   22.3172 H   0  0  0  0  0  0  0  0  0  0  0  0
   -3.4177    6.5447   20.4921 H   0  0  0  0  0  0  0  0  0  0  0  0
   -4.1870    6.3330   17.7750 H   0  0  0  0  0  0  0  0  0  0  0  0
   -6.3531    9.3371   15.0500 H   0  0  0  0  0  0  0  0  0  0  0  0
   -6.9189    8.5444   12.7650 H   0  0  0  0  0  0  0  0  0  0  0  0
   -6.0147    6.3869   11.9252 H   0  0  0  0  0  0  0  0  0  0  0  0
   -6.1567    3.5242   13.7966 H   0  0  0  0  0  0  0  0  0  0  0  0
   -5.3004    1.3815   12.8565 H   0  0  0  0  0  0  0  0  0  0  0  0
   -3.0712    1.3083   11.7416 H   0  0  0  0  0  0  0  0  0  0  0  0
   -1.6957    3.3822   11.5659 H   0  0  0  0  0  0  0  0  0  0  0  0
   -2.5462    5.5258   12.5075 H   0  0  0  0  0  0  0  0  0  0  0  0
   -2.9930    6.1730   16.0630 H   0  0  0  0  0  0  0  0  0  0  0  0
   -5.2199   10.3171   16.9101 H   0  0  0  0  0  0  0  0  0  0  0  0
   -4.5918   11.3603   19.6364 H   0  0  0  0  0  0  0  0  0  0  0  0
  1  2  1  0
  2  3  2  0
  2  4  1  0
  4  5  2  0
  5  6  1  0
  6  7  2  0
  7  8  1  0
  8  9  1  0
  9 10  1  0
 10 11  2  0
 11 12  1  0
 12 13  2  0
 13 14  1  0
 14 15  1  0
 15 16  2  0
 16 17  1  0
 17 18  2  0
 18 19  1  0
 19 20  2  0
 14 21  2  0
 21 22  1  0
  9 23  2  0
 23 24  1  0
 24 25  2  0
 25  4  1  0
 24  7  1  0
 21 10  1  0
 20 15  1  0
  1 26  1  0
  1 27  1  0
  3 28  1  0
  3 29  1  0
  5 30  1  0
  6 31  1  0
  8 32  1  0
 11 33  1  0
 12 34  1  0
 13 35  1  0
 16 36  1  0
 17 37  1  0
 18 38  1  0
 19 39  1  0
 20 40  1  0
 22 41  1  0
 23 42  1  0
 25 43  1  0
M  CHG  1   3   1
M  END
>  <meeko>  (1) 
{"is_sidechain": [false], "free_energy": -6.517, "intermolecular_energy": -7.85, "internal_energy": -0.779}

$$$$
1o3f_ligand
     RDKit          3D

 43 46  0  0  0  0  0  0  0  0999 V2000
   -2.2720    2.0370   11.2310 N   0  0  0  0  0  0  0  0  0  0  0  0
   -3.4280    1.9370   11.8490 C   0  0  0  0  0  0  0  0  0  0  0  0
   -4.1200    0.8180   11.8380 N   0  0  0  0  0  0  0  0  0  0  0  0
   -3.9570    3.0990   12.5710 C   0  0  0  0  0  0  0  0  0  0  0  0
   -3.3310    4.3490   12.4580 C   0  0  0  0  0  0  0  0  0  0  0  0
   -3.8140    5.4720   13.1390 C   0  0  0  0  0  0  0  0  0  0  0  0
   -4.9490    5.3010   13.9370 C   0  0  0  0  0  0  0  0  0  0  0  0
   -5.6360    6.2070   14.7080 N   0  0  0  0  0  0  0  0  0  0  0  0
   -6.7140    5.6230   15.3400 C   0  0  0  0  0  0  0  0  0  0  0  0
   -7.6190    6.3820   16.2280 C   0  0  0  0  0  0  0  0  0  0  0  0
   -9.0040    6.1660   16.1440 C   0  0  0  0  0  0  0  0  0  0  0  0
   -9.8990    6.8590   16.9610 C   0  0  0  0  0  0  0  0  0  0  0  0
   -9.4250    7.7870   17.8850 C   0  0  0  0  0  0  0  0  0  0  0  0
   -8.0510    8.0400   18.0080 C   0  0  0  0  0  0  0  0  0  0  0  0
   -7.5960    9.0260   18.9940 C   0  0  0  0  0  0  0  0  0  0  0  0
   -7.2640    8.6320   20.2990 C   0  0  0  0  0  0  0  0  0  0  0  0
   -6.8110    9.5680   21.2310 C   0  0  0  0  0  0  0  0  0  0  0  0
   -6.6870   10.9080   20.8700 C   0  0  0  0  0  0  0  0  0  0  0  0
   -7.0150   11.3150   19.5780 C   0  0  0  0  0  0  0  0  0  0  0  0
   -7.4680   10.3790   18.6460 C   0  0  0  0  0  0  0  0  0  0  0  0
   -7.1580    7.3290   17.1720 C   0  0  0  0  0  0  0  0  0  0  0  0
   -5.7980    7.5580   17.2720 O   0  0  0  0  0  0  0  0  0  0  0  0
   -6.7010    4.2930   14.9500 C   0  0  0  0  0  0  0  0  0  0  0  0
   -5.6000    4.0810   14.0750 C   0  0  0  0  0  0  0  0  0  0  0  0
   -5.0980    2.9620   13.3840 C   0  0  0  0  0  0  0  0  0  0  0  0
   -1.7760    2.9240   11.2380 H   0  0  0  0  0  0  0  0  0  0  0  0
   -1.8560    1.2710   10.7190 H   0  0  0  0  0  0  0  0  0  0  0  0
   -3.8060   -0.0150   11.3610 H   0  0  0  0  0  0  0  0  0  0  0  0
   -4.9980    0.7670   12.3470 H   0  0  0  0  0  0  0  0  0  0  0  0
   -2.4406    4.4488   11.8199 H   0  0  0  0  0  0  0  0  0  0  0  0
   -3.3200    6.4508   13.0499 H   0  0  0  0  0  0  0  0  0  0  0  0
   -5.4050    7.1880   14.8180 H   0  0  0  0  0  0  0  0  0  0  0  0
   -9.3919    5.4352   15.4191 H   0  0  0  0  0  0  0  0  0  0  0  0
  -10.9796    6.6719   16.8749 H   0  0  0  0  0  0  0  0  0  0  0  0
  -10.1367    8.3280   18.5259 H   0  0  0  0  0  0  0  0  0  0  0  0
   -7.3615    7.5759   20.5907 H   0  0  0  0  0  0  0  0  0  0  0  0
   -6.5519    9.2472   22.2508 H   0  0  0  0  0  0  0  0  0  0  0  0
   -6.3302   11.6448   21.6048 H   0  0  0  0  0  0  0  0  0  0  0  0
   -6.9171   12.3728   19.2927 H   0  0  0  0  0  0  0  0  0  0  0  0
   -7.7272   10.7060   17.6282 H   0  0  0  0  0  0  0  0  0  0  0  0
   -5.6650    8.4760   17.5710 H   0  0  0  0  0  0  0  0  0  0  0  0
   -7.4242    3.5266   15.2657 H   0  0  0  0  0  0  0  0  0  0  0  0
   -5.5949    1.9852   13.4789 H   0  0  0  0  0  0  0  0  0  0  0  0
  1  2  1  0
  2  3  2  0
  2  4  1  0
  4  5  2  0
  5  6  1  0
  6  7  2  0
  7  8  1  0
  8  9  1  0
  9 10  1  0
 10 11  2  0
 11 12  1  0
 12 13  2  0
 13 14  1  0
 14 15  1  0
 15 16  2  0
 16 17  1  0
 17 18  2  0
 18 19  1  0
 19 20  2  0
 14 21  2  0
 21 22  1  0
  9 23  2  0
 23 24  1  0
 24 25  2  0
 25  4  1  0
 24  7  1  0
 21 10  1  0
 20 15  1  0
  1 26  1  0
  1 27  1  0
  3 28  1  0
  3 29  1  0
  5 30  1  0
  6 31  1  0
  8 32  1  0
 11 33  1  0
 12 34  1  0
 13 35  1  0
 16 36  1  0
 17 37  1  0
 18 38  1  0
 19 39  1  0
 20 40  1  0
 22 41  1  0
 23 42  1  0
 25 43  1  0
M  CHG  1   3   1
M  END
>  <meeko>  (2) 
{"is_sidechain": [false], "free_energy": -6.496, "intermolecular_energy": -7.673, "internal_energy": -0.931}

$$$$
1o3f_ligand
     RDKit          3D

 43 46  0  0  0  0  0  0  0  0999 V2000
   -4.5760    9.7870   12.1930 N   0  0  0  0  0  0  0  0  0  0  0  0
   -5.5820    8.9790   12.4490 C   0  0  0  0  0  0  0  0  0  0  0  0
   -6.7510    9.1290   11.8640 N   0  0  0  0  0  0  0  0  0  0  0  0
   -5.3940    7.8830   13.4060 C   0  0  0  0  0  0  0  0  0  0  0  0
   -5.1320    6.5830   12.9510 C   0  0  0  0  0  0  0  0  0  0  0  0
   -4.9520    5.5200   13.8430 C   0  0  0  0  0  0  0  0  0  0  0  0
   -5.0420    5.8040   15.2090 C   0  0  0  0  0  0  0  0  0  0  0  0
   -4.9130    4.9770   16.2990 N   0  0  0  0  0  0  0  0  0  0  0  0
   -5.0720    5.6670   17.4830 C   0  0  0  0  0  0  0  0  0  0  0  0
   -4.9770    5.0090   18.8020 C   0  0  0  0  0  0  0  0  0  0  0  0
   -4.9760    5.7970   19.9640 C   0  0  0  0  0  0  0  0  0  0  0  0
   -4.8880    5.2210   21.2330 C   0  0  0  0  0  0  0  0  0  0  0  0
   -4.8000    3.8380   21.3670 C   0  0  0  0  0  0  0  0  0  0  0  0
   -4.7970    3.0060   20.2370 C   0  0  0  0  0  0  0  0  0  0  0  0
   -4.7030    1.5540   20.4250 C   0  0  0  0  0  0  0  0  0  0  0  0
   -3.4570    0.9370   20.6140 C   0  0  0  0  0  0  0  0  0  0  0  0
   -3.3700   -0.4430   20.8130 C   0  0  0  0  0  0  0  0  0  0  0  0
   -4.5260   -1.2200   20.8240 C   0  0  0  0  0  0  0  0  0  0  0  0
   -5.7700   -0.6210   20.6350 C   0  0  0  0  0  0  0  0  0  0  0  0
   -5.8580    0.7580   20.4360 C   0  0  0  0  0  0  0  0  0  0  0  0
   -4.8860    3.6050   18.9590 C   0  0  0  0  0  0  0  0  0  0  0  0
   -4.8860    2.8100   17.8290 O   0  0  0  0  0  0  0  0  0  0  0  0
   -5.3130    6.9830   17.1200 C   0  0  0  0  0  0  0  0  0  0  0  0
   -5.2990    7.0790   15.7000 C   0  0  0  0  0  0  0  0  0  0  0  0
   -5.4790    8.1350   14.7880 C   0  0  0  0  0  0  0  0  0  0  0  0
   -3.6950    9.6590   12.6820 H   0  0  0  0  0  0  0  0  0  0  0  0
   -4.6440   10.5580   11.5430 H   0  0  0  0  0  0  0  0  0  0  0  0
   -6.9380    9.8620   11.1950 H   0  0  0  0  0  0  0  0  0  0  0  0
   -7.4990    8.4720   12.0650 H   0  0  0  0  0  0  0  0  0  0  0  0
   -5.0665    6.3946   11.8692 H   0  0  0  0  0  0  0  0  0  0  0  0
   -4.7477    4.5007   13.4835 H   0  0  0  0  0  0  0  0  0  0  0  0
   -4.7240    3.9820   16.2680 H   0  0  0  0  0  0  0  0  0  0  0  0
   -5.0460    6.8910   19.8728 H   0  0  0  0  0  0  0  0  0  0  0  0
   -4.8882    5.8607   22.1279 H   0  0  0  0  0  0  0  0  0  0  0  0
   -4.7320    3.3923   22.3704 H   0  0  0  0  0  0  0  0  0  0  0  0
   -2.5406    1.5454   20.6054 H   0  0  0  0  0  0  0  0  0  0  0  0
   -2.3881   -0.9162   20.9611 H   0  0  0  0  0  0  0  0  0  0  0  0
   -4.4570   -2.3064   20.9819 H   0  0  0  0  0  0  0  0  0  0  0  0
   -6.6828   -1.2349   20.6426 H   0  0  0  0  0  0  0  0  0  0  0  0
   -6.8427    1.2249   20.2864 H   0  0  0  0  0  0  0  0  0  0  0  0
   -5.7510    2.3640   17.7700 H   0  0  0  0  0  0  0  0  0  0  0  0
   -5.4867    7.8170   17.8159 H   0  0  0  0  0  0  0  0  0  0  0  0
   -5.6850    9.1520   15.1531 H   0  0  0  0  0  0  0  0  0  0  0  0
  1  2  1  0
  2  3  2  0
  2  4  1  0
  4  5  2  0
  5  6  1  0
  6  7  2  0
  7  8  1  0
  8  9  1  0
  9 10  1  0
 10 11  2  0
 11 12  1  0
 12 13  2  0
 13 14  1  0
 14 15  1  0
 15 16  2  0
 16 17  1  0
 17 18  2  0
 18 19  1  0
 19 20  2  0
 14 21  2  0
 21 22  1  0
  9 23  2  0
 23 24  1  0
 24 25  2  0
 25  4  1  0
 24  7  1  0
 21 10  1  0
 20 15  1  0
  1 26  1  0
  1 27  1  0
  3 28  1  0
  3 29  1  0
  5 30  1  0
  6 31  1  0
  8 32  1  0
 11 33  1  0
 12 34  1  0
 13 35  1  0
 16 36  1  0
 17 37  1  0
 18 38  1  0
 19 39  1  0
 20 40  1  0
 22 41  1  0
 23 42  1  0
 25 43  1  0
M  CHG  1   3   1
M  END
>  <meeko>  (3) 
{"is_sidechain": [false], "free_energy": -6.382, "intermolecular_energy": -7.777, "internal_energy": -0.69}

$$$$
1o3f_ligand
     RDKit          3D

 43 46  0  0  0  0  0  0  0  0999 V2000
   -5.0140    9.7350   12.2590 N   0  0  0  0  0  0  0  0  0  0  0  0
   -5.8710    8.8000   12.6090 C   0  0  0  0  0  0  0  0  0  0  0  0
   -7.0280    8.6630   11.9970 N   0  0  0  0  0  0  0  0  0  0  0  0
   -5.5280    7.8890   13.7050 C   0  0  0  0  0  0  0  0  0  0  0  0
   -4.2150    7.4160   13.8490 C   0  0  0  0  0  0  0  0  0  0  0  0
   -3.8630    6.5440   14.8850 C   0  0  0  0  0  0  0  0  0  0  0  0
   -4.8710    6.1610   15.7750 C   0  0  0  0  0  0  0  0  0  0  0  0
   -4.8230    5.3300   16.8680 N   0  0  0  0  0  0  0  0  0  0  0  0
   -6.0540    5.2230   17.4810 C   0  0  0  0  0  0  0  0  0  0  0  0
   -6.2710    4.3900   18.6820 C   0  0  0  0  0  0  0  0  0  0  0  0
   -7.2380    4.7810   19.6220 C   0  0  0  0  0  0  0  0  0  0  0  0
   -7.4800    4.0270   20.7720 C   0  0  0  0  0  0  0  0  0  0  0  0
   -6.7560    2.8610   21.0080 C   0  0  0  0  0  0  0  0  0  0  0  0
   -5.7780    2.4280   20.0990 C   0  0  0  0  0  0  0  0  0  0  0  0
   -5.0390    1.1940   20.3870 C   0  0  0  0  0  0  0  0  0  0  0  0
   -3.6760    1.2370   20.7170 C   0  0  0  0  0  0  0  0  0  0  0  0
   -2.9780    0.0640   21.0100 C   0  0  0  0  0  0  0  0  0  0  0  0
   -3.6340   -1.1650   20.9760 C   0  0  0  0  0  0  0  0  0  0  0  0
   -4.9870   -1.2240   20.6480 C   0  0  0  0  0  0  0  0  0  0  0  0
   -5.6850   -0.0510   20.3540 C   0  0  0  0  0  0  0  0  0  0  0  0
   -5.5460    3.2030   18.9390 C   0  0  0  0  0  0  0  0  0  0  0  0
   -4.5890    2.8000   18.0270 O   0  0  0  0  0  0  0  0  0  0  0  0
   -6.9120    6.0190   16.7380 C   0  0  0  0  0  0  0  0  0  0  0  0
   -6.1830    6.6080   15.6680 C   0  0  0  0  0  0  0  0  0  0  0  0
   -6.5190    7.4840   14.6190 C   0  0  0  0  0  0  0  0  0  0  0  0
   -4.1420    9.8300   12.7700 H   0  0  0  0  0  0  0  0  0  0  0  0
   -5.1940   10.3900   11.5110 H   0  0  0  0  0  0  0  0  0  0  0  0
   -7.3170    9.2580   11.2330 H   0  0  0  0  0  0  0  0  0  0  0  0
   -7.6560    7.9140   12.2750 H   0  0  0  0  0  0  0  0  0  0  0  0
   -3.4455    7.7377   13.1318 H   0  0  0  0  0  0  0  0  0  0  0  0
   -2.8329    6.1740   14.9951 H   0  0  0  0  0  0  0  0  0  0  0  0
   -4.0000    4.8450   17.2070 H   0  0  0  0  0  0  0  0  0  0  0  0
   -7.8168    5.7002   19.4489 H   0  0  0  0  0  0  0  0  0  0  0  0
   -8.2437    4.3545   21.4927 H   0  0  0  0  0  0  0  0  0  0  0  0
   -6.9527    2.2730   21.9166 H   0  0  0  0  0  0  0  0  0  0  0  0
   -3.1525    2.2040   20.7451 H   0  0  0  0  0  0  0  0  0  0  0  0
   -1.9096    0.1099   21.2678 H   0  0  0  0  0  0  0  0  0  0  0  0
   -3.0837   -2.0887   21.2081 H   0  0  0  0  0  0  0  0  0  0  0  0
   -5.5049   -2.1941   20.6207 H   0  0  0  0  0  0  0  0  0  0  0  0
   -6.7525   -0.1036   20.0938 H   0  0  0  0  0  0  0  0  0  0  0  0
   -4.9120    1.9940   17.5830 H   0  0  0  0  0  0  0  0  0  0  0  0
   -7.9821    6.1704   16.9426 H   0  0  0  0  0  0  0  0  0  0  0  0
   -7.5509    7.8504   14.5139 H   0  0  0  0  0  0  0  0  0  0  0  0
  1  2  1  0
  2  3  2  0
  2  4  1  0
  4  5  2  0
  5  6  1  0
  6  7  2  0
  7  8  1  0
  8  9  1  0
  9 10  1  0
 10 11  2  0
 11 12  1  0
 12 13  2  0
 13 14  1  0
 14 15  1  0
 15 16  2  0
 16 17  1  0
 17 18  2  0
 18 19  1  0
 19 20  2  0
 14 21  2  0
 21 22  1  0
  9 23  2  0
 23 24  1  0
 24 25  2  0
 25  4  1  0
 24  7  1  0
 21 10  1  0
 20 15  1  0
  1 26  1  0
  1 27  1  0
  3 28  1  0
  3 29  1  0
  5 30  1  0
  6 31  1  0
  8 32  1  0
 11 33  1  0
 12 34  1  0
 13 35  1  0
 16 36  1  0
 17 37  1  0
 18 38  1  0
 19 39  1  0
 20 40  1  0
 22 41  1  0
 23 42  1  0
 25 43  1  0
M  CHG  1   3   1
M  END
>  <meeko>  (4) 
{"is_sidechain": [false], "free_energy": -6.215, "intermolecular_energy": -7.486, "internal_energy": -0.78}

$$$$
1o3f_ligand
     RDKit          3D

 43 46  0  0  0  0  0  0  0  0999 V2000
   -4.8620    8.8540   13.4580 N   0  0  0  0  0  0  0  0  0  0  0  0
   -4.8260    8.2330   14.6170 C   0  0  0  0  0  0  0  0  0  0  0  0
   -4.1630    8.7260   15.6410 N   0  0  0  0  0  0  0  0  0  0  0  0
   -5.5450    6.9640   14.7720 C   0  0  0  0  0  0  0  0  0  0  0  0
   -4.9710    5.7650   14.3240 C   0  0  0  0  0  0  0  0  0  0  0  0
   -5.6370    4.5420   14.4580 C   0  0  0  0  0  0  0  0  0  0  0  0
   -6.8990    4.5590   15.0590 C   0  0  0  0  0  0  0  0  0  0  0  0
   -7.7730    3.5320   15.3200 N   0  0  0  0  0  0  0  0  0  0  0  0
   -8.9210    3.9830   15.9360 C   0  0  0  0  0  0  0  0  0  0  0  0
  -10.0210    3.0770   16.3250 C   0  0  0  0  0  0  0  0  0  0  0  0
  -10.4140    3.0130   17.6720 C   0  0  0  0  0  0  0  0  0  0  0  0
  -11.4470    2.1720   18.0880 C   0  0  0  0  0  0  0  0  0  0  0  0
  -12.1130    1.3720   17.1620 C   0  0  0  0  0  0  0  0  0  0  0  0
  -11.7570    1.3990   15.8050 C   0  0  0  0  0  0  0  0  0  0  0  0
  -12.4850    0.5400   14.8640 C   0  0  0  0  0  0  0  0  0  0  0  0
  -13.3980    1.0910   13.9530 C   0  0  0  0  0  0  0  0  0  0  0  0
  -14.0750    0.2750   13.0440 C   0  0  0  0  0  0  0  0  0  0  0  0
  -13.8480   -1.1000   13.0360 C   0  0  0  0  0  0  0  0  0  0  0  0
  -12.9450   -1.6610   13.9380 C   0  0  0  0  0  0  0  0  0  0  0  0
  -12.2690   -0.8460   14.8470 C   0  0  0  0  0  0  0  0  0  0  0  0
  -10.7090    2.2560   15.4000 C   0  0  0  0  0  0  0  0  0  0  0  0
  -10.3370    2.3030   14.0690 O   0  0  0  0  0  0  0  0  0  0  0  0
   -8.7620    5.3540   16.0650 C   0  0  0  0  0  0  0  0  0  0  0  0
   -7.5020    5.7250   15.5180 C   0  0  0  0  0  0  0  0  0  0  0  0
   -6.8180    6.9460   15.3730 C   0  0  0  0  0  0  0  0  0  0  0  0
   -5.3610    8.4320   12.6800 H   0  0  0  0  0  0  0  0  0  0  0  0
   -4.3890    9.7310   13.2910 H   0  0  0  0  0  0  0  0  0  0  0  0
   -3.6530    9.5960   15.5950 H   0  0  0  0  0  0  0  0  0  0  0  0
   -4.1760    8.2340   16.5300 H   0  0  0  0  0  0  0  0  0  0  0  0
   -3.9753    5.7869   13.8570 H   0  0  0  0  0  0  0  0  0  0  0  0
   -5.1852    3.6035   14.1042 H   0  0  0  0  0  0  0  0  0  0  0  0
   -7.6200    2.5540   15.1000 H   0  0  0  0  0  0  0  0  0  0  0  0
   -9.8968    3.6387   18.4143 H   0  0  0  0  0  0  0  0  0  0  0  0
  -11.7359    2.1407   19.1489 H   0  0  0  0  0  0  0  0  0  0  0  0
  -12.9265    0.7123   17.4982 H   0  0  0  0  0  0  0  0  0  0  0  0
  -13.5825    2.1754   13.9545 H   0  0  0  0  0  0  0  0  0  0  0  0
  -14.7883    0.7181   12.3335 H   0  0  0  0  0  0  0  0  0  0  0  0
  -14.3806   -1.7419   12.3189 H   0  0  0  0  0  0  0  0  0  0  0  0
  -12.7654   -2.7462   13.9332 H   0  0  0  0  0  0  0  0  0  0  0  0
  -11.5594   -1.2950   15.5575 H   0  0  0  0  0  0  0  0  0  0  0  0
  -11.1350    2.1620   13.5260 H   0  0  0  0  0  0  0  0  0  0  0  0
   -9.4911    6.0428   16.5166 H   0  0  0  0  0  0  0  0  0  0  0  0
   -7.2755    7.8815   15.7273 H   0  0  0  0  0  0  0  0  0  0  0  0
  1  2  1  0
  2  3  2  0
  2  4  1  0
  4  5  2  0
  5  6  1  0
  6  7  2  0
  7  8  1  0
  8  9  1  0
  9 10  1  0
 10 11  2  0
 11 12  1  0
 12 13  2  0
 13 14  1  0
 14 15  1  0
 15 16  2  0
 16 17  1  0
 17 18  2  0
 18 19  1  0
 19 20  2  0
 14 21  2  0
 21 22  1  0
  9 23  2  0
 23 24  1  0
 24 25  2  0
 25  4  1  0
 24  7  1  0
 21 10  1  0
 20 15  1  0
  1 26  1  0
  1 27  1  0
  3 28  1  0
  3 29  1  0
  5 30  1  0
  6 31  1  0
  8 32  1  0
 11 33  1  0
 12 34  1  0
 13 35  1  0
 16 36  1  0
 17 37  1  0
 18 38  1  0
 19 39  1  0
 20 40  1  0
 22 41  1  0
 23 42  1  0
 25 43  1  0
M  CHG  1   3   1
M  END
>  <meeko>  (5) 
{"is_sidechain": [false], "free_energy": -6.008, "intermolecular_energy": -7.175, "internal_energy": -0.842}

$$$$
1o3f_ligand
     RDKit          3D

 43 46  0  0  0  0  0  0  0  0999 V2000
   -4.1380    0.9340   12.0900 N   0  0  0  0  0  0  0  0  0  0  0  0
   -3.5580    2.1110   11.9990 C   0  0  0  0  0  0  0  0  0  0  0  0
   -2.4930    2.2980   11.2500 N   0  0  0  0  0  0  0  0  0  0  0  0
   -4.1130    3.2430   12.7500 C   0  0  0  0  0  0  0  0  0  0  0  0
   -3.5770    4.5290   12.5930 C   0  0  0  0  0  0  0  0  0  0  0  0
   -4.0870    5.6240   13.2990 C   0  0  0  0  0  0  0  0  0  0  0  0
   -5.1560    5.3880   14.1680 C   0  0  0  0  0  0  0  0  0  0  0  0
   -5.8500    6.2530   14.9790 N   0  0  0  0  0  0  0  0  0  0  0  0
   -6.8460    5.6060   15.6800 C   0  0  0  0  0  0  0  0  0  0  0  0
   -7.7400    6.3120   16.6210 C   0  0  0  0  0  0  0  0  0  0  0  0
   -7.2930    6.5750   17.9260 C   0  0  0  0  0  0  0  0  0  0  0  0
   -8.1020    7.2390   18.8500 C   0  0  0  0  0  0  0  0  0  0  0  0
   -9.3800    7.6560   18.4880 C   0  0  0  0  0  0  0  0  0  0  0  0
   -9.8730    7.4170   17.1970 C   0  0  0  0  0  0  0  0  0  0  0  0
  -11.2260    7.8730   16.8570 C   0  0  0  0  0  0  0  0  0  0  0  0
  -11.4340    9.1450   16.3030 C   0  0  0  0  0  0  0  0  0  0  0  0
  -12.7190    9.5700   15.9610 C   0  0  0  0  0  0  0  0  0  0  0  0
  -13.8110    8.7300   16.1710 C   0  0  0  0  0  0  0  0  0  0  0  0
  -13.6200    7.4650   16.7240 C   0  0  0  0  0  0  0  0  0  0  0  0
  -12.3350    7.0400   17.0660 C   0  0  0  0  0  0  0  0  0  0  0  0
   -9.0420    6.7430   16.2720 C   0  0  0  0  0  0  0  0  0  0  0  0
   -9.5020    6.4940   14.9920 O   0  0  0  0  0  0  0  0  0  0  0  0
   -6.7720    4.2770   15.2940 C   0  0  0  0  0  0  0  0  0  0  0  0
   -5.7170    4.1290   14.3510 C   0  0  0  0  0  0  0  0  0  0  0  0
   -5.1900    3.0390   13.6330 C   0  0  0  0  0  0  0  0  0  0  0  0
   -4.9420    0.8190   12.6990 H   0  0  0  0  0  0  0  0  0  0  0  0
   -3.8020    0.1190   11.5960 H   0  0  0  0  0  0  0  0  0  0  0  0
   -2.0680    1.5590   10.7080 H   0  0  0  0  0  0  0  0  0  0  0  0
   -2.0840    3.2260   11.1820 H   0  0  0  0  0  0  0  0  0  0  0  0
   -2.7368    4.6804   11.8993 H   0  0  0  0  0  0  0  0  0  0  0  0
   -3.6631    6.6315   13.1750 H   0  0  0  0  0  0  0  0  0  0  0  0
   -5.6750    7.2470   15.0700 H   0  0  0  0  0  0  0  0  0  0  0  0
   -6.2854    6.2514   18.2262 H   0  0  0  0  0  0  0  0  0  0  0  0
   -7.7288    7.4331   19.8664 H   0  0  0  0  0  0  0  0  0  0  0  0
  -10.0101    8.1787   19.2227 H   0  0  0  0  0  0  0  0  0  0  0  0
  -10.5766    9.8137   16.1366 H   0  0  0  0  0  0  0  0  0  0  0  0
  -12.8697   10.5688   15.5254 H   0  0  0  0  0  0  0  0  0  0  0  0
  -14.8231    9.0652   15.9004 H   0  0  0  0  0  0  0  0  0  0  0  0
  -14.4815    6.8017   16.8909 H   0  0  0  0  0  0  0  0  0  0  0  0
  -12.1906    6.0413   17.5040 H   0  0  0  0  0  0  0  0  0  0  0  0
  -10.4750    6.4520   15.0220 H   0  0  0  0  0  0  0  0  0  0  0  0
   -7.4230    3.4682   15.6575 H   0  0  0  0  0  0  0  0  0  0  0  0
   -5.6174    2.0336   13.7612 H   0  0  0  0  0  0  0  0  0  0  0  0
  1  2  1  0
  2  3  2  0
  2  4  1  0
  4  5  2  0
  5  6  1  0
  6  7  2  0
  7  8  1  0
  8  9  1  0
  9 10  1  0
 10 11  2  0
 11 12  1  0
 12 13  2  0
 13 14  1  0
 14 15  1  0
 15 16  2  0
 16 17  1  0
 17 18  2  0
 18 19  1  0
 19 20  2  0
 14 21  2  0
 21 22  1  0
  9 23  2  0
 23 24  1  0
 24 25  2  0
 25  4  1  0
 24  7  1  0
 21 10  1  0
 20 15  1  0
  1 26  1  0
  1 27  1  0
  3 28  1  0
  3 29  1  0
  5 30  1  0
  6 31  1  0
  8 32  1  0
 11 33  1  0
 12 34  1  0
 13 35  1  0
 16 36  1  0
 17 37  1  0
 18 38  1  0
 19 39  1  0
 20 40  1  0
 22 41  1  0
 23 42  1  0
 25 43  1  0
M  CHG  1   3   1
M  END
>  <meeko>  (6) 
{"is_sidechain": [false], "free_energy": -5.844, "intermolecular_energy": -7.065, "internal_energy": -0.754}

$$$$
1o3f_ligand
     RDKit          3D

 43 46  0  0  0  0  0  0  0  0999 V2000
   -5.4350    3.7580   13.9190 N   0  0  0  0  0  0  0  0  0  0  0  0
   -4.5410    4.6960   13.6950 C   0  0  0  0  0  0  0  0  0  0  0  0
   -3.5830    4.5360   12.8070 N   0  0  0  0  0  0  0  0  0  0  0  0
   -4.6140    5.9510   14.4520 C   0  0  0  0  0  0  0  0  0  0  0  0
   -4.6750    7.1800   13.7810 C   0  0  0  0  0  0  0  0  0  0  0  0
   -4.7420    8.3910   14.4800 C   0  0  0  0  0  0  0  0  0  0  0  0
   -4.7480    8.3280   15.8760 C   0  0  0  0  0  0  0  0  0  0  0  0
   -4.8060    9.3340   16.8100 N   0  0  0  0  0  0  0  0  0  0  0  0
   -4.7930    8.8360   18.0960 C   0  0  0  0  0  0  0  0  0  0  0  0
   -4.8480    9.7110   19.2850 C   0  0  0  0  0  0  0  0  0  0  0  0
   -4.3710    9.2300   20.5150 C   0  0  0  0  0  0  0  0  0  0  0  0
   -4.4030   10.0190   21.6660 C   0  0  0  0  0  0  0  0  0  0  0  0
   -4.9160   11.3120   21.6120 C   0  0  0  0  0  0  0  0  0  0  0  0
   -5.4060   11.8400   20.4080 C   0  0  0  0  0  0  0  0  0  0  0  0
   -5.9370   13.2070   20.3970 C   0  0  0  0  0  0  0  0  0  0  0  0
   -7.3190   13.4380   20.4770 C   0  0  0  0  0  0  0  0  0  0  0  0
   -7.8230   14.7400   20.4870 C   0  0  0  0  0  0  0  0  0  0  0  0
   -6.9520   15.8260   20.4140 C   0  0  0  0  0  0  0  0  0  0  0  0
   -5.5770   15.6120   20.3310 C   0  0  0  0  0  0  0  0  0  0  0  0
   -5.0730   14.3100   20.3210 C   0  0  0  0  0  0  0  0  0  0  0  0
   -5.3660   11.0270   19.2510 C   0  0  0  0  0  0  0  0  0  0  0  0
   -5.8420   11.5210   18.0510 O   0  0  0  0  0  0  0  0  0  0  0  0
   -4.7210    7.4580   17.9630 C   0  0  0  0  0  0  0  0  0  0  0  0
   -4.6900    7.1300   16.5790 C   0  0  0  0  0  0  0  0  0  0  0  0
   -4.6210    5.9230   15.8590 C   0  0  0  0  0  0  0  0  0  0  0  0
   -6.1450    3.9040   14.6320 H   0  0  0  0  0  0  0  0  0  0  0  0
   -5.4380    2.8750   13.4290 H   0  0  0  0  0  0  0  0  0  0  0  0
   -3.4850    3.6960   12.2540 H   0  0  0  0  0  0  0  0  0  0  0  0
   -2.9230    5.2900   12.6400 H   0  0  0  0  0  0  0  0  0  0  0  0
   -4.6701    7.1933   12.6811 H   0  0  0  0  0  0  0  0  0  0  0  0
   -4.7881    9.3544   13.9511 H   0  0  0  0  0  0  0  0  0  0  0  0
   -4.8540   10.3270   16.6090 H   0  0  0  0  0  0  0  0  0  0  0  0
   -3.9635    8.2099   20.5727 H   0  0  0  0  0  0  0  0  0  0  0  0
   -4.0223    9.6185   22.6171 H   0  0  0  0  0  0  0  0  0  0  0  0
   -4.9374   11.9269   22.5239 H   0  0  0  0  0  0  0  0  0  0  0  0
   -8.0116   12.5852   20.5323 H   0  0  0  0  0  0  0  0  0  0  0  0
   -8.9080   14.9090   20.5525 H   0  0  0  0  0  0  0  0  0  0  0  0
   -7.3496   16.8516   20.4219 H   0  0  0  0  0  0  0  0  0  0  0  0
   -4.8893   16.4686   20.2734 H   0  0  0  0  0  0  0  0  0  0  0  0
   -3.9873   14.1472   20.2528 H   0  0  0  0  0  0  0  0  0  0  0  0
   -5.9700   10.7700   17.4420 H   0  0  0  0  0  0  0  0  0  0  0  0
   -4.6925    6.7359   18.7923 H   0  0  0  0  0  0  0  0  0  0  0  0
   -4.5728    4.9626   16.3931 H   0  0  0  0  0  0  0  0  0  0  0  0
  1  2  1  0
  2  3  2  0
  2  4  1  0
  4  5  2  0
  5  6  1  0
  6  7  2  0
  7  8  1  0
  8  9  1  0
  9 10  1  0
 10 11  2  0
 11 12  1  0
 12 13  2  0
 13 14  1  0
 14 15  1  0
 15 16  2  0
 16 17  1  0
 17 18  2  0
 18 19  1  0
 19 20  2  0
 14 21  2  0
 21 22  1  0
  9 23  2  0
 23 24  1  0
 24 25  2  0
 25  4  1  0
 24  7  1  0
 21 10  1  0
 20 15  1  0
  1 26  1  0
  1 27  1  0
  3 28  1  0
  3 29  1  0
  5 30  1  0
  6 31  1  0
  8 32  1  0
 11 33  1  0
 12 34  1  0
 13 35  1  0
 16 36  1  0
 17 37  1  0
 18 38  1  0
 19 39  1  0
 20 40  1  0
 22 41  1  0
 23 42  1  0
 25 43  1  0
M  CHG  1   3   1
M  END
>  <meeko>  (7) 
{"is_sidechain": [false], "free_energy": -5.691, "intermolecular_energy": -6.864, "internal_energy": -0.771}

$$$$
1o3f_ligand
     RDKit          3D

 43 46  0  0  0  0  0  0  0  0999 V2000
   -1.8990   -5.2360   16.3640 N   0  0  0  0  0  0  0  0  0  0  0  0
   -0.8490   -5.1850   17.1540 C   0  0  0  0  0  0  0  0  0  0  0  0
   -0.3320   -6.2730   17.6840 N   0  0  0  0  0  0  0  0  0  0  0  0
   -0.2390   -3.8840   17.4500 C   0  0  0  0  0  0  0  0  0  0  0  0
   -0.9070   -2.6970   17.1220 C   0  0  0  0  0  0  0  0  0  0  0  0
   -0.3450   -1.4440   17.3910 C   0  0  0  0  0  0  0  0  0  0  0  0
    0.9110   -1.4210   18.0040 C   0  0  0  0  0  0  0  0  0  0  0  0
    1.6950   -0.3580   18.3820 N   0  0  0  0  0  0  0  0  0  0  0  0
    2.8740   -0.7760   18.9630 C   0  0  0  0  0  0  0  0  0  0  0  0
    3.8930    0.1720   19.4590 C   0  0  0  0  0  0  0  0  0  0  0  0
    5.2390   -0.2270   19.5010 C   0  0  0  0  0  0  0  0  0  0  0  0
    6.2370    0.6330   19.9630 C   0  0  0  0  0  0  0  0  0  0  0  0
    5.9100    1.9160   20.3940 C   0  0  0  0  0  0  0  0  0  0  0  0
    4.5800    2.3620   20.3720 C   0  0  0  0  0  0  0  0  0  0  0  0
    4.2790    3.7210   20.8360 C   0  0  0  0  0  0  0  0  0  0  0  0
    3.9460    3.9620   22.1770 C   0  0  0  0  0  0  0  0  0  0  0  0
    3.6800    5.2590   22.6220 C   0  0  0  0  0  0  0  0  0  0  0  0
    3.7430    6.3280   21.7310 C   0  0  0  0  0  0  0  0  0  0  0  0
    4.0700    6.1040   20.3950 C   0  0  0  0  0  0  0  0  0  0  0  0
    4.3360    4.8080   19.9500 C   0  0  0  0  0  0  0  0  0  0  0  0
    3.5800    1.4790   19.9020 C   0  0  0  0  0  0  0  0  0  0  0  0
    2.2610    1.8920   19.8700 O   0  0  0  0  0  0  0  0  0  0  0  0
    2.8280   -2.1610   18.9470 C   0  0  0  0  0  0  0  0  0  0  0  0
    1.6060   -2.5750   18.3470 C   0  0  0  0  0  0  0  0  0  0  0  0
    1.0260   -3.8260   18.0660 C   0  0  0  0  0  0  0  0  0  0  0  0
   -2.2890   -4.3750   15.9930 H   0  0  0  0  0  0  0  0  0  0  0  0
   -2.3610   -6.1020   16.1220 H   0  0  0  0  0  0  0  0  0  0  0  0
   -0.7070   -7.1960   17.5130 H   0  0  0  0  0  0  0  0  0  0  0  0
    0.4950   -6.2010   18.2700 H   0  0  0  0  0  0  0  0  0  0  0  0
   -1.8954   -2.7512   16.6423 H   0  0  0  0  0  0  0  0  0  0  0  0
   -0.8710   -0.5137   17.1303 H   0  0  0  0  0  0  0  0  0  0  0  0
    1.4630    0.6220   18.2630 H   0  0  0  0  0  0  0  0  0  0  0  0
    5.5123   -1.2375   19.1631 H   0  0  0  0  0  0  0  0  0  0  0  0
    7.2839    0.2963   19.9866 H   0  0  0  0  0  0  0  0  0  0  0  0
    6.7030    2.5871   20.7556 H   0  0  0  0  0  0  0  0  0  0  0  0
    3.8938    3.1217   22.8849 H   0  0  0  0  0  0  0  0  0  0  0  0
    3.4207    5.4363   23.6762 H   0  0  0  0  0  0  0  0  0  0  0  0
    3.5345    7.3494   22.0822 H   0  0  0  0  0  0  0  0  0  0  0  0
    4.1185    6.9482   19.6914 H   0  0  0  0  0  0  0  0  0  0  0  0
    4.5929    4.6369   18.8942 H   0  0  0  0  0  0  0  0  0  0  0  0
    1.8520    1.5380   19.0580 H   0  0  0  0  0  0  0  0  0  0  0  0
    3.6091   -2.8313   19.3350 H   0  0  0  0  0  0  0  0  0  0  0  0
    1.5577   -4.7532   18.3260 H   0  0  0  0  0  0  0  0  0  0  0  0
  1  2  1  0
  2  3  2  0
  2  4  1  0
  4  5  2  0
  5  6  1  0
  6  7  2  0
  7  8  1  0
  8  9  1  0
  9 10  1  0
 10 11  2  0
 11 12  1  0
 12 13  2  0
 13 14  1  0
 14 15  1  0
 15 16  2  0
 16 17  1  0
 17 18  2  0
 18 19  1  0
 19 20  2  0
 14 21  2  0
 21 22  1  0
  9 23  2  0
 23 24  1  0
 24 25  2  0
 25  4  1  0
 24  7  1  0
 21 10  1  0
 20 15  1  0
  1 26  1  0
  1 27  1  0
  3 28  1  0
  3 29  1  0
  5 30  1  0
  6 31  1  0
  8 32  1  0
 11 33  1  0
 12 34  1  0
 13 35  1  0
 16 36  1  0
 17 37  1  0
 18 38  1  0
 19 39  1  0
 20 40  1  0
 22 41  1  0
 23 42  1  0
 25 43  1  0
M  CHG  1   3   1
M  END
>  <meeko>  (8) 
{"is_sidechain": [false], "free_energy": -5.605, "intermolecular_energy": -6.673, "internal_energy": -0.859}

$$$$
1o3f_ligand
     RDKit          3D

 43 46  0  0  0  0  0  0  0  0999 V2000
   -4.7260    9.8260   12.3740 N   0  0  0  0  0  0  0  0  0  0  0  0
   -5.6880    8.9520   12.5710 C   0  0  0  0  0  0  0  0  0  0  0  0
   -6.7940    8.9730   11.8590 N   0  0  0  0  0  0  0  0  0  0  0  0
   -5.5240    7.9270   13.6080 C   0  0  0  0  0  0  0  0  0  0  0  0
   -4.2470    7.4440   13.9310 C   0  0  0  0  0  0  0  0  0  0  0  0
   -4.0640    6.4660   14.9140 C   0  0  0  0  0  0  0  0  0  0  0  0
   -5.2040    5.9880   15.5660 C   0  0  0  0  0  0  0  0  0  0  0  0
   -5.3300    5.0430   16.5560 N   0  0  0  0  0  0  0  0  0  0  0  0
   -6.6470    4.8680   16.9270 C   0  0  0  0  0  0  0  0  0  0  0  0
   -7.0540    3.9100   17.9760 C   0  0  0  0  0  0  0  0  0  0  0  0
   -6.5230    4.0400   19.2690 C   0  0  0  0  0  0  0  0  0  0  0  0
   -6.8770    3.1590   20.2920 C   0  0  0  0  0  0  0  0  0  0  0  0
   -7.7750    2.1240   20.0430 C   0  0  0  0  0  0  0  0  0  0  0  0
   -8.3340    1.9510   18.7680 C   0  0  0  0  0  0  0  0  0  0  0  0
   -9.2760    0.8470   18.5500 C   0  0  0  0  0  0  0  0  0  0  0  0
  -10.6480    1.0210   18.7880 C   0  0  0  0  0  0  0  0  0  0  0  0
  -11.5460   -0.0240   18.5600 C   0  0  0  0  0  0  0  0  0  0  0  0
  -11.0830   -1.2530   18.0940 C   0  0  0  0  0  0  0  0  0  0  0  0
   -9.7230   -1.4400   17.8560 C   0  0  0  0  0  0  0  0  0  0  0  0
   -8.8250   -0.3960   18.0840 C   0  0  0  0  0  0  0  0  0  0  0  0
   -7.9640    2.8520   17.7430 C   0  0  0  0  0  0  0  0  0  0  0  0
   -8.5000    2.7050   16.4760 O   0  0  0  0  0  0  0  0  0  0  0  0
   -7.3790    5.7380   16.1340 C   0  0  0  0  0  0  0  0  0  0  0  0
   -6.4860    6.4410   15.2780 C   0  0  0  0  0  0  0  0  0  0  0  0
   -6.6510    7.4240   14.2840 C   0  0  0  0  0  0  0  0  0  0  0  0
   -3.8970    9.7980   12.9610 H   0  0  0  0  0  0  0  0  0  0  0  0
   -4.7810   10.5530   11.6740 H   0  0  0  0  0  0  0  0  0  0  0  0
   -6.9620    9.6510   11.1290 H   0  0  0  0  0  0  0  0  0  0  0  0
   -7.5070    8.2670   12.0200 H   0  0  0  0  0  0  0  0  0  0  0  0
   -3.3705    7.8432   13.3995 H   0  0  0  0  0  0  0  0  0  0  0  0
   -3.0618    6.0878   15.1642 H   0  0  0  0  0  0  0  0  0  0  0  0
   -4.5700    4.5250   16.9810 H   0  0  0  0  0  0  0  0  0  0  0  0
   -5.8131    4.8532   19.4803 H   0  0  0  0  0  0  0  0  0  0  0  0
   -6.4460    3.2823   21.2965 H   0  0  0  0  0  0  0  0  0  0  0  0
   -8.0490    1.4345   20.8551 H   0  0  0  0  0  0  0  0  0  0  0  0
  -11.0192    1.9884   19.1572 H   0  0  0  0  0  0  0  0  0  0  0  0
  -12.6197    0.1232   18.7484 H   0  0  0  0  0  0  0  0  0  0  0  0
  -11.7911   -2.0753   17.9141 H   0  0  0  0  0  0  0  0  0  0  0  0
   -9.3571   -2.4101   17.4885 H   0  0  0  0  0  0  0  0  0  0  0  0
   -7.7522   -0.5501   17.8961 H   0  0  0  0  0  0  0  0  0  0  0  0
   -8.6420    1.7540   16.3150 H   0  0  0  0  0  0  0  0  0  0  0  0
   -8.4714    5.8642   16.1619 H   0  0  0  0  0  0  0  0  0  0  0  0
   -7.6559    7.7971   14.0369 H   0  0  0  0  0  0  0  0  0  0  0  0
  1  2  1  0
  2  3  2  0
  2  4  1  0
  4  5  2  0
  5  6  1  0
  6  7  2  0
  7  8  1  0
  8  9  1  0
  9 10  1  0
 10 11  2  0
 11 12  1  0
 12 13  2  0
 13 14  1  0
 14 15  1  0
 15 16  2  0
 16 17  1  0
 17 18  2  0
 18 19  1  0
 19 20  2  0
 14 21  2  0
 21 22  1  0
  9 23  2  0
 23 24  1  0
 24 25  2  0
 25  4  1  0
 24  7  1  0
 21 10  1  0
 20 15  1  0
  1 26  1  0
  1 27  1  0
  3 28  1  0
  3 29  1  0
  5 30  1  0
  6 31  1  0
  8 32  1  0
 11 33  1  0
 12 34  1  0
 13 35  1  0
 16 36  1  0
 17 37  1  0
 18 38  1  0
 19 39  1  0
 20 40  1  0
 22 41  1  0
 23 42  1  0
 25 43  1  0
M  CHG  1   3   1
M  END
>  <meeko>  (9) 
{"is_sidechain": [false], "free_energy": -5.578, "intermolecular_energy": -6.875, "internal_energy": -0.624}

$$$$
