
     RDKit          3D

 15 15  0  0  0  0  0  0  0  0999 V2000
  -13.2850    5.7180   -1.4160 C   0  0  0  0  0  0  0  0  0  0  0  0
  -13.3620    4.3350   -0.8200 C   0  0  0  0  0  0  0  0  0  0  0  0
  -12.0100    3.8070   -0.5180 C   0  0  0  0  0  0  0  0  0  0  0  0
  -11.3860    3.8250    0.7300 C   0  0  0  0  0  0  0  0  0  0  0  0
  -11.9400    4.2960    1.9880 C   0  0  0  0  0  0  0  0  0  0  0  0
  -12.6870    5.2420    2.0400 O   0  0  0  0  0  0  0  0  0  0  0  0
  -11.5740    3.5880    3.0750 N   0  0  0  0  0  0  0  0  0  0  0  0
  -12.0710    3.9620    4.4060 C   0  0  0  0  0  0  0  0  0  0  0  0
  -10.1430    3.3030    0.6420 N   0  0  0  0  0  0  0  0  0  0  0  0
   -9.9290    2.9590   -0.6440 C   0  0  0  0  0  0  0  0  0  0  0  0
   -8.6030    2.3660   -1.0900 C   0  0  0  0  0  0  0  0  0  0  0  0
  -11.0720    3.2340   -1.4160 C   0  0  0  0  0  0  0  0  0  0  0  0
  -11.2180    2.9580   -2.8420 C   0  0  0  0  0  0  0  0  0  0  0  0
  -12.5940    2.8310   -3.4390 C   0  0  0  0  0  0  0  0  0  0  0  0
  -10.2320    2.7840   -3.5560 O   0  0  0  0  0  0  0  0  0  0  0  0
  2  1  1  0
  3  2  1  0
  4  3  2  0
  5  4  1  0
  6  5  2  0
  7  5  1  0
  8  7  1  0
  9  4  1  0
 10  9  1  0
 11 10  1  0
 12  3  1  0
 12 10  2  0
 13 12  1  0
 14 13  1  0
 15 13  2  0
M  END
$$$$
