1mq6_ligand
     RDKit          3D

 54 57  0  0  0  0  0  0  0  0999 V2000
   16.3120    7.3760   -0.0570 C   0  0  0  0  0  0  0  0  0  0  0  0
   15.6970    7.5000    1.2250 O   0  0  0  0  0  0  0  0  0  0  0  0
   15.6440    6.3170    1.9200 C   0  0  0  0  0  0  0  0  0  0  0  0
   15.8000    5.1050    1.2360 C   0  0  0  0  0  0  0  0  0  0  0  0
   15.9490    3.9190    1.9470 C   0  0  0  0  0  0  0  0  0  0  0  0
   16.1580    2.4360    1.1000 Cl  0  0  0  0  0  0  0  0  0  0  0  0
   15.9640    3.9230    3.3380 C   0  0  0  0  0  0  0  0  0  0  0  0
   15.8050    5.1320    4.0330 C   0  0  0  0  0  0  0  0  0  0  0  0
   15.8160    5.1210    5.5270 C   0  0  0  0  0  0  0  0  0  0  0  0
   16.8130    5.5430    6.1050 O   0  0  0  0  0  0  0  0  0  0  0  0
   14.6640    4.6650    6.1220 N   0  0  0  0  0  0  0  0  0  0  0  0
   14.3950    4.5250    7.4840 C   0  0  0  0  0  0  0  0  0  0  0  0
   14.8250    3.4590    8.2660 C   0  0  0  0  0  0  0  0  0  0  0  0
   14.4860    3.4330    9.6210 C   0  0  0  0  0  0  0  0  0  0  0  0
   13.7300    4.4670   10.1510 C   0  0  0  0  0  0  0  0  0  0  0  0
   13.2910    4.4760   11.8080 Cl  0  0  0  0  0  0  0  0  0  0  0  0
   13.3390    5.4890    9.3020 C   0  0  0  0  0  0  0  0  0  0  0  0
   13.6530    5.5380    7.9830 N   0  0  0  0  0  0  0  0  0  0  0  0
   15.6300    6.3460    3.3290 C   0  0  0  0  0  0  0  0  0  0  0  0
   15.4990    7.5510    4.0650 N   0  0  0  0  0  0  0  0  0  0  0  0
   14.3440    8.0340    4.6640 C   0  0  0  0  0  0  0  0  0  0  0  0
   13.3130    7.3690    4.7460 O   0  0  0  0  0  0  0  0  0  0  0  0
   14.4750    9.3570    5.2820 C   0  0  0  0  0  0  0  0  0  0  0  0
   15.0000    9.5220    6.9110 S   0  0  0  0  0  0  0  0  0  0  0  0
   14.8900   11.2180    6.8570 C   0  0  0  0  0  0  0  0  0  0  0  0
   14.4670   11.6930    5.6300 C   0  0  0  0  0  0  0  0  0  0  0  0
   14.2980   13.1670    5.3310 C   0  0  0  0  0  0  0  0  0  0  0  0
   14.7320   13.6280    4.0130 N   0  0  0  0  0  0  0  0  0  0  0  0
   16.1600   13.6650    3.7560 C   0  0  0  0  0  0  0  0  0  0  0  0
   13.9200   14.4830    3.3520 C   0  0  0  0  0  0  0  0  0  0  0  0
   14.1380   15.1220    2.2210 N   0  0  0  0  0  0  0  0  0  0  0  0
   12.9990   15.8570    2.0190 C   0  0  0  0  0  0  0  0  0  0  0  0
   12.1190   15.6370    3.0440 C   0  0  0  0  0  0  0  0  0  0  0  0
   12.6970   14.7590    3.9080 O   0  0  0  0  0  0  0  0  0  0  0  0
   14.2280   10.6010    4.7200 C   0  0  0  0  0  0  0  0  0  0  0  0
   13.6930   10.8720    3.1060 Cl  0  0  0  0  0  0  0  0  0  0  0  0
   17.3831    7.1600    0.0695 H   0  0  0  0  0  0  0  0  0  0  0  0
   15.8359    6.5558   -0.6143 H   0  0  0  0  0  0  0  0  0  0  0  0
   16.1909    8.3166   -0.6143 H   0  0  0  0  0  0  0  0  0  0  0  0
   15.8047    5.0910    0.1361 H   0  0  0  0  0  0  0  0  0  0  0  0
   16.1000    2.9820    3.8913 H   0  0  0  0  0  0  0  0  0  0  0  0
   13.8490    4.4530    5.5630 H   0  0  0  0  0  0  0  0  0  0  0  0
   15.4231    2.6483    7.8245 H   0  0  0  0  0  0  0  0  0  0  0  0
   14.8155    2.6009   10.2605 H   0  0  0  0  0  0  0  0  0  0  0  0
   12.7384    6.3094    9.7219 H   0  0  0  0  0  0  0  0  0  0  0  0
   16.3700    7.9780    4.3830 H   0  0  0  0  0  0  0  0  0  0  0  0
   15.1305   11.8694    7.7101 H   0  0  0  0  0  0  0  0  0  0  0  0
   13.2290   13.4062    5.4315 H   0  0  0  0  0  0  0  0  0  0  0  0
   14.9559   13.6823    6.0463 H   0  0  0  0  0  0  0  0  0  0  0  0
   16.7043   13.6791    4.7118 H   0  0  0  0  0  0  0  0  0  0  0  0
   16.4522   12.7741    3.1807 H   0  0  0  0  0  0  0  0  0  0  0  0
   16.4057   14.5698    3.1807 H   0  0  0  0  0  0  0  0  0  0  0  0
   12.8192   16.5232    1.1624 H   0  0  0  0  0  0  0  0  0  0  0  0
   11.1220   16.0894    3.1504 H   0  0  0  0  0  0  0  0  0  0  0  0
  1  2  1  0
  2  3  1  0
  3  4  2  0
  4  5  1  0
  5  6  1  0
  5  7  2  0
  7  8  1  0
  8  9  1  0
  9 10  2  0
  9 11  1  0
 11 12  1  0
 12 13  2  0
 13 14  1  0
 14 15  2  0
 15 16  1  0
 15 17  1  0
 17 18  2  0
  8 19  2  0
 19 20  1  0
 20 21  1  0
 21 22  2  0
 21 23  1  0
 23 24  1  0
 24 25  1  0
 25 26  2  0
 26 27  1  0
 27 28  1  0
 28 29  1  0
 28 30  1  0
 30 31  2  0
 31 32  1  0
 32 33  2  0
 33 34  1  0
 26 35  1  0
 35 36  1  0
 19  3  1  0
 35 23  2  0
 18 12  1  0
 34 30  1  0
  1 37  1  0
  1 38  1  0
  1 39  1  0
  4 40  1  0
  7 41  1  0
 11 42  1  0
 13 43  1  0
 14 44  1  0
 17 45  1  0
 20 46  1  0
 25 47  1  0
 27 48  1  0
 27 49  1  0
 29 50  1  0
 29 51  1  0
 29 52  1  0
 32 53  1  0
 33 54  1  0
M  END
>  <meeko>  (1) 
{"is_sidechain": [false], "free_energy": -6.567, "intermolecular_energy": -9.638, "internal_energy": -1.674}

$$$$
1mq6_ligand
     RDKit          3D

 54 57  0  0  0  0  0  0  0  0999 V2000
   14.0320   12.8480    7.1200 C   0  0  0  0  0  0  0  0  0  0  0  0
   14.4280   11.5140    6.7990 O   0  0  0  0  0  0  0  0  0  0  0  0
   14.2780   11.2080    5.4690 C   0  0  0  0  0  0  0  0  0  0  0  0
   14.4550   12.2080    4.5040 C   0  0  0  0  0  0  0  0  0  0  0  0
   14.5050   11.8720    3.1550 C   0  0  0  0  0  0  0  0  0  0  0  0
   14.7410   13.1040    1.9770 Cl  0  0  0  0  0  0  0  0  0  0  0  0
   14.3990   10.5460    2.7500 C   0  0  0  0  0  0  0  0  0  0  0  0
   14.2170    9.5370    3.7080 C   0  0  0  0  0  0  0  0  0  0  0  0
   14.0980    8.1170    3.2590 C   0  0  0  0  0  0  0  0  0  0  0  0
   12.9770    7.6290    3.1610 O   0  0  0  0  0  0  0  0  0  0  0  0
   15.2850    7.4940    2.9520 N   0  0  0  0  0  0  0  0  0  0  0  0
   15.4840    6.1800    2.5300 C   0  0  0  0  0  0  0  0  0  0  0  0
   15.4520    5.7670    1.2030 C   0  0  0  0  0  0  0  0  0  0  0  0
   15.6640    4.4180    0.9080 C   0  0  0  0  0  0  0  0  0  0  0  0
   15.8990    3.5260    1.9440 C   0  0  0  0  0  0  0  0  0  0  0  0
   16.1640    1.8620    1.6280 Cl  0  0  0  0  0  0  0  0  0  0  0  0
   15.9100    4.0200    3.2370 C   0  0  0  0  0  0  0  0  0  0  0  0
   15.7060    5.3230    3.5510 N   0  0  0  0  0  0  0  0  0  0  0  0
   14.1420    9.8590    5.0840 C   0  0  0  0  0  0  0  0  0  0  0  0
   13.9840    8.8100    6.0240 N   0  0  0  0  0  0  0  0  0  0  0  0
   14.9690    7.9370    6.4640 C   0  0  0  0  0  0  0  0  0  0  0  0
   16.1570    8.0830    6.1820 O   0  0  0  0  0  0  0  0  0  0  0  0
   14.5020    6.8860    7.3730 C   0  0  0  0  0  0  0  0  0  0  0  0
   14.2230    5.2870    6.8050 S   0  0  0  0  0  0  0  0  0  0  0  0
   13.7450    4.7400    8.3410 C   0  0  0  0  0  0  0  0  0  0  0  0
   13.7880    5.7300    9.3060 C   0  0  0  0  0  0  0  0  0  0  0  0
   13.4160    5.4880   10.7520 C   0  0  0  0  0  0  0  0  0  0  0  0
   14.4220    4.8410   11.5940 N   0  0  0  0  0  0  0  0  0  0  0  0
   15.7730    5.3710   11.5450 C   0  0  0  0  0  0  0  0  0  0  0  0
   14.2350    3.5390   11.9020 C   0  0  0  0  0  0  0  0  0  0  0  0
   15.1110    2.6600   12.3440 N   0  0  0  0  0  0  0  0  0  0  0  0
   14.3930    1.4990   12.4760 C   0  0  0  0  0  0  0  0  0  0  0  0
   13.0930    1.7150   12.1060 C   0  0  0  0  0  0  0  0  0  0  0  0
   12.9770    3.0180   11.7350 O   0  0  0  0  0  0  0  0  0  0  0  0
   14.2290    6.9750    8.7310 C   0  0  0  0  0  0  0  0  0  0  0  0
   14.3890    8.4020    9.6820 Cl  0  0  0  0  0  0  0  0  0  0  0  0
   13.9967   12.9670    8.2130 H   0  0  0  0  0  0  0  0  0  0  0  0
   14.7582   13.5578    6.6971 H   0  0  0  0  0  0  0  0  0  0  0  0
   13.0361   13.0467    6.6971 H   0  0  0  0  0  0  0  0  0  0  0  0
   14.5545   13.2590    4.8130 H   0  0  0  0  0  0  0  0  0  0  0  0
   14.4576   10.2889    1.6821 H   0  0  0  0  0  0  0  0  0  0  0  0
   16.1510    8.0170    2.9460 H   0  0  0  0  0  0  0  0  0  0  0  0
   15.2626    6.4915    0.3973 H   0  0  0  0  0  0  0  0  0  0  0  0
   15.6448    4.0671   -0.1343 H   0  0  0  0  0  0  0  0  0  0  0  0
   16.0954    3.3130    4.0590 H   0  0  0  0  0  0  0  0  0  0  0  0
   13.1420    8.8490    6.6010 H   0  0  0  0  0  0  0  0  0  0  0  0
   13.4335    3.7053    8.5467 H   0  0  0  0  0  0  0  0  0  0  0  0
   13.1826    6.4638   11.2030 H   0  0  0  0  0  0  0  0  0  0  0  0
   12.5734    4.7818   10.7173 H   0  0  0  0  0  0  0  0  0  0  0  0
   16.1467    5.5176   12.5691 H   0  0  0  0  0  0  0  0  0  0  0  0
   16.4259    4.6623   11.0144 H   0  0  0  0  0  0  0  0  0  0  0  0
   15.7699    6.3345   11.0144 H   0  0  0  0  0  0  0  0  0  0  0  0
   14.8003    0.5391   12.8263 H   0  0  0  0  0  0  0  0  0  0  0  0
   12.2859    0.9676   12.1084 H   0  0  0  0  0  0  0  0  0  0  0  0
  1  2  1  0
  2  3  1  0
  3  4  2  0
  4  5  1  0
  5  6  1  0
  5  7  2  0
  7  8  1  0
  8  9  1  0
  9 10  2  0
  9 11  1  0
 11 12  1  0
 12 13  2  0
 13 14  1  0
 14 15  2  0
 15 16  1  0
 15 17  1  0
 17 18  2  0
  8 19  2  0
 19 20  1  0
 20 21  1  0
 21 22  2  0
 21 23  1  0
 23 24  1  0
 24 25  1  0
 25 26  2  0
 26 27  1  0
 27 28  1  0
 28 29  1  0
 28 30  1  0
 30 31  2  0
 31 32  1  0
 32 33  2  0
 33 34  1  0
 26 35  1  0
 35 36  1  0
 19  3  1  0
 35 23  2  0
 18 12  1  0
 34 30  1  0
  1 37  1  0
  1 38  1  0
  1 39  1  0
  4 40  1  0
  7 41  1  0
 11 42  1  0
 13 43  1  0
 14 44  1  0
 17 45  1  0
 20 46  1  0
 25 47  1  0
 27 48  1  0
 27 49  1  0
 29 50  1  0
 29 51  1  0
 29 52  1  0
 32 53  1  0
 33 54  1  0
M  END
>  <meeko>  (2) 
{"is_sidechain": [false], "free_energy": -6.487, "intermolecular_energy": -9.372, "internal_energy": -1.823}

$$$$
1mq6_ligand
     RDKit          3D

 54 57  0  0  0  0  0  0  0  0999 V2000
   16.2840    7.1370   -0.1380 C   0  0  0  0  0  0  0  0  0  0  0  0
   15.7150    7.3820    1.1480 O   0  0  0  0  0  0  0  0  0  0  0  0
   15.6200    6.2540    1.9240 C   0  0  0  0  0  0  0  0  0  0  0  0
   15.7990    4.9940    1.3400 C   0  0  0  0  0  0  0  0  0  0  0  0
   15.9050    3.8630    2.1430 C   0  0  0  0  0  0  0  0  0  0  0  0
   16.1430    2.3200    1.4180 Cl  0  0  0  0  0  0  0  0  0  0  0  0
   15.8530    3.9690    3.5280 C   0  0  0  0  0  0  0  0  0  0  0  0
   15.6700    5.2270    4.1250 C   0  0  0  0  0  0  0  0  0  0  0  0
   15.6090    5.3260    5.6140 C   0  0  0  0  0  0  0  0  0  0  0  0
   16.3730    6.1040    6.1770 O   0  0  0  0  0  0  0  0  0  0  0  0
   14.6520    4.5470    6.2190 N   0  0  0  0  0  0  0  0  0  0  0  0
   14.3780    4.4200    7.5800 C   0  0  0  0  0  0  0  0  0  0  0  0
   14.9320    3.4500    8.4080 C   0  0  0  0  0  0  0  0  0  0  0  0
   14.5740    3.4270    9.7580 C   0  0  0  0  0  0  0  0  0  0  0  0
   13.6750    4.3670   10.2380 C   0  0  0  0  0  0  0  0  0  0  0  0
   13.2070    4.3750   11.8870 Cl  0  0  0  0  0  0  0  0  0  0  0  0
   13.1670    5.2960    9.3460 C   0  0  0  0  0  0  0  0  0  0  0  0
   13.4970    5.3410    8.0310 N   0  0  0  0  0  0  0  0  0  0  0  0
   15.5380    6.3870    3.3260 C   0  0  0  0  0  0  0  0  0  0  0  0
   15.3800    7.6430    3.9640 N   0  0  0  0  0  0  0  0  0  0  0  0
   14.1870    8.3140    4.1870 C   0  0  0  0  0  0  0  0  0  0  0  0
   13.0890    7.8010    3.9780 O   0  0  0  0  0  0  0  0  0  0  0  0
   14.3280    9.6450    4.7870 C   0  0  0  0  0  0  0  0  0  0  0  0
   14.4630   11.0470    3.8030 S   0  0  0  0  0  0  0  0  0  0  0  0
   14.5810   12.0780    5.1490 C   0  0  0  0  0  0  0  0  0  0  0  0
   14.5170   11.4030    6.3540 C   0  0  0  0  0  0  0  0  0  0  0  0
   14.5920   12.1000    7.6940 C   0  0  0  0  0  0  0  0  0  0  0  0
   15.7810   11.8450    8.5060 N   0  0  0  0  0  0  0  0  0  0  0  0
   17.0700   11.9080    7.8390 C   0  0  0  0  0  0  0  0  0  0  0  0
   15.6390   11.0540    9.5920 C   0  0  0  0  0  0  0  0  0  0  0  0
   16.4270   10.0910   10.0220 N   0  0  0  0  0  0  0  0  0  0  0  0
   15.8050    9.6170   11.1490 C   0  0  0  0  0  0  0  0  0  0  0  0
   14.6480   10.3170   11.3660 C   0  0  0  0  0  0  0  0  0  0  0  0
   14.5280   11.2410   10.3750 O   0  0  0  0  0  0  0  0  0  0  0  0
   14.3710    9.9860    6.1320 C   0  0  0  0  0  0  0  0  0  0  0  0
   14.2610    8.8740    7.4410 Cl  0  0  0  0  0  0  0  0  0  0  0  0
   17.2883    6.7046   -0.0182 H   0  0  0  0  0  0  0  0  0  0  0  0
   15.6459    6.4339   -0.6934 H   0  0  0  0  0  0  0  0  0  0  0  0
   16.3563    8.0837   -0.6934 H   0  0  0  0  0  0  0  0  0  0  0  0
   15.8558    4.8984    0.2456 H   0  0  0  0  0  0  0  0  0  0  0  0
   15.9548    3.0705    4.1544 H   0  0  0  0  0  0  0  0  0  0  0  0
   13.9850    4.0300    5.6600 H   0  0  0  0  0  0  0  0  0  0  0  0
   15.6415    2.7118    8.0060 H   0  0  0  0  0  0  0  0  0  0  0  0
   15.0009    2.6709   10.4333 H   0  0  0  0  0  0  0  0  0  0  0  0
   12.4535    6.0419    9.7262 H   0  0  0  0  0  0  0  0  0  0  0  0
   16.1780    7.9690    4.5130 H   0  0  0  0  0  0  0  0  0  0  0  0
   14.6963   13.1691    5.0697 H   0  0  0  0  0  0  0  0  0  0  0  0
   14.5421   13.1831    7.5086 H   0  0  0  0  0  0  0  0  0  0  0  0
   13.7533   11.6920    8.2771 H   0  0  0  0  0  0  0  0  0  0  0  0
   17.8709   11.9471    8.5920 H   0  0  0  0  0  0  0  0  0  0  0  0
   17.2014   11.0152    7.2100 H   0  0  0  0  0  0  0  0  0  0  0  0
   17.1137   12.8094    7.2100 H   0  0  0  0  0  0  0  0  0  0  0  0
   16.1787    8.7989   11.7823 H   0  0  0  0  0  0  0  0  0  0  0  0
   13.9415   10.1599   12.1943 H   0  0  0  0  0  0  0  0  0  0  0  0
  1  2  1  0
  2  3  1  0
  3  4  2  0
  4  5  1  0
  5  6  1  0
  5  7  2  0
  7  8  1  0
  8  9  1  0
  9 10  2  0
  9 11  1  0
 11 12  1  0
 12 13  2  0
 13 14  1  0
 14 15  2  0
 15 16  1  0
 15 17  1  0
 17 18  2  0
  8 19  2  0
 19 20  1  0
 20 21  1  0
 21 22  2  0
 21 23  1  0
 23 24  1  0
 24 25  1  0
 25 26  2  0
 26 27  1  0
 27 28  1  0
 28 29  1  0
 28 30  1  0
 30 31  2  0
 31 32  1  0
 32 33  2  0
 33 34  1  0
 26 35  1  0
 35 36  1  0
 19  3  1  0
 35 23  2  0
 18 12  1  0
 34 30  1  0
  1 37  1  0
  1 38  1  0
  1 39  1  0
  4 40  1  0
  7 41  1  0
 11 42  1  0
 13 43  1  0
 14 44  1  0
 17 45  1  0
 20 46  1  0
 25 47  1  0
 27 48  1  0
 27 49  1  0
 29 50  1  0
 29 51  1  0
 29 52  1  0
 32 53  1  0
 33 54  1  0
M  END
>  <meeko>  (3) 
{"is_sidechain": [false], "free_energy": -6.44, "intermolecular_energy": -8.903, "internal_energy": -2.224}

$$$$
1mq6_ligand
     RDKit          3D

 54 57  0  0  0  0  0  0  0  0999 V2000
   14.7900   12.6740    7.2550 C   0  0  0  0  0  0  0  0  0  0  0  0
   14.3090   11.3970    6.8350 O   0  0  0  0  0  0  0  0  0  0  0  0
   14.5480   11.1360    5.5080 C   0  0  0  0  0  0  0  0  0  0  0  0
   14.4500   12.1710    4.5700 C   0  0  0  0  0  0  0  0  0  0  0  0
   14.8820   11.9680    3.2640 C   0  0  0  0  0  0  0  0  0  0  0  0
   14.7770   13.2500    2.1200 Cl  0  0  0  0  0  0  0  0  0  0  0  0
   15.4300   10.7490    2.8790 C   0  0  0  0  0  0  0  0  0  0  0  0
   15.5290    9.7040    3.8100 C   0  0  0  0  0  0  0  0  0  0  0  0
   16.1140    8.3970    3.3820 C   0  0  0  0  0  0  0  0  0  0  0  0
   17.3240    8.2360    3.4970 O   0  0  0  0  0  0  0  0  0  0  0  0
   15.2090    7.4680    2.9270 N   0  0  0  0  0  0  0  0  0  0  0  0
   15.4620    6.1820    2.4480 C   0  0  0  0  0  0  0  0  0  0  0  0
   15.5590    5.8480    1.1020 C   0  0  0  0  0  0  0  0  0  0  0  0
   15.8130    4.5200    0.7510 C   0  0  0  0  0  0  0  0  0  0  0  0
   15.9600    3.5700    1.7500 C   0  0  0  0  0  0  0  0  0  0  0  0
   16.2730    1.9300    1.3630 Cl  0  0  0  0  0  0  0  0  0  0  0  0
   15.8450    3.9860    3.0650 C   0  0  0  0  0  0  0  0  0  0  0  0
   15.5980    5.2680    3.4340 N   0  0  0  0  0  0  0  0  0  0  0  0
   15.0750    9.8820    5.1380 C   0  0  0  0  0  0  0  0  0  0  0  0
   15.2150    8.8120    6.0580 N   0  0  0  0  0  0  0  0  0  0  0  0
   14.3250    7.7660    6.2520 C   0  0  0  0  0  0  0  0  0  0  0  0
   13.3600    7.5720    5.5160 O   0  0  0  0  0  0  0  0  0  0  0  0
   14.6780    6.8480    7.3400 C   0  0  0  0  0  0  0  0  0  0  0  0
   15.5090    7.4100    8.7360 S   0  0  0  0  0  0  0  0  0  0  0  0
   15.5320    5.8650    9.4420 C   0  0  0  0  0  0  0  0  0  0  0  0
   14.9190    4.9030    8.6600 C   0  0  0  0  0  0  0  0  0  0  0  0
   14.8060    3.4530    9.0750 C   0  0  0  0  0  0  0  0  0  0  0  0
   15.2660    3.1130   10.4200 N   0  0  0  0  0  0  0  0  0  0  0  0
   16.4420    2.2690   10.5300 C   0  0  0  0  0  0  0  0  0  0  0  0
   14.3440    3.0910   11.4090 C   0  0  0  0  0  0  0  0  0  0  0  0
   13.8140    4.1010   12.0670 N   0  0  0  0  0  0  0  0  0  0  0  0
   12.9530    3.5140   12.9580 C   0  0  0  0  0  0  0  0  0  0  0  0
   12.9910    2.1540   12.8090 C   0  0  0  0  0  0  0  0  0  0  0  0
   13.8790    1.8680   11.8190 O   0  0  0  0  0  0  0  0  0  0  0  0
   14.4270    5.4860    7.4370 C   0  0  0  0  0  0  0  0  0  0  0  0
   13.6100    4.5410    6.2520 Cl  0  0  0  0  0  0  0  0  0  0  0  0
   14.8060   12.7164    8.3541 H   0  0  0  0  0  0  0  0  0  0  0  0
   15.8078   12.8281    6.8673 H   0  0  0  0  0  0  0  0  0  0  0  0
   14.1268   13.4613    6.8673 H   0  0  0  0  0  0  0  0  0  0  0  0
   14.0315   13.1442    4.8661 H   0  0  0  0  0  0  0  0  0  0  0  0
   15.7847   10.6046    1.8478 H   0  0  0  0  0  0  0  0  0  0  0  0
   14.2160    7.6490    2.9850 H   0  0  0  0  0  0  0  0  0  0  0  0
   15.4376    6.6175    0.3254 H   0  0  0  0  0  0  0  0  0  0  0  0
   15.8955    4.2310   -0.3071 H   0  0  0  0  0  0  0  0  0  0  0  0
   15.9607    3.2325    3.8580 H   0  0  0  0  0  0  0  0  0  0  0  0
   16.1520    8.6690    6.4390 H   0  0  0  0  0  0  0  0  0  0  0  0
   15.9875    5.6517   10.4203 H   0  0  0  0  0  0  0  0  0  0  0  0
   13.7457    3.1687    9.0045 H   0  0  0  0  0  0  0  0  0  0  0  0
   15.4769    2.9069    8.3956 H   0  0  0  0  0  0  0  0  0  0  0  0
   16.6752    2.1016   11.5919 H   0  0  0  0  0  0  0  0  0  0  0  0
   16.2473    1.3032   10.0407 H   0  0  0  0  0  0  0  0  0  0  0  0
   17.2946    2.7626   10.0407 H   0  0  0  0  0  0  0  0  0  0  0  0
   12.3265    4.0543   13.6829 H   0  0  0  0  0  0  0  0  0  0  0  0
   12.4073    1.4224   13.3870 H   0  0  0  0  0  0  0  0  0  0  0  0
  1  2  1  0
  2  3  1  0
  3  4  2  0
  4  5  1  0
  5  6  1  0
  5  7  2  0
  7  8  1  0
  8  9  1  0
  9 10  2  0
  9 11  1  0
 11 12  1  0
 12 13  2  0
 13 14  1  0
 14 15  2  0
 15 16  1  0
 15 17  1  0
 17 18  2  0
  8 19  2  0
 19 20  1  0
 20 21  1  0
 21 22  2  0
 21 23  1  0
 23 24  1  0
 24 25  1  0
 25 26  2  0
 26 27  1  0
 27 28  1  0
 28 29  1  0
 28 30  1  0
 30 31  2  0
 31 32  1  0
 32 33  2  0
 33 34  1  0
 26 35  1  0
 35 36  1  0
 19  3  1  0
 35 23  2  0
 18 12  1  0
 34 30  1  0
  1 37  1  0
  1 38  1  0
  1 39  1  0
  4 40  1  0
  7 41  1  0
 11 42  1  0
 13 43  1  0
 14 44  1  0
 17 45  1  0
 20 46  1  0
 25 47  1  0
 27 48  1  0
 27 49  1  0
 29 50  1  0
 29 51  1  0
 29 52  1  0
 32 53  1  0
 33 54  1  0
M  END
>  <meeko>  (4) 
{"is_sidechain": [false], "free_energy": -6.365, "intermolecular_energy": -9.292, "internal_energy": -1.723}

$$$$
1mq6_ligand
     RDKit          3D

 54 57  0  0  0  0  0  0  0  0999 V2000
   16.3590    7.4300    0.0880 C   0  0  0  0  0  0  0  0  0  0  0  0
   15.8820    7.6620    1.4140 O   0  0  0  0  0  0  0  0  0  0  0  0
   15.7370    6.5120    2.1490 C   0  0  0  0  0  0  0  0  0  0  0  0
   15.8510    5.2670    1.5160 C   0  0  0  0  0  0  0  0  0  0  0  0
   15.9070    4.1040    2.2760 C   0  0  0  0  0  0  0  0  0  0  0  0
   16.0660    2.5790    1.4930 Cl  0  0  0  0  0  0  0  0  0  0  0  0
   15.8690    4.1600    3.6650 C   0  0  0  0  0  0  0  0  0  0  0  0
   15.7510    5.4020    4.3090 C   0  0  0  0  0  0  0  0  0  0  0  0
   15.7050    5.4490    5.8020 C   0  0  0  0  0  0  0  0  0  0  0  0
   16.5520    6.1130    6.3900 O   0  0  0  0  0  0  0  0  0  0  0  0
   14.6670    4.7580    6.3810 N   0  0  0  0  0  0  0  0  0  0  0  0
   14.3830    4.6090    7.7380 C   0  0  0  0  0  0  0  0  0  0  0  0
   14.7960    3.5320    8.5150 C   0  0  0  0  0  0  0  0  0  0  0  0
   14.4430    3.4980    9.8670 C   0  0  0  0  0  0  0  0  0  0  0  0
   13.6910    4.5350   10.3980 C   0  0  0  0  0  0  0  0  0  0  0  0
   13.2360    4.5330   12.0510 Cl  0  0  0  0  0  0  0  0  0  0  0  0
   13.3180    5.5670    9.5540 C   0  0  0  0  0  0  0  0  0  0  0  0
   13.6460    5.6250    8.2390 N   0  0  0  0  0  0  0  0  0  0  0  0
   15.6710    6.5960    3.5540 C   0  0  0  0  0  0  0  0  0  0  0  0
   15.5780    7.8340    4.2400 N   0  0  0  0  0  0  0  0  0  0  0  0
   14.4130    8.4900    4.6090 C   0  0  0  0  0  0  0  0  0  0  0  0
   13.3020    7.9750    4.5070 O   0  0  0  0  0  0  0  0  0  0  0  0
   14.6140    9.8060    5.2260 C   0  0  0  0  0  0  0  0  0  0  0  0
   14.5360   11.2430    4.2870 S   0  0  0  0  0  0  0  0  0  0  0  0
   14.8490   12.2330    5.6320 C   0  0  0  0  0  0  0  0  0  0  0  0
   15.0130   11.5180    6.8040 C   0  0  0  0  0  0  0  0  0  0  0  0
   15.2940   12.1750    8.1370 C   0  0  0  0  0  0  0  0  0  0  0  0
   14.1450   12.7120    8.8640 N   0  0  0  0  0  0  0  0  0  0  0  0
   13.7150   14.0590    8.5320 C   0  0  0  0  0  0  0  0  0  0  0  0
   13.9120   12.2330   10.1060 C   0  0  0  0  0  0  0  0  0  0  0  0
   14.4590   11.1970   10.7080 N   0  0  0  0  0  0  0  0  0  0  0  0
   13.8540   11.1580   11.9390 C   0  0  0  0  0  0  0  0  0  0  0  0
   12.9520   12.1830   12.0420 C   0  0  0  0  0  0  0  0  0  0  0  0
   12.9780   12.8800   10.8740 O   0  0  0  0  0  0  0  0  0  0  0  0
   14.8750   10.1050    6.5560 C   0  0  0  0  0  0  0  0  0  0  0  0
   15.0230    8.9480    7.8230 Cl  0  0  0  0  0  0  0  0  0  0  0  0
   17.3474    6.9493    0.1327 H   0  0  0  0  0  0  0  0  0  0  0  0
   15.6557    6.7733   -0.4450 H   0  0  0  0  0  0  0  0  0  0  0  0
   16.4413    8.3887   -0.4450 H   0  0  0  0  0  0  0  0  0  0  0  0
   15.8962    5.2098    0.4184 H   0  0  0  0  0  0  0  0  0  0  0  0
   15.9311    3.2349    4.2568 H   0  0  0  0  0  0  0  0  0  0  0  0
   13.9460    4.3420    5.8070 H   0  0  0  0  0  0  0  0  0  0  0  0
   15.3912    2.7196    8.0725 H   0  0  0  0  0  0  0  0  0  0  0  0
   14.7583    2.6577   10.5029 H   0  0  0  0  0  0  0  0  0  0  0  0
   12.7201    6.3889    9.9747 H   0  0  0  0  0  0  0  0  0  0  0  0
   16.4290    8.1510    4.7070 H   0  0  0  0  0  0  0  0  0  0  0  0
   14.9144   13.3296    5.5761 H   0  0  0  0  0  0  0  0  0  0  0  0
   15.7750   11.4252    8.7824 H   0  0  0  0  0  0  0  0  0  0  0  0
   15.9182   13.0493    7.9003 H   0  0  0  0  0  0  0  0  0  0  0  0
   13.5344   14.6249    9.4578 H   0  0  0  0  0  0  0  0  0  0  0  0
   14.4981   14.5593    7.9434 H   0  0  0  0  0  0  0  0  0  0  0  0
   12.7869   14.0130    7.9434 H   0  0  0  0  0  0  0  0  0  0  0  0
   14.0621   10.4160   12.7239 H   0  0  0  0  0  0  0  0  0  0  0  0
   12.3189   12.4036   12.9141 H   0  0  0  0  0  0  0  0  0  0  0  0
  1  2  1  0
  2  3  1  0
  3  4  2  0
  4  5  1  0
  5  6  1  0
  5  7  2  0
  7  8  1  0
  8  9  1  0
  9 10  2  0
  9 11  1  0
 11 12  1  0
 12 13  2  0
 13 14  1  0
 14 15  2  0
 15 16  1  0
 15 17  1  0
 17 18  2  0
  8 19  2  0
 19 20  1  0
 20 21  1  0
 21 22  2  0
 21 23  1  0
 23 24  1  0
 24 25  1  0
 25 26  2  0
 26 27  1  0
 27 28  1  0
 28 29  1  0
 28 30  1  0
 30 31  2  0
 31 32  1  0
 32 33  2  0
 33 34  1  0
 26 35  1  0
 35 36  1  0
 19  3  1  0
 35 23  2  0
 18 12  1  0
 34 30  1  0
  1 37  1  0
  1 38  1  0
  1 39  1  0
  4 40  1  0
  7 41  1  0
 11 42  1  0
 13 43  1  0
 14 44  1  0
 17 45  1  0
 20 46  1  0
 25 47  1  0
 27 48  1  0
 27 49  1  0
 29 50  1  0
 29 51  1  0
 29 52  1  0
 32 53  1  0
 33 54  1  0
M  END
>  <meeko>  (5) 
{"is_sidechain": [false], "free_energy": -6.327, "intermolecular_energy": -8.942, "internal_energy": -2.019}

$$$$
1mq6_ligand
     RDKit          3D

 54 57  0  0  0  0  0  0  0  0999 V2000
   16.2500    7.3090   -0.2820 C   0  0  0  0  0  0  0  0  0  0  0  0
   16.3610    7.3700    1.1400 O   0  0  0  0  0  0  0  0  0  0  0  0
   15.9300    6.2280    1.7680 C   0  0  0  0  0  0  0  0  0  0  0  0
   16.1170    4.9850    1.1520 C   0  0  0  0  0  0  0  0  0  0  0  0
   15.8700    3.8130    1.8590 C   0  0  0  0  0  0  0  0  0  0  0  0
   16.1210    2.2890    1.1010 Cl  0  0  0  0  0  0  0  0  0  0  0  0
   15.4540    3.8590    3.1850 C   0  0  0  0  0  0  0  0  0  0  0  0
   15.2580    5.1000    3.8120 C   0  0  0  0  0  0  0  0  0  0  0  0
   14.8040    5.1360    5.2350 C   0  0  0  0  0  0  0  0  0  0  0  0
   13.6640    5.5190    5.4720 O   0  0  0  0  0  0  0  0  0  0  0  0
   15.7190    4.6850    6.1570 N   0  0  0  0  0  0  0  0  0  0  0  0
   15.5840    4.6200    7.5430 C   0  0  0  0  0  0  0  0  0  0  0  0
   16.1370    5.5340    8.4320 C   0  0  0  0  0  0  0  0  0  0  0  0
   15.9320    5.3570    9.8020 C   0  0  0  0  0  0  0  0  0  0  0  0
   15.1840    4.2750   10.2410 C   0  0  0  0  0  0  0  0  0  0  0  0
   14.9070    4.0180   11.9140 Cl  0  0  0  0  0  0  0  0  0  0  0  0
   14.6720    3.4090    9.2900 C   0  0  0  0  0  0  0  0  0  0  0  0
   14.8570    3.5570    7.9550 N   0  0  0  0  0  0  0  0  0  0  0  0
   15.4830    6.3040    3.1030 C   0  0  0  0  0  0  0  0  0  0  0  0
   15.3010    7.5380    3.7770 N   0  0  0  0  0  0  0  0  0  0  0  0
   14.2020    8.3800    3.6800 C   0  0  0  0  0  0  0  0  0  0  0  0
   13.1720    8.0580    3.0910 O   0  0  0  0  0  0  0  0  0  0  0  0
   14.3230    9.6410    4.4170 C   0  0  0  0  0  0  0  0  0  0  0  0
   14.4090   11.1440    3.5880 S   0  0  0  0  0  0  0  0  0  0  0  0
   14.5240   12.0270    5.0360 C   0  0  0  0  0  0  0  0  0  0  0  0
   14.4960   11.2250    6.1620 C   0  0  0  0  0  0  0  0  0  0  0  0
   14.5770   11.7760    7.5680 C   0  0  0  0  0  0  0  0  0  0  0  0
   15.0690   13.1450    7.7140 N   0  0  0  0  0  0  0  0  0  0  0  0
   16.5030   13.3270    7.8520 C   0  0  0  0  0  0  0  0  0  0  0  0
   14.2330   14.0550    8.2620 C   0  0  0  0  0  0  0  0  0  0  0  0
   13.6240   14.0190    9.4300 N   0  0  0  0  0  0  0  0  0  0  0  0
   12.8970   15.1810    9.4710 C   0  0  0  0  0  0  0  0  0  0  0  0
   13.0910   15.8890    8.3150 C   0  0  0  0  0  0  0  0  0  0  0  0
   13.9450   15.1790    7.5300 O   0  0  0  0  0  0  0  0  0  0  0  0
   14.3790    9.8380    5.7900 C   0  0  0  0  0  0  0  0  0  0  0  0
   14.3160    8.5890    6.9740 Cl  0  0  0  0  0  0  0  0  0  0  0  0
   15.3162    6.7958   -0.5552 H   0  0  0  0  0  0  0  0  0  0  0  0
   16.2416    8.3292   -0.6932 H   0  0  0  0  0  0  0  0  0  0  0  0
   17.1067    6.7550   -0.6932 H   0  0  0  0  0  0  0  0  0  0  0  0
   16.4596    4.9351    0.1079 H   0  0  0  0  0  0  0  0  0  0  0  0
   15.2790    2.9262    3.7410 H   0  0  0  0  0  0  0  0  0  0  0  0
   16.5910    4.2720    5.8530 H   0  0  0  0  0  0  0  0  0  0  0  0
   16.7278    6.3848    8.0618 H   0  0  0  0  0  0  0  0  0  0  0  0
   16.3591    6.0678   10.5247 H   0  0  0  0  0  0  0  0  0  0  0  0
   14.0799    2.5498    9.6381 H   0  0  0  0  0  0  0  0  0  0  0  0
   15.9150    7.7070    4.5750 H   0  0  0  0  0  0  0  0  0  0  0  0
   14.6116   13.1229    5.0734 H   0  0  0  0  0  0  0  0  0  0  0  0
   13.5654   11.7386    7.9985 H   0  0  0  0  0  0  0  0  0  0  0  0
   15.3206   11.1476    8.0801 H   0  0  0  0  0  0  0  0  0  0  0  0
   16.7673   13.3605    8.9192 H   0  0  0  0  0  0  0  0  0  0  0  0
   17.0271   12.4882    7.3706 H   0  0  0  0  0  0  0  0  0  0  0  0
   16.8009   14.2702    7.3706 H   0  0  0  0  0  0  0  0  0  0  0  0
   12.2549   15.4968   10.3064 H   0  0  0  0  0  0  0  0  0  0  0  0
   12.6369   16.8594    8.0657 H   0  0  0  0  0  0  0  0  0  0  0  0
  1  2  1  0
  2  3  1  0
  3  4  2  0
  4  5  1  0
  5  6  1  0
  5  7  2  0
  7  8  1  0
  8  9  1  0
  9 10  2  0
  9 11  1  0
 11 12  1  0
 12 13  2  0
 13 14  1  0
 14 15  2  0
 15 16  1  0
 15 17  1  0
 17 18  2  0
  8 19  2  0
 19 20  1  0
 20 21  1  0
 21 22  2  0
 21 23  1  0
 23 24  1  0
 24 25  1  0
 25 26  2  0
 26 27  1  0
 27 28  1  0
 28 29  1  0
 28 30  1  0
 30 31  2  0
 31 32  1  0
 32 33  2  0
 33 34  1  0
 26 35  1  0
 35 36  1  0
 19  3  1  0
 35 23  2  0
 18 12  1  0
 34 30  1  0
  1 37  1  0
  1 38  1  0
  1 39  1  0
  4 40  1  0
  7 41  1  0
 11 42  1  0
 13 43  1  0
 14 44  1  0
 17 45  1  0
 20 46  1  0
 25 47  1  0
 27 48  1  0
 27 49  1  0
 29 50  1  0
 29 51  1  0
 29 52  1  0
 32 53  1  0
 33 54  1  0
M  END
>  <meeko>  (6) 
{"is_sidechain": [false], "free_energy": -6.257, "intermolecular_energy": -8.985, "internal_energy": -1.872}

$$$$
1mq6_ligand
     RDKit          3D

 54 57  0  0  0  0  0  0  0  0999 V2000
   16.7180    7.4990    0.2720 C   0  0  0  0  0  0  0  0  0  0  0  0
   15.4280    7.0110    0.6380 O   0  0  0  0  0  0  0  0  0  0  0  0
   15.4750    5.9060    1.4520 C   0  0  0  0  0  0  0  0  0  0  0  0
   15.6850    4.6410    0.8900 C   0  0  0  0  0  0  0  0  0  0  0  0
   15.9350    3.5470    1.7130 C   0  0  0  0  0  0  0  0  0  0  0  0
   16.2110    1.9990    1.0150 Cl  0  0  0  0  0  0  0  0  0  0  0  0
   15.9970    3.6980    3.0940 C   0  0  0  0  0  0  0  0  0  0  0  0
   15.7830    4.9610    3.6680 C   0  0  0  0  0  0  0  0  0  0  0  0
   15.8450    5.1080    5.1530 C   0  0  0  0  0  0  0  0  0  0  0  0
   16.8480    5.6130    5.6460 O   0  0  0  0  0  0  0  0  0  0  0  0
   14.7270    4.6880    5.8340 N   0  0  0  0  0  0  0  0  0  0  0  0
   14.5080    4.6850    7.2120 C   0  0  0  0  0  0  0  0  0  0  0  0
   14.8100    3.6220    8.0550 C   0  0  0  0  0  0  0  0  0  0  0  0
   14.5390    3.7420    9.4200 C   0  0  0  0  0  0  0  0  0  0  0  0
   13.9760    4.9150    9.8990 C   0  0  0  0  0  0  0  0  0  0  0  0
   13.6270    5.1060   11.5670 Cl  0  0  0  0  0  0  0  0  0  0  0  0
   13.7030    5.9240    8.9910 C   0  0  0  0  0  0  0  0  0  0  0  0
   13.9550    5.8340    7.6620 N   0  0  0  0  0  0  0  0  0  0  0  0
   15.5060    6.0820    2.8500 C   0  0  0  0  0  0  0  0  0  0  0  0
   15.3210    7.3470    3.4630 N   0  0  0  0  0  0  0  0  0  0  0  0
   14.1110    7.9320    3.8060 C   0  0  0  0  0  0  0  0  0  0  0  0
   13.0420    7.3270    3.7450 O   0  0  0  0  0  0  0  0  0  0  0  0
   14.2120    9.2930    4.3440 C   0  0  0  0  0  0  0  0  0  0  0  0
   14.5030    9.5620    6.0160 S   0  0  0  0  0  0  0  0  0  0  0  0
   14.4810   11.2510    5.8290 C   0  0  0  0  0  0  0  0  0  0  0  0
   14.2640   11.6480    4.5220 C   0  0  0  0  0  0  0  0  0  0  0  0
   14.2090   13.0990    4.1000 C   0  0  0  0  0  0  0  0  0  0  0  0
   15.3250   13.5970    3.2970 N   0  0  0  0  0  0  0  0  0  0  0  0
   15.0380   13.9950    1.9310 C   0  0  0  0  0  0  0  0  0  0  0  0
   16.5640   13.1580    3.6100 C   0  0  0  0  0  0  0  0  0  0  0  0
   17.2920   13.4270    4.6750 N   0  0  0  0  0  0  0  0  0  0  0  0
   18.4580   12.7330    4.4740 C   0  0  0  0  0  0  0  0  0  0  0  0
   18.3980   12.0610    3.2840 C   0  0  0  0  0  0  0  0  0  0  0  0
   17.1890   12.3240    2.7180 O   0  0  0  0  0  0  0  0  0  0  0  0
   14.1080   10.4990    3.6660 C   0  0  0  0  0  0  0  0  0  0  0  0
   13.8260   10.6660    1.9750 Cl  0  0  0  0  0  0  0  0  0  0  0  0
   17.2983    7.7185    1.1804 H   0  0  0  0  0  0  0  0  0  0  0  0
   17.2429    6.7373   -0.3232 H   0  0  0  0  0  0  0  0  0  0  0  0
   16.6073    8.4174   -0.3232 H   0  0  0  0  0  0  0  0  0  0  0  0
   15.6524    4.5119   -0.2019 H   0  0  0  0  0  0  0  0  0  0  0  0
   16.2131    2.8303    3.7347 H   0  0  0  0  0  0  0  0  0  0  0  0
   13.9000    4.3980    5.3300 H   0  0  0  0  0  0  0  0  0  0  0  0
   15.2557    2.7001    7.6533 H   0  0  0  0  0  0  0  0  0  0  0  0
   14.7697    2.9149   10.1075 H   0  0  0  0  0  0  0  0  0  0  0  0
   13.2549    6.8541    9.3706 H   0  0  0  0  0  0  0  0  0  0  0  0
   16.1480    7.7550    3.9030 H   0  0  0  0  0  0  0  0  0  0  0  0
   14.6245   11.9556    6.6614 H   0  0  0  0  0  0  0  0  0  0  0  0
   13.2889   13.2400    3.5139 H   0  0  0  0  0  0  0  0  0  0  0  0
   14.2521   13.6723    5.0378 H   0  0  0  0  0  0  0  0  0  0  0  0
   14.3946   14.8872    1.9365 H   0  0  0  0  0  0  0  0  0  0  0  0
   15.9794   14.2250    1.4106 H   0  0  0  0  0  0  0  0  0  0  0  0
   14.5224   13.1744    1.4106 H   0  0  0  0  0  0  0  0  0  0  0  0
   19.3130   12.7189    5.1659 H   0  0  0  0  0  0  0  0  0  0  0  0
   19.1866   11.4219    2.8602 H   0  0  0  0  0  0  0  0  0  0  0  0
  1  2  1  0
  2  3  1  0
  3  4  2  0
  4  5  1  0
  5  6  1  0
  5  7  2  0
  7  8  1  0
  8  9  1  0
  9 10  2  0
  9 11  1  0
 11 12  1  0
 12 13  2  0
 13 14  1  0
 14 15  2  0
 15 16  1  0
 15 17  1  0
 17 18  2  0
  8 19  2  0
 19 20  1  0
 20 21  1  0
 21 22  2  0
 21 23  1  0
 23 24  1  0
 24 25  1  0
 25 26  2  0
 26 27  1  0
 27 28  1  0
 28 29  1  0
 28 30  1  0
 30 31  2  0
 31 32  1  0
 32 33  2  0
 33 34  1  0
 26 35  1  0
 35 36  1  0
 19  3  1  0
 35 23  2  0
 18 12  1  0
 34 30  1  0
  1 37  1  0
  1 38  1  0
  1 39  1  0
  4 40  1  0
  7 41  1  0
 11 42  1  0
 13 43  1  0
 14 44  1  0
 17 45  1  0
 20 46  1  0
 25 47  1  0
 27 48  1  0
 27 49  1  0
 29 50  1  0
 29 51  1  0
 29 52  1  0
 32 53  1  0
 33 54  1  0
M  END
>  <meeko>  (7) 
{"is_sidechain": [false], "free_energy": -6.174, "intermolecular_energy": -8.693, "internal_energy": -2.042}

$$$$
1mq6_ligand
     RDKit          3D

 54 57  0  0  0  0  0  0  0  0999 V2000
   14.4210    7.8880   13.0320 C   0  0  0  0  0  0  0  0  0  0  0  0
   13.4310    7.5290   12.0670 O   0  0  0  0  0  0  0  0  0  0  0  0
   13.6800    6.3270   11.4530 C   0  0  0  0  0  0  0  0  0  0  0  0
   13.3740    5.1330   12.1180 C   0  0  0  0  0  0  0  0  0  0  0  0
   13.4330    3.9230   11.4350 C   0  0  0  0  0  0  0  0  0  0  0  0
   13.0360    2.4610   12.2530 Cl  0  0  0  0  0  0  0  0  0  0  0  0
   13.7770    3.8830   10.0880 C   0  0  0  0  0  0  0  0  0  0  0  0
   14.0900    5.0740    9.4140 C   0  0  0  0  0  0  0  0  0  0  0  0
   14.4650    5.0170    7.9690 C   0  0  0  0  0  0  0  0  0  0  0  0
   15.6560    5.0250    7.6750 O   0  0  0  0  0  0  0  0  0  0  0  0
   13.4120    4.9180    7.0900 N   0  0  0  0  0  0  0  0  0  0  0  0
   13.4550    4.8660    5.6970 C   0  0  0  0  0  0  0  0  0  0  0  0
   13.4530    3.6920    4.9530 C   0  0  0  0  0  0  0  0  0  0  0  0
   13.5020    3.7740    3.5590 C   0  0  0  0  0  0  0  0  0  0  0  0
   13.5530    5.0210    2.9540 C   0  0  0  0  0  0  0  0  0  0  0  0
   13.6140    5.1680    1.2470 Cl  0  0  0  0  0  0  0  0  0  0  0  0
   13.5550    6.1400    3.7690 C   0  0  0  0  0  0  0  0  0  0  0  0
   13.5090    6.0890    5.1240 N   0  0  0  0  0  0  0  0  0  0  0  0
   14.0580    6.3130   10.0950 C   0  0  0  0  0  0  0  0  0  0  0  0
   14.3550    7.4980    9.3740 N   0  0  0  0  0  0  0  0  0  0  0  0
   15.5350    8.2250    9.4280 C   0  0  0  0  0  0  0  0  0  0  0  0
   16.5360    7.8210   10.0160 O   0  0  0  0  0  0  0  0  0  0  0  0
   15.5330    9.4660    8.6460 C   0  0  0  0  0  0  0  0  0  0  0  0
   15.2310   10.9820    9.3960 S   0  0  0  0  0  0  0  0  0  0  0  0
   15.3930   11.8290    7.9320 C   0  0  0  0  0  0  0  0  0  0  0  0
   15.6790   11.0040    6.8600 C   0  0  0  0  0  0  0  0  0  0  0  0
   15.8770   11.5220    5.4520 C   0  0  0  0  0  0  0  0  0  0  0  0
   14.7050   11.5210    4.5770 N   0  0  0  0  0  0  0  0  0  0  0  0
   14.5360   10.3840    3.6900 C   0  0  0  0  0  0  0  0  0  0  0  0
   14.1910   12.7190    4.2190 C   0  0  0  0  0  0  0  0  0  0  0  0
   13.9450   13.1850    3.0120 N   0  0  0  0  0  0  0  0  0  0  0  0
   13.4440   14.4430    3.2280 C   0  0  0  0  0  0  0  0  0  0  0  0
   13.4030   14.7000    4.5710 C   0  0  0  0  0  0  0  0  0  0  0  0
   13.8800   13.6030    5.2200 O   0  0  0  0  0  0  0  0  0  0  0  0
   15.7580    9.6300    7.2860 C   0  0  0  0  0  0  0  0  0  0  0  0
   16.1040    8.3590    6.1770 Cl  0  0  0  0  0  0  0  0  0  0  0  0
   14.0164    7.7413   14.0443 H   0  0  0  0  0  0  0  0  0  0  0  0
   15.3107    7.2552   12.8974 H   0  0  0  0  0  0  0  0  0  0  0  0
   14.6983    8.9439   12.8974 H   0  0  0  0  0  0  0  0  0  0  0  0
   13.0872    5.1523   13.1798 H   0  0  0  0  0  0  0  0  0  0  0  0
   13.8037    2.9222    9.5531 H   0  0  0  0  0  0  0  0  0  0  0  0
   12.4690    4.7940    7.4340 H   0  0  0  0  0  0  0  0  0  0  0  0
   13.4135    2.7134    5.4539 H   0  0  0  0  0  0  0  0  0  0  0  0
   13.5001    2.8593    2.9479 H   0  0  0  0  0  0  0  0  0  0  0  0
   13.5963    7.1292    3.2896 H   0  0  0  0  0  0  0  0  0  0  0  0
   13.7490    7.7010    8.5770 H   0  0  0  0  0  0  0  0  0  0  0  0
   15.2819   12.9200    7.8460 H   0  0  0  0  0  0  0  0  0  0  0  0
   16.2355   12.5593    5.5266 H   0  0  0  0  0  0  0  0  0  0  0  0
   16.5849   10.8214    4.9850 H   0  0  0  0  0  0  0  0  0  0  0  0
   14.4002    9.4702    4.2871 H   0  0  0  0  0  0  0  0  0  0  0  0
   13.6515   10.5423    3.0555 H   0  0  0  0  0  0  0  0  0  0  0  0
   15.4283   10.2782    3.0555 H   0  0  0  0  0  0  0  0  0  0  0  0
   13.1234   15.1404    2.4401 H   0  0  0  0  0  0  0  0  0  0  0  0
   13.0477   15.6282    5.0425 H   0  0  0  0  0  0  0  0  0  0  0  0
  1  2  1  0
  2  3  1  0
  3  4  2  0
  4  5  1  0
  5  6  1  0
  5  7  2  0
  7  8  1  0
  8  9  1  0
  9 10  2  0
  9 11  1  0
 11 12  1  0
 12 13  2  0
 13 14  1  0
 14 15  2  0
 15 16  1  0
 15 17  1  0
 17 18  2  0
  8 19  2  0
 19 20  1  0
 20 21  1  0
 21 22  2  0
 21 23  1  0
 23 24  1  0
 24 25  1  0
 25 26  2  0
 26 27  1  0
 27 28  1  0
 28 29  1  0
 28 30  1  0
 30 31  2  0
 31 32  1  0
 32 33  2  0
 33 34  1  0
 26 35  1  0
 35 36  1  0
 19  3  1  0
 35 23  2  0
 18 12  1  0
 34 30  1  0
  1 37  1  0
  1 38  1  0
  1 39  1  0
  4 40  1  0
  7 41  1  0
 11 42  1  0
 13 43  1  0
 14 44  1  0
 17 45  1  0
 20 46  1  0
 25 47  1  0
 27 48  1  0
 27 49  1  0
 29 50  1  0
 29 51  1  0
 29 52  1  0
 32 53  1  0
 33 54  1  0
M  END
>  <meeko>  (8) 
{"is_sidechain": [false], "free_energy": -6.116, "intermolecular_energy": -8.522, "internal_energy": -2.128}

$$$$
1mq6_ligand
     RDKit          3D

 54 57  0  0  0  0  0  0  0  0999 V2000
   18.4300    5.8060   12.2790 C   0  0  0  0  0  0  0  0  0  0  0  0
   17.0060    5.7150   12.2510 O   0  0  0  0  0  0  0  0  0  0  0  0
   16.5400    4.7320   11.4130 C   0  0  0  0  0  0  0  0  0  0  0  0
   16.5740    3.3950   11.8270 C   0  0  0  0  0  0  0  0  0  0  0  0
   15.9270    2.4180   11.0780 C   0  0  0  0  0  0  0  0  0  0  0  0
   15.9570    0.7790   11.6030 Cl  0  0  0  0  0  0  0  0  0  0  0  0
   15.2260    2.7560    9.9250 C   0  0  0  0  0  0  0  0  0  0  0  0
   15.1890    4.0930    9.4990 C   0  0  0  0  0  0  0  0  0  0  0  0
   14.4390    4.4410    8.2550 C   0  0  0  0  0  0  0  0  0  0  0  0
   13.3290    4.9500    8.3680 O   0  0  0  0  0  0  0  0  0  0  0  0
   15.1000    4.1890    7.0770 N   0  0  0  0  0  0  0  0  0  0  0  0
   14.6470    4.3920    5.7730 C   0  0  0  0  0  0  0  0  0  0  0  0
   13.4910    3.8290    5.2460 C   0  0  0  0  0  0  0  0  0  0  0  0
   13.1450    4.1080    3.9210 C   0  0  0  0  0  0  0  0  0  0  0  0
   13.9630    4.9350    3.1670 C   0  0  0  0  0  0  0  0  0  0  0  0
   13.5780    5.3030    1.5370 Cl  0  0  0  0  0  0  0  0  0  0  0  0
   15.0990    5.4510    3.7670 C   0  0  0  0  0  0  0  0  0  0  0  0
   15.4570    5.1960    5.0500 N   0  0  0  0  0  0  0  0  0  0  0  0
   15.8590    5.0990   10.2340 C   0  0  0  0  0  0  0  0  0  0  0  0
   15.7780    6.4420    9.7870 N   0  0  0  0  0  0  0  0  0  0  0  0
   14.8000    7.3670   10.1200 C   0  0  0  0  0  0  0  0  0  0  0  0
   13.9530    7.1530   10.9860 O   0  0  0  0  0  0  0  0  0  0  0  0
   14.9120    8.6590    9.4350 C   0  0  0  0  0  0  0  0  0  0  0  0
   15.4590   10.0570   10.2720 S   0  0  0  0  0  0  0  0  0  0  0  0
   15.3120   11.0380    8.8910 C   0  0  0  0  0  0  0  0  0  0  0  0
   14.8600   10.3460    7.7830 C   0  0  0  0  0  0  0  0  0  0  0  0
   14.6540   10.9980    6.4330 C   0  0  0  0  0  0  0  0  0  0  0  0
   15.6080   10.6520    5.3800 N   0  0  0  0  0  0  0  0  0  0  0  0
   16.7560   11.5230    5.2080 C   0  0  0  0  0  0  0  0  0  0  0  0
   15.1410    9.9580    4.3180 C   0  0  0  0  0  0  0  0  0  0  0  0
   15.8190    9.3670    3.3550 N   0  0  0  0  0  0  0  0  0  0  0  0
   14.8550    8.8290    2.5410 C   0  0  0  0  0  0  0  0  0  0  0  0
   13.6140    9.1130    3.0440 C   0  0  0  0  0  0  0  0  0  0  0  0
   13.7820    9.8370    4.1830 O   0  0  0  0  0  0  0  0  0  0  0  0
   14.6290    8.9620    8.1110 C   0  0  0  0  0  0  0  0  0  0  0  0
   14.0620    7.8380    6.9350 Cl  0  0  0  0  0  0  0  0  0  0  0  0
   18.7755    5.8281   13.3231 H   0  0  0  0  0  0  0  0  0  0  0  0
   18.8633    4.9337   11.7677 H   0  0  0  0  0  0  0  0  0  0  0  0
   18.7487    6.7263   11.7677 H   0  0  0  0  0  0  0  0  0  0  0  0
   17.1126    3.1172   12.7450 H   0  0  0  0  0  0  0  0  0  0  0  0
   14.7026    1.9785    9.3492 H   0  0  0  0  0  0  0  0  0  0  0  0
   16.0640    3.8820    7.0870 H   0  0  0  0  0  0  0  0  0  0  0  0
   12.8579    3.1737    5.8623 H   0  0  0  0  0  0  0  0  0  0  0  0
   12.2338    3.6762    3.4814 H   0  0  0  0  0  0  0  0  0  0  0  0
   15.7490    6.1059    3.1682 H   0  0  0  0  0  0  0  0  0  0  0  0
   16.6310    6.8300    9.3800 H   0  0  0  0  0  0  0  0  0  0  0  0
   15.5516   12.1115    8.8804 H   0  0  0  0  0  0  0  0  0  0  0  0
   13.6511   10.7183    6.0782 H   0  0  0  0  0  0  0  0  0  0  0  0
   14.7979   12.0743    6.6088 H   0  0  0  0  0  0  0  0  0  0  0  0
   17.1440   11.8174    6.1943 H   0  0  0  0  0  0  0  0  0  0  0  0
   17.5400   10.9904    4.6497 H   0  0  0  0  0  0  0  0  0  0  0  0
   16.4542   12.4214    4.6497 H   0  0  0  0  0  0  0  0  0  0  0  0
   15.0498    8.2558    1.6226 H   0  0  0  0  0  0  0  0  0  0  0  0
   12.6521    8.8096    2.6051 H   0  0  0  0  0  0  0  0  0  0  0  0
  1  2  1  0
  2  3  1  0
  3  4  2  0
  4  5  1  0
  5  6  1  0
  5  7  2  0
  7  8  1  0
  8  9  1  0
  9 10  2  0
  9 11  1  0
 11 12  1  0
 12 13  2  0
 13 14  1  0
 14 15  2  0
 15 16  1  0
 15 17  1  0
 17 18  2  0
  8 19  2  0
 19 20  1  0
 20 21  1  0
 21 22  2  0
 21 23  1  0
 23 24  1  0
 24 25  1  0
 25 26  2  0
 26 27  1  0
 27 28  1  0
 28 29  1  0
 28 30  1  0
 30 31  2  0
 31 32  1  0
 32 33  2  0
 33 34  1  0
 26 35  1  0
 35 36  1  0
 19  3  1  0
 35 23  2  0
 18 12  1  0
 34 30  1  0
  1 37  1  0
  1 38  1  0
  1 39  1  0
  4 40  1  0
  7 41  1  0
 11 42  1  0
 13 43  1  0
 14 44  1  0
 17 45  1  0
 20 46  1  0
 25 47  1  0
 27 48  1  0
 27 49  1  0
 29 50  1  0
 29 51  1  0
 29 52  1  0
 32 53  1  0
 33 54  1  0
M  END
>  <meeko>  (9) 
{"is_sidechain": [false], "free_energy": -6.107, "intermolecular_energy": -8.259, "internal_energy": -2.379}

$$$$
