3oe4_ligand
     RDKit          3D

 51 54  0  0  0  0  0  0  0  0999 V2000
    4.2400   -1.7250    7.9470 O   0  0  0  0  0  0  0  0  0  0  0  0
    4.9540   -2.7080    8.1070 C   0  0  0  0  0  0  0  0  0  0  0  0
    6.3250   -2.6380    8.1510 N   0  0  0  0  0  0  0  0  0  0  0  0
    7.0050   -1.3710    8.1740 C   0  0  0  0  0  0  0  0  0  0  0  0
    8.4060   -1.5970    7.7040 C   0  0  0  0  0  0  0  0  0  0  0  0
    8.9820   -0.9290    6.6890 C   0  0  0  0  0  0  0  0  0  0  0  0
   10.3830   -1.1150    6.1740 C   0  0  1  0  0  0  0  0  0  0  0  0
   10.4810   -0.7560    4.7840 O   0  0  0  0  0  0  0  0  0  0  0  0
   11.7820   -0.1680    4.5650 C   0  0  1  0  0  0  0  0  0  0  0  0
   11.6320    1.1650    4.0130 N   0  0  0  0  0  0  0  0  0  0  0  0
   10.4860    1.7980    3.6160 C   0  0  0  0  0  0  0  0  0  0  0  0
   10.7260    3.0150    3.1720 N   0  0  0  0  0  0  0  0  0  0  0  0
   12.0880    3.1690    3.2780 C   0  0  0  0  0  0  0  0  0  0  0  0
   12.9500    4.2170    2.9740 C   0  0  0  0  0  0  0  0  0  0  0  0
   14.2820    4.0680    3.2010 N   0  0  0  0  0  0  0  0  0  0  0  0
   14.7100    2.8970    3.7200 C   0  0  0  0  0  0  0  0  0  0  0  0
   13.9750    1.8140    4.0580 N   0  0  0  0  0  0  0  0  0  0  0  0
   12.6730    2.0270    3.8010 C   0  0  0  0  0  0  0  0  0  0  0  0
   12.5370   -0.1800    5.9000 C   0  0  2  0  0  0  0  0  0  0  0  0
   13.3350   -1.3730    6.0450 O   0  0  0  0  0  0  0  0  0  0  0  0
   11.4030   -0.2400    6.9080 C   0  0  2  0  0  0  0  0  0  0  0  0
   11.8290   -0.7940    8.1470 O   0  0  0  0  0  0  0  0  0  0  0  0
    4.3340   -4.0590    8.2670 C   0  0  0  0  0  0  0  0  0  0  0  0
    5.2050   -5.1580    8.3820 C   0  0  0  0  0  0  0  0  0  0  0  0
    4.6900   -6.4550    8.5350 C   0  0  0  0  0  0  0  0  0  0  0  0
    5.6110   -7.5940    8.6570 N   0  0  0  0  0  0  0  0  0  0  0  0
    5.5000   -8.3260    9.6480 O   0  0  0  0  0  0  0  0  0  0  0  0
    6.4440   -7.7520    7.7540 O   0  0  0  0  0  0  0  0  0  0  0  0
    3.3090   -6.6830    8.5740 C   0  0  0  0  0  0  0  0  0  0  0  0
    2.4560   -5.5940    8.4550 C   0  0  0  0  0  0  0  0  0  0  0  0
    1.0950   -5.7420    8.4800 O   0  0  0  0  0  0  0  0  0  0  0  0
    2.9540   -4.2950    8.3020 C   0  0  0  0  0  0  0  0  0  0  0  0
    2.0360   -3.2810    8.1820 O   0  0  0  0  0  0  0  0  0  0  0  0
    6.8260   -3.4690    8.4550 H   0  0  0  0  0  0  0  0  0  0  0  0
    6.4960   -0.6607    7.5059 H   0  0  0  0  0  0  0  0  0  0  0  0
    7.0033   -0.9519    9.1910 H   0  0  0  0  0  0  0  0  0  0  0  0
    9.0051   -2.3600    8.2226 H   0  0  0  0  0  0  0  0  0  0  0  0
    8.3664   -0.1698    6.1843 H   0  0  0  0  0  0  0  0  0  0  0  0
   10.6053   -2.1800    6.3367 H   0  0  0  0  0  0  0  0  0  0  0  0
   12.3666   -0.7437    3.8323 H   0  0  0  0  0  0  0  0  0  0  0  0
    9.4845    1.3453    3.6620 H   0  0  0  0  0  0  0  0  0  0  0  0
   12.5586    5.1556    2.5547 H   0  0  0  0  0  0  0  0  0  0  0  0
   15.7938    2.8140    3.8891 H   0  0  0  0  0  0  0  0  0  0  0  0
   13.2204    0.6755    6.0057 H   0  0  0  0  0  0  0  0  0  0  0  0
   14.2680   -1.0860    6.0670 H   0  0  0  0  0  0  0  0  0  0  0  0
   10.9982    0.7409    7.1978 H   0  0  0  0  0  0  0  0  0  0  0  0
   11.0540   -1.2770    8.5000 H   0  0  0  0  0  0  0  0  0  0  0  0
    6.2932   -5.0004    8.3519 H   0  0  0  0  0  0  0  0  0  0  0  0
    2.9095   -7.7006    8.6960 H   0  0  0  0  0  0  0  0  0  0  0  0
    0.7260   -5.1890    9.1930 H   0  0  0  0  0  0  0  0  0  0  0  0
    1.4740   -3.3510    8.9840 H   0  0  0  0  0  0  0  0  0  0  0  0
  1  2  2  0
  2  3  1  0
  3  4  1  0
  4  5  1  0
  5  6  2  0
  6  7  1  0
  7  8  1  0
  8  9  1  0
  9 10  1  0
 10 11  1  0
 11 12  2  0
 12 13  1  0
 13 14  2  0
 14 15  1  0
 15 16  2  0
 16 17  1  0
 17 18  2  0
  9 19  1  0
 19 20  1  0
 19 21  1  0
 21 22  1  0
  2 23  1  0
 23 24  2  0
 24 25  1  0
 25 26  1  0
 26 27  2  0
 26 28  1  0
 25 29  2  0
 29 30  1  0
 30 31  1  0
 30 32  2  0
 32 33  1  0
 21  7  1  0
 32 23  1  0
 18 10  1  0
 18 13  1  0
  3 34  1  0
  4 35  1  0
  4 36  1  0
  5 37  1  0
  6 38  1  0
  7 39  1  6
  9 40  1  6
 11 41  1  0
 14 42  1  0
 16 43  1  0
 19 44  1  1
 20 45  1  0
 21 46  1  1
 22 47  1  0
 24 48  1  0
 29 49  1  0
 31 50  1  0
 33 51  1  0
M  CHG  2  26   1  28  -1
M  END
>  <meeko>  (1) 
{"is_sidechain": [false], "free_energy": -9.161, "intermolecular_energy": -13.445, "internal_energy": -0.725}

$$$$
3oe4_ligand
     RDKit          3D

 51 54  0  0  0  0  0  0  0  0999 V2000
    4.6790   -1.8070    7.3150 O   0  0  0  0  0  0  0  0  0  0  0  0
    4.6280   -2.4560    8.3540 C   0  0  0  0  0  0  0  0  0  0  0  0
    5.0350   -1.9570    9.5670 N   0  0  0  0  0  0  0  0  0  0  0  0
    5.3960   -0.5740    9.7200 C   0  0  0  0  0  0  0  0  0  0  0  0
    6.7620   -0.3920    9.1400 C   0  0  0  0  0  0  0  0  0  0  0  0
    7.6930   -1.3600    9.0720 C   0  0  0  0  0  0  0  0  0  0  0  0
    9.0790   -1.2320    8.5010 C   0  0  1  0  0  0  0  0  0  0  0  0
    9.0930   -1.5280    7.0930 O   0  0  0  0  0  0  0  0  0  0  0  0
   10.0740   -0.6720    6.4670 C   0  0  1  0  0  0  0  0  0  0  0  0
    9.4450    0.1130    5.4230 N   0  0  0  0  0  0  0  0  0  0  0  0
    8.1330    0.1240    5.0380 C   0  0  0  0  0  0  0  0  0  0  0  0
    7.9150    0.9750    4.0560 N   0  0  0  0  0  0  0  0  0  0  0  0
    9.1450    1.5280    3.7880 C   0  0  0  0  0  0  0  0  0  0  0  0
    9.5770    2.4790    2.8700 C   0  0  0  0  0  0  0  0  0  0  0  0
   10.8880    2.8350    2.8490 N   0  0  0  0  0  0  0  0  0  0  0  0
   11.7200    2.2430    3.7330 C   0  0  0  0  0  0  0  0  0  0  0  0
   11.4210    1.3150    4.6700 N   0  0  0  0  0  0  0  0  0  0  0  0
   10.1130    1.0050    4.6290 C   0  0  0  0  0  0  0  0  0  0  0  0
   10.7140    0.1910    7.5610 C   0  0  2  0  0  0  0  0  0  0  0  0
   11.9040   -0.4260    8.0930 O   0  0  0  0  0  0  0  0  0  0  0  0
    9.6470    0.1820    8.6410 C   0  0  2  0  0  0  0  0  0  0  0  0
   10.1990    0.4410    9.9270 O   0  0  0  0  0  0  0  0  0  0  0  0
    4.1040   -3.8560    8.3320 C   0  0  0  0  0  0  0  0  0  0  0  0
    5.0500   -4.8980    8.3230 C   0  0  0  0  0  0  0  0  0  0  0  0
    4.6270   -6.2360    8.3030 C   0  0  0  0  0  0  0  0  0  0  0  0
    5.6250   -7.3150    8.2950 N   0  0  0  0  0  0  0  0  0  0  0  0
    5.6680   -8.0720    9.2720 O   0  0  0  0  0  0  0  0  0  0  0  0
    6.3640   -7.4000    7.3050 O   0  0  0  0  0  0  0  0  0  0  0  0
    3.2650   -6.5630    8.2900 C   0  0  0  0  0  0  0  0  0  0  0  0
    2.3380   -5.5290    8.2960 C   0  0  0  0  0  0  0  0  0  0  0  0
    0.9910   -5.7730    8.2800 O   0  0  0  0  0  0  0  0  0  0  0  0
    2.7440   -4.1900    8.3160 C   0  0  0  0  0  0  0  0  0  0  0  0
    1.7580   -3.2340    8.3100 O   0  0  0  0  0  0  0  0  0  0  0  0
    4.8020   -2.4970   10.3970 H   0  0  0  0  0  0  0  0  0  0  0  0
    4.6748    0.0624    9.1862 H   0  0  0  0  0  0  0  0  0  0  0  0
    5.3885   -0.2900   10.7827 H   0  0  0  0  0  0  0  0  0  0  0  0
    7.0228    0.5999    8.7424 H   0  0  0  0  0  0  0  0  0  0  0  0
    7.4129   -2.3447    9.4744 H   0  0  0  0  0  0  0  0  0  0  0  0
    9.6886   -1.9465    9.0736 H   0  0  0  0  0  0  0  0  0  0  0  0
   10.8683   -1.2564    5.9797 H   0  0  0  0  0  0  0  0  0  0  0  0
    7.3525   -0.5029    5.4938 H   0  0  0  0  0  0  0  0  0  0  0  0
    8.8650    2.9381    2.1684 H   0  0  0  0  0  0  0  0  0  0  0  0
   12.7737    2.5551    3.6847 H   0  0  0  0  0  0  0  0  0  0  0  0
   11.0085    1.1856    7.1949 H   0  0  0  0  0  0  0  0  0  0  0  0
   11.6310   -1.2860    8.4680 H   0  0  0  0  0  0  0  0  0  0  0  0
    8.8818    0.9649    8.5339 H   0  0  0  0  0  0  0  0  0  0  0  0
   11.1470    0.6320    9.7720 H   0  0  0  0  0  0  0  0  0  0  0  0
    6.1245   -4.6629    8.3317 H   0  0  0  0  0  0  0  0  0  0  0  0
    2.9377   -7.6131    8.2754 H   0  0  0  0  0  0  0  0  0  0  0  0
    0.7030   -5.9200    7.3600 H   0  0  0  0  0  0  0  0  0  0  0  0
    1.8600   -2.7700    7.4510 H   0  0  0  0  0  0  0  0  0  0  0  0
  1  2  2  0
  2  3  1  0
  3  4  1  0
  4  5  1  0
  5  6  2  0
  6  7  1  0
  7  8  1  0
  8  9  1  0
  9 10  1  0
 10 11  1  0
 11 12  2  0
 12 13  1  0
 13 14  2  0
 14 15  1  0
 15 16  2  0
 16 17  1  0
 17 18  2  0
  9 19  1  0
 19 20  1  0
 19 21  1  0
 21 22  1  0
  2 23  1  0
 23 24  2  0
 24 25  1  0
 25 26  1  0
 26 27  2  0
 26 28  1  0
 25 29  2  0
 29 30  1  0
 30 31  1  0
 30 32  2  0
 32 33  1  0
 21  7  1  0
 32 23  1  0
 18 10  1  0
 18 13  1  0
  3 34  1  0
  4 35  1  0
  4 36  1  0
  5 37  1  0
  6 38  1  0
  7 39  1  1
  9 40  1  6
 11 41  1  0
 14 42  1  0
 16 43  1  0
 19 44  1  6
 20 45  1  0
 21 46  1  6
 22 47  1  0
 24 48  1  0
 29 49  1  0
 31 50  1  0
 33 51  1  0
M  CHG  2  26   1  28  -1
M  END
>  <meeko>  (2) 
{"is_sidechain": [false], "free_energy": -9.0, "intermolecular_energy": -13.23, "internal_energy": -0.705}

$$$$
3oe4_ligand
     RDKit          3D

 51 54  0  0  0  0  0  0  0  0999 V2000
    4.5160   -1.9670    7.5990 O   0  0  0  0  0  0  0  0  0  0  0  0
    5.0130   -2.8680    8.2660 C   0  0  0  0  0  0  0  0  0  0  0  0
    6.1940   -2.7260    8.9520 N   0  0  0  0  0  0  0  0  0  0  0  0
    6.8410   -1.4470    9.0630 C   0  0  0  0  0  0  0  0  0  0  0  0
    8.2610   -1.6130    8.6240 C   0  0  0  0  0  0  0  0  0  0  0  0
    8.7460   -1.1810    7.4470 C   0  0  0  0  0  0  0  0  0  0  0  0
   10.1610   -1.3230    6.9550 C   0  0  1  0  0  0  0  0  0  0  0  0
   10.2240   -1.2530    5.5190 O   0  0  0  0  0  0  0  0  0  0  0  0
   11.4560   -0.5890    5.1580 C   0  0  1  0  0  0  0  0  0  0  0  0
   11.1660    0.5760    4.3460 N   0  0  0  0  0  0  0  0  0  0  0  0
   12.0440    1.4130    3.7140 C   0  0  0  0  0  0  0  0  0  0  0  0
   11.4220    2.3670    3.0510 N   0  0  0  0  0  0  0  0  0  0  0  0
   10.0850    2.1410    3.2750 C   0  0  0  0  0  0  0  0  0  0  0  0
    8.9300    2.7930    2.8580 C   0  0  0  0  0  0  0  0  0  0  0  0
    7.7190    2.3150    3.2490 N   0  0  0  0  0  0  0  0  0  0  0  0
    7.6940    1.2160    4.0330 C   0  0  0  0  0  0  0  0  0  0  0  0
    8.7400    0.4970    4.4980 N   0  0  0  0  0  0  0  0  0  0  0  0
    9.9030    1.0280    4.0800 C   0  0  0  0  0  0  0  0  0  0  0  0
   12.2040   -0.2460    6.4520 C   0  0  2  0  0  0  0  0  0  0  0  0
   13.1240   -1.2920    6.8250 O   0  0  0  0  0  0  0  0  0  0  0  0
   11.0800   -0.2120    7.4720 C   0  0  2  0  0  0  0  0  0  0  0  0
   11.5590   -0.4490    8.7910 O   0  0  0  0  0  0  0  0  0  0  0  0
    4.3260   -4.1930    8.3560 C   0  0  0  0  0  0  0  0  0  0  0  0
    5.1410   -5.3350    8.4540 C   0  0  0  0  0  0  0  0  0  0  0  0
    4.5620   -6.6110    8.5420 C   0  0  0  0  0  0  0  0  0  0  0  0
    5.4240   -7.7960    8.6470 N   0  0  0  0  0  0  0  0  0  0  0  0
    5.0080   -8.7610    9.2990 O   0  0  0  0  0  0  0  0  0  0  0  0
    6.5200   -7.7560    8.0700 O   0  0  0  0  0  0  0  0  0  0  0  0
    3.1710   -6.7750    8.5330 C   0  0  0  0  0  0  0  0  0  0  0  0
    2.3740   -5.6420    8.4310 C   0  0  0  0  0  0  0  0  0  0  0  0
    1.0070   -5.7260    8.4120 O   0  0  0  0  0  0  0  0  0  0  0  0
    2.9360   -4.3640    8.3430 C   0  0  0  0  0  0  0  0  0  0  0  0
    2.0710   -3.3030    8.2350 O   0  0  0  0  0  0  0  0  0  0  0  0
    6.4440   -3.4600    9.6100 H   0  0  0  0  0  0  0  0  0  0  0  0
    6.3335   -0.7138    8.4188 H   0  0  0  0  0  0  0  0  0  0  0  0
    6.7997   -1.0844   10.1007 H   0  0  0  0  0  0  0  0  0  0  0  0
    8.9544   -2.1222    9.3095 H   0  0  0  0  0  0  0  0  0  0  0  0
    8.0375   -0.6728    6.7764 H   0  0  0  0  0  0  0  0  0  0  0  0
   10.4951   -2.3014    7.3306 H   0  0  0  0  0  0  0  0  0  0  0  0
   12.1015   -1.2383    4.5483 H   0  0  0  0  0  0  0  0  0  0  0  0
   13.1377    1.3030    3.7543 H   0  0  0  0  0  0  0  0  0  0  0  0
    8.9954    3.6858    2.2187 H   0  0  0  0  0  0  0  0  0  0  0  0
    6.6964    0.8609    4.3310 H   0  0  0  0  0  0  0  0  0  0  0  0
   12.7931    0.6789    6.3655 H   0  0  0  0  0  0  0  0  0  0  0  0
   14.0120   -1.0000    6.5430 H   0  0  0  0  0  0  0  0  0  0  0  0
   10.5728    0.7602    7.5598 H   0  0  0  0  0  0  0  0  0  0  0  0
   10.8910   -0.0540    9.3880 H   0  0  0  0  0  0  0  0  0  0  0  0
    6.2358   -5.2281    8.4617 H   0  0  0  0  0  0  0  0  0  0  0  0
    2.7210   -7.7761    8.6049 H   0  0  0  0  0  0  0  0  0  0  0  0
    0.7190   -6.4010    9.0530 H   0  0  0  0  0  0  0  0  0  0  0  0
    2.0770   -2.8790    9.1210 H   0  0  0  0  0  0  0  0  0  0  0  0
  1  2  2  0
  2  3  1  0
  3  4  1  0
  4  5  1  0
  5  6  2  0
  6  7  1  0
  7  8  1  0
  8  9  1  0
  9 10  1  0
 10 11  1  0
 11 12  2  0
 12 13  1  0
 13 14  2  0
 14 15  1  0
 15 16  2  0
 16 17  1  0
 17 18  2  0
  9 19  1  0
 19 20  1  0
 19 21  1  0
 21 22  1  0
  2 23  1  0
 23 24  2  0
 24 25  1  0
 25 26  1  0
 26 27  2  0
 26 28  1  0
 25 29  2  0
 29 30  1  0
 30 31  1  0
 30 32  2  0
 32 33  1  0
 21  7  1  0
 32 23  1  0
 18 10  1  0
 18 13  1  0
  3 34  1  0
  4 35  1  0
  4 36  1  0
  5 37  1  0
  6 38  1  0
  7 39  1  1
  9 40  1  6
 11 41  1  0
 14 42  1  0
 16 43  1  0
 19 44  1  6
 20 45  1  0
 21 46  1  1
 22 47  1  0
 24 48  1  0
 29 49  1  0
 31 50  1  0
 33 51  1  0
M  CHG  2  26   1  28  -1
M  END
>  <meeko>  (3) 
{"is_sidechain": [false], "free_energy": -8.907, "intermolecular_energy": -13.461, "internal_energy": -0.337}

$$$$
3oe4_ligand
     RDKit          3D

 51 54  0  0  0  0  0  0  0  0999 V2000
    6.2850   -2.8660    7.8810 O   0  0  0  0  0  0  0  0  0  0  0  0
    5.2240   -2.9680    8.4880 C   0  0  0  0  0  0  0  0  0  0  0  0
    4.6680   -1.9330    9.1990 N   0  0  0  0  0  0  0  0  0  0  0  0
    5.2200   -0.6070    9.1390 C   0  0  0  0  0  0  0  0  0  0  0  0
    5.8860   -0.3300   10.4490 C   0  0  0  0  0  0  0  0  0  0  0  0
    6.9200   -1.0370   10.9390 C   0  0  0  0  0  0  0  0  0  0  0  0
    7.6250   -0.8040   12.2470 C   0  0  1  0  0  0  0  0  0  0  0  0
    8.2120    0.5090   12.2970 O   0  0  0  0  0  0  0  0  0  0  0  0
    8.1200    0.9870   13.6570 C   0  0  1  0  0  0  0  0  0  0  0  0
    7.4000    2.2450   13.6880 N   0  0  0  0  0  0  0  0  0  0  0  0
    6.8090    2.9140   12.6510 C   0  0  0  0  0  0  0  0  0  0  0  0
    6.2300    4.0280   13.0520 N   0  0  0  0  0  0  0  0  0  0  0  0
    6.4680    4.0850   14.4040 C   0  0  0  0  0  0  0  0  0  0  0  0
    6.1250    5.0040   15.3900 C   0  0  0  0  0  0  0  0  0  0  0  0
    6.5090    4.7770   16.6730 N   0  0  0  0  0  0  0  0  0  0  0  0
    7.2130    3.6540   16.9350 C   0  0  0  0  0  0  0  0  0  0  0  0
    7.6010    2.6910   16.0700 N   0  0  0  0  0  0  0  0  0  0  0  0
    7.1960    2.9820   14.8220 C   0  0  0  0  0  0  0  0  0  0  0  0
    7.4510   -0.1060   14.4980 C   0  0  2  0  0  0  0  0  0  0  0  0
    8.4260   -0.9840   15.0970 O   0  0  0  0  0  0  0  0  0  0  0  0
    6.6820   -0.8900   13.4500 C   0  0  2  0  0  0  0  0  0  0  0  0
    6.4320   -2.2260   13.8720 O   0  0  0  0  0  0  0  0  0  0  0  0
    4.4790   -4.2640    8.4710 C   0  0  0  0  0  0  0  0  0  0  0  0
    5.2410   -5.4460    8.5220 C   0  0  0  0  0  0  0  0  0  0  0  0
    4.6050   -6.6970    8.5110 C   0  0  0  0  0  0  0  0  0  0  0  0
    5.4120   -7.9240    8.5670 N   0  0  0  0  0  0  0  0  0  0  0  0
    5.8120   -8.3050    9.6730 O   0  0  0  0  0  0  0  0  0  0  0  0
    5.6420   -8.5040    7.4970 O   0  0  0  0  0  0  0  0  0  0  0  0
    3.2100   -6.7980    8.4460 C   0  0  0  0  0  0  0  0  0  0  0  0
    2.4650   -5.6270    8.3920 C   0  0  0  0  0  0  0  0  0  0  0  0
    1.0980   -5.6480    8.3230 O   0  0  0  0  0  0  0  0  0  0  0  0
    3.0840   -4.3710    8.4030 C   0  0  0  0  0  0  0  0  0  0  0  0
    2.2690   -3.2690    8.3350 O   0  0  0  0  0  0  0  0  0  0  0  0
    3.7130   -2.0520    9.5270 H   0  0  0  0  0  0  0  0  0  0  0  0
    5.9563   -0.5446    8.3242 H   0  0  0  0  0  0  0  0  0  0  0  0
    4.4273    0.1311    8.9470 H   0  0  0  0  0  0  0  0  0  0  0  0
    5.5050    0.5075   11.0518 H   0  0  0  0  0  0  0  0  0  0  0  0
    7.2870   -1.8695   10.3208 H   0  0  0  0  0  0  0  0  0  0  0  0
    8.3879   -1.5945   12.3024 H   0  0  0  0  0  0  0  0  0  0  0  0
    9.1144    1.1886   14.0819 H   0  0  0  0  0  0  0  0  0  0  0  0
    6.8163    2.5642   11.6081 H   0  0  0  0  0  0  0  0  0  0  0  0
    5.5488    5.9052   15.1335 H   0  0  0  0  0  0  0  0  0  0  0  0
    7.5073    3.5048   17.9843 H   0  0  0  0  0  0  0  0  0  0  0  0
    6.8465    0.3052   15.3199 H   0  0  0  0  0  0  0  0  0  0  0  0
    9.2810   -0.5130   15.0750 H   0  0  0  0  0  0  0  0  0  0  0  0
    5.6756   -0.5009   13.2362 H   0  0  0  0  0  0  0  0  0  0  0  0
    6.9230   -2.7960   13.2440 H   0  0  0  0  0  0  0  0  0  0  0  0
    6.3385   -5.3892    8.5706 H   0  0  0  0  0  0  0  0  0  0  0  0
    2.7161   -7.7808    8.4379 H   0  0  0  0  0  0  0  0  0  0  0  0
    0.7340   -5.0790    9.0270 H   0  0  0  0  0  0  0  0  0  0  0  0
    1.3690   -3.6280    8.1760 H   0  0  0  0  0  0  0  0  0  0  0  0
  1  2  2  0
  2  3  1  0
  3  4  1  0
  4  5  1  0
  5  6  2  0
  6  7  1  0
  7  8  1  0
  8  9  1  0
  9 10  1  0
 10 11  1  0
 11 12  2  0
 12 13  1  0
 13 14  2  0
 14 15  1  0
 15 16  2  0
 16 17  1  0
 17 18  2  0
  9 19  1  0
 19 20  1  0
 19 21  1  0
 21 22  1  0
  2 23  1  0
 23 24  2  0
 24 25  1  0
 25 26  1  0
 26 27  2  0
 26 28  1  0
 25 29  2  0
 29 30  1  0
 30 31  1  0
 30 32  2  0
 32 33  1  0
 21  7  1  0
 32 23  1  0
 18 10  1  0
 18 13  1  0
  3 34  1  0
  4 35  1  0
  4 36  1  0
  5 37  1  0
  6 38  1  0
  7 39  1  1
  9 40  1  1
 11 41  1  0
 14 42  1  0
 16 43  1  0
 19 44  1  1
 20 45  1  0
 21 46  1  6
 22 47  1  0
 24 48  1  0
 29 49  1  0
 31 50  1  0
 33 51  1  0
M  CHG  2  26   1  28  -1
M  END
>  <meeko>  (4) 
{"is_sidechain": [false], "free_energy": -8.457, "intermolecular_energy": -12.05, "internal_energy": -1.089}

$$$$
3oe4_ligand
     RDKit          3D

 51 54  0  0  0  0  0  0  0  0999 V2000
    4.6030   -1.9720    8.2970 O   0  0  0  0  0  0  0  0  0  0  0  0
    5.2060   -3.0370    8.2310 C   0  0  0  0  0  0  0  0  0  0  0  0
    6.5670   -3.1150    8.0640 N   0  0  0  0  0  0  0  0  0  0  0  0
    7.3930   -1.9400    8.1220 C   0  0  0  0  0  0  0  0  0  0  0  0
    7.6060   -1.6020    9.5620 C   0  0  0  0  0  0  0  0  0  0  0  0
    7.8970   -0.3700   10.0170 C   0  0  0  0  0  0  0  0  0  0  0  0
    8.1220    0.0260   11.4510 C   0  0  1  0  0  0  0  0  0  0  0  0
    9.2380    0.9240   11.5770 O   0  0  0  0  0  0  0  0  0  0  0  0
    8.9430    1.8580   12.6390 C   0  0  1  0  0  0  0  0  0  0  0  0
    9.0100    3.2150   12.1320 N   0  0  0  0  0  0  0  0  0  0  0  0
    8.8380    3.6540   10.8480 C   0  0  0  0  0  0  0  0  0  0  0  0
    8.9580    4.9630   10.7560 N   0  0  0  0  0  0  0  0  0  0  0  0
    9.2320    5.3840   12.0350 C   0  0  0  0  0  0  0  0  0  0  0  0
    9.4650    6.6370   12.5920 C   0  0  0  0  0  0  0  0  0  0  0  0
    9.7070    6.7380   13.9260 N   0  0  0  0  0  0  0  0  0  0  0  0
    9.7070    5.6020   14.6570 C   0  0  0  0  0  0  0  0  0  0  0  0
    9.4920    4.3360   14.2360 N   0  0  0  0  0  0  0  0  0  0  0  0
    9.2680    4.3100   12.9100 C   0  0  0  0  0  0  0  0  0  0  0  0
    7.5670    1.5010   13.2120 C   0  0  2  0  0  0  0  0  0  0  0  0
    7.6780    0.5930   14.3280 O   0  0  0  0  0  0  0  0  0  0  0  0
    6.9210    0.7580   12.0560 C   0  0  2  0  0  0  0  0  0  0  0  0
    5.8940   -0.1200   12.5030 O   0  0  0  0  0  0  0  0  0  0  0  0
    4.4550   -4.3250    8.3330 C   0  0  0  0  0  0  0  0  0  0  0  0
    5.2130   -5.5080    8.4160 C   0  0  0  0  0  0  0  0  0  0  0  0
    4.5720   -6.7530    8.5160 C   0  0  0  0  0  0  0  0  0  0  0  0
    5.3750   -7.9800    8.6040 N   0  0  0  0  0  0  0  0  0  0  0  0
    4.8970   -8.9440    9.2130 O   0  0  0  0  0  0  0  0  0  0  0  0
    6.4880   -7.9730    8.0590 O   0  0  0  0  0  0  0  0  0  0  0  0
    3.1750   -6.8460    8.5320 C   0  0  0  0  0  0  0  0  0  0  0  0
    2.4340   -5.6740    8.4460 C   0  0  0  0  0  0  0  0  0  0  0  0
    1.0650   -5.6890    8.4520 O   0  0  0  0  0  0  0  0  0  0  0  0
    3.0580   -4.4260    8.3470 C   0  0  0  0  0  0  0  0  0  0  0  0
    2.2450   -3.3230    8.2550 O   0  0  0  0  0  0  0  0  0  0  0  0
    7.0020   -4.0260    8.1900 H   0  0  0  0  0  0  0  0  0  0  0  0
    8.3603   -2.1382    7.6371 H   0  0  0  0  0  0  0  0  0  0  0  0
    6.9078   -1.1030    7.5986 H   0  0  0  0  0  0  0  0  0  0  0  0
    7.5191   -2.4143   10.2986 H   0  0  0  0  0  0  0  0  0  0  0  0
    7.9787    0.4285    9.2648 H   0  0  0  0  0  0  0  0  0  0  0  0
    8.3001   -0.9210   11.9816 H   0  0  0  0  0  0  0  0  0  0  0  0
    9.6824    1.7937   13.4509 H   0  0  0  0  0  0  0  0  0  0  0  0
    8.6250    2.9935    9.9945 H   0  0  0  0  0  0  0  0  0  0  0  0
    9.4536    7.5370   11.9597 H   0  0  0  0  0  0  0  0  0  0  0  0
    9.9075    5.7229   15.7318 H   0  0  0  0  0  0  0  0  0  0  0  0
    7.0193    2.3841   13.5727 H   0  0  0  0  0  0  0  0  0  0  0  0
    8.6310    0.4700   14.4970 H   0  0  0  0  0  0  0  0  0  0  0  0
    6.4013    1.4027   11.3319 H   0  0  0  0  0  0  0  0  0  0  0  0
    5.0510    0.3180   12.2630 H   0  0  0  0  0  0  0  0  0  0  0  0
    6.3117   -5.4569    8.4025 H   0  0  0  0  0  0  0  0  0  0  0  0
    2.6763   -7.8233    8.6107 H   0  0  0  0  0  0  0  0  0  0  0  0
    0.7530   -6.5770    8.1980 H   0  0  0  0  0  0  0  0  0  0  0  0
    2.3140   -2.8840    9.1310 H   0  0  0  0  0  0  0  0  0  0  0  0
  1  2  2  0
  2  3  1  0
  3  4  1  0
  4  5  1  0
  5  6  2  0
  6  7  1  0
  7  8  1  0
  8  9  1  0
  9 10  1  0
 10 11  1  0
 11 12  2  0
 12 13  1  0
 13 14  2  0
 14 15  1  0
 15 16  2  0
 16 17  1  0
 17 18  2  0
  9 19  1  0
 19 20  1  0
 19 21  1  0
 21 22  1  0
  2 23  1  0
 23 24  2  0
 24 25  1  0
 25 26  1  0
 26 27  2  0
 26 28  1  0
 25 29  2  0
 29 30  1  0
 30 31  1  0
 30 32  2  0
 32 33  1  0
 21  7  1  0
 32 23  1  0
 18 10  1  0
 18 13  1  0
  3 34  1  0
  4 35  1  0
  4 36  1  0
  5 37  1  0
  6 38  1  0
  7 39  1  1
  9 40  1  1
 11 41  1  0
 14 42  1  0
 16 43  1  0
 19 44  1  1
 20 45  1  0
 21 46  1  6
 22 47  1  0
 24 48  1  0
 29 49  1  0
 31 50  1  0
 33 51  1  0
M  CHG  2  26   1  28  -1
M  END
>  <meeko>  (5) 
{"is_sidechain": [false], "free_energy": -8.414, "intermolecular_energy": -12.003, "internal_energy": -1.071}

$$$$
3oe4_ligand
     RDKit          3D

 51 54  0  0  0  0  0  0  0  0999 V2000
    4.6230   -2.0410    7.7340 O   0  0  0  0  0  0  0  0  0  0  0  0
    5.2280   -3.0600    8.0480 C   0  0  0  0  0  0  0  0  0  0  0  0
    6.5890   -3.0940    8.2300 N   0  0  0  0  0  0  0  0  0  0  0  0
    7.3720   -1.8880    8.2240 C   0  0  0  0  0  0  0  0  0  0  0  0
    7.2270   -1.2430    9.5650 C   0  0  0  0  0  0  0  0  0  0  0  0
    6.5700   -0.0910    9.7860 C   0  0  0  0  0  0  0  0  0  0  0  0
    6.3950    0.6020   11.1100 C   0  0  1  0  0  0  0  0  0  0  0  0
    6.0560   -0.3350   12.1480 O   0  0  0  0  0  0  0  0  0  0  0  0
    6.6740    0.1140   13.3740 C   0  0  1  0  0  0  0  0  0  0  0  0
    7.5340   -0.9270   13.9010 N   0  0  0  0  0  0  0  0  0  0  0  0
    8.9000   -0.9880   13.8940 C   0  0  0  0  0  0  0  0  0  0  0  0
    9.3460   -2.0840   14.4740 N   0  0  0  0  0  0  0  0  0  0  0  0
    8.2170   -2.7650   14.8620 C   0  0  0  0  0  0  0  0  0  0  0  0
    8.0170   -3.9760   15.5150 C   0  0  0  0  0  0  0  0  0  0  0  0
    6.7490   -4.3920   15.7700 N   0  0  0  0  0  0  0  0  0  0  0  0
    5.7300   -3.5980   15.3760 C   0  0  0  0  0  0  0  0  0  0  0  0
    5.7960   -2.4060   14.7420 N   0  0  0  0  0  0  0  0  0  0  0  0
    7.0750   -2.0610   14.5140 C   0  0  0  0  0  0  0  0  0  0  0  0
    7.4260    1.4160   13.0750 C   0  0  2  0  0  0  0  0  0  0  0  0
    6.5980    2.5730   13.3170 O   0  0  0  0  0  0  0  0  0  0  0  0
    7.6690    1.3080   11.5800 C   0  0  2  0  0  0  0  0  0  0  0  0
    7.8540    2.5870   10.9840 O   0  0  0  0  0  0  0  0  0  0  0  0
    4.4790   -4.3380    8.2490 C   0  0  0  0  0  0  0  0  0  0  0  0
    5.2400   -5.5120    8.4020 C   0  0  0  0  0  0  0  0  0  0  0  0
    4.6010   -6.7470    8.5950 C   0  0  0  0  0  0  0  0  0  0  0  0
    5.4060   -7.9660    8.7570 N   0  0  0  0  0  0  0  0  0  0  0  0
    6.4420   -8.0690    8.0900 O   0  0  0  0  0  0  0  0  0  0  0  0
    4.9940   -8.8190    9.5560 O   0  0  0  0  0  0  0  0  0  0  0  0
    3.2040   -6.8390    8.6370 C   0  0  0  0  0  0  0  0  0  0  0  0
    2.4610   -5.6760    8.4810 C   0  0  0  0  0  0  0  0  0  0  0  0
    1.0920   -5.6900    8.5060 O   0  0  0  0  0  0  0  0  0  0  0  0
    3.0830   -4.4370    8.2880 C   0  0  0  0  0  0  0  0  0  0  0  0
    2.2680   -3.3430    8.1320 O   0  0  0  0  0  0  0  0  0  0  0  0
    6.9830   -3.9320    8.6520 H   0  0  0  0  0  0  0  0  0  0  0  0
    8.4289   -2.1288    8.0368 H   0  0  0  0  0  0  0  0  0  0  0  0
    7.0257   -1.2087    7.4312 H   0  0  0  0  0  0  0  0  0  0  0  0
    7.6886   -1.7444   10.4284 H   0  0  0  0  0  0  0  0  0  0  0  0
    6.1143    0.3940    8.9102 H   0  0  0  0  0  0  0  0  0  0  0  0
    5.5918    1.3347   10.9427 H   0  0  0  0  0  0  0  0  0  0  0  0
    5.9238    0.3195   14.1518 H   0  0  0  0  0  0  0  0  0  0  0  0
    9.5488   -0.2149   13.4566 H   0  0  0  0  0  0  0  0  0  0  0  0
    8.8761   -4.5907   15.8219 H   0  0  0  0  0  0  0  0  0  0  0  0
    4.7185   -3.9681   15.5993 H   0  0  0  0  0  0  0  0  0  0  0  0
    8.3271    1.5343   13.6947 H   0  0  0  0  0  0  0  0  0  0  0  0
    7.1250    3.1860   13.8640 H   0  0  0  0  0  0  0  0  0  0  0  0
    8.5864    0.7670   11.3049 H   0  0  0  0  0  0  0  0  0  0  0  0
    8.7540    2.5680   10.5950 H   0  0  0  0  0  0  0  0  0  0  0  0
    6.3384   -5.4617    8.3703 H   0  0  0  0  0  0  0  0  0  0  0  0
    2.7075   -7.8086    8.7898 H   0  0  0  0  0  0  0  0  0  0  0  0
    0.7900   -6.4030    9.0980 H   0  0  0  0  0  0  0  0  0  0  0  0
    1.4980   -3.5140    8.7170 H   0  0  0  0  0  0  0  0  0  0  0  0
  1  2  2  0
  2  3  1  0
  3  4  1  0
  4  5  1  0
  5  6  2  0
  6  7  1  0
  7  8  1  0
  8  9  1  0
  9 10  1  0
 10 11  1  0
 11 12  2  0
 12 13  1  0
 13 14  2  0
 14 15  1  0
 15 16  2  0
 16 17  1  0
 17 18  2  0
  9 19  1  0
 19 20  1  0
 19 21  1  0
 21 22  1  0
  2 23  1  0
 23 24  2  0
 24 25  1  0
 25 26  1  0
 26 27  2  0
 26 28  1  0
 25 29  2  0
 29 30  1  0
 30 31  1  0
 30 32  2  0
 32 33  1  0
 21  7  1  0
 32 23  1  0
 18 10  1  0
 18 13  1  0
  3 34  1  0
  4 35  1  0
  4 36  1  0
  5 37  1  0
  6 38  1  0
  7 39  1  6
  9 40  1  1
 11 41  1  0
 14 42  1  0
 16 43  1  0
 19 44  1  1
 20 45  1  0
 21 46  1  1
 22 47  1  0
 24 48  1  0
 29 49  1  0
 31 50  1  0
 33 51  1  0
M  CHG  2  26   1  28  -1
M  END
>  <meeko>  (6) 
{"is_sidechain": [false], "free_energy": -8.405, "intermolecular_energy": -11.819, "internal_energy": -1.242}

$$$$
3oe4_ligand
     RDKit          3D

 51 54  0  0  0  0  0  0  0  0999 V2000
    6.3730   -2.9010    7.8840 O   0  0  0  0  0  0  0  0  0  0  0  0
    5.2940   -2.9810    8.4610 C   0  0  0  0  0  0  0  0  0  0  0  0
    4.7310   -1.9290    9.1410 N   0  0  0  0  0  0  0  0  0  0  0  0
    5.3030   -0.6110    9.0790 C   0  0  0  0  0  0  0  0  0  0  0  0
    5.7290   -0.2330   10.4610 C   0  0  0  0  0  0  0  0  0  0  0  0
    6.3110   -1.0760   11.3330 C   0  0  0  0  0  0  0  0  0  0  0  0
    6.7580   -0.7500   12.7320 C   0  0  1  0  0  0  0  0  0  0  0  0
    5.8690   -1.3190   13.7100 O   0  0  0  0  0  0  0  0  0  0  0  0
    6.6570   -1.7120   14.8550 C   0  0  1  0  0  0  0  0  0  0  0  0
    6.4670   -3.1250   15.1190 N   0  0  0  0  0  0  0  0  0  0  0  0
    7.1710   -4.1870   14.6210 C   0  0  0  0  0  0  0  0  0  0  0  0
    6.7260   -5.3350   15.0910 N   0  0  0  0  0  0  0  0  0  0  0  0
    5.6820   -4.9990   15.9190 C   0  0  0  0  0  0  0  0  0  0  0  0
    4.8120   -5.7500   16.7010 C   0  0  0  0  0  0  0  0  0  0  0  0
    3.8610   -5.1140   17.4360 N   0  0  0  0  0  0  0  0  0  0  0  0
    3.8070   -3.7660   17.3730 C   0  0  0  0  0  0  0  0  0  0  0  0
    4.5940   -2.9310   16.6580 N   0  0  0  0  0  0  0  0  0  0  0  0
    5.5040   -3.6250   15.9520 C   0  0  0  0  0  0  0  0  0  0  0  0
    8.1190   -1.3480   14.5700 C   0  0  2  0  0  0  0  0  0  0  0  0
    8.4430   -0.0330   15.0650 O   0  0  0  0  0  0  0  0  0  0  0  0
    8.1480   -1.3070   13.0520 C   0  0  2  0  0  0  0  0  0  0  0  0
    9.2060   -0.4880   12.5680 O   0  0  0  0  0  0  0  0  0  0  0  0
    4.5330   -4.2670    8.4400 C   0  0  0  0  0  0  0  0  0  0  0  0
    5.2810   -5.4580    8.4510 C   0  0  0  0  0  0  0  0  0  0  0  0
    4.6290   -6.7020    8.4340 C   0  0  0  0  0  0  0  0  0  0  0  0
    5.4220   -7.9390    8.4480 N   0  0  0  0  0  0  0  0  0  0  0  0
    5.6360   -8.5030    7.3690 O   0  0  0  0  0  0  0  0  0  0  0  0
    5.8290   -8.3420    9.5470 O   0  0  0  0  0  0  0  0  0  0  0  0
    3.2310   -6.7840    8.4020 C   0  0  0  0  0  0  0  0  0  0  0  0
    2.5010   -5.6030    8.3870 C   0  0  0  0  0  0  0  0  0  0  0  0
    1.1310   -5.6070    8.3520 O   0  0  0  0  0  0  0  0  0  0  0  0
    3.1350   -4.3560    8.4050 C   0  0  0  0  0  0  0  0  0  0  0  0
    2.3320   -3.2430    8.3770 O   0  0  0  0  0  0  0  0  0  0  0  0
    3.7650   -2.0300    9.4420 H   0  0  0  0  0  0  0  0  0  0  0  0
    6.1732   -0.6119    8.4062 H   0  0  0  0  0  0  0  0  0  0  0  0
    4.5672    0.1097    8.6928 H   0  0  0  0  0  0  0  0  0  0  0  0
    5.5551    0.8032   10.7866 H   0  0  0  0  0  0  0  0  0  0  0  0
    6.4767   -2.1074   10.9884 H   0  0  0  0  0  0  0  0  0  0  0  0
    6.7661    0.3490   12.7785 H   0  0  0  0  0  0  0  0  0  0  0  0
    6.3407   -1.1808   15.7648 H   0  0  0  0  0  0  0  0  0  0  0  0
    8.0080   -4.0939   13.9133 H   0  0  0  0  0  0  0  0  0  0  0  0
    4.8920   -6.8468   16.7250 H   0  0  0  0  0  0  0  0  0  0  0  0
    3.0243   -3.2873   17.9797 H   0  0  0  0  0  0  0  0  0  0  0  0
    8.8266   -2.0475   15.0389 H   0  0  0  0  0  0  0  0  0  0  0  0
    8.5800   -0.1200   16.0280 H   0  0  0  0  0  0  0  0  0  0  0  0
    8.3430   -2.2778   12.5729 H   0  0  0  0  0  0  0  0  0  0  0  0
    9.0440   -0.3890   11.6070 H   0  0  0  0  0  0  0  0  0  0  0  0
    6.3799   -5.4151    8.4730 H   0  0  0  0  0  0  0  0  0  0  0  0
    2.7239   -7.7601    8.3891 H   0  0  0  0  0  0  0  0  0  0  0  0
    0.7990   -6.3350    8.9090 H   0  0  0  0  0  0  0  0  0  0  0  0
    1.5150   -3.5310    7.9160 H   0  0  0  0  0  0  0  0  0  0  0  0
  1  2  2  0
  2  3  1  0
  3  4  1  0
  4  5  1  0
  5  6  2  0
  6  7  1  0
  7  8  1  0
  8  9  1  0
  9 10  1  0
 10 11  1  0
 11 12  2  0
 12 13  1  0
 13 14  2  0
 14 15  1  0
 15 16  2  0
 16 17  1  0
 17 18  2  0
  9 19  1  0
 19 20  1  0
 19 21  1  0
 21 22  1  0
  2 23  1  0
 23 24  2  0
 24 25  1  0
 25 26  1  0
 26 27  2  0
 26 28  1  0
 25 29  2  0
 29 30  1  0
 30 31  1  0
 30 32  2  0
 32 33  1  0
 21  7  1  0
 32 23  1  0
 18 10  1  0
 18 13  1  0
  3 34  1  0
  4 35  1  0
  4 36  1  0
  5 37  1  0
  6 38  1  0
  7 39  1  6
  9 40  1  1
 11 41  1  0
 14 42  1  0
 16 43  1  0
 19 44  1  1
 20 45  1  0
 21 46  1  6
 22 47  1  0
 24 48  1  0
 29 49  1  0
 31 50  1  0
 33 51  1  0
M  CHG  2  26   1  28  -1
M  END
>  <meeko>  (7) 
{"is_sidechain": [false], "free_energy": -8.226, "intermolecular_energy": -11.569, "internal_energy": -1.231}

$$$$
3oe4_ligand
     RDKit          3D

 51 54  0  0  0  0  0  0  0  0999 V2000
    5.2850   -1.7960    9.5480 O   0  0  0  0  0  0  0  0  0  0  0  0
    5.7540   -2.6700    8.8280 C   0  0  0  0  0  0  0  0  0  0  0  0
    7.0150   -2.5960    8.2880 N   0  0  0  0  0  0  0  0  0  0  0  0
    7.9280   -1.5540    8.6700 C   0  0  0  0  0  0  0  0  0  0  0  0
    8.8290   -1.2870    7.5080 C   0  0  0  0  0  0  0  0  0  0  0  0
    9.4970   -0.1360    7.3130 C   0  0  0  0  0  0  0  0  0  0  0  0
   10.4130    0.1850    6.1640 C   0  0  1  0  0  0  0  0  0  0  0  0
   11.7950    0.0630    6.5480 O   0  0  0  0  0  0  0  0  0  0  0  0
   12.5330   -0.4310    5.4080 C   0  0  1  0  0  0  0  0  0  0  0  0
   13.2160   -1.6600    5.7610 N   0  0  0  0  0  0  0  0  0  0  0  0
   13.3850   -2.7880    5.0060 C   0  0  0  0  0  0  0  0  0  0  0  0
   14.0730   -3.7110    5.6490 N   0  0  0  0  0  0  0  0  0  0  0  0
   14.3480   -3.1580    6.8760 C   0  0  0  0  0  0  0  0  0  0  0  0
   15.0310   -3.6230    7.9950 C   0  0  0  0  0  0  0  0  0  0  0  0
   15.1450   -2.8200    9.0850 N   0  0  0  0  0  0  0  0  0  0  0  0
   14.5850   -1.5920    9.0300 C   0  0  0  0  0  0  0  0  0  0  0  0
   13.9040   -1.0290    8.0070 N   0  0  0  0  0  0  0  0  0  0  0  0
   13.8230   -1.8780    6.9680 C   0  0  0  0  0  0  0  0  0  0  0  0
   11.5460   -0.6080    4.2480 C   0  0  2  0  0  0  0  0  0  0  0  0
   11.4810    0.5750    3.4250 O   0  0  0  0  0  0  0  0  0  0  0  0
   10.2210   -0.7580    4.9740 C   0  0  2  0  0  0  0  0  0  0  0  0
    9.1230   -0.3970    4.1440 O   0  0  0  0  0  0  0  0  0  0  0  0
    4.9430   -3.8840    8.5070 C   0  0  0  0  0  0  0  0  0  0  0  0
    5.6430   -5.0840    8.2800 C   0  0  0  0  0  0  0  0  0  0  0  0
    4.9440   -6.2620    7.9750 C   0  0  0  0  0  0  0  0  0  0  0  0
    5.6860   -7.5090    7.7430 N   0  0  0  0  0  0  0  0  0  0  0  0
    5.1970   -8.5630    8.1680 O   0  0  0  0  0  0  0  0  0  0  0  0
    6.7600   -7.4270    7.1310 O   0  0  0  0  0  0  0  0  0  0  0  0
    3.5460   -6.2700    7.8860 C   0  0  0  0  0  0  0  0  0  0  0  0
    2.8640   -5.0810    8.1070 C   0  0  0  0  0  0  0  0  0  0  0  0
    1.4980   -5.0130    8.0330 O   0  0  0  0  0  0  0  0  0  0  0  0
    3.5460   -3.8980    8.4130 C   0  0  0  0  0  0  0  0  0  0  0  0
    2.7900   -2.7690    8.6050 O   0  0  0  0  0  0  0  0  0  0  0  0
    7.3840   -3.4350    7.8470 H   0  0  0  0  0  0  0  0  0  0  0  0
    7.3688   -0.6423    8.9271 H   0  0  0  0  0  0  0  0  0  0  0  0
    8.5148   -1.8604    9.5485 H   0  0  0  0  0  0  0  0  0  0  0  0
    8.9543   -2.0856    6.7619 H   0  0  0  0  0  0  0  0  0  0  0  0
    9.3595    0.6499    8.0703 H   0  0  0  0  0  0  0  0  0  0  0  0
   10.1586    1.2164    5.8785 H   0  0  0  0  0  0  0  0  0  0  0  0
   13.3128    0.2781    5.0932 H   0  0  0  0  0  0  0  0  0  0  0  0
   12.9940   -2.9104    3.9852 H   0  0  0  0  0  0  0  0  0  0  0  0
   15.4740   -4.6299    7.9974 H   0  0  0  0  0  0  0  0  0  0  0  0
   14.6973   -0.9718    9.9315 H   0  0  0  0  0  0  0  0  0  0  0  0
   11.8193   -1.4425    3.5855 H   0  0  0  0  0  0  0  0  0  0  0  0
   10.5380    0.7250    3.2210 H   0  0  0  0  0  0  0  0  0  0  0  0
    9.9801   -1.7880    5.2759 H   0  0  0  0  0  0  0  0  0  0  0  0
    9.1080   -1.0630    3.4250 H   0  0  0  0  0  0  0  0  0  0  0  0
    6.7412   -5.0984    8.3419 H   0  0  0  0  0  0  0  0  0  0  0  0
    3.0019   -7.1956    7.6469 H   0  0  0  0  0  0  0  0  0  0  0  0
    1.1930   -5.5320    7.2670 H   0  0  0  0  0  0  0  0  0  0  0  0
    1.9450   -2.9460    8.1380 H   0  0  0  0  0  0  0  0  0  0  0  0
  1  2  2  0
  2  3  1  0
  3  4  1  0
  4  5  1  0
  5  6  2  0
  6  7  1  0
  7  8  1  0
  8  9  1  0
  9 10  1  0
 10 11  1  0
 11 12  2  0
 12 13  1  0
 13 14  2  0
 14 15  1  0
 15 16  2  0
 16 17  1  0
 17 18  2  0
  9 19  1  0
 19 20  1  0
 19 21  1  0
 21 22  1  0
  2 23  1  0
 23 24  2  0
 24 25  1  0
 25 26  1  0
 26 27  2  0
 26 28  1  0
 25 29  2  0
 29 30  1  0
 30 31  1  0
 30 32  2  0
 32 33  1  0
 21  7  1  0
 32 23  1  0
 18 10  1  0
 18 13  1  0
  3 34  1  0
  4 35  1  0
  4 36  1  0
  5 37  1  0
  6 38  1  0
  7 39  1  6
  9 40  1  6
 11 41  1  0
 14 42  1  0
 16 43  1  0
 19 44  1  6
 20 45  1  0
 21 46  1  1
 22 47  1  0
 24 48  1  0
 29 49  1  0
 31 50  1  0
 33 51  1  0
M  CHG  2  26   1  28  -1
M  END
>  <meeko>  (8) 
{"is_sidechain": [false], "free_energy": -8.183, "intermolecular_energy": -12.023, "internal_energy": -0.712}

$$$$
3oe4_ligand
     RDKit          3D

 51 54  0  0  0  0  0  0  0  0999 V2000
    6.2520   -2.4900    7.7320 O   0  0  0  0  0  0  0  0  0  0  0  0
    5.1630   -2.6010    8.2850 C   0  0  0  0  0  0  0  0  0  0  0  0
    4.5090   -1.5420    8.8650 N   0  0  0  0  0  0  0  0  0  0  0  0
    4.9910   -0.1950    8.7140 C   0  0  0  0  0  0  0  0  0  0  0  0
    5.8300    0.1250    9.9090 C   0  0  0  0  0  0  0  0  0  0  0  0
    5.3560    0.6620   11.0470 C   0  0  0  0  0  0  0  0  0  0  0  0
    6.1530    1.0050   12.2760 C   0  0  1  0  0  0  0  0  0  0  0  0
    7.0500   -0.0620   12.6310 O   0  0  0  0  0  0  0  0  0  0  0  0
    8.2530    0.5270   13.1740 C   0  0  1  0  0  0  0  0  0  0  0  0
    9.4030    0.0870   12.4080 N   0  0  0  0  0  0  0  0  0  0  0  0
    9.4880   -0.1630   11.0660 C   0  0  0  0  0  0  0  0  0  0  0  0
   10.7010   -0.5370   10.7130 N   0  0  0  0  0  0  0  0  0  0  0  0
   11.4260   -0.5400   11.8800 C   0  0  0  0  0  0  0  0  0  0  0  0
   12.7510   -0.8420   12.1730 C   0  0  0  0  0  0  0  0  0  0  0  0
   13.1880   -0.7440   13.4560 N   0  0  0  0  0  0  0  0  0  0  0  0
   12.3040   -0.3490   14.3980 C   0  0  0  0  0  0  0  0  0  0  0  0
   11.0010   -0.0260   14.2380 N   0  0  0  0  0  0  0  0  0  0  0  0
   10.6360   -0.1530   12.9510 C   0  0  0  0  0  0  0  0  0  0  0  0
    8.0760    2.0500   13.1660 C   0  0  2  0  0  0  0  0  0  0  0  0
    7.5340    2.5260   14.4150 O   0  0  0  0  0  0  0  0  0  0  0  0
    7.0280    2.2460   12.0850 C   0  0  2  0  0  0  0  0  0  0  0  0
    6.3170    3.4670   12.2570 O   0  0  0  0  0  0  0  0  0  0  0  0
    4.4920   -3.9350    8.3460 C   0  0  0  0  0  0  0  0  0  0  0  0
    5.3210   -5.0700    8.4110 C   0  0  0  0  0  0  0  0  0  0  0  0
    4.7570   -6.3540    8.4710 C   0  0  0  0  0  0  0  0  0  0  0  0
    5.6330   -7.5320    8.5400 N   0  0  0  0  0  0  0  0  0  0  0  0
    5.4140   -8.3670    9.4250 O   0  0  0  0  0  0  0  0  0  0  0  0
    6.5420   -7.6150    7.7020 O   0  0  0  0  0  0  0  0  0  0  0  0
    3.3680   -6.5330    8.4650 C   0  0  0  0  0  0  0  0  0  0  0  0
    2.5570   -5.4080    8.3970 C   0  0  0  0  0  0  0  0  0  0  0  0
    1.1910   -5.5070    8.3840 O   0  0  0  0  0  0  0  0  0  0  0  0
    3.1040   -4.1220    8.3380 C   0  0  0  0  0  0  0  0  0  0  0  0
    2.2260   -3.0690    8.2620 O   0  0  0  0  0  0  0  0  0  0  0  0
    3.5430   -1.6870    9.1480 H   0  0  0  0  0  0  0  0  0  0  0  0
    5.5962   -0.1142    7.7990 H   0  0  0  0  0  0  0  0  0  0  0  0
    4.1491    0.5085    8.6353 H   0  0  0  0  0  0  0  0  0  0  0  0
    6.9067   -0.0933    9.8538 H   0  0  0  0  0  0  0  0  0  0  0  0
    4.2768    0.8716   11.0830 H   0  0  0  0  0  0  0  0  0  0  0  0
    5.4023    1.1842   13.0598 H   0  0  0  0  0  0  0  0  0  0  0  0
    8.4295    0.2050   14.2109 H   0  0  0  0  0  0  0  0  0  0  0  0
    8.6454   -0.0638   10.3659 H   0  0  0  0  0  0  0  0  0  0  0  0
   13.4387   -1.1571   11.3744 H   0  0  0  0  0  0  0  0  0  0  0  0
   12.6934   -0.2817   15.4246 H   0  0  0  0  0  0  0  0  0  0  0  0
    9.0249    2.5832   13.0071 H   0  0  0  0  0  0  0  0  0  0  0  0
    8.2890    2.6440   15.0230 H   0  0  0  0  0  0  0  0  0  0  0  0
    7.4334    2.3334   11.0662 H   0  0  0  0  0  0  0  0  0  0  0  0
    7.0030    4.1620   12.3350 H   0  0  0  0  0  0  0  0  0  0  0  0
    6.4145   -4.9508    8.4148 H   0  0  0  0  0  0  0  0  0  0  0  0
    2.9299   -7.5409    8.5130 H   0  0  0  0  0  0  0  0  0  0  0  0
    0.9390   -6.4480    8.3530 H   0  0  0  0  0  0  0  0  0  0  0  0
    1.7470   -3.1980    7.4140 H   0  0  0  0  0  0  0  0  0  0  0  0
  1  2  2  0
  2  3  1  0
  3  4  1  0
  4  5  1  0
  5  6  2  0
  6  7  1  0
  7  8  1  0
  8  9  1  0
  9 10  1  0
 10 11  1  0
 11 12  2  0
 12 13  1  0
 13 14  2  0
 14 15  1  0
 15 16  2  0
 16 17  1  0
 17 18  2  0
  9 19  1  0
 19 20  1  0
 19 21  1  0
 21 22  1  0
  2 23  1  0
 23 24  2  0
 24 25  1  0
 25 26  1  0
 26 27  2  0
 26 28  1  0
 25 29  2  0
 29 30  1  0
 30 31  1  0
 30 32  2  0
 32 33  1  0
 21  7  1  0
 32 23  1  0
 18 10  1  0
 18 13  1  0
  3 34  1  0
  4 35  1  0
  4 36  1  0
  5 37  1  0
  6 38  1  0
  7 39  1  1
  9 40  1  1
 11 41  1  0
 14 42  1  0
 16 43  1  0
 19 44  1  6
 20 45  1  0
 21 46  1  6
 22 47  1  0
 24 48  1  0
 29 49  1  0
 31 50  1  0
 33 51  1  0
M  CHG  2  26   1  28  -1
M  END
>  <meeko>  (9) 
{"is_sidechain": [false], "free_energy": -8.052, "intermolecular_energy": -11.369, "internal_energy": -1.175}

$$$$
