2j78_ligand
     RDKit          3D

 25 25  0  0  0  0  0  0  0  0999 V2000
    7.8930    8.0150   -0.8640 O   0  0  0  0  0  0  0  0  0  0  0  0
    6.5700    7.7630   -1.3280 C   0  0  0  0  0  0  0  0  0  0  0  0
    5.7830    9.0670   -1.5480 C   0  0  1  0  0  0  0  0  0  0  0  0
    5.5640    9.7540   -0.2800 N   0  0  0  0  0  0  0  0  0  0  0  0
    5.0790   11.0480   -0.2340 C   0  0  0  0  0  0  0  0  0  0  0  0
    4.3350   11.4750    0.7460 N   0  0  0  0  0  0  0  0  0  0  0  0
    4.0760   10.4470    1.6690 O   0  0  0  0  0  0  0  0  0  0  0  0
    5.4870   12.0320   -1.3550 C   0  0  2  0  0  0  0  0  0  0  0  0
    4.5910   13.1200   -1.5550 O   0  0  0  0  0  0  0  0  0  0  0  0
    5.6300   11.2810   -2.6850 C   0  0  1  0  0  0  0  0  0  0  0  0
    6.2330   12.1600   -3.6580 O   0  0  0  0  0  0  0  0  0  0  0  0
    6.4840   10.0180   -2.5350 C   0  0  2  0  0  0  0  0  0  0  0  0
    6.6330    9.4200   -3.8320 O   0  0  0  0  0  0  0  0  0  0  0  0
    7.8190    8.4100    0.0240 H   0  0  0  0  0  0  0  0  0  0  0  0
    6.6251    7.2154   -2.2804 H   0  0  0  0  0  0  0  0  0  0  0  0
    6.0459    7.1726   -0.5620 H   0  0  0  0  0  0  0  0  0  0  0  0
    4.8160    8.7812   -1.9875 H   0  0  0  0  0  0  0  0  0  0  0  0
    5.1310    9.2020    0.4580 H   0  0  0  0  0  0  0  0  0  0  0  0
    4.9490   10.3390    2.0900 H   0  0  0  0  0  0  0  0  0  0  0  0
    6.4412   12.4633   -1.0180 H   0  0  0  0  0  0  0  0  0  0  0  0
    4.9230   13.8340   -0.9780 H   0  0  0  0  0  0  0  0  0  0  0  0
    4.6280   10.9696   -3.0152 H   0  0  0  0  0  0  0  0  0  0  0  0
    6.8570   12.7090   -3.1400 H   0  0  0  0  0  0  0  0  0  0  0  0
    7.4840   10.2487   -2.1390 H   0  0  0  0  0  0  0  0  0  0  0  0
    6.6370   10.1610   -4.4680 H   0  0  0  0  0  0  0  0  0  0  0  0
  1  2  1  0
  2  3  1  0
  3  4  1  0
  4  5  1  0
  5  6  2  0
  6  7  1  0
  5  8  1  0
  8  9  1  0
  8 10  1  0
 10 11  1  0
 10 12  1  0
 12 13  1  0
 12  3  1  0
  1 14  1  0
  2 15  1  0
  2 16  1  0
  3 17  1  6
  4 18  1  0
  7 19  1  0
  8 20  1  1
  9 21  1  0
 10 22  1  6
 11 23  1  0
 12 24  1  1
 13 25  1  0
M  END
>  <meeko>  (1) 
{"is_sidechain": [false], "free_energy": -6.401, "intermolecular_energy": -7.71, "internal_energy": -0.068}

$$$$
2j78_ligand
     RDKit          3D

 25 25  0  0  0  0  0  0  0  0999 V2000
    4.0410   10.5300    1.5740 O   0  0  0  0  0  0  0  0  0  0  0  0
    4.8040   11.4510    0.7980 C   0  0  0  0  0  0  0  0  0  0  0  0
    5.1150   10.8960   -0.6030 C   0  0  1  0  0  0  0  0  0  0  0  0
    5.7880    9.6050   -0.5060 N   0  0  0  0  0  0  0  0  0  0  0  0
    5.9740    8.8030   -1.6160 C   0  0  0  0  0  0  0  0  0  0  0  0
    7.0030    8.0140   -1.7370 N   0  0  0  0  0  0  0  0  0  0  0  0
    7.8710    8.1450   -0.6390 O   0  0  0  0  0  0  0  0  0  0  0  0
    4.8910    8.8030   -2.7200 C   0  0  2  0  0  0  0  0  0  0  0  0
    5.3470    8.4080   -4.0100 O   0  0  0  0  0  0  0  0  0  0  0  0
    4.2650   10.1980   -2.8410 C   0  0  1  0  0  0  0  0  0  0  0  0
    3.1080   10.1210   -3.6990 O   0  0  0  0  0  0  0  0  0  0  0  0
    3.8540   10.7560   -1.4740 C   0  0  2  0  0  0  0  0  0  0  0  0
    3.2110   12.0230   -1.6830 O   0  0  0  0  0  0  0  0  0  0  0  0
    4.6310   10.1690    2.2590 H   0  0  0  0  0  0  0  0  0  0  0  0
    4.2339   12.3858    0.6924 H   0  0  0  0  0  0  0  0  0  0  0  0
    5.7583   11.6269    1.3161 H   0  0  0  0  0  0  0  0  0  0  0  0
    5.7791   11.6251   -1.0902 H   0  0  0  0  0  0  0  0  0  0  0  0
    6.6230    9.5790    0.0770 H   0  0  0  0  0  0  0  0  0  0  0  0
    8.4540    7.3710   -0.7580 H   0  0  0  0  0  0  0  0  0  0  0  0
    4.1595    8.0479   -2.3964 H   0  0  0  0  0  0  0  0  0  0  0  0
    6.2830    8.1600   -3.8850 H   0  0  0  0  0  0  0  0  0  0  0  0
    5.0169   10.8780   -3.2680 H   0  0  0  0  0  0  0  0  0  0  0  0
    2.7530    9.2200   -3.5550 H   0  0  0  0  0  0  0  0  0  0  0  0
    3.1512   10.0869   -0.9561 H   0  0  0  0  0  0  0  0  0  0  0  0
    3.3330   12.5250   -0.8540 H   0  0  0  0  0  0  0  0  0  0  0  0
  1  2  1  0
  2  3  1  0
  3  4  1  0
  4  5  1  0
  5  6  2  0
  6  7  1  0
  5  8  1  0
  8  9  1  0
  8 10  1  0
 10 11  1  0
 10 12  1  0
 12 13  1  0
 12  3  1  0
  1 14  1  0
  2 15  1  0
  2 16  1  0
  3 17  1  6
  4 18  1  0
  7 19  1  0
  8 20  1  1
  9 21  1  0
 10 22  1  6
 11 23  1  0
 12 24  1  1
 13 25  1  0
M  END
>  <meeko>  (2) 
{"is_sidechain": [false], "free_energy": -6.01, "intermolecular_energy": -7.245, "internal_energy": -0.062}

$$$$
2j78_ligand
     RDKit          3D

 25 25  0  0  0  0  0  0  0  0999 V2000
    1.6760    6.5260   -8.9660 O   0  0  0  0  0  0  0  0  0  0  0  0
    2.7670    5.7470   -8.4830 C   0  0  0  0  0  0  0  0  0  0  0  0
    2.3480    4.8410   -7.3120 C   0  0  1  0  0  0  0  0  0  0  0  0
    3.3770    3.8430   -7.0410 N   0  0  0  0  0  0  0  0  0  0  0  0
    3.3390    3.0580   -5.9040 C   0  0  0  0  0  0  0  0  0  0  0  0
    3.8060    1.8420   -5.8850 N   0  0  0  0  0  0  0  0  0  0  0  0
    4.2790    1.4630   -7.1530 O   0  0  0  0  0  0  0  0  0  0  0  0
    2.7780    3.6690   -4.5990 C   0  0  2  0  0  0  0  0  0  0  0  0
    2.2840    2.7240   -3.6560 O   0  0  0  0  0  0  0  0  0  0  0  0
    1.6460    4.6530   -4.9260 C   0  0  1  0  0  0  0  0  0  0  0  0
    1.2990    5.3820   -3.7310 O   0  0  0  0  0  0  0  0  0  0  0  0
    2.0520    5.6380   -6.0280 C   0  0  2  0  0  0  0  0  0  0  0  0
    0.9730    6.5670   -6.2180 O   0  0  0  0  0  0  0  0  0  0  0  0
    1.3930    6.1360   -9.8120 H   0  0  0  0  0  0  0  0  0  0  0  0
    3.1455    5.1179   -9.3021 H   0  0  0  0  0  0  0  0  0  0  0  0
    3.5450    6.4354   -8.1213 H   0  0  0  0  0  0  0  0  0  0  0  0
    1.4175    4.3407   -7.6183 H   0  0  0  0  0  0  0  0  0  0  0  0
    3.6710    3.2780   -7.8350 H   0  0  0  0  0  0  0  0  0  0  0  0
    3.4430    1.3130   -7.6350 H   0  0  0  0  0  0  0  0  0  0  0  0
    3.6384    4.1674   -4.1286 H   0  0  0  0  0  0  0  0  0  0  0  0
    1.6440    3.2190   -3.1090 H   0  0  0  0  0  0  0  0  0  0  0  0
    0.7825    4.0781   -5.2918 H   0  0  0  0  0  0  0  0  0  0  0  0
    1.5180    6.3140   -3.9380 H   0  0  0  0  0  0  0  0  0  0  0  0
    2.9567    6.2018   -5.7566 H   0  0  0  0  0  0  0  0  0  0  0  0
    0.8120    6.9710   -5.3430 H   0  0  0  0  0  0  0  0  0  0  0  0
  1  2  1  0
  2  3  1  0
  3  4  1  0
  4  5  1  0
  5  6  2  0
  6  7  1  0
  5  8  1  0
  8  9  1  0
  8 10  1  0
 10 11  1  0
 10 12  1  0
 12 13  1  0
 12  3  1  0
  1 14  1  0
  2 15  1  0
  2 16  1  0
  3 17  1  6
  4 18  1  0
  7 19  1  0
  8 20  1  1
  9 21  1  0
 10 22  1  6
 11 23  1  0
 12 24  1  1
 13 25  1  0
M  END
>  <meeko>  (3) 
{"is_sidechain": [false], "free_energy": -6.003, "intermolecular_energy": -7.055, "internal_energy": -0.245}

$$$$
2j78_ligand
     RDKit          3D

 25 25  0  0  0  0  0  0  0  0999 V2000
    1.2540    1.0170   -5.5740 O   0  0  0  0  0  0  0  0  0  0  0  0
    2.4570    1.4500   -6.2050 C   0  0  0  0  0  0  0  0  0  0  0  0
    2.7580    2.9290   -5.9040 C   0  0  1  0  0  0  0  0  0  0  0  0
    2.4230    3.7640   -7.0520 N   0  0  0  0  0  0  0  0  0  0  0  0
    2.3940    5.1430   -6.9570 C   0  0  0  0  0  0  0  0  0  0  0  0
    2.6930    5.9140   -7.9640 N   0  0  0  0  0  0  0  0  0  0  0  0
    3.0810    5.1560   -9.0820 O   0  0  0  0  0  0  0  0  0  0  0  0
    1.9320    5.7850   -5.6280 C   0  0  2  0  0  0  0  0  0  0  0  0
    2.4050    7.1090   -5.4040 O   0  0  0  0  0  0  0  0  0  0  0  0
    2.3730    4.9140   -4.4440 C   0  0  1  0  0  0  0  0  0  0  0  0
    1.7380    5.3980   -3.2430 O   0  0  0  0  0  0  0  0  0  0  0  0
    2.0120    3.4400   -4.6590 C   0  0  2  0  0  0  0  0  0  0  0  0
    2.3860    2.7120   -3.4800 O   0  0  0  0  0  0  0  0  0  0  0  0
    0.7300    1.8130   -5.3720 H   0  0  0  0  0  0  0  0  0  0  0  0
    3.2925    0.8348   -5.8396 H   0  0  0  0  0  0  0  0  0  0  0  0
    2.3322    1.3402   -7.2924 H   0  0  0  0  0  0  0  0  0  0  0  0
    3.8365    2.9958   -5.6983 H   0  0  0  0  0  0  0  0  0  0  0  0
    2.8420    3.4930   -7.9390 H   0  0  0  0  0  0  0  0  0  0  0  0
    2.3070    4.5720   -9.1990 H   0  0  0  0  0  0  0  0  0  0  0  0
    0.8369    5.8479   -5.7109 H   0  0  0  0  0  0  0  0  0  0  0  0
    2.2640    7.5770   -6.2490 H   0  0  0  0  0  0  0  0  0  0  0  0
    3.4673    4.9805   -4.3542 H   0  0  0  0  0  0  0  0  0  0  0  0
    1.7210    6.3710   -3.3480 H   0  0  0  0  0  0  0  0  0  0  0  0
    0.9332    3.3054   -4.8268 H   0  0  0  0  0  0  0  0  0  0  0  0
    2.8660    3.3470   -2.9140 H   0  0  0  0  0  0  0  0  0  0  0  0
  1  2  1  0
  2  3  1  0
  3  4  1  0
  4  5  1  0
  5  6  2  0
  6  7  1  0
  5  8  1  0
  8  9  1  0
  8 10  1  0
 10 11  1  0
 10 12  1  0
 12 13  1  0
 12  3  1  0
  1 14  1  0
  2 15  1  0
  2 16  1  0
  3 17  1  1
  4 18  1  0
  7 19  1  0
  8 20  1  6
  9 21  1  0
 10 22  1  1
 11 23  1  0
 12 24  1  6
 13 25  1  0
M  END
>  <meeko>  (4) 
{"is_sidechain": [false], "free_energy": -5.676, "intermolecular_energy": -6.649, "internal_energy": -0.256}

$$$$
2j78_ligand
     RDKit          3D

 25 25  0  0  0  0  0  0  0  0999 V2000
    2.9830    4.8900   -9.0570 O   0  0  0  0  0  0  0  0  0  0  0  0
    2.0560    5.5600   -8.2070 C   0  0  0  0  0  0  0  0  0  0  0  0
    2.4950    5.5100   -6.7330 C   0  0  1  0  0  0  0  0  0  0  0  0
    1.9770    6.6630   -6.0040 N   0  0  0  0  0  0  0  0  0  0  0  0
    2.0460    6.7350   -4.6250 C   0  0  0  0  0  0  0  0  0  0  0  0
    2.1730    7.8680   -3.9960 N   0  0  0  0  0  0  0  0  0  0  0  0
    2.2780    8.9390   -4.9000 O   0  0  0  0  0  0  0  0  0  0  0  0
    1.9050    5.4310   -3.8070 C   0  0  2  0  0  0  0  0  0  0  0  0
    2.4880    5.4700   -2.5080 O   0  0  0  0  0  0  0  0  0  0  0  0
    2.5320    4.2600   -4.5750 C   0  0  1  0  0  0  0  0  0  0  0  0
    2.1870    3.0250   -3.9130 O   0  0  0  0  0  0  0  0  0  0  0  0
    2.0520    4.2140   -6.0300 C   0  0  2  0  0  0  0  0  0  0  0  0
    2.6210    3.0520   -6.6530 O   0  0  0  0  0  0  0  0  0  0  0  0
    2.8720    3.9340   -8.9110 H   0  0  0  0  0  0  0  0  0  0  0  0
    1.9806    6.6116   -8.5208 H   0  0  0  0  0  0  0  0  0  0  0  0
    1.0841    5.0519   -8.2923 H   0  0  0  0  0  0  0  0  0  0  0  0
    3.5948    5.5327   -6.7310 H   0  0  0  0  0  0  0  0  0  0  0  0
    2.1880    7.5750   -6.4040 H   0  0  0  0  0  0  0  0  0  0  0  0
    3.1050    9.3650   -4.6030 H   0  0  0  0  0  0  0  0  0  0  0  0
    0.8216    5.3026   -3.6667 H   0  0  0  0  0  0  0  0  0  0  0  0
    1.8200    5.9010   -1.9420 H   0  0  0  0  0  0  0  0  0  0  0  0
    3.6231    4.3992   -4.5864 H   0  0  0  0  0  0  0  0  0  0  0  0
    2.1570    2.3600   -4.6320 H   0  0  0  0  0  0  0  0  0  0  0  0
    0.9561    4.1451   -6.0946 H   0  0  0  0  0  0  0  0  0  0  0  0
    3.4020    2.8160   -6.1160 H   0  0  0  0  0  0  0  0  0  0  0  0
  1  2  1  0
  2  3  1  0
  3  4  1  0
  4  5  1  0
  5  6  2  0
  6  7  1  0
  5  8  1  0
  8  9  1  0
  8 10  1  0
 10 11  1  0
 10 12  1  0
 12 13  1  0
 12  3  1  0
  1 14  1  0
  2 15  1  0
  2 16  1  0
  3 17  1  6
  4 18  1  0
  7 19  1  0
  8 20  1  1
  9 21  1  0
 10 22  1  6
 11 23  1  0
 12 24  1  1
 13 25  1  0
M  END
>  <meeko>  (5) 
{"is_sidechain": [false], "free_energy": -5.596, "intermolecular_energy": -6.568, "internal_energy": -0.241}

$$$$
2j78_ligand
     RDKit          3D

 25 25  0  0  0  0  0  0  0  0999 V2000
    3.5570    7.9050   -3.4530 O   0  0  0  0  0  0  0  0  0  0  0  0
    2.4220    8.0210   -4.3090 C   0  0  0  0  0  0  0  0  0  0  0  0
    1.9600    6.6500   -4.8310 C   0  0  1  0  0  0  0  0  0  0  0  0
    2.3260    6.4850   -6.2340 N   0  0  0  0  0  0  0  0  0  0  0  0
    2.2200    5.2610   -6.8680 C   0  0  0  0  0  0  0  0  0  0  0  0
    1.9500    5.1600   -8.1390 N   0  0  0  0  0  0  0  0  0  0  0  0
    1.7430    6.4260   -8.7130 O   0  0  0  0  0  0  0  0  0  0  0  0
    2.4900    3.9770   -6.0510 C   0  0  2  0  0  0  0  0  0  0  0  0
    1.8790    2.7980   -6.5650 O   0  0  0  0  0  0  0  0  0  0  0  0
    2.0180    4.1670   -4.6040 C   0  0  1  0  0  0  0  0  0  0  0  0
    2.4880    3.0590   -3.8070 O   0  0  0  0  0  0  0  0  0  0  0  0
    2.5330    5.4820   -4.0080 C   0  0  2  0  0  0  0  0  0  0  0  0
    2.1150    5.5460   -2.6360 O   0  0  0  0  0  0  0  0  0  0  0  0
    3.2580    8.0990   -2.5470 H   0  0  0  0  0  0  0  0  0  0  0  0
    1.5978    8.4846   -3.7471 H   0  0  0  0  0  0  0  0  0  0  0  0
    2.7065    8.6387   -5.1736 H   0  0  0  0  0  0  0  0  0  0  0  0
    0.8651    6.6267   -4.7274 H   0  0  0  0  0  0  0  0  0  0  0  0
    2.0210    7.2230   -6.8650 H   0  0  0  0  0  0  0  0  0  0  0  0
    2.5370    6.5180   -9.2740 H   0  0  0  0  0  0  0  0  0  0  0  0
    3.5777    3.8259   -6.1152 H   0  0  0  0  0  0  0  0  0  0  0  0
    0.9400    2.8650   -6.3090 H   0  0  0  0  0  0  0  0  0  0  0  0
    0.9187    4.2051   -4.6012 H   0  0  0  0  0  0  0  0  0  0  0  0
    1.6730    2.6290   -3.4790 H   0  0  0  0  0  0  0  0  0  0  0  0
    3.6308    5.5420   -4.0434 H   0  0  0  0  0  0  0  0  0  0  0  0
    1.1450    5.6610   -2.6570 H   0  0  0  0  0  0  0  0  0  0  0  0
  1  2  1  0
  2  3  1  0
  3  4  1  0
  4  5  1  0
  5  6  2  0
  6  7  1  0
  5  8  1  0
  8  9  1  0
  8 10  1  0
 10 11  1  0
 10 12  1  0
 12 13  1  0
 12  3  1  0
  1 14  1  0
  2 15  1  0
  2 16  1  0
  3 17  1  6
  4 18  1  0
  7 19  1  0
  8 20  1  1
  9 21  1  0
 10 22  1  6
 11 23  1  0
 12 24  1  1
 13 25  1  0
M  END
>  <meeko>  (6) 
{"is_sidechain": [false], "free_energy": -5.48, "intermolecular_energy": -6.415, "internal_energy": -0.254}

$$$$
2j78_ligand
     RDKit          3D

 25 25  0  0  0  0  0  0  0  0999 V2000
    2.2120    2.8040   -3.9630 O   0  0  0  0  0  0  0  0  0  0  0  0
    2.5200    4.1930   -4.0440 C   0  0  0  0  0  0  0  0  0  0  0  0
    1.9740    4.8240   -5.3380 C   0  0  1  0  0  0  0  0  0  0  0  0
    1.8550    6.2700   -5.1930 N   0  0  0  0  0  0  0  0  0  0  0  0
    1.6000    7.0860   -6.2800 C   0  0  0  0  0  0  0  0  0  0  0  0
    0.9230    8.1940   -6.1710 N   0  0  0  0  0  0  0  0  0  0  0  0
    0.4750    8.3850   -4.8530 O   0  0  0  0  0  0  0  0  0  0  0  0
    2.1900    6.6950   -7.6540 C   0  0  2  0  0  0  0  0  0  0  0  0
    1.4990    7.2280   -8.7790 O   0  0  0  0  0  0  0  0  0  0  0  0
    2.2240    5.1680   -7.7950 C   0  0  1  0  0  0  0  0  0  0  0  0
    2.9870    4.8220   -8.9700 O   0  0  0  0  0  0  0  0  0  0  0  0
    2.8460    4.4990   -6.5640 C   0  0  2  0  0  0  0  0  0  0  0  0
    2.9110    3.0850   -6.8090 O   0  0  0  0  0  0  0  0  0  0  0  0
    1.3870    2.7200   -3.4520 H   0  0  0  0  0  0  0  0  0  0  0  0
    2.0735    4.7079   -3.1806 H   0  0  0  0  0  0  0  0  0  0  0  0
    3.6146    4.3015   -4.0455 H   0  0  0  0  0  0  0  0  0  0  0  0
    0.9798    4.3850   -5.5077 H   0  0  0  0  0  0  0  0  0  0  0  0
    1.3210    6.5960   -4.3900 H   0  0  0  0  0  0  0  0  0  0  0  0
   -0.2630    9.0100   -4.9870 H   0  0  0  0  0  0  0  0  0  0  0  0
    3.1984    7.1344   -7.6623 H   0  0  0  0  0  0  0  0  0  0  0  0
    1.9930    8.0330   -9.0250 H   0  0  0  0  0  0  0  0  0  0  0  0
    1.1894    4.8059   -7.8866 H   0  0  0  0  0  0  0  0  0  0  0  0
    2.3310    4.4360   -9.5860 H   0  0  0  0  0  0  0  0  0  0  0  0
    3.8636    4.8686   -6.3696 H   0  0  0  0  0  0  0  0  0  0  0  0
    2.3030    2.9140   -7.5540 H   0  0  0  0  0  0  0  0  0  0  0  0
  1  2  1  0
  2  3  1  0
  3  4  1  0
  4  5  1  0
  5  6  2  0
  6  7  1  0
  5  8  1  0
  8  9  1  0
  8 10  1  0
 10 11  1  0
 10 12  1  0
 12 13  1  0
 12  3  1  0
  1 14  1  0
  2 15  1  0
  2 16  1  0
  3 17  1  6
  4 18  1  0
  7 19  1  0
  8 20  1  1
  9 21  1  0
 10 22  1  6
 11 23  1  0
 12 24  1  1
 13 25  1  0
M  END
>  <meeko>  (7) 
{"is_sidechain": [false], "free_energy": -5.37, "intermolecular_energy": -6.285, "internal_energy": -0.252}

$$$$
2j78_ligand
     RDKit          3D

 25 25  0  0  0  0  0  0  0  0999 V2000
    7.7400   10.7860   -4.8640 O   0  0  0  0  0  0  0  0  0  0  0  0
    6.3620   10.8540   -4.5050 C   0  0  0  0  0  0  0  0  0  0  0  0
    6.0490    9.9860   -3.2740 C   0  0  1  0  0  0  0  0  0  0  0  0
    5.2630    8.8170   -3.6560 N   0  0  0  0  0  0  0  0  0  0  0  0
    5.0440    7.7750   -2.7750 C   0  0  0  0  0  0  0  0  0  0  0  0
    3.9540    7.0630   -2.8010 N   0  0  0  0  0  0  0  0  0  0  0  0
    3.0650    7.5360   -3.7810 O   0  0  0  0  0  0  0  0  0  0  0  0
    6.1590    7.4100   -1.7670 C   0  0  2  0  0  0  0  0  0  0  0  0
    5.7130    6.7360   -0.5950 O   0  0  0  0  0  0  0  0  0  0  0  0
    6.9080    8.6770   -1.3330 C   0  0  1  0  0  0  0  0  0  0  0  0
    8.0820    8.2950   -0.5860 O   0  0  0  0  0  0  0  0  0  0  0  0
    7.3220    9.5320   -2.5360 C   0  0  2  0  0  0  0  0  0  0  0  0
    8.0800   10.6500   -2.0500 O   0  0  0  0  0  0  0  0  0  0  0  0
    7.7820   10.5840   -5.8160 H   0  0  0  0  0  0  0  0  0  0  0  0
    6.1041   11.8991   -4.2786 H   0  0  0  0  0  0  0  0  0  0  0  0
    5.7692   10.4748   -5.3505 H   0  0  0  0  0  0  0  0  0  0  0  0
    5.4671   10.6151   -2.5844 H   0  0  0  0  0  0  0  0  0  0  0  0
    4.4110    9.0050   -4.1800 H   0  0  0  0  0  0  0  0  0  0  0  0
    3.6560    8.0820   -4.3330 H   0  0  0  0  0  0  0  0  0  0  0  0
    6.8102    6.7084   -2.3089 H   0  0  0  0  0  0  0  0  0  0  0  0
    6.1990    7.1540    0.1410 H   0  0  0  0  0  0  0  0  0  0  0  0
    6.2326    9.2810   -0.7093 H   0  0  0  0  0  0  0  0  0  0  0  0
    8.1320    7.3220   -0.6850 H   0  0  0  0  0  0  0  0  0  0  0  0
    7.9462    8.9658   -3.2430 H   0  0  0  0  0  0  0  0  0  0  0  0
    7.6700   11.4430   -2.4460 H   0  0  0  0  0  0  0  0  0  0  0  0
  1  2  1  0
  2  3  1  0
  3  4  1  0
  4  5  1  0
  5  6  2  0
  6  7  1  0
  5  8  1  0
  8  9  1  0
  8 10  1  0
 10 11  1  0
 10 12  1  0
 12 13  1  0
 12  3  1  0
  1 14  1  0
  2 15  1  0
  2 16  1  0
  3 17  1  1
  4 18  1  0
  7 19  1  0
  8 20  1  6
  9 21  1  0
 10 22  1  1
 11 23  1  0
 12 24  1  6
 13 25  1  0
M  END
>  <meeko>  (8) 
{"is_sidechain": [false], "free_energy": -5.315, "intermolecular_energy": -6.221, "internal_energy": -0.249}

$$$$
2j78_ligand
     RDKit          3D

 25 25  0  0  0  0  0  0  0  0999 V2000
    2.8010    5.4850   -2.2000 O   0  0  0  0  0  0  0  0  0  0  0  0
    3.1570    6.3290   -3.2920 C   0  0  0  0  0  0  0  0  0  0  0  0
    2.4390    5.9180   -4.5890 C   0  0  1  0  0  0  0  0  0  0  0  0
    2.7910    6.8210   -5.6800 N   0  0  0  0  0  0  0  0  0  0  0  0
    2.4540    6.5370   -6.9900 C   0  0  0  0  0  0  0  0  0  0  0  0
    2.1930    7.4730   -7.8570 N   0  0  0  0  0  0  0  0  0  0  0  0
    2.2540    8.7450   -7.2610 O   0  0  0  0  0  0  0  0  0  0  0  0
    2.4470    5.0610   -7.4500 C   0  0  2  0  0  0  0  0  0  0  0  0
    1.6220    4.7860   -8.5770 O   0  0  0  0  0  0  0  0  0  0  0  0
    1.9960    4.1540   -6.2970 C   0  0  1  0  0  0  0  0  0  0  0  0
    2.2200    2.7780   -6.6660 O   0  0  0  0  0  0  0  0  0  0  0  0
    2.7520    4.4680   -5.0010 C   0  0  2  0  0  0  0  0  0  0  0  0
    2.3290    3.5300   -3.9990 O   0  0  0  0  0  0  0  0  0  0  0  0
    2.3580    6.0430   -1.5350 H   0  0  0  0  0  0  0  0  0  0  0  0
    2.8819    7.3652   -3.0457 H   0  0  0  0  0  0  0  0  0  0  0  0
    4.2406    6.2363   -3.4568 H   0  0  0  0  0  0  0  0  0  0  0  0
    1.3601    5.9842   -4.3852 H   0  0  0  0  0  0  0  0  0  0  0  0
    2.6520    7.8140   -5.4990 H   0  0  0  0  0  0  0  0  0  0  0  0
    1.6000    9.2400   -7.7910 H   0  0  0  0  0  0  0  0  0  0  0  0
    3.4836    4.8575   -7.7567 H   0  0  0  0  0  0  0  0  0  0  0  0
    0.7960    4.4200   -8.2070 H   0  0  0  0  0  0  0  0  0  0  0  0
    0.9264    4.3337   -6.1135 H   0  0  0  0  0  0  0  0  0  0  0  0
    2.7880    2.4210   -5.9540 H   0  0  0  0  0  0  0  0  0  0  0  0
    3.8402    4.3759   -5.1326 H   0  0  0  0  0  0  0  0  0  0  0  0
    2.6750    2.6610   -4.2830 H   0  0  0  0  0  0  0  0  0  0  0  0
  1  2  1  0
  2  3  1  0
  3  4  1  0
  4  5  1  0
  5  6  2  0
  6  7  1  0
  5  8  1  0
  8  9  1  0
  8 10  1  0
 10 11  1  0
 10 12  1  0
 12 13  1  0
 12  3  1  0
  1 14  1  0
  2 15  1  0
  2 16  1  0
  3 17  1  1
  4 18  1  0
  7 19  1  0
  8 20  1  6
  9 21  1  0
 10 22  1  1
 11 23  1  0
 12 24  1  6
 13 25  1  0
M  END
>  <meeko>  (9) 
{"is_sidechain": [false], "free_energy": -5.235, "intermolecular_energy": -6.164, "internal_energy": -0.21}

$$$$
