3arq_ligand
     RDKit          3D

 62 66  0  0  0  0  0  0  0  0999 V2000
   10.1330  -15.9260  -13.7400 C   0  0  0  0  0  0  0  0  0  0  0  0
   10.3100  -14.7570  -12.8020 C   0  0  0  0  0  0  0  0  0  0  0  0
   11.2060  -14.7590  -11.9570 O   0  0  0  0  0  0  0  0  0  0  0  0
    9.3020  -13.5910  -12.9140 C   0  0  2  0  0  0  0  0  0  0  0  0
    9.9900  -12.3570  -13.1260 O   0  0  0  0  0  0  0  0  0  0  0  0
    8.4750  -13.4710  -11.6140 C   0  0  0  0  0  0  0  0  0  0  0  0
    7.2720  -12.5790  -11.7810 C   0  0  0  0  0  0  0  0  0  0  0  0
    6.7280  -12.3090  -12.9750 C   0  0  0  0  0  0  0  0  0  0  0  0
    5.5150  -11.4610  -13.0170 C   0  0  0  0  0  0  0  0  0  0  0  0
    4.7220  -11.5250  -13.9500 O   0  0  0  0  0  0  0  0  0  0  0  0
    5.3400  -10.4830  -11.9210 C   0  0  0  0  0  0  0  0  0  0  0  0
    4.5870   -9.2260  -12.1810 C   0  0  0  0  0  0  0  0  0  0  0  0
    4.3750   -8.8200  -13.3230 O   0  0  0  0  0  0  0  0  0  0  0  0
    4.1410   -8.4580  -11.0060 C   0  0  0  0  0  0  0  0  0  0  0  0
    3.1920   -7.4390  -11.1520 C   0  0  0  0  0  0  0  0  0  0  0  0
    2.7940   -6.7000  -10.0370 C   0  0  0  0  0  0  0  0  0  0  0  0
    3.3470   -6.9680   -8.7850 C   0  0  0  0  0  0  0  0  0  0  0  0
    4.3010   -7.9770   -8.6420 C   0  0  0  0  0  0  0  0  0  0  0  0
    4.6940   -8.7270   -9.7570 C   0  0  0  0  0  0  0  0  0  0  0  0
    5.7240   -9.7720   -9.6120 C   0  0  0  0  0  0  0  0  0  0  0  0
    6.4310   -9.7950   -8.6160 O   0  0  0  0  0  0  0  0  0  0  0  0
    5.8900  -10.7380  -10.7270 C   0  0  0  0  0  0  0  0  0  0  0  0
    6.6890  -11.9810  -10.5500 C   0  0  0  0  0  0  0  0  0  0  0  0
    6.8780  -12.5020   -9.4630 O   0  0  0  0  0  0  0  0  0  0  0  0
    7.2560  -12.8350  -14.2840 C   0  0  1  0  0  0  0  0  0  0  0  0
    7.7590  -11.6990  -15.0100 O   0  0  0  0  0  0  0  0  0  0  0  0
    7.3580  -11.6330  -16.3810 C   0  0  1  0  0  0  0  0  0  0  0  0
    7.7240  -10.2790  -16.9700 C   0  0  0  0  0  0  0  0  0  0  0  0
    9.2300  -10.1100  -16.7820 C   0  0  2  0  0  0  0  0  0  0  0  0
    9.6310   -8.7540  -17.2440 N   0  0  0  0  0  0  0  0  0  0  0  0
    9.9900  -11.1890  -17.5620 C   0  0  2  0  0  0  0  0  0  0  0  0
    9.8090  -10.8870  -18.9540 O   0  0  0  0  0  0  0  0  0  0  0  0
    9.4540  -12.5740  -17.1230 C   0  0  2  0  0  0  0  0  0  0  0  0
    9.9750  -13.7140  -17.9890 C   0  0  0  0  0  0  0  0  0  0  0  0
    8.0210  -12.6380  -17.1540 O   0  0  0  0  0  0  0  0  0  0  0  0
    8.3790  -13.8730  -14.1150 C   0  0  0  0  0  0  0  0  0  0  0  0
    9.9935  -16.8473  -13.1554 H   0  0  0  0  0  0  0  0  0  0  0  0
    9.2502  -15.7569  -14.3741 H   0  0  0  0  0  0  0  0  0  0  0  0
   11.0263  -16.0258  -14.3741 H   0  0  0  0  0  0  0  0  0  0  0  0
   10.7160  -12.2950  -12.4770 H   0  0  0  0  0  0  0  0  0  0  0  0
    8.1333  -14.4739  -11.3184 H   0  0  0  0  0  0  0  0  0  0  0  0
    9.1212  -13.0234  -10.8445 H   0  0  0  0  0  0  0  0  0  0  0  0
    2.7621   -7.2219  -12.1410 H   0  0  0  0  0  0  0  0  0  0  0  0
    2.0424   -5.9043  -10.1459 H   0  0  0  0  0  0  0  0  0  0  0  0
    3.0308   -6.3832   -7.9086 H   0  0  0  0  0  0  0  0  0  0  0  0
    4.7429   -8.1823   -7.6558 H   0  0  0  0  0  0  0  0  0  0  0  0
    6.4425  -13.3528  -14.8133 H   0  0  0  0  0  0  0  0  0  0  0  0
    6.2697  -11.7894  -16.4156 H   0  0  0  0  0  0  0  0  0  0  0  0
    7.4701  -10.2501  -18.0399 H   0  0  0  0  0  0  0  0  0  0  0  0
    7.1703   -9.4690  -16.4727 H   0  0  0  0  0  0  0  0  0  0  0  0
    9.4798  -10.2197  -15.7164 H   0  0  0  0  0  0  0  0  0  0  0  0
    9.8490   -8.7590  -18.2480 H   0  0  0  0  0  0  0  0  0  0  0  0
    8.8410   -8.0960  -17.1520 H   0  0  0  0  0  0  0  0  0  0  0  0
   10.4390   -8.4200  -16.7010 H   0  0  0  0  0  0  0  0  0  0  0  0
   11.0718  -11.2111  -17.3639 H   0  0  0  0  0  0  0  0  0  0  0  0
    9.0210  -11.3650  -19.2780 H   0  0  0  0  0  0  0  0  0  0  0  0
    9.8204  -12.6937  -16.0927 H   0  0  0  0  0  0  0  0  0  0  0  0
   10.3454  -14.5245  -17.3442 H   0  0  0  0  0  0  0  0  0  0  0  0
    9.1610  -14.0936  -18.6240 H   0  0  0  0  0  0  0  0  0  0  0  0
   10.7948  -13.3470  -18.6240 H   0  0  0  0  0  0  0  0  0  0  0  0
    7.9199  -14.8629  -13.9762 H   0  0  0  0  0  0  0  0  0  0  0  0
    9.0024  -13.8250  -15.0200 H   0  0  0  0  0  0  0  0  0  0  0  0
  1  2  1  0
  2  3  2  0
  2  4  1  0
  4  5  1  6
  4  6  1  0
  6  7  1  0
  7  8  2  0
  8  9  1  0
  9 10  2  0
  9 11  1  0
 11 12  1  0
 12 13  2  0
 12 14  1  0
 14 15  2  0
 15 16  1  0
 16 17  2  0
 17 18  1  0
 18 19  2  0
 19 20  1  0
 20 21  2  0
 20 22  1  0
 22 23  1  0
 23 24  2  0
  8 25  1  0
 25 26  1  0
 26 27  1  0
 27 28  1  0
 28 29  1  0
 29 30  1  0
 29 31  1  0
 31 32  1  0
 31 33  1  0
 33 34  1  0
 33 35  1  0
 25 36  1  0
 36  4  1  0
 23  7  1  0
 35 27  1  0
 22 11  2  0
 19 14  1  0
  1 37  1  0
  1 38  1  0
  1 39  1  0
  5 40  1  0
  6 41  1  0
  6 42  1  0
 15 43  1  0
 16 44  1  0
 17 45  1  0
 18 46  1  0
 25 47  1  6
 27 48  1  1
 28 49  1  0
 28 50  1  0
 29 51  1  1
 30 52  1  0
 30 53  1  0
 30 54  1  0
 31 55  1  1
 32 56  1  0
 33 57  1  1
 34 58  1  0
 34 59  1  0
 34 60  1  0
 36 61  1  0
 36 62  1  0
M  CHG  1  30   1
M  END
>  <meeko>  (1) 
{"is_sidechain": [false], "free_energy": -10.726, "intermolecular_energy": -13.548, "internal_energy": -0.824}

$$$$
3arq_ligand
     RDKit          3D

 62 66  0  0  0  0  0  0  0  0999 V2000
    9.2750  -15.0200  -13.7260 C   0  0  0  0  0  0  0  0  0  0  0  0
    9.4680  -13.7770  -14.5590 C   0  0  0  0  0  0  0  0  0  0  0  0
   10.4290  -13.6730  -15.3210 O   0  0  0  0  0  0  0  0  0  0  0  0
    8.4450  -12.6320  -14.3830 C   0  0  2  0  0  0  0  0  0  0  0  0
    9.0800  -11.3640  -14.5590 O   0  0  0  0  0  0  0  0  0  0  0  0
    7.8290  -12.6760  -12.9660 C   0  0  0  0  0  0  0  0  0  0  0  0
    6.6070  -11.8030  -12.8450 C   0  0  0  0  0  0  0  0  0  0  0  0
    5.8810  -11.4180  -13.9030 C   0  0  0  0  0  0  0  0  0  0  0  0
    4.6700  -10.6030  -13.6630 C   0  0  0  0  0  0  0  0  0  0  0  0
    3.7410  -10.5850  -14.4630 O   0  0  0  0  0  0  0  0  0  0  0  0
    4.6580   -9.7550  -12.4510 C   0  0  0  0  0  0  0  0  0  0  0  0
    3.8630   -8.4970  -12.4490 C   0  0  0  0  0  0  0  0  0  0  0  0
    3.4720   -7.9750  -13.4910 O   0  0  0  0  0  0  0  0  0  0  0  0
    3.6000   -7.8740  -11.1410 C   0  0  0  0  0  0  0  0  0  0  0  0
    2.6300   -6.8710  -11.0240 C   0  0  0  0  0  0  0  0  0  0  0  0
    2.4040   -6.2680   -9.7850 C   0  0  0  0  0  0  0  0  0  0  0  0
    3.1490   -6.6570   -8.6710 C   0  0  0  0  0  0  0  0  0  0  0  0
    4.1220   -7.6500   -8.7910 C   0  0  0  0  0  0  0  0  0  0  0  0
    4.3430   -8.2640  -10.0290 C   0  0  0  0  0  0  0  0  0  0  0  0
    5.3920   -9.2910  -10.1630 C   0  0  0  0  0  0  0  0  0  0  0  0
    6.2460   -9.4030   -9.2970 O   0  0  0  0  0  0  0  0  0  0  0  0
    5.3900  -10.1240  -11.3910 C   0  0  0  0  0  0  0  0  0  0  0  0
    6.2180  -11.3590  -11.4800 C   0  0  0  0  0  0  0  0  0  0  0  0
    6.5790  -11.9900  -10.5000 O   0  0  0  0  0  0  0  0  0  0  0  0
    6.2040  -11.7840  -15.3280 C   0  0  1  0  0  0  0  0  0  0  0  0
    6.5760  -10.5630  -15.9920 O   0  0  0  0  0  0  0  0  0  0  0  0
    6.1930  -10.4810  -17.3660 C   0  0  1  0  0  0  0  0  0  0  0  0
    4.7680   -9.9620  -17.4840 C   0  0  0  0  0  0  0  0  0  0  0  0
    4.7320   -8.6100  -16.7740 C   0  0  2  0  0  0  0  0  0  0  0  0
    3.3340   -8.1010  -16.7630 N   0  0  0  0  0  0  0  0  0  0  0  0
    5.6600   -7.6140  -17.4780 C   0  0  2  0  0  0  0  0  0  0  0  0
    5.0550   -7.3210  -18.7470 O   0  0  0  0  0  0  0  0  0  0  0  0
    7.0730   -8.2420  -17.5620 C   0  0  2  0  0  0  0  0  0  0  0  0
    8.0280   -7.4390  -18.4370 C   0  0  0  0  0  0  0  0  0  0  0  0
    7.0440   -9.5800  -18.0790 O   0  0  0  0  0  0  0  0  0  0  0  0
    7.3480  -12.8040  -15.4520 C   0  0  0  0  0  0  0  0  0  0  0  0
    9.3160  -14.7563  -12.6589 H   0  0  0  0  0  0  0  0  0  0  0  0
    8.2967  -15.4672  -13.9559 H   0  0  0  0  0  0  0  0  0  0  0  0
   10.0717  -15.7428  -13.9559 H   0  0  0  0  0  0  0  0  0  0  0  0
    9.6060  -11.1710  -13.7600 H   0  0  0  0  0  0  0  0  0  0  0  0
    7.5463  -13.7138  -12.7355 H   0  0  0  0  0  0  0  0  0  0  0  0
    8.5831  -12.2981  -12.2600 H   0  0  0  0  0  0  0  0  0  0  0  0
    2.0486   -6.5594  -11.9043 H   0  0  0  0  0  0  0  0  0  0  0  0
    1.6375   -5.4851   -9.6869 H   0  0  0  0  0  0  0  0  0  0  0  0
    2.9689   -6.1799   -7.6963 H   0  0  0  0  0  0  0  0  0  0  0  0
    4.7144   -7.9497   -7.9139 H   0  0  0  0  0  0  0  0  0  0  0  0
    5.3227  -12.2629  -15.7797 H   0  0  0  0  0  0  0  0  0  0  0  0
    6.2743  -11.4918  -17.7923 H   0  0  0  0  0  0  0  0  0  0  0  0
    4.4951   -9.8414  -18.5428 H   0  0  0  0  0  0  0  0  0  0  0  0
    4.0526  -10.6649  -17.0321 H   0  0  0  0  0  0  0  0  0  0  0  0
    5.0828   -8.7307  -15.7384 H   0  0  0  0  0  0  0  0  0  0  0  0
    2.7390   -8.6780  -16.1540 H   0  0  0  0  0  0  0  0  0  0  0  0
    3.2990   -7.1580  -16.3450 H   0  0  0  0  0  0  0  0  0  0  0  0
    2.9570   -8.0820  -17.7210 H   0  0  0  0  0  0  0  0  0  0  0  0
    5.7879   -6.6616  -16.9427 H   0  0  0  0  0  0  0  0  0  0  0  0
    4.1400   -7.0140  -18.5940 H   0  0  0  0  0  0  0  0  0  0  0  0
    7.4342   -8.2418  -16.5230 H   0  0  0  0  0  0  0  0  0  0  0  0
    8.7135   -6.8626  -17.7984 H   0  0  0  0  0  0  0  0  0  0  0  0
    8.6079   -8.1248  -19.0721 H   0  0  0  0  0  0  0  0  0  0  0  0
    7.4519   -6.7500  -19.0721 H   0  0  0  0  0  0  0  0  0  0  0  0
    6.9248  -13.8148  -15.3568 H   0  0  0  0  0  0  0  0  0  0  0  0
    7.8222  -12.6402  -16.4309 H   0  0  0  0  0  0  0  0  0  0  0  0
  1  2  1  0
  2  3  2  0
  2  4  1  0
  4  5  1  6
  4  6  1  0
  6  7  1  0
  7  8  2  0
  8  9  1  0
  9 10  2  0
  9 11  1  0
 11 12  1  0
 12 13  2  0
 12 14  1  0
 14 15  2  0
 15 16  1  0
 16 17  2  0
 17 18  1  0
 18 19  2  0
 19 20  1  0
 20 21  2  0
 20 22  1  0
 22 23  1  0
 23 24  2  0
  8 25  1  0
 25 26  1  0
 26 27  1  0
 27 28  1  0
 28 29  1  0
 29 30  1  0
 29 31  1  0
 31 32  1  0
 31 33  1  0
 33 34  1  0
 33 35  1  0
 25 36  1  0
 36  4  1  0
 23  7  1  0
 35 27  1  0
 22 11  2  0
 19 14  1  0
  1 37  1  0
  1 38  1  0
  1 39  1  0
  5 40  1  0
  6 41  1  0
  6 42  1  0
 15 43  1  0
 16 44  1  0
 17 45  1  0
 18 46  1  0
 25 47  1  6
 27 48  1  6
 28 49  1  0
 28 50  1  0
 29 51  1  1
 30 52  1  0
 30 53  1  0
 30 54  1  0
 31 55  1  1
 32 56  1  0
 33 57  1  1
 34 58  1  0
 34 59  1  0
 34 60  1  0
 36 61  1  0
 36 62  1  0
M  CHG  1  30   1
M  END
>  <meeko>  (2) 
{"is_sidechain": [false], "free_energy": -10.685, "intermolecular_energy": -13.068, "internal_energy": -1.252}

$$$$
3arq_ligand
     RDKit          3D

 62 66  0  0  0  0  0  0  0  0999 V2000
   -0.5420   -2.3990  -15.9680 C   0  0  0  0  0  0  0  0  0  0  0  0
    0.5690   -3.4080  -16.1210 C   0  0  0  0  0  0  0  0  0  0  0  0
    0.9260   -3.7880  -17.2370 O   0  0  0  0  0  0  0  0  0  0  0  0
    1.2040   -3.9750  -14.8310 C   0  0  2  0  0  0  0  0  0  0  0  0
    2.4710   -3.3610  -14.5880 O   0  0  0  0  0  0  0  0  0  0  0  0
    1.4170   -5.5000  -14.9630 C   0  0  0  0  0  0  0  0  0  0  0  0
    1.7240   -6.1530  -13.6400 C   0  0  0  0  0  0  0  0  0  0  0  0
    1.3990   -5.5990  -12.4640 C   0  0  0  0  0  0  0  0  0  0  0  0
    1.7010   -6.3530  -11.2270 C   0  0  0  0  0  0  0  0  0  0  0  0
    1.0730   -6.1620  -10.1910 O   0  0  0  0  0  0  0  0  0  0  0  0
    2.8400   -7.2960  -11.2750 C   0  0  0  0  0  0  0  0  0  0  0  0
    3.6000   -7.5840  -10.0280 C   0  0  0  0  0  0  0  0  0  0  0  0
    3.5280   -6.8530   -9.0410 O   0  0  0  0  0  0  0  0  0  0  0  0
    4.4820   -8.7620  -10.0390 C   0  0  0  0  0  0  0  0  0  0  0  0
    4.9960   -9.2660   -8.8380 C   0  0  0  0  0  0  0  0  0  0  0  0
    5.8520  -10.3690   -8.8610 C   0  0  0  0  0  0  0  0  0  0  0  0
    6.2010  -10.9600  -10.0750 C   0  0  0  0  0  0  0  0  0  0  0  0
    5.6950  -10.4520  -11.2730 C   0  0  0  0  0  0  0  0  0  0  0  0
    4.8290   -9.3520  -11.2520 C   0  0  0  0  0  0  0  0  0  0  0  0
    4.3190   -8.7960  -12.5190 C   0  0  0  0  0  0  0  0  0  0  0  0
    4.8600   -9.0920  -13.5740 O   0  0  0  0  0  0  0  0  0  0  0  0
    3.1820   -7.8450  -12.4480 C   0  0  0  0  0  0  0  0  0  0  0  0
    2.4240   -7.4640  -13.6720 C   0  0  0  0  0  0  0  0  0  0  0  0
    2.3700   -8.1680  -14.6670 O   0  0  0  0  0  0  0  0  0  0  0  0
    0.7170   -4.2640  -12.3180 C   0  0  1  0  0  0  0  0  0  0  0  0
    1.6720   -3.3810  -11.7020 O   0  0  0  0  0  0  0  0  0  0  0  0
    1.1950   -2.6840  -10.5490 C   0  0  1  0  0  0  0  0  0  0  0  0
    2.3650   -2.1370   -9.7450 C   0  0  0  0  0  0  0  0  0  0  0  0
    3.1700   -1.2450  -10.6890 C   0  0  2  0  0  0  0  0  0  0  0  0
    4.3900   -0.7660   -9.9860 N   0  0  0  0  0  0  0  0  0  0  0  0
    2.3190   -0.0590  -11.1560 C   0  0  2  0  0  0  0  0  0  0  0  0
    2.1310    0.7830  -10.0080 O   0  0  0  0  0  0  0  0  0  0  0  0
    1.0130   -0.6130  -11.7760 C   0  0  2  0  0  0  0  0  0  0  0  0
   -0.0110    0.4760  -12.0740 C   0  0  0  0  0  0  0  0  0  0  0  0
    0.3730   -1.5770  -10.9280 O   0  0  0  0  0  0  0  0  0  0  0  0
    0.2550   -3.6650  -13.6570 C   0  0  0  0  0  0  0  0  0  0  0  0
   -0.7342   -2.2245  -14.8991 H   0  0  0  0  0  0  0  0  0  0  0  0
   -0.2471   -1.4535  -16.4467 H   0  0  0  0  0  0  0  0  0  0  0  0
   -1.4548   -2.7833  -16.4467 H   0  0  0  0  0  0  0  0  0  0  0  0
    3.0230   -3.4720  -15.3850 H   0  0  0  0  0  0  0  0  0  0  0  0
    0.5020   -5.9502  -15.3755 H   0  0  0  0  0  0  0  0  0  0  0  0
    2.2798   -5.6624  -15.6258 H   0  0  0  0  0  0  0  0  0  0  0  0
    4.7268   -8.7953   -7.8810 H   0  0  0  0  0  0  0  0  0  0  0  0
    6.2520  -10.7727   -7.9192 H   0  0  0  0  0  0  0  0  0  0  0  0
    6.8763  -11.8282  -10.0887 H   0  0  0  0  0  0  0  0  0  0  0  0
    5.9759  -10.9146  -12.2306 H   0  0  0  0  0  0  0  0  0  0  0  0
   -0.1941   -4.3943  -11.7155 H   0  0  0  0  0  0  0  0  0  0  0  0
    0.6117   -3.3978   -9.9488 H   0  0  0  0  0  0  0  0  0  0  0  0
    1.9962   -1.5495   -8.8913 H   0  0  0  0  0  0  0  0  0  0  0  0
    2.9863   -2.9528   -9.3468 H   0  0  0  0  0  0  0  0  0  0  0  0
    3.4657   -1.8235  -11.5766 H   0  0  0  0  0  0  0  0  0  0  0  0
    4.8090   -1.5190   -9.4250 H   0  0  0  0  0  0  0  0  0  0  0  0
    5.1220   -0.5140  -10.6700 H   0  0  0  0  0  0  0  0  0  0  0  0
    4.1620    0.0420   -9.3920 H   0  0  0  0  0  0  0  0  0  0  0  0
    2.7876    0.5506  -11.9426 H   0  0  0  0  0  0  0  0  0  0  0  0
    2.2950    1.7100  -10.2710 H   0  0  0  0  0  0  0  0  0  0  0  0
    1.3367   -1.0853  -12.7152 H   0  0  0  0  0  0  0  0  0  0  0  0
   -0.3962    0.8857  -11.1286 H   0  0  0  0  0  0  0  0  0  0  0  0
    0.4664    1.2794  -12.6542 H   0  0  0  0  0  0  0  0  0  0  0  0
   -0.8422    0.0489  -12.6542 H   0  0  0  0  0  0  0  0  0  0  0  0
   -0.7385   -4.0722  -13.8959 H   0  0  0  0  0  0  0  0  0  0  0  0
    0.2402   -2.5720  -13.5338 H   0  0  0  0  0  0  0  0  0  0  0  0
  1  2  1  0
  2  3  2  0
  2  4  1  0
  4  5  1  1
  4  6  1  0
  6  7  1  0
  7  8  2  0
  8  9  1  0
  9 10  2  0
  9 11  1  0
 11 12  1  0
 12 13  2  0
 12 14  1  0
 14 15  2  0
 15 16  1  0
 16 17  2  0
 17 18  1  0
 18 19  2  0
 19 20  1  0
 20 21  2  0
 20 22  1  0
 22 23  1  0
 23 24  2  0
  8 25  1  0
 25 26  1  0
 26 27  1  0
 27 28  1  0
 28 29  1  0
 29 30  1  0
 29 31  1  0
 31 32  1  0
 31 33  1  0
 33 34  1  0
 33 35  1  0
 25 36  1  0
 36  4  1  0
 23  7  1  0
 35 27  1  0
 22 11  2  0
 19 14  1  0
  1 37  1  0
  1 38  1  0
  1 39  1  0
  5 40  1  0
  6 41  1  0
  6 42  1  0
 15 43  1  0
 16 44  1  0
 17 45  1  0
 18 46  1  0
 25 47  1  1
 27 48  1  1
 28 49  1  0
 28 50  1  0
 29 51  1  6
 30 52  1  0
 30 53  1  0
 30 54  1  0
 31 55  1  6
 32 56  1  0
 33 57  1  6
 34 58  1  0
 34 59  1  0
 34 60  1  0
 36 61  1  0
 36 62  1  0
M  CHG  1  30   1
M  END
>  <meeko>  (3) 
{"is_sidechain": [false], "free_energy": -10.684, "intermolecular_energy": -13.35, "internal_energy": -0.969}

$$$$
3arq_ligand
     RDKit          3D

 62 66  0  0  0  0  0  0  0  0999 V2000
   11.3390  -13.6720  -13.6990 C   0  0  0  0  0  0  0  0  0  0  0  0
   10.0780  -13.6770  -12.8700 C   0  0  0  0  0  0  0  0  0  0  0  0
    9.9100  -14.5140  -11.9830 O   0  0  0  0  0  0  0  0  0  0  0  0
    8.9960  -12.6260  -13.2080 C   0  0  2  0  0  0  0  0  0  0  0  0
    9.5990  -11.3580  -13.4720 O   0  0  0  0  0  0  0  0  0  0  0  0
    8.0170  -12.4640  -12.0230 C   0  0  0  0  0  0  0  0  0  0  0  0
    6.7720  -11.7080  -12.4070 C   0  0  0  0  0  0  0  0  0  0  0  0
    6.3480  -11.6020  -13.6740 C   0  0  0  0  0  0  0  0  0  0  0  0
    5.0830  -10.8800  -13.9310 C   0  0  0  0  0  0  0  0  0  0  0  0
    4.4100  -11.1050  -14.9320 O   0  0  0  0  0  0  0  0  0  0  0  0
    4.7010   -9.8250  -12.9670 C   0  0  0  0  0  0  0  0  0  0  0  0
    3.8820   -8.6740  -13.4330 C   0  0  0  0  0  0  0  0  0  0  0  0
    3.7690   -8.3980  -14.6270 O   0  0  0  0  0  0  0  0  0  0  0  0
    3.2420   -7.8450  -12.3980 C   0  0  0  0  0  0  0  0  0  0  0  0
    2.2340   -6.9380  -12.7480 C   0  0  0  0  0  0  0  0  0  0  0  0
    1.6510   -6.1390  -11.7640 C   0  0  0  0  0  0  0  0  0  0  0  0
    2.0770   -6.2360  -10.4390 C   0  0  0  0  0  0  0  0  0  0  0  0
    3.0880   -7.1340  -10.0920 C   0  0  0  0  0  0  0  0  0  0  0  0
    3.6680   -7.9440  -11.0760 C   0  0  0  0  0  0  0  0  0  0  0  0
    4.7580   -8.8690  -10.7160 C   0  0  0  0  0  0  0  0  0  0  0  0
    5.3450   -8.7320   -9.6530 O   0  0  0  0  0  0  0  0  0  0  0  0
    5.1300   -9.9140  -11.7010 C   0  0  0  0  0  0  0  0  0  0  0  0
    6.0040  -11.0560  -11.3140 C   0  0  0  0  0  0  0  0  0  0  0  0
    6.1090  -11.4530  -10.1640 O   0  0  0  0  0  0  0  0  0  0  0  0
    7.0660  -12.1960  -14.8580 C   0  0  1  0  0  0  0  0  0  0  0  0
    7.5520  -11.0910  -15.6400 O   0  0  0  0  0  0  0  0  0  0  0  0
    7.4860  -11.2770  -17.0560 C   0  0  1  0  0  0  0  0  0  0  0  0
    6.2250  -10.6320  -17.6120 C   0  0  0  0  0  0  0  0  0  0  0  0
    6.2670   -9.1600  -17.2060 C   0  0  2  0  0  0  0  0  0  0  0  0
    5.0040   -8.5000  -17.6310 N   0  0  0  0  0  0  0  0  0  0  0  0
    7.4760   -8.4660  -17.8440 C   0  0  2  0  0  0  0  0  0  0  0  0
    7.2100   -8.3990  -19.2530 O   0  0  0  0  0  0  0  0  0  0  0  0
    8.7500   -9.2600  -17.4610 C   0  0  2  0  0  0  0  0  0  0  0  0
    9.9880   -8.7960  -18.2180 C   0  0  0  0  0  0  0  0  0  0  0  0
    8.6070  -10.6670  -17.7020 O   0  0  0  0  0  0  0  0  0  0  0  0
    8.2440  -13.1030  -14.4650 C   0  0  0  0  0  0  0  0  0  0  0  0
   12.2151  -13.6685  -13.0338 H   0  0  0  0  0  0  0  0  0  0  0  0
   11.3641  -14.5701  -14.3337 H   0  0  0  0  0  0  0  0  0  0  0  0
   11.3570  -12.7738  -14.3337 H   0  0  0  0  0  0  0  0  0  0  0  0
   10.5550  -11.4280  -13.2870 H   0  0  0  0  0  0  0  0  0  0  0  0
    7.7275  -13.4629  -11.6647 H   0  0  0  0  0  0  0  0  0  0  0  0
    8.5310  -11.8884  -11.2391 H   0  0  0  0  0  0  0  0  0  0  0  0
    1.9034   -6.8559  -13.7939 H   0  0  0  0  0  0  0  0  0  0  0  0
    0.8536   -5.4309  -12.0335 H   0  0  0  0  0  0  0  0  0  0  0  0
    1.6154   -5.6037   -9.6663 H   0  0  0  0  0  0  0  0  0  0  0  0
    3.4281   -7.2051   -9.0483 H   0  0  0  0  0  0  0  0  0  0  0  0
    6.3650  -12.8359  -15.4141 H   0  0  0  0  0  0  0  0  0  0  0  0
    7.4848  -12.3602  -17.2476 H   0  0  0  0  0  0  0  0  0  0  0  0
    6.2051  -10.7222  -18.7081 H   0  0  0  0  0  0  0  0  0  0  0  0
    5.3233  -11.1245  -17.2190 H   0  0  0  0  0  0  0  0  0  0  0  0
    6.3666   -9.0842  -16.1131 H   0  0  0  0  0  0  0  0  0  0  0  0
    4.7780   -8.7350  -18.6060 H   0  0  0  0  0  0  0  0  0  0  0  0
    4.2080   -8.8630  -17.0840 H   0  0  0  0  0  0  0  0  0  0  0  0
    5.0820   -7.4800  -17.5150 H   0  0  0  0  0  0  0  0  0  0  0  0
    7.6455   -7.4390  -17.4882 H   0  0  0  0  0  0  0  0  0  0  0  0
    7.9220   -7.8850  -19.6820 H   0  0  0  0  0  0  0  0  0  0  0  0
    8.8790   -9.0671  -16.3858 H   0  0  0  0  0  0  0  0  0  0  0  0
   10.7685   -8.5035  -17.5002 H   0  0  0  0  0  0  0  0  0  0  0  0
   10.3599   -9.6158  -18.8502 H   0  0  0  0  0  0  0  0  0  0  0  0
    9.7295   -7.9337  -18.8502 H   0  0  0  0  0  0  0  0  0  0  0  0
    7.8559  -14.1146  -14.2753 H   0  0  0  0  0  0  0  0  0  0  0  0
    8.9613  -13.0800  -15.2986 H   0  0  0  0  0  0  0  0  0  0  0  0
  1  2  1  0
  2  3  2  0
  2  4  1  0
  4  5  1  6
  4  6  1  0
  6  7  1  0
  7  8  2  0
  8  9  1  0
  9 10  2  0
  9 11  1  0
 11 12  1  0
 12 13  2  0
 12 14  1  0
 14 15  2  0
 15 16  1  0
 16 17  2  0
 17 18  1  0
 18 19  2  0
 19 20  1  0
 20 21  2  0
 20 22  1  0
 22 23  1  0
 23 24  2  0
  8 25  1  0
 25 26  1  0
 26 27  1  0
 27 28  1  0
 28 29  1  0
 29 30  1  0
 29 31  1  0
 31 32  1  0
 31 33  1  0
 33 34  1  0
 33 35  1  0
 25 36  1  0
 36  4  1  0
 23  7  1  0
 35 27  1  0
 22 11  2  0
 19 14  1  0
  1 37  1  0
  1 38  1  0
  1 39  1  0
  5 40  1  0
  6 41  1  0
  6 42  1  0
 15 43  1  0
 16 44  1  0
 17 45  1  0
 18 46  1  0
 25 47  1  6
 27 48  1  1
 28 49  1  0
 28 50  1  0
 29 51  1  1
 30 52  1  0
 30 53  1  0
 30 54  1  0
 31 55  1  1
 32 56  1  0
 33 57  1  1
 34 58  1  0
 34 59  1  0
 34 60  1  0
 36 61  1  0
 36 62  1  0
M  CHG  1  30   1
M  END
>  <meeko>  (4) 
{"is_sidechain": [false], "free_energy": -10.223, "intermolecular_energy": -12.445, "internal_energy": -1.291}

$$$$
3arq_ligand
     RDKit          3D

 62 66  0  0  0  0  0  0  0  0999 V2000
    8.3110  -13.3000  -16.0650 C   0  0  0  0  0  0  0  0  0  0  0  0
    7.6660  -12.3180  -17.0100 C   0  0  0  0  0  0  0  0  0  0  0  0
    7.8490  -12.4010  -18.2250 O   0  0  0  0  0  0  0  0  0  0  0  0
    6.8120  -11.1870  -16.3950 C   0  0  2  0  0  0  0  0  0  0  0  0
    7.5800   -9.9880  -16.2810 O   0  0  0  0  0  0  0  0  0  0  0  0
    6.3250  -11.5910  -14.9840 C   0  0  0  0  0  0  0  0  0  0  0  0
    5.2360  -10.6840  -14.4720 C   0  0  0  0  0  0  0  0  0  0  0  0
    4.4700   -9.9390  -15.2810 C   0  0  0  0  0  0  0  0  0  0  0  0
    3.3950   -9.1240  -14.6740 C   0  0  0  0  0  0  0  0  0  0  0  0
    2.4070   -8.7870  -15.3170 O   0  0  0  0  0  0  0  0  0  0  0  0
    3.5980   -8.6740  -13.2800 C   0  0  0  0  0  0  0  0  0  0  0  0
    2.9670   -7.4060  -12.8250 C   0  0  0  0  0  0  0  0  0  0  0  0
    2.5500   -6.5660  -13.6210 O   0  0  0  0  0  0  0  0  0  0  0  0
    2.9010   -7.1740  -11.3720 C   0  0  0  0  0  0  0  0  0  0  0  0
    2.0770   -6.1660  -10.8580 C   0  0  0  0  0  0  0  0  0  0  0  0
    2.0390   -5.9370   -9.4820 C   0  0  0  0  0  0  0  0  0  0  0  0
    2.8280   -6.7030   -8.6230 C   0  0  0  0  0  0  0  0  0  0  0  0
    3.6560   -7.7020   -9.1370 C   0  0  0  0  0  0  0  0  0  0  0  0
    3.6880   -7.9400  -10.5160 C   0  0  0  0  0  0  0  0  0  0  0  0
    4.5860   -8.9740  -11.0620 C   0  0  0  0  0  0  0  0  0  0  0  0
    5.4940   -9.4140  -10.3730 O   0  0  0  0  0  0  0  0  0  0  0  0
    4.3710   -9.4040  -12.4650 C   0  0  0  0  0  0  0  0  0  0  0  0
    5.0290  -10.6280  -13.0000 C   0  0  0  0  0  0  0  0  0  0  0  0
    5.3970  -11.5510  -12.2910 O   0  0  0  0  0  0  0  0  0  0  0  0
    4.6160   -9.8970  -16.7800 C   0  0  1  0  0  0  0  0  0  0  0  0
    5.0740   -8.5750  -17.1110 O   0  0  0  0  0  0  0  0  0  0  0  0
    4.5860   -8.0580  -18.3510 C   0  0  1  0  0  0  0  0  0  0  0  0
    3.2350   -7.3900  -18.1470 C   0  0  0  0  0  0  0  0  0  0  0  0
    3.4350   -6.3070  -17.0890 C   0  0  2  0  0  0  0  0  0  0  0  0
    2.1210   -5.6890  -16.7680 N   0  0  0  0  0  0  0  0  0  0  0  0
    4.4180   -5.2450  -17.5930 C   0  0  2  0  0  0  0  0  0  0  0  0
    3.7480   -4.5370  -18.6480 O   0  0  0  0  0  0  0  0  0  0  0  0
    5.7270   -5.9570  -18.0180 C   0  0  2  0  0  0  0  0  0  0  0  0
    6.6970   -5.0320  -18.7440 C   0  0  0  0  0  0  0  0  0  0  0  0
    5.4810   -7.0770  -18.8810 O   0  0  0  0  0  0  0  0  0  0  0  0
    5.6100  -10.9360  -17.3260 C   0  0  0  0  0  0  0  0  0  0  0  0
    8.1110  -12.9955  -15.0271 H   0  0  0  0  0  0  0  0  0  0  0  0
    7.8956  -14.3035  -16.2393 H   0  0  0  0  0  0  0  0  0  0  0  0
    9.3970  -13.3174  -16.2393 H   0  0  0  0  0  0  0  0  0  0  0  0
    7.9620   -9.7850  -17.1550 H   0  0  0  0  0  0  0  0  0  0  0  0
    5.9381  -12.6199  -15.0247 H   0  0  0  0  0  0  0  0  0  0  0  0
    7.1805  -11.5097  -14.2973 H   0  0  0  0  0  0  0  0  0  0  0  0
    1.4617   -5.5566  -11.5362 H   0  0  0  0  0  0  0  0  0  0  0  0
    1.3861   -5.1514   -9.0739 H   0  0  0  0  0  0  0  0  0  0  0  0
    2.7973   -6.5191   -7.5389 H   0  0  0  0  0  0  0  0  0  0  0  0
    4.2823   -8.3012   -8.4597 H   0  0  0  0  0  0  0  0  0  0  0  0
    3.6456  -10.1387  -17.2381 H   0  0  0  0  0  0  0  0  0  0  0  0
    4.4985   -8.9033  -19.0494 H   0  0  0  0  0  0  0  0  0  0  0  0
    2.8887   -6.9400  -19.0891 H   0  0  0  0  0  0  0  0  0  0  0  0
    2.4773   -8.1203  -17.8267 H   0  0  0  0  0  0  0  0  0  0  0  0
    3.8564   -6.7583  -16.1786 H   0  0  0  0  0  0  0  0  0  0  0  0
    2.1490   -4.6720  -16.9110 H   0  0  0  0  0  0  0  0  0  0  0  0
    1.3970   -6.0240  -17.4230 H   0  0  0  0  0  0  0  0  0  0  0  0
    1.8540   -5.9090  -15.7980 H   0  0  0  0  0  0  0  0  0  0  0  0
    4.7124   -4.5070  -16.8323 H   0  0  0  0  0  0  0  0  0  0  0  0
    2.8240   -4.8510  -18.6960 H   0  0  0  0  0  0  0  0  0  0  0  0
    6.1746   -6.2939  -17.0714 H   0  0  0  0  0  0  0  0  0  0  0  0
    7.2878   -4.4686  -18.0067 H   0  0  0  0  0  0  0  0  0  0  0  0
    7.3714   -5.6299  -19.3746 H   0  0  0  0  0  0  0  0  0  0  0  0
    6.1318   -4.3300  -19.3746 H   0  0  0  0  0  0  0  0  0  0  0  0
    5.0759  -11.8870  -17.4688 H   0  0  0  0  0  0  0  0  0  0  0  0
    6.0101  -10.5358  -18.2693 H   0  0  0  0  0  0  0  0  0  0  0  0
  1  2  1  0
  2  3  2  0
  2  4  1  0
  4  5  1  1
  4  6  1  0
  6  7  1  0
  7  8  2  0
  8  9  1  0
  9 10  2  0
  9 11  1  0
 11 12  1  0
 12 13  2  0
 12 14  1  0
 14 15  2  0
 15 16  1  0
 16 17  2  0
 17 18  1  0
 18 19  2  0
 19 20  1  0
 20 21  2  0
 20 22  1  0
 22 23  1  0
 23 24  2  0
  8 25  1  0
 25 26  1  0
 26 27  1  0
 27 28  1  0
 28 29  1  0
 29 30  1  0
 29 31  1  0
 31 32  1  0
 31 33  1  0
 33 34  1  0
 33 35  1  0
 25 36  1  0
 36  4  1  0
 23  7  1  0
 35 27  1  0
 22 11  2  0
 19 14  1  0
  1 37  1  0
  1 38  1  0
  1 39  1  0
  5 40  1  0
  6 41  1  0
  6 42  1  0
 15 43  1  0
 16 44  1  0
 17 45  1  0
 18 46  1  0
 25 47  1  6
 27 48  1  6
 28 49  1  0
 28 50  1  0
 29 51  1  1
 30 52  1  0
 30 53  1  0
 30 54  1  0
 31 55  1  1
 32 56  1  0
 33 57  1  1
 34 58  1  0
 34 59  1  0
 34 60  1  0
 36 61  1  0
 36 62  1  0
M  CHG  1  30   1
M  END
>  <meeko>  (5) 
{"is_sidechain": [false], "free_energy": -10.138, "intermolecular_energy": -12.394, "internal_energy": -1.234}

$$$$
3arq_ligand
     RDKit          3D

 62 66  0  0  0  0  0  0  0  0999 V2000
    3.2910   -5.6960   -5.6730 C   0  0  0  0  0  0  0  0  0  0  0  0
    2.5300   -6.9330   -6.0800 C   0  0  0  0  0  0  0  0  0  0  0  0
    1.9840   -7.6440   -5.2340 O   0  0  0  0  0  0  0  0  0  0  0  0
    2.5020   -7.2940   -7.5820 C   0  0  2  0  0  0  0  0  0  0  0  0
    1.5340   -8.3150   -7.8320 O   0  0  0  0  0  0  0  0  0  0  0  0
    3.8860   -7.8130   -8.0350 C   0  0  0  0  0  0  0  0  0  0  0  0
    4.0130   -7.8700   -9.5350 C   0  0  0  0  0  0  0  0  0  0  0  0
    3.2420   -7.1470  -10.3580 C   0  0  0  0  0  0  0  0  0  0  0  0
    3.4900   -7.2420  -11.8140 C   0  0  0  0  0  0  0  0  0  0  0  0
    3.1730   -6.3370  -12.5780 O   0  0  0  0  0  0  0  0  0  0  0  0
    4.0710   -8.5060  -12.3170 C   0  0  0  0  0  0  0  0  0  0  0  0
    3.7670   -8.9460  -13.7060 C   0  0  0  0  0  0  0  0  0  0  0  0
    2.8230   -8.4800  -14.3420 O   0  0  0  0  0  0  0  0  0  0  0  0
    4.6210  -10.0010  -14.2760 C   0  0  0  0  0  0  0  0  0  0  0  0
    4.5930  -10.2600  -15.6510 C   0  0  0  0  0  0  0  0  0  0  0  0
    5.3880  -11.2790  -16.1800 C   0  0  0  0  0  0  0  0  0  0  0  0
    6.1990  -12.0420  -15.3390 C   0  0  0  0  0  0  0  0  0  0  0  0
    6.2190  -11.7890  -13.9660 C   0  0  0  0  0  0  0  0  0  0  0  0
    5.4310  -10.7610  -13.4350 C   0  0  0  0  0  0  0  0  0  0  0  0
    5.4280  -10.5140  -11.9820 C   0  0  0  0  0  0  0  0  0  0  0  0
    5.8700  -11.3610  -11.2210 O   0  0  0  0  0  0  0  0  0  0  0  0
    4.8330   -9.2440  -11.4980 C   0  0  0  0  0  0  0  0  0  0  0  0
    5.0430   -8.7830  -10.0980 C   0  0  0  0  0  0  0  0  0  0  0  0
    5.9990   -9.1270   -9.4210 O   0  0  0  0  0  0  0  0  0  0  0  0
    2.1510   -6.2170   -9.8960 C   0  0  1  0  0  0  0  0  0  0  0  0
    0.9080   -6.7930  -10.3330 O   0  0  0  0  0  0  0  0  0  0  0  0
   -0.0560   -5.8560  -10.8170 C   0  0  1  0  0  0  0  0  0  0  0  0
    0.0830   -5.6890  -12.3220 C   0  0  0  0  0  0  0  0  0  0  0  0
   -0.0790   -7.0780  -12.9360 C   0  0  2  0  0  0  0  0  0  0  0  0
    0.1540   -6.9950  -14.4030 N   0  0  0  0  0  0  0  0  0  0  0  0
   -1.4800   -7.6290  -12.6460 C   0  0  2  0  0  0  0  0  0  0  0  0
   -2.3970   -6.8350  -13.4150 O   0  0  0  0  0  0  0  0  0  0  0  0
   -1.7110   -7.5880  -11.1150 C   0  0  2  0  0  0  0  0  0  0  0  0
   -3.1500   -7.9010  -10.7230 C   0  0  0  0  0  0  0  0  0  0  0  0
   -1.3860   -6.3100  -10.5500 O   0  0  0  0  0  0  0  0  0  0  0  0
    2.1190   -6.0260   -8.3700 C   0  0  0  0  0  0  0  0  0  0  0  0
    3.3294   -5.6336   -4.5754 H   0  0  0  0  0  0  0  0  0  0  0  0
    4.3143   -5.7467   -6.0734 H   0  0  0  0  0  0  0  0  0  0  0  0
    2.7843   -4.8055   -6.0734 H   0  0  0  0  0  0  0  0  0  0  0  0
    1.2560   -8.2530   -8.7650 H   0  0  0  0  0  0  0  0  0  0  0  0
    4.6623   -7.1414   -7.6397 H   0  0  0  0  0  0  0  0  0  0  0  0
    4.0045   -8.8360   -7.6484 H   0  0  0  0  0  0  0  0  0  0  0  0
    3.9475   -9.6634  -16.3123 H   0  0  0  0  0  0  0  0  0  0  0  0
    5.3749  -11.4805  -17.2613 H   0  0  0  0  0  0  0  0  0  0  0  0
    6.8237  -12.8443  -15.7585 H   0  0  0  0  0  0  0  0  0  0  0  0
    6.8527  -12.3962  -13.3029 H   0  0  0  0  0  0  0  0  0  0  0  0
    2.3306   -5.2188  -10.3219 H   0  0  0  0  0  0  0  0  0  0  0  0
    0.1251   -4.9005  -10.3031 H   0  0  0  0  0  0  0  0  0  0  0  0
   -0.6976   -5.0135  -12.7019 H   0  0  0  0  0  0  0  0  0  0  0  0
    1.0588   -5.2532  -12.5827 H   0  0  0  0  0  0  0  0  0  0  0  0
    0.6570   -7.7628  -12.4896 H   0  0  0  0  0  0  0  0  0  0  0  0
   -0.1660   -6.0910  -14.7740 H   0  0  0  0  0  0  0  0  0  0  0  0
    1.1660   -7.0160  -14.6060 H   0  0  0  0  0  0  0  0  0  0  0  0
   -0.3230   -7.7710  -14.8810 H   0  0  0  0  0  0  0  0  0  0  0  0
   -1.6212   -8.6792  -12.9412 H   0  0  0  0  0  0  0  0  0  0  0  0
   -3.1530   -6.5910  -12.8460 H   0  0  0  0  0  0  0  0  0  0  0  0
   -1.0410   -8.3645  -10.7174 H   0  0  0  0  0  0  0  0  0  0  0  0
   -3.2356   -7.9196   -9.6265 H   0  0  0  0  0  0  0  0  0  0  0  0
   -3.8175   -7.1270  -11.1298 H   0  0  0  0  0  0  0  0  0  0  0  0
   -3.4357   -8.8823  -11.1298 H   0  0  0  0  0  0  0  0  0  0  0  0
    2.8249   -5.2251   -8.1048 H   0  0  0  0  0  0  0  0  0  0  0  0
    1.0828   -5.7771   -8.0974 H   0  0  0  0  0  0  0  0  0  0  0  0
  1  2  1  0
  2  3  2  0
  2  4  1  0
  4  5  1  1
  4  6  1  0
  6  7  1  0
  7  8  2  0
  8  9  1  0
  9 10  2  0
  9 11  1  0
 11 12  1  0
 12 13  2  0
 12 14  1  0
 14 15  2  0
 15 16  1  0
 16 17  2  0
 17 18  1  0
 18 19  2  0
 19 20  1  0
 20 21  2  0
 20 22  1  0
 22 23  1  0
 23 24  2  0
  8 25  1  0
 25 26  1  0
 26 27  1  0
 27 28  1  0
 28 29  1  0
 29 30  1  0
 29 31  1  0
 31 32  1  0
 31 33  1  0
 33 34  1  0
 33 35  1  0
 25 36  1  0
 36  4  1  0
 23  7  1  0
 35 27  1  0
 22 11  2  0
 19 14  1  0
  1 37  1  0
  1 38  1  0
  1 39  1  0
  5 40  1  0
  6 41  1  0
  6 42  1  0
 15 43  1  0
 16 44  1  0
 17 45  1  0
 18 46  1  0
 25 47  1  6
 27 48  1  1
 28 49  1  0
 28 50  1  0
 29 51  1  1
 30 52  1  0
 30 53  1  0
 30 54  1  0
 31 55  1  6
 32 56  1  0
 33 57  1  1
 34 58  1  0
 34 59  1  0
 34 60  1  0
 36 61  1  0
 36 62  1  0
M  CHG  1  30   1
M  END
>  <meeko>  (6) 
{"is_sidechain": [false], "free_energy": -10.133, "intermolecular_energy": -12.339, "internal_energy": -1.284}

$$$$
3arq_ligand
     RDKit          3D

 62 66  0  0  0  0  0  0  0  0999 V2000
    0.5720   -0.0060  -11.8200 C   0  0  0  0  0  0  0  0  0  0  0  0
    1.6600   -0.8480  -11.2000 C   0  0  0  0  0  0  0  0  0  0  0  0
    2.3610   -0.4000  -10.2920 O   0  0  0  0  0  0  0  0  0  0  0  0
    1.8850   -2.2630  -11.7770 C   0  0  2  0  0  0  0  0  0  0  0  0
    3.1910   -2.7350  -11.4420 O   0  0  0  0  0  0  0  0  0  0  0  0
    1.7540   -2.2420  -13.3170 C   0  0  0  0  0  0  0  0  0  0  0  0
    1.6410   -3.6250  -13.9020 C   0  0  0  0  0  0  0  0  0  0  0  0
    1.2380   -4.6850  -13.1880 C   0  0  0  0  0  0  0  0  0  0  0  0
    1.1130   -5.9880  -13.8780 C   0  0  0  0  0  0  0  0  0  0  0  0
    0.3620   -6.8640  -13.4610 O   0  0  0  0  0  0  0  0  0  0  0  0
    1.9850   -6.2160  -15.0510 C   0  0  0  0  0  0  0  0  0  0  0  0
    2.4040   -7.6030  -15.3890 C   0  0  0  0  0  0  0  0  0  0  0  0
    2.3200   -8.5230  -14.5770 O   0  0  0  0  0  0  0  0  0  0  0  0
    2.9690   -7.8230  -16.7310 C   0  0  0  0  0  0  0  0  0  0  0  0
    3.1120   -9.1240  -17.2280 C   0  0  0  0  0  0  0  0  0  0  0  0
    3.6710   -9.3240  -18.4910 C   0  0  0  0  0  0  0  0  0  0  0  0
    4.0950   -8.2330  -19.2500 C   0  0  0  0  0  0  0  0  0  0  0  0
    3.9610   -6.9370  -18.7500 C   0  0  0  0  0  0  0  0  0  0  0  0
    3.3910   -6.7330  -17.4880 C   0  0  0  0  0  0  0  0  0  0  0  0
    3.2780   -5.3660  -16.9460 C   0  0  0  0  0  0  0  0  0  0  0  0
    3.9240   -4.4590  -17.4480 O   0  0  0  0  0  0  0  0  0  0  0  0
    2.4040   -5.1620  -15.7640 C   0  0  0  0  0  0  0  0  0  0  0  0
    2.0050   -3.7940  -15.3340 C   0  0  0  0  0  0  0  0  0  0  0  0
    1.9760   -2.8390  -16.0940 O   0  0  0  0  0  0  0  0  0  0  0  0
    0.8760   -4.6320  -11.7270 C   0  0  1  0  0  0  0  0  0  0  0  0
    1.8770   -5.3930  -11.0280 O   0  0  0  0  0  0  0  0  0  0  0  0
    1.3710   -6.4540  -10.2140 C   0  0  1  0  0  0  0  0  0  0  0  0
    2.0340   -7.7690  -10.5940 C   0  0  0  0  0  0  0  0  0  0  0  0
    3.5400   -7.5640  -10.4370 C   0  0  2  0  0  0  0  0  0  0  0  0
    4.2500   -8.7870  -10.8990 N   0  0  0  0  0  0  0  0  0  0  0  0
    3.8870   -7.2630   -8.9750 C   0  0  2  0  0  0  0  0  0  0  0  0
    3.6540   -8.4760   -8.2430 O   0  0  0  0  0  0  0  0  0  0  0  0
    3.0370   -6.0530   -8.5140 C   0  0  2  0  0  0  0  0  0  0  0  0
    3.1310   -5.7990   -7.0140 C   0  0  0  0  0  0  0  0  0  0  0  0
    1.6470   -6.2110   -8.8320 O   0  0  0  0  0  0  0  0  0  0  0  0
    0.8300   -3.2030  -11.1610 C   0  0  0  0  0  0  0  0  0  0  0  0
   -0.0293    0.4594  -11.0251 H   0  0  0  0  0  0  0  0  0  0  0  0
    1.0258    0.7785  -12.4434 H   0  0  0  0  0  0  0  0  0  0  0  0
   -0.0736   -0.6421  -12.4434 H   0  0  0  0  0  0  0  0  0  0  0  0
    3.6210   -2.0700  -10.8720 H   0  0  0  0  0  0  0  0  0  0  0  0
    0.8545   -1.6694  -13.5873 H   0  0  0  0  0  0  0  0  0  0  0  0
    2.6643   -1.7784  -13.7249 H   0  0  0  0  0  0  0  0  0  0  0  0
    2.7853   -9.9846  -16.6258 H   0  0  0  0  0  0  0  0  0  0  0  0
    3.7775  -10.3440  -18.8888 H   0  0  0  0  0  0  0  0  0  0  0  0
    4.5359   -8.3946  -20.2447 H   0  0  0  0  0  0  0  0  0  0  0  0
    4.3025   -6.0779  -19.3462 H   0  0  0  0  0  0  0  0  0  0  0  0
   -0.1372   -5.0402  -11.5972 H   0  0  0  0  0  0  0  0  0  0  0  0
    0.2844   -6.5064  -10.3768 H   0  0  0  0  0  0  0  0  0  0  0  0
    1.6896   -8.5735   -9.9276 H   0  0  0  0  0  0  0  0  0  0  0  0
    1.7796   -8.0566  -11.6248 H   0  0  0  0  0  0  0  0  0  0  0  0
    3.8583   -6.7061  -11.0475 H   0  0  0  0  0  0  0  0  0  0  0  0
    3.9370   -9.6130  -10.3730 H   0  0  0  0  0  0  0  0  0  0  0  0
    4.0050   -8.9950  -11.8800 H   0  0  0  0  0  0  0  0  0  0  0  0
    5.2670   -8.6630  -10.8030 H   0  0  0  0  0  0  0  0  0  0  0  0
    4.9351   -6.9722   -8.8111 H   0  0  0  0  0  0  0  0  0  0  0  0
    2.9050   -8.9500   -8.6530 H   0  0  0  0  0  0  0  0  0  0  0  0
    3.4598   -5.1982   -9.0622 H   0  0  0  0  0  0  0  0  0  0  0  0
    2.7994   -6.6950   -6.4689 H   0  0  0  0  0  0  0  0  0  0  0  0
    4.1730   -5.5710   -6.7453 H   0  0  0  0  0  0  0  0  0  0  0  0
    2.4884   -4.9476   -6.7453 H   0  0  0  0  0  0  0  0  0  0  0  0
   -0.1675   -2.7828  -11.3571 H   0  0  0  0  0  0  0  0  0  0  0  0
    1.0489   -3.2740  -10.0853 H   0  0  0  0  0  0  0  0  0  0  0  0
  1  2  1  0
  2  3  2  0
  2  4  1  0
  4  5  1  6
  4  6  1  0
  6  7  1  0
  7  8  2  0
  8  9  1  0
  9 10  2  0
  9 11  1  0
 11 12  1  0
 12 13  2  0
 12 14  1  0
 14 15  2  0
 15 16  1  0
 16 17  2  0
 17 18  1  0
 18 19  2  0
 19 20  1  0
 20 21  2  0
 20 22  1  0
 22 23  1  0
 23 24  2  0
  8 25  1  0
 25 26  1  0
 26 27  1  0
 27 28  1  0
 28 29  1  0
 29 30  1  0
 29 31  1  0
 31 32  1  0
 31 33  1  0
 33 34  1  0
 33 35  1  0
 25 36  1  0
 36  4  1  0
 23  7  1  0
 35 27  1  0
 22 11  2  0
 19 14  1  0
  1 37  1  0
  1 38  1  0
  1 39  1  0
  5 40  1  0
  6 41  1  0
  6 42  1  0
 15 43  1  0
 16 44  1  0
 17 45  1  0
 18 46  1  0
 25 47  1  6
 27 48  1  1
 28 49  1  0
 28 50  1  0
 29 51  1  6
 30 52  1  0
 30 53  1  0
 30 54  1  0
 31 55  1  6
 32 56  1  0
 33 57  1  6
 34 58  1  0
 34 59  1  0
 34 60  1  0
 36 61  1  0
 36 62  1  0
M  CHG  1  30   1
M  END
>  <meeko>  (7) 
{"is_sidechain": [false], "free_energy": -10.013, "intermolecular_energy": -12.42, "internal_energy": -1.051}

$$$$
3arq_ligand
     RDKit          3D

 62 66  0  0  0  0  0  0  0  0999 V2000
    2.9320   -6.2400   -6.6910 C   0  0  0  0  0  0  0  0  0  0  0  0
    2.1510   -7.3420   -7.3630 C   0  0  0  0  0  0  0  0  0  0  0  0
    1.7590   -8.3170   -6.7210 O   0  0  0  0  0  0  0  0  0  0  0  0
    1.9060   -7.2210   -8.8840 C   0  0  2  0  0  0  0  0  0  0  0  0
    0.7350   -7.9490   -9.2600 O   0  0  0  0  0  0  0  0  0  0  0  0
    3.1090   -7.7950   -9.6680 C   0  0  0  0  0  0  0  0  0  0  0  0
    3.0770   -7.4140  -11.1260 C   0  0  0  0  0  0  0  0  0  0  0  0
    2.3890   -6.3610  -11.5870 C   0  0  0  0  0  0  0  0  0  0  0  0
    2.4700   -6.0500  -13.0310 C   0  0  0  0  0  0  0  0  0  0  0  0
    2.2660   -4.9170  -13.4540 O   0  0  0  0  0  0  0  0  0  0  0  0
    2.7360   -7.1780  -13.9500 C   0  0  0  0  0  0  0  0  0  0  0  0
    2.2180   -7.1210  -15.3430 C   0  0  0  0  0  0  0  0  0  0  0  0
    1.3280   -6.3390  -15.6740 O   0  0  0  0  0  0  0  0  0  0  0  0
    2.7860   -8.0770  -16.3090 C   0  0  0  0  0  0  0  0  0  0  0  0
    2.5740   -7.8990  -17.6810 C   0  0  0  0  0  0  0  0  0  0  0  0
    3.0960   -8.8240  -18.5870 C   0  0  0  0  0  0  0  0  0  0  0  0
    3.8170   -9.9260  -18.1260 C   0  0  0  0  0  0  0  0  0  0  0  0
    4.0190  -10.1080  -16.7570 C   0  0  0  0  0  0  0  0  0  0  0  0
    3.5060   -9.1760  -15.8470 C   0  0  0  0  0  0  0  0  0  0  0  0
    3.6940   -9.3840  -14.3990 C   0  0  0  0  0  0  0  0  0  0  0  0
    4.0300  -10.4820  -13.9820 O   0  0  0  0  0  0  0  0  0  0  0  0
    3.4120   -8.2420  -13.4950 C   0  0  0  0  0  0  0  0  0  0  0  0
    3.8450   -8.2680  -12.0710 C   0  0  0  0  0  0  0  0  0  0  0  0
    4.7750   -8.9490  -11.6700 O   0  0  0  0  0  0  0  0  0  0  0  0
    1.5540   -5.4530  -10.7230 C   0  0  1  0  0  0  0  0  0  0  0  0
    0.1840   -5.6610  -11.1110 O   0  0  0  0  0  0  0  0  0  0  0  0
   -0.6990   -4.5760  -10.8170 C   0  0  1  0  0  0  0  0  0  0  0  0
   -0.7130   -3.5830  -11.9700 C   0  0  0  0  0  0  0  0  0  0  0  0
   -1.1240   -4.3640  -13.2170 C   0  0  2  0  0  0  0  0  0  0  0  0
   -1.0510   -3.4660  -14.4010 N   0  0  0  0  0  0  0  0  0  0  0  0
   -2.5420   -4.9230  -13.0540 C   0  0  2  0  0  0  0  0  0  0  0  0
   -3.4290   -3.7950  -13.0800 O   0  0  0  0  0  0  0  0  0  0  0  0
   -2.5880   -5.7560  -11.7480 C   0  0  2  0  0  0  0  0  0  0  0  0
   -4.0010   -6.1770  -11.3630 C   0  0  0  0  0  0  0  0  0  0  0  0
   -2.0370   -5.0460  -10.6300 O   0  0  0  0  0  0  0  0  0  0  0  0
    1.7090   -5.7300   -9.2180 C   0  0  0  0  0  0  0  0  0  0  0  0
    2.8547   -6.3491   -5.5992 H   0  0  0  0  0  0  0  0  0  0  0  0
    3.9882   -6.3030   -6.9919 H   0  0  0  0  0  0  0  0  0  0  0  0
    2.5226   -5.2644   -6.9919 H   0  0  0  0  0  0  0  0  0  0  0  0
    0.5100   -7.7130  -10.1800 H   0  0  0  0  0  0  0  0  0  0  0  0
    4.0379   -7.4097   -9.2222 H   0  0  0  0  0  0  0  0  0  0  0  0
    3.0580   -8.8921   -9.6060 H   0  0  0  0  0  0  0  0  0  0  0  0
    1.9988   -7.0344  -18.0437 H   0  0  0  0  0  0  0  0  0  0  0  0
    2.9385   -8.6838  -19.6666 H   0  0  0  0  0  0  0  0  0  0  0  0
    4.2270  -10.6527  -18.8428 H   0  0  0  0  0  0  0  0  0  0  0  0
    4.5800  -10.9818  -16.3939 H   0  0  0  0  0  0  0  0  0  0  0  0
    1.8861   -4.4153  -10.8742 H   0  0  0  0  0  0  0  0  0  0  0  0
   -0.3375   -4.0949   -9.8962 H   0  0  0  0  0  0  0  0  0  0  0  0
   -1.4375   -2.7798  -11.7698 H   0  0  0  0  0  0  0  0  0  0  0  0
    0.2744   -3.1168  -12.1027 H   0  0  0  0  0  0  0  0  0  0  0  0
   -0.4380   -5.2118  -13.3603 H   0  0  0  0  0  0  0  0  0  0  0  0
   -1.9630   -3.4080  -14.8730 H   0  0  0  0  0  0  0  0  0  0  0  0
   -0.8500   -2.4980  -14.1050 H   0  0  0  0  0  0  0  0  0  0  0  0
   -0.3280   -3.7980  -15.0530 H   0  0  0  0  0  0  0  0  0  0  0  0
   -2.8520   -5.6082  -13.8568 H   0  0  0  0  0  0  0  0  0  0  0  0
   -3.0860   -3.1420  -13.7200 H   0  0  0  0  0  0  0  0  0  0  0  0
   -1.9829   -6.6471  -11.9711 H   0  0  0  0  0  0  0  0  0  0  0  0
   -4.0899   -6.2035  -10.2669 H   0  0  0  0  0  0  0  0  0  0  0  0
   -4.7230   -5.4550  -11.7721 H   0  0  0  0  0  0  0  0  0  0  0  0
   -4.2101   -7.1765  -11.7721 H   0  0  0  0  0  0  0  0  0  0  0  0
    2.5827   -5.1724   -8.8497 H   0  0  0  0  0  0  0  0  0  0  0  0
    0.7749   -5.4107   -8.7327 H   0  0  0  0  0  0  0  0  0  0  0  0
  1  2  1  0
  2  3  2  0
  2  4  1  0
  4  5  1  6
  4  6  1  0
  6  7  1  0
  7  8  2  0
  8  9  1  0
  9 10  2  0
  9 11  1  0
 11 12  1  0
 12 13  2  0
 12 14  1  0
 14 15  2  0
 15 16  1  0
 16 17  2  0
 17 18  1  0
 18 19  2  0
 19 20  1  0
 20 21  2  0
 20 22  1  0
 22 23  1  0
 23 24  2  0
  8 25  1  0
 25 26  1  0
 26 27  1  0
 27 28  1  0
 28 29  1  0
 29 30  1  0
 29 31  1  0
 31 32  1  0
 31 33  1  0
 33 34  1  0
 33 35  1  0
 25 36  1  0
 36  4  1  0
 23  7  1  0
 35 27  1  0
 22 11  2  0
 19 14  1  0
  1 37  1  0
  1 38  1  0
  1 39  1  0
  5 40  1  0
  6 41  1  0
  6 42  1  0
 15 43  1  0
 16 44  1  0
 17 45  1  0
 18 46  1  0
 25 47  1  1
 27 48  1  1
 28 49  1  0
 28 50  1  0
 29 51  1  6
 30 52  1  0
 30 53  1  0
 30 54  1  0
 31 55  1  6
 32 56  1  0
 33 57  1  6
 34 58  1  0
 34 59  1  0
 34 60  1  0
 36 61  1  0
 36 62  1  0
M  CHG  1  30   1
M  END
>  <meeko>  (8) 
{"is_sidechain": [false], "free_energy": -9.577, "intermolecular_energy": -11.754, "internal_energy": -1.166}

$$$$
3arq_ligand
     RDKit          3D

 62 66  0  0  0  0  0  0  0  0999 V2000
   -1.8620   -8.6740  -11.0530 C   0  0  0  0  0  0  0  0  0  0  0  0
   -1.3930   -7.7000  -12.1060 C   0  0  0  0  0  0  0  0  0  0  0  0
   -1.5390   -7.9490  -13.3030 O   0  0  0  0  0  0  0  0  0  0  0  0
   -0.6880   -6.4120  -11.6250 C   0  0  2  0  0  0  0  0  0  0  0  0
   -1.1770   -6.0260  -10.3400 O   0  0  0  0  0  0  0  0  0  0  0  0
   -0.9520   -5.2550  -12.6150 C   0  0  0  0  0  0  0  0  0  0  0  0
   -0.0390   -4.0800  -12.3800 C   0  0  0  0  0  0  0  0  0  0  0  0
    1.1320   -4.1860  -11.7360 C   0  0  0  0  0  0  0  0  0  0  0  0
    1.9730   -2.9760  -11.6080 C   0  0  0  0  0  0  0  0  0  0  0  0
    3.1870   -3.0540  -11.4540 O   0  0  0  0  0  0  0  0  0  0  0  0
    1.2780   -1.6700  -11.6000 C   0  0  0  0  0  0  0  0  0  0  0  0
    1.8840   -0.5270  -10.8660 C   0  0  0  0  0  0  0  0  0  0  0  0
    2.7600   -0.6900  -10.0180 O   0  0  0  0  0  0  0  0  0  0  0  0
    1.3560    0.8150  -11.1640 C   0  0  0  0  0  0  0  0  0  0  0  0
    2.0550    1.9540  -10.7460 C   0  0  0  0  0  0  0  0  0  0  0  0
    1.5350    3.2220  -11.0110 C   0  0  0  0  0  0  0  0  0  0  0  0
    0.3190    3.3530  -11.6820 C   0  0  0  0  0  0  0  0  0  0  0  0
   -0.3820    2.2170  -12.0900 C   0  0  0  0  0  0  0  0  0  0  0  0
    0.1420    0.9450  -11.8340 C   0  0  0  0  0  0  0  0  0  0  0  0
   -0.6130   -0.2550  -12.2380 C   0  0  0  0  0  0  0  0  0  0  0  0
   -1.7970   -0.1600  -12.5250 O   0  0  0  0  0  0  0  0  0  0  0  0
    0.1010   -1.5560  -12.2290 C   0  0  0  0  0  0  0  0  0  0  0  0
   -0.4850   -2.7550  -12.8880 C   0  0  0  0  0  0  0  0  0  0  0  0
   -1.2970   -2.6860  -13.7970 O   0  0  0  0  0  0  0  0  0  0  0  0
    1.6630   -5.4700  -11.1550 C   0  0  1  0  0  0  0  0  0  0  0  0
    1.6630   -5.3050   -9.7260 O   0  0  0  0  0  0  0  0  0  0  0  0
    2.9570   -5.1760   -9.1320 C   0  0  1  0  0  0  0  0  0  0  0  0
    2.8890   -5.5040   -7.6480 C   0  0  0  0  0  0  0  0  0  0  0  0
    2.3220   -6.9180   -7.5360 C   0  0  2  0  0  0  0  0  0  0  0  0
    2.1310   -7.2550   -6.1000 N   0  0  0  0  0  0  0  0  0  0  0  0
    3.2650   -7.9250   -8.2030 C   0  0  2  0  0  0  0  0  0  0  0  0
    4.4400   -7.9890   -7.3790 O   0  0  0  0  0  0  0  0  0  0  0  0
    3.5180   -7.4630   -9.6590 C   0  0  2  0  0  0  0  0  0  0  0  0
    4.6150   -8.2620  -10.3530 C   0  0  0  0  0  0  0  0  0  0  0  0
    3.8860   -6.0790   -9.7350 O   0  0  0  0  0  0  0  0  0  0  0  0
    0.8230   -6.7030  -11.5290 C   0  0  0  0  0  0  0  0  0  0  0  0
   -1.6620   -8.2587  -10.0543 H   0  0  0  0  0  0  0  0  0  0  0  0
   -2.9421   -8.8470  -11.1686 H   0  0  0  0  0  0  0  0  0  0  0  0
   -1.3237   -9.6263  -11.1686 H   0  0  0  0  0  0  0  0  0  0  0  0
   -1.7020   -6.7650   -9.9770 H   0  0  0  0  0  0  0  0  0  0  0  0
   -0.7966   -5.6240  -13.6395 H   0  0  0  0  0  0  0  0  0  0  0  0
   -1.9862   -4.9124  -12.4632 H   0  0  0  0  0  0  0  0  0  0  0  0
    3.0104    1.8499  -10.2108 H   0  0  0  0  0  0  0  0  0  0  0  0
    2.0848    4.1191  -10.6903 H   0  0  0  0  0  0  0  0  0  0  0  0
   -0.0882    4.3535  -11.8900 H   0  0  0  0  0  0  0  0  0  0  0  0
   -1.3447    2.3215  -12.6119 H   0  0  0  0  0  0  0  0  0  0  0  0
    2.6678   -5.6552  -11.5625 H   0  0  0  0  0  0  0  0  0  0  0  0
    3.2886   -4.1384   -9.2847 H   0  0  0  0  0  0  0  0  0  0  0  0
    3.8947   -5.4627   -7.2042 H   0  0  0  0  0  0  0  0  0  0  0  0
    2.2570   -4.7809   -7.1117 H   0  0  0  0  0  0  0  0  0  0  0  0
    1.3519   -6.9654   -8.0525 H   0  0  0  0  0  0  0  0  0  0  0  0
    2.8250   -6.7720   -5.5150 H   0  0  0  0  0  0  0  0  0  0  0  0
    1.2190   -6.9030   -5.7670 H   0  0  0  0  0  0  0  0  0  0  0  0
    2.1910   -8.2730   -5.9640 H   0  0  0  0  0  0  0  0  0  0  0  0
    2.8560   -8.9432   -8.2796 H   0  0  0  0  0  0  0  0  0  0  0  0
    4.4530   -7.2080   -6.7920 H   0  0  0  0  0  0  0  0  0  0  0  0
    2.5581   -7.6313  -10.1692 H   0  0  0  0  0  0  0  0  0  0  0  0
    5.2606   -8.7322   -9.5966 H   0  0  0  0  0  0  0  0  0  0  0  0
    4.1593   -9.0412  -10.9816 H   0  0  0  0  0  0  0  0  0  0  0  0
    5.2168   -7.5892  -10.9816 H   0  0  0  0  0  0  0  0  0  0  0  0
    1.1682   -7.0766  -12.5043 H   0  0  0  0  0  0  0  0  0  0  0  0
    0.9595   -7.4429  -10.7266 H   0  0  0  0  0  0  0  0  0  0  0  0
  1  2  1  0
  2  3  2  0
  2  4  1  0
  4  5  1  1
  4  6  1  0
  6  7  1  0
  7  8  2  0
  8  9  1  0
  9 10  2  0
  9 11  1  0
 11 12  1  0
 12 13  2  0
 12 14  1  0
 14 15  2  0
 15 16  1  0
 16 17  2  0
 17 18  1  0
 18 19  2  0
 19 20  1  0
 20 21  2  0
 20 22  1  0
 22 23  1  0
 23 24  2  0
  8 25  1  0
 25 26  1  0
 26 27  1  0
 27 28  1  0
 28 29  1  0
 29 30  1  0
 29 31  1  0
 31 32  1  0
 31 33  1  0
 33 34  1  0
 33 35  1  0
 25 36  1  0
 36  4  1  0
 23  7  1  0
 35 27  1  0
 22 11  2  0
 19 14  1  0
  1 37  1  0
  1 38  1  0
  1 39  1  0
  5 40  1  0
  6 41  1  0
  6 42  1  0
 15 43  1  0
 16 44  1  0
 17 45  1  0
 18 46  1  0
 25 47  1  6
 27 48  1  1
 28 49  1  0
 28 50  1  0
 29 51  1  6
 30 52  1  0
 30 53  1  0
 30 54  1  0
 31 55  1  6
 32 56  1  0
 33 57  1  6
 34 58  1  0
 34 59  1  0
 34 60  1  0
 36 61  1  0
 36 62  1  0
M  CHG  1  30   1
M  END
>  <meeko>  (9) 
{"is_sidechain": [false], "free_energy": -9.334, "intermolecular_energy": -12.401, "internal_energy": -0.212}

$$$$
