
     RDKit          3D

 20 21  0  0  0  0  0  0  0  0999 V2000
    1.8840    0.0190   -2.6960 N   0  0  0  0  0  0  0  0  0  0  0  0
    2.7160   -1.1840   -2.5910 C   0  0  1  0  0  0  0  0  0  0  0  0
    2.9480   -1.5790   -1.1220 C   0  0  0  0  0  0  0  0  0  0  0  0
    4.0390   -0.7900   -0.4510 C   0  0  2  0  0  0  0  0  0  0  0  0
    5.3700   -0.8160   -1.1930 C   0  0  0  0  0  0  0  0  0  0  0  0
    5.8620   -1.9130   -1.4870 O   0  0  0  0  0  0  0  0  0  0  0  0
    5.8930    0.2410   -1.4970 O   0  0  0  0  0  0  0  0  0  0  0  0
    4.2310   -1.3470    0.9810 C   0  0  0  0  0  0  0  0  0  0  0  0
    4.2420   -0.1140    1.8580 C   0  0  1  0  0  0  0  0  0  0  0  0
    5.6080    0.3520    1.8500 O   0  0  0  0  0  0  0  0  0  0  0  0
    5.7940    1.6770    2.3990 C   0  0  0  0  0  0  0  0  0  0  0  0
    5.0160    2.6580    1.5300 C   0  0  1  0  0  0  0  0  0  0  0  0
    5.6110    2.6550    0.2210 O   0  0  0  0  0  0  0  0  0  0  0  0
    3.5340    2.2980    1.4570 C   0  0  1  0  0  0  0  0  0  0  0  0
    2.8910    3.1300    0.4850 O   0  0  0  0  0  0  0  0  0  0  0  0
    3.3070    0.8360    1.0820 C   0  0  1  0  0  0  0  0  0  0  0  0
    3.6000    0.5820   -0.3000 O   0  0  0  0  0  0  0  0  0  0  0  0
    2.0300   -2.3460   -3.3150 C   0  0  0  0  0  0  0  0  0  0  0  0
    2.5190   -3.4870   -3.2410 O   0  0  0  0  0  0  0  0  0  0  0  0
    0.9980   -2.1170   -3.9730 O   0  0  0  0  0  0  0  0  0  0  0  0
  2  1  1  1
  3  2  1  0
  4  3  1  6
  5  4  1  0
  6  5  2  0
  7  5  1  0
  8  4  1  0
  9  8  1  6
 10  9  1  0
 11 10  1  0
 12 11  1  0
 12 13  1  6
 14 12  1  0
 14 15  1  6
 16 14  1  0
 16  9  1  0
 16 17  1  6
 17  4  1  0
 18  2  1  0
 19 18  1  0
 20 18  2  0
M  CHG  3   1   1   7  -1  19  -1
M  END
$$$$
