3zdg_ligand
     RDKit          3D

 34 33  0  0  0  0  0  0  0  0999 V2000
   -6.7030   18.6340   18.5070 C   0  0  0  0  0  0  0  0  0  0  0  0
   -5.3370   19.2520   18.8230 C   0  0  2  0  0  0  0  0  0  0  0  0
   -4.2290   18.6960   17.9010 C   0  0  0  0  0  0  0  0  0  0  0  0
   -3.0280   17.9780   18.5190 C   0  0  0  0  0  0  0  0  0  0  0  0
   -3.3640   16.7340   19.1440 O   0  0  0  0  0  0  0  0  0  0  0  0
   -2.7420   16.4650   20.3250 C   0  0  0  0  0  0  0  0  0  0  0  0
   -2.6440   17.3100   21.2130 O   0  0  0  0  0  0  0  0  0  0  0  0
   -2.3090   15.1610   20.4270 N   0  0  0  0  0  0  0  0  0  0  0  0
   -1.5020   14.7680   21.5690 C   0  0  0  0  0  0  0  0  0  0  0  0
   -2.3250   14.2380   19.3010 C   0  0  0  0  0  0  0  0  0  0  0  0
   -4.9930   19.1290   20.3050 N   0  0  0  0  0  0  0  0  0  0  0  0
   -6.0710   18.4850   21.1410 C   0  0  0  0  0  0  0  0  0  0  0  0
   -4.5750   20.4300   20.9380 C   0  0  0  0  0  0  0  0  0  0  0  0
   -7.2248   18.3980   19.4462 H   0  0  0  0  0  0  0  0  0  0  0  0
   -7.3027   19.3485   17.9240 H   0  0  0  0  0  0  0  0  0  0  0  0
   -6.5622   17.7119   17.9240 H   0  0  0  0  0  0  0  0  0  0  0  0
   -5.4021   20.3290   18.6087 H   0  0  0  0  0  0  0  0  0  0  0  0
   -4.7105   17.9832   17.2154 H   0  0  0  0  0  0  0  0  0  0  0  0
   -3.7887   19.5982   17.4514 H   0  0  0  0  0  0  0  0  0  0  0  0
   -2.2937   17.7808   17.7240 H   0  0  0  0  0  0  0  0  0  0  0  0
   -2.6274   18.6360   19.3042 H   0  0  0  0  0  0  0  0  0  0  0  0
   -2.0314   15.0258   22.4982 H   0  0  0  0  0  0  0  0  0  0  0  0
   -1.3250   13.6828   21.5368 H   0  0  0  0  0  0  0  0  0  0  0  0
   -0.5385   15.2978   21.5368 H   0  0  0  0  0  0  0  0  0  0  0  0
   -2.3429   13.2037   19.6750 H   0  0  0  0  0  0  0  0  0  0  0  0
   -3.2201   14.4221   18.6887 H   0  0  0  0  0  0  0  0  0  0  0  0
   -1.4241   14.3909   18.6887 H   0  0  0  0  0  0  0  0  0  0  0  0
   -4.1800   18.4790   20.3870 H   0  0  0  0  0  0  0  0  0  0  0  0
   -5.8396   18.6232   22.2075 H   0  0  0  0  0  0  0  0  0  0  0  0
   -7.0403   18.9521   20.9126 H   0  0  0  0  0  0  0  0  0  0  0  0
   -6.1191   17.4101   20.9126 H   0  0  0  0  0  0  0  0  0  0  0  0
   -4.6066   20.3317   22.0331 H   0  0  0  0  0  0  0  0  0  0  0  0
   -3.5515   20.6795   20.6216 H   0  0  0  0  0  0  0  0  0  0  0  0
   -5.2617   21.2290   20.6216 H   0  0  0  0  0  0  0  0  0  0  0  0
  1  2  1  0
  2  3  1  0
  3  4  1  0
  4  5  1  0
  5  6  1  0
  6  7  2  0
  6  8  1  0
  8  9  1  0
  8 10  1  0
  2 11  1  0
 11 12  1  0
 11 13  1  0
  1 14  1  0
  1 15  1  0
  1 16  1  0
  2 17  1  6
  3 18  1  0
  3 19  1  0
  4 20  1  0
  4 21  1  0
  9 22  1  0
  9 23  1  0
  9 24  1  0
 10 25  1  0
 10 26  1  0
 10 27  1  0
 11 28  1  0
 12 29  1  0
 12 30  1  0
 12 31  1  0
 13 32  1  0
 13 33  1  0
 13 34  1  0
M  CHG  1  11   1
M  END
>  <meeko>  (1) 
{"is_sidechain": [false], "free_energy": -4.297, "intermolecular_energy": -5.553, "internal_energy": -0.852}

$$$$
3zdg_ligand
     RDKit          3D

 34 33  0  0  0  0  0  0  0  0999 V2000
   -1.8860   22.8080   17.4300 C   0  0  0  0  0  0  0  0  0  0  0  0
   -2.2990   21.6190   18.3030 C   0  0  2  0  0  0  0  0  0  0  0  0
   -1.5510   20.3280   17.9050 C   0  0  0  0  0  0  0  0  0  0  0  0
   -2.3520   19.0710   17.5610 C   0  0  0  0  0  0  0  0  0  0  0  0
   -2.7880   18.3380   18.7110 O   0  0  0  0  0  0  0  0  0  0  0  0
   -4.1350   18.2280   18.8820 C   0  0  0  0  0  0  0  0  0  0  0  0
   -4.9250   18.4430   17.9640 O   0  0  0  0  0  0  0  0  0  0  0  0
   -4.4900   17.7990   20.1430 N   0  0  0  0  0  0  0  0  0  0  0  0
   -5.8930   17.7740   20.5150 C   0  0  0  0  0  0  0  0  0  0  0  0
   -3.5310   17.6880   21.2330 C   0  0  0  0  0  0  0  0  0  0  0  0
   -3.8140   21.4420   18.3320 N   0  0  0  0  0  0  0  0  0  0  0  0
   -4.5370   22.0970   17.1820 C   0  0  0  0  0  0  0  0  0  0  0  0
   -4.4480   21.8660   19.6310 C   0  0  0  0  0  0  0  0  0  0  0  0
   -1.5932   23.6509   18.0732 H   0  0  0  0  0  0  0  0  0  0  0  0
   -1.0357   22.5187   16.7949 H   0  0  0  0  0  0  0  0  0  0  0  0
   -2.7325   23.1081   16.7949 H   0  0  0  0  0  0  0  0  0  0  0  0
   -1.9937   21.8435   19.3357 H   0  0  0  0  0  0  0  0  0  0  0  0
   -0.9408   20.5705   17.0224 H   0  0  0  0  0  0  0  0  0  0  0  0
   -1.0110   20.0484   18.8216 H   0  0  0  0  0  0  0  0  0  0  0  0
   -3.2384   19.3706   16.9827 H   0  0  0  0  0  0  0  0  0  0  0  0
   -1.6847   18.4089   16.9897 H   0  0  0  0  0  0  0  0  0  0  0  0
   -5.9816   17.7724   21.6114 H   0  0  0  0  0  0  0  0  0  0  0  0
   -6.3962   18.6633   20.1077 H   0  0  0  0  0  0  0  0  0  0  0  0
   -6.3642   16.8673   20.1077 H   0  0  0  0  0  0  0  0  0  0  0  0
   -4.0607   17.7493   22.1951 H   0  0  0  0  0  0  0  0  0  0  0  0
   -3.0072   16.7232   21.1637 H   0  0  0  0  0  0  0  0  0  0  0  0
   -2.8006   18.5076   21.1637 H   0  0  0  0  0  0  0  0  0  0  0  0
   -4.0150   20.4240   18.2170 H   0  0  0  0  0  0  0  0  0  0  0  0
   -5.2989   22.7872   17.5733 H   0  0  0  0  0  0  0  0  0  0  0  0
   -3.8167   22.6564   16.5669 H   0  0  0  0  0  0  0  0  0  0  0  0
   -5.0228   21.3252   16.5669 H   0  0  0  0  0  0  0  0  0  0  0  0
   -3.8589   21.4720   20.4723 H   0  0  0  0  0  0  0  0  0  0  0  0
   -4.4747   22.9644   19.6846 H   0  0  0  0  0  0  0  0  0  0  0  0
   -5.4733   21.4712   19.6846 H   0  0  0  0  0  0  0  0  0  0  0  0
  1  2  1  0
  2  3  1  0
  3  4  1  0
  4  5  1  0
  5  6  1  0
  6  7  2  0
  6  8  1  0
  8  9  1  0
  8 10  1  0
  2 11  1  0
 11 12  1  0
 11 13  1  0
  1 14  1  0
  1 15  1  0
  1 16  1  0
  2 17  1  1
  3 18  1  0
  3 19  1  0
  4 20  1  0
  4 21  1  0
  9 22  1  0
  9 23  1  0
  9 24  1  0
 10 25  1  0
 10 26  1  0
 10 27  1  0
 11 28  1  0
 12 29  1  0
 12 30  1  0
 12 31  1  0
 13 32  1  0
 13 33  1  0
 13 34  1  0
M  CHG  1  11   1
M  END
>  <meeko>  (2) 
{"is_sidechain": [false], "free_energy": -4.258, "intermolecular_energy": -5.718, "internal_energy": -0.637}

$$$$
3zdg_ligand
     RDKit          3D

 34 33  0  0  0  0  0  0  0  0999 V2000
   -1.5890   22.3270   17.3900 C   0  0  0  0  0  0  0  0  0  0  0  0
   -2.2840   21.3500   18.3440 C   0  0  2  0  0  0  0  0  0  0  0  0
   -1.6570   19.9400   18.2770 C   0  0  0  0  0  0  0  0  0  0  0  0
   -2.2650   18.8070   19.1060 C   0  0  0  0  0  0  0  0  0  0  0  0
   -3.6250   18.5160   18.7680 O   0  0  0  0  0  0  0  0  0  0  0  0
   -4.4190   18.0730   19.7820 C   0  0  0  0  0  0  0  0  0  0  0  0
   -3.9460   17.6140   20.8210 O   0  0  0  0  0  0  0  0  0  0  0  0
   -5.7630   18.2540   19.5390 N   0  0  0  0  0  0  0  0  0  0  0  0
   -6.7320   17.6980   20.4670 C   0  0  0  0  0  0  0  0  0  0  0  0
   -6.2780   18.6730   18.2440 C   0  0  0  0  0  0  0  0  0  0  0  0
   -3.7960   21.3380   18.1340 N   0  0  0  0  0  0  0  0  0  0  0  0
   -4.2410   21.8790   16.7980 C   0  0  0  0  0  0  0  0  0  0  0  0
   -4.5650   22.0190   19.2340 C   0  0  0  0  0  0  0  0  0  0  0  0
   -1.0484   23.0870   17.9732 H   0  0  0  0  0  0  0  0  0  0  0  0
   -0.8780   21.7771   16.7559 H   0  0  0  0  0  0  0  0  0  0  0  0
   -2.3417   22.8183   16.7559 H   0  0  0  0  0  0  0  0  0  0  0  0
   -2.1169   21.7113   19.3695 H   0  0  0  0  0  0  0  0  0  0  0  0
   -1.6944   19.6225   17.2245 H   0  0  0  0  0  0  0  0  0  0  0  0
   -0.6596   20.0786   18.7196 H   0  0  0  0  0  0  0  0  0  0  0  0
   -1.6651   17.8989   18.9467 H   0  0  0  0  0  0  0  0  0  0  0  0
   -2.2566   19.1350   20.1559 H   0  0  0  0  0  0  0  0  0  0  0  0
   -6.4019   17.8874   21.4990 H   0  0  0  0  0  0  0  0  0  0  0  0
   -7.7110   18.1717   20.3024 H   0  0  0  0  0  0  0  0  0  0  0  0
   -6.8170   16.6137   20.3024 H   0  0  0  0  0  0  0  0  0  0  0  0
   -7.1236   19.3610   18.3909 H   0  0  0  0  0  0  0  0  0  0  0  0
   -5.4830   19.1840   17.6811 H   0  0  0  0  0  0  0  0  0  0  0  0
   -6.6166   17.7907   17.6811 H   0  0  0  0  0  0  0  0  0  0  0  0
   -4.1040   20.3410   18.1230 H   0  0  0  0  0  0  0  0  0  0  0  0
   -4.9326   22.7198   16.9549 H   0  0  0  0  0  0  0  0  0  0  0  0
   -3.3638   22.2264   16.2325 H   0  0  0  0  0  0  0  0  0  0  0  0
   -4.7511   21.0853   16.2325 H   0  0  0  0  0  0  0  0  0  0  0  0
   -4.1849   21.6824   20.2098 H   0  0  0  0  0  0  0  0  0  0  0  0
   -4.4406   23.1086   19.1481 H   0  0  0  0  0  0  0  0  0  0  0  0
   -5.6315   21.7638   19.1481 H   0  0  0  0  0  0  0  0  0  0  0  0
  1  2  1  0
  2  3  1  0
  3  4  1  0
  4  5  1  0
  5  6  1  0
  6  7  2  0
  6  8  1  0
  8  9  1  0
  8 10  1  0
  2 11  1  0
 11 12  1  0
 11 13  1  0
  1 14  1  0
  1 15  1  0
  1 16  1  0
  2 17  1  1
  3 18  1  0
  3 19  1  0
  4 20  1  0
  4 21  1  0
  9 22  1  0
  9 23  1  0
  9 24  1  0
 10 25  1  0
 10 26  1  0
 10 27  1  0
 11 28  1  0
 12 29  1  0
 12 30  1  0
 12 31  1  0
 13 32  1  0
 13 33  1  0
 13 34  1  0
M  CHG  1  11   1
M  END
>  <meeko>  (3) 
{"is_sidechain": [false], "free_energy": -4.202, "intermolecular_energy": -5.619, "internal_energy": -0.663}

$$$$
3zdg_ligand
     RDKit          3D

 34 33  0  0  0  0  0  0  0  0999 V2000
   -1.5260   17.5060   20.6700 C   0  0  0  0  0  0  0  0  0  0  0  0
   -2.7660   16.6920   20.2860 C   0  0  2  0  0  0  0  0  0  0  0  0
   -4.0520   17.2770   20.9110 C   0  0  0  0  0  0  0  0  0  0  0  0
   -4.9680   18.1580   20.0600 C   0  0  0  0  0  0  0  0  0  0  0  0
   -4.5390   18.2850   18.7010 O   0  0  0  0  0  0  0  0  0  0  0  0
   -4.8340   19.4620   18.0820 C   0  0  0  0  0  0  0  0  0  0  0  0
   -5.9820   19.9020   18.0420 O   0  0  0  0  0  0  0  0  0  0  0  0
   -3.7240   20.1070   17.5820 N   0  0  0  0  0  0  0  0  0  0  0  0
   -3.9010   21.2990   16.7720 C   0  0  0  0  0  0  0  0  0  0  0  0
   -2.4090   19.4840   17.5340 C   0  0  0  0  0  0  0  0  0  0  0  0
   -2.5810   15.2080   20.5870 N   0  0  0  0  0  0  0  0  0  0  0  0
   -1.5470   14.9150   21.6460 C   0  0  0  0  0  0  0  0  0  0  0  0
   -2.3010   14.3730   19.3660 C   0  0  0  0  0  0  0  0  0  0  0  0
   -1.4465   17.5582   21.7659 H   0  0  0  0  0  0  0  0  0  0  0  0
   -0.6277   17.0213   20.2599 H   0  0  0  0  0  0  0  0  0  0  0  0
   -1.6135   18.5229   20.2599 H   0  0  0  0  0  0  0  0  0  0  0  0
   -2.8915   16.7724   19.1961 H   0  0  0  0  0  0  0  0  0  0  0  0
   -4.6567   16.4252   21.2556 H   0  0  0  0  0  0  0  0  0  0  0  0
   -3.6753   17.9645   21.6827 H   0  0  0  0  0  0  0  0  0  0  0  0
   -5.9768   17.7195   20.0668 H   0  0  0  0  0  0  0  0  0  0  0  0
   -4.9471   19.1657   20.5006 H   0  0  0  0  0  0  0  0  0  0  0  0
   -4.0307   22.1723   17.4282 H   0  0  0  0  0  0  0  0  0  0  0  0
   -3.0148   21.4458   16.1371 H   0  0  0  0  0  0  0  0  0  0  0  0
   -4.7916   21.1820   16.1371 H   0  0  0  0  0  0  0  0  0  0  0  0
   -2.0469   19.3125   18.5584 H   0  0  0  0  0  0  0  0  0  0  0  0
   -2.4778   18.5228   17.0036 H   0  0  0  0  0  0  0  0  0  0  0  0
   -1.7087   20.1461   17.0036 H   0  0  0  0  0  0  0  0  0  0  0  0
   -3.4750   14.8560   20.9950 H   0  0  0  0  0  0  0  0  0  0  0  0
   -1.9961   15.0422   22.6421 H   0  0  0  0  0  0  0  0  0  0  0  0
   -1.1904   13.8804   21.5340 H   0  0  0  0  0  0  0  0  0  0  0  0
   -0.7007   15.6087   21.5340 H   0  0  0  0  0  0  0  0  0  0  0  0
   -1.9654   13.3722   19.6753 H   0  0  0  0  0  0  0  0  0  0  0  0
   -3.2181   14.2828   18.7653 H   0  0  0  0  0  0  0  0  0  0  0  0
   -1.5150   14.8539   18.7653 H   0  0  0  0  0  0  0  0  0  0  0  0
  1  2  1  0
  2  3  1  0
  3  4  1  0
  4  5  1  0
  5  6  1  0
  6  7  2  0
  6  8  1  0
  8  9  1  0
  8 10  1  0
  2 11  1  0
 11 12  1  0
 11 13  1  0
  1 14  1  0
  1 15  1  0
  1 16  1  0
  2 17  1  6
  3 18  1  0
  3 19  1  0
  4 20  1  0
  4 21  1  0
  9 22  1  0
  9 23  1  0
  9 24  1  0
 10 25  1  0
 10 26  1  0
 10 27  1  0
 11 28  1  0
 12 29  1  0
 12 30  1  0
 12 31  1  0
 13 32  1  0
 13 33  1  0
 13 34  1  0
M  CHG  1  11   1
M  END
>  <meeko>  (4) 
{"is_sidechain": [false], "free_energy": -3.968, "intermolecular_energy": -5.671, "internal_energy": -0.308}

$$$$
3zdg_ligand
     RDKit          3D

 34 33  0  0  0  0  0  0  0  0999 V2000
   -4.9420   21.0890   17.5600 C   0  0  0  0  0  0  0  0  0  0  0  0
   -3.6190   20.3420   17.3620 C   0  0  2  0  0  0  0  0  0  0  0  0
   -3.7800   18.8220   17.5840 C   0  0  0  0  0  0  0  0  0  0  0  0
   -3.7290   18.2610   19.0070 C   0  0  0  0  0  0  0  0  0  0  0  0
   -3.0810   16.9870   19.0960 O   0  0  0  0  0  0  0  0  0  0  0  0
   -2.5250   16.6760   20.3000 C   0  0  0  0  0  0  0  0  0  0  0  0
   -2.2930   17.5350   21.1480 O   0  0  0  0  0  0  0  0  0  0  0  0
   -2.3230   15.3230   20.4720 N   0  0  0  0  0  0  0  0  0  0  0  0
   -1.6060   14.8570   21.6460 C   0  0  0  0  0  0  0  0  0  0  0  0
   -2.4870   14.3610   19.3920 C   0  0  0  0  0  0  0  0  0  0  0  0
   -2.4990   20.9490   18.2020 N   0  0  0  0  0  0  0  0  0  0  0  0
   -2.9730   21.8970   19.2760 C   0  0  0  0  0  0  0  0  0  0  0  0
   -1.4220   21.6130   17.3850 C   0  0  0  0  0  0  0  0  0  0  0  0
   -5.1419   21.2019   18.6358 H   0  0  0  0  0  0  0  0  0  0  0  0
   -4.8754   22.0828   17.0932 H   0  0  0  0  0  0  0  0  0  0  0  0
   -5.7586   20.5186   17.0932 H   0  0  0  0  0  0  0  0  0  0  0  0
   -3.3206   20.4681   16.3108 H   0  0  0  0  0  0  0  0  0  0  0  0
   -4.7556   18.5382   17.1625 H   0  0  0  0  0  0  0  0  0  0  0  0
   -2.8876   18.3938   17.1042 H   0  0  0  0  0  0  0  0  0  0  0  0
   -3.1839   18.9740   19.6430 H   0  0  0  0  0  0  0  0  0  0  0  0
   -4.7689   18.1187   19.3361 H   0  0  0  0  0  0  0  0  0  0  0  0
   -2.1279   15.1962   22.5530 H   0  0  0  0  0  0  0  0  0  0  0  0
   -1.5630   13.7579   21.6371 H   0  0  0  0  0  0  0  0  0  0  0  0
   -0.5841   15.2640   21.6371 H   0  0  0  0  0  0  0  0  0  0  0  0
   -2.6576   13.3601   19.8153 H   0  0  0  0  0  0  0  0  0  0  0  0
   -3.3490   14.6489   18.7723 H   0  0  0  0  0  0  0  0  0  0  0  0
   -1.5783   14.3470   18.7723 H   0  0  0  0  0  0  0  0  0  0  0  0
   -2.0430   20.1710   18.7280 H   0  0  0  0  0  0  0  0  0  0  0  0
   -2.7581   21.4671   20.2654 H   0  0  0  0  0  0  0  0  0  0  0  0
   -2.4499   22.8591   19.1727 H   0  0  0  0  0  0  0  0  0  0  0  0
   -4.0566   22.0558   19.1727 H   0  0  0  0  0  0  0  0  0  0  0  0
   -0.6809   22.0699   18.0573 H   0  0  0  0  0  0  0  0  0  0  0  0
   -0.9279   20.8625   16.7505 H   0  0  0  0  0  0  0  0  0  0  0  0
   -1.8706   22.3916   16.7505 H   0  0  0  0  0  0  0  0  0  0  0  0
  1  2  1  0
  2  3  1  0
  3  4  1  0
  4  5  1  0
  5  6  1  0
  6  7  2  0
  6  8  1  0
  8  9  1  0
  8 10  1  0
  2 11  1  0
 11 12  1  0
 11 13  1  0
  1 14  1  0
  1 15  1  0
  1 16  1  0
  2 17  1  6
  3 18  1  0
  3 19  1  0
  4 20  1  0
  4 21  1  0
  9 22  1  0
  9 23  1  0
  9 24  1  0
 10 25  1  0
 10 26  1  0
 10 27  1  0
 11 28  1  0
 12 29  1  0
 12 30  1  0
 12 31  1  0
 13 32  1  0
 13 33  1  0
 13 34  1  0
M  CHG  1  11   1
M  END
>  <meeko>  (5) 
{"is_sidechain": [false], "free_energy": -3.93, "intermolecular_energy": -5.722, "internal_energy": -0.209}

$$$$
3zdg_ligand
     RDKit          3D

 34 33  0  0  0  0  0  0  0  0999 V2000
   -2.5980   21.8930   19.4350 C   0  0  0  0  0  0  0  0  0  0  0  0
   -3.4430   20.6550   19.7520 C   0  0  2  0  0  0  0  0  0  0  0  0
   -2.7990   19.7890   20.8570 C   0  0  0  0  0  0  0  0  0  0  0  0
   -3.4630   18.4720   21.2620 C   0  0  0  0  0  0  0  0  0  0  0  0
   -2.5830   17.3450   21.2020 O   0  0  0  0  0  0  0  0  0  0  0  0
   -2.7360   16.5140   20.1340 C   0  0  0  0  0  0  0  0  0  0  0  0
   -3.2860   16.8850   19.0990 O   0  0  0  0  0  0  0  0  0  0  0  0
   -2.1630   15.2750   20.3220 N   0  0  0  0  0  0  0  0  0  0  0  0
   -2.3720   14.2380   19.3260 C   0  0  0  0  0  0  0  0  0  0  0  0
   -1.6440   14.8370   21.6100 C   0  0  0  0  0  0  0  0  0  0  0  0
   -3.7720   19.8610   18.4910 N   0  0  0  0  0  0  0  0  0  0  0  0
   -2.6680   19.8440   17.4630 C   0  0  0  0  0  0  0  0  0  0  0  0
   -5.0640   20.2730   17.8360 C   0  0  0  0  0  0  0  0  0  0  0  0
   -2.2748   22.3665   20.3738 H   0  0  0  0  0  0  0  0  0  0  0  0
   -1.7144   21.5943   18.8518 H   0  0  0  0  0  0  0  0  0  0  0  0
   -3.1981   22.6070   18.8518 H   0  0  0  0  0  0  0  0  0  0  0  0
   -4.4042   21.0034   20.1578 H   0  0  0  0  0  0  0  0  0  0  0  0
   -1.7811   19.5440   20.5195 H   0  0  0  0  0  0  0  0  0  0  0  0
   -2.8875   20.4121   21.7592 H   0  0  0  0  0  0  0  0  0  0  0  0
   -3.8315   18.5711   22.2937 H   0  0  0  0  0  0  0  0  0  0  0  0
   -4.2753   18.2859   20.5440 H   0  0  0  0  0  0  0  0  0  0  0  0
   -2.5652   13.2794   19.8297 H   0  0  0  0  0  0  0  0  0  0  0  0
   -3.2350   14.5022   18.6971 H   0  0  0  0  0  0  0  0  0  0  0  0
   -1.4741   14.1473   18.6971 H   0  0  0  0  0  0  0  0  0  0  0  0
   -2.2144   15.3184   22.4180 H   0  0  0  0  0  0  0  0  0  0  0  0
   -1.7420   13.7445   21.6925 H   0  0  0  0  0  0  0  0  0  0  0  0
   -0.5835   15.1173   21.6925 H   0  0  0  0  0  0  0  0  0  0  0  0
   -3.8810   18.8600   18.7690 H   0  0  0  0  0  0  0  0  0  0  0  0
   -1.6931   19.8290   17.9722 H   0  0  0  0  0  0  0  0  0  0  0  0
   -2.7668   18.9473   16.8336 H   0  0  0  0  0  0  0  0  0  0  0  0
   -2.7392   20.7433   16.8336 H   0  0  0  0  0  0  0  0  0  0  0  0
   -5.8083   20.5103   18.6104 H   0  0  0  0  0  0  0  0  0  0  0  0
   -4.8908   21.1605   17.2096 H   0  0  0  0  0  0  0  0  0  0  0  0
   -5.4366   19.4491   17.2096 H   0  0  0  0  0  0  0  0  0  0  0  0
  1  2  1  0
  2  3  1  0
  3  4  1  0
  4  5  1  0
  5  6  1  0
  6  7  2  0
  6  8  1  0
  8  9  1  0
  8 10  1  0
  2 11  1  0
 11 12  1  0
 11 13  1  0
  1 14  1  0
  1 15  1  0
  1 16  1  0
  2 17  1  1
  3 18  1  0
  3 19  1  0
  4 20  1  0
  4 21  1  0
  9 22  1  0
  9 23  1  0
  9 24  1  0
 10 25  1  0
 10 26  1  0
 10 27  1  0
 11 28  1  0
 12 29  1  0
 12 30  1  0
 12 31  1  0
 13 32  1  0
 13 33  1  0
 13 34  1  0
M  CHG  1  11   1
M  END
>  <meeko>  (6) 
{"is_sidechain": [false], "free_energy": -3.927, "intermolecular_energy": -5.382, "internal_energy": -0.545}

$$$$
3zdg_ligand
     RDKit          3D

 34 33  0  0  0  0  0  0  0  0999 V2000
   -1.5560   21.6090   17.5510 C   0  0  0  0  0  0  0  0  0  0  0  0
   -2.9490   21.9530   18.0870 C   0  0  2  0  0  0  0  0  0  0  0  0
   -2.8990   22.4130   19.5610 C   0  0  0  0  0  0  0  0  0  0  0  0
   -2.6680   21.3790   20.6640 C   0  0  0  0  0  0  0  0  0  0  0  0
   -3.5840   20.2790   20.6190 O   0  0  0  0  0  0  0  0  0  0  0  0
   -3.0510   19.0410   20.8120 C   0  0  0  0  0  0  0  0  0  0  0  0
   -1.8970   18.8870   21.2100 O   0  0  0  0  0  0  0  0  0  0  0  0
   -3.9470   18.0200   20.5800 N   0  0  0  0  0  0  0  0  0  0  0  0
   -3.4800   16.6460   20.6070 C   0  0  0  0  0  0  0  0  0  0  0  0
   -5.2550   18.2450   19.9820 C   0  0  0  0  0  0  0  0  0  0  0  0
   -3.9380   20.8140   17.8550 N   0  0  0  0  0  0  0  0  0  0  0  0
   -3.3880   19.6720   17.0370 C   0  0  0  0  0  0  0  0  0  0  0  0
   -5.2520   21.2640   17.2710 C   0  0  0  0  0  0  0  0  0  0  0  0
   -0.8702   21.4396   18.3942 H   0  0  0  0  0  0  0  0  0  0  0  0
   -1.6140   20.6982   16.9369 H   0  0  0  0  0  0  0  0  0  0  0  0
   -1.1834   22.4421   16.9369 H   0  0  0  0  0  0  0  0  0  0  0  0
   -3.3237   22.8115   17.5103 H   0  0  0  0  0  0  0  0  0  0  0  0
   -2.0870   23.1509   19.6387 H   0  0  0  0  0  0  0  0  0  0  0  0
   -3.9199   22.7740   19.7543 H   0  0  0  0  0  0  0  0  0  0  0  0
   -1.6460   20.9850   20.5629 H   0  0  0  0  0  0  0  0  0  0  0  0
   -2.8255   21.8911   21.6247 H   0  0  0  0  0  0  0  0  0  0  0  0
   -3.3682   16.3172   21.6507 H   0  0  0  0  0  0  0  0  0  0  0  0
   -4.2093   16.0007   20.0954 H   0  0  0  0  0  0  0  0  0  0  0  0
   -2.5086   16.5788   20.0954 H   0  0  0  0  0  0  0  0  0  0  0  0
   -6.0043   18.3739   20.7769 H   0  0  0  0  0  0  0  0  0  0  0  0
   -5.2223   19.1507   19.3586 H   0  0  0  0  0  0  0  0  0  0  0  0
   -5.5268   17.3804   19.3586 H   0  0  0  0  0  0  0  0  0  0  0  0
   -4.1510   20.3880   18.7830 H   0  0  0  0  0  0  0  0  0  0  0  0
   -3.0103   18.8878   17.7096 H   0  0  0  0  0  0  0  0  0  0  0  0
   -4.1855   19.2580   16.4025 H   0  0  0  0  0  0  0  0  0  0  0  0
   -2.5671   20.0375   16.4025 H   0  0  0  0  0  0  0  0  0  0  0  0
   -5.9521   21.5037   18.0849 H   0  0  0  0  0  0  0  0  0  0  0  0
   -5.0906   22.1581   16.6509 H   0  0  0  0  0  0  0  0  0  0  0  0
   -5.6726   20.4587   16.6509 H   0  0  0  0  0  0  0  0  0  0  0  0
  1  2  1  0
  2  3  1  0
  3  4  1  0
  4  5  1  0
  5  6  1  0
  6  7  2  0
  6  8  1  0
  8  9  1  0
  8 10  1  0
  2 11  1  0
 11 12  1  0
 11 13  1  0
  1 14  1  0
  1 15  1  0
  1 16  1  0
  2 17  1  6
  3 18  1  0
  3 19  1  0
  4 20  1  0
  4 21  1  0
  9 22  1  0
  9 23  1  0
  9 24  1  0
 10 25  1  0
 10 26  1  0
 10 27  1  0
 11 28  1  0
 12 29  1  0
 12 30  1  0
 12 31  1  0
 13 32  1  0
 13 33  1  0
 13 34  1  0
M  CHG  1  11   1
M  END
>  <meeko>  (7) 
{"is_sidechain": [false], "free_energy": -3.899, "intermolecular_energy": -5.223, "internal_energy": -0.667}

$$$$
3zdg_ligand
     RDKit          3D

 34 33  0  0  0  0  0  0  0  0999 V2000
   -1.9670   20.0870   18.8220 C   0  0  0  0  0  0  0  0  0  0  0  0
   -2.6260   18.7060   18.7360 C   0  0  2  0  0  0  0  0  0  0  0  0
   -3.7530   18.6740   17.6790 C   0  0  0  0  0  0  0  0  0  0  0  0
   -5.0640   19.4110   17.9560 C   0  0  0  0  0  0  0  0  0  0  0  0
   -5.8270   18.8420   19.0250 O   0  0  0  0  0  0  0  0  0  0  0  0
   -6.1620   19.6830   20.0420 C   0  0  0  0  0  0  0  0  0  0  0  0
   -5.3580   20.4880   20.5100 O   0  0  0  0  0  0  0  0  0  0  0  0
   -7.4810   19.5740   20.4260 N   0  0  0  0  0  0  0  0  0  0  0  0
   -7.9440   20.3040   21.5930 C   0  0  0  0  0  0  0  0  0  0  0  0
   -8.3550   18.5160   19.9390 C   0  0  0  0  0  0  0  0  0  0  0  0
   -3.0840   18.2140   20.1060 N   0  0  0  0  0  0  0  0  0  0  0  0
   -2.3160   18.8030   21.2640 C   0  0  0  0  0  0  0  0  0  0  0  0
   -3.1120   16.7140   20.2320 C   0  0  0  0  0  0  0  0  0  0  0  0
   -1.8344   20.3649   19.8780 H   0  0  0  0  0  0  0  0  0  0  0  0
   -0.9862   20.0569   18.3248 H   0  0  0  0  0  0  0  0  0  0  0  0
   -2.6074   20.8305   18.3248 H   0  0  0  0  0  0  0  0  0  0  0  0
   -1.8613   17.9942   18.3916 H   0  0  0  0  0  0  0  0  0  0  0  0
   -3.3364   19.0983   16.7536 H   0  0  0  0  0  0  0  0  0  0  0  0
   -4.0517   17.6157   17.6506 H   0  0  0  0  0  0  0  0  0  0  0  0
   -4.8286   20.4542   18.2137 H   0  0  0  0  0  0  0  0  0  0  0  0
   -5.6764   19.3326   17.0456 H   0  0  0  0  0  0  0  0  0  0  0  0
   -7.6145   19.7846   22.5049 H   0  0  0  0  0  0  0  0  0  0  0  0
   -7.5256   21.3212   21.5790 H   0  0  0  0  0  0  0  0  0  0  0  0
   -9.0425   20.3591   21.5790 H   0  0  0  0  0  0  0  0  0  0  0  0
   -8.7960   17.9822   20.7937 H   0  0  0  0  0  0  0  0  0  0  0  0
   -9.1571   18.9553   19.3277 H   0  0  0  0  0  0  0  0  0  0  0  0
   -7.7722   17.8113   19.3277 H   0  0  0  0  0  0  0  0  0  0  0  0
   -4.0620   18.5470   20.2500 H   0  0  0  0  0  0  0  0  0  0  0  0
   -2.7608   18.4618   22.2104 H   0  0  0  0  0  0  0  0  0  0  0  0
   -1.2671   18.4755   21.2128 H   0  0  0  0  0  0  0  0  0  0  0  0
   -2.3603   19.9009   21.2128 H   0  0  0  0  0  0  0  0  0  0  0  0
   -3.1172   16.4355   21.2961 H   0  0  0  0  0  0  0  0  0  0  0  0
   -4.0176   16.3221   19.7460 H   0  0  0  0  0  0  0  0  0  0  0  0
   -2.2216   16.2885   19.7460 H   0  0  0  0  0  0  0  0  0  0  0  0
  1  2  1  0
  2  3  1  0
  3  4  1  0
  4  5  1  0
  5  6  1  0
  6  7  2  0
  6  8  1  0
  8  9  1  0
  8 10  1  0
  2 11  1  0
 11 12  1  0
 11 13  1  0
  1 14  1  0
  1 15  1  0
  1 16  1  0
  2 17  1  6
  3 18  1  0
  3 19  1  0
  4 20  1  0
  4 21  1  0
  9 22  1  0
  9 23  1  0
  9 24  1  0
 10 25  1  0
 10 26  1  0
 10 27  1  0
 11 28  1  0
 12 29  1  0
 12 30  1  0
 12 31  1  0
 13 32  1  0
 13 33  1  0
 13 34  1  0
M  CHG  1  11   1
M  END
>  <meeko>  (8) 
{"is_sidechain": [false], "free_energy": -3.884, "intermolecular_energy": -5.072, "internal_energy": -0.8}

$$$$
3zdg_ligand
     RDKit          3D

 34 33  0  0  0  0  0  0  0  0999 V2000
   -6.0530   19.6920   17.9440 C   0  0  0  0  0  0  0  0  0  0  0  0
   -5.1340   20.9050   17.7670 C   0  0  2  0  0  0  0  0  0  0  0  0
   -3.9570   20.5970   16.8140 C   0  0  0  0  0  0  0  0  0  0  0  0
   -2.8930   19.5820   17.2370 C   0  0  0  0  0  0  0  0  0  0  0  0
   -2.7400   19.4710   18.6560 O   0  0  0  0  0  0  0  0  0  0  0  0
   -2.8880   18.2250   19.1840 C   0  0  0  0  0  0  0  0  0  0  0  0
   -3.2060   17.2610   18.4900 O   0  0  0  0  0  0  0  0  0  0  0  0
   -2.5840   18.1630   20.5270 N   0  0  0  0  0  0  0  0  0  0  0  0
   -2.8340   16.9320   21.2550 C   0  0  0  0  0  0  0  0  0  0  0  0
   -2.3440   19.3520   21.3320 C   0  0  0  0  0  0  0  0  0  0  0  0
   -4.6780   21.4670   19.1100 N   0  0  0  0  0  0  0  0  0  0  0  0
   -5.5230   21.0340   20.2820 C   0  0  0  0  0  0  0  0  0  0  0  0
   -4.5350   22.9660   19.1200 C   0  0  0  0  0  0  0  0  0  0  0  0
   -6.2006   19.4972   19.0165 H   0  0  0  0  0  0  0  0  0  0  0  0
   -7.0250   19.8963   17.4713 H   0  0  0  0  0  0  0  0  0  0  0  0
   -5.5932   18.8116   17.4713 H   0  0  0  0  0  0  0  0  0  0  0  0
   -5.7216   21.6992   17.2833 H   0  0  0  0  0  0  0  0  0  0  0  0
   -4.3939   20.2299   15.8736 H   0  0  0  0  0  0  0  0  0  0  0  0
   -3.4049   21.5473   16.7685 H   0  0  0  0  0  0  0  0  0  0  0  0
   -3.1752   18.5960   16.8393 H   0  0  0  0  0  0  0  0  0  0  0  0
   -1.9319   19.9352   16.8352 H   0  0  0  0  0  0  0  0  0  0  0  0
   -2.7936   17.1307   22.3361 H   0  0  0  0  0  0  0  0  0  0  0  0
   -3.8291   16.5450   20.9902 H   0  0  0  0  0  0  0  0  0  0  0  0
   -2.0687   16.1875   20.9902 H   0  0  0  0  0  0  0  0  0  0  0  0
   -2.3970   19.0893   22.3989 H   0  0  0  0  0  0  0  0  0  0  0  0
   -1.3464   19.7548   21.1027 H   0  0  0  0  0  0  0  0  0  0  0  0
   -3.1072   20.1102   21.1027 H   0  0  0  0  0  0  0  0  0  0  0  0
   -3.7340   21.0730   19.3130 H   0  0  0  0  0  0  0  0  0  0  0  0
   -5.0113   21.2962   21.2197 H   0  0  0  0  0  0  0  0  0  0  0  0
   -6.4966   21.5443   20.2405 H   0  0  0  0  0  0  0  0  0  0  0  0
   -5.6774   19.9457   20.2405 H   0  0  0  0  0  0  0  0  0  0  0  0
   -4.5008   23.3241   20.1595 H   0  0  0  0  0  0  0  0  0  0  0  0
   -3.6058   23.2491   18.6039 H   0  0  0  0  0  0  0  0  0  0  0  0
   -5.3939   23.4197   18.6039 H   0  0  0  0  0  0  0  0  0  0  0  0
  1  2  1  0
  2  3  1  0
  3  4  1  0
  4  5  1  0
  5  6  1  0
  6  7  2  0
  6  8  1  0
  8  9  1  0
  8 10  1  0
  2 11  1  0
 11 12  1  0
 11 13  1  0
  1 14  1  0
  1 15  1  0
  1 16  1  0
  2 17  1  6
  3 18  1  0
  3 19  1  0
  4 20  1  0
  4 21  1  0
  9 22  1  0
  9 23  1  0
  9 24  1  0
 10 25  1  0
 10 26  1  0
 10 27  1  0
 11 28  1  0
 12 29  1  0
 12 30  1  0
 12 31  1  0
 13 32  1  0
 13 33  1  0
 13 34  1  0
M  CHG  1  11   1
M  END
>  <meeko>  (9) 
{"is_sidechain": [false], "free_energy": -3.87, "intermolecular_energy": -5.196, "internal_energy": -0.657}

$$$$
