
     RDKit          3D

 16 17  0  0  0  0  0  0  0  0999 V2000
   -0.0030  -25.5640  -12.7550 C   0  0  0  0  0  0  0  0  0  0  0  0
    0.9980  -24.5640  -12.2040 C   0  0  0  0  0  0  0  0  0  0  0  0
    0.3210  -23.5790  -11.4720 O   0  0  0  0  0  0  0  0  0  0  0  0
    1.0670  -22.7390  -10.6550 C   0  0  0  0  0  0  0  0  0  0  0  0
    0.4590  -21.6690  -10.0310 C   0  0  0  0  0  0  0  0  0  0  0  0
    1.1560  -20.8540   -9.2450 N   0  0  0  0  0  0  0  0  0  0  0  0
    2.4560  -21.0600   -9.0360 C   0  0  0  0  0  0  0  0  0  0  0  0
    3.1340  -22.1470   -9.6160 C   0  0  0  0  0  0  0  0  0  0  0  0
    4.4980  -22.3530   -9.3890 N   0  0  0  0  0  0  0  0  0  0  0  0
    5.1580  -23.5890   -9.8090 C   0  0  0  0  0  0  0  0  0  0  0  0
    5.9870  -23.3820  -11.1020 C   0  0  0  0  0  0  0  0  0  0  0  0
    7.2440  -22.5610  -10.9180 C   0  0  0  0  0  0  0  0  0  0  0  0
    6.9500  -21.1790  -10.4730 N   0  0  0  0  0  0  0  0  0  0  0  0
    6.7210  -21.1440   -9.0220 C   0  0  0  0  0  0  0  0  0  0  0  0
    5.2700  -21.3750   -8.6060 C   0  0  0  0  0  0  0  0  0  0  0  0
    2.4120  -22.9860  -10.4490 C   0  0  0  0  0  0  0  0  0  0  0  0
  2  1  1  0
  3  2  1  0
  4  3  1  0
  5  4  2  0
  6  5  1  0
  7  6  2  0
  8  7  1  0
  9  8  1  0
 10  9  1  0
 11 10  1  0
 12 11  1  0
 13 12  1  0
 14 13  1  0
 15  9  1  0
 15 14  1  0
 16  8  2  0
 16  4  1  0
M  CHG  1  13   1
M  END
$$$$
