1ps3_ligand
     RDKit          3D

 28 29  0  0  0  0  0  0  0  0999 V2000
    7.0330   21.5920    0.2470 O   0  0  0  0  0  0  0  0  0  0  0  0
    6.4580   22.6490    0.3780 C   0  0  0  0  0  0  0  0  0  0  0  0
    6.8960   23.7730    1.0460 N   0  0  0  0  0  0  0  0  0  0  0  0
    6.0860   24.9000    0.6930 C   0  0  2  0  0  0  0  0  0  0  0  0
    5.8450   25.9030    1.8320 C   0  0  1  0  0  0  0  0  0  0  0  0
    7.0580   26.6100    2.1350 O   0  0  0  0  0  0  0  0  0  0  0  0
    4.7540   26.9210    1.4230 C   0  0  1  0  0  0  0  0  0  0  0  0
    5.3180   27.8230    0.4600 O   0  0  0  0  0  0  0  0  0  0  0  0
    3.4800   26.2420    0.8680 C   0  0  2  0  0  0  0  0  0  0  0  0
    2.7940   25.6190    1.9640 O   0  0  0  0  0  0  0  0  0  0  0  0
    3.7670   25.1860   -0.2270 C   0  0  1  0  0  0  0  0  0  0  0  0
    4.0480   25.8020   -1.6110 C   0  0  0  0  0  0  0  0  0  0  0  0
    3.4230   27.0750   -1.7700 O   0  0  0  0  0  0  0  0  0  0  0  0
    4.8560   24.3250    0.2230 N   0  0  0  0  0  0  0  0  0  0  0  0
    5.0620   23.0270   -0.1920 C   0  0  0  0  0  0  0  0  0  0  0  0
    4.3230   22.3350   -0.8570 O   0  0  0  0  0  0  0  0  0  0  0  0
    7.8730   23.8500    1.3000 H   0  0  0  0  0  0  0  0  0  0  0  0
    6.5984   25.5122   -0.0637 H   0  0  0  0  0  0  0  0  0  0  0  0
    5.5136   25.3464    2.7210 H   0  0  0  0  0  0  0  0  0  0  0  0
    6.9350   27.5150    1.7840 H   0  0  0  0  0  0  0  0  0  0  0  0
    4.4323   27.4699    2.3203 H   0  0  0  0  0  0  0  0  0  0  0  0
    4.6640   28.5330    0.3150 H   0  0  0  0  0  0  0  0  0  0  0  0
    2.8686   27.0216    0.3901 H   0  0  0  0  0  0  0  0  0  0  0  0
    2.0610   25.0810    1.6120 H   0  0  0  0  0  0  0  0  0  0  0  0
    2.8576   24.5840   -0.3707 H   0  0  0  0  0  0  0  0  0  0  0  0
    5.1347   25.9231   -1.7311 H   0  0  0  0  0  0  0  0  0  0  0  0
    3.6348   25.1247   -2.3729 H   0  0  0  0  0  0  0  0  0  0  0  0
    3.7460   27.6870   -1.0790 H   0  0  0  0  0  0  0  0  0  0  0  0
  1  2  2  0
  2  3  1  0
  3  4  1  0
  4  5  1  0
  5  6  1  0
  5  7  1  0
  7  8  1  0
  7  9  1  0
  9 10  1  0
  9 11  1  0
 11 12  1  0
 12 13  1  0
 11 14  1  0
 14 15  1  0
 15 16  2  0
 15  2  1  0
 14  4  1  0
  3 17  1  0
  4 18  1  6
  5 19  1  1
  6 20  1  0
  7 21  1  1
  8 22  1  0
  9 23  1  6
 10 24  1  0
 11 25  1  6
 12 26  1  0
 12 27  1  0
 13 28  1  0
M  END
>  <meeko>  (1) 
{"is_sidechain": [false], "free_energy": -6.124, "intermolecular_energy": -7.198, "internal_energy": -0.277}

$$$$
1ps3_ligand
     RDKit          3D

 28 29  0  0  0  0  0  0  0  0999 V2000
    2.6580   27.2950   -4.4810 O   0  0  0  0  0  0  0  0  0  0  0  0
    2.7870   26.2540   -3.8760 C   0  0  0  0  0  0  0  0  0  0  0  0
    2.2770   25.0160   -4.2060 N   0  0  0  0  0  0  0  0  0  0  0  0
    2.9200   23.9990   -3.4300 C   0  0  2  0  0  0  0  0  0  0  0  0
    2.0140   22.8240   -3.0280 C   0  0  1  0  0  0  0  0  0  0  0  0
    1.6920   22.0300   -4.1810 O   0  0  0  0  0  0  0  0  0  0  0  0
    2.7260   21.9360   -1.9820 C   0  0  1  0  0  0  0  0  0  0  0  0
    3.7560   21.1920   -2.6500 O   0  0  0  0  0  0  0  0  0  0  0  0
    3.3060   22.7490   -0.8010 C   0  0  2  0  0  0  0  0  0  0  0  0
    2.2100   23.2000    0.0090 O   0  0  0  0  0  0  0  0  0  0  0  0
    4.1550   23.9650   -1.2430 C   0  0  1  0  0  0  0  0  0  0  0  0
    5.5800   23.5860   -1.6880 C   0  0  0  0  0  0  0  0  0  0  0  0
    6.1050   22.4920   -0.9390 O   0  0  0  0  0  0  0  0  0  0  0  0
    3.4290   24.6930   -2.2800 N   0  0  0  0  0  0  0  0  0  0  0  0
    3.5820   26.0340   -2.5580 C   0  0  0  0  0  0  0  0  0  0  0  0
    4.2010   26.8590   -1.9230 O   0  0  0  0  0  0  0  0  0  0  0  0
    1.9230   24.8580   -5.1410 H   0  0  0  0  0  0  0  0  0  0  0  0
    3.7034   23.5076   -4.0256 H   0  0  0  0  0  0  0  0  0  0  0  0
    1.0887   23.2305   -2.5938 H   0  0  0  0  0  0  0  0  0  0  0  0
    2.4290   22.1640   -4.8120 H   0  0  0  0  0  0  0  0  0  0  0  0
    1.9854   21.2542   -1.5385 H   0  0  0  0  0  0  0  0  0  0  0  0
    4.2640   20.7230   -1.9590 H   0  0  0  0  0  0  0  0  0  0  0  0
    3.9851   22.0878   -0.2427 H   0  0  0  0  0  0  0  0  0  0  0  0
    2.0250   22.5270    0.6910 H   0  0  0  0  0  0  0  0  0  0  0  0
    4.3026   24.6176   -0.3699 H   0  0  0  0  0  0  0  0  0  0  0  0
    5.5567   23.3081   -2.7521 H   0  0  0  0  0  0  0  0  0  0  0  0
    6.2303   24.4563   -1.5157 H   0  0  0  0  0  0  0  0  0  0  0  0
    7.0350   22.3360   -1.1970 H   0  0  0  0  0  0  0  0  0  0  0  0
  1  2  2  0
  2  3  1  0
  3  4  1  0
  4  5  1  0
  5  6  1  0
  5  7  1  0
  7  8  1  0
  7  9  1  0
  9 10  1  0
  9 11  1  0
 11 12  1  0
 12 13  1  0
 11 14  1  0
 14 15  1  0
 15 16  2  0
 15  2  1  0
 14  4  1  0
  3 17  1  0
  4 18  1  6
  5 19  1  1
  6 20  1  0
  7 21  1  1
  8 22  1  0
  9 23  1  1
 10 24  1  0
 11 25  1  1
 12 26  1  0
 12 27  1  0
 13 28  1  0
M  END
>  <meeko>  (2) 
{"is_sidechain": [false], "free_energy": -5.765, "intermolecular_energy": -6.807, "internal_energy": -0.246}

$$$$
1ps3_ligand
     RDKit          3D

 28 29  0  0  0  0  0  0  0  0999 V2000
   -0.0940   16.2730    5.9930 O   0  0  0  0  0  0  0  0  0  0  0  0
   -0.7920   16.9720    6.6940 C   0  0  0  0  0  0  0  0  0  0  0  0
   -0.9680   18.3370    6.6180 N   0  0  0  0  0  0  0  0  0  0  0  0
   -2.1060   18.7280    7.3940 C   0  0  2  0  0  0  0  0  0  0  0  0
   -1.9740   20.0900    8.0930 C   0  0  1  0  0  0  0  0  0  0  0  0
   -2.0120   21.1500    7.1250 O   0  0  0  0  0  0  0  0  0  0  0  0
   -3.1270   20.2840    9.1040 C   0  0  1  0  0  0  0  0  0  0  0  0
   -4.3330   20.5390    8.3690 O   0  0  0  0  0  0  0  0  0  0  0  0
   -3.3010   19.0750   10.0540 C   0  0  2  0  0  0  0  0  0  0  0  0
   -2.2030   19.0730   10.9770 O   0  0  0  0  0  0  0  0  0  0  0  0
   -3.3600   17.7140    9.3190 C   0  0  1  0  0  0  0  0  0  0  0  0
   -4.7330   17.4210    8.6860 C   0  0  0  0  0  0  0  0  0  0  0  0
   -5.7920   18.1070    9.3530 O   0  0  0  0  0  0  0  0  0  0  0  0
   -2.2790   17.6610    8.3410 N   0  0  0  0  0  0  0  0  0  0  0  0
   -1.6940   16.5050    7.8710 C   0  0  0  0  0  0  0  0  0  0  0  0
   -1.8500   15.3750    8.2790 O   0  0  0  0  0  0  0  0  0  0  0  0
   -0.6690   18.8310    5.7870 H   0  0  0  0  0  0  0  0  0  0  0  0
   -2.9771   18.8760    6.7388 H   0  0  0  0  0  0  0  0  0  0  0  0
   -1.0118   20.1155    8.6254 H   0  0  0  0  0  0  0  0  0  0  0  0
   -2.2040   20.7210    6.2660 H   0  0  0  0  0  0  0  0  0  0  0  0
   -2.8844   21.1393    9.7518 H   0  0  0  0  0  0  0  0  0  0  0  0
   -4.0670   20.8350    7.4760 H   0  0  0  0  0  0  0  0  0  0  0  0
   -4.2676   19.1893   10.5665 H   0  0  0  0  0  0  0  0  0  0  0  0
   -1.9140   18.1520   11.1200 H   0  0  0  0  0  0  0  0  0  0  0  0
   -3.2224   16.9146   10.0620 H   0  0  0  0  0  0  0  0  0  0  0  0
   -4.7127   17.7391    7.6332 H   0  0  0  0  0  0  0  0  0  0  0  0
   -4.9219   16.3410    8.7746 H   0  0  0  0  0  0  0  0  0  0  0  0
   -6.6410   17.9040    8.9110 H   0  0  0  0  0  0  0  0  0  0  0  0
  1  2  2  0
  2  3  1  0
  3  4  1  0
  4  5  1  0
  5  6  1  0
  5  7  1  0
  7  8  1  0
  7  9  1  0
  9 10  1  0
  9 11  1  0
 11 12  1  0
 12 13  1  0
 11 14  1  0
 14 15  1  0
 15 16  2  0
 15  2  1  0
 14  4  1  0
  3 17  1  0
  4 18  1  6
  5 19  1  1
  6 20  1  0
  7 21  1  1
  8 22  1  0
  9 23  1  1
 10 24  1  0
 11 25  1  1
 12 26  1  0
 12 27  1  0
 13 28  1  0
M  END
>  <meeko>  (3) 
{"is_sidechain": [false], "free_energy": -5.738, "intermolecular_energy": -6.746, "internal_energy": -0.276}

$$$$
1ps3_ligand
     RDKit          3D

 28 29  0  0  0  0  0  0  0  0999 V2000
   -0.3870   14.7980    8.1880 O   0  0  0  0  0  0  0  0  0  0  0  0
   -1.1930   15.7000    8.2230 C   0  0  0  0  0  0  0  0  0  0  0  0
   -2.3360   15.7840    8.9890 N   0  0  0  0  0  0  0  0  0  0  0  0
   -2.8290   17.1280    8.9890 C   0  0  2  0  0  0  0  0  0  0  0  0
   -4.3600   17.2540    9.0170 C   0  0  1  0  0  0  0  0  0  0  0  0
   -4.8670   16.8500   10.2990 O   0  0  0  0  0  0  0  0  0  0  0  0
   -4.7800   18.7170    8.7440 C   0  0  1  0  0  0  0  0  0  0  0  0
   -4.4800   19.4970    9.9110 O   0  0  0  0  0  0  0  0  0  0  0  0
   -4.0970   19.3110    7.4890 C   0  0  2  0  0  0  0  0  0  0  0  0
   -4.6840   18.6990    6.3320 O   0  0  0  0  0  0  0  0  0  0  0  0
   -2.5640   19.1040    7.4610 C   0  0  1  0  0  0  0  0  0  0  0  0
   -1.7960   20.0960    8.3540 C   0  0  0  0  0  0  0  0  0  0  0  0
   -2.5530   21.2760    8.6220 O   0  0  0  0  0  0  0  0  0  0  0  0
   -2.2710   17.7150    7.8020 N   0  0  0  0  0  0  0  0  0  0  0  0
   -1.1430   17.0260    7.4120 C   0  0  0  0  0  0  0  0  0  0  0  0
   -0.2960   17.3750    6.6190 O   0  0  0  0  0  0  0  0  0  0  0  0
   -2.4600   15.1490    9.7680 H   0  0  0  0  0  0  0  0  0  0  0  0
   -2.5270   17.6413    9.9139 H   0  0  0  0  0  0  0  0  0  0  0  0
   -4.7765   16.6013    8.2357 H   0  0  0  0  0  0  0  0  0  0  0  0
   -4.7860   15.8750   10.3230 H   0  0  0  0  0  0  0  0  0  0  0  0
   -5.8597   18.7390    8.5349 H   0  0  0  0  0  0  0  0  0  0  0  0
   -5.3180   19.9020   10.2070 H   0  0  0  0  0  0  0  0  0  0  0  0
   -4.2586   20.3990    7.5047 H   0  0  0  0  0  0  0  0  0  0  0  0
   -5.3410   18.0390    6.6230 H   0  0  0  0  0  0  0  0  0  0  0  0
   -2.2070   19.3164    6.4424 H   0  0  0  0  0  0  0  0  0  0  0  0
   -1.5581   19.6031    9.3082 H   0  0  0  0  0  0  0  0  0  0  0  0
   -0.8821   20.3946    7.8196 H   0  0  0  0  0  0  0  0  0  0  0  0
   -2.7650   21.7260    7.7800 H   0  0  0  0  0  0  0  0  0  0  0  0
  1  2  2  0
  2  3  1  0
  3  4  1  0
  4  5  1  0
  5  6  1  0
  5  7  1  0
  7  8  1  0
  7  9  1  0
  9 10  1  0
  9 11  1  0
 11 12  1  0
 12 13  1  0
 11 14  1  0
 14 15  1  0
 15 16  2  0
 15  2  1  0
 14  4  1  0
  3 17  1  0
  4 18  1  1
  5 19  1  6
  6 20  1  0
  7 21  1  6
  8 22  1  0
  9 23  1  6
 10 24  1  0
 11 25  1  6
 12 26  1  0
 12 27  1  0
 13 28  1  0
M  END
>  <meeko>  (4) 
{"is_sidechain": [false], "free_energy": -5.734, "intermolecular_energy": -6.754, "internal_energy": -0.263}

$$$$
1ps3_ligand
     RDKit          3D

 28 29  0  0  0  0  0  0  0  0999 V2000
    2.2270   20.7870   -3.0370 O   0  0  0  0  0  0  0  0  0  0  0  0
    2.5360   21.9540   -3.1210 C   0  0  0  0  0  0  0  0  0  0  0  0
    1.9330   22.9370   -3.8770 N   0  0  0  0  0  0  0  0  0  0  0  0
    2.3830   24.2280   -3.4510 C   0  0  2  0  0  0  0  0  0  0  0  0
    2.5260   25.2650   -4.5760 C   0  0  1  0  0  0  0  0  0  0  0  0
    1.2300   25.6490   -5.0640 O   0  0  0  0  0  0  0  0  0  0  0  0
    3.2640   26.5190   -4.0540 C   0  0  1  0  0  0  0  0  0  0  0  0
    2.3670   27.2490   -3.2040 O   0  0  0  0  0  0  0  0  0  0  0  0
    4.5770   26.1750   -3.3100 C   0  0  2  0  0  0  0  0  0  0  0  0
    5.5400   25.7460   -4.2830 O   0  0  0  0  0  0  0  0  0  0  0  0
    4.4080   25.0770   -2.2330 C   0  0  1  0  0  0  0  0  0  0  0  0
    3.7950   25.5980   -0.9200 C   0  0  0  0  0  0  0  0  0  0  0  0
    4.1820   26.9420   -0.6410 O   0  0  0  0  0  0  0  0  0  0  0  0
    3.6390   23.9740   -2.8010 N   0  0  0  0  0  0  0  0  0  0  0  0
    3.7030   22.6640   -2.3780 C   0  0  0  0  0  0  0  0  0  0  0  0
    4.4890   22.1730   -1.5980 O   0  0  0  0  0  0  0  0  0  0  0  0
    1.0120   22.7710   -4.2630 H   0  0  0  0  0  0  0  0  0  0  0  0
    1.6351   24.6901   -2.7899 H   0  0  0  0  0  0  0  0  0  0  0  0
    3.1058   24.8128   -5.3941 H   0  0  0  0  0  0  0  0  0  0  0  0
    0.5840   25.1440   -4.5300 H   0  0  0  0  0  0  0  0  0  0  0  0
    3.5619   27.1342   -4.9158 H   0  0  0  0  0  0  0  0  0  0  0  0
    1.9660   26.6040   -2.5900 H   0  0  0  0  0  0  0  0  0  0  0  0
    4.9062   27.0795   -2.7776 H   0  0  0  0  0  0  0  0  0  0  0  0
    6.4110   25.6680   -3.8510 H   0  0  0  0  0  0  0  0  0  0  0  0
    5.4081   24.7186   -1.9479 H   0  0  0  0  0  0  0  0  0  0  0  0
    2.6987   25.5541   -0.9989 H   0  0  0  0  0  0  0  0  0  0  0  0
    4.1630   24.9635   -0.1003 H   0  0  0  0  0  0  0  0  0  0  0  0
    3.4020   27.4510   -0.3420 H   0  0  0  0  0  0  0  0  0  0  0  0
  1  2  2  0
  2  3  1  0
  3  4  1  0
  4  5  1  0
  5  6  1  0
  5  7  1  0
  7  8  1  0
  7  9  1  0
  9 10  1  0
  9 11  1  0
 11 12  1  0
 12 13  1  0
 11 14  1  0
 14 15  1  0
 15 16  2  0
 15  2  1  0
 14  4  1  0
  3 17  1  0
  4 18  1  1
  5 19  1  6
  6 20  1  0
  7 21  1  6
  8 22  1  0
  9 23  1  1
 10 24  1  0
 11 25  1  1
 12 26  1  0
 12 27  1  0
 13 28  1  0
M  END
>  <meeko>  (5) 
{"is_sidechain": [false], "free_energy": -5.717, "intermolecular_energy": -6.739, "internal_energy": -0.257}

$$$$
1ps3_ligand
     RDKit          3D

 28 29  0  0  0  0  0  0  0  0999 V2000
    5.2730   25.9830   -4.1890 O   0  0  0  0  0  0  0  0  0  0  0  0
    5.1460   25.4210   -3.1250 C   0  0  0  0  0  0  0  0  0  0  0  0
    5.8240   24.3100   -2.6690 N   0  0  0  0  0  0  0  0  0  0  0  0
    5.6260   24.1600   -1.2580 C   0  0  2  0  0  0  0  0  0  0  0  0
    5.5440   22.7060   -0.7690 C   0  0  1  0  0  0  0  0  0  0  0  0
    6.8320   22.0780   -0.8640 O   0  0  0  0  0  0  0  0  0  0  0  0
    5.0660   22.6640    0.7000 C   0  0  1  0  0  0  0  0  0  0  0  0
    6.1430   23.1100    1.5370 O   0  0  0  0  0  0  0  0  0  0  0  0
    3.7910   23.5080    0.9400 C   0  0  2  0  0  0  0  0  0  0  0  0
    2.6850   22.8250    0.3330 O   0  0  0  0  0  0  0  0  0  0  0  0
    3.8840   24.9450    0.3720 C   0  0  1  0  0  0  0  0  0  0  0  0
    4.6930   25.9040    1.2640 C   0  0  0  0  0  0  0  0  0  0  0  0
    4.3240   27.2670    1.0630 O   0  0  0  0  0  0  0  0  0  0  0  0
    4.4120   24.8800   -0.9880 N   0  0  0  0  0  0  0  0  0  0  0  0
    4.1810   25.8170   -1.9710 C   0  0  0  0  0  0  0  0  0  0  0  0
    3.4040   26.7460   -1.9440 O   0  0  0  0  0  0  0  0  0  0  0  0
    6.6660   24.0120   -3.1450 H   0  0  0  0  0  0  0  0  0  0  0  0
    6.4962   24.5502   -0.7099 H   0  0  0  0  0  0  0  0  0  0  0  0
    4.8258   22.1659   -1.4034 H   0  0  0  0  0  0  0  0  0  0  0  0
    6.7100   21.1660   -0.5270 H   0  0  0  0  0  0  0  0  0  0  0  0
    4.7894   21.6288    0.9488 H   0  0  0  0  0  0  0  0  0  0  0  0
    6.7350   22.3450    1.6750 H   0  0  0  0  0  0  0  0  0  0  0  0
    3.6611   23.6151    2.0270 H   0  0  0  0  0  0  0  0  0  0  0  0
    2.2950   22.2140    0.9870 H   0  0  0  0  0  0  0  0  0  0  0  0
    2.8711   25.3735    0.3535 H   0  0  0  0  0  0  0  0  0  0  0  0
    4.5172   25.6411    2.3175 H   0  0  0  0  0  0  0  0  0  0  0  0
    5.7549   25.7987    0.9970 H   0  0  0  0  0  0  0  0  0  0  0  0
    4.0840   27.6710    1.9210 H   0  0  0  0  0  0  0  0  0  0  0  0
  1  2  2  0
  2  3  1  0
  3  4  1  0
  4  5  1  0
  5  6  1  0
  5  7  1  0
  7  8  1  0
  7  9  1  0
  9 10  1  0
  9 11  1  0
 11 12  1  0
 12 13  1  0
 11 14  1  0
 14 15  1  0
 15 16  2  0
 15  2  1  0
 14  4  1  0
  3 17  1  0
  4 18  1  1
  5 19  1  6
  6 20  1  0
  7 21  1  1
  8 22  1  0
  9 23  1  1
 10 24  1  0
 11 25  1  6
 12 26  1  0
 12 27  1  0
 13 28  1  0
M  END
>  <meeko>  (6) 
{"is_sidechain": [false], "free_energy": -5.683, "intermolecular_energy": -6.766, "internal_energy": -0.192}

$$$$
1ps3_ligand
     RDKit          3D

 28 29  0  0  0  0  0  0  0  0999 V2000
    2.9020   27.1100   -4.1520 O   0  0  0  0  0  0  0  0  0  0  0  0
    3.2790   26.4240   -3.2290 C   0  0  0  0  0  0  0  0  0  0  0  0
    3.7340   26.8410   -1.9960 N   0  0  0  0  0  0  0  0  0  0  0  0
    3.7680   25.7360   -1.0860 C   0  0  2  0  0  0  0  0  0  0  0  0
    4.9270   25.7650   -0.0780 C   0  0  1  0  0  0  0  0  0  0  0  0
    4.7220   26.8140    0.8820 O   0  0  0  0  0  0  0  0  0  0  0  0
    5.0230   24.4110    0.6630 C   0  0  1  0  0  0  0  0  0  0  0  0
    3.9330   24.3280    1.5930 O   0  0  0  0  0  0  0  0  0  0  0  0
    5.0240   23.2000   -0.3000 C   0  0  2  0  0  0  0  0  0  0  0  0
    6.2910   23.1680   -0.9730 O   0  0  0  0  0  0  0  0  0  0  0  0
    3.8850   23.2410   -1.3460 C   0  0  1  0  0  0  0  0  0  0  0  0
    2.5220   22.7980   -0.7830 C   0  0  0  0  0  0  0  0  0  0  0  0
    2.6560   22.0270    0.4100 O   0  0  0  0  0  0  0  0  0  0  0  0
    3.8310   24.5760   -1.9330 N   0  0  0  0  0  0  0  0  0  0  0  0
    3.3400   24.8710   -3.1860 C   0  0  0  0  0  0  0  0  0  0  0  0
    3.0200   24.0950   -4.0600 O   0  0  0  0  0  0  0  0  0  0  0  0
    3.5670   27.7950   -1.7020 H   0  0  0  0  0  0  0  0  0  0  0  0
    2.8814   25.7546   -0.4352 H   0  0  0  0  0  0  0  0  0  0  0  0
    5.8618   25.9489   -0.6279 H   0  0  0  0  0  0  0  0  0  0  0  0
    5.4710   26.7520    1.5100 H   0  0  0  0  0  0  0  0  0  0  0  0
    5.9851   24.3700    1.1946 H   0  0  0  0  0  0  0  0  0  0  0  0
    4.3210   24.1830    2.4780 H   0  0  0  0  0  0  0  0  0  0  0  0
    4.8560   22.2945    0.3015 H   0  0  0  0  0  0  0  0  0  0  0  0
    6.9800   22.9030   -0.3350 H   0  0  0  0  0  0  0  0  0  0  0  0
    4.1130   22.5044   -2.1304 H   0  0  0  0  0  0  0  0  0  0  0  0
    1.9228   23.6933   -0.5607 H   0  0  0  0  0  0  0  0  0  0  0  0
    2.0334   22.1667   -1.5397 H   0  0  0  0  0  0  0  0  0  0  0  0
    2.1700   22.4640    1.1370 H   0  0  0  0  0  0  0  0  0  0  0  0
  1  2  2  0
  2  3  1  0
  3  4  1  0
  4  5  1  0
  5  6  1  0
  5  7  1  0
  7  8  1  0
  7  9  1  0
  9 10  1  0
  9 11  1  0
 11 12  1  0
 12 13  1  0
 11 14  1  0
 14 15  1  0
 15 16  2  0
 15  2  1  0
 14  4  1  0
  3 17  1  0
  4 18  1  1
  5 19  1  6
  6 20  1  0
  7 21  1  1
  8 22  1  0
  9 23  1  1
 10 24  1  0
 11 25  1  6
 12 26  1  0
 12 27  1  0
 13 28  1  0
M  END
>  <meeko>  (7) 
{"is_sidechain": [false], "free_energy": -5.573, "intermolecular_energy": -6.575, "internal_energy": -0.253}

$$$$
1ps3_ligand
     RDKit          3D

 28 29  0  0  0  0  0  0  0  0999 V2000
    0.2780   16.3860    7.8800 O   0  0  0  0  0  0  0  0  0  0  0  0
   -0.7800   16.9240    8.1180 C   0  0  0  0  0  0  0  0  0  0  0  0
   -1.0040   18.0460    8.8870 N   0  0  0  0  0  0  0  0  0  0  0  0
   -2.3250   18.5450    8.6530 C   0  0  2  0  0  0  0  0  0  0  0  0
   -3.0140   19.1510    9.8850 C   0  0  1  0  0  0  0  0  0  0  0  0
   -2.3870   20.3930   10.2430 O   0  0  0  0  0  0  0  0  0  0  0  0
   -4.5100   19.4060    9.5880 C   0  0  1  0  0  0  0  0  0  0  0  0
   -4.6090   20.5370    8.7100 O   0  0  0  0  0  0  0  0  0  0  0  0
   -5.2190   18.1710    8.9830 C   0  0  2  0  0  0  0  0  0  0  0  0
   -5.3690   17.1920   10.0210 O   0  0  0  0  0  0  0  0  0  0  0  0
   -4.4610   17.5450    7.7880 C   0  0  1  0  0  0  0  0  0  0  0  0
   -4.6600   18.3120    6.4680 C   0  0  0  0  0  0  0  0  0  0  0  0
   -5.3730   17.5430    5.5000 O   0  0  0  0  0  0  0  0  0  0  0  0
   -3.0510   17.4140    8.1420 N   0  0  0  0  0  0  0  0  0  0  0  0
   -2.1810   16.4920    7.6020 C   0  0  0  0  0  0  0  0  0  0  0  0
   -2.4460   15.5560    6.8800 O   0  0  0  0  0  0  0  0  0  0  0  0
   -0.2230   18.6400    9.1370 H   0  0  0  0  0  0  0  0  0  0  0  0
   -2.2900   19.3937    7.9540 H   0  0  0  0  0  0  0  0  0  0  0  0
   -2.9216   18.4399   10.7192 H   0  0  0  0  0  0  0  0  0  0  0  0
   -1.8670   20.6650    9.4590 H   0  0  0  0  0  0  0  0  0  0  0  0
   -5.0257   19.6111   10.5377 H   0  0  0  0  0  0  0  0  0  0  0  0
   -3.7770   21.0420    8.7980 H   0  0  0  0  0  0  0  0  0  0  0  0
   -6.1906   18.5035    8.5888 H   0  0  0  0  0  0  0  0  0  0  0  0
   -5.1750   17.6110   10.8800 H   0  0  0  0  0  0  0  0  0  0  0  0
   -4.8860   16.5489    7.5951 H   0  0  0  0  0  0  0  0  0  0  0  0
   -5.2251   19.2328    6.6750 H   0  0  0  0  0  0  0  0  0  0  0  0
   -3.6656   18.5369    6.0549 H   0  0  0  0  0  0  0  0  0  0  0  0
   -5.9260   18.1370    4.9540 H   0  0  0  0  0  0  0  0  0  0  0  0
  1  2  2  0
  2  3  1  0
  3  4  1  0
  4  5  1  0
  5  6  1  0
  5  7  1  0
  7  8  1  0
  7  9  1  0
  9 10  1  0
  9 11  1  0
 11 12  1  0
 12 13  1  0
 11 14  1  0
 14 15  1  0
 15 16  2  0
 15  2  1  0
 14  4  1  0
  3 17  1  0
  4 18  1  6
  5 19  1  1
  6 20  1  0
  7 21  1  1
  8 22  1  0
  9 23  1  6
 10 24  1  0
 11 25  1  6
 12 26  1  0
 12 27  1  0
 13 28  1  0
M  END
>  <meeko>  (8) 
{"is_sidechain": [false], "free_energy": -5.471, "intermolecular_energy": -6.634, "internal_energy": -0.073}

$$$$
1ps3_ligand
     RDKit          3D

 28 29  0  0  0  0  0  0  0  0999 V2000
    3.1880   26.3470    3.5510 O   0  0  0  0  0  0  0  0  0  0  0  0
    3.5320   25.6650    2.6120 C   0  0  0  0  0  0  0  0  0  0  0  0
    3.1520   24.3720    2.3210 N   0  0  0  0  0  0  0  0  0  0  0  0
    3.5110   24.0460    0.9740 C   0  0  2  0  0  0  0  0  0  0  0  0
    3.9460   22.5890    0.7560 C   0  0  1  0  0  0  0  0  0  0  0  0
    2.8170   21.7100    0.8850 O   0  0  0  0  0  0  0  0  0  0  0  0
    4.5610   22.4210   -0.6530 C   0  0  1  0  0  0  0  0  0  0  0  0
    3.4990   22.4730   -1.6170 O   0  0  0  0  0  0  0  0  0  0  0  0
    5.6450   23.4810   -0.9630 C   0  0  2  0  0  0  0  0  0  0  0  0
    6.8070   23.1700   -0.1820 O   0  0  0  0  0  0  0  0  0  0  0  0
    5.1960   24.9310   -0.6650 C   0  0  1  0  0  0  0  0  0  0  0  0
    4.2920   25.5290   -1.7600 C   0  0  0  0  0  0  0  0  0  0  0  0
    4.0840   26.9290   -1.5820 O   0  0  0  0  0  0  0  0  0  0  0  0
    4.5650   24.9680    0.6510 N   0  0  0  0  0  0  0  0  0  0  0  0
    4.4970   26.0780    1.4650 C   0  0  0  0  0  0  0  0  0  0  0  0
    5.0590   27.1420    1.3190 O   0  0  0  0  0  0  0  0  0  0  0  0
    2.3500   23.9730    2.7930 H   0  0  0  0  0  0  0  0  0  0  0  0
    2.6339   24.1367    0.3164 H   0  0  0  0  0  0  0  0  0  0  0  0
    4.6981   22.3336    1.5170 H   0  0  0  0  0  0  0  0  0  0  0  0
    3.0780   20.8730    0.4500 H   0  0  0  0  0  0  0  0  0  0  0  0
    5.0732   21.4486   -0.6988 H   0  0  0  0  0  0  0  0  0  0  0  0
    3.8960   22.7480   -2.4660 H   0  0  0  0  0  0  0  0  0  0  0  0
    5.8529   23.4401   -2.0424 H   0  0  0  0  0  0  0  0  0  0  0  0
    7.5360   22.9290   -0.7840 H   0  0  0  0  0  0  0  0  0  0  0  0
    6.0891   25.5731   -0.6626 H   0  0  0  0  0  0  0  0  0  0  0  0
    4.7645   25.3628   -2.7393 H   0  0  0  0  0  0  0  0  0  0  0  0
    3.3128   25.0316   -1.6983 H   0  0  0  0  0  0  0  0  0  0  0  0
    3.9190   27.3470   -2.4510 H   0  0  0  0  0  0  0  0  0  0  0  0
  1  2  2  0
  2  3  1  0
  3  4  1  0
  4  5  1  0
  5  6  1  0
  5  7  1  0
  7  8  1  0
  7  9  1  0
  9 10  1  0
  9 11  1  0
 11 12  1  0
 12 13  1  0
 11 14  1  0
 14 15  1  0
 15 16  2  0
 15  2  1  0
 14  4  1  0
  3 17  1  0
  4 18  1  6
  5 19  1  1
  6 20  1  0
  7 21  1  1
  8 22  1  0
  9 23  1  6
 10 24  1  0
 11 25  1  1
 12 26  1  0
 12 27  1  0
 13 28  1  0
M  END
>  <meeko>  (9) 
{"is_sidechain": [false], "free_energy": -5.421, "intermolecular_energy": -6.513, "internal_energy": -0.137}

$$$$
