3b68_ligand
     RDKit          3D

 49 50  0  0  0  0  0  0  0  0999 V2000
    5.0860   -9.6100   -6.3190 C   0  0  0  0  0  0  0  0  0  0  0  0
    4.0190   -8.9520   -5.4800 C   0  0  0  0  0  0  0  0  0  0  0  0
    3.9310   -9.1880   -4.2800 O   0  0  0  0  0  0  0  0  0  0  0  0
    3.1980   -8.1280   -6.2300 N   0  0  0  0  0  0  0  0  0  0  0  0
    2.1120   -7.3530   -5.7720 C   0  0  0  0  0  0  0  0  0  0  0  0
    0.8370   -7.3850   -6.3350 C   0  0  0  0  0  0  0  0  0  0  0  0
   -0.1860   -6.5850   -5.8130 C   0  0  0  0  0  0  0  0  0  0  0  0
    0.0490   -5.7390   -4.7310 C   0  0  0  0  0  0  0  0  0  0  0  0
   -1.0340   -5.0160   -4.3190 O   0  0  0  0  0  0  0  0  0  0  0  0
   -2.0950   -5.7410   -3.6880 C   0  0  0  0  0  0  0  0  0  0  0  0
   -1.7510   -5.9520   -2.2040 C   0  0  2  0  0  0  0  0  0  0  0  0
   -2.9820   -5.7270   -1.3250 C   0  0  0  0  0  0  0  0  0  0  0  0
   -0.7940   -4.9560   -1.8100 O   0  0  0  0  0  0  0  0  0  0  0  0
   -1.1530   -7.3690   -1.9670 C   0  0  0  0  0  0  0  0  0  0  0  0
   -1.3930   -7.9610   -0.9150 O   0  0  0  0  0  0  0  0  0  0  0  0
   -0.3610   -7.8520   -2.9950 N   0  0  0  0  0  0  0  0  0  0  0  0
    0.3100   -9.0930   -3.0520 C   0  0  0  0  0  0  0  0  0  0  0  0
    0.2880   -9.7690   -4.2790 C   0  0  0  0  0  0  0  0  0  0  0  0
    0.9310  -10.9990   -4.4280 C   0  0  0  0  0  0  0  0  0  0  0  0
    1.6020  -11.5620   -3.3340 C   0  0  0  0  0  0  0  0  0  0  0  0
    2.2820  -12.8320   -3.5490 N   0  0  0  0  0  0  0  0  0  0  0  0
    3.4580  -12.7840   -3.9230 O   0  0  0  0  0  0  0  0  0  0  0  0
    1.6190  -13.8610   -3.3710 O   0  0  0  0  0  0  0  0  0  0  0  0
    1.6280  -10.9250   -2.0860 C   0  0  0  0  0  0  0  0  0  0  0  0
    2.3120  -11.5280   -0.8870 C   0  0  0  0  0  0  0  0  0  0  0  0
    2.8870  -10.5930   -0.0790 F   0  0  0  0  0  0  0  0  0  0  0  0
    3.3100  -12.3840   -1.2240 F   0  0  0  0  0  0  0  0  0  0  0  0
    1.4560  -12.2140   -0.0810 F   0  0  0  0  0  0  0  0  0  0  0  0
    0.9800   -9.6760   -1.9690 C   0  0  0  0  0  0  0  0  0  0  0  0
    1.3180   -5.7090   -4.1560 C   0  0  0  0  0  0  0  0  0  0  0  0
    2.3420   -6.5120   -4.6760 C   0  0  0  0  0  0  0  0  0  0  0  0
    5.8363  -10.0727   -5.6611 H   0  0  0  0  0  0  0  0  0  0  0  0
    4.6284  -10.3830   -6.9539 H   0  0  0  0  0  0  0  0  0  0  0  0
    5.5713   -8.8541   -6.9539 H   0  0  0  0  0  0  0  0  0  0  0  0
    3.3880   -8.0810   -7.2220 H   0  0  0  0  0  0  0  0  0  0  0  0
    0.6340   -8.0421   -7.1935 H   0  0  0  0  0  0  0  0  0  0  0  0
   -1.1890   -6.6246   -6.2629 H   0  0  0  0  0  0  0  0  0  0  0  0
   -3.0312   -5.1695   -3.7709 H   0  0  0  0  0  0  0  0  0  0  0  0
   -2.2198   -6.7166   -4.1806 H   0  0  0  0  0  0  0  0  0  0  0  0
   -2.6908   -5.7802   -0.2656 H   0  0  0  0  0  0  0  0  0  0  0  0
   -3.4089   -4.7360   -1.5386 H   0  0  0  0  0  0  0  0  0  0  0  0
   -3.7318   -6.5030   -1.5386 H   0  0  0  0  0  0  0  0  0  0  0  0
   -1.0930   -4.6360   -0.9330 H   0  0  0  0  0  0  0  0  0  0  0  0
   -0.2130   -7.2430   -3.7900 H   0  0  0  0  0  0  0  0  0  0  0  0
   -0.2420   -9.3254   -5.1347 H   0  0  0  0  0  0  0  0  0  0  0  0
    0.9112  -11.5218   -5.3956 H   0  0  0  0  0  0  0  0  0  0  0  0
    1.0019   -9.1482   -1.0042 H   0  0  0  0  0  0  0  0  0  0  0  0
    1.5159   -5.0550   -3.2940 H   0  0  0  0  0  0  0  0  0  0  0  0
    3.3410   -6.4813   -4.2166 H   0  0  0  0  0  0  0  0  0  0  0  0
  1  2  1  0
  2  3  2  0
  2  4  1  0
  4  5  1  0
  5  6  2  0
  6  7  1  0
  7  8  2  0
  8  9  1  0
  9 10  1  0
 10 11  1  0
 11 12  1  0
 11 13  1  1
 11 14  1  0
 14 15  2  0
 14 16  1  0
 16 17  1  0
 17 18  2  0
 18 19  1  0
 19 20  2  0
 20 21  1  0
 21 22  2  0
 21 23  1  0
 20 24  1  0
 24 25  1  0
 25 26  1  0
 25 27  1  0
 25 28  1  0
 24 29  2  0
  8 30  1  0
 30 31  2  0
 31  5  1  0
 29 17  1  0
  1 32  1  0
  1 33  1  0
  1 34  1  0
  4 35  1  0
  6 36  1  0
  7 37  1  0
 10 38  1  0
 10 39  1  0
 12 40  1  0
 12 41  1  0
 12 42  1  0
 13 43  1  0
 16 44  1  0
 18 45  1  0
 19 46  1  0
 29 47  1  0
 30 48  1  0
 31 49  1  0
M  CHG  2  21   1  23  -1
M  END
>  <meeko>  (1) 
{"is_sidechain": [false], "free_energy": -3.735, "intermolecular_energy": -5.591, "internal_energy": 0.674}

$$$$
3b68_ligand
     RDKit          3D

 49 50  0  0  0  0  0  0  0  0999 V2000
    2.3910  -11.6770   -0.6970 C   0  0  0  0  0  0  0  0  0  0  0  0
    2.0010  -10.2800   -1.1090 C   0  0  0  0  0  0  0  0  0  0  0  0
    2.8560   -9.4520   -1.4050 O   0  0  0  0  0  0  0  0  0  0  0  0
    0.6320  -10.0850   -1.0700 N   0  0  0  0  0  0  0  0  0  0  0  0
   -0.0770   -8.9120   -1.3990 C   0  0  0  0  0  0  0  0  0  0  0  0
   -1.4220   -8.8880   -1.7640 C   0  0  0  0  0  0  0  0  0  0  0  0
   -2.0510   -7.6750   -2.0700 C   0  0  0  0  0  0  0  0  0  0  0  0
   -1.3470   -6.4730   -2.0250 C   0  0  0  0  0  0  0  0  0  0  0  0
   -2.0780   -5.3650   -2.3440 O   0  0  0  0  0  0  0  0  0  0  0  0
   -3.1620   -5.5460   -3.2600 C   0  0  0  0  0  0  0  0  0  0  0  0
   -2.6710   -5.2560   -4.6890 C   0  0  2  0  0  0  0  0  0  0  0  0
   -2.0720   -3.8530   -4.7810 C   0  0  0  0  0  0  0  0  0  0  0  0
   -3.8040   -5.2640   -5.5720 O   0  0  0  0  0  0  0  0  0  0  0  0
   -1.6430   -6.3280   -5.1530 C   0  0  0  0  0  0  0  0  0  0  0  0
   -2.0160   -7.2560   -5.8700 O   0  0  0  0  0  0  0  0  0  0  0  0
   -0.3510   -6.1440   -4.6870 N   0  0  0  0  0  0  0  0  0  0  0  0
    0.7760   -6.9560   -4.9390 C   0  0  0  0  0  0  0  0  0  0  0  0
    1.9130   -6.3180   -5.4510 C   0  0  0  0  0  0  0  0  0  0  0  0
    3.0750   -7.0420   -5.7240 C   0  0  0  0  0  0  0  0  0  0  0  0
    3.0990   -8.4220   -5.4840 C   0  0  0  0  0  0  0  0  0  0  0  0
    4.3440   -9.1270   -5.7570 N   0  0  0  0  0  0  0  0  0  0  0  0
    5.0910   -9.3420   -4.7960 O   0  0  0  0  0  0  0  0  0  0  0  0
    4.5730   -9.4270   -6.9350 O   0  0  0  0  0  0  0  0  0  0  0  0
    1.9740   -9.0980   -4.9920 C   0  0  0  0  0  0  0  0  0  0  0  0
    1.9650  -10.5870   -4.7610 C   0  0  0  0  0  0  0  0  0  0  0  0
    3.0110  -11.0110   -3.9980 F   0  0  0  0  0  0  0  0  0  0  0  0
    2.0380  -11.3000   -5.9130 F   0  0  0  0  0  0  0  0  0  0  0  0
    0.8520  -11.0100   -4.1020 F   0  0  0  0  0  0  0  0  0  0  0  0
    0.8170   -8.3380   -4.7140 C   0  0  0  0  0  0  0  0  0  0  0  0
   -0.0050   -6.4880   -1.6510 C   0  0  0  0  0  0  0  0  0  0  0  0
    0.6240   -7.7020   -1.3410 C   0  0  0  0  0  0  0  0  0  0  0  0
    2.4096  -11.7438    0.4008 H   0  0  0  0  0  0  0  0  0  0  0  0
    1.6589  -12.3947   -1.0956 H   0  0  0  0  0  0  0  0  0  0  0  0
    3.3890  -11.9117   -1.0956 H   0  0  0  0  0  0  0  0  0  0  0  0
    0.0730  -10.8690   -0.7600 H   0  0  0  0  0  0  0  0  0  0  0  0
   -1.9925   -9.8273   -1.8119 H   0  0  0  0  0  0  0  0  0  0  0  0
   -3.1149   -7.6707   -2.3496 H   0  0  0  0  0  0  0  0  0  0  0  0
   -3.5258   -6.5823   -3.1992 H   0  0  0  0  0  0  0  0  0  0  0  0
   -3.9809   -4.8577   -3.0039 H   0  0  0  0  0  0  0  0  0  0  0  0
   -1.9038   -3.4590   -3.7679 H   0  0  0  0  0  0  0  0  0  0  0  0
   -1.1145   -3.8978   -5.3207 H   0  0  0  0  0  0  0  0  0  0  0  0
   -2.7666   -3.1924   -5.3207 H   0  0  0  0  0  0  0  0  0  0  0  0
   -3.6450   -6.0030   -6.1970 H   0  0  0  0  0  0  0  0  0  0  0  0
   -0.1900   -5.3590   -4.0700 H   0  0  0  0  0  0  0  0  0  0  0  0
    1.8901   -5.2346   -5.6401 H   0  0  0  0  0  0  0  0  0  0  0  0
    3.9643   -6.5331   -6.1242 H   0  0  0  0  0  0  0  0  0  0  0  0
   -0.0733   -8.8431   -4.3112 H   0  0  0  0  0  0  0  0  0  0  0  0
    0.5615   -5.5465   -1.5989 H   0  0  0  0  0  0  0  0  0  0  0  0
    1.6842   -7.7035   -1.0478 H   0  0  0  0  0  0  0  0  0  0  0  0
  1  2  1  0
  2  3  2  0
  2  4  1  0
  4  5  1  0
  5  6  2  0
  6  7  1  0
  7  8  2  0
  8  9  1  0
  9 10  1  0
 10 11  1  0
 11 12  1  0
 11 13  1  6
 11 14  1  0
 14 15  2  0
 14 16  1  0
 16 17  1  0
 17 18  2  0
 18 19  1  0
 19 20  2  0
 20 21  1  0
 21 22  2  0
 21 23  1  0
 20 24  1  0
 24 25  1  0
 25 26  1  0
 25 27  1  0
 25 28  1  0
 24 29  2  0
  8 30  1  0
 30 31  2  0
 31  5  1  0
 29 17  1  0
  1 32  1  0
  1 33  1  0
  1 34  1  0
  4 35  1  0
  6 36  1  0
  7 37  1  0
 10 38  1  0
 10 39  1  0
 12 40  1  0
 12 41  1  0
 12 42  1  0
 13 43  1  0
 16 44  1  0
 18 45  1  0
 19 46  1  0
 29 47  1  0
 30 48  1  0
 31 49  1  0
M  CHG  2  21   1  23  -1
M  END
>  <meeko>  (2) 
{"is_sidechain": [false], "free_energy": -3.525, "intermolecular_energy": -4.242, "internal_energy": -0.36}

$$$$
3b68_ligand
     RDKit          3D

 49 50  0  0  0  0  0  0  0  0999 V2000
   -2.6100   -5.5380   -1.6760 C   0  0  0  0  0  0  0  0  0  0  0  0
   -1.3250   -6.3050   -1.8580 C   0  0  0  0  0  0  0  0  0  0  0  0
   -0.3010   -5.7360   -2.2220 O   0  0  0  0  0  0  0  0  0  0  0  0
   -1.4800   -7.6570   -1.6040 N   0  0  0  0  0  0  0  0  0  0  0  0
   -0.4920   -8.6600   -1.6660 C   0  0  0  0  0  0  0  0  0  0  0  0
    0.8610   -8.4420   -1.4100 C   0  0  0  0  0  0  0  0  0  0  0  0
    1.7760   -9.4990   -1.4890 C   0  0  0  0  0  0  0  0  0  0  0  0
    1.3560  -10.7830   -1.8310 C   0  0  0  0  0  0  0  0  0  0  0  0
    2.3480  -11.7220   -1.8700 O   0  0  0  0  0  0  0  0  0  0  0  0
    2.1600  -12.8250   -2.7630 C   0  0  0  0  0  0  0  0  0  0  0  0
    2.8550  -12.5170   -4.1010 C   0  0  2  0  0  0  0  0  0  0  0  0
    2.2520  -13.3540   -5.2290 C   0  0  0  0  0  0  0  0  0  0  0  0
    4.2310  -12.9150   -4.0020 O   0  0  0  0  0  0  0  0  0  0  0  0
    2.7750  -10.9990   -4.4330 C   0  0  0  0  0  0  0  0  0  0  0  0
    3.8090  -10.3320   -4.4760 O   0  0  0  0  0  0  0  0  0  0  0  0
    1.4960  -10.5100   -4.6470 N   0  0  0  0  0  0  0  0  0  0  0  0
    1.1250   -9.1850   -4.9570 C   0  0  0  0  0  0  0  0  0  0  0  0
    2.1450   -8.2240   -4.9540 C   0  0  0  0  0  0  0  0  0  0  0  0
    1.8680   -6.8890   -5.2550 C   0  0  0  0  0  0  0  0  0  0  0  0
    0.5550   -6.5100   -5.5600 C   0  0  0  0  0  0  0  0  0  0  0  0
    0.3240   -5.1120   -5.8970 N   0  0  0  0  0  0  0  0  0  0  0  0
   -0.3770   -4.4540   -5.1220 O   0  0  0  0  0  0  0  0  0  0  0  0
    0.8230   -4.6990   -6.9520 O   0  0  0  0  0  0  0  0  0  0  0  0
   -0.4950   -7.4380   -5.5520 C   0  0  0  0  0  0  0  0  0  0  0  0
   -1.9210   -7.0460   -5.8410 C   0  0  0  0  0  0  0  0  0  0  0  0
   -2.0240   -6.1170   -6.8330 F   0  0  0  0  0  0  0  0  0  0  0  0
   -2.5480   -6.5060   -4.7650 F   0  0  0  0  0  0  0  0  0  0  0  0
   -2.6810   -8.0950   -6.2580 F   0  0  0  0  0  0  0  0  0  0  0  0
   -0.1830   -8.7830   -5.2560 C   0  0  0  0  0  0  0  0  0  0  0  0
    0.0040  -11.0120   -2.0780 C   0  0  0  0  0  0  0  0  0  0  0  0
   -0.9120   -9.9540   -1.9950 C   0  0  0  0  0  0  0  0  0  0  0  0
   -2.8150   -5.4156   -0.6022 H   0  0  0  0  0  0  0  0  0  0  0  0
   -2.5160   -4.5482   -2.1465 H   0  0  0  0  0  0  0  0  0  0  0  0
   -3.4366   -6.0906   -2.1465 H   0  0  0  0  0  0  0  0  0  0  0  0
   -2.4100   -7.9660   -1.3540 H   0  0  0  0  0  0  0  0  0  0  0  0
    1.2118   -7.4338   -1.1444 H   0  0  0  0  0  0  0  0  0  0  0  0
    2.8396   -9.3135   -1.2785 H   0  0  0  0  0  0  0  0  0  0  0  0
    2.5963  -13.7336   -2.3224 H   0  0  0  0  0  0  0  0  0  0  0  0
    1.0849  -12.9838   -2.9330 H   0  0  0  0  0  0  0  0  0  0  0  0
    1.6600  -14.1757   -4.7997 H   0  0  0  0  0  0  0  0  0  0  0  0
    1.6023  -12.7193   -5.8495 H   0  0  0  0  0  0  0  0  0  0  0  0
    3.0598  -13.7693   -5.8495 H   0  0  0  0  0  0  0  0  0  0  0  0
    4.4240  -13.4010   -4.8320 H   0  0  0  0  0  0  0  0  0  0  0  0
    0.7290  -11.1620   -4.5420 H   0  0  0  0  0  0  0  0  0  0  0  0
    3.1750   -8.5247   -4.7119 H   0  0  0  0  0  0  0  0  0  0  0  0
    2.6746   -6.1411   -5.2525 H   0  0  0  0  0  0  0  0  0  0  0  0
   -0.9871   -9.5336   -5.2603 H   0  0  0  0  0  0  0  0  0  0  0  0
   -0.3445  -12.0224   -2.3380 H   0  0  0  0  0  0  0  0  0  0  0  0
   -1.9775  -10.1438   -2.1915 H   0  0  0  0  0  0  0  0  0  0  0  0
  1  2  1  0
  2  3  2  0
  2  4  1  0
  4  5  1  0
  5  6  2  0
  6  7  1  0
  7  8  2  0
  8  9  1  0
  9 10  1  0
 10 11  1  0
 11 12  1  0
 11 13  1  1
 11 14  1  0
 14 15  2  0
 14 16  1  0
 16 17  1  0
 17 18  2  0
 18 19  1  0
 19 20  2  0
 20 21  1  0
 21 22  2  0
 21 23  1  0
 20 24  1  0
 24 25  1  0
 25 26  1  0
 25 27  1  0
 25 28  1  0
 24 29  2  0
  8 30  1  0
 30 31  2  0
 31  5  1  0
 29 17  1  0
  1 32  1  0
  1 33  1  0
  1 34  1  0
  4 35  1  0
  6 36  1  0
  7 37  1  0
 10 38  1  0
 10 39  1  0
 12 40  1  0
 12 41  1  0
 12 42  1  0
 13 43  1  0
 16 44  1  0
 18 45  1  0
 19 46  1  0
 29 47  1  0
 30 48  1  0
 31 49  1  0
M  CHG  2  21   1  23  -1
M  END
>  <meeko>  (3) 
{"is_sidechain": [false], "free_energy": -2.558, "intermolecular_energy": -3.605, "internal_energy": 0.45}

$$$$
3b68_ligand
     RDKit          3D

 49 50  0  0  0  0  0  0  0  0999 V2000
    5.3950   -9.4170   -5.8000 C   0  0  0  0  0  0  0  0  0  0  0  0
    4.2860   -8.6900   -5.0810 C   0  0  0  0  0  0  0  0  0  0  0  0
    4.2280   -8.6920   -3.8560 O   0  0  0  0  0  0  0  0  0  0  0  0
    3.3940   -8.0970   -5.9570 N   0  0  0  0  0  0  0  0  0  0  0  0
    2.2540   -7.3340   -5.6330 C   0  0  0  0  0  0  0  0  0  0  0  0
    1.0580   -7.3730   -6.3490 C   0  0  0  0  0  0  0  0  0  0  0  0
   -0.0290   -6.5850   -5.9540 C   0  0  0  0  0  0  0  0  0  0  0  0
    0.0630   -5.7430   -4.8470 C   0  0  0  0  0  0  0  0  0  0  0  0
   -1.0690   -5.0310   -4.5680 O   0  0  0  0  0  0  0  0  0  0  0  0
   -2.1180   -5.7250   -3.8850 C   0  0  0  0  0  0  0  0  0  0  0  0
   -1.7840   -5.7970   -2.3850 C   0  0  2  0  0  0  0  0  0  0  0  0
   -3.0600   -5.7620   -1.5440 C   0  0  0  0  0  0  0  0  0  0  0  0
   -1.0390   -4.6230   -2.0260 O   0  0  0  0  0  0  0  0  0  0  0  0
   -0.9420   -7.0660   -2.0620 C   0  0  0  0  0  0  0  0  0  0  0  0
   -0.3360   -7.1360   -0.9930 O   0  0  0  0  0  0  0  0  0  0  0  0
   -0.9370   -8.0350   -3.0510 N   0  0  0  0  0  0  0  0  0  0  0  0
   -0.2620   -9.2750   -3.0350 C   0  0  0  0  0  0  0  0  0  0  0  0
   -0.4330  -10.0740   -1.8970 C   0  0  0  0  0  0  0  0  0  0  0  0
    0.1930  -11.3180   -1.7990 C   0  0  0  0  0  0  0  0  0  0  0  0
    1.0020  -11.7670   -2.8510 C   0  0  0  0  0  0  0  0  0  0  0  0
    1.6070  -13.0840   -2.7130 N   0  0  0  0  0  0  0  0  0  0  0  0
    0.8530  -14.0600   -2.7750 O   0  0  0  0  0  0  0  0  0  0  0  0
    2.8280  -13.1230   -2.5120 O   0  0  0  0  0  0  0  0  0  0  0  0
    1.2130  -10.9860   -3.9950 C   0  0  0  0  0  0  0  0  0  0  0  0
    2.1080  -11.4320   -5.1220 C   0  0  0  0  0  0  0  0  0  0  0  0
    3.4030  -11.6020   -4.7350 F   0  0  0  0  0  0  0  0  0  0  0  0
    2.1450  -10.5460   -6.1490 F   0  0  0  0  0  0  0  0  0  0  0  0
    1.7360  -12.6310   -5.6470 F   0  0  0  0  0  0  0  0  0  0  0  0
    0.5580   -9.7380   -4.0720 C   0  0  0  0  0  0  0  0  0  0  0  0
    1.2510   -5.7060   -4.1200 C   0  0  0  0  0  0  0  0  0  0  0  0
    2.3380   -6.4980   -4.5130 C   0  0  0  0  0  0  0  0  0  0  0  0
    6.0780   -9.8647   -5.0631 H   0  0  0  0  0  0  0  0  0  0  0  0
    4.9655  -10.2093   -6.4306 H   0  0  0  0  0  0  0  0  0  0  0  0
    5.9503   -8.7071   -6.4306 H   0  0  0  0  0  0  0  0  0  0  0  0
    3.5710   -8.2330   -6.9430 H   0  0  0  0  0  0  0  0  0  0  0  0
    0.9685   -8.0267   -7.2291 H   0  0  0  0  0  0  0  0  0  0  0  0
   -0.9683   -6.6307   -6.5246 H   0  0  0  0  0  0  0  0  0  0  0  0
   -3.0672   -5.1870   -4.0252 H   0  0  0  0  0  0  0  0  0  0  0  0
   -2.2137   -6.7426   -4.2915 H   0  0  0  0  0  0  0  0  0  0  0  0
   -2.7957   -5.7692   -0.4762 H   0  0  0  0  0  0  0  0  0  0  0  0
   -3.6266   -4.8480   -1.7753 H   0  0  0  0  0  0  0  0  0  0  0  0
   -3.6759   -6.6436   -1.7753 H   0  0  0  0  0  0  0  0  0  0  0  0
   -0.7110   -4.2510   -2.8720 H   0  0  0  0  0  0  0  0  0  0  0  0
   -1.4480   -7.8310   -3.9010 H   0  0  0  0  0  0  0  0  0  0  0  0
   -1.0672   -9.7174   -1.0720 H   0  0  0  0  0  0  0  0  0  0  0  0
    0.0522  -11.9406   -0.9031 H   0  0  0  0  0  0  0  0  0  0  0  0
    0.6948   -9.1142   -4.9676 H   0  0  0  0  0  0  0  0  0  0  0  0
    1.3356   -5.0549   -3.2374 H   0  0  0  0  0  0  0  0  0  0  0  0
    3.2718   -6.4624   -3.9326 H   0  0  0  0  0  0  0  0  0  0  0  0
  1  2  1  0
  2  3  2  0
  2  4  1  0
  4  5  1  0
  5  6  2  0
  6  7  1  0
  7  8  2  0
  8  9  1  0
  9 10  1  0
 10 11  1  0
 11 12  1  0
 11 13  1  1
 11 14  1  0
 14 15  2  0
 14 16  1  0
 16 17  1  0
 17 18  2  0
 18 19  1  0
 19 20  2  0
 20 21  1  0
 21 22  2  0
 21 23  1  0
 20 24  1  0
 24 25  1  0
 25 26  1  0
 25 27  1  0
 25 28  1  0
 24 29  2  0
  8 30  1  0
 30 31  2  0
 31  5  1  0
 29 17  1  0
  1 32  1  0
  1 33  1  0
  1 34  1  0
  4 35  1  0
  6 36  1  0
  7 37  1  0
 10 38  1  0
 10 39  1  0
 12 40  1  0
 12 41  1  0
 12 42  1  0
 13 43  1  0
 16 44  1  0
 18 45  1  0
 19 46  1  0
 29 47  1  0
 30 48  1  0
 31 49  1  0
M  CHG  2  21   1  23  -1
M  END
>  <meeko>  (4) 
{"is_sidechain": [false], "free_energy": -2.471, "intermolecular_energy": -3.15, "internal_energy": 0.126}

$$$$
3b68_ligand
     RDKit          3D

 49 50  0  0  0  0  0  0  0  0999 V2000
    3.3240   -5.4400   -6.6740 C   0  0  0  0  0  0  0  0  0  0  0  0
    2.8540   -6.5170   -5.7300 C   0  0  0  0  0  0  0  0  0  0  0  0
    2.1530   -6.2400   -4.7620 O   0  0  0  0  0  0  0  0  0  0  0  0
    3.3310   -7.7680   -6.0810 N   0  0  0  0  0  0  0  0  0  0  0  0
    3.0820   -8.9940   -5.4320 C   0  0  0  0  0  0  0  0  0  0  0  0
    1.8760   -9.6890   -5.5090 C   0  0  0  0  0  0  0  0  0  0  0  0
    1.7170  -10.9060   -4.8350 C   0  0  0  0  0  0  0  0  0  0  0  0
    2.7530  -11.4420   -4.0710 C   0  0  0  0  0  0  0  0  0  0  0  0
    2.4680  -12.6340   -3.4690 O   0  0  0  0  0  0  0  0  0  0  0  0
    1.3750  -12.6470   -2.5440 C   0  0  0  0  0  0  0  0  0  0  0  0
    1.6770  -11.6760   -1.3890 C   0  0  2  0  0  0  0  0  0  0  0  0
    3.1340  -11.8020   -0.9440 C   0  0  0  0  0  0  0  0  0  0  0  0
    0.8810  -12.0550   -0.2550 O   0  0  0  0  0  0  0  0  0  0  0  0
    1.3450  -10.2100   -1.7920 C   0  0  0  0  0  0  0  0  0  0  0  0
    2.1660   -9.3200   -1.5720 O   0  0  0  0  0  0  0  0  0  0  0  0
    0.1000  -10.0280   -2.3720 N   0  0  0  0  0  0  0  0  0  0  0  0
   -0.4660   -8.8180   -2.8270 C   0  0  0  0  0  0  0  0  0  0  0  0
   -0.8730   -7.9020   -1.8480 C   0  0  0  0  0  0  0  0  0  0  0  0
   -1.4370   -6.6770   -2.2080 C   0  0  0  0  0  0  0  0  0  0  0  0
   -1.6000   -6.3650   -3.5640 C   0  0  0  0  0  0  0  0  0  0  0  0
   -2.1660   -5.0620   -3.8870 N   0  0  0  0  0  0  0  0  0  0  0  0
   -3.3700   -4.9010   -3.6650 O   0  0  0  0  0  0  0  0  0  0  0  0
   -1.4020   -4.2280   -4.3890 O   0  0  0  0  0  0  0  0  0  0  0  0
   -1.2250   -7.2650   -4.5700 C   0  0  0  0  0  0  0  0  0  0  0  0
   -1.4230   -6.9660   -6.0340 C   0  0  0  0  0  0  0  0  0  0  0  0
   -1.4020   -8.0860   -6.8110 F   0  0  0  0  0  0  0  0  0  0  0  0
   -0.4640   -6.1500   -6.5410 F   0  0  0  0  0  0  0  0  0  0  0  0
   -2.6220   -6.3780   -6.2940 F   0  0  0  0  0  0  0  0  0  0  0  0
   -0.6450   -8.4910   -4.1770 C   0  0  0  0  0  0  0  0  0  0  0  0
    3.9640  -10.7580   -3.9980 C   0  0  0  0  0  0  0  0  0  0  0  0
    4.1250   -9.5420   -4.6750 C   0  0  0  0  0  0  0  0  0  0  0  0
    3.6981   -4.5827   -6.0951 H   0  0  0  0  0  0  0  0  0  0  0  0
    4.1316   -5.8349   -7.3079 H   0  0  0  0  0  0  0  0  0  0  0  0
    2.4853   -5.1164   -7.3079 H   0  0  0  0  0  0  0  0  0  0  0  0
    3.9360   -7.8100   -6.8910 H   0  0  0  0  0  0  0  0  0  0  0  0
    1.0452   -9.2793   -6.1022 H   0  0  0  0  0  0  0  0  0  0  0  0
    0.7619  -11.4465   -4.9092 H   0  0  0  0  0  0  0  0  0  0  0  0
    0.4546  -12.3324   -3.0578 H   0  0  0  0  0  0  0  0  0  0  0  0
    1.2401  -13.6636   -2.1461 H   0  0  0  0  0  0  0  0  0  0  0  0
    3.1827  -11.8062    0.1549 H   0  0  0  0  0  0  0  0  0  0  0  0
    3.5565  -12.7400   -1.3333 H   0  0  0  0  0  0  0  0  0  0  0  0
    3.7113  -10.9504   -1.3333 H   0  0  0  0  0  0  0  0  0  0  0  0
   -0.0450  -12.0700   -0.5780 H   0  0  0  0  0  0  0  0  0  0  0  0
   -0.4930  -10.8430   -2.4590 H   0  0  0  0  0  0  0  0  0  0  0  0
   -0.7467   -8.1510   -0.7840 H   0  0  0  0  0  0  0  0  0  0  0  0
   -1.7510   -5.9622   -1.4331 H   0  0  0  0  0  0  0  0  0  0  0  0
   -0.3262   -9.2062   -4.9495 H   0  0  0  0  0  0  0  0  0  0  0  0
    4.7948  -11.1728   -3.4083 H   0  0  0  0  0  0  0  0  0  0  0  0
    5.0854   -9.0095   -4.6109 H   0  0  0  0  0  0  0  0  0  0  0  0
  1  2  1  0
  2  3  2  0
  2  4  1  0
  4  5  1  0
  5  6  2  0
  6  7  1  0
  7  8  2  0
  8  9  1  0
  9 10  1  0
 10 11  1  0
 11 12  1  0
 11 13  1  1
 11 14  1  0
 14 15  2  0
 14 16  1  0
 16 17  1  0
 17 18  2  0
 18 19  1  0
 19 20  2  0
 20 21  1  0
 21 22  2  0
 21 23  1  0
 20 24  1  0
 24 25  1  0
 25 26  1  0
 25 27  1  0
 25 28  1  0
 24 29  2  0
  8 30  1  0
 30 31  2  0
 31  5  1  0
 29 17  1  0
  1 32  1  0
  1 33  1  0
  1 34  1  0
  4 35  1  0
  6 36  1  0
  7 37  1  0
 10 38  1  0
 10 39  1  0
 12 40  1  0
 12 41  1  0
 12 42  1  0
 13 43  1  0
 16 44  1  0
 18 45  1  0
 19 46  1  0
 29 47  1  0
 30 48  1  0
 31 49  1  0
M  CHG  2  21   1  23  -1
M  END
>  <meeko>  (5) 
{"is_sidechain": [false], "free_energy": -1.786, "intermolecular_energy": -2.451, "internal_energy": 0.453}

$$$$
3b68_ligand
     RDKit          3D

 49 50  0  0  0  0  0  0  0  0999 V2000
   -2.4730   -5.6160   -1.6750 C   0  0  0  0  0  0  0  0  0  0  0  0
   -1.1910   -6.3880   -1.8580 C   0  0  0  0  0  0  0  0  0  0  0  0
   -0.1740   -5.8290   -2.2570 O   0  0  0  0  0  0  0  0  0  0  0  0
   -1.3400   -7.7310   -1.5590 N   0  0  0  0  0  0  0  0  0  0  0  0
   -0.3520   -8.7360   -1.6090 C   0  0  0  0  0  0  0  0  0  0  0  0
    1.0110   -8.5000   -1.4440 C   0  0  0  0  0  0  0  0  0  0  0  0
    1.9250   -9.5590   -1.5020 C   0  0  0  0  0  0  0  0  0  0  0  0
    1.4930  -10.8640   -1.7350 C   0  0  0  0  0  0  0  0  0  0  0  0
    2.4840  -11.8020   -1.7660 O   0  0  0  0  0  0  0  0  0  0  0  0
    2.2920  -12.9180   -2.6420 C   0  0  0  0  0  0  0  0  0  0  0  0
    2.9330  -12.6060   -4.0060 C   0  0  2  0  0  0  0  0  0  0  0  0
    2.3910  -13.5430   -5.0850 C   0  0  0  0  0  0  0  0  0  0  0  0
    4.3420  -12.8720   -3.9200 O   0  0  0  0  0  0  0  0  0  0  0  0
    2.7080  -11.1180   -4.4000 C   0  0  0  0  0  0  0  0  0  0  0  0
    3.6780  -10.3710   -4.5300 O   0  0  0  0  0  0  0  0  0  0  0  0
    1.3830  -10.7470   -4.5620 N   0  0  0  0  0  0  0  0  0  0  0  0
    0.8840   -9.4730   -4.9090 C   0  0  0  0  0  0  0  0  0  0  0  0
   -0.4950   -9.3710   -5.1290 C   0  0  0  0  0  0  0  0  0  0  0  0
   -1.0750   -8.1480   -5.4700 C   0  0  0  0  0  0  0  0  0  0  0  0
   -0.2640   -7.0120   -5.5950 C   0  0  0  0  0  0  0  0  0  0  0  0
   -0.9210   -5.7540   -5.9230 N   0  0  0  0  0  0  0  0  0  0  0  0
   -1.1990   -5.0030   -4.9820 O   0  0  0  0  0  0  0  0  0  0  0  0
   -1.1800   -5.5500   -7.1150 O   0  0  0  0  0  0  0  0  0  0  0  0
    1.1220   -7.0800   -5.4030 C   0  0  0  0  0  0  0  0  0  0  0  0
    2.0190   -5.8800   -5.5680 C   0  0  0  0  0  0  0  0  0  0  0  0
    1.6120   -5.0480   -6.5680 F   0  0  0  0  0  0  0  0  0  0  0  0
    3.2990   -6.2150   -5.8680 F   0  0  0  0  0  0  0  0  0  0  0  0
    2.0640   -5.0990   -4.4550 F   0  0  0  0  0  0  0  0  0  0  0  0
    1.6790   -8.3270   -5.0470 C   0  0  0  0  0  0  0  0  0  0  0  0
    0.1300  -11.1090   -1.8910 C   0  0  0  0  0  0  0  0  0  0  0  0
   -0.7850  -10.0490   -1.8280 C   0  0  0  0  0  0  0  0  0  0  0  0
   -2.6769   -5.4932   -0.6011 H   0  0  0  0  0  0  0  0  0  0  0  0
   -2.3754   -4.6264   -2.1452 H   0  0  0  0  0  0  0  0  0  0  0  0
   -3.3020   -6.1652   -2.1452 H   0  0  0  0  0  0  0  0  0  0  0  0
   -2.2650   -8.0320   -1.2830 H   0  0  0  0  0  0  0  0  0  0  0  0
    1.3712   -7.4758   -1.2671 H   0  0  0  0  0  0  0  0  0  0  0  0
    2.9975   -9.3589   -1.3620 H   0  0  0  0  0  0  0  0  0  0  0  0
    2.7651  -13.8116   -2.2088 H   0  0  0  0  0  0  0  0  0  0  0  0
    1.2159  -13.1044   -2.7731 H   0  0  0  0  0  0  0  0  0  0  0  0
    1.8944  -14.4016   -4.6093 H   0  0  0  0  0  0  0  0  0  0  0  0
    1.6668  -13.0012   -5.7111 H   0  0  0  0  0  0  0  0  0  0  0  0
    3.2217  -13.9006   -5.7111 H   0  0  0  0  0  0  0  0  0  0  0  0
    4.4660  -13.3630   -3.0810 H   0  0  0  0  0  0  0  0  0  0  0  0
    0.6800  -11.4530   -4.3850 H   0  0  0  0  0  0  0  0  0  0  0  0
   -1.1286  -10.2649   -5.0320 H   0  0  0  0  0  0  0  0  0  0  0  0
   -2.1596   -8.0765   -5.6392 H   0  0  0  0  0  0  0  0  0  0  0  0
    2.7627   -8.4012   -4.8737 H   0  0  0  0  0  0  0  0  0  0  0  0
   -0.2280  -12.1347   -2.0637 H   0  0  0  0  0  0  0  0  0  0  0  0
   -1.8589  -10.2519   -1.9525 H   0  0  0  0  0  0  0  0  0  0  0  0
  1  2  1  0
  2  3  2  0
  2  4  1  0
  4  5  1  0
  5  6  2  0
  6  7  1  0
  7  8  2  0
  8  9  1  0
  9 10  1  0
 10 11  1  0
 11 12  1  0
 11 13  1  1
 11 14  1  0
 14 15  2  0
 14 16  1  0
 16 17  1  0
 17 18  2  0
 18 19  1  0
 19 20  2  0
 20 21  1  0
 21 22  2  0
 21 23  1  0
 20 24  1  0
 24 25  1  0
 25 26  1  0
 25 27  1  0
 25 28  1  0
 24 29  2  0
  8 30  1  0
 30 31  2  0
 31  5  1  0
 29 17  1  0
  1 32  1  0
  1 33  1  0
  1 34  1  0
  4 35  1  0
  6 36  1  0
  7 37  1  0
 10 38  1  0
 10 39  1  0
 12 40  1  0
 12 41  1  0
 12 42  1  0
 13 43  1  0
 16 44  1  0
 18 45  1  0
 19 46  1  0
 29 47  1  0
 30 48  1  0
 31 49  1  0
M  CHG  2  21   1  23  -1
M  END
>  <meeko>  (6) 
{"is_sidechain": [false], "free_energy": -1.688, "intermolecular_energy": -2.295, "internal_energy": 0.443}

$$$$
3b68_ligand
     RDKit          3D

 49 50  0  0  0  0  0  0  0  0999 V2000
    3.0950  -13.1030   -4.0020 C   0  0  0  0  0  0  0  0  0  0  0  0
    2.2130  -11.8810   -3.9380 C   0  0  0  0  0  0  0  0  0  0  0  0
    1.8970  -11.2840   -4.9620 O   0  0  0  0  0  0  0  0  0  0  0  0
    1.8710  -11.5480   -2.6400 N   0  0  0  0  0  0  0  0  0  0  0  0
    1.0570  -10.4790   -2.2150 C   0  0  0  0  0  0  0  0  0  0  0  0
    1.5280   -9.3640   -1.5240 C   0  0  0  0  0  0  0  0  0  0  0  0
    0.6480   -8.3430   -1.1440 C   0  0  0  0  0  0  0  0  0  0  0  0
   -0.7110   -8.4240   -1.4390 C   0  0  0  0  0  0  0  0  0  0  0  0
   -1.4580   -7.3620   -1.0150 O   0  0  0  0  0  0  0  0  0  0  0  0
   -2.4200   -6.8370   -1.9360 C   0  0  0  0  0  0  0  0  0  0  0  0
   -1.7300   -5.8230   -2.8650 C   0  0  2  0  0  0  0  0  0  0  0  0
   -0.8600   -4.8570   -2.0620 C   0  0  0  0  0  0  0  0  0  0  0  0
   -2.7410   -5.0190   -3.4940 O   0  0  0  0  0  0  0  0  0  0  0  0
   -0.8900   -6.5490   -3.9560 C   0  0  0  0  0  0  0  0  0  0  0  0
   -1.4590   -7.0560   -4.9220 O   0  0  0  0  0  0  0  0  0  0  0  0
    0.4760   -6.5730   -3.7270 N   0  0  0  0  0  0  0  0  0  0  0  0
    1.4720   -7.1600   -4.5360 C   0  0  0  0  0  0  0  0  0  0  0  0
    1.2420   -7.1680   -5.9180 C   0  0  0  0  0  0  0  0  0  0  0  0
    2.1760   -7.7230   -6.7940 C   0  0  0  0  0  0  0  0  0  0  0  0
    3.3550   -8.2810   -6.2800 C   0  0  0  0  0  0  0  0  0  0  0  0
    4.3120   -8.8190   -7.2380 N   0  0  0  0  0  0  0  0  0  0  0  0
    5.0710   -9.7070   -6.8360 O   0  0  0  0  0  0  0  0  0  0  0  0
    4.3110   -8.3230   -8.3710 O   0  0  0  0  0  0  0  0  0  0  0  0
    3.6100   -8.3100   -4.9030 C   0  0  0  0  0  0  0  0  0  0  0  0
    4.8530   -8.9360   -4.3260 C   0  0  0  0  0  0  0  0  0  0  0  0
    5.9990   -8.3950   -4.8250 F   0  0  0  0  0  0  0  0  0  0  0  0
    4.9380  -10.2680   -4.5750 F   0  0  0  0  0  0  0  0  0  0  0  0
    4.9450   -8.7790   -2.9770 F   0  0  0  0  0  0  0  0  0  0  0  0
    2.6520   -7.7300   -4.0420 C   0  0  0  0  0  0  0  0  0  0  0  0
   -1.1880   -9.5300   -2.1390 C   0  0  0  0  0  0  0  0  0  0  0  0
   -0.3070  -10.5510   -2.5220 C   0  0  0  0  0  0  0  0  0  0  0  0
    3.3351  -13.4357   -2.9814 H   0  0  0  0  0  0  0  0  0  0  0  0
    2.5683  -13.9078   -4.5356 H   0  0  0  0  0  0  0  0  0  0  0  0
    4.0248  -12.8566   -4.5356 H   0  0  0  0  0  0  0  0  0  0  0  0
    2.2570  -12.1290   -1.9070 H   0  0  0  0  0  0  0  0  0  0  0  0
    2.5967   -9.2855   -1.2758 H   0  0  0  0  0  0  0  0  0  0  0  0
    1.0351   -7.4654   -0.6054 H   0  0  0  0  0  0  0  0  0  0  0  0
   -2.8415   -7.6575   -2.5353 H   0  0  0  0  0  0  0  0  0  0  0  0
   -3.2291   -6.3392   -1.3815 H   0  0  0  0  0  0  0  0  0  0  0  0
   -1.0160   -5.0302   -0.9870 H   0  0  0  0  0  0  0  0  0  0  0  0
    0.1985   -5.0238   -2.3105 H   0  0  0  0  0  0  0  0  0  0  0  0
   -1.1362   -3.8217   -2.3105 H   0  0  0  0  0  0  0  0  0  0  0  0
   -3.4610   -5.6410   -3.7320 H   0  0  0  0  0  0  0  0  0  0  0  0
    0.8080   -6.1500   -2.8700 H   0  0  0  0  0  0  0  0  0  0  0  0
    0.3145   -6.7318   -6.3173 H   0  0  0  0  0  0  0  0  0  0  0  0
    1.9888   -7.7226   -7.8780 H   0  0  0  0  0  0  0  0  0  0  0  0
    2.8372   -7.7260   -2.9577 H   0  0  0  0  0  0  0  0  0  0  0  0
   -2.2562   -9.6022   -2.3913 H   0  0  0  0  0  0  0  0  0  0  0  0
   -0.6933  -11.4218   -3.0720 H   0  0  0  0  0  0  0  0  0  0  0  0
  1  2  1  0
  2  3  2  0
  2  4  1  0
  4  5  1  0
  5  6  2  0
  6  7  1  0
  7  8  2  0
  8  9  1  0
  9 10  1  0
 10 11  1  0
 11 12  1  0
 11 13  1  6
 11 14  1  0
 14 15  2  0
 14 16  1  0
 16 17  1  0
 17 18  2  0
 18 19  1  0
 19 20  2  0
 20 21  1  0
 21 22  2  0
 21 23  1  0
 20 24  1  0
 24 25  1  0
 25 26  1  0
 25 27  1  0
 25 28  1  0
 24 29  2  0
  8 30  1  0
 30 31  2  0
 31  5  1  0
 29 17  1  0
  1 32  1  0
  1 33  1  0
  1 34  1  0
  4 35  1  0
  6 36  1  0
  7 37  1  0
 10 38  1  0
 10 39  1  0
 12 40  1  0
 12 41  1  0
 12 42  1  0
 13 43  1  0
 16 44  1  0
 18 45  1  0
 19 46  1  0
 29 47  1  0
 30 48  1  0
 31 49  1  0
M  CHG  2  21   1  23  -1
M  END
>  <meeko>  (7) 
{"is_sidechain": [false], "free_energy": -1.49, "intermolecular_energy": -2.391, "internal_energy": 0.834}

$$$$
3b68_ligand
     RDKit          3D

 49 50  0  0  0  0  0  0  0  0999 V2000
    5.2050   -9.4940   -7.0760 C   0  0  0  0  0  0  0  0  0  0  0  0
    4.3690   -8.7470   -6.0680 C   0  0  0  0  0  0  0  0  0  0  0  0
    4.7640   -8.5950   -4.9170 O   0  0  0  0  0  0  0  0  0  0  0  0
    3.1630   -8.3220   -6.5980 N   0  0  0  0  0  0  0  0  0  0  0  0
    2.1500   -7.5910   -5.9460 C   0  0  0  0  0  0  0  0  0  0  0  0
    2.3890   -6.5280   -5.0760 C   0  0  0  0  0  0  0  0  0  0  0  0
    1.3200   -5.8530   -4.4750 C   0  0  0  0  0  0  0  0  0  0  0  0
    0.0020   -6.2320   -4.7240 C   0  0  0  0  0  0  0  0  0  0  0  0
   -0.9430   -5.4900   -4.0770 O   0  0  0  0  0  0  0  0  0  0  0  0
   -1.9300   -6.2090   -3.3290 C   0  0  0  0  0  0  0  0  0  0  0  0
   -1.3490   -6.5860   -1.9550 C   0  0  2  0  0  0  0  0  0  0  0  0
   -2.4050   -6.4320   -0.8610 C   0  0  0  0  0  0  0  0  0  0  0  0
   -0.3030   -5.6570   -1.6320 O   0  0  0  0  0  0  0  0  0  0  0  0
   -0.7740   -8.0320   -1.9720 C   0  0  0  0  0  0  0  0  0  0  0  0
   -1.3120   -8.9060   -1.2930 O   0  0  0  0  0  0  0  0  0  0  0  0
    0.3450   -8.2100   -2.7690 N   0  0  0  0  0  0  0  0  0  0  0  0
    1.0750   -9.4010   -2.9690 C   0  0  0  0  0  0  0  0  0  0  0  0
    2.4720   -9.2980   -2.9520 C   0  0  0  0  0  0  0  0  0  0  0  0
    3.2740  -10.4260   -3.1350 C   0  0  0  0  0  0  0  0  0  0  0  0
    2.6690  -11.6730   -3.3420 C   0  0  0  0  0  0  0  0  0  0  0  0
    3.5490  -12.8240   -3.4980 N   0  0  0  0  0  0  0  0  0  0  0  0
    3.9300  -13.3850   -2.4660 O   0  0  0  0  0  0  0  0  0  0  0  0
    3.8720  -13.1300   -4.6520 O   0  0  0  0  0  0  0  0  0  0  0  0
    1.2760  -11.8110   -3.3870 C   0  0  0  0  0  0  0  0  0  0  0  0
    0.6050  -13.1360   -3.6440 C   0  0  0  0  0  0  0  0  0  0  0  0
    0.8480  -13.6190   -4.8950 F   0  0  0  0  0  0  0  0  0  0  0  0
   -0.7460  -13.0740   -3.5310 F   0  0  0  0  0  0  0  0  0  0  0  0
    1.0290  -14.1140   -2.7990 F   0  0  0  0  0  0  0  0  0  0  0  0
    0.4910  -10.6550   -3.1860 C   0  0  0  0  0  0  0  0  0  0  0  0
   -0.2450   -7.2870   -5.6000 C   0  0  0  0  0  0  0  0  0  0  0  0
    0.8240   -7.9610   -6.2050 C   0  0  0  0  0  0  0  0  0  0  0  0
    5.9254  -10.1377   -6.5499 H   0  0  0  0  0  0  0  0  0  0  0  0
    4.5514  -10.1144   -7.7068 H   0  0  0  0  0  0  0  0  0  0  0  0
    5.7482   -8.7749   -7.7068 H   0  0  0  0  0  0  0  0  0  0  0  0
    2.9800   -8.5720   -7.5600 H   0  0  0  0  0  0  0  0  0  0  0  0
    3.4224   -6.2183   -4.8609 H   0  0  0  0  0  0  0  0  0  0  0  0
    1.5231   -5.0114   -3.7965 H   0  0  0  0  0  0  0  0  0  0  0  0
   -2.8197   -5.5769   -3.1913 H   0  0  0  0  0  0  0  0  0  0  0  0
   -2.2133   -7.1220   -3.8733 H   0  0  0  0  0  0  0  0  0  0  0  0
   -1.9237   -6.5022    0.1256 H   0  0  0  0  0  0  0  0  0  0  0  0
   -2.8961   -5.4527   -0.9606 H   0  0  0  0  0  0  0  0  0  0  0  0
   -3.1553   -7.2302   -0.9606 H   0  0  0  0  0  0  0  0  0  0  0  0
   -0.2390   -5.6630   -0.6530 H   0  0  0  0  0  0  0  0  0  0  0  0
    0.7090   -7.3940   -3.2440 H   0  0  0  0  0  0  0  0  0  0  0  0
    2.9427   -8.3166   -2.7926 H   0  0  0  0  0  0  0  0  0  0  0  0
    4.3702  -10.3368   -3.1169 H   0  0  0  0  0  0  0  0  0  0  0  0
   -0.6055  -10.7414   -3.2002 H   0  0  0  0  0  0  0  0  0  0  0  0
   -1.2798   -7.5909   -5.8167 H   0  0  0  0  0  0  0  0  0  0  0  0
    0.6188   -8.7936   -6.8940 H   0  0  0  0  0  0  0  0  0  0  0  0
  1  2  1  0
  2  3  2  0
  2  4  1  0
  4  5  1  0
  5  6  2  0
  6  7  1  0
  7  8  2  0
  8  9  1  0
  9 10  1  0
 10 11  1  0
 11 12  1  0
 11 13  1  1
 11 14  1  0
 14 15  2  0
 14 16  1  0
 16 17  1  0
 17 18  2  0
 18 19  1  0
 19 20  2  0
 20 21  1  0
 21 22  2  0
 21 23  1  0
 20 24  1  0
 24 25  1  0
 25 26  1  0
 25 27  1  0
 25 28  1  0
 24 29  2  0
  8 30  1  0
 30 31  2  0
 31  5  1  0
 29 17  1  0
  1 32  1  0
  1 33  1  0
  1 34  1  0
  4 35  1  0
  6 36  1  0
  7 37  1  0
 10 38  1  0
 10 39  1  0
 12 40  1  0
 12 41  1  0
 12 42  1  0
 13 43  1  0
 16 44  1  0
 18 45  1  0
 19 46  1  0
 29 47  1  0
 30 48  1  0
 31 49  1  0
M  CHG  2  21   1  23  -1
M  END
>  <meeko>  (8) 
{"is_sidechain": [false], "free_energy": -0.944, "intermolecular_energy": -1.261, "internal_energy": 0.523}

$$$$
