
     RDKit          3D

 13 13  0  0  0  0  0  0  0  0999 V2000
    5.8250  -25.5640    2.2480 O   0  0  0  0  0  0  0  0  0  0  0  0
    6.4900  -26.6460    1.6410 C   0  0  0  0  0  0  0  0  0  0  0  0
    5.6170  -27.2070    0.5260 C   0  0  2  0  0  0  0  0  0  0  0  0
    4.2900  -27.4870    1.0890 N   0  0  0  0  0  0  0  0  0  0  0  0
    3.3910  -28.0100    0.0660 C   0  0  2  0  0  0  0  0  0  0  0  0
    2.0080  -28.2110    0.6830 C   0  0  0  0  0  0  0  0  0  0  0  0
    1.6200  -27.0450    1.3740 O   0  0  0  0  0  0  0  0  0  0  0  0
    3.9410  -29.3140   -0.5070 C   0  0  1  0  0  0  0  0  0  0  0  0
    3.0510  -29.8210   -1.4700 O   0  0  0  0  0  0  0  0  0  0  0  0
    5.2820  -28.9910   -1.1340 C   0  0  2  0  0  0  0  0  0  0  0  0
    5.8200  -30.1630   -1.7370 O   0  0  0  0  0  0  0  0  0  0  0  0
    6.2370  -28.4470   -0.1020 C   0  0  2  0  0  0  0  0  0  0  0  0
    6.4710  -29.3930    0.8990 O   0  0  0  0  0  0  0  0  0  0  0  0
  2  1  1  0
  3  2  1  1
  4  3  1  0
  5  4  1  0
  5  6  1  1
  7  6  1  0
  8  5  1  0
  8  9  1  6
 10  8  1  0
 10 11  1  1
 12 10  1  0
 12  3  1  0
 12 13  1  1
M  CHG  1   4   1
M  END
$$$$
