3cj4_ligand
     RDKit          3D

 47 48  0  0  0  0  0  0  0  0999 V2000
    0.3970   -0.5280    1.6470 C   0  0  0  0  0  0  0  0  0  0  0  0
    1.4120   -1.2250    0.7440 C   0  0  2  0  0  0  0  0  0  0  0  0
    2.6530   -0.3470    0.5410 C   0  0  0  0  0  0  0  0  0  0  0  0
    3.6490   -1.0460   -0.3910 C   0  0  2  0  0  0  0  0  0  0  0  0
    4.8790   -0.1710   -0.6200 C   0  0  0  0  0  0  0  0  0  0  0  0
    2.9800   -1.4020   -1.7230 C   0  0  0  0  0  0  0  0  0  0  0  0
    1.7470   -2.1640   -1.5420 N   0  0  0  0  0  0  0  0  0  0  0  0
    1.3430   -2.9320   -2.6410 C   0  0  0  0  0  0  0  0  0  0  0  0
    1.4490   -2.5850   -3.8160 O   0  0  0  0  0  0  0  0  0  0  0  0
    0.8910   -4.3150   -2.4000 C   0  0  0  0  0  0  0  0  0  0  0  0
   -0.4450   -4.4330   -1.9720 C   0  0  0  0  0  0  0  0  0  0  0  0
   -0.9600   -5.6860   -1.6730 C   0  0  0  0  0  0  0  0  0  0  0  0
   -2.7540   -5.8590   -1.1070 Br  0  0  0  0  0  0  0  0  0  0  0  0
   -0.1560   -6.8130   -1.7860 C   0  0  0  0  0  0  0  0  0  0  0  0
    1.1760   -6.6860   -2.2010 C   0  0  0  0  0  0  0  0  0  0  0  0
    1.7330   -5.4380   -2.5160 C   0  0  0  0  0  0  0  0  0  0  0  0
    3.0750   -5.2990   -2.9510 N   0  0  0  0  0  0  0  0  0  0  0  0
    4.2060   -5.1300   -2.1730 C   0  0  0  0  0  0  0  0  0  0  0  0
    4.2380   -5.0430   -0.9450 O   0  0  0  0  0  0  0  0  0  0  0  0
    5.5040   -5.0220   -2.9640 C   0  0  0  0  0  0  0  0  0  0  0  0
    5.5000   -5.8670   -4.2320 C   0  0  0  0  0  0  0  0  0  0  0  0
    5.5580   -7.3660   -3.9720 C   0  0  0  0  0  0  0  0  0  0  0  0
    4.4420   -7.9290   -3.8140 O   0  0  0  0  0  0  0  0  0  0  0  0
    6.7150   -7.8750   -3.9820 O   0  0  0  0  0  0  0  0  0  0  0  0
    0.7780   -1.5870   -0.6040 C   0  0  0  0  0  0  0  0  0  0  0  0
    0.6589   -0.7078    2.7001 H   0  0  0  0  0  0  0  0  0  0  0  0
    0.4089    0.5534    1.4457 H   0  0  0  0  0  0  0  0  0  0  0  0
   -0.6080   -0.9274    1.4457 H   0  0  0  0  0  0  0  0  0  0  0  0
    1.7280   -2.1559    1.2375 H   0  0  0  0  0  0  0  0  0  0  0  0
    2.3505    0.6124    0.0959 H   0  0  0  0  0  0  0  0  0  0  0  0
    3.1336   -0.1739    1.5152 H   0  0  0  0  0  0  0  0  0  0  0  0
    3.9777   -1.9789    0.0903 H   0  0  0  0  0  0  0  0  0  0  0  0
    5.3011    0.1293    0.3504 H   0  0  0  0  0  0  0  0  0  0  0  0
    5.6317   -0.7378   -1.1877 H   0  0  0  0  0  0  0  0  0  0  0  0
    4.5904    0.7259   -1.1877 H   0  0  0  0  0  0  0  0  0  0  0  0
    2.7442   -0.4711   -2.2595 H   0  0  0  0  0  0  0  0  0  0  0  0
    3.6811   -2.0297   -2.2926 H   0  0  0  0  0  0  0  0  0  0  0  0
   -1.0764   -3.5375   -1.8753 H   0  0  0  0  0  0  0  0  0  0  0  0
   -0.5655   -7.8061   -1.5494 H   0  0  0  0  0  0  0  0  0  0  0  0
    1.8007   -7.5878   -2.2818 H   0  0  0  0  0  0  0  0  0  0  0  0
    3.2640   -5.3800   -3.9670 H   0  0  0  0  0  0  0  0  0  0  0  0
    5.6571   -3.9695   -3.2446 H   0  0  0  0  0  0  0  0  0  0  0  0
    6.3137   -5.3972   -2.3209 H   0  0  0  0  0  0  0  0  0  0  0  0
    4.5790   -5.6476   -4.7920 H   0  0  0  0  0  0  0  0  0  0  0  0
    6.4078   -5.6042   -4.7948 H   0  0  0  0  0  0  0  0  0  0  0  0
    0.3538   -0.6757   -1.0507 H   0  0  0  0  0  0  0  0  0  0  0  0
    0.0019   -2.3437   -0.4166 H   0  0  0  0  0  0  0  0  0  0  0  0
  1  2  1  0
  2  3  1  0
  3  4  1  0
  4  5  1  0
  4  6  1  0
  6  7  1  0
  7  8  1  0
  8  9  2  0
  8 10  1  0
 10 11  2  0
 11 12  1  0
 12 13  1  0
 12 14  2  0
 14 15  1  0
 15 16  2  0
 16 17  1  0
 17 18  1  0
 18 19  2  0
 18 20  1  0
 20 21  1  0
 21 22  1  0
 22 23  2  0
 22 24  1  0
  7 25  1  0
 25  2  1  0
 16 10  1  0
  1 26  1  0
  1 27  1  0
  1 28  1  0
  2 29  1  1
  3 30  1  0
  3 31  1  0
  4 32  1  1
  5 33  1  0
  5 34  1  0
  5 35  1  0
  6 36  1  0
  6 37  1  0
 11 38  1  0
 14 39  1  0
 15 40  1  0
 17 41  1  0
 20 42  1  0
 20 43  1  0
 21 44  1  0
 21 45  1  0
 25 46  1  0
 25 47  1  0
M  CHG  1  24  -1
M  END
>  <meeko>  (1) 
{"is_sidechain": [false], "free_energy": -6.137, "intermolecular_energy": -8.289, "internal_energy": -1.279}

$$$$
3cj4_ligand
     RDKit          3D

 47 48  0  0  0  0  0  0  0  0999 V2000
   -0.5470    6.3270    1.4400 C   0  0  0  0  0  0  0  0  0  0  0  0
   -0.1810    4.9190    0.9760 C   0  0  2  0  0  0  0  0  0  0  0  0
   -1.4400    4.0770    0.7450 C   0  0  0  0  0  0  0  0  0  0  0  0
   -1.0570    2.6590    0.3090 C   0  0  2  0  0  0  0  0  0  0  0  0
   -2.3030    1.8020    0.1000 C   0  0  0  0  0  0  0  0  0  0  0  0
   -0.1220    2.0150    1.3380 C   0  0  0  0  0  0  0  0  0  0  0  0
    1.0420    2.8480    1.6330 N   0  0  0  0  0  0  0  0  0  0  0  0
    2.1550    2.1720    2.1500 C   0  0  0  0  0  0  0  0  0  0  0  0
    2.2510    1.7600    3.3050 O   0  0  0  0  0  0  0  0  0  0  0  0
    3.2360    1.7930    1.2220 C   0  0  0  0  0  0  0  0  0  0  0  0
    3.1120    0.5060    0.6660 C   0  0  0  0  0  0  0  0  0  0  0  0
    4.0980    0.0310   -0.1860 C   0  0  0  0  0  0  0  0  0  0  0  0
    3.9390   -1.6910   -0.9470 Br  0  0  0  0  0  0  0  0  0  0  0  0
    5.2040    0.8190   -0.4780 C   0  0  0  0  0  0  0  0  0  0  0  0
    5.3260    2.0950    0.0880 C   0  0  0  0  0  0  0  0  0  0  0  0
    4.3480    2.6130    0.9520 C   0  0  0  0  0  0  0  0  0  0  0  0
    4.4540    3.9070    1.5200 N   0  0  0  0  0  0  0  0  0  0  0  0
    4.2130    5.1250    0.9100 C   0  0  0  0  0  0  0  0  0  0  0  0
    3.8860    5.2980   -0.2640 O   0  0  0  0  0  0  0  0  0  0  0  0
    4.4140    6.3330    1.8160 C   0  0  0  0  0  0  0  0  0  0  0  0
    3.1700    6.6830    2.6240 C   0  0  0  0  0  0  0  0  0  0  0  0
    3.2130    6.1890    4.0640 C   0  0  0  0  0  0  0  0  0  0  0  0
    3.2590    4.9380    4.2040 O   0  0  0  0  0  0  0  0  0  0  0  0
    3.2330    7.0930    4.9470 O   0  0  0  0  0  0  0  0  0  0  0  0
    0.7490    4.2410    1.9880 C   0  0  0  0  0  0  0  0  0  0  0  0
   -0.5556    6.3601    2.5395 H   0  0  0  0  0  0  0  0  0  0  0  0
    0.1947    7.0436    1.0574 H   0  0  0  0  0  0  0  0  0  0  0  0
   -1.5438    6.5916    1.0574 H   0  0  0  0  0  0  0  0  0  0  0  0
    0.3541    5.0013    0.0185 H   0  0  0  0  0  0  0  0  0  0  0  0
   -2.0190    4.0258    1.6789 H   0  0  0  0  0  0  0  0  0  0  0  0
   -2.0437    4.5447   -0.0467 H   0  0  0  0  0  0  0  0  0  0  0  0
   -0.5230    2.7248   -0.6505 H   0  0  0  0  0  0  0  0  0  0  0  0
   -2.7192    1.5157    1.0771 H   0  0  0  0  0  0  0  0  0  0  0  0
   -3.0527    2.3764   -0.4639 H   0  0  0  0  0  0  0  0  0  0  0  0
   -2.0348    0.8964   -0.4639 H   0  0  0  0  0  0  0  0  0  0  0  0
   -0.6829    1.8494    2.2697 H   0  0  0  0  0  0  0  0  0  0  0  0
    0.2428    1.0684    0.9127 H   0  0  0  0  0  0  0  0  0  0  0  0
    2.2390   -0.1189    0.9055 H   0  0  0  0  0  0  0  0  0  0  0  0
    5.9849    0.4409   -1.1543 H   0  0  0  0  0  0  0  0  0  0  0  0
    6.2094    2.7056   -0.1503 H   0  0  0  0  0  0  0  0  0  0  0  0
    4.6900    3.9730    2.5270 H   0  0  0  0  0  0  0  0  0  0  0  0
    5.2359    6.1152    2.5139 H   0  0  0  0  0  0  0  0  0  0  0  0
    4.6415    7.1946    1.1711 H   0  0  0  0  0  0  0  0  0  0  0  0
    3.0609    7.7775    2.6360 H   0  0  0  0  0  0  0  0  0  0  0  0
    2.3207    6.1804    2.1382 H   0  0  0  0  0  0  0  0  0  0  0  0
    0.2683    4.2598    2.9772 H   0  0  0  0  0  0  0  0  0  0  0  0
    1.7003    4.7933    1.9914 H   0  0  0  0  0  0  0  0  0  0  0  0
  1  2  1  0
  2  3  1  0
  3  4  1  0
  4  5  1  0
  4  6  1  0
  6  7  1  0
  7  8  1  0
  8  9  2  0
  8 10  1  0
 10 11  2  0
 11 12  1  0
 12 13  1  0
 12 14  2  0
 14 15  1  0
 15 16  2  0
 16 17  1  0
 17 18  1  0
 18 19  2  0
 18 20  1  0
 20 21  1  0
 21 22  1  0
 22 23  2  0
 22 24  1  0
  7 25  1  0
 25  2  1  0
 16 10  1  0
  1 26  1  0
  1 27  1  0
  1 28  1  0
  2 29  1  6
  3 30  1  0
  3 31  1  0
  4 32  1  6
  5 33  1  0
  5 34  1  0
  5 35  1  0
  6 36  1  0
  6 37  1  0
 11 38  1  0
 14 39  1  0
 15 40  1  0
 17 41  1  0
 20 42  1  0
 20 43  1  0
 21 44  1  0
 21 45  1  0
 25 46  1  0
 25 47  1  0
M  CHG  1  24  -1
M  END
>  <meeko>  (2) 
{"is_sidechain": [false], "free_energy": -6.095, "intermolecular_energy": -7.932, "internal_energy": -1.58}

$$$$
3cj4_ligand
     RDKit          3D

 47 48  0  0  0  0  0  0  0  0999 V2000
   -0.7980   -1.2520    0.2580 C   0  0  0  0  0  0  0  0  0  0  0  0
    0.3850   -0.6090    0.9790 C   0  0  2  0  0  0  0  0  0  0  0  0
    0.2810   -0.8230    2.4930 C   0  0  0  0  0  0  0  0  0  0  0  0
    1.4580   -0.1480    3.2050 C   0  0  2  0  0  0  0  0  0  0  0  0
    1.3520   -0.3320    4.7170 C   0  0  0  0  0  0  0  0  0  0  0  0
    1.5240    1.3400    2.8430 C   0  0  0  0  0  0  0  0  0  0  0  0
    1.5350    1.5630    1.3990 N   0  0  0  0  0  0  0  0  0  0  0  0
    2.0720    2.7870    0.9800 C   0  0  0  0  0  0  0  0  0  0  0  0
    1.6250    3.8910    1.2870 O   0  0  0  0  0  0  0  0  0  0  0  0
    3.3450    2.7740    0.2350 C   0  0  0  0  0  0  0  0  0  0  0  0
    3.4250    1.8030   -0.7800 C   0  0  0  0  0  0  0  0  0  0  0  0
    4.5960    1.6740   -1.5130 C   0  0  0  0  0  0  0  0  0  0  0  0
    4.7130    0.3810   -2.8860 Br  0  0  0  0  0  0  0  0  0  0  0  0
    5.6830    2.4920   -1.2360 C   0  0  0  0  0  0  0  0  0  0  0  0
    5.6000    3.4490   -0.2160 C   0  0  0  0  0  0  0  0  0  0  0  0
    4.4320    3.6130    0.5450 C   0  0  0  0  0  0  0  0  0  0  0  0
    4.3310    4.5860    1.5710 N   0  0  0  0  0  0  0  0  0  0  0  0
    4.3680    5.9620    1.4430 C   0  0  0  0  0  0  0  0  0  0  0  0
    4.5260    6.5910    0.3960 O   0  0  0  0  0  0  0  0  0  0  0  0
    4.2220    6.7210    2.7550 C   0  0  0  0  0  0  0  0  0  0  0  0
    2.9190    6.4090    3.4810 C   0  0  0  0  0  0  0  0  0  0  0  0
    3.0860    5.4730    4.6700 C   0  0  0  0  0  0  0  0  0  0  0  0
    3.2650    4.2600    4.3810 O   0  0  0  0  0  0  0  0  0  0  0  0
    3.0630    6.0280    5.8060 O   0  0  0  0  0  0  0  0  0  0  0  0
    0.4750    0.8840    0.6450 C   0  0  0  0  0  0  0  0  0  0  0  0
   -1.5121   -1.6402    0.9992 H   0  0  0  0  0  0  0  0  0  0  0  0
   -1.2958   -0.5004   -0.3722 H   0  0  0  0  0  0  0  0  0  0  0  0
   -0.4380   -2.0786   -0.3722 H   0  0  0  0  0  0  0  0  0  0  0  0
    1.3071   -1.0956    0.6285 H   0  0  0  0  0  0  0  0  0  0  0  0
   -0.6616   -0.3886    2.8574 H   0  0  0  0  0  0  0  0  0  0  0  0
    0.3041   -1.9021    2.7054 H   0  0  0  0  0  0  0  0  0  0  0  0
    2.3881   -0.6277    2.8661 H   0  0  0  0  0  0  0  0  0  0  0  0
    1.8392    0.5137    5.2243 H   0  0  0  0  0  0  0  0  0  0  0  0
    0.2920   -0.3728    5.0080 H   0  0  0  0  0  0  0  0  0  0  0  0
    1.8485   -1.2695    5.0080 H   0  0  0  0  0  0  0  0  0  0  0  0
    0.6470    1.8469    3.2719 H   0  0  0  0  0  0  0  0  0  0  0  0
    2.4627    1.7427    3.2513 H   0  0  0  0  0  0  0  0  0  0  0  0
    2.5650    1.1505   -0.9910 H   0  0  0  0  0  0  0  0  0  0  0  0
    6.6106    2.3887   -1.8181 H   0  0  0  0  0  0  0  0  0  0  0  0
    6.4711    4.0872   -0.0065 H   0  0  0  0  0  0  0  0  0  0  0  0
    4.1580    4.2510    2.5370 H   0  0  0  0  0  0  0  0  0  0  0  0
    5.0624    6.4513    3.4115 H   0  0  0  0  0  0  0  0  0  0  0  0
    4.2165    7.7946    2.5154 H   0  0  0  0  0  0  0  0  0  0  0  0
    2.4883    7.3546    3.8420 H   0  0  0  0  0  0  0  0  0  0  0  0
    2.2655    5.8965    2.7596 H   0  0  0  0  0  0  0  0  0  0  0  0
   -0.4882    1.3583    0.8845 H   0  0  0  0  0  0  0  0  0  0  0  0
    0.7138    0.9745   -0.4249 H   0  0  0  0  0  0  0  0  0  0  0  0
  1  2  1  0
  2  3  1  0
  3  4  1  0
  4  5  1  0
  4  6  1  0
  6  7  1  0
  7  8  1  0
  8  9  2  0
  8 10  1  0
 10 11  2  0
 11 12  1  0
 12 13  1  0
 12 14  2  0
 14 15  1  0
 15 16  2  0
 16 17  1  0
 17 18  1  0
 18 19  2  0
 18 20  1  0
 20 21  1  0
 21 22  1  0
 22 23  2  0
 22 24  1  0
  7 25  1  0
 25  2  1  0
 16 10  1  0
  1 26  1  0
  1 27  1  0
  1 28  1  0
  2 29  1  6
  3 30  1  0
  3 31  1  0
  4 32  1  6
  5 33  1  0
  5 34  1  0
  5 35  1  0
  6 36  1  0
  6 37  1  0
 11 38  1  0
 14 39  1  0
 15 40  1  0
 17 41  1  0
 20 42  1  0
 20 43  1  0
 21 44  1  0
 21 45  1  0
 25 46  1  0
 25 47  1  0
M  CHG  1  24  -1
M  END
>  <meeko>  (3) 
{"is_sidechain": [false], "free_energy": -6.091, "intermolecular_energy": -8.106, "internal_energy": -1.401}

$$$$
3cj4_ligand
     RDKit          3D

 47 48  0  0  0  0  0  0  0  0999 V2000
   -0.2330   -0.6660   -0.0740 C   0  0  0  0  0  0  0  0  0  0  0  0
    0.7560   -0.2110    0.9970 C   0  0  2  0  0  0  0  0  0  0  0  0
    0.3580   -0.7560    2.3720 C   0  0  0  0  0  0  0  0  0  0  0  0
    1.3410   -0.2670    3.4410 C   0  0  2  0  0  0  0  0  0  0  0  0
    0.9410   -0.7840    4.8210 C   0  0  0  0  0  0  0  0  0  0  0  0
    1.4220    1.2630    3.4370 C   0  0  0  0  0  0  0  0  0  0  0  0
    1.7160    1.8020    2.1110 N   0  0  0  0  0  0  0  0  0  0  0  0
    2.2790    3.0850    2.0910 C   0  0  0  0  0  0  0  0  0  0  0  0
    2.0650    3.9580    2.9300 O   0  0  0  0  0  0  0  0  0  0  0  0
    3.3130    3.3780    1.0810 C   0  0  0  0  0  0  0  0  0  0  0  0
    4.3350    2.4160    0.9860 C   0  0  0  0  0  0  0  0  0  0  0  0
    5.3820    2.6150    0.0980 C   0  0  0  0  0  0  0  0  0  0  0  0
    6.7560    1.3260   -0.0460 Br  0  0  0  0  0  0  0  0  0  0  0  0
    5.4240    3.7640   -0.6810 C   0  0  0  0  0  0  0  0  0  0  0  0
    4.4090    4.7230   -0.5730 C   0  0  0  0  0  0  0  0  0  0  0  0
    3.3310    4.5560    0.3100 C   0  0  0  0  0  0  0  0  0  0  0  0
    2.2910    5.5130    0.4190 N   0  0  0  0  0  0  0  0  0  0  0  0
    1.2210    5.7060   -0.4360 C   0  0  0  0  0  0  0  0  0  0  0  0
    0.9990    5.0840   -1.4750 O   0  0  0  0  0  0  0  0  0  0  0  0
    0.2740    6.8240   -0.0170 C   0  0  0  0  0  0  0  0  0  0  0  0
   -0.4490    6.5330    1.2920 C   0  0  0  0  0  0  0  0  0  0  0  0
   -1.3910    5.3390    1.2220 C   0  0  0  0  0  0  0  0  0  0  0  0
   -2.2290    5.3680    0.2830 O   0  0  0  0  0  0  0  0  0  0  0  0
   -1.1970    4.4430    2.0920 O   0  0  0  0  0  0  0  0  0  0  0  0
    0.8550    1.3180    1.0260 C   0  0  0  0  0  0  0  0  0  0  0  0
   -1.1312   -1.0792    0.4082 H   0  0  0  0  0  0  0  0  0  0  0  0
   -0.5155    0.1927   -0.7008 H   0  0  0  0  0  0  0  0  0  0  0  0
    0.2353   -1.4392   -0.7008 H   0  0  0  0  0  0  0  0  0  0  0  0
    1.7471   -0.6155    0.7438 H   0  0  0  0  0  0  0  0  0  0  0  0
   -0.6544   -0.4060    2.6222 H   0  0  0  0  0  0  0  0  0  0  0  0
    0.3790   -1.8554    2.3417 H   0  0  0  0  0  0  0  0  0  0  0  0
    2.3378   -0.6665    3.2025 H   0  0  0  0  0  0  0  0  0  0  0  0
    1.4185   -0.1668    5.5963 H   0  0  0  0  0  0  0  0  0  0  0  0
   -0.1522   -0.7292    4.9304 H   0  0  0  0  0  0  0  0  0  0  0  0
    1.2685   -1.8284    4.9304 H   0  0  0  0  0  0  0  0  0  0  0  0
    0.4578    1.6686    3.7774 H   0  0  0  0  0  0  0  0  0  0  0  0
    2.2426    1.5571    4.1080 H   0  0  0  0  0  0  0  0  0  0  0  0
    4.3041    1.5119    1.6118 H   0  0  0  0  0  0  0  0  0  0  0  0
    6.2555    3.9211   -1.3838 H   0  0  0  0  0  0  0  0  0  0  0  0
    4.4579    5.6288   -1.1952 H   0  0  0  0  0  0  0  0  0  0  0  0
    2.2810    6.1210    1.2590 H   0  0  0  0  0  0  0  0  0  0  0  0
    0.8559    7.7498    0.1024 H   0  0  0  0  0  0  0  0  0  0  0  0
   -0.4913    6.9180   -0.8015 H   0  0  0  0  0  0  0  0  0  0  0  0
    0.3051    6.3347    2.0679 H   0  0  0  0  0  0  0  0  0  0  0  0
   -1.0661    7.4147    1.5198 H   0  0  0  0  0  0  0  0  0  0  0  0
   -0.1537    1.7348    1.1628 H   0  0  0  0  0  0  0  0  0  0  0  0
    1.2998    1.6435    0.0741 H   0  0  0  0  0  0  0  0  0  0  0  0
  1  2  1  0
  2  3  1  0
  3  4  1  0
  4  5  1  0
  4  6  1  0
  6  7  1  0
  7  8  1  0
  8  9  2  0
  8 10  1  0
 10 11  2  0
 11 12  1  0
 12 13  1  0
 12 14  2  0
 14 15  1  0
 15 16  2  0
 16 17  1  0
 17 18  1  0
 18 19  2  0
 18 20  1  0
 20 21  1  0
 21 22  1  0
 22 23  2  0
 22 24  1  0
  7 25  1  0
 25  2  1  0
 16 10  1  0
  1 26  1  0
  1 27  1  0
  1 28  1  0
  2 29  1  6
  3 30  1  0
  3 31  1  0
  4 32  1  6
  5 33  1  0
  5 34  1  0
  5 35  1  0
  6 36  1  0
  6 37  1  0
 11 38  1  0
 14 39  1  0
 15 40  1  0
 17 41  1  0
 20 42  1  0
 20 43  1  0
 21 44  1  0
 21 45  1  0
 25 46  1  0
 25 47  1  0
M  CHG  1  24  -1
M  END
>  <meeko>  (4) 
{"is_sidechain": [false], "free_energy": -6.048, "intermolecular_energy": -7.854, "internal_energy": -1.594}

$$$$
3cj4_ligand
     RDKit          3D

 47 48  0  0  0  0  0  0  0  0999 V2000
   -0.9330    1.5520   -2.2350 C   0  0  0  0  0  0  0  0  0  0  0  0
   -0.5520    0.1930   -1.6530 C   0  0  2  0  0  0  0  0  0  0  0  0
    0.1730    0.3590   -0.3130 C   0  0  0  0  0  0  0  0  0  0  0  0
    0.5750   -1.0100    0.2450 C   0  0  2  0  0  0  0  0  0  0  0  0
    1.3200   -0.8560    1.5700 C   0  0  0  0  0  0  0  0  0  0  0  0
    1.4290   -1.7750   -0.7710 C   0  0  0  0  0  0  0  0  0  0  0  0
    0.7880   -1.8660   -2.0810 N   0  0  0  0  0  0  0  0  0  0  0  0
    1.2260   -2.9170   -2.8980 C   0  0  0  0  0  0  0  0  0  0  0  0
    2.0250   -2.7980   -3.8250 O   0  0  0  0  0  0  0  0  0  0  0  0
    0.8220   -4.2910   -2.5460 C   0  0  0  0  0  0  0  0  0  0  0  0
   -0.5160   -4.4250   -2.1300 C   0  0  0  0  0  0  0  0  0  0  0  0
   -0.9880   -5.6670   -1.7330 C   0  0  0  0  0  0  0  0  0  0  0  0
   -2.7840   -5.8630   -1.1810 Br  0  0  0  0  0  0  0  0  0  0  0  0
   -0.1390   -6.7670   -1.7370 C   0  0  0  0  0  0  0  0  0  0  0  0
    1.1940   -6.6240   -2.1410 C   0  0  0  0  0  0  0  0  0  0  0  0
    1.7080   -5.3850   -2.5540 C   0  0  0  0  0  0  0  0  0  0  0  0
    3.0520   -5.2300   -2.9780 N   0  0  0  0  0  0  0  0  0  0  0  0
    4.1930   -5.2140   -2.1970 C   0  0  0  0  0  0  0  0  0  0  0  0
    4.2350   -5.3060   -0.9690 O   0  0  0  0  0  0  0  0  0  0  0  0
    5.4890   -5.0360   -2.9780 C   0  0  0  0  0  0  0  0  0  0  0  0
    5.5640   -5.9230   -4.2140 C   0  0  0  0  0  0  0  0  0  0  0  0
    5.6070   -7.4130   -3.9020 C   0  0  0  0  0  0  0  0  0  0  0  0
    4.4860   -7.9640   -3.7490 O   0  0  0  0  0  0  0  0  0  0  0  0
    6.7620   -7.9270   -3.8700 O   0  0  0  0  0  0  0  0  0  0  0  0
    0.3120   -0.5970   -2.6430 C   0  0  0  0  0  0  0  0  0  0  0  0
   -1.1312    2.2591   -1.4160 H   0  0  0  0  0  0  0  0  0  0  0  0
   -0.1063    1.9305   -2.8542 H   0  0  0  0  0  0  0  0  0  0  0  0
   -1.8359    1.4456   -2.8542 H   0  0  0  0  0  0  0  0  0  0  0  0
   -1.4769   -0.3749   -1.4737 H   0  0  0  0  0  0  0  0  0  0  0  0
    1.0756    0.9700   -0.4616 H   0  0  0  0  0  0  0  0  0  0  0  0
   -0.5021    0.8532    0.4012 H   0  0  0  0  0  0  0  0  0  0  0  0
   -0.3411   -1.5894    0.4325 H   0  0  0  0  0  0  0  0  0  0  0  0
    0.6180   -1.0011    2.4044 H   0  0  0  0  0  0  0  0  0  0  0  0
    2.1210   -1.6076    1.6298 H   0  0  0  0  0  0  0  0  0  0  0  0
    1.7574    0.1515    1.6298 H   0  0  0  0  0  0  0  0  0  0  0  0
    2.3924   -1.2564   -0.8844 H   0  0  0  0  0  0  0  0  0  0  0  0
    1.5645   -2.7987   -0.3920 H   0  0  0  0  0  0  0  0  0  0  0  0
   -1.1829   -3.5502   -2.1199 H   0  0  0  0  0  0  0  0  0  0  0  0
   -0.5147   -7.7518   -1.4223 H   0  0  0  0  0  0  0  0  0  0  0  0
    1.8542   -7.5038   -2.1345 H   0  0  0  0  0  0  0  0  0  0  0  0
    3.2310   -5.1710   -3.9970 H   0  0  0  0  0  0  0  0  0  0  0  0
    5.5661   -3.9855   -3.2949 H   0  0  0  0  0  0  0  0  0  0  0  0
    6.3166   -5.3256   -2.3137 H   0  0  0  0  0  0  0  0  0  0  0  0
    4.6792   -5.7249   -4.8368 H   0  0  0  0  0  0  0  0  0  0  0  0
    6.5052   -5.6768   -4.7273 H   0  0  0  0  0  0  0  0  0  0  0  0
    1.1828    0.0158   -2.9192 H   0  0  0  0  0  0  0  0  0  0  0  0
   -0.3105   -0.8307   -3.5193 H   0  0  0  0  0  0  0  0  0  0  0  0
  1  2  1  0
  2  3  1  0
  3  4  1  0
  4  5  1  0
  4  6  1  0
  6  7  1  0
  7  8  1  0
  8  9  2  0
  8 10  1  0
 10 11  2  0
 11 12  1  0
 12 13  1  0
 12 14  2  0
 14 15  1  0
 15 16  2  0
 16 17  1  0
 17 18  1  0
 18 19  2  0
 18 20  1  0
 20 21  1  0
 21 22  1  0
 22 23  2  0
 22 24  1  0
  7 25  1  0
 25  2  1  0
 16 10  1  0
  1 26  1  0
  1 27  1  0
  1 28  1  0
  2 29  1  1
  3 30  1  0
  3 31  1  0
  4 32  1  1
  5 33  1  0
  5 34  1  0
  5 35  1  0
  6 36  1  0
  6 37  1  0
 11 38  1  0
 14 39  1  0
 15 40  1  0
 17 41  1  0
 20 42  1  0
 20 43  1  0
 21 44  1  0
 21 45  1  0
 25 46  1  0
 25 47  1  0
M  CHG  1  24  -1
M  END
>  <meeko>  (5) 
{"is_sidechain": [false], "free_energy": -6.031, "intermolecular_energy": -8.156, "internal_energy": -1.27}

$$$$
3cj4_ligand
     RDKit          3D

 47 48  0  0  0  0  0  0  0  0999 V2000
   -1.6270    6.0190    1.7430 C   0  0  0  0  0  0  0  0  0  0  0  0
   -0.7680    5.6690    0.5310 C   0  0  2  0  0  0  0  0  0  0  0  0
   -1.6160    5.0220   -0.5690 C   0  0  0  0  0  0  0  0  0  0  0  0
   -0.7360    4.6480   -1.7660 C   0  0  2  0  0  0  0  0  0  0  0  0
   -1.5660    3.9790   -2.8590 C   0  0  0  0  0  0  0  0  0  0  0  0
    0.4150    3.7370   -1.3240 C   0  0  0  0  0  0  0  0  0  0  0  0
    1.1800    4.3040   -0.2160 N   0  0  0  0  0  0  0  0  0  0  0  0
    2.4860    3.8180   -0.0720 C   0  0  0  0  0  0  0  0  0  0  0  0
    2.8020    2.6300   -0.1170 O   0  0  0  0  0  0  0  0  0  0  0  0
    3.5910    4.7930   -0.0060 C   0  0  0  0  0  0  0  0  0  0  0  0
    3.9300    5.3850   -1.2360 C   0  0  0  0  0  0  0  0  0  0  0  0
    4.9860    6.2840   -1.2960 C   0  0  0  0  0  0  0  0  0  0  0  0
    5.4460    7.0930   -2.9400 Br  0  0  0  0  0  0  0  0  0  0  0  0
    5.7070    6.5860   -0.1480 C   0  0  0  0  0  0  0  0  0  0  0  0
    5.3700    5.9840    1.0720 C   0  0  0  0  0  0  0  0  0  0  0  0
    4.3080    5.0730    1.1740 C   0  0  0  0  0  0  0  0  0  0  0  0
    3.9490    4.4680    2.4040 N   0  0  0  0  0  0  0  0  0  0  0  0
    3.2620    5.0350    3.4620 C   0  0  0  0  0  0  0  0  0  0  0  0
    2.8600    6.1970    3.5280 O   0  0  0  0  0  0  0  0  0  0  0  0
    3.0330    4.0970    4.6400 C   0  0  0  0  0  0  0  0  0  0  0  0
    2.0420    2.9830    4.3280 C   0  0  0  0  0  0  0  0  0  0  0  0
    2.6830    1.6090    4.1940 C   0  0  0  0  0  0  0  0  0  0  0  0
    3.7990    1.5890    3.6110 O   0  0  0  0  0  0  0  0  0  0  0  0
    2.0360    0.6550    4.7150 O   0  0  0  0  0  0  0  0  0  0  0  0
    0.3900    4.7500    0.9360 C   0  0  0  0  0  0  0  0  0  0  0  0
   -1.0707    5.7923    2.6645 H   0  0  0  0  0  0  0  0  0  0  0  0
   -1.8758    7.0902    1.7190 H   0  0  0  0  0  0  0  0  0  0  0  0
   -2.5536    5.4267    1.7190 H   0  0  0  0  0  0  0  0  0  0  0  0
   -0.3435    6.6014    0.1305 H   0  0  0  0  0  0  0  0  0  0  0  0
   -2.0943    4.1143   -0.1723 H   0  0  0  0  0  0  0  0  0  0  0  0
   -2.3832    5.7383   -0.8981 H   0  0  0  0  0  0  0  0  0  0  0  0
   -0.3058    5.5716   -2.1805 H   0  0  0  0  0  0  0  0  0  0  0  0
   -2.3434    3.3524   -2.3974 H   0  0  0  0  0  0  0  0  0  0  0  0
   -2.0399    4.7506   -3.4836 H   0  0  0  0  0  0  0  0  0  0  0  0
   -0.9127    3.3520   -3.4836 H   0  0  0  0  0  0  0  0  0  0  0  0
   -0.0019    2.7697   -1.0070 H   0  0  0  0  0  0  0  0  0  0  0  0
    1.0980    3.6210   -2.1784 H   0  0  0  0  0  0  0  0  0  0  0  0
    3.3619    5.1371   -2.1447 H   0  0  0  0  0  0  0  0  0  0  0  0
    6.5436    7.2986   -0.1963 H   0  0  0  0  0  0  0  0  0  0  0  0
    5.9525    6.2319    1.9716 H   0  0  0  0  0  0  0  0  0  0  0  0
    4.1730    3.4640    2.5300 H   0  0  0  0  0  0  0  0  0  0  0  0
    3.9952    3.6426    4.9188 H   0  0  0  0  0  0  0  0  0  0  0  0
    2.6092    4.6951    5.4601 H   0  0  0  0  0  0  0  0  0  0  0  0
    1.3001    2.9418    5.1391 H   0  0  0  0  0  0  0  0  0  0  0  0
    1.5891    3.2211    3.3543 H   0  0  0  0  0  0  0  0  0  0  0  0
   -0.0220    3.8662    1.4450 H   0  0  0  0  0  0  0  0  0  0  0  0
    1.0565    5.3227    1.5977 H   0  0  0  0  0  0  0  0  0  0  0  0
  1  2  1  0
  2  3  1  0
  3  4  1  0
  4  5  1  0
  4  6  1  0
  6  7  1  0
  7  8  1  0
  8  9  2  0
  8 10  1  0
 10 11  2  0
 11 12  1  0
 12 13  1  0
 12 14  2  0
 14 15  1  0
 15 16  2  0
 16 17  1  0
 17 18  1  0
 18 19  2  0
 18 20  1  0
 20 21  1  0
 21 22  1  0
 22 23  2  0
 22 24  1  0
  7 25  1  0
 25  2  1  0
 16 10  1  0
  1 26  1  0
  1 27  1  0
  1 28  1  0
  2 29  1  6
  3 30  1  0
  3 31  1  0
  4 32  1  6
  5 33  1  0
  5 34  1  0
  5 35  1  0
  6 36  1  0
  6 37  1  0
 11 38  1  0
 14 39  1  0
 15 40  1  0
 17 41  1  0
 20 42  1  0
 20 43  1  0
 21 44  1  0
 21 45  1  0
 25 46  1  0
 25 47  1  0
M  CHG  1  24  -1
M  END
>  <meeko>  (6) 
{"is_sidechain": [false], "free_energy": -5.999, "intermolecular_energy": -7.834, "internal_energy": -1.549}

$$$$
3cj4_ligand
     RDKit          3D

 47 48  0  0  0  0  0  0  0  0999 V2000
    6.6940    6.5870   -0.1530 C   0  0  0  0  0  0  0  0  0  0  0  0
    5.2780    6.3900    0.3830 C   0  0  2  0  0  0  0  0  0  0  0  0
    5.1930    6.7990    1.8580 C   0  0  0  0  0  0  0  0  0  0  0  0
    3.7750    6.5670    2.3910 C   0  0  2  0  0  0  0  0  0  0  0  0
    3.6830    6.9470    3.8670 C   0  0  0  0  0  0  0  0  0  0  0  0
    3.3520    5.1090    2.1790 C   0  0  0  0  0  0  0  0  0  0  0  0
    3.5110    4.6780    0.7920 N   0  0  0  0  0  0  0  0  0  0  0  0
    2.7270    3.5840    0.4040 C   0  0  0  0  0  0  0  0  0  0  0  0
    3.1590    2.4540    0.1860 O   0  0  0  0  0  0  0  0  0  0  0  0
    1.2610    3.7450    0.3920 C   0  0  0  0  0  0  0  0  0  0  0  0
    0.7910    4.8140   -0.3930 C   0  0  0  0  0  0  0  0  0  0  0  0
   -0.5700    5.0820   -0.4390 C   0  0  0  0  0  0  0  0  0  0  0  0
   -1.2150    6.5090   -1.4960 Br  0  0  0  0  0  0  0  0  0  0  0  0
   -1.4570    4.3050    0.2940 C   0  0  0  0  0  0  0  0  0  0  0  0
   -0.9800    3.2490    1.0820 C   0  0  0  0  0  0  0  0  0  0  0  0
    0.3870    2.9440    1.1520 C   0  0  0  0  0  0  0  0  0  0  0  0
    0.8800    1.8700    1.9350 N   0  0  0  0  0  0  0  0  0  0  0  0
    0.6350    0.5190    1.7740 C   0  0  0  0  0  0  0  0  0  0  0  0
   -0.0920    0.0080    0.9210 O   0  0  0  0  0  0  0  0  0  0  0  0
    1.3340   -0.3740    2.7920 C   0  0  0  0  0  0  0  0  0  0  0  0
    1.0650    0.0430    4.2330 C   0  0  0  0  0  0  0  0  0  0  0  0
    1.9980    1.1320    4.7420 C   0  0  0  0  0  0  0  0  0  0  0  0
    1.5750    1.7850    5.7330 O   0  0  0  0  0  0  0  0  0  0  0  0
    3.1020    1.2300    4.1350 O   0  0  0  0  0  0  0  0  0  0  0  0
    4.8260    4.9370    0.1950 C   0  0  0  0  0  0  0  0  0  0  0  0
    7.3947    6.6845    0.6894 H   0  0  0  0  0  0  0  0  0  0  0  0
    6.9775    5.7196   -0.7673 H   0  0  0  0  0  0  0  0  0  0  0  0
    6.7300    7.4988   -0.7673 H   0  0  0  0  0  0  0  0  0  0  0  0
    4.5998    7.0385   -0.1910 H   0  0  0  0  0  0  0  0  0  0  0  0
    5.9041    6.1975    2.4433 H   0  0  0  0  0  0  0  0  0  0  0  0
    5.4403    7.8670    1.9490 H   0  0  0  0  0  0  0  0  0  0  0  0
    3.0848    7.2125    1.8279 H   0  0  0  0  0  0  0  0  0  0  0  0
    3.8968    6.0639    4.4870 H   0  0  0  0  0  0  0  0  0  0  0  0
    4.4159    7.7368    4.0887 H   0  0  0  0  0  0  0  0  0  0  0  0
    2.6700    7.3141    4.0887 H   0  0  0  0  0  0  0  0  0  0  0  0
    3.9700    4.4650    2.8219 H   0  0  0  0  0  0  0  0  0  0  0  0
    2.2850    5.0293    2.4343 H   0  0  0  0  0  0  0  0  0  0  0  0
    1.4971    5.4328   -0.9661 H   0  0  0  0  0  0  0  0  0  0  0  0
   -2.5354    4.5186    0.2561 H   0  0  0  0  0  0  0  0  0  0  0  0
   -1.6950    2.6447    1.6596 H   0  0  0  0  0  0  0  0  0  0  0  0
    1.5480    2.0950    2.6960 H   0  0  0  0  0  0  0  0  0  0  0  0
    0.9805   -1.4065    2.6539 H   0  0  0  0  0  0  0  0  0  0  0  0
    2.4168   -0.2846    2.6200 H   0  0  0  0  0  0  0  0  0  0  0  0
    0.0312    0.4130    4.2997 H   0  0  0  0  0  0  0  0  0  0  0  0
    1.2361   -0.8442    4.8603 H   0  0  0  0  0  0  0  0  0  0  0  0
    5.5652    4.2733    0.6673 H   0  0  0  0  0  0  0  0  0  0  0  0
    4.7465    4.7479   -0.8857 H   0  0  0  0  0  0  0  0  0  0  0  0
  1  2  1  0
  2  3  1  0
  3  4  1  0
  4  5  1  0
  4  6  1  0
  6  7  1  0
  7  8  1  0
  8  9  2  0
  8 10  1  0
 10 11  2  0
 11 12  1  0
 12 13  1  0
 12 14  2  0
 14 15  1  0
 15 16  2  0
 16 17  1  0
 17 18  1  0
 18 19  2  0
 18 20  1  0
 20 21  1  0
 21 22  1  0
 22 23  2  0
 22 24  1  0
  7 25  1  0
 25  2  1  0
 16 10  1  0
  1 26  1  0
  1 27  1  0
  1 28  1  0
  2 29  1  6
  3 30  1  0
  3 31  1  0
  4 32  1  6
  5 33  1  0
  5 34  1  0
  5 35  1  0
  6 36  1  0
  6 37  1  0
 11 38  1  0
 14 39  1  0
 15 40  1  0
 17 41  1  0
 20 42  1  0
 20 43  1  0
 21 44  1  0
 21 45  1  0
 25 46  1  0
 25 47  1  0
M  CHG  1  24  -1
M  END
>  <meeko>  (7) 
{"is_sidechain": [false], "free_energy": -5.957, "intermolecular_energy": -8.118, "internal_energy": -1.208}

$$$$
3cj4_ligand
     RDKit          3D

 47 48  0  0  0  0  0  0  0  0999 V2000
   -1.4250    1.7130   -0.9440 C   0  0  0  0  0  0  0  0  0  0  0  0
   -0.9010    0.3690   -0.4440 C   0  0  2  0  0  0  0  0  0  0  0  0
   -0.2500    0.5180    0.9350 C   0  0  0  0  0  0  0  0  0  0  0  0
    0.2980   -0.8310    1.4110 C   0  0  2  0  0  0  0  0  0  0  0  0
    0.9720   -0.6910    2.7740 C   0  0  0  0  0  0  0  0  0  0  0  0
    1.2730   -1.4100    0.3810 C   0  0  0  0  0  0  0  0  0  0  0  0
    0.6940   -1.4770   -0.9590 N   0  0  0  0  0  0  0  0  0  0  0  0
    1.2860   -2.4020   -1.8290 C   0  0  0  0  0  0  0  0  0  0  0  0
    2.2660   -2.1730   -2.5350 O   0  0  0  0  0  0  0  0  0  0  0  0
    0.8020   -3.7950   -1.8010 C   0  0  0  0  0  0  0  0  0  0  0  0
   -0.5990   -3.9330   -1.7870 C   0  0  0  0  0  0  0  0  0  0  0  0
   -1.1610   -5.1990   -1.7160 C   0  0  0  0  0  0  0  0  0  0  0  0
   -3.0400   -5.3990   -1.7050 Br  0  0  0  0  0  0  0  0  0  0  0  0
   -0.3430   -6.3200   -1.6490 C   0  0  0  0  0  0  0  0  0  0  0  0
    1.0500   -6.1740   -1.6530 C   0  0  0  0  0  0  0  0  0  0  0  0
    1.6570   -4.9110   -1.7270 C   0  0  0  0  0  0  0  0  0  0  0  0
    3.0650   -4.7510   -1.7450 N   0  0  0  0  0  0  0  0  0  0  0  0
    3.9600   -5.2070   -2.6950 C   0  0  0  0  0  0  0  0  0  0  0  0
    3.6830   -5.8680   -3.6970 O   0  0  0  0  0  0  0  0  0  0  0  0
    5.4140   -4.8530   -2.4130 C   0  0  0  0  0  0  0  0  0  0  0  0
    5.5680   -3.7860   -1.3360 C   0  0  0  0  0  0  0  0  0  0  0  0
    5.8670   -2.3970   -1.8830 C   0  0  0  0  0  0  0  0  0  0  0  0
    5.6790   -1.4480   -1.0780 O   0  0  0  0  0  0  0  0  0  0  0  0
    6.3040   -2.3640   -3.0690 O   0  0  0  0  0  0  0  0  0  0  0  0
    0.0870   -0.2340   -1.4490 C   0  0  0  0  0  0  0  0  0  0  0  0
   -1.6742    2.3522   -0.0842 H   0  0  0  0  0  0  0  0  0  0  0  0
   -0.6524    2.2038   -1.5540 H   0  0  0  0  0  0  0  0  0  0  0  0
   -2.3260    1.5513   -1.5540 H   0  0  0  0  0  0  0  0  0  0  0  0
   -1.7547   -0.3178   -0.3463 H   0  0  0  0  0  0  0  0  0  0  0  0
    0.5749    1.2428    0.8708 H   0  0  0  0  0  0  0  0  0  0  0  0
   -1.0058    0.8710    1.6520 H   0  0  0  0  0  0  0  0  0  0  0  0
   -0.5464   -1.5279    1.5171 H   0  0  0  0  0  0  0  0  0  0  0  0
    0.2275   -0.8457    3.5688 H   0  0  0  0  0  0  0  0  0  0  0  0
    1.7697   -1.4426    2.8675 H   0  0  0  0  0  0  0  0  0  0  0  0
    1.4044    0.3161    2.8675 H   0  0  0  0  0  0  0  0  0  0  0  0
    2.1696   -0.7737    0.3468 H   0  0  0  0  0  0  0  0  0  0  0  0
    1.5182   -2.4363    0.6917 H   0  0  0  0  0  0  0  0  0  0  0  0
   -1.2436   -3.0428   -1.8321 H   0  0  0  0  0  0  0  0  0  0  0  0
   -0.7899   -7.3235   -1.5927 H   0  0  0  0  0  0  0  0  0  0  0  0
    1.6837   -7.0714   -1.5968 H   0  0  0  0  0  0  0  0  0  0  0  0
    3.4950   -4.1850   -0.9910 H   0  0  0  0  0  0  0  0  0  0  0  0
    5.9387   -5.7620   -2.0837 H   0  0  0  0  0  0  0  0  0  0  0  0
    5.8404   -4.4471   -3.3422 H   0  0  0  0  0  0  0  0  0  0  0  0
    4.6321   -3.7375   -0.7600 H   0  0  0  0  0  0  0  0  0  0  0  0
    6.4294   -4.0782   -0.7175 H   0  0  0  0  0  0  0  0  0  0  0  0
    0.8858    0.4974   -1.6415 H   0  0  0  0  0  0  0  0  0  0  0  0
   -0.4710   -0.4720   -2.3666 H   0  0  0  0  0  0  0  0  0  0  0  0
  1  2  1  0
  2  3  1  0
  3  4  1  0
  4  5  1  0
  4  6  1  0
  6  7  1  0
  7  8  1  0
  8  9  2  0
  8 10  1  0
 10 11  2  0
 11 12  1  0
 12 13  1  0
 12 14  2  0
 14 15  1  0
 15 16  2  0
 16 17  1  0
 17 18  1  0
 18 19  2  0
 18 20  1  0
 20 21  1  0
 21 22  1  0
 22 23  2  0
 22 24  1  0
  7 25  1  0
 25  2  1  0
 16 10  1  0
  1 26  1  0
  1 27  1  0
  1 28  1  0
  2 29  1  1
  3 30  1  0
  3 31  1  0
  4 32  1  1
  5 33  1  0
  5 34  1  0
  5 35  1  0
  6 36  1  0
  6 37  1  0
 11 38  1  0
 14 39  1  0
 15 40  1  0
 17 41  1  0
 20 42  1  0
 20 43  1  0
 21 44  1  0
 21 45  1  0
 25 46  1  0
 25 47  1  0
M  CHG  1  24  -1
M  END
>  <meeko>  (8) 
{"is_sidechain": [false], "free_energy": -5.909, "intermolecular_energy": -7.894, "internal_energy": -1.367}

$$$$
3cj4_ligand
     RDKit          3D

 47 48  0  0  0  0  0  0  0  0999 V2000
    0.6700    1.3710    5.0830 C   0  0  0  0  0  0  0  0  0  0  0  0
    1.1890    1.8770    3.7390 C   0  0  2  0  0  0  0  0  0  0  0  0
    1.9430    0.7690    2.9960 C   0  0  0  0  0  0  0  0  0  0  0  0
    2.4830    1.2990    1.6630 C   0  0  2  0  0  0  0  0  0  0  0  0
    3.2580    0.2110    0.9230 C   0  0  0  0  0  0  0  0  0  0  0  0
    3.3640    2.5320    1.8920 C   0  0  0  0  0  0  0  0  0  0  0  0
    2.6870    3.5630    2.6760 N   0  0  0  0  0  0  0  0  0  0  0  0
    3.1870    4.8630    2.5260 C   0  0  0  0  0  0  0  0  0  0  0  0
    3.5900    5.5700    3.4470 O   0  0  0  0  0  0  0  0  0  0  0  0
    3.3840    5.3820    1.1590 C   0  0  0  0  0  0  0  0  0  0  0  0
    4.6740    5.8780    0.8970 C   0  0  0  0  0  0  0  0  0  0  0  0
    4.9550    6.4320   -0.3440 C   0  0  0  0  0  0  0  0  0  0  0  0
    6.6860    7.0930   -0.7130 Br  0  0  0  0  0  0  0  0  0  0  0  0
    3.9630    6.5040   -1.3140 C   0  0  0  0  0  0  0  0  0  0  0  0
    2.6780    6.0180   -1.0410 C   0  0  0  0  0  0  0  0  0  0  0  0
    2.3550    5.4480    0.2000 C   0  0  0  0  0  0  0  0  0  0  0  0
    1.0620    4.9410    0.4830 N   0  0  0  0  0  0  0  0  0  0  0  0
    0.0250    5.5770    1.1400 C   0  0  0  0  0  0  0  0  0  0  0  0
    0.0580    6.7080    1.6260 O   0  0  0  0  0  0  0  0  0  0  0  0
   -1.2440    4.7450    1.2690 C   0  0  0  0  0  0  0  0  0  0  0  0
   -1.0120    3.2620    1.0060 C   0  0  0  0  0  0  0  0  0  0  0  0
   -1.7380    2.7340   -0.2240 C   0  0  0  0  0  0  0  0  0  0  0  0
   -2.0480    1.5140   -0.1840 O   0  0  0  0  0  0  0  0  0  0  0  0
   -1.9750    3.5900   -1.1240 O   0  0  0  0  0  0  0  0  0  0  0  0
    2.0830    3.1070    3.9330 C   0  0  0  0  0  0  0  0  0  0  0  0
    1.1990    1.8867    5.8980 H   0  0  0  0  0  0  0  0  0  0  0  0
   -0.4084    1.5740    5.1596 H   0  0  0  0  0  0  0  0  0  0  0  0
    0.8456    0.2878    5.1596 H   0  0  0  0  0  0  0  0  0  0  0  0
    0.3250    2.1731    3.1259 H   0  0  0  0  0  0  0  0  0  0  0  0
    2.7827    0.4219    3.6161 H   0  0  0  0  0  0  0  0  0  0  0  0
    1.2530   -0.0645    2.7981 H   0  0  0  0  0  0  0  0  0  0  0  0
    1.6284    1.5960    1.0373 H   0  0  0  0  0  0  0  0  0  0  0  0
    3.7357   -0.4596    1.6525 H   0  0  0  0  0  0  0  0  0  0  0  0
    2.5668   -0.3667    0.2917 H   0  0  0  0  0  0  0  0  0  0  0  0
    4.0298    0.6755    0.2917 H   0  0  0  0  0  0  0  0  0  0  0  0
    4.2736    2.2217    2.4271 H   0  0  0  0  0  0  0  0  0  0  0  0
    3.6019    2.9615    0.9077 H   0  0  0  0  0  0  0  0  0  0  0  0
    5.4546    5.8271    1.6704 H   0  0  0  0  0  0  0  0  0  0  0  0
    4.1869    6.9431   -2.2974 H   0  0  0  0  0  0  0  0  0  0  0  0
    1.9029    6.0848   -1.8186 H   0  0  0  0  0  0  0  0  0  0  0  0
    0.8240    4.0000    0.1190 H   0  0  0  0  0  0  0  0  0  0  0  0
   -1.6384    4.8628    2.2891 H   0  0  0  0  0  0  0  0  0  0  0  0
   -1.9537    5.1070    0.5105 H   0  0  0  0  0  0  0  0  0  0  0  0
    0.0671    3.0991    0.8681 H   0  0  0  0  0  0  0  0  0  0  0  0
   -1.4133    2.7167    1.8730 H   0  0  0  0  0  0  0  0  0  0  0  0
    2.8869    2.8516    4.6391 H   0  0  0  0  0  0  0  0  0  0  0  0
    1.4529    3.9225    4.3177 H   0  0  0  0  0  0  0  0  0  0  0  0
  1  2  1  0
  2  3  1  0
  3  4  1  0
  4  5  1  0
  4  6  1  0
  6  7  1  0
  7  8  1  0
  8  9  2  0
  8 10  1  0
 10 11  2  0
 11 12  1  0
 12 13  1  0
 12 14  2  0
 14 15  1  0
 15 16  2  0
 16 17  1  0
 17 18  1  0
 18 19  2  0
 18 20  1  0
 20 21  1  0
 21 22  1  0
 22 23  2  0
 22 24  1  0
  7 25  1  0
 25  2  1  0
 16 10  1  0
  1 26  1  0
  1 27  1  0
  1 28  1  0
  2 29  1  6
  3 30  1  0
  3 31  1  0
  4 32  1  6
  5 33  1  0
  5 34  1  0
  5 35  1  0
  6 36  1  0
  6 37  1  0
 11 38  1  0
 14 39  1  0
 15 40  1  0
 17 41  1  0
 20 42  1  0
 20 43  1  0
 21 44  1  0
 21 45  1  0
 25 46  1  0
 25 47  1  0
M  CHG  1  24  -1
M  END
>  <meeko>  (9) 
{"is_sidechain": [false], "free_energy": -5.867, "intermolecular_energy": -8.053, "internal_energy": -1.151}

$$$$
