3arv_ligand
     RDKit          3D

 39 44  0  0  0  0  0  0  0  0999 V2000
    5.3760   -8.8960   -9.4220 C   0  0  0  0  0  0  0  0  0  0  0  0
    5.6060  -10.2130  -10.0590 N   0  0  0  0  0  0  0  0  0  0  0  0
    6.1520  -11.1440   -9.2450 C   0  0  0  0  0  0  0  0  0  0  0  0
    6.7110  -12.3150   -9.7230 C   0  0  0  0  0  0  0  0  0  0  0  0
    7.2850  -13.2410   -8.8550 C   0  0  0  0  0  0  0  0  0  0  0  0
    7.8830  -14.3890   -9.3030 C   0  0  0  0  0  0  0  0  0  0  0  0
    7.9490  -14.6800  -10.6410 C   0  0  0  0  0  0  0  0  0  0  0  0
    7.3780  -13.7630  -11.5350 C   0  0  0  0  0  0  0  0  0  0  0  0
    6.7380  -12.5530  -11.1040 C   0  0  0  0  0  0  0  0  0  0  0  0
    6.1130  -11.5860  -11.9560 C   0  0  0  0  0  0  0  0  0  0  0  0
    6.1420  -11.7240  -13.3540 C   0  0  0  0  0  0  0  0  0  0  0  0
    5.5100  -10.8220  -14.2020 C   0  0  0  0  0  0  0  0  0  0  0  0
    4.7420   -9.7830  -13.6930 C   0  0  0  0  0  0  0  0  0  0  0  0
    4.0590   -8.9660  -14.6140 C   0  0  0  0  0  0  0  0  0  0  0  0
    3.2190   -7.9930  -14.1380 C   0  0  0  0  0  0  0  0  0  0  0  0
    3.0310   -7.8280  -12.7990 C   0  0  0  0  0  0  0  0  0  0  0  0
    3.6940   -8.6040  -11.8680 C   0  0  0  0  0  0  0  0  0  0  0  0
    4.6390   -9.5920  -12.2790 C   0  0  0  0  0  0  0  0  0  0  0  0
    5.4360  -10.4400  -11.4080 C   0  0  0  0  0  0  0  0  0  0  0  0
    2.1300   -6.8510  -12.5140 O   0  0  0  0  0  0  0  0  0  0  0  0
    1.7750   -6.4120  -13.8470 C   0  0  0  0  0  0  0  0  0  0  0  0
    2.4720   -7.1390  -14.8810 O   0  0  0  0  0  0  0  0  0  0  0  0
    8.3800  -15.1520   -8.2970 O   0  0  0  0  0  0  0  0  0  0  0  0
    8.0280  -14.3620   -7.1460 C   0  0  0  0  0  0  0  0  0  0  0  0
    7.3370  -13.1380   -7.4950 O   0  0  0  0  0  0  0  0  0  0  0  0
    5.3958   -9.0094   -8.3280 H   0  0  0  0  0  0  0  0  0  0  0  0
    6.1654   -8.1957   -9.7324 H   0  0  0  0  0  0  0  0  0  0  0  0
    4.3959   -8.5047   -9.7324 H   0  0  0  0  0  0  0  0  0  0  0  0
    6.1516  -10.9630   -8.1600 H   0  0  0  0  0  0  0  0  0  0  0  0
    8.4327  -15.6002  -11.0005 H   0  0  0  0  0  0  0  0  0  0  0  0
    7.4225  -13.9803  -12.6124 H   0  0  0  0  0  0  0  0  0  0  0  0
    6.6835  -12.5752  -13.7925 H   0  0  0  0  0  0  0  0  0  0  0  0
    5.6197  -10.9327  -15.2909 H   0  0  0  0  0  0  0  0  0  0  0  0
    4.1970   -9.1060  -15.6963 H   0  0  0  0  0  0  0  0  0  0  0  0
    3.4912   -8.4588  -10.7966 H   0  0  0  0  0  0  0  0  0  0  0  0
    0.6931   -6.5532  -13.9868 H   0  0  0  0  0  0  0  0  0  0  0  0
    2.0639   -5.3542  -13.9345 H   0  0  0  0  0  0  0  0  0  0  0  0
    7.3743  -14.9612   -6.4951 H   0  0  0  0  0  0  0  0  0  0  0  0
    8.9628  -14.0813   -6.6387 H   0  0  0  0  0  0  0  0  0  0  0  0
  1  2  1  0
  2  3  2  0
  3  4  1  0
  4  5  2  0
  5  6  1  0
  6  7  2  0
  7  8  1  0
  8  9  2  0
  9 10  1  0
 10 11  2  0
 11 12  1  0
 12 13  2  0
 13 14  1  0
 14 15  2  0
 15 16  1  0
 16 17  2  0
 17 18  1  0
 18 19  2  0
 16 20  1  0
 20 21  1  0
 21 22  1  0
  6 23  1  0
 23 24  1  0
 24 25  1  0
 19  2  1  0
  9  4  1  0
 19 10  1  0
 25  5  1  0
 18 13  1  0
 22 15  1  0
  1 26  1  0
  1 27  1  0
  1 28  1  0
  3 29  1  0
  7 30  1  0
  8 31  1  0
 11 32  1  0
 12 33  1  0
 14 34  1  0
 17 35  1  0
 21 36  1  0
 21 37  1  0
 24 38  1  0
 24 39  1  0
M  CHG  1   2   1
M  END
>  <meeko>  (1) 
{"is_sidechain": [false], "free_energy": -11.595, "intermolecular_energy": -11.595, "internal_energy": 0.0}

$$$$
3arv_ligand
     RDKit          3D

 39 44  0  0  0  0  0  0  0  0999 V2000
    6.2150  -11.3020   -9.2050 C   0  0  0  0  0  0  0  0  0  0  0  0
    5.6090  -10.1790   -9.9560 N   0  0  0  0  0  0  0  0  0  0  0  0
    5.0880   -9.2000   -9.1820 C   0  0  0  0  0  0  0  0  0  0  0  0
    4.2300   -8.2360   -9.6780 C   0  0  0  0  0  0  0  0  0  0  0  0
    3.6950   -7.2570   -8.8430 C   0  0  0  0  0  0  0  0  0  0  0  0
    2.8090   -6.3150   -9.2970 C   0  0  0  0  0  0  0  0  0  0  0  0
    2.4010   -6.2970  -10.6050 C   0  0  0  0  0  0  0  0  0  0  0  0
    2.9250   -7.2730  -11.4640 C   0  0  0  0  0  0  0  0  0  0  0  0
    3.8590   -8.2720  -11.0280 C   0  0  0  0  0  0  0  0  0  0  0  0
    4.4530   -9.2800  -11.8540 C   0  0  0  0  0  0  0  0  0  0  0  0
    4.0960   -9.4160  -13.2060 C   0  0  0  0  0  0  0  0  0  0  0  0
    4.6870  -10.3600  -14.0380 C   0  0  0  0  0  0  0  0  0  0  0  0
    5.7280  -11.1590  -13.5840 C   0  0  0  0  0  0  0  0  0  0  0  0
    6.3360  -12.0260  -14.5130 C   0  0  0  0  0  0  0  0  0  0  0  0
    7.4260  -12.7570  -14.1180 C   0  0  0  0  0  0  0  0  0  0  0  0
    7.9280  -12.6350  -12.8570 C   0  0  0  0  0  0  0  0  0  0  0  0
    7.3500  -11.8020  -11.9190 C   0  0  0  0  0  0  0  0  0  0  0  0
    6.1700  -11.0600  -12.2270 C   0  0  0  0  0  0  0  0  0  0  0  0
    5.4360  -10.1890  -11.3240 C   0  0  0  0  0  0  0  0  0  0  0  0
    9.0360  -13.3970  -12.6600 O   0  0  0  0  0  0  0  0  0  0  0  0
    9.1690  -14.0240  -13.9580 C   0  0  0  0  0  0  0  0  0  0  0  0
    8.1400  -13.6170  -14.8850 O   0  0  0  0  0  0  0  0  0  0  0  0
    2.4080   -5.4570   -8.3260 O   0  0  0  0  0  0  0  0  0  0  0  0
    3.1440   -5.9540   -7.1920 C   0  0  0  0  0  0  0  0  0  0  0  0
    3.9600   -7.1070   -7.5120 O   0  0  0  0  0  0  0  0  0  0  0  0
    6.1153  -11.1172   -8.1252 H   0  0  0  0  0  0  0  0  0  0  0  0
    5.6996  -12.2381   -9.4659 H   0  0  0  0  0  0  0  0  0  0  0  0
    7.2804  -11.3850   -9.4659 H   0  0  0  0  0  0  0  0  0  0  0  0
    5.3575   -9.1695   -8.1160 H   0  0  0  0  0  0  0  0  0  0  0  0
    1.6872   -5.5430  -10.9683 H   0  0  0  0  0  0  0  0  0  0  0  0
    2.6069   -7.2733  -12.5170 H   0  0  0  0  0  0  0  0  0  0  0  0
    3.3224   -8.7528  -13.6204 H   0  0  0  0  0  0  0  0  0  0  0  0
    4.3250  -10.4756  -15.0703 H   0  0  0  0  0  0  0  0  0  0  0  0
    5.9432  -12.1147  -15.5366 H   0  0  0  0  0  0  0  0  0  0  0  0
    7.8048  -11.7092  -10.9218 H   0  0  0  0  0  0  0  0  0  0  0  0
   10.1484  -13.7541  -14.3797 H   0  0  0  0  0  0  0  0  0  0  0  0
    9.0721  -15.1100  -13.8122 H   0  0  0  0  0  0  0  0  0  0  0  0
    3.7991   -5.1525   -6.8200 H   0  0  0  0  0  0  0  0  0  0  0  0
    2.4111   -6.2679   -6.4342 H   0  0  0  0  0  0  0  0  0  0  0  0
  1  2  1  0
  2  3  2  0
  3  4  1  0
  4  5  2  0
  5  6  1  0
  6  7  2  0
  7  8  1  0
  8  9  2  0
  9 10  1  0
 10 11  2  0
 11 12  1  0
 12 13  2  0
 13 14  1  0
 14 15  2  0
 15 16  1  0
 16 17  2  0
 17 18  1  0
 18 19  2  0
 16 20  1  0
 20 21  1  0
 21 22  1  0
  6 23  1  0
 23 24  1  0
 24 25  1  0
 19  2  1  0
  9  4  1  0
 19 10  1  0
 25  5  1  0
 18 13  1  0
 22 15  1  0
  1 26  1  0
  1 27  1  0
  1 28  1  0
  3 29  1  0
  7 30  1  0
  8 31  1  0
 11 32  1  0
 12 33  1  0
 14 34  1  0
 17 35  1  0
 21 36  1  0
 21 37  1  0
 24 38  1  0
 24 39  1  0
M  CHG  1   2   1
M  END
>  <meeko>  (2) 
{"is_sidechain": [false], "free_energy": -11.426, "intermolecular_energy": -11.426, "internal_energy": 0.0}

$$$$
3arv_ligand
     RDKit          3D

 39 44  0  0  0  0  0  0  0  0999 V2000
    7.4670  -12.7110  -13.1120 C   0  0  0  0  0  0  0  0  0  0  0  0
    6.3470  -11.7800  -12.8430 N   0  0  0  0  0  0  0  0  0  0  0  0
    5.7410  -11.2950  -13.9500 C   0  0  0  0  0  0  0  0  0  0  0  0
    4.8930  -10.2030  -13.9160 C   0  0  0  0  0  0  0  0  0  0  0  0
    4.3040   -9.7170  -15.0820 C   0  0  0  0  0  0  0  0  0  0  0  0
    3.4940   -8.6130  -15.0850 C   0  0  0  0  0  0  0  0  0  0  0  0
    3.2260   -7.9260  -13.9290 C   0  0  0  0  0  0  0  0  0  0  0  0
    3.8060   -8.3960  -12.7430 C   0  0  0  0  0  0  0  0  0  0  0  0
    4.6560   -9.5510  -12.6980 C   0  0  0  0  0  0  0  0  0  0  0  0
    5.2610  -10.1020  -11.5220 C   0  0  0  0  0  0  0  0  0  0  0  0
    5.1150   -9.4790  -10.2710 C   0  0  0  0  0  0  0  0  0  0  0  0
    5.6590  -10.0140   -9.1090 C   0  0  0  0  0  0  0  0  0  0  0  0
    6.3020  -11.2440   -9.1220 C   0  0  0  0  0  0  0  0  0  0  0  0
    6.7440  -11.7610   -7.8890 C   0  0  0  0  0  0  0  0  0  0  0  0
    7.2970  -13.0160   -7.8600 C   0  0  0  0  0  0  0  0  0  0  0  0
    7.4010  -13.7600   -8.9960 C   0  0  0  0  0  0  0  0  0  0  0  0
    6.9860  -13.2780  -10.2230 C   0  0  0  0  0  0  0  0  0  0  0  0
    6.4650  -11.9560  -10.3530 C   0  0  0  0  0  0  0  0  0  0  0  0
    6.0400  -11.3110  -11.5840 C   0  0  0  0  0  0  0  0  0  0  0  0
    7.9280  -14.9910   -8.7680 O   0  0  0  0  0  0  0  0  0  0  0  0
    8.1510  -14.9310   -7.3390 C   0  0  0  0  0  0  0  0  0  0  0  0
    7.7510  -13.6700   -6.7620 O   0  0  0  0  0  0  0  0  0  0  0  0
    3.0260   -8.3060  -16.3200 O   0  0  0  0  0  0  0  0  0  0  0  0
    3.6270   -9.3450  -17.1140 C   0  0  0  0  0  0  0  0  0  0  0  0
    4.4510  -10.2440  -16.3320 O   0  0  0  0  0  0  0  0  0  0  0  0
    7.8891  -13.0619  -12.1588 H   0  0  0  0  0  0  0  0  0  0  0  0
    7.0977  -13.5720  -13.6885 H   0  0  0  0  0  0  0  0  0  0  0  0
    8.2460  -12.1906  -13.6885 H   0  0  0  0  0  0  0  0  0  0  0  0
    5.9297  -11.7880  -14.9150 H   0  0  0  0  0  0  0  0  0  0  0  0
    2.5783   -7.0369  -13.9324 H   0  0  0  0  0  0  0  0  0  0  0  0
    3.6008   -7.8564  -11.8067 H   0  0  0  0  0  0  0  0  0  0  0  0
    4.5514   -8.5364  -10.2091 H   0  0  0  0  0  0  0  0  0  0  0  0
    5.5787   -9.4544   -8.1654 H   0  0  0  0  0  0  0  0  0  0  0  0
    6.6476  -11.1696   -6.9665 H   0  0  0  0  0  0  0  0  0  0  0  0
    7.0583  -13.9224  -11.1116 H   0  0  0  0  0  0  0  0  0  0  0  0
    7.5741  -15.7355   -6.8594 H   0  0  0  0  0  0  0  0  0  0  0  0
    9.2316  -15.0451   -7.1678 H   0  0  0  0  0  0  0  0  0  0  0  0
    2.8269   -9.9286  -17.5928 H   0  0  0  0  0  0  0  0  0  0  0  0
    4.2784   -8.8598  -17.8559 H   0  0  0  0  0  0  0  0  0  0  0  0
  1  2  1  0
  2  3  2  0
  3  4  1  0
  4  5  2  0
  5  6  1  0
  6  7  2  0
  7  8  1  0
  8  9  2  0
  9 10  1  0
 10 11  2  0
 11 12  1  0
 12 13  2  0
 13 14  1  0
 14 15  2  0
 15 16  1  0
 16 17  2  0
 17 18  1  0
 18 19  2  0
 16 20  1  0
 20 21  1  0
 21 22  1  0
  6 23  1  0
 23 24  1  0
 24 25  1  0
 19  2  1  0
  9  4  1  0
 19 10  1  0
 25  5  1  0
 18 13  1  0
 22 15  1  0
  1 26  1  0
  1 27  1  0
  1 28  1  0
  3 29  1  0
  7 30  1  0
  8 31  1  0
 11 32  1  0
 12 33  1  0
 14 34  1  0
 17 35  1  0
 21 36  1  0
 21 37  1  0
 24 38  1  0
 24 39  1  0
M  CHG  1   2   1
M  END
>  <meeko>  (3) 
{"is_sidechain": [false], "free_energy": -11.399, "intermolecular_energy": -11.399, "internal_energy": 0.0}

$$$$
3arv_ligand
     RDKit          3D

 39 44  0  0  0  0  0  0  0  0999 V2000
    5.1100   -8.9830  -10.5750 C   0  0  0  0  0  0  0  0  0  0  0  0
    5.5020  -10.3580  -10.9580 N   0  0  0  0  0  0  0  0  0  0  0  0
    5.9310  -11.1270   -9.9330 C   0  0  0  0  0  0  0  0  0  0  0  0
    6.6120  -12.3150  -10.1270 C   0  0  0  0  0  0  0  0  0  0  0  0
    7.0580  -13.0700   -9.0440 C   0  0  0  0  0  0  0  0  0  0  0  0
    7.7720  -14.2280   -9.2060 C   0  0  0  0  0  0  0  0  0  0  0  0
    8.0870  -14.6990  -10.4530 C   0  0  0  0  0  0  0  0  0  0  0  0
    7.6480  -13.9580  -11.5590 C   0  0  0  0  0  0  0  0  0  0  0  0
    6.8940  -12.7430  -11.4310 C   0  0  0  0  0  0  0  0  0  0  0  0
    6.3930  -11.9490  -12.5130 C   0  0  0  0  0  0  0  0  0  0  0  0
    6.6750  -12.2810  -13.8490 C   0  0  0  0  0  0  0  0  0  0  0  0
    6.1680  -11.5510  -14.9180 C   0  0  0  0  0  0  0  0  0  0  0  0
    5.2820  -10.5030  -14.7090 C   0  0  0  0  0  0  0  0  0  0  0  0
    4.7410   -9.8720  -15.8450 C   0  0  0  0  0  0  0  0  0  0  0  0
    3.7920   -8.8980  -15.6710 C   0  0  0  0  0  0  0  0  0  0  0  0
    3.3620   -8.5580  -14.4230 C   0  0  0  0  0  0  0  0  0  0  0  0
    3.8790   -9.1500  -13.2870 C   0  0  0  0  0  0  0  0  0  0  0  0
    4.9210  -10.1220  -13.3780 C   0  0  0  0  0  0  0  0  0  0  0  0
    5.5840  -10.7840  -12.2660 C   0  0  0  0  0  0  0  0  0  0  0  0
    2.3870   -7.6110  -14.4470 O   0  0  0  0  0  0  0  0  0  0  0  0
    2.2580   -7.3890  -15.8710 C   0  0  0  0  0  0  0  0  0  0  0  0
    3.1560   -8.2080  -16.6500 O   0  0  0  0  0  0  0  0  0  0  0  0
    8.1120  -14.8070   -8.0270 O   0  0  0  0  0  0  0  0  0  0  0  0
    7.5300  -13.8870   -7.0850 C   0  0  0  0  0  0  0  0  0  0  0  0
    6.8640  -12.7720   -7.7260 O   0  0  0  0  0  0  0  0  0  0  0  0
    5.0865   -8.9005   -9.4784 H   0  0  0  0  0  0  0  0  0  0  0  0
    5.8398   -8.2671  -10.9810 H   0  0  0  0  0  0  0  0  0  0  0  0
    4.1124   -8.7596  -10.9810 H   0  0  0  0  0  0  0  0  0  0  0  0
    5.7307  -10.7950   -8.9036 H   0  0  0  0  0  0  0  0  0  0  0  0
    8.6643  -15.6264  -10.5821 H   0  0  0  0  0  0  0  0  0  0  0  0
    7.8915  -14.3229  -12.5677 H   0  0  0  0  0  0  0  0  0  0  0  0
    7.3191  -13.1483  -14.0561 H   0  0  0  0  0  0  0  0  0  0  0  0
    6.4730  -11.8073  -15.9433 H   0  0  0  0  0  0  0  0  0  0  0  0
    5.0738  -10.1554  -16.8544 H   0  0  0  0  0  0  0  0  0  0  0  0
    3.4830   -8.8691  -12.2999 H   0  0  0  0  0  0  0  0  0  0  0  0
    1.2246   -7.6187  -16.1700 H   0  0  0  0  0  0  0  0  0  0  0  0
    2.5161   -6.3377  -16.0663 H   0  0  0  0  0  0  0  0  0  0  0  0
    6.7953  -14.4297   -6.4721 H   0  0  0  0  0  0  0  0  0  0  0  0
    8.3481  -13.4770   -6.4746 H   0  0  0  0  0  0  0  0  0  0  0  0
  1  2  1  0
  2  3  2  0
  3  4  1  0
  4  5  2  0
  5  6  1  0
  6  7  2  0
  7  8  1  0
  8  9  2  0
  9 10  1  0
 10 11  2  0
 11 12  1  0
 12 13  2  0
 13 14  1  0
 14 15  2  0
 15 16  1  0
 16 17  2  0
 17 18  1  0
 18 19  2  0
 16 20  1  0
 20 21  1  0
 21 22  1  0
  6 23  1  0
 23 24  1  0
 24 25  1  0
 19  2  1  0
  9  4  1  0
 19 10  1  0
 25  5  1  0
 18 13  1  0
 22 15  1  0
  1 26  1  0
  1 27  1  0
  1 28  1  0
  3 29  1  0
  7 30  1  0
  8 31  1  0
 11 32  1  0
 12 33  1  0
 14 34  1  0
 17 35  1  0
 21 36  1  0
 21 37  1  0
 24 38  1  0
 24 39  1  0
M  CHG  1   2   1
M  END
>  <meeko>  (4) 
{"is_sidechain": [false], "free_energy": -11.229, "intermolecular_energy": -11.229, "internal_energy": 0.0}

$$$$
3arv_ligand
     RDKit          3D

 39 44  0  0  0  0  0  0  0  0999 V2000
    7.6930  -14.3820  -14.1440 C   0  0  0  0  0  0  0  0  0  0  0  0
    7.4220  -13.4100  -13.0610 N   0  0  0  0  0  0  0  0  0  0  0  0
    7.8270  -13.8070  -11.8340 C   0  0  0  0  0  0  0  0  0  0  0  0
    7.4020  -13.1870  -10.6730 C   0  0  0  0  0  0  0  0  0  0  0  0
    7.8240  -13.6400   -9.4250 C   0  0  0  0  0  0  0  0  0  0  0  0
    7.3860  -13.0730   -8.2560 C   0  0  0  0  0  0  0  0  0  0  0  0
    6.5000  -12.0270   -8.2630 C   0  0  0  0  0  0  0  0  0  0  0  0
    6.0610  -11.5540   -9.5070 C   0  0  0  0  0  0  0  0  0  0  0  0
    6.5010  -12.1170  -10.7520 C   0  0  0  0  0  0  0  0  0  0  0  0
    6.1150  -11.6700  -12.0570 C   0  0  0  0  0  0  0  0  0  0  0  0
    5.1760  -10.6370  -12.2230 C   0  0  0  0  0  0  0  0  0  0  0  0
    4.8150  -10.1580  -13.4770 C   0  0  0  0  0  0  0  0  0  0  0  0
    5.4370  -10.6260  -14.6260 C   0  0  0  0  0  0  0  0  0  0  0  0
    5.0820  -10.0260  -15.8490 C   0  0  0  0  0  0  0  0  0  0  0  0
    5.7480  -10.4020  -16.9870 C   0  0  0  0  0  0  0  0  0  0  0  0
    6.7500  -11.3240  -16.9370 C   0  0  0  0  0  0  0  0  0  0  0  0
    7.1160  -11.9390  -15.7560 C   0  0  0  0  0  0  0  0  0  0  0  0
    6.4260  -11.6570  -14.5380 C   0  0  0  0  0  0  0  0  0  0  0  0
    6.6760  -12.2650  -13.2420 C   0  0  0  0  0  0  0  0  0  0  0  0
    7.3260  -11.5350  -18.1490 O   0  0  0  0  0  0  0  0  0  0  0  0
    6.5560  -10.6320  -18.9780 C   0  0  0  0  0  0  0  0  0  0  0  0
    5.5490   -9.9120  -18.2360 O   0  0  0  0  0  0  0  0  0  0  0  0
    7.9150  -13.6620   -7.1550 O   0  0  0  0  0  0  0  0  0  0  0  0
    8.7490  -14.6730   -7.7500 C   0  0  0  0  0  0  0  0  0  0  0  0
    8.6890  -14.6710   -9.1970 O   0  0  0  0  0  0  0  0  0  0  0  0
    7.9639  -15.3537  -13.7053 H   0  0  0  0  0  0  0  0  0  0  0  0
    6.7931  -14.4985  -14.7658 H   0  0  0  0  0  0  0  0  0  0  0  0
    8.5234  -14.0161  -14.7658 H   0  0  0  0  0  0  0  0  0  0  0  0
    8.5217  -14.6563  -11.7558 H   0  0  0  0  0  0  0  0  0  0  0  0
    6.1460  -11.5747   -7.3249 H   0  0  0  0  0  0  0  0  0  0  0  0
    5.3491  -10.7158   -9.5304 H   0  0  0  0  0  0  0  0  0  0  0  0
    4.7113  -10.1928  -11.3304 H   0  0  0  0  0  0  0  0  0  0  0  0
    4.0250   -9.3971  -13.5598 H   0  0  0  0  0  0  0  0  0  0  0  0
    4.2848   -9.2693  -15.8909 H   0  0  0  0  0  0  0  0  0  0  0  0
    7.9504  -12.6558  -15.7535 H   0  0  0  0  0  0  0  0  0  0  0  0
    7.2421   -9.9045  -19.4363 H   0  0  0  0  0  0  0  0  0  0  0  0
    6.0383  -11.2385  -19.7357 H   0  0  0  0  0  0  0  0  0  0  0  0
    9.7899  -14.4962   -7.4413 H   0  0  0  0  0  0  0  0  0  0  0  0
    8.3811  -15.6505   -7.4050 H   0  0  0  0  0  0  0  0  0  0  0  0
  1  2  1  0
  2  3  2  0
  3  4  1  0
  4  5  2  0
  5  6  1  0
  6  7  2  0
  7  8  1  0
  8  9  2  0
  9 10  1  0
 10 11  2  0
 11 12  1  0
 12 13  2  0
 13 14  1  0
 14 15  2  0
 15 16  1  0
 16 17  2  0
 17 18  1  0
 18 19  2  0
 16 20  1  0
 20 21  1  0
 21 22  1  0
  6 23  1  0
 23 24  1  0
 24 25  1  0
 19  2  1  0
  9  4  1  0
 19 10  1  0
 25  5  1  0
 18 13  1  0
 22 15  1  0
  1 26  1  0
  1 27  1  0
  1 28  1  0
  3 29  1  0
  7 30  1  0
  8 31  1  0
 11 32  1  0
 12 33  1  0
 14 34  1  0
 17 35  1  0
 21 36  1  0
 21 37  1  0
 24 38  1  0
 24 39  1  0
M  CHG  1   2   1
M  END
>  <meeko>  (5) 
{"is_sidechain": [false], "free_energy": -11.104, "intermolecular_energy": -11.104, "internal_energy": 0.0}

$$$$
3arv_ligand
     RDKit          3D

 39 44  0  0  0  0  0  0  0  0999 V2000
    5.1750   -8.5960   -9.3730 C   0  0  0  0  0  0  0  0  0  0  0  0
    5.1540   -9.5870  -10.4730 N   0  0  0  0  0  0  0  0  0  0  0  0
    5.8950  -10.6960  -10.2460 C   0  0  0  0  0  0  0  0  0  0  0  0
    6.2400  -11.5800  -11.2510 C   0  0  0  0  0  0  0  0  0  0  0  0
    7.0240  -12.7000  -10.9820 C   0  0  0  0  0  0  0  0  0  0  0  0
    7.4170  -13.5690  -11.9650 C   0  0  0  0  0  0  0  0  0  0  0  0
    7.0570  -13.3730  -13.2720 C   0  0  0  0  0  0  0  0  0  0  0  0
    6.2680  -12.2530  -13.5680 C   0  0  0  0  0  0  0  0  0  0  0  0
    5.8320  -11.3220  -12.5670 C   0  0  0  0  0  0  0  0  0  0  0  0
    5.0060  -10.1740  -12.7920 C   0  0  0  0  0  0  0  0  0  0  0  0
    4.5960   -9.8170  -14.0880 C   0  0  0  0  0  0  0  0  0  0  0  0
    3.7630   -8.7310  -14.3290 C   0  0  0  0  0  0  0  0  0  0  0  0
    3.2240   -7.9980  -13.2810 C   0  0  0  0  0  0  0  0  0  0  0  0
    2.3160   -6.9710  -13.6030 C   0  0  0  0  0  0  0  0  0  0  0  0
    1.6960   -6.2940  -12.5840 C   0  0  0  0  0  0  0  0  0  0  0  0
    1.9370   -6.6180  -11.2830 C   0  0  0  0  0  0  0  0  0  0  0  0
    2.8300   -7.6130  -10.9320 C   0  0  0  0  0  0  0  0  0  0  0  0
    3.5690   -8.3180  -11.9290 C   0  0  0  0  0  0  0  0  0  0  0  0
    4.5690   -9.3470  -11.6970 C   0  0  0  0  0  0  0  0  0  0  0  0
    1.2010   -5.8760  -10.4150 O   0  0  0  0  0  0  0  0  0  0  0  0
    0.4650   -5.0330  -11.3330 C   0  0  0  0  0  0  0  0  0  0  0  0
    0.7840   -5.2990  -12.7160 O   0  0  0  0  0  0  0  0  0  0  0  0
    8.1760  -14.5900  -11.4930 O   0  0  0  0  0  0  0  0  0  0  0  0
    8.2230  -14.2790  -10.0880 C   0  0  0  0  0  0  0  0  0  0  0  0
    7.4980  -13.0690   -9.7560 O   0  0  0  0  0  0  0  0  0  0  0  0
    5.1639   -9.1209   -8.4064 H   0  0  0  0  0  0  0  0  0  0  0  0
    6.0863   -7.9845   -9.4477 H   0  0  0  0  0  0  0  0  0  0  0  0
    4.2904   -7.9464   -9.4477 H   0  0  0  0  0  0  0  0  0  0  0  0
    6.2365  -10.9023   -9.2209 H   0  0  0  0  0  0  0  0  0  0  0  0
    7.3758  -14.0698  -14.0612 H   0  0  0  0  0  0  0  0  0  0  0  0
    5.9702  -12.0803  -14.6127 H   0  0  0  0  0  0  0  0  0  0  0  0
    4.9463  -10.4175  -14.9405 H   0  0  0  0  0  0  0  0  0  0  0  0
    3.5274   -8.4482  -15.3656 H   0  0  0  0  0  0  0  0  0  0  0  0
    2.1078   -6.7164  -14.6527 H   0  0  0  0  0  0  0  0  0  0  0  0
    2.9729   -7.8647   -9.8708 H   0  0  0  0  0  0  0  0  0  0  0  0
   -0.6110   -5.2041  -11.1814 H   0  0  0  0  0  0  0  0  0  0  0  0
    0.7463   -3.9905  -11.1230 H   0  0  0  0  0  0  0  0  0  0  0  0
    7.7832  -15.1172   -9.5276 H   0  0  0  0  0  0  0  0  0  0  0  0
    9.2775  -14.1174   -9.8197 H   0  0  0  0  0  0  0  0  0  0  0  0
  1  2  1  0
  2  3  2  0
  3  4  1  0
  4  5  2  0
  5  6  1  0
  6  7  2  0
  7  8  1  0
  8  9  2  0
  9 10  1  0
 10 11  2  0
 11 12  1  0
 12 13  2  0
 13 14  1  0
 14 15  2  0
 15 16  1  0
 16 17  2  0
 17 18  1  0
 18 19  2  0
 16 20  1  0
 20 21  1  0
 21 22  1  0
  6 23  1  0
 23 24  1  0
 24 25  1  0
 19  2  1  0
  9  4  1  0
 19 10  1  0
 25  5  1  0
 18 13  1  0
 22 15  1  0
  1 26  1  0
  1 27  1  0
  1 28  1  0
  3 29  1  0
  7 30  1  0
  8 31  1  0
 11 32  1  0
 12 33  1  0
 14 34  1  0
 17 35  1  0
 21 36  1  0
 21 37  1  0
 24 38  1  0
 24 39  1  0
M  CHG  1   2   1
M  END
>  <meeko>  (6) 
{"is_sidechain": [false], "free_energy": -11.103, "intermolecular_energy": -11.103, "internal_energy": 0.0}

$$$$
3arv_ligand
     RDKit          3D

 39 44  0  0  0  0  0  0  0  0999 V2000
    6.3890  -11.2940  -12.8490 C   0  0  0  0  0  0  0  0  0  0  0  0
    5.3730  -10.4320  -12.2030 N   0  0  0  0  0  0  0  0  0  0  0  0
    4.5910   -9.7420  -13.0640 C   0  0  0  0  0  0  0  0  0  0  0  0
    3.8040   -8.6780  -12.6660 C   0  0  0  0  0  0  0  0  0  0  0  0
    3.0290   -7.9770  -13.5880 C   0  0  0  0  0  0  0  0  0  0  0  0
    2.2720   -6.8920  -13.2300 C   0  0  0  0  0  0  0  0  0  0  0  0
    2.2460   -6.4400  -11.9360 C   0  0  0  0  0  0  0  0  0  0  0  0
    3.0180   -7.1300  -10.9900 C   0  0  0  0  0  0  0  0  0  0  0  0
    3.8190   -8.2720  -11.3250 C   0  0  0  0  0  0  0  0  0  0  0  0
    4.6100   -9.0390  -10.4090 C   0  0  0  0  0  0  0  0  0  0  0  0
    4.7200   -8.6680   -9.0580 C   0  0  0  0  0  0  0  0  0  0  0  0
    5.4480   -9.4170   -8.1410 C   0  0  0  0  0  0  0  0  0  0  0  0
    6.0330  -10.6210   -8.5070 C   0  0  0  0  0  0  0  0  0  0  0  0
    6.6750  -11.3660   -7.4990 C   0  0  0  0  0  0  0  0  0  0  0  0
    7.1790  -12.6030   -7.8110 C   0  0  0  0  0  0  0  0  0  0  0  0
    7.0440  -13.1140   -9.0670 C   0  0  0  0  0  0  0  0  0  0  0  0
    6.4290  -12.4060  -10.0810 C   0  0  0  0  0  0  0  0  0  0  0  0
    5.9410  -11.0830   -9.8580 C   0  0  0  0  0  0  0  0  0  0  0  0
    5.3200  -10.2140  -10.8430 C   0  0  0  0  0  0  0  0  0  0  0  0
    7.5590  -14.3670   -9.1780 O   0  0  0  0  0  0  0  0  0  0  0  0
    8.0440  -14.5830   -7.8320 C   0  0  0  0  0  0  0  0  0  0  0  0
    7.8030  -13.4560   -6.9620 O   0  0  0  0  0  0  0  0  0  0  0  0
    1.5960   -6.3530  -14.2750 O   0  0  0  0  0  0  0  0  0  0  0  0
    2.0020   -7.2210  -15.3490 C   0  0  0  0  0  0  0  0  0  0  0  0
    2.9240   -8.2530  -14.9200 O   0  0  0  0  0  0  0  0  0  0  0  0
    6.9856  -11.8002  -12.0758 H   0  0  0  0  0  0  0  0  0  0  0  0
    5.8870  -12.0460  -13.4756 H   0  0  0  0  0  0  0  0  0  0  0  0
    7.0491  -10.6762  -13.4756 H   0  0  0  0  0  0  0  0  0  0  0  0
    4.5810  -10.0394  -14.1230 H   0  0  0  0  0  0  0  0  0  0  0  0
    1.6410   -5.5670  -11.6498 H   0  0  0  0  0  0  0  0  0  0  0  0
    3.0089   -6.7807   -9.9470 H   0  0  0  0  0  0  0  0  0  0  0  0
    4.2129   -7.7542   -8.7147 H   0  0  0  0  0  0  0  0  0  0  0  0
    5.5621   -9.0501   -7.1103 H   0  0  0  0  0  0  0  0  0  0  0  0
    6.7706  -10.9632   -6.4799 H   0  0  0  0  0  0  0  0  0  0  0  0
    6.3137  -12.8673  -11.0729 H   0  0  0  0  0  0  0  0  0  0  0  0
    7.5371  -15.4648   -7.4132 H   0  0  0  0  0  0  0  0  0  0  0  0
    9.1328  -14.7278   -7.8919 H   0  0  0  0  0  0  0  0  0  0  0  0
    1.1066   -7.7024  -15.7692 H   0  0  0  0  0  0  0  0  0  0  0  0
    2.5218   -6.6026  -16.0956 H   0  0  0  0  0  0  0  0  0  0  0  0
  1  2  1  0
  2  3  2  0
  3  4  1  0
  4  5  2  0
  5  6  1  0
  6  7  2  0
  7  8  1  0
  8  9  2  0
  9 10  1  0
 10 11  2  0
 11 12  1  0
 12 13  2  0
 13 14  1  0
 14 15  2  0
 15 16  1  0
 16 17  2  0
 17 18  1  0
 18 19  2  0
 16 20  1  0
 20 21  1  0
 21 22  1  0
  6 23  1  0
 23 24  1  0
 24 25  1  0
 19  2  1  0
  9  4  1  0
 19 10  1  0
 25  5  1  0
 18 13  1  0
 22 15  1  0
  1 26  1  0
  1 27  1  0
  1 28  1  0
  3 29  1  0
  7 30  1  0
  8 31  1  0
 11 32  1  0
 12 33  1  0
 14 34  1  0
 17 35  1  0
 21 36  1  0
 21 37  1  0
 24 38  1  0
 24 39  1  0
M  CHG  1   2   1
M  END
>  <meeko>  (7) 
{"is_sidechain": [false], "free_energy": -11.09, "intermolecular_energy": -11.09, "internal_energy": 0.0}

$$$$
3arv_ligand
     RDKit          3D

 39 44  0  0  0  0  0  0  0  0999 V2000
    5.4540  -10.4660  -15.2320 C   0  0  0  0  0  0  0  0  0  0  0  0
    4.8240  -10.0060  -13.9740 N   0  0  0  0  0  0  0  0  0  0  0  0
    3.9020   -9.0290  -14.1300 C   0  0  0  0  0  0  0  0  0  0  0  0
    3.4330   -8.2720  -13.0720 C   0  0  0  0  0  0  0  0  0  0  0  0
    2.4990   -7.2590  -13.2770 C   0  0  0  0  0  0  0  0  0  0  0  0
    2.0480   -6.4650  -12.2550 C   0  0  0  0  0  0  0  0  0  0  0  0
    2.5030   -6.6300  -10.9730 C   0  0  0  0  0  0  0  0  0  0  0  0
    3.4440   -7.6440  -10.7430 C   0  0  0  0  0  0  0  0  0  0  0  0
    3.9360   -8.4990  -11.7850 C   0  0  0  0  0  0  0  0  0  0  0  0
    4.8750   -9.5680  -11.6180 C   0  0  0  0  0  0  0  0  0  0  0  0
    5.4660   -9.8280  -10.3700 C   0  0  0  0  0  0  0  0  0  0  0  0
    6.3490  -10.8830  -10.1730 C   0  0  0  0  0  0  0  0  0  0  0  0
    6.6200  -11.7860  -11.1920 C   0  0  0  0  0  0  0  0  0  0  0  0
    7.4530  -12.8800  -10.8870 C   0  0  0  0  0  0  0  0  0  0  0  0
    7.6610  -13.8380  -11.8460 C   0  0  0  0  0  0  0  0  0  0  0  0
    7.0600  -13.7480  -13.0650 C   0  0  0  0  0  0  0  0  0  0  0  0
    6.2460  -12.6820  -13.3990 C   0  0  0  0  0  0  0  0  0  0  0  0
    6.0340  -11.6070  -12.4840 C   0  0  0  0  0  0  0  0  0  0  0  0
    5.2450  -10.4110  -12.7250 C   0  0  0  0  0  0  0  0  0  0  0  0
    7.3420  -14.8080  -13.8670 O   0  0  0  0  0  0  0  0  0  0  0  0
    8.2070  -15.5810  -13.0010 C   0  0  0  0  0  0  0  0  0  0  0  0
    8.4110  -14.9600  -11.7130 O   0  0  0  0  0  0  0  0  0  0  0  0
    1.1450   -5.5390  -12.6660 O   0  0  0  0  0  0  0  0  0  0  0  0
    1.0630   -5.8330  -14.0730 C   0  0  0  0  0  0  0  0  0  0  0  0
    1.9310   -6.9220  -14.4720 O   0  0  0  0  0  0  0  0  0  0  0  0
    6.3219  -11.0997  -14.9971 H   0  0  0  0  0  0  0  0  0  0  0  0
    4.7245  -11.0454  -15.8169 H   0  0  0  0  0  0  0  0  0  0  0  0
    5.7838   -9.5947  -15.8169 H   0  0  0  0  0  0  0  0  0  0  0  0
    3.5098   -8.8286  -15.1380 H   0  0  0  0  0  0  0  0  0  0  0  0
    2.1431   -5.9901  -10.1538 H   0  0  0  0  0  0  0  0  0  0  0  0
    3.8211   -7.7902   -9.7200 H   0  0  0  0  0  0  0  0  0  0  0  0
    5.2214   -9.1742   -9.5199 H   0  0  0  0  0  0  0  0  0  0  0  0
    6.8399  -11.0042   -9.1961 H   0  0  0  0  0  0  0  0  0  0  0  0
    7.9277  -12.9644   -9.8983 H   0  0  0  0  0  0  0  0  0  0  0  0
    5.7550  -12.6617  -14.3831 H   0  0  0  0  0  0  0  0  0  0  0  0
    7.7542  -16.5714  -12.8457 H   0  0  0  0  0  0  0  0  0  0  0  0
    9.1884  -15.6529  -13.4926 H   0  0  0  0  0  0  0  0  0  0  0  0
    0.0249   -6.1046  -14.3151 H   0  0  0  0  0  0  0  0  0  0  0  0
    1.3882   -4.9345  -14.6179 H   0  0  0  0  0  0  0  0  0  0  0  0
  1  2  1  0
  2  3  2  0
  3  4  1  0
  4  5  2  0
  5  6  1  0
  6  7  2  0
  7  8  1  0
  8  9  2  0
  9 10  1  0
 10 11  2  0
 11 12  1  0
 12 13  2  0
 13 14  1  0
 14 15  2  0
 15 16  1  0
 16 17  2  0
 17 18  1  0
 18 19  2  0
 16 20  1  0
 20 21  1  0
 21 22  1  0
  6 23  1  0
 23 24  1  0
 24 25  1  0
 19  2  1  0
  9  4  1  0
 19 10  1  0
 25  5  1  0
 18 13  1  0
 22 15  1  0
  1 26  1  0
  1 27  1  0
  1 28  1  0
  3 29  1  0
  7 30  1  0
  8 31  1  0
 11 32  1  0
 12 33  1  0
 14 34  1  0
 17 35  1  0
 21 36  1  0
 21 37  1  0
 24 38  1  0
 24 39  1  0
M  CHG  1   2   1
M  END
>  <meeko>  (8) 
{"is_sidechain": [false], "free_energy": -10.99, "intermolecular_energy": -10.99, "internal_energy": 0.0}

$$$$
3arv_ligand
     RDKit          3D

 39 44  0  0  0  0  0  0  0  0999 V2000
    3.2180   -8.5000  -11.5900 C   0  0  0  0  0  0  0  0  0  0  0  0
    3.9750   -8.9400  -12.7840 N   0  0  0  0  0  0  0  0  0  0  0  0
    3.6390   -8.3040  -13.9280 C   0  0  0  0  0  0  0  0  0  0  0  0
    4.0080   -8.7720  -15.1760 C   0  0  0  0  0  0  0  0  0  0  0  0
    3.6230   -8.1010  -16.3350 C   0  0  0  0  0  0  0  0  0  0  0  0
    3.9380   -8.5650  -17.5850 C   0  0  0  0  0  0  0  0  0  0  0  0
    4.6490   -9.7240  -17.7550 C   0  0  0  0  0  0  0  0  0  0  0  0
    5.0480  -10.4170  -16.6030 C   0  0  0  0  0  0  0  0  0  0  0  0
    4.7420   -9.9620  -15.2770 C   0  0  0  0  0  0  0  0  0  0  0  0
    5.1380  -10.6030  -14.0590 C   0  0  0  0  0  0  0  0  0  0  0  0
    5.8320  -11.8250  -14.0730 C   0  0  0  0  0  0  0  0  0  0  0  0
    6.2620  -12.4470  -12.9070 C   0  0  0  0  0  0  0  0  0  0  0  0
    6.0970  -11.8370  -11.6710 C   0  0  0  0  0  0  0  0  0  0  0  0
    6.6410  -12.4880  -10.5470 C   0  0  0  0  0  0  0  0  0  0  0  0
    6.5770  -11.8640   -9.3270 C   0  0  0  0  0  0  0  0  0  0  0  0
    6.0160  -10.6280   -9.2040 C   0  0  0  0  0  0  0  0  0  0  0  0
    5.4650   -9.9670  -10.2850 C   0  0  0  0  0  0  0  0  0  0  0  0
    5.4270  -10.5770  -11.5750 C   0  0  0  0  0  0  0  0  0  0  0  0
    4.8370  -10.0160  -12.7790 C   0  0  0  0  0  0  0  0  0  0  0  0
    6.0850  -10.1480   -7.9350 O   0  0  0  0  0  0  0  0  0  0  0  0
    6.7560  -11.2410   -7.2660 C   0  0  0  0  0  0  0  0  0  0  0  0
    7.0670  -12.3360   -8.1540 O   0  0  0  0  0  0  0  0  0  0  0  0
    3.4680   -7.7670  -18.5770 O   0  0  0  0  0  0  0  0  0  0  0  0
    2.8170   -6.7310  -17.8180 C   0  0  0  0  0  0  0  0  0  0  0  0
    2.9030   -6.9430  -16.3880 O   0  0  0  0  0  0  0  0  0  0  0  0
    3.7536   -8.8113  -10.6810 H   0  0  0  0  0  0  0  0  0  0  0  0
    3.1203   -7.4044  -11.6010 H   0  0  0  0  0  0  0  0  0  0  0  0
    2.2177   -8.9574  -11.6010 H   0  0  0  0  0  0  0  0  0  0  0  0
    3.0489   -7.3779  -13.8641 H   0  0  0  0  0  0  0  0  0  0  0  0
    4.8979  -10.0975  -18.7593 H   0  0  0  0  0  0  0  0  0  0  0  0
    5.6200  -11.3492  -16.7209 H   0  0  0  0  0  0  0  0  0  0  0  0
    6.0420  -12.3056  -15.0399 H   0  0  0  0  0  0  0  0  0  0  0  0
    6.7396  -13.4362  -12.9643 H   0  0  0  0  0  0  0  0  0  0  0  0
    7.1087  -13.4787  -10.6455 H   0  0  0  0  0  0  0  0  0  0  0  0
    5.0501   -8.9573  -10.1497 H   0  0  0  0  0  0  0  0  0  0  0  0
    7.6936  -10.8641   -6.8314 H   0  0  0  0  0  0  0  0  0  0  0  0
    6.0730  -11.6252   -6.4941 H   0  0  0  0  0  0  0  0  0  0  0  0
    3.2910   -5.7682  -18.0594 H   0  0  0  0  0  0  0  0  0  0  0  0
    1.7513   -6.7416  -18.0903 H   0  0  0  0  0  0  0  0  0  0  0  0
  1  2  1  0
  2  3  2  0
  3  4  1  0
  4  5  2  0
  5  6  1  0
  6  7  2  0
  7  8  1  0
  8  9  2  0
  9 10  1  0
 10 11  2  0
 11 12  1  0
 12 13  2  0
 13 14  1  0
 14 15  2  0
 15 16  1  0
 16 17  2  0
 17 18  1  0
 18 19  2  0
 16 20  1  0
 20 21  1  0
 21 22  1  0
  6 23  1  0
 23 24  1  0
 24 25  1  0
 19  2  1  0
  9  4  1  0
 19 10  1  0
 25  5  1  0
 18 13  1  0
 22 15  1  0
  1 26  1  0
  1 27  1  0
  1 28  1  0
  3 29  1  0
  7 30  1  0
  8 31  1  0
 11 32  1  0
 12 33  1  0
 14 34  1  0
 17 35  1  0
 21 36  1  0
 21 37  1  0
 24 38  1  0
 24 39  1  0
M  CHG  1   2   1
M  END
>  <meeko>  (9) 
{"is_sidechain": [false], "free_energy": -10.859, "intermolecular_energy": -10.859, "internal_energy": 0.0}

$$$$
