
     RDKit          3D

 25 26  0  0  0  0  0  0  0  0999 V2000
    0.0270    2.2340   12.6480 C   0  0  0  0  0  0  0  0  0  0  0  0
    0.1060    1.2970   11.5800 O   0  0  0  0  0  0  0  0  0  0  0  0
    0.7750    0.1430   11.8000 C   0  0  0  0  0  0  0  0  0  0  0  0
    1.4460   -0.1140   12.9910 C   0  0  0  0  0  0  0  0  0  0  0  0
    2.1010   -1.3090   13.2300 C   0  0  0  0  0  0  0  0  0  0  0  0
    2.8230   -1.4720   14.5480 C   0  0  0  0  0  0  0  0  0  0  0  0
    2.0190   -2.0550   15.6530 C   0  0  0  0  0  0  0  0  0  0  0  0
    2.7630   -2.2790   16.9500 C   0  0  0  0  0  0  0  0  0  0  0  0
    2.0250   -2.5400   18.1340 C   0  0  0  0  0  0  0  0  0  0  0  0
    2.6840   -2.7330   19.3360 C   0  0  0  0  0  0  0  0  0  0  0  0
    4.0690   -2.6830   19.3940 C   0  0  0  0  0  0  0  0  0  0  0  0
    4.7910   -2.4440   18.2430 C   0  0  0  0  0  0  0  0  0  0  0  0
    4.1520   -2.2400   17.0270 C   0  0  0  0  0  0  0  0  0  0  0  0
    2.0850   -2.3110   12.2260 C   0  0  0  0  0  0  0  0  0  0  0  0
    2.7280   -3.6470   12.4130 C   0  0  0  0  0  0  0  0  0  0  0  0
    3.4840   -3.8550   13.3530 O   0  0  0  0  0  0  0  0  0  0  0  0
    2.4390   -4.5490   11.6100 O   0  0  0  0  0  0  0  0  0  0  0  0
    1.4190   -2.0400   11.0050 C   0  0  0  0  0  0  0  0  0  0  0  0
    1.4040   -2.9800   10.0380 O   0  0  0  0  0  0  0  0  0  0  0  0
    0.7690   -0.8130   10.7700 C   0  0  0  0  0  0  0  0  0  0  0  0
    0.0770   -0.5150    9.4220 C   0  0  0  0  0  0  0  0  0  0  0  0
    0.7120    0.6570    8.6580 C   0  0  0  0  0  0  0  0  0  0  0  0
    1.4180    0.5180    7.4740 C   0  0  0  0  0  0  0  0  0  0  0  0
    1.8510   -0.8190    6.9350 C   0  0  0  0  0  0  0  0  0  0  0  0
    1.8420    1.7440    6.6490 C   0  0  0  0  0  0  0  0  0  0  0  0
  2  1  1  0
  3  2  1  0
  4  3  2  0
  5  4  1  0
  6  5  1  0
  7  6  1  0
  8  7  1  0
  9  8  2  0
 10  9  1  0
 11 10  2  0
 12 11  1  0
 13 12  2  0
 13  8  1  0
 14  5  2  0
 15 14  1  0
 16 15  2  0
 17 15  1  0
 18 14  1  0
 19 18  1  0
 20 18  2  0
 20  3  1  0
 21 20  1  0
 22 21  1  0
 23 22  2  3
 24 23  1  0
 25 23  1  0
M  CHG  1  17  -1
M  END
$$$$
