4cig_ligand
     RDKit          3D

 67 70  0  0  0  0  0  0  0  0999 V2000
   -0.3620    8.7490  -15.8430 C   0  0  0  0  0  0  0  0  0  0  0  0
   -1.1130    7.5740  -15.5680 O   0  0  0  0  0  0  0  0  0  0  0  0
   -1.8040    7.5450  -14.3880 C   0  0  0  0  0  0  0  0  0  0  0  0
   -2.9840    6.8430  -14.1440 C   0  0  0  0  0  0  0  0  0  0  0  0
   -3.5910    6.9010  -12.8840 C   0  0  0  0  0  0  0  0  0  0  0  0
   -3.0230    7.6540  -11.8480 C   0  0  0  0  0  0  0  0  0  0  0  0
   -3.6800    7.7190  -10.4950 C   0  0  0  0  0  0  0  0  0  0  0  0
   -4.0730    6.4060  -10.0380 N   0  0  0  0  0  0  0  0  0  0  0  0
   -3.2050    5.6040   -9.3430 C   0  0  0  0  0  0  0  0  0  0  0  0
   -2.0360    5.8850   -9.1010 O   0  0  0  0  0  0  0  0  0  0  0  0
   -3.7670    4.3280   -8.8350 C   0  0  0  0  0  0  0  0  0  0  0  0
   -3.8670    3.2530   -9.7320 C   0  0  0  0  0  0  0  0  0  0  0  0
   -4.3350    2.0020   -9.3070 C   0  0  0  0  0  0  0  0  0  0  0  0
   -4.4350    0.9190  -10.1970 C   0  0  0  0  0  0  0  0  0  0  0  0
   -4.9030   -0.3210   -9.7610 C   0  0  0  0  0  0  0  0  0  0  0  0
   -5.2760   -0.4940   -8.4310 C   0  0  0  0  0  0  0  0  0  0  0  0
   -5.1830    0.5730   -7.5360 C   0  0  0  0  0  0  0  0  0  0  0  0
   -4.7110    1.8270   -7.9590 C   0  0  0  0  0  0  0  0  0  0  0  0
   -4.6170    2.9140   -7.0700 C   0  0  0  0  0  0  0  0  0  0  0  0
   -4.1390    4.1730   -7.4870 C   0  0  0  0  0  0  0  0  0  0  0  0
   -4.1510    5.3160   -6.5030 C   0  0  0  0  0  0  0  0  0  0  0  0
   -5.5130    5.6150   -5.9410 N   0  0  1  0  0  0  0  0  0  0  0  0
   -5.5270    6.5550   -4.7960 C   0  0  0  0  0  0  0  0  0  0  0  0
   -6.5470    5.9000   -6.9960 C   0  0  0  0  0  0  0  0  0  0  0  0
   -7.5480    4.7950   -7.2670 C   0  0  0  0  0  0  0  0  0  0  0  0
   -7.9510    3.9430   -6.2260 C   0  0  0  0  0  0  0  0  0  0  0  0
   -8.9010    2.9460   -6.4540 C   0  0  0  0  0  0  0  0  0  0  0  0
   -9.4650    2.7960   -7.7200 C   0  0  0  0  0  0  0  0  0  0  0  0
   -9.0920    3.6500   -8.7590 C   0  0  0  0  0  0  0  0  0  0  0  0
   -9.6210    3.4240  -10.0010 O   0  0  0  0  0  0  0  0  0  0  0  0
   -9.0710    2.2320  -10.5630 C   0  0  0  0  0  0  0  0  0  0  0  0
   -8.1300    4.6420   -8.5550 C   0  0  0  0  0  0  0  0  0  0  0  0
   -7.6740    5.5240   -9.6690 C   0  0  0  0  0  0  0  0  0  0  0  0
   -8.4090    6.5460   -9.8700 O   0  0  0  0  0  0  0  0  0  0  0  0
   -6.7660    5.1070  -10.4440 O   0  0  0  0  0  0  0  0  0  0  0  0
   -1.8450    8.3650  -12.1030 C   0  0  0  0  0  0  0  0  0  0  0  0
   -1.2410    8.3070  -13.3620 C   0  0  0  0  0  0  0  0  0  0  0  0
   -0.0602    9.2212  -14.8964 H   0  0  0  0  0  0  0  0  0  0  0  0
    0.5345    8.4839  -16.4227 H   0  0  0  0  0  0  0  0  0  0  0  0
   -0.9791    9.4513  -16.4227 H   0  0  0  0  0  0  0  0  0  0  0  0
   -3.4394    6.2415  -14.9445 H   0  0  0  0  0  0  0  0  0  0  0  0
   -4.5253    6.3487  -12.7051 H   0  0  0  0  0  0  0  0  0  0  0  0
   -2.9719    8.1524   -9.7734 H   0  0  0  0  0  0  0  0  0  0  0  0
   -4.5826    8.3423  -10.5772 H   0  0  0  0  0  0  0  0  0  0  0  0
   -5.0650    6.3400   -9.7650 H   0  0  0  0  0  0  0  0  0  0  0  0
   -3.5741    3.3942  -10.7828 H   0  0  0  0  0  0  0  0  0  0  0  0
   -4.1411    1.0503  -11.2488 H   0  0  0  0  0  0  0  0  0  0  0  0
   -4.9771   -1.1610  -10.4674 H   0  0  0  0  0  0  0  0  0  0  0  0
   -5.6439   -1.4714   -8.0855 H   0  0  0  0  0  0  0  0  0  0  0  0
   -5.4827    0.4305   -6.4873 H   0  0  0  0  0  0  0  0  0  0  0  0
   -4.9245    2.7777   -6.0227 H   0  0  0  0  0  0  0  0  0  0  0  0
   -3.4790    5.0638   -5.6694 H   0  0  0  0  0  0  0  0  0  0  0  0
   -3.8241    6.2135   -7.0486 H   0  0  0  0  0  0  0  0  0  0  0  0
   -5.8340    4.7020   -5.5130 H   0  0  0  0  0  0  0  0  0  0  0  0
   -5.5185    5.9862   -3.8545 H   0  0  0  0  0  0  0  0  0  0  0  0
   -4.6384    7.2017   -4.8417 H   0  0  0  0  0  0  0  0  0  0  0  0
   -6.4345    7.1750   -4.8417 H   0  0  0  0  0  0  0  0  0  0  0  0
   -7.1087    6.7925   -6.6830 H   0  0  0  0  0  0  0  0  0  0  0  0
   -5.9849    6.0246   -7.9333 H   0  0  0  0  0  0  0  0  0  0  0  0
   -7.5147    4.0622   -5.2233 H   0  0  0  0  0  0  0  0  0  0  0  0
   -9.2048    2.2783   -5.6343 H   0  0  0  0  0  0  0  0  0  0  0  0
  -10.2056    2.0029   -7.9005 H   0  0  0  0  0  0  0  0  0  0  0  0
   -8.7588    1.5553   -9.7539 H   0  0  0  0  0  0  0  0  0  0  0  0
   -9.8308    1.7349  -11.1840 H   0  0  0  0  0  0  0  0  0  0  0  0
   -8.1998    2.4875  -11.1840 H   0  0  0  0  0  0  0  0  0  0  0  0
   -1.3913    8.9737  -11.3070 H   0  0  0  0  0  0  0  0  0  0  0  0
   -0.3126    8.8673  -13.5467 H   0  0  0  0  0  0  0  0  0  0  0  0
  1  2  1  0
  2  3  1  0
  3  4  2  0
  4  5  1  0
  5  6  2  0
  6  7  1  0
  7  8  1  0
  8  9  1  0
  9 10  2  0
  9 11  1  0
 11 12  2  0
 12 13  1  0
 13 14  2  0
 14 15  1  0
 15 16  2  0
 16 17  1  0
 17 18  2  0
 18 19  1  0
 19 20  2  0
 20 21  1  0
 21 22  1  0
 22 23  1  0
 22 24  1  0
 24 25  1  0
 25 26  2  0
 26 27  1  0
 27 28  2  0
 28 29  1  0
 29 30  1  0
 30 31  1  0
 29 32  2  0
 32 33  1  0
 33 34  2  0
 33 35  1  0
  6 36  1  0
 36 37  2  0
 37  3  1  0
 20 11  1  0
 32 25  1  0
 18 13  1  0
  1 38  1  0
  1 39  1  0
  1 40  1  0
  4 41  1  0
  5 42  1  0
  7 43  1  0
  7 44  1  0
  8 45  1  0
 12 46  1  0
 14 47  1  0
 15 48  1  0
 16 49  1  0
 17 50  1  0
 19 51  1  0
 21 52  1  0
 21 53  1  0
 22 54  1  1
 23 55  1  0
 23 56  1  0
 23 57  1  0
 24 58  1  0
 24 59  1  0
 26 60  1  0
 27 61  1  0
 28 62  1  0
 31 63  1  0
 31 64  1  0
 31 65  1  0
 36 66  1  0
 37 67  1  0
M  CHG  2  22   1  35  -1
M  END
>  <meeko>  (1) 
{"is_sidechain": [false], "free_energy": -7.039, "intermolecular_energy": -11.154, "internal_energy": -2.938}

$$$$
4cig_ligand
     RDKit          3D

 67 70  0  0  0  0  0  0  0  0999 V2000
  -15.4580    4.3810   -7.1180 C   0  0  0  0  0  0  0  0  0  0  0  0
  -15.5650    2.9690   -7.2330 O   0  0  0  0  0  0  0  0  0  0  0  0
  -14.4030    2.2760   -7.4370 C   0  0  0  0  0  0  0  0  0  0  0  0
  -14.2010    0.9190   -7.1870 C   0  0  0  0  0  0  0  0  0  0  0  0
  -12.9550    0.3330   -7.4410 C   0  0  0  0  0  0  0  0  0  0  0  0
  -11.8970    1.0940   -7.9560 C   0  0  0  0  0  0  0  0  0  0  0  0
  -10.5560    0.4630   -8.2240 C   0  0  0  0  0  0  0  0  0  0  0  0
   -9.4770    1.3750   -7.9270 N   0  0  0  0  0  0  0  0  0  0  0  0
   -8.7620    1.2780   -6.7600 C   0  0  0  0  0  0  0  0  0  0  0  0
   -8.9960    0.4760   -5.8630 O   0  0  0  0  0  0  0  0  0  0  0  0
   -7.6100    2.2040   -6.6280 C   0  0  0  0  0  0  0  0  0  0  0  0
   -7.8640    3.5060   -6.1690 C   0  0  0  0  0  0  0  0  0  0  0  0
   -6.8180    4.4150   -5.9650 C   0  0  0  0  0  0  0  0  0  0  0  0
   -7.0630    5.7190   -5.5030 C   0  0  0  0  0  0  0  0  0  0  0  0
   -6.0110    6.6140   -5.3040 C   0  0  0  0  0  0  0  0  0  0  0  0
   -4.7030    6.2180   -5.5650 C   0  0  0  0  0  0  0  0  0  0  0  0
   -4.4440    4.9260   -6.0270 C   0  0  0  0  0  0  0  0  0  0  0  0
   -5.4920    4.0120   -6.2290 C   0  0  0  0  0  0  0  0  0  0  0  0
   -5.2480    2.7080   -6.6990 C   0  0  0  0  0  0  0  0  0  0  0  0
   -6.2940    1.7850   -6.8980 C   0  0  0  0  0  0  0  0  0  0  0  0
   -5.9680    0.4350   -7.4900 C   0  0  0  0  0  0  0  0  0  0  0  0
   -5.1100    0.5080   -8.7210 N   0  0  1  0  0  0  0  0  0  0  0  0
   -4.4250   -0.7550   -9.0840 C   0  0  0  0  0  0  0  0  0  0  0  0
   -5.7730    1.2120   -9.8740 C   0  0  0  0  0  0  0  0  0  0  0  0
   -5.3480    2.6470  -10.1140 C   0  0  0  0  0  0  0  0  0  0  0  0
   -3.9960    3.0080   -9.9890 C   0  0  0  0  0  0  0  0  0  0  0  0
   -3.5860    4.3170  -10.2460 C   0  0  0  0  0  0  0  0  0  0  0  0
   -4.5170    5.2760  -10.6390 C   0  0  0  0  0  0  0  0  0  0  0  0
   -5.8600    4.9270  -10.7920 C   0  0  0  0  0  0  0  0  0  0  0  0
   -6.7510    5.9150  -11.1150 O   0  0  0  0  0  0  0  0  0  0  0  0
   -6.8570    6.8540  -10.0450 C   0  0  0  0  0  0  0  0  0  0  0  0
   -6.2930    3.6260  -10.5220 C   0  0  0  0  0  0  0  0  0  0  0  0
   -7.7340    3.2500  -10.6200 C   0  0  0  0  0  0  0  0  0  0  0  0
   -8.1050    2.8720  -11.7800 O   0  0  0  0  0  0  0  0  0  0  0  0
   -8.5030    3.5280   -9.6550 O   0  0  0  0  0  0  0  0  0  0  0  0
  -12.1040    2.4570   -8.1940 C   0  0  0  0  0  0  0  0  0  0  0  0
  -13.3480    3.0400   -7.9390 C   0  0  0  0  0  0  0  0  0  0  0  0
  -15.4367    4.6617   -6.0546 H   0  0  0  0  0  0  0  0  0  0  0  0
  -14.5316    4.7194   -7.6052 H   0  0  0  0  0  0  0  0  0  0  0  0
  -16.3228    4.8551   -7.6052 H   0  0  0  0  0  0  0  0  0  0  0  0
  -15.0236    0.3068   -6.7888 H   0  0  0  0  0  0  0  0  0  0  0  0
  -12.8049   -0.7369   -7.2339 H   0  0  0  0  0  0  0  0  0  0  0  0
  -10.4502   -0.4337   -7.5957 H   0  0  0  0  0  0  0  0  0  0  0  0
  -10.5037    0.1998   -9.2908 H   0  0  0  0  0  0  0  0  0  0  0  0
   -8.9460    1.6770   -8.7570 H   0  0  0  0  0  0  0  0  0  0  0  0
   -8.8995    3.8170   -5.9666 H   0  0  0  0  0  0  0  0  0  0  0  0
   -8.0952    6.0379   -5.2959 H   0  0  0  0  0  0  0  0  0  0  0  0
   -6.2157    7.6320   -4.9410 H   0  0  0  0  0  0  0  0  0  0  0  0
   -3.8731    6.9226   -5.4074 H   0  0  0  0  0  0  0  0  0  0  0  0
   -3.4080    4.6203   -6.2351 H   0  0  0  0  0  0  0  0  0  0  0  0
   -4.2142    2.4015   -6.9166 H   0  0  0  0  0  0  0  0  0  0  0  0
   -5.4370   -0.1582   -6.7310 H   0  0  0  0  0  0  0  0  0  0  0  0
   -6.9218   -0.0243   -7.7890 H   0  0  0  0  0  0  0  0  0  0  0  0
   -4.3130    1.1510   -8.4570 H   0  0  0  0  0  0  0  0  0  0  0  0
   -4.1344   -1.2908   -8.1683 H   0  0  0  0  0  0  0  0  0  0  0  0
   -5.1056   -1.3840   -9.6766 H   0  0  0  0  0  0  0  0  0  0  0  0
   -3.5266   -0.5276   -9.6766 H   0  0  0  0  0  0  0  0  0  0  0  0
   -5.5543    0.6397  -10.7876 H   0  0  0  0  0  0  0  0  0  0  0  0
   -6.8411    1.2600   -9.6154 H   0  0  0  0  0  0  0  0  0  0  0  0
   -3.2552    2.2533   -9.6863 H   0  0  0  0  0  0  0  0  0  0  0  0
   -2.5264    4.5919  -10.1381 H   0  0  0  0  0  0  0  0  0  0  0  0
   -4.1933    6.3100  -10.8291 H   0  0  0  0  0  0  0  0  0  0  0  0
   -6.7970    6.3227   -9.0837 H   0  0  0  0  0  0  0  0  0  0  0  0
   -6.0353    7.5822  -10.1134 H   0  0  0  0  0  0  0  0  0  0  0  0
   -7.8203    7.3807  -10.1134 H   0  0  0  0  0  0  0  0  0  0  0  0
  -11.2815    3.0742   -8.5847 H   0  0  0  0  0  0  0  0  0  0  0  0
  -13.4975    4.1119   -8.1358 H   0  0  0  0  0  0  0  0  0  0  0  0
  1  2  1  0
  2  3  1  0
  3  4  2  0
  4  5  1  0
  5  6  2  0
  6  7  1  0
  7  8  1  0
  8  9  1  0
  9 10  2  0
  9 11  1  0
 11 12  2  0
 12 13  1  0
 13 14  2  0
 14 15  1  0
 15 16  2  0
 16 17  1  0
 17 18  2  0
 18 19  1  0
 19 20  2  0
 20 21  1  0
 21 22  1  0
 22 23  1  0
 22 24  1  0
 24 25  1  0
 25 26  2  0
 26 27  1  0
 27 28  2  0
 28 29  1  0
 29 30  1  0
 30 31  1  0
 29 32  2  0
 32 33  1  0
 33 34  2  0
 33 35  1  0
  6 36  1  0
 36 37  2  0
 37  3  1  0
 20 11  1  0
 32 25  1  0
 18 13  1  0
  1 38  1  0
  1 39  1  0
  1 40  1  0
  4 41  1  0
  5 42  1  0
  7 43  1  0
  7 44  1  0
  8 45  1  0
 12 46  1  0
 14 47  1  0
 15 48  1  0
 16 49  1  0
 17 50  1  0
 19 51  1  0
 21 52  1  0
 21 53  1  0
 22 54  1  1
 23 55  1  0
 23 56  1  0
 23 57  1  0
 24 58  1  0
 24 59  1  0
 26 60  1  0
 27 61  1  0
 28 62  1  0
 31 63  1  0
 31 64  1  0
 31 65  1  0
 36 66  1  0
 37 67  1  0
M  CHG  2  22   1  35  -1
M  END
>  <meeko>  (2) 
{"is_sidechain": [false], "free_energy": -7.011, "intermolecular_energy": -11.062, "internal_energy": -2.986}

$$$$
4cig_ligand
     RDKit          3D

 67 70  0  0  0  0  0  0  0  0999 V2000
   -5.5880    1.1850   -4.5300 C   0  0  0  0  0  0  0  0  0  0  0  0
   -4.3850    1.7850   -4.9930 O   0  0  0  0  0  0  0  0  0  0  0  0
   -4.5120    2.9120   -5.7580 C   0  0  0  0  0  0  0  0  0  0  0  0
   -3.5260    3.4660   -6.5730 C   0  0  0  0  0  0  0  0  0  0  0  0
   -3.7890    4.6290   -7.3070 C   0  0  0  0  0  0  0  0  0  0  0  0
   -5.0440    5.2490   -7.2420 C   0  0  0  0  0  0  0  0  0  0  0  0
   -5.3230    6.5030   -8.0280 C   0  0  0  0  0  0  0  0  0  0  0  0
   -4.6620    6.4760   -9.3120 N   0  0  0  0  0  0  0  0  0  0  0  0
   -5.0570    7.3000  -10.3350 C   0  0  0  0  0  0  0  0  0  0  0  0
   -6.0120    8.0680  -10.2830 O   0  0  0  0  0  0  0  0  0  0  0  0
   -4.2250    7.2530  -11.5630 C   0  0  0  0  0  0  0  0  0  0  0  0
   -3.0410    8.0070  -11.5820 C   0  0  0  0  0  0  0  0  0  0  0  0
   -2.1780    7.9640  -12.6850 C   0  0  0  0  0  0  0  0  0  0  0  0
   -0.9900    8.7130  -12.7110 C   0  0  0  0  0  0  0  0  0  0  0  0
   -0.1390    8.6620  -13.8160 C   0  0  0  0  0  0  0  0  0  0  0  0
   -0.4670    7.8620  -14.9080 C   0  0  0  0  0  0  0  0  0  0  0  0
   -1.6450    7.1150  -14.8960 C   0  0  0  0  0  0  0  0  0  0  0  0
   -2.5100    7.1530  -13.7900 C   0  0  0  0  0  0  0  0  0  0  0  0
   -3.7040    6.4090  -13.7660 C   0  0  0  0  0  0  0  0  0  0  0  0
   -4.5730    6.4390  -12.6560 C   0  0  0  0  0  0  0  0  0  0  0  0
   -5.8800    5.6880  -12.7370 C   0  0  0  0  0  0  0  0  0  0  0  0
   -5.7630    4.2340  -12.3760 N   0  0  1  0  0  0  0  0  0  0  0  0
   -5.5440    3.3180  -13.5210 C   0  0  0  0  0  0  0  0  0  0  0  0
   -4.8680    3.9800  -11.1930 C   0  0  0  0  0  0  0  0  0  0  0  0
   -5.2770    2.8430  -10.2780 C   0  0  0  0  0  0  0  0  0  0  0  0
   -4.3240    1.8980   -9.8650 C   0  0  0  0  0  0  0  0  0  0  0  0
   -4.6790    0.8700   -8.9910 C   0  0  0  0  0  0  0  0  0  0  0  0
   -5.9850    0.7790   -8.5130 C   0  0  0  0  0  0  0  0  0  0  0  0
   -6.9380    1.7250   -8.8950 C   0  0  0  0  0  0  0  0  0  0  0  0
   -8.2240    1.5600   -8.4550 O   0  0  0  0  0  0  0  0  0  0  0  0
   -8.2700    1.6240   -7.0290 C   0  0  0  0  0  0  0  0  0  0  0  0
   -6.6060    2.7520   -9.7840 C   0  0  0  0  0  0  0  0  0  0  0  0
   -7.6260    3.7350  -10.2510 C   0  0  0  0  0  0  0  0  0  0  0  0
   -8.3110    3.3520  -11.2560 O   0  0  0  0  0  0  0  0  0  0  0  0
   -7.5950    4.9120   -9.7870 O   0  0  0  0  0  0  0  0  0  0  0  0
   -6.0240    4.6940   -6.4130 C   0  0  0  0  0  0  0  0  0  0  0  0
   -5.7590    3.5330   -5.6810 C   0  0  0  0  0  0  0  0  0  0  0  0
   -5.5960    1.1810   -3.4300 H   0  0  0  0  0  0  0  0  0  0  0  0
   -6.4502    1.7586   -4.9009 H   0  0  0  0  0  0  0  0  0  0  0  0
   -5.6485    0.1512   -4.9009 H   0  0  0  0  0  0  0  0  0  0  0  0
   -2.5377    2.9877   -6.6397 H   0  0  0  0  0  0  0  0  0  0  0  0
   -3.0014    5.0609   -7.9419 H   0  0  0  0  0  0  0  0  0  0  0  0
   -6.4079    6.5932   -8.1854 H   0  0  0  0  0  0  0  0  0  0  0  0
   -4.9395    7.3622   -7.4582 H   0  0  0  0  0  0  0  0  0  0  0  0
   -3.6510    6.2810   -9.2560 H   0  0  0  0  0  0  0  0  0  0  0  0
   -2.7873    8.6403  -10.7191 H   0  0  0  0  0  0  0  0  0  0  0  0
   -0.7275    9.3467  -11.8510 H   0  0  0  0  0  0  0  0  0  0  0  0
    0.7890    9.2525  -13.8245 H   0  0  0  0  0  0  0  0  0  0  0  0
    0.2027    7.8193  -15.7796 H   0  0  0  0  0  0  0  0  0  0  0  0
   -1.8997    6.4884  -15.7635 H   0  0  0  0  0  0  0  0  0  0  0  0
   -3.9662    5.7881  -14.6353 H   0  0  0  0  0  0  0  0  0  0  0  0
   -6.5957    6.1606  -12.0482 H   0  0  0  0  0  0  0  0  0  0  0  0
   -6.2136    5.7340  -13.7842 H   0  0  0  0  0  0  0  0  0  0  0  0
   -6.7250    3.9640  -12.0270 H   0  0  0  0  0  0  0  0  0  0  0  0
   -5.3036    2.3125  -13.1454 H   0  0  0  0  0  0  0  0  0  0  0  0
   -6.4565    3.2721  -14.1336 H   0  0  0  0  0  0  0  0  0  0  0  0
   -4.7094    3.6898  -14.1336 H   0  0  0  0  0  0  0  0  0  0  0  0
   -3.8609    3.7577  -11.5754 H   0  0  0  0  0  0  0  0  0  0  0  0
   -4.9273    4.8898  -10.5776 H   0  0  0  0  0  0  0  0  0  0  0  0
   -3.2899    1.9687  -10.2333 H   0  0  0  0  0  0  0  0  0  0  0  0
   -3.9271    0.1303   -8.6788 H   0  0  0  0  0  0  0  0  0  0  0  0
   -6.2653   -0.0395   -7.8337 H   0  0  0  0  0  0  0  0  0  0  0  0
   -7.6774    0.7996   -6.6057 H   0  0  0  0  0  0  0  0  0  0  0  0
   -7.8547    2.5850   -6.6915 H   0  0  0  0  0  0  0  0  0  0  0  0
   -9.3133    1.5367   -6.6915 H   0  0  0  0  0  0  0  0  0  0  0  0
   -7.0105    5.1745   -6.3364 H   0  0  0  0  0  0  0  0  0  0  0  0
   -6.5417    3.1046   -5.0377 H   0  0  0  0  0  0  0  0  0  0  0  0
  1  2  1  0
  2  3  1  0
  3  4  2  0
  4  5  1  0
  5  6  2  0
  6  7  1  0
  7  8  1  0
  8  9  1  0
  9 10  2  0
  9 11  1  0
 11 12  2  0
 12 13  1  0
 13 14  2  0
 14 15  1  0
 15 16  2  0
 16 17  1  0
 17 18  2  0
 18 19  1  0
 19 20  2  0
 20 21  1  0
 21 22  1  0
 22 23  1  0
 22 24  1  0
 24 25  1  0
 25 26  2  0
 26 27  1  0
 27 28  2  0
 28 29  1  0
 29 30  1  0
 30 31  1  0
 29 32  2  0
 32 33  1  0
 33 34  2  0
 33 35  1  0
  6 36  1  0
 36 37  2  0
 37  3  1  0
 20 11  1  0
 32 25  1  0
 18 13  1  0
  1 38  1  0
  1 39  1  0
  1 40  1  0
  4 41  1  0
  5 42  1  0
  7 43  1  0
  7 44  1  0
  8 45  1  0
 12 46  1  0
 14 47  1  0
 15 48  1  0
 16 49  1  0
 17 50  1  0
 19 51  1  0
 21 52  1  0
 21 53  1  0
 22 54  1  1
 23 55  1  0
 23 56  1  0
 23 57  1  0
 24 58  1  0
 24 59  1  0
 26 60  1  0
 27 61  1  0
 28 62  1  0
 31 63  1  0
 31 64  1  0
 31 65  1  0
 36 66  1  0
 37 67  1  0
M  CHG  2  22   1  35  -1
M  END
>  <meeko>  (3) 
{"is_sidechain": [false], "free_energy": -6.886, "intermolecular_energy": -10.953, "internal_energy": -2.897}

$$$$
4cig_ligand
     RDKit          3D

 67 70  0  0  0  0  0  0  0  0999 V2000
  -13.8570    1.7090   -7.5850 C   0  0  0  0  0  0  0  0  0  0  0  0
  -13.1160    2.7280   -8.2440 O   0  0  0  0  0  0  0  0  0  0  0  0
  -11.8310    2.4220   -8.6010 C   0  0  0  0  0  0  0  0  0  0  0  0
  -11.0100    3.1780   -9.4380 C   0  0  0  0  0  0  0  0  0  0  0  0
   -9.7080    2.7480   -9.7230 C   0  0  0  0  0  0  0  0  0  0  0  0
   -9.2060    1.5630   -9.1690 C   0  0  0  0  0  0  0  0  0  0  0  0
   -7.8080    1.1010   -9.4810 C   0  0  0  0  0  0  0  0  0  0  0  0
   -6.8890    2.2130   -9.5490 N   0  0  0  0  0  0  0  0  0  0  0  0
   -5.5440    2.0410   -9.3440 C   0  0  0  0  0  0  0  0  0  0  0  0
   -5.0150    0.9780   -9.0360 O   0  0  0  0  0  0  0  0  0  0  0  0
   -4.6980    3.2430   -9.5510 C   0  0  0  0  0  0  0  0  0  0  0  0
   -4.9630    4.0450  -10.6720 C   0  0  0  0  0  0  0  0  0  0  0  0
   -4.2430    5.2250  -10.8990 C   0  0  0  0  0  0  0  0  0  0  0  0
   -4.5030    6.0360  -12.0170 C   0  0  0  0  0  0  0  0  0  0  0  0
   -3.7780    7.2090  -12.2310 C   0  0  0  0  0  0  0  0  0  0  0  0
   -2.7840    7.5840  -11.3320 C   0  0  0  0  0  0  0  0  0  0  0  0
   -2.5130    6.7880  -10.2190 C   0  0  0  0  0  0  0  0  0  0  0  0
   -3.2360    5.6060   -9.9870 C   0  0  0  0  0  0  0  0  0  0  0  0
   -2.9710    4.7900   -8.8720 C   0  0  0  0  0  0  0  0  0  0  0  0
   -3.6970    3.6060   -8.6310 C   0  0  0  0  0  0  0  0  0  0  0  0
   -3.2980    2.7330   -7.4670 C   0  0  0  0  0  0  0  0  0  0  0  0
   -4.2980    2.7290   -6.3450 N   0  0  1  0  0  0  0  0  0  0  0  0
   -3.8880    1.9680   -5.1410 C   0  0  0  0  0  0  0  0  0  0  0  0
   -4.8820    4.0860   -6.0570 C   0  0  0  0  0  0  0  0  0  0  0  0
   -6.3780    4.2240   -6.2490 C   0  0  0  0  0  0  0  0  0  0  0  0
   -7.2190    3.1220   -6.0200 C   0  0  0  0  0  0  0  0  0  0  0  0
   -8.6030    3.2470   -6.1560 C   0  0  0  0  0  0  0  0  0  0  0  0
   -9.1620    4.4730   -6.5110 C   0  0  0  0  0  0  0  0  0  0  0  0
   -8.3410    5.5830   -6.7180 C   0  0  0  0  0  0  0  0  0  0  0  0
   -8.9270    6.7500   -7.1300 O   0  0  0  0  0  0  0  0  0  0  0  0
   -9.5600    6.5650   -8.3960 C   0  0  0  0  0  0  0  0  0  0  0  0
   -6.9530    5.4740   -6.6050 C   0  0  0  0  0  0  0  0  0  0  0  0
   -6.0560    6.6340   -6.8820 C   0  0  0  0  0  0  0  0  0  0  0  0
   -5.8340    7.3840   -5.8760 O   0  0  0  0  0  0  0  0  0  0  0  0
   -5.7710    6.9100   -8.0840 O   0  0  0  0  0  0  0  0  0  0  0  0
  -10.0400    0.8050   -8.3400 C   0  0  0  0  0  0  0  0  0  0  0  0
  -11.3390    1.2350   -8.0570 C   0  0  0  0  0  0  0  0  0  0  0  0
  -13.7654    1.8350   -6.4961 H   0  0  0  0  0  0  0  0  0  0  0  0
  -14.9158    1.7801   -7.8745 H   0  0  0  0  0  0  0  0  0  0  0  0
  -13.4630    0.7236   -7.8745 H   0  0  0  0  0  0  0  0  0  0  0  0
  -11.3864    4.1145   -9.8754 H   0  0  0  0  0  0  0  0  0  0  0  0
   -9.0716    3.3480  -10.3900 H   0  0  0  0  0  0  0  0  0  0  0  0
   -7.4753    0.4093   -8.6930 H   0  0  0  0  0  0  0  0  0  0  0  0
   -7.8191    0.6003  -10.4604 H   0  0  0  0  0  0  0  0  0  0  0  0
   -7.1510    2.9270  -10.2440 H   0  0  0  0  0  0  0  0  0  0  0  0
   -5.7469    3.7428  -11.3821 H   0  0  0  0  0  0  0  0  0  0  0  0
   -5.2866    5.7429  -12.7312 H   0  0  0  0  0  0  0  0  0  0  0  0
   -3.9918    7.8363  -13.1089 H   0  0  0  0  0  0  0  0  0  0  0  0
   -2.2118    8.5085  -11.4992 H   0  0  0  0  0  0  0  0  0  0  0  0
   -1.7238    7.0894   -9.5145 H   0  0  0  0  0  0  0  0  0  0  0  0
   -2.1766    5.0836   -8.1700 H   0  0  0  0  0  0  0  0  0  0  0  0
   -3.1799    1.7016   -7.8307 H   0  0  0  0  0  0  0  0  0  0  0  0
   -2.3618    3.1447   -7.0621 H   0  0  0  0  0  0  0  0  0  0  0  0
   -5.1180    2.1750   -6.7170 H   0  0  0  0  0  0  0  0  0  0  0  0
   -4.1862    2.5214   -4.2383 H   0  0  0  0  0  0  0  0  0  0  0  0
   -4.3775    0.9829   -5.1456 H   0  0  0  0  0  0  0  0  0  0  0  0
   -2.7961    1.8349   -5.1456 H   0  0  0  0  0  0  0  0  0  0  0  0
   -4.6536    4.3345   -5.0101 H   0  0  0  0  0  0  0  0  0  0  0  0
   -4.4266    4.7650   -6.7930 H   0  0  0  0  0  0  0  0  0  0  0  0
   -6.7839    2.1538   -5.7315 H   0  0  0  0  0  0  0  0  0  0  0  0
   -9.2528    2.3766   -5.9827 H   0  0  0  0  0  0  0  0  0  0  0  0
  -10.2517    4.5664   -6.6283 H   0  0  0  0  0  0  0  0  0  0  0  0
  -10.6054    6.2595   -8.2421 H   0  0  0  0  0  0  0  0  0  0  0  0
   -9.5331    7.5086   -8.9608 H   0  0  0  0  0  0  0  0  0  0  0  0
   -9.0292    5.7844   -8.9608 H   0  0  0  0  0  0  0  0  0  0  0  0
   -9.6703   -0.1365   -7.9078 H   0  0  0  0  0  0  0  0  0  0  0  0
  -11.9806    0.6313   -7.3983 H   0  0  0  0  0  0  0  0  0  0  0  0
  1  2  1  0
  2  3  1  0
  3  4  2  0
  4  5  1  0
  5  6  2  0
  6  7  1  0
  7  8  1  0
  8  9  1  0
  9 10  2  0
  9 11  1  0
 11 12  2  0
 12 13  1  0
 13 14  2  0
 14 15  1  0
 15 16  2  0
 16 17  1  0
 17 18  2  0
 18 19  1  0
 19 20  2  0
 20 21  1  0
 21 22  1  0
 22 23  1  0
 22 24  1  0
 24 25  1  0
 25 26  2  0
 26 27  1  0
 27 28  2  0
 28 29  1  0
 29 30  1  0
 30 31  1  0
 29 32  2  0
 32 33  1  0
 33 34  2  0
 33 35  1  0
  6 36  1  0
 36 37  2  0
 37  3  1  0
 20 11  1  0
 32 25  1  0
 18 13  1  0
  1 38  1  0
  1 39  1  0
  1 40  1  0
  4 41  1  0
  5 42  1  0
  7 43  1  0
  7 44  1  0
  8 45  1  0
 12 46  1  0
 14 47  1  0
 15 48  1  0
 16 49  1  0
 17 50  1  0
 19 51  1  0
 21 52  1  0
 21 53  1  0
 22 54  1  6
 23 55  1  0
 23 56  1  0
 23 57  1  0
 24 58  1  0
 24 59  1  0
 26 60  1  0
 27 61  1  0
 28 62  1  0
 31 63  1  0
 31 64  1  0
 31 65  1  0
 36 66  1  0
 37 67  1  0
M  CHG  2  22   1  35  -1
M  END
>  <meeko>  (4) 
{"is_sidechain": [false], "free_energy": -6.804, "intermolecular_energy": -10.559, "internal_energy": -3.161}

$$$$
4cig_ligand
     RDKit          3D

 67 70  0  0  0  0  0  0  0  0999 V2000
   -8.9580    1.9390   -6.5070 C   0  0  0  0  0  0  0  0  0  0  0  0
   -7.7120    2.3520   -5.9640 O   0  0  0  0  0  0  0  0  0  0  0  0
   -7.2320    3.5670   -6.3720 C   0  0  0  0  0  0  0  0  0  0  0  0
   -6.3820    4.4000   -5.6450 C   0  0  0  0  0  0  0  0  0  0  0  0
   -5.9660    5.6240   -6.1830 C   0  0  0  0  0  0  0  0  0  0  0  0
   -6.3860    6.0270   -7.4570 C   0  0  0  0  0  0  0  0  0  0  0  0
   -5.9410    7.3460   -8.0320 C   0  0  0  0  0  0  0  0  0  0  0  0
   -5.1350    7.1580   -9.2150 N   0  0  0  0  0  0  0  0  0  0  0  0
   -5.6620    7.3170  -10.4710 C   0  0  0  0  0  0  0  0  0  0  0  0
   -6.8400    7.5660  -10.7070 O   0  0  0  0  0  0  0  0  0  0  0  0
   -4.7010    7.2050  -11.5960 C   0  0  0  0  0  0  0  0  0  0  0  0
   -3.5830    8.0540  -11.5900 C   0  0  0  0  0  0  0  0  0  0  0  0
   -2.6050    7.9630  -12.5900 C   0  0  0  0  0  0  0  0  0  0  0  0
   -1.4820    8.8060  -12.5900 C   0  0  0  0  0  0  0  0  0  0  0  0
   -0.5150    8.7050  -13.5920 C   0  0  0  0  0  0  0  0  0  0  0  0
   -0.6610    7.7620  -14.6050 C   0  0  0  0  0  0  0  0  0  0  0  0
   -1.7730    6.9190  -14.6190 C   0  0  0  0  0  0  0  0  0  0  0  0
   -2.7530    7.0060  -13.6160 C   0  0  0  0  0  0  0  0  0  0  0  0
   -3.8830    6.1670  -13.6180 C   0  0  0  0  0  0  0  0  0  0  0  0
   -4.8660    6.2450  -12.6120 C   0  0  0  0  0  0  0  0  0  0  0  0
   -6.0950    5.3770  -12.7290 C   0  0  0  0  0  0  0  0  0  0  0  0
   -6.2310    4.3710  -11.6210 N   0  0  1  0  0  0  0  0  0  0  0  0
   -7.5270    3.6530  -11.5800 C   0  0  0  0  0  0  0  0  0  0  0  0
   -5.0230    3.4880  -11.4620 C   0  0  0  0  0  0  0  0  0  0  0  0
   -4.3780    3.4780  -10.0910 C   0  0  0  0  0  0  0  0  0  0  0  0
   -3.5240    4.5260   -9.7090 C   0  0  0  0  0  0  0  0  0  0  0  0
   -2.9550    4.5480   -8.4350 C   0  0  0  0  0  0  0  0  0  0  0  0
   -3.2390    3.5310   -7.5260 C   0  0  0  0  0  0  0  0  0  0  0  0
   -4.1040    2.4950   -7.8810 C   0  0  0  0  0  0  0  0  0  0  0  0
   -4.3020    1.4820   -6.9820 O   0  0  0  0  0  0  0  0  0  0  0  0
   -4.0440    1.9430   -5.6550 C   0  0  0  0  0  0  0  0  0  0  0  0
   -4.6690    2.4450   -9.1590 C   0  0  0  0  0  0  0  0  0  0  0  0
   -5.5480    1.3140   -9.5770 C   0  0  0  0  0  0  0  0  0  0  0  0
   -6.7460    1.3870   -9.1490 O   0  0  0  0  0  0  0  0  0  0  0  0
   -5.0180    0.2970  -10.1120 O   0  0  0  0  0  0  0  0  0  0  0  0
   -7.2480    5.1910   -8.1750 C   0  0  0  0  0  0  0  0  0  0  0  0
   -7.6630    3.9710   -7.6360 C   0  0  0  0  0  0  0  0  0  0  0  0
   -9.6559    1.7077   -5.6888 H   0  0  0  0  0  0  0  0  0  0  0  0
   -9.3741    2.7473   -7.1263 H   0  0  0  0  0  0  0  0  0  0  0  0
   -8.8089    1.0422   -7.1263 H   0  0  0  0  0  0  0  0  0  0  0  0
   -6.0374    4.0946   -4.6460 H   0  0  0  0  0  0  0  0  0  0  0  0
   -5.3014    6.2769   -5.5981 H   0  0  0  0  0  0  0  0  0  0  0  0
   -6.8288    7.9403   -8.2941 H   0  0  0  0  0  0  0  0  0  0  0  0
   -5.3331    7.8662   -7.2771 H   0  0  0  0  0  0  0  0  0  0  0  0
   -4.1520    7.4480   -9.0990 H   0  0  0  0  0  0  0  0  0  0  0  0
   -3.4730    8.8007  -10.7898 H   0  0  0  0  0  0  0  0  0  0  0  0
   -1.3629    9.5538  -11.7921 H   0  0  0  0  0  0  0  0  0  0  0  0
    0.3612    9.3700  -13.5808 H   0  0  0  0  0  0  0  0  0  0  0  0
    0.1003    7.6811  -15.3948 H   0  0  0  0  0  0  0  0  0  0  0  0
   -1.8835    6.1780  -15.4244 H   0  0  0  0  0  0  0  0  0  0  0  0
   -4.0017    5.4308  -14.4266 H   0  0  0  0  0  0  0  0  0  0  0  0
   -6.9820    6.0275  -12.7184 H   0  0  0  0  0  0  0  0  0  0  0  0
   -6.0011    4.8111  -13.6676 H   0  0  0  0  0  0  0  0  0  0  0  0
   -6.2410    4.9460  -10.7330 H   0  0  0  0  0  0  0  0  0  0  0  0
   -7.8225    3.4893  -10.5332 H   0  0  0  0  0  0  0  0  0  0  0  0
   -8.2954    4.2541  -12.0882 H   0  0  0  0  0  0  0  0  0  0  0  0
   -7.4249    2.6828  -12.0882 H   0  0  0  0  0  0  0  0  0  0  0  0
   -5.3272    2.4574  -11.6974 H   0  0  0  0  0  0  0  0  0  0  0  0
   -4.2638    3.9023  -12.1417 H   0  0  0  0  0  0  0  0  0  0  0  0
   -3.3021    5.3357  -10.4198 H   0  0  0  0  0  0  0  0  0  0  0  0
   -2.2816    5.3691   -8.1481 H   0  0  0  0  0  0  0  0  0  0  0  0
   -2.7804    3.5447   -6.5263 H   0  0  0  0  0  0  0  0  0  0  0  0
   -4.4483    1.2205   -4.9307 H   0  0  0  0  0  0  0  0  0  0  0  0
   -2.9587    2.0431   -5.5061 H   0  0  0  0  0  0  0  0  0  0  0  0
   -4.5262    2.9204   -5.5061 H   0  0  0  0  0  0  0  0  0  0  0  0
   -7.6014    5.4966   -9.1709 H   0  0  0  0  0  0  0  0  0  0  0  0
   -8.3369    3.3218   -8.2143 H   0  0  0  0  0  0  0  0  0  0  0  0
  1  2  1  0
  2  3  1  0
  3  4  2  0
  4  5  1  0
  5  6  2  0
  6  7  1  0
  7  8  1  0
  8  9  1  0
  9 10  2  0
  9 11  1  0
 11 12  2  0
 12 13  1  0
 13 14  2  0
 14 15  1  0
 15 16  2  0
 16 17  1  0
 17 18  2  0
 18 19  1  0
 19 20  2  0
 20 21  1  0
 21 22  1  0
 22 23  1  0
 22 24  1  0
 24 25  1  0
 25 26  2  0
 26 27  1  0
 27 28  2  0
 28 29  1  0
 29 30  1  0
 30 31  1  0
 29 32  2  0
 32 33  1  0
 33 34  2  0
 33 35  1  0
  6 36  1  0
 36 37  2  0
 37  3  1  0
 20 11  1  0
 32 25  1  0
 18 13  1  0
  1 38  1  0
  1 39  1  0
  1 40  1  0
  4 41  1  0
  5 42  1  0
  7 43  1  0
  7 44  1  0
  8 45  1  0
 12 46  1  0
 14 47  1  0
 15 48  1  0
 16 49  1  0
 17 50  1  0
 19 51  1  0
 21 52  1  0
 21 53  1  0
 22 54  1  1
 23 55  1  0
 23 56  1  0
 23 57  1  0
 24 58  1  0
 24 59  1  0
 26 60  1  0
 27 61  1  0
 28 62  1  0
 31 63  1  0
 31 64  1  0
 31 65  1  0
 36 66  1  0
 37 67  1  0
M  CHG  2  22   1  35  -1
M  END
>  <meeko>  (5) 
{"is_sidechain": [false], "free_energy": -6.684, "intermolecular_energy": -10.207, "internal_energy": -3.323}

$$$$
4cig_ligand
     RDKit          3D

 67 70  0  0  0  0  0  0  0  0999 V2000
   -2.2740    5.1010   -6.8080 C   0  0  0  0  0  0  0  0  0  0  0  0
   -3.5690    4.9860   -6.2330 O   0  0  0  0  0  0  0  0  0  0  0  0
   -4.3370    3.9310   -6.6450 C   0  0  0  0  0  0  0  0  0  0  0  0
   -3.8650    2.6910   -7.0740 C   0  0  0  0  0  0  0  0  0  0  0  0
   -4.7640    1.6940   -7.4720 C   0  0  0  0  0  0  0  0  0  0  0  0
   -6.1470    1.9200   -7.4370 C   0  0  0  0  0  0  0  0  0  0  0  0
   -7.1120    0.8480   -7.8700 C   0  0  0  0  0  0  0  0  0  0  0  0
   -8.4810    1.2650   -7.6780 N   0  0  0  0  0  0  0  0  0  0  0  0
   -9.4140    1.1330   -8.6750 C   0  0  0  0  0  0  0  0  0  0  0  0
   -9.1740    0.7190   -9.8040 O   0  0  0  0  0  0  0  0  0  0  0  0
  -10.8060    1.4960   -8.3110 C   0  0  0  0  0  0  0  0  0  0  0  0
  -11.6260    0.4910   -7.7730 C   0  0  0  0  0  0  0  0  0  0  0  0
  -12.9320    0.7750   -7.3530 C   0  0  0  0  0  0  0  0  0  0  0  0
  -13.7590   -0.2230   -6.8120 C   0  0  0  0  0  0  0  0  0  0  0  0
  -15.0580    0.0740   -6.3980 C   0  0  0  0  0  0  0  0  0  0  0  0
  -15.5460    1.3710   -6.5220 C   0  0  0  0  0  0  0  0  0  0  0  0
  -14.7380    2.3730   -7.0610 C   0  0  0  0  0  0  0  0  0  0  0  0
  -13.4270    2.0910   -7.4790 C   0  0  0  0  0  0  0  0  0  0  0  0
  -12.6000    3.0890   -8.0290 C   0  0  0  0  0  0  0  0  0  0  0  0
  -11.2820    2.8130   -8.4450 C   0  0  0  0  0  0  0  0  0  0  0  0
  -10.4860    3.9090   -9.1080 C   0  0  0  0  0  0  0  0  0  0  0  0
  -10.0640    3.5830  -10.5140 N   0  0  1  0  0  0  0  0  0  0  0  0
  -11.1690    3.2210  -11.4320 C   0  0  0  0  0  0  0  0  0  0  0  0
   -9.0720    4.5600  -11.0840 C   0  0  0  0  0  0  0  0  0  0  0  0
   -7.6090    4.2360  -10.8580 C   0  0  0  0  0  0  0  0  0  0  0  0
   -7.0970    2.9910  -11.2590 C   0  0  0  0  0  0  0  0  0  0  0  0
   -5.7430    2.6950  -11.0920 C   0  0  0  0  0  0  0  0  0  0  0  0
   -4.8860    3.6410  -10.5340 C   0  0  0  0  0  0  0  0  0  0  0  0
   -5.3750    4.8920  -10.1520 C   0  0  0  0  0  0  0  0  0  0  0  0
   -4.5120    5.7650   -9.5480 O   0  0  0  0  0  0  0  0  0  0  0  0
   -3.5600    6.2530  -10.4930 C   0  0  0  0  0  0  0  0  0  0  0  0
   -6.7300    5.2000  -10.2950 C   0  0  0  0  0  0  0  0  0  0  0  0
   -7.2820    6.5090   -9.8370 C   0  0  0  0  0  0  0  0  0  0  0  0
   -7.1380    7.4640  -10.6670 O   0  0  0  0  0  0  0  0  0  0  0  0
   -7.6380    6.6300   -8.6290 O   0  0  0  0  0  0  0  0  0  0  0  0
   -6.6120    3.1710   -7.0170 C   0  0  0  0  0  0  0  0  0  0  0  0
   -5.7130    4.1640   -6.6210 C   0  0  0  0  0  0  0  0  0  0  0  0
   -1.5221    5.1678   -6.0078 H   0  0  0  0  0  0  0  0  0  0  0  0
   -2.0695    4.2175   -7.4305 H   0  0  0  0  0  0  0  0  0  0  0  0
   -2.2283    6.0067   -7.4305 H   0  0  0  0  0  0  0  0  0  0  0  0
   -2.7828    2.4954   -7.0998 H   0  0  0  0  0  0  0  0  0  0  0  0
   -4.3805    0.7221   -7.8161 H   0  0  0  0  0  0  0  0  0  0  0  0
   -6.9502    0.6297   -8.9359 H   0  0  0  0  0  0  0  0  0  0  0  0
   -6.9331   -0.0479   -7.2574 H   0  0  0  0  0  0  0  0  0  0  0  0
   -8.8270    1.1280   -6.7160 H   0  0  0  0  0  0  0  0  0  0  0  0
  -11.2374   -0.5339   -7.6800 H   0  0  0  0  0  0  0  0  0  0  0  0
  -13.3784   -1.2503   -6.7135 H   0  0  0  0  0  0  0  0  0  0  0  0
  -15.6953   -0.7161   -5.9742 H   0  0  0  0  0  0  0  0  0  0  0  0
  -16.5694    1.6068   -6.1949 H   0  0  0  0  0  0  0  0  0  0  0  0
  -15.1322    3.3952   -7.1596 H   0  0  0  0  0  0  0  0  0  0  0  0
  -12.9928    4.1108   -8.1368 H   0  0  0  0  0  0  0  0  0  0  0  0
  -11.1024    4.8198   -9.1326 H   0  0  0  0  0  0  0  0  0  0  0  0
   -9.5667    4.0406   -8.5185 H   0  0  0  0  0  0  0  0  0  0  0  0
   -9.5120    2.6850  -10.4270 H   0  0  0  0  0  0  0  0  0  0  0  0
  -12.0532    2.9313  -10.8452 H   0  0  0  0  0  0  0  0  0  0  0  0
  -11.4168    4.0849  -12.0662 H   0  0  0  0  0  0  0  0  0  0  0  0
  -10.8575    2.3779  -12.0662 H   0  0  0  0  0  0  0  0  0  0  0  0
   -9.2400    4.6141  -12.1697 H   0  0  0  0  0  0  0  0  0  0  0  0
   -9.2501    5.5055  -10.5508 H   0  0  0  0  0  0  0  0  0  0  0  0
   -7.7679    2.2437  -11.7079 H   0  0  0  0  0  0  0  0  0  0  0  0
   -5.3526    1.7142  -11.4012 H   0  0  0  0  0  0  0  0  0  0  0  0
   -3.8215    3.4019  -10.3940 H   0  0  0  0  0  0  0  0  0  0  0  0
   -2.7045    6.6916   -9.9585 H   0  0  0  0  0  0  0  0  0  0  0  0
   -3.2112    5.4225  -11.1244 H   0  0  0  0  0  0  0  0  0  0  0  0
   -4.0307    7.0210  -11.1244 H   0  0  0  0  0  0  0  0  0  0  0  0
   -7.6930    3.3739   -6.9985 H   0  0  0  0  0  0  0  0  0  0  0  0
   -6.0936    5.1404   -6.2866 H   0  0  0  0  0  0  0  0  0  0  0  0
  1  2  1  0
  2  3  1  0
  3  4  2  0
  4  5  1  0
  5  6  2  0
  6  7  1  0
  7  8  1  0
  8  9  1  0
  9 10  2  0
  9 11  1  0
 11 12  2  0
 12 13  1  0
 13 14  2  0
 14 15  1  0
 15 16  2  0
 16 17  1  0
 17 18  2  0
 18 19  1  0
 19 20  2  0
 20 21  1  0
 21 22  1  0
 22 23  1  0
 22 24  1  0
 24 25  1  0
 25 26  2  0
 26 27  1  0
 27 28  2  0
 28 29  1  0
 29 30  1  0
 30 31  1  0
 29 32  2  0
 32 33  1  0
 33 34  2  0
 33 35  1  0
  6 36  1  0
 36 37  2  0
 37  3  1  0
 20 11  1  0
 32 25  1  0
 18 13  1  0
  1 38  1  0
  1 39  1  0
  1 40  1  0
  4 41  1  0
  5 42  1  0
  7 43  1  0
  7 44  1  0
  8 45  1  0
 12 46  1  0
 14 47  1  0
 15 48  1  0
 16 49  1  0
 17 50  1  0
 19 51  1  0
 21 52  1  0
 21 53  1  0
 22 54  1  1
 23 55  1  0
 23 56  1  0
 23 57  1  0
 24 58  1  0
 24 59  1  0
 26 60  1  0
 27 61  1  0
 28 62  1  0
 31 63  1  0
 31 64  1  0
 31 65  1  0
 36 66  1  0
 37 67  1  0
M  CHG  2  22   1  35  -1
M  END
>  <meeko>  (6) 
{"is_sidechain": [false], "free_energy": -6.658, "intermolecular_energy": -9.996, "internal_energy": -3.493}

$$$$
4cig_ligand
     RDKit          3D

 67 70  0  0  0  0  0  0  0  0999 V2000
   -4.6880    6.2780  -14.7320 C   0  0  0  0  0  0  0  0  0  0  0  0
   -3.6500    6.5750  -13.8070 O   0  0  0  0  0  0  0  0  0  0  0  0
   -3.9930    6.6100  -12.4830 C   0  0  0  0  0  0  0  0  0  0  0  0
   -3.1850    7.0530  -11.4370 C   0  0  0  0  0  0  0  0  0  0  0  0
   -3.6630    7.0360  -10.1210 C   0  0  0  0  0  0  0  0  0  0  0  0
   -4.9580    6.5840   -9.8340 C   0  0  0  0  0  0  0  0  0  0  0  0
   -5.4680    6.5620   -8.4180 C   0  0  0  0  0  0  0  0  0  0  0  0
   -6.2320    5.3650   -8.1540 N   0  0  0  0  0  0  0  0  0  0  0  0
   -6.9770    5.2330   -7.0100 C   0  0  0  0  0  0  0  0  0  0  0  0
   -7.0210    6.0600   -6.1050 O   0  0  0  0  0  0  0  0  0  0  0  0
   -7.8020    4.0020   -6.9130 C   0  0  0  0  0  0  0  0  0  0  0  0
   -9.0230    3.9750   -7.6050 C   0  0  0  0  0  0  0  0  0  0  0  0
   -9.8250    2.8260   -7.6060 C   0  0  0  0  0  0  0  0  0  0  0  0
  -11.0460    2.7890   -8.2980 C   0  0  0  0  0  0  0  0  0  0  0  0
  -11.8350    1.6380   -8.2900 C   0  0  0  0  0  0  0  0  0  0  0  0
  -11.4140    0.5120   -7.5890 C   0  0  0  0  0  0  0  0  0  0  0  0
  -10.2030    0.5350   -6.8950 C   0  0  0  0  0  0  0  0  0  0  0  0
   -9.3960    1.6840   -6.8960 C   0  0  0  0  0  0  0  0  0  0  0  0
   -8.1750    1.7250   -6.1970 C   0  0  0  0  0  0  0  0  0  0  0  0
   -7.3580    2.8740   -6.1990 C   0  0  0  0  0  0  0  0  0  0  0  0
   -6.1090    2.8770   -5.3530 C   0  0  0  0  0  0  0  0  0  0  0  0
   -4.8600    2.5420   -6.1190 N   0  0  1  0  0  0  0  0  0  0  0  0
   -3.6720    2.2480   -5.2850 C   0  0  0  0  0  0  0  0  0  0  0  0
   -5.0900    1.5700   -7.2450 C   0  0  0  0  0  0  0  0  0  0  0  0
   -4.7170    2.0520   -8.6320 C   0  0  0  0  0  0  0  0  0  0  0  0
   -3.7200    3.0300   -8.7890 C   0  0  0  0  0  0  0  0  0  0  0  0
   -3.3400    3.4540  -10.0630 C   0  0  0  0  0  0  0  0  0  0  0  0
   -3.9420    2.9010  -11.1920 C   0  0  0  0  0  0  0  0  0  0  0  0
   -4.9170    1.9120  -11.0530 C   0  0  0  0  0  0  0  0  0  0  0  0
   -5.5280    1.4440  -12.1840 O   0  0  0  0  0  0  0  0  0  0  0  0
   -5.9230    2.5340  -13.0180 C   0  0  0  0  0  0  0  0  0  0  0  0
   -5.3240    1.4870   -9.7850 C   0  0  0  0  0  0  0  0  0  0  0  0
   -6.4070    0.4750   -9.6150 C   0  0  0  0  0  0  0  0  0  0  0  0
   -6.0100   -0.7360   -9.6430 O   0  0  0  0  0  0  0  0  0  0  0  0
   -7.6120    0.8560   -9.6760 O   0  0  0  0  0  0  0  0  0  0  0  0
   -5.7590    6.1300  -10.8880 C   0  0  0  0  0  0  0  0  0  0  0  0
   -5.2790    6.1480  -12.2000 C   0  0  0  0  0  0  0  0  0  0  0  0
   -5.6044    6.0158  -14.1830 H   0  0  0  0  0  0  0  0  0  0  0  0
   -4.8784    7.1577  -15.3643 H   0  0  0  0  0  0  0  0  0  0  0  0
   -4.3843    5.4307  -15.3643 H   0  0  0  0  0  0  0  0  0  0  0  0
   -2.1683    7.4172  -11.6462 H   0  0  0  0  0  0  0  0  0  0  0  0
   -3.0142    7.3816   -9.3027 H   0  0  0  0  0  0  0  0  0  0  0  0
   -4.6120    6.6002   -7.7282 H   0  0  0  0  0  0  0  0  0  0  0  0
   -6.1246    7.4323   -8.2719 H   0  0  0  0  0  0  0  0  0  0  0  0
   -6.6240    4.9250   -9.0000 H   0  0  0  0  0  0  0  0  0  0  0  0
   -9.3549    4.8684   -8.1542 H   0  0  0  0  0  0  0  0  0  0  0  0
  -11.3843    3.6768   -8.8524 H   0  0  0  0  0  0  0  0  0  0  0  0
  -12.7890    1.6208   -8.8374 H   0  0  0  0  0  0  0  0  0  0  0  0
  -12.0352   -0.3958   -7.5818 H   0  0  0  0  0  0  0  0  0  0  0  0
   -9.8771   -0.3576   -6.3408 H   0  0  0  0  0  0  0  0  0  0  0  0
   -7.8497    0.8374   -5.6345 H   0  0  0  0  0  0  0  0  0  0  0  0
   -5.9892    3.8785   -4.9141 H   0  0  0  0  0  0  0  0  0  0  0  0
   -6.2365    2.0964   -4.5885 H   0  0  0  0  0  0  0  0  0  0  0  0
   -4.5970    3.4410   -6.6120 H   0  0  0  0  0  0  0  0  0  0  0  0
   -3.9448    2.3155   -4.2215 H   0  0  0  0  0  0  0  0  0  0  0  0
   -3.3102    1.2332   -5.5070 H   0  0  0  0  0  0  0  0  0  0  0  0
   -2.8787    2.9769   -5.5070 H   0  0  0  0  0  0  0  0  0  0  0  0
   -4.4997    0.6662   -7.0339 H   0  0  0  0  0  0  0  0  0  0  0  0
   -6.1771    1.4047   -7.2735 H   0  0  0  0  0  0  0  0  0  0  0  0
   -3.2360    3.4641   -7.9017 H   0  0  0  0  0  0  0  0  0  0  0  0
   -2.5643    4.2257  -10.1764 H   0  0  0  0  0  0  0  0  0  0  0  0
   -3.6480    3.2448  -12.1947 H   0  0  0  0  0  0  0  0  0  0  0  0
   -6.2307    3.3832  -12.3902 H   0  0  0  0  0  0  0  0  0  0  0  0
   -5.0768    2.8352  -13.6531 H   0  0  0  0  0  0  0  0  0  0  0  0
   -6.7657    2.2232  -13.6531 H   0  0  0  0  0  0  0  0  0  0  0  0
   -6.7730    5.7566  -10.6822 H   0  0  0  0  0  0  0  0  0  0  0  0
   -5.9221    5.7940  -13.0192 H   0  0  0  0  0  0  0  0  0  0  0  0
  1  2  1  0
  2  3  1  0
  3  4  2  0
  4  5  1  0
  5  6  2  0
  6  7  1  0
  7  8  1  0
  8  9  1  0
  9 10  2  0
  9 11  1  0
 11 12  2  0
 12 13  1  0
 13 14  2  0
 14 15  1  0
 15 16  2  0
 16 17  1  0
 17 18  2  0
 18 19  1  0
 19 20  2  0
 20 21  1  0
 21 22  1  0
 22 23  1  0
 22 24  1  0
 24 25  1  0
 25 26  2  0
 26 27  1  0
 27 28  2  0
 28 29  1  0
 29 30  1  0
 30 31  1  0
 29 32  2  0
 32 33  1  0
 33 34  2  0
 33 35  1  0
  6 36  1  0
 36 37  2  0
 37  3  1  0
 20 11  1  0
 32 25  1  0
 18 13  1  0
  1 38  1  0
  1 39  1  0
  1 40  1  0
  4 41  1  0
  5 42  1  0
  7 43  1  0
  7 44  1  0
  8 45  1  0
 12 46  1  0
 14 47  1  0
 15 48  1  0
 16 49  1  0
 17 50  1  0
 19 51  1  0
 21 52  1  0
 21 53  1  0
 22 54  1  6
 23 55  1  0
 23 56  1  0
 23 57  1  0
 24 58  1  0
 24 59  1  0
 26 60  1  0
 27 61  1  0
 28 62  1  0
 31 63  1  0
 31 64  1  0
 31 65  1  0
 36 66  1  0
 37 67  1  0
M  CHG  2  22   1  35  -1
M  END
>  <meeko>  (7) 
{"is_sidechain": [false], "free_energy": -6.658, "intermolecular_energy": -10.169, "internal_energy": -3.319}

$$$$
4cig_ligand
     RDKit          3D

 67 70  0  0  0  0  0  0  0  0999 V2000
   -6.8790    0.0770   -5.6490 C   0  0  0  0  0  0  0  0  0  0  0  0
   -5.8920    0.3730   -6.6290 O   0  0  0  0  0  0  0  0  0  0  0  0
   -5.5450    1.6880   -6.7790 C   0  0  0  0  0  0  0  0  0  0  0  0
   -5.5430    2.6560   -5.7750 C   0  0  0  0  0  0  0  0  0  0  0  0
   -5.1640    3.9720   -6.0660 C   0  0  0  0  0  0  0  0  0  0  0  0
   -4.7750    4.3360   -7.3620 C   0  0  0  0  0  0  0  0  0  0  0  0
   -4.3740    5.7530   -7.6740 C   0  0  0  0  0  0  0  0  0  0  0  0
   -3.9400    5.8870   -9.0450 N   0  0  0  0  0  0  0  0  0  0  0  0
   -4.4020    6.9010   -9.8440 C   0  0  0  0  0  0  0  0  0  0  0  0
   -5.2410    7.7290   -9.5060 O   0  0  0  0  0  0  0  0  0  0  0  0
   -3.7930    6.9910  -11.1950 C   0  0  0  0  0  0  0  0  0  0  0  0
   -2.6450    7.7840  -11.3450 C   0  0  0  0  0  0  0  0  0  0  0  0
   -1.9840    7.8680  -12.5780 C   0  0  0  0  0  0  0  0  0  0  0  0
   -0.8320    8.6570  -12.7370 C   0  0  0  0  0  0  0  0  0  0  0  0
   -0.1840    8.7310  -13.9700 C   0  0  0  0  0  0  0  0  0  0  0  0
   -0.6790    8.0200  -15.0590 C   0  0  0  0  0  0  0  0  0  0  0  0
   -1.8230    7.2330  -14.9160 C   0  0  0  0  0  0  0  0  0  0  0  0
   -2.4860    7.1450  -13.6810 C   0  0  0  0  0  0  0  0  0  0  0  0
   -3.6430    6.3600  -13.5220 C   0  0  0  0  0  0  0  0  0  0  0  0
   -4.3080    6.2640  -12.2830 C   0  0  0  0  0  0  0  0  0  0  0  0
   -5.5940    5.4780  -12.2100 C   0  0  0  0  0  0  0  0  0  0  0  0
   -6.7920    6.3110  -11.8480 N   0  0  1  0  0  0  0  0  0  0  0  0
   -7.0490    7.4620  -12.7450 C   0  0  0  0  0  0  0  0  0  0  0  0
   -8.0110    5.4960  -11.5130 C   0  0  0  0  0  0  0  0  0  0  0  0
   -8.1590    5.0800  -10.0630 C   0  0  0  0  0  0  0  0  0  0  0  0
   -8.1300    6.0520   -9.0490 C   0  0  0  0  0  0  0  0  0  0  0  0
   -8.3050    5.6860   -7.7130 C   0  0  0  0  0  0  0  0  0  0  0  0
   -8.5200    4.3510   -7.3770 C   0  0  0  0  0  0  0  0  0  0  0  0
   -8.5750    3.3770   -8.3760 C   0  0  0  0  0  0  0  0  0  0  0  0
   -8.7210    2.0700   -7.9950 O   0  0  0  0  0  0  0  0  0  0  0  0
  -10.0810    1.8050   -7.6520 C   0  0  0  0  0  0  0  0  0  0  0  0
   -8.3840    3.7210   -9.7170 C   0  0  0  0  0  0  0  0  0  0  0  0
   -8.3790    2.6850  -10.7920 C   0  0  0  0  0  0  0  0  0  0  0  0
   -9.5330    2.3740  -11.2330 O   0  0  0  0  0  0  0  0  0  0  0  0
   -7.3070    2.0550  -11.0250 O   0  0  0  0  0  0  0  0  0  0  0  0
   -4.7920    3.3620   -8.3660 C   0  0  0  0  0  0  0  0  0  0  0  0
   -5.1700    2.0500   -8.0740 C   0  0  0  0  0  0  0  0  0  0  0  0
   -6.4489    0.2060   -4.6448 H   0  0  0  0  0  0  0  0  0  0  0  0
   -7.7338    0.7583   -5.7721 H   0  0  0  0  0  0  0  0  0  0  0  0
   -7.2178   -0.9623   -5.7721 H   0  0  0  0  0  0  0  0  0  0  0  0
   -5.8401    2.3847   -4.7512 H   0  0  0  0  0  0  0  0  0  0  0  0
   -5.1717    4.7290   -5.2680 H   0  0  0  0  0  0  0  0  0  0  0  0
   -5.2364    6.4147   -7.5051 H   0  0  0  0  0  0  0  0  0  0  0  0
   -3.5363    6.0290   -7.0166 H   0  0  0  0  0  0  0  0  0  0  0  0
   -2.9620    5.6000   -9.2020 H   0  0  0  0  0  0  0  0  0  0  0  0
   -2.2586    8.3475  -10.4829 H   0  0  0  0  0  0  0  0  0  0  0  0
   -0.4371    9.2223  -11.8800 H   0  0  0  0  0  0  0  0  0  0  0  0
    0.7178    9.3510  -14.0815 H   0  0  0  0  0  0  0  0  0  0  0  0
   -0.1691    8.0781  -16.0319 H   0  0  0  0  0  0  0  0  0  0  0  0
   -2.2100    6.6749  -15.7813 H   0  0  0  0  0  0  0  0  0  0  0  0
   -4.0386    5.8071  -14.3868 H   0  0  0  0  0  0  0  0  0  0  0  0
   -5.7755    5.0171  -13.1922 H   0  0  0  0  0  0  0  0  0  0  0  0
   -5.4692    4.7309  -11.4123 H   0  0  0  0  0  0  0  0  0  0  0  0
   -6.5340    6.7690  -10.9300 H   0  0  0  0  0  0  0  0  0  0  0  0
   -7.2494    8.3596  -12.1415 H   0  0  0  0  0  0  0  0  0  0  0  0
   -6.1676    7.6362  -13.3797 H   0  0  0  0  0  0  0  0  0  0  0  0
   -7.9207    7.2447  -13.3797 H   0  0  0  0  0  0  0  0  0  0  0  0
   -8.8966    6.0894  -11.7841 H   0  0  0  0  0  0  0  0  0  0  0  0
   -7.9038    4.5589  -12.0791 H   0  0  0  0  0  0  0  0  0  0  0  0
   -7.9683    7.1084   -9.3094 H   0  0  0  0  0  0  0  0  0  0  0  0
   -8.2731    6.4526   -6.9247 H   0  0  0  0  0  0  0  0  0  0  0  0
   -8.6467    4.0638   -6.3227 H   0  0  0  0  0  0  0  0  0  0  0  0
  -10.1857    1.7846   -6.5572 H   0  0  0  0  0  0  0  0  0  0  0  0
  -10.7244    2.5947   -8.0672 H   0  0  0  0  0  0  0  0  0  0  0  0
  -10.3809    0.8315   -8.0672 H   0  0  0  0  0  0  0  0  0  0  0  0
   -4.5054    3.6318   -9.3932 H   0  0  0  0  0  0  0  0  0  0  0  0
   -5.1723    1.2937   -8.8728 H   0  0  0  0  0  0  0  0  0  0  0  0
  1  2  1  0
  2  3  1  0
  3  4  2  0
  4  5  1  0
  5  6  2  0
  6  7  1  0
  7  8  1  0
  8  9  1  0
  9 10  2  0
  9 11  1  0
 11 12  2  0
 12 13  1  0
 13 14  2  0
 14 15  1  0
 15 16  2  0
 16 17  1  0
 17 18  2  0
 18 19  1  0
 19 20  2  0
 20 21  1  0
 21 22  1  0
 22 23  1  0
 22 24  1  0
 24 25  1  0
 25 26  2  0
 26 27  1  0
 27 28  2  0
 28 29  1  0
 29 30  1  0
 30 31  1  0
 29 32  2  0
 32 33  1  0
 33 34  2  0
 33 35  1  0
  6 36  1  0
 36 37  2  0
 37  3  1  0
 20 11  1  0
 32 25  1  0
 18 13  1  0
  1 38  1  0
  1 39  1  0
  1 40  1  0
  4 41  1  0
  5 42  1  0
  7 43  1  0
  7 44  1  0
  8 45  1  0
 12 46  1  0
 14 47  1  0
 15 48  1  0
 16 49  1  0
 17 50  1  0
 19 51  1  0
 21 52  1  0
 21 53  1  0
 22 54  1  1
 23 55  1  0
 23 56  1  0
 23 57  1  0
 24 58  1  0
 24 59  1  0
 26 60  1  0
 27 61  1  0
 28 62  1  0
 31 63  1  0
 31 64  1  0
 31 65  1  0
 36 66  1  0
 37 67  1  0
M  CHG  2  22   1  35  -1
M  END
>  <meeko>  (8) 
{"is_sidechain": [false], "free_energy": -6.613, "intermolecular_energy": -9.925, "internal_energy": -3.492}

$$$$
4cig_ligand
     RDKit          3D

 67 70  0  0  0  0  0  0  0  0999 V2000
   -2.9350    3.4730   -7.1370 C   0  0  0  0  0  0  0  0  0  0  0  0
   -3.5170    3.7730   -8.3990 O   0  0  0  0  0  0  0  0  0  0  0  0
   -4.6030    3.0280   -8.7710 C   0  0  0  0  0  0  0  0  0  0  0  0
   -5.6680    3.4660   -9.5570 C   0  0  0  0  0  0  0  0  0  0  0  0
   -6.7210    2.5970   -9.8640 C   0  0  0  0  0  0  0  0  0  0  0  0
   -6.7200    1.2750   -9.3970 C   0  0  0  0  0  0  0  0  0  0  0  0
   -7.8560    0.3430   -9.7250 C   0  0  0  0  0  0  0  0  0  0  0  0
   -9.0940    0.7970   -9.1370 N   0  0  0  0  0  0  0  0  0  0  0  0
  -10.2020    1.0440   -9.9080 C   0  0  0  0  0  0  0  0  0  0  0  0
  -10.2320    0.9640  -11.1310 O   0  0  0  0  0  0  0  0  0  0  0  0
  -11.4400    1.3980   -9.1690 C   0  0  0  0  0  0  0  0  0  0  0  0
  -12.0510    0.3970   -8.3990 C   0  0  0  0  0  0  0  0  0  0  0  0
  -13.1890    0.6750   -7.6290 C   0  0  0  0  0  0  0  0  0  0  0  0
  -13.8070   -0.3190   -6.8530 C   0  0  0  0  0  0  0  0  0  0  0  0
  -14.9400   -0.0280   -6.0920 C   0  0  0  0  0  0  0  0  0  0  0  0
  -15.4690    1.2590   -6.0980 C   0  0  0  0  0  0  0  0  0  0  0  0
  -14.8670    2.2560   -6.8670 C   0  0  0  0  0  0  0  0  0  0  0  0
  -13.7250    1.9810   -7.6360 C   0  0  0  0  0  0  0  0  0  0  0  0
  -13.1100    2.9740   -8.4200 C   0  0  0  0  0  0  0  0  0  0  0  0
  -11.9600    2.7050   -9.1890 C   0  0  0  0  0  0  0  0  0  0  0  0
  -11.4080    3.7940  -10.0760 C   0  0  0  0  0  0  0  0  0  0  0  0
  -10.0810    4.3310   -9.6180 N   0  0  1  0  0  0  0  0  0  0  0  0
   -9.4240    5.2670  -10.5600 C   0  0  0  0  0  0  0  0  0  0  0  0
  -10.0800    4.7850   -8.1830 C   0  0  0  0  0  0  0  0  0  0  0  0
   -8.9690    4.2400   -7.3100 C   0  0  0  0  0  0  0  0  0  0  0  0
   -9.0400    2.9230   -6.8250 C   0  0  0  0  0  0  0  0  0  0  0  0
   -8.0040    2.3970   -6.0520 C   0  0  0  0  0  0  0  0  0  0  0  0
   -6.8840    3.1740   -5.7620 C   0  0  0  0  0  0  0  0  0  0  0  0
   -6.7880    4.4760   -6.2560 C   0  0  0  0  0  0  0  0  0  0  0  0
   -5.7030    5.2260   -5.8920 O   0  0  0  0  0  0  0  0  0  0  0  0
   -5.9970    5.9840   -4.7190 C   0  0  0  0  0  0  0  0  0  0  0  0
   -7.8230    5.0270   -7.0170 C   0  0  0  0  0  0  0  0  0  0  0  0
   -7.7660    6.4380   -7.5020 C   0  0  0  0  0  0  0  0  0  0  0  0
   -8.6630    7.2020   -7.0160 O   0  0  0  0  0  0  0  0  0  0  0  0
   -7.0120    6.7150   -8.4790 O   0  0  0  0  0  0  0  0  0  0  0  0
   -5.6530    0.8470   -8.6000 C   0  0  0  0  0  0  0  0  0  0  0  0
   -4.6030    1.7170   -8.2940 C   0  0  0  0  0  0  0  0  0  0  0  0
   -3.6032    3.8174   -6.3339 H   0  0  0  0  0  0  0  0  0  0  0  0
   -2.7873    2.3864   -7.0503 H   0  0  0  0  0  0  0  0  0  0  0  0
   -1.9643    3.9831   -7.0503 H   0  0  0  0  0  0  0  0  0  0  0  0
   -5.6806    4.4982   -9.9371 H   0  0  0  0  0  0  0  0  0  0  0  0
   -7.5596    2.9554  -10.4791 H   0  0  0  0  0  0  0  0  0  0  0  0
   -7.9751    0.2939  -10.8174 H   0  0  0  0  0  0  0  0  0  0  0  0
   -7.6201   -0.6497   -9.3140 H   0  0  0  0  0  0  0  0  0  0  0  0
   -9.2760    0.4120   -8.1980 H   0  0  0  0  0  0  0  0  0  0  0  0
  -11.6314   -0.6198   -8.3995 H   0  0  0  0  0  0  0  0  0  0  0  0
  -13.3934   -1.3383   -6.8449 H   0  0  0  0  0  0  0  0  0  0  0  0
  -15.4145   -0.8154   -5.4879 H   0  0  0  0  0  0  0  0  0  0  0  0
  -16.3609    1.4904   -5.4972 H   0  0  0  0  0  0  0  0  0  0  0  0
  -15.2927    3.2703   -6.8707 H   0  0  0  0  0  0  0  0  0  0  0  0
  -13.5380    3.9872   -8.4332 H   0  0  0  0  0  0  0  0  0  0  0  0
  -11.2866    3.3873  -11.0908 H   0  0  0  0  0  0  0  0  0  0  0  0
  -12.1224    4.6298  -10.0418 H   0  0  0  0  0  0  0  0  0  0  0  0
   -9.4370    3.4920   -9.6170 H   0  0  0  0  0  0  0  0  0  0  0  0
   -8.8826    6.0383   -9.9926 H   0  0  0  0  0  0  0  0  0  0  0  0
   -8.7157    4.7128  -11.1934 H   0  0  0  0  0  0  0  0  0  0  0  0
  -10.1859    5.7448  -11.1934 H   0  0  0  0  0  0  0  0  0  0  0  0
  -10.0029    5.8823   -8.1782 H   0  0  0  0  0  0  0  0  0  0  0  0
  -11.0129    4.3946   -7.7501 H   0  0  0  0  0  0  0  0  0  0  0  0
   -9.9183    2.3024   -7.0563 H   0  0  0  0  0  0  0  0  0  0  0  0
   -8.0715    1.3673   -5.6709 H   0  0  0  0  0  0  0  0  0  0  0  0
   -6.0743    2.7606   -5.1428 H   0  0  0  0  0  0  0  0  0  0  0  0
   -5.7643    5.3841   -3.8269 H   0  0  0  0  0  0  0  0  0  0  0  0
   -5.3893    6.9009   -4.7130 H   0  0  0  0  0  0  0  0  0  0  0  0
   -7.0640    6.2513   -4.7130 H   0  0  0  0  0  0  0  0  0  0  0  0
   -5.6404   -0.1819   -8.2113 H   0  0  0  0  0  0  0  0  0  0  0  0
   -3.7680    1.3645   -7.6707 H   0  0  0  0  0  0  0  0  0  0  0  0
  1  2  1  0
  2  3  1  0
  3  4  2  0
  4  5  1  0
  5  6  2  0
  6  7  1  0
  7  8  1  0
  8  9  1  0
  9 10  2  0
  9 11  1  0
 11 12  2  0
 12 13  1  0
 13 14  2  0
 14 15  1  0
 15 16  2  0
 16 17  1  0
 17 18  2  0
 18 19  1  0
 19 20  2  0
 20 21  1  0
 21 22  1  0
 22 23  1  0
 22 24  1  0
 24 25  1  0
 25 26  2  0
 26 27  1  0
 27 28  2  0
 28 29  1  0
 29 30  1  0
 30 31  1  0
 29 32  2  0
 32 33  1  0
 33 34  2  0
 33 35  1  0
  6 36  1  0
 36 37  2  0
 37  3  1  0
 20 11  1  0
 32 25  1  0
 18 13  1  0
  1 38  1  0
  1 39  1  0
  1 40  1  0
  4 41  1  0
  5 42  1  0
  7 43  1  0
  7 44  1  0
  8 45  1  0
 12 46  1  0
 14 47  1  0
 15 48  1  0
 16 49  1  0
 17 50  1  0
 19 51  1  0
 21 52  1  0
 21 53  1  0
 22 54  1  1
 23 55  1  0
 23 56  1  0
 23 57  1  0
 24 58  1  0
 24 59  1  0
 26 60  1  0
 27 61  1  0
 28 62  1  0
 31 63  1  0
 31 64  1  0
 31 65  1  0
 36 66  1  0
 37 67  1  0
M  CHG  2  22   1  35  -1
M  END
>  <meeko>  (9) 
{"is_sidechain": [false], "free_energy": -6.609, "intermolecular_energy": -10.1, "internal_energy": -3.311}

$$$$
