
     RDKit          3D

 21 22  0  0  0  0  0  0  0  0999 V2000
    4.8520    2.8590   -2.7780 O   0  0  0  0  0  0  0  0  0  0  0  0
    4.5850    3.3670   -1.6760 C   0  0  0  0  0  0  0  0  0  0  0  0
    5.5310    4.1420   -0.9650 C   0  0  0  0  0  0  0  0  0  0  0  0
    5.1980    4.6980    0.2500 C   0  0  0  0  0  0  0  0  0  0  0  0
    3.9550    4.4960    0.7970 N   0  0  0  0  0  0  0  0  0  0  0  0
    3.5880    5.1150    2.0890 C   0  0  2  0  0  0  0  0  0  0  0  0
    4.5000    6.1830    2.3780 O   0  0  0  0  0  0  0  0  0  0  0  0
    5.0680    6.0140    3.6720 C   0  0  2  0  0  0  0  0  0  0  0  0
    6.5750    6.1950    3.6470 C   0  0  0  0  0  0  0  0  0  0  0  0
    6.9460    7.4130    3.0840 O   0  0  0  0  0  0  0  0  0  0  0  0
    4.7080    4.6460    4.1810 C   0  0  1  0  0  0  0  0  0  0  0  0
    4.2350    4.7460    5.5080 O   0  0  0  0  0  0  0  0  0  0  0  0
    4.0590    3.3860    6.4350 P   0  0  0  0  0  0  0  0  0  0  0  0
    3.6740    3.8690    7.7850 O   0  0  0  0  0  0  0  0  0  0  0  0
    5.3890    2.7100    6.4130 O   0  0  0  0  0  0  0  0  0  0  0  0
    2.9840    2.5500    5.8110 O   0  0  0  0  0  0  0  0  0  0  0  0
    3.6350    4.1290    3.2290 C   0  0  1  0  0  0  0  0  0  0  0  0
    2.3620    4.1240    3.8570 O   0  0  0  0  0  0  0  0  0  0  0  0
    3.0330    3.7230    0.1090 C   0  0  0  0  0  0  0  0  0  0  0  0
    1.9230    3.5150    0.6110 O   0  0  0  0  0  0  0  0  0  0  0  0
    3.3670    3.1820   -1.1100 N   0  0  0  0  0  0  0  0  0  0  0  0
  2  1  2  0
  3  2  1  0
  4  3  2  0
  5  4  1  0
  6  5  1  6
  7  6  1  0
  8  7  1  0
  8  9  1  6
 10  9  1  0
 11  8  1  0
 11 12  1  1
 13 12  1  0
 14 13  2  0
 15 13  1  0
 16 13  1  0
 17 11  1  0
 17  6  1  0
 17 18  1  1
 19  5  1  0
 20 19  2  0
 21 19  1  0
 21  2  1  0
M  CHG  2  15  -1  16  -1
M  END
$$$$
