
     RDKit          3D

 14 14  0  0  0  0  0  0  0  0999 V2000
  -12.1720   -4.8630   -0.2480 C   0  0  0  0  0  0  0  0  0  0  0  0
  -11.0480   -4.7900    0.7430 C   0  0  0  0  0  0  0  0  0  0  0  0
  -11.1780   -4.3720    1.8690 O   0  0  0  0  0  0  0  0  0  0  0  0
   -9.8420   -5.2370    0.3000 O   0  0  0  0  0  0  0  0  0  0  0  0
   -8.7130   -5.2850    1.0990 C   0  0  0  0  0  0  0  0  0  0  0  0
   -8.4110   -6.4570    1.8060 C   0  0  0  0  0  0  0  0  0  0  0  0
   -9.3770   -7.6440    1.7510 C   0  0  0  0  0  0  0  0  0  0  0  0
   -7.2570   -6.5280    2.5590 C   0  0  0  0  0  0  0  0  0  0  0  0
   -6.4070   -5.4440    2.6370 C   0  0  0  0  0  0  0  0  0  0  0  0
   -6.7050   -4.2510    1.9600 C   0  0  0  0  0  0  0  0  0  0  0  0
   -7.8610   -4.1730    1.2060 C   0  0  0  0  0  0  0  0  0  0  0  0
   -8.1880   -2.8870    0.4930 C   0  0  0  0  0  0  0  0  0  0  0  0
   -8.3100   -1.8630    1.1700 O   0  0  0  0  0  0  0  0  0  0  0  0
   -8.3670   -2.9090   -0.7320 O   0  0  0  0  0  0  0  0  0  0  0  0
  2  1  1  0
  3  2  2  0
  4  2  1  0
  5  4  1  0
  6  5  2  0
  7  6  1  0
  8  6  1  0
  9  8  2  0
 10  9  1  0
 11 10  2  0
 11  5  1  0
 12 11  1  0
 13 12  2  0
 14 12  1  0
M  CHG  1  14  -1
M  END
$$$$
