
     RDKit          3D

 16 17  0  0  0  0  0  0  0  0999 V2000
    1.6770  -11.4780    4.1350 C   0  0  0  0  0  0  0  0  0  0  0  0
    0.8240  -10.5930    5.0020 C   0  0  0  0  0  0  0  0  0  0  0  0
    0.1140   -9.6270    4.2350 O   0  0  0  0  0  0  0  0  0  0  0  0
    0.7330   -8.4330    3.9350 C   0  0  0  0  0  0  0  0  0  0  0  0
    1.8320   -7.9710    4.6750 C   0  0  0  0  0  0  0  0  0  0  0  0
    2.4320   -6.7660    4.3440 C   0  0  0  0  0  0  0  0  0  0  0  0
    1.9230   -6.0240    3.2750 C   0  0  0  0  0  0  0  0  0  0  0  0
    2.4400   -4.8360    2.8080 N   0  0  0  0  0  0  0  0  0  0  0  0
    1.7560   -4.3740    1.7580 C   0  0  0  0  0  0  0  0  0  0  0  0
    2.1810   -2.8980    0.9120 S   0  0  1  0  0  0  0  0  0  0  0  0
    2.3550   -1.7240    2.0310 N   0  0  0  0  0  0  0  0  0  0  0  0
    3.4740   -3.1410    0.2860 O   0  0  0  0  0  0  0  0  0  0  0  0
    1.0870   -2.5980   -0.0070 O   0  0  0  0  0  0  0  0  0  0  0  0
    0.4460   -5.3860    1.3010 S   0  0  0  0  0  0  0  0  0  0  0  0
    0.8260   -6.4960    2.5600 C   0  0  0  0  0  0  0  0  0  0  0  0
    0.2300   -7.6870    2.8750 C   0  0  0  0  0  0  0  0  0  0  0  0
  2  1  1  0
  3  2  1  0
  4  3  1  0
  5  4  2  0
  6  5  1  0
  7  6  2  0
  8  7  1  0
  9  8  2  0
 10  9  1  0
 10 11  1  1
 12 10  2  0
 13 10  2  0
 14  9  1  0
 15  7  1  0
 15 14  1  0
 16 15  2  0
 16  4  1  0
M  END
$$$$
