
     RDKit          3D

 37 40  0  0  0  0  0  0  0  0999 V2000
   -1.4640    0.1680   -9.9570 C   0  0  0  0  0  0  0  0  0  0  0  0
   -2.0900   -0.2270  -11.2810 C   0  0  0  0  0  0  0  0  0  0  0  0
   -2.9000   -1.3270  -11.3590 C   0  0  0  0  0  0  0  0  0  0  0  0
   -3.4670   -1.6880  -12.5100 N   0  0  0  0  0  0  0  0  0  0  0  0
   -3.2610   -0.9520  -13.6070 C   0  0  0  0  0  0  0  0  0  0  0  0
   -3.8830   -1.3460  -14.7730 N   0  0  0  0  0  0  0  0  0  0  0  0
   -3.9390   -0.7640  -16.0110 C   0  0  0  0  0  0  0  0  0  0  0  0
   -4.5770   -1.5020  -16.9890 C   0  0  0  0  0  0  0  0  0  0  0  0
   -4.7000   -0.9790  -18.2690 C   0  0  0  0  0  0  0  0  0  0  0  0
   -4.2030    0.2670  -18.5520 C   0  0  0  0  0  0  0  0  0  0  0  0
   -4.3770    0.7420  -19.7880 O   0  0  0  0  0  0  0  0  0  0  0  0
   -4.0510    2.0860  -20.0440 C   0  0  0  0  0  0  0  0  0  0  0  0
   -4.6900    2.5480  -21.2880 C   0  0  0  0  0  0  0  0  0  0  0  0
   -4.6630    1.6130  -22.3200 N   0  0  0  0  0  0  0  0  0  0  0  0
   -4.0580    2.1620  -23.5270 C   0  0  0  0  0  0  0  0  0  0  0  0
   -4.8510    1.6630  -24.6500 C   0  0  0  0  0  0  0  0  0  0  0  0
   -6.0940    1.0940  -24.1090 C   0  0  0  0  0  0  0  0  0  0  0  0
   -6.0180    1.1590  -22.6420 C   0  0  0  0  0  0  0  0  0  0  0  0
   -3.5680    1.0020  -17.5840 C   0  0  0  0  0  0  0  0  0  0  0  0
   -3.4310    0.4950  -16.2960 C   0  0  0  0  0  0  0  0  0  0  0  0
   -2.4560    0.1340  -13.5950 N   0  0  0  0  0  0  0  0  0  0  0  0
   -1.8590    0.5120  -12.4560 C   0  0  0  0  0  0  0  0  0  0  0  0
   -1.0330    1.6070  -12.4360 N   0  0  0  0  0  0  0  0  0  0  0  0
   -0.5720    2.4190  -13.4400 C   0  0  0  0  0  0  0  0  0  0  0  0
   -0.2150    3.7070  -13.0790 C   0  0  0  0  0  0  0  0  0  0  0  0
    0.2920    4.5860  -14.0140 C   0  0  0  0  0  0  0  0  0  0  0  0
    0.4450    4.1660  -15.3250 C   0  0  0  0  0  0  0  0  0  0  0  0
    0.1350    2.8800  -15.6900 C   0  0  0  0  0  0  0  0  0  0  0  0
    0.3590    2.3930  -17.3390 S   0  0  1  0  0  0  0  0  0  0  0  0
   -0.8940    2.5500  -18.0400 O   0  0  0  0  0  0  0  0  0  0  0  0
    1.4270    3.1460  -17.8980 O   0  0  0  0  0  0  0  0  0  0  0  0
    0.7340    0.8300  -17.3390 N   0  0  0  0  0  0  0  0  0  0  0  0
    2.0910    0.3150  -17.2100 C   0  0  1  0  0  0  0  0  0  0  0  0
    2.8760    0.6010  -18.4900 C   0  0  0  0  0  0  0  0  0  0  0  0
    2.8230    0.8900  -16.0290 C   0  0  0  0  0  0  0  0  0  0  0  0
    1.9590   -1.1750  -17.0640 C   0  0  0  0  0  0  0  0  0  0  0  0
   -0.3960    1.9960  -14.7520 C   0  0  0  0  0  0  0  0  0  0  0  0
  2  1  1  0
  3  2  2  0
  4  3  1  0
  5  4  2  0
  6  5  1  0
  7  6  1  0
  8  7  2  0
  9  8  1  0
 10  9  2  0
 11 10  1  0
 12 11  1  0
 13 12  1  0
 14 13  1  0
 15 14  1  0
 16 15  1  0
 17 16  1  0
 18 17  1  0
 18 14  1  0
 19 10  1  0
 20 19  2  0
 20  7  1  0
 21  5  1  0
 22 21  2  0
 22  2  1  0
 23 22  1  0
 24 23  1  0
 25 24  2  0
 26 25  1  0
 27 26  2  0
 28 27  1  0
 29 28  1  0
 30 29  2  0
 31 29  2  0
 29 32  1  1
 33 32  1  0
 33 34  1  6
 35 33  1  0
 36 33  1  0
 37 28  2  0
 37 24  1  0
M  CHG  1  14   1
M  END
$$$$
