3ehy_ligand
     RDKit          3D

 29 29  0  0  0  0  0  0  0  0999 V2000
   -8.4240    0.2100    6.3800 C   0  0  0  0  0  0  0  0  0  0  0  0
   -7.3560   -0.2860    5.5840 O   0  0  0  0  0  0  0  0  0  0  0  0
   -6.6030   -1.2940    6.1240 C   0  0  0  0  0  0  0  0  0  0  0  0
   -6.3700   -1.5030    7.4870 C   0  0  0  0  0  0  0  0  0  0  0  0
   -5.5770   -2.5760    7.9070 C   0  0  0  0  0  0  0  0  0  0  0  0
   -5.0230   -3.4420    6.9610 C   0  0  0  0  0  0  0  0  0  0  0  0
   -4.0010   -4.7910    7.5150 S   0  0  0  0  0  0  0  0  0  0  0  0
   -3.3930   -5.3510    6.3250 O   0  0  0  0  0  0  0  0  0  0  0  0
   -4.7890   -5.6070    8.4120 O   0  0  0  0  0  0  0  0  0  0  0  0
   -2.8110   -3.9630    8.3630 N   0  0  0  0  0  0  0  0  0  0  0  0
   -2.0930   -4.7200    9.4530 C   0  0  2  0  0  0  0  0  0  0  0  0
   -2.6470   -4.2620   10.7920 C   0  0  0  0  0  0  0  0  0  0  0  0
   -0.5820   -4.3370    9.3970 C   0  0  0  0  0  0  0  0  0  0  0  0
   -0.3220   -3.1680    9.0010 O   0  0  0  0  0  0  0  0  0  0  0  0
    0.1970   -5.2820    9.7440 O   0  0  0  0  0  0  0  0  0  0  0  0
   -5.2430   -3.2390    5.5980 C   0  0  0  0  0  0  0  0  0  0  0  0
   -6.0350   -2.1650    5.1870 C   0  0  0  0  0  0  0  0  0  0  0  0
   -8.1727    0.0933    7.4445 H   0  0  0  0  0  0  0  0  0  0  0  0
   -8.5846    1.2749    6.1557 H   0  0  0  0  0  0  0  0  0  0  0  0
   -9.3412   -0.3543    6.1557 H   0  0  0  0  0  0  0  0  0  0  0  0
   -6.8111   -0.8224    8.2301 H   0  0  0  0  0  0  0  0  0  0  0  0
   -5.3901   -2.7375    8.9789 H   0  0  0  0  0  0  0  0  0  0  0  0
   -2.0710   -3.6640    7.6960 H   0  0  0  0  0  0  0  0  0  0  0  0
   -2.2257   -5.8046    9.3260 H   0  0  0  0  0  0  0  0  0  0  0  0
   -2.0764   -4.7337   11.6056 H   0  0  0  0  0  0  0  0  0  0  0  0
   -2.5605   -3.1682   10.8698 H   0  0  0  0  0  0  0  0  0  0  0  0
   -3.7051   -4.5526   10.8698 H   0  0  0  0  0  0  0  0  0  0  0  0
   -4.7974   -3.9175    4.8557 H   0  0  0  0  0  0  0  0  0  0  0  0
   -6.2147   -2.0015    4.1142 H   0  0  0  0  0  0  0  0  0  0  0  0
  1  2  1  0
  2  3  1  0
  3  4  2  0
  4  5  1  0
  5  6  2  0
  6  7  1  0
  7  8  2  0
  7  9  2  0
  7 10  1  0
 10 11  1  0
 11 12  1  0
 11 13  1  0
 13 14  2  0
 13 15  1  0
  6 16  1  0
 16 17  2  0
 17  3  1  0
  1 18  1  0
  1 19  1  0
  1 20  1  0
  4 21  1  0
  5 22  1  0
 10 23  1  0
 11 24  1  6
 12 25  1  0
 12 26  1  0
 12 27  1  0
 16 28  1  0
 17 29  1  0
M  CHG  1  15  -1
M  END
>  <meeko>  (1) 
{"is_sidechain": [false], "free_energy": -6.956, "intermolecular_energy": -8.989, "internal_energy": -0.306}

$$$$
3ehy_ligand
     RDKit          3D

 29 29  0  0  0  0  0  0  0  0999 V2000
   -8.5810    0.8100    5.8670 C   0  0  0  0  0  0  0  0  0  0  0  0
   -7.6260    0.1770    5.0260 O   0  0  0  0  0  0  0  0  0  0  0  0
   -6.9170   -0.8590    5.5710 C   0  0  0  0  0  0  0  0  0  0  0  0
   -6.2700   -1.8730    4.8590 C   0  0  0  0  0  0  0  0  0  0  0  0
   -5.5780   -2.8790    5.5420 C   0  0  0  0  0  0  0  0  0  0  0  0
   -5.5310   -2.8630    6.9390 C   0  0  0  0  0  0  0  0  0  0  0  0
   -4.6600   -4.1630    7.7910 S   0  0  0  0  0  0  0  0  0  0  0  0
   -3.6570   -3.5070    8.6060 O   0  0  0  0  0  0  0  0  0  0  0  0
   -4.2980   -5.1690    6.8170 O   0  0  0  0  0  0  0  0  0  0  0  0
   -5.8630   -4.7370    8.8120 N   0  0  0  0  0  0  0  0  0  0  0  0
   -5.9790   -6.2340    8.9610 C   0  0  2  0  0  0  0  0  0  0  0  0
   -7.3250   -6.5440    9.5960 C   0  0  0  0  0  0  0  0  0  0  0  0
   -4.8610   -6.7150    9.9360 C   0  0  0  0  0  0  0  0  0  0  0  0
   -5.0410   -6.4540   11.1560 O   0  0  0  0  0  0  0  0  0  0  0  0
   -3.8900   -7.2960    9.3520 O   0  0  0  0  0  0  0  0  0  0  0  0
   -6.1790   -1.8600    7.6600 C   0  0  0  0  0  0  0  0  0  0  0  0
   -6.8690   -0.8610    6.9700 C   0  0  0  0  0  0  0  0  0  0  0  0
   -8.3159    0.6343    6.9200 H   0  0  0  0  0  0  0  0  0  0  0  0
   -8.5869    1.8915    5.6659 H   0  0  0  0  0  0  0  0  0  0  0  0
   -9.5793    0.3942    5.6659 H   0  0  0  0  0  0  0  0  0  0  0  0
   -6.3050   -1.8800    3.7596 H   0  0  0  0  0  0  0  0  0  0  0  0
   -5.0728   -3.6796    4.9818 H   0  0  0  0  0  0  0  0  0  0  0  0
   -5.6900   -4.3740    9.7710 H   0  0  0  0  0  0  0  0  0  0  0  0
   -5.8842   -6.7305    7.9840 H   0  0  0  0  0  0  0  0  0  0  0  0
   -7.2275   -6.5215   10.6914 H   0  0  0  0  0  0  0  0  0  0  0  0
   -8.0623   -5.7922    9.2780 H   0  0  0  0  0  0  0  0  0  0  0  0
   -7.6591   -7.5426    9.2780 H   0  0  0  0  0  0  0  0  0  0  0  0
   -6.1469   -1.8560    8.7595 H   0  0  0  0  0  0  0  0  0  0  0  0
   -7.3808   -0.0663    7.5325 H   0  0  0  0  0  0  0  0  0  0  0  0
  1  2  1  0
  2  3  1  0
  3  4  2  0
  4  5  1  0
  5  6  2  0
  6  7  1  0
  7  8  2  0
  7  9  2  0
  7 10  1  0
 10 11  1  0
 11 12  1  0
 11 13  1  0
 13 14  2  0
 13 15  1  0
  6 16  1  0
 16 17  2  0
 17  3  1  0
  1 18  1  0
  1 19  1  0
  1 20  1  0
  4 21  1  0
  5 22  1  0
 10 23  1  0
 11 24  1  6
 12 25  1  0
 12 26  1  0
 12 27  1  0
 16 28  1  0
 17 29  1  0
M  CHG  1  15  -1
M  END
>  <meeko>  (2) 
{"is_sidechain": [false], "free_energy": -6.936, "intermolecular_energy": -8.873, "internal_energy": -0.396}

$$$$
3ehy_ligand
     RDKit          3D

 29 29  0  0  0  0  0  0  0  0999 V2000
   -6.9270   -0.6990    5.4420 C   0  0  0  0  0  0  0  0  0  0  0  0
   -6.3970   -1.9510    5.0280 O   0  0  0  0  0  0  0  0  0  0  0  0
   -5.6990   -2.6640    5.9660 C   0  0  0  0  0  0  0  0  0  0  0  0
   -5.6520   -2.3890    7.3350 C   0  0  0  0  0  0  0  0  0  0  0  0
   -4.8960   -3.1990    8.1880 C   0  0  0  0  0  0  0  0  0  0  0  0
   -4.1920   -4.2890    7.6680 C   0  0  0  0  0  0  0  0  0  0  0  0
   -3.2210   -5.2990    8.7680 S   0  0  0  0  0  0  0  0  0  0  0  0
   -3.3180   -6.6530    8.2620 O   0  0  0  0  0  0  0  0  0  0  0  0
   -3.6030   -4.9730   10.1240 O   0  0  0  0  0  0  0  0  0  0  0  0
   -1.6750   -4.7330    8.4390 N   0  0  0  0  0  0  0  0  0  0  0  0
   -0.8710   -4.2140    9.6060 C   0  0  2  0  0  0  0  0  0  0  0  0
    0.3750   -3.5360    9.0590 C   0  0  0  0  0  0  0  0  0  0  0  0
   -0.4210   -5.4340   10.4670 C   0  0  0  0  0  0  0  0  0  0  0  0
   -0.8550   -5.4660   11.6510 O   0  0  0  0  0  0  0  0  0  0  0  0
    0.3560   -6.2340    9.8540 O   0  0  0  0  0  0  0  0  0  0  0  0
   -4.2270   -4.5690    6.3020 C   0  0  0  0  0  0  0  0  0  0  0  0
   -4.9840   -3.7540    5.4570 C   0  0  0  0  0  0  0  0  0  0  0  0
   -6.9460   -0.6542    6.5409 H   0  0  0  0  0  0  0  0  0  0  0  0
   -6.2955    0.1132    5.0528 H   0  0  0  0  0  0  0  0  0  0  0  0
   -7.9497   -0.5870    5.0528 H   0  0  0  0  0  0  0  0  0  0  0  0
   -6.2108   -1.5336    7.7426 H   0  0  0  0  0  0  0  0  0  0  0  0
   -4.8554   -2.9791    9.2650 H   0  0  0  0  0  0  0  0  0  0  0  0
   -1.1130   -5.5090    8.0350 H   0  0  0  0  0  0  0  0  0  0  0  0
   -1.4661   -3.5105   10.2068 H   0  0  0  0  0  0  0  0  0  0  0  0
    1.0033   -3.1941    9.8947 H   0  0  0  0  0  0  0  0  0  0  0  0
    0.9409   -4.2506    8.4433 H   0  0  0  0  0  0  0  0  0  0  0  0
    0.0823   -2.6727    8.4433 H   0  0  0  0  0  0  0  0  0  0  0  0
   -3.6647   -5.4222    5.8947 H   0  0  0  0  0  0  0  0  0  0  0  0
   -5.0185   -3.9715    4.3793 H   0  0  0  0  0  0  0  0  0  0  0  0
  1  2  1  0
  2  3  1  0
  3  4  2  0
  4  5  1  0
  5  6  2  0
  6  7  1  0
  7  8  2  0
  7  9  2  0
  7 10  1  0
 10 11  1  0
 11 12  1  0
 11 13  1  0
 13 14  2  0
 13 15  1  0
  6 16  1  0
 16 17  2  0
 17  3  1  0
  1 18  1  0
  1 19  1  0
  1 20  1  0
  4 21  1  0
  5 22  1  0
 10 23  1  0
 11 24  1  1
 12 25  1  0
 12 26  1  0
 12 27  1  0
 16 28  1  0
 17 29  1  0
M  CHG  1  15  -1
M  END
>  <meeko>  (3) 
{"is_sidechain": [false], "free_energy": -6.369, "intermolecular_energy": -8.304, "internal_energy": -0.232}

$$$$
3ehy_ligand
     RDKit          3D

 29 29  0  0  0  0  0  0  0  0999 V2000
   -7.0220   -0.5710    5.7430 C   0  0  0  0  0  0  0  0  0  0  0  0
   -6.5220   -1.7700    5.1650 O   0  0  0  0  0  0  0  0  0  0  0  0
   -5.8760   -2.6360    6.0060 C   0  0  0  0  0  0  0  0  0  0  0  0
   -5.3560   -3.8850    5.6550 C   0  0  0  0  0  0  0  0  0  0  0  0
   -4.7180   -4.6750    6.6160 C   0  0  0  0  0  0  0  0  0  0  0  0
   -4.5960   -4.2100    7.9280 C   0  0  0  0  0  0  0  0  0  0  0  0
   -3.7950   -5.2390    9.1420 S   0  0  0  0  0  0  0  0  0  0  0  0
   -2.9270   -4.3630    9.9020 O   0  0  0  0  0  0  0  0  0  0  0  0
   -3.2790   -6.4070    8.4630 O   0  0  0  0  0  0  0  0  0  0  0  0
   -5.0970   -5.6530   10.1180 N   0  0  0  0  0  0  0  0  0  0  0  0
   -5.8190   -6.9380    9.7930 C   0  0  2  0  0  0  0  0  0  0  0  0
   -7.0680   -6.5920    8.9980 C   0  0  0  0  0  0  0  0  0  0  0  0
   -6.2640   -7.5990   11.1330 C   0  0  0  0  0  0  0  0  0  0  0  0
   -5.6850   -7.1840   12.1740 O   0  0  0  0  0  0  0  0  0  0  0  0
   -7.1510   -8.5000   10.9880 O   0  0  0  0  0  0  0  0  0  0  0  0
   -5.1170   -2.9680    8.2920 C   0  0  0  0  0  0  0  0  0  0  0  0
   -5.7550   -2.1860    7.3260 C   0  0  0  0  0  0  0  0  0  0  0  0
   -6.9887   -0.6509    6.8396 H   0  0  0  0  0  0  0  0  0  0  0  0
   -6.4031    0.2784    5.4183 H   0  0  0  0  0  0  0  0  0  0  0  0
   -8.0610   -0.4129    5.4183 H   0  0  0  0  0  0  0  0  0  0  0  0
   -5.4489   -4.2472    4.6205 H   0  0  0  0  0  0  0  0  0  0  0  0
   -4.3132   -5.6599    6.3400 H   0  0  0  0  0  0  0  0  0  0  0  0
   -4.7610   -5.7620   11.0960 H   0  0  0  0  0  0  0  0  0  0  0  0
   -5.1682   -7.6161    9.2215 H   0  0  0  0  0  0  0  0  0  0  0  0
   -7.8918   -6.3638    9.6903 H   0  0  0  0  0  0  0  0  0  0  0  0
   -6.8681   -5.7154    8.3643 H   0  0  0  0  0  0  0  0  0  0  0  0
   -7.3477   -7.4465    8.3643 H   0  0  0  0  0  0  0  0  0  0  0  0
   -5.0265   -2.6086    9.3277 H   0  0  0  0  0  0  0  0  0  0  0  0
   -6.1671   -1.2053    7.6059 H   0  0  0  0  0  0  0  0  0  0  0  0
  1  2  1  0
  2  3  1  0
  3  4  2  0
  4  5  1  0
  5  6  2  0
  6  7  1  0
  7  8  2  0
  7  9  2  0
  7 10  1  0
 10 11  1  0
 11 12  1  0
 11 13  1  0
 13 14  2  0
 13 15  1  0
  6 16  1  0
 16 17  2  0
 17  3  1  0
  1 18  1  0
  1 19  1  0
  1 20  1  0
  4 21  1  0
  5 22  1  0
 10 23  1  0
 11 24  1  6
 12 25  1  0
 12 26  1  0
 12 27  1  0
 16 28  1  0
 17 29  1  0
M  CHG  1  15  -1
M  END
>  <meeko>  (4) 
{"is_sidechain": [false], "free_energy": -6.131, "intermolecular_energy": -7.726, "internal_energy": -0.504}

$$$$
3ehy_ligand
     RDKit          3D

 29 29  0  0  0  0  0  0  0  0999 V2000
   -7.4740   -0.2100    5.9880 C   0  0  0  0  0  0  0  0  0  0  0  0
   -6.8270   -1.2940    5.3350 O   0  0  0  0  0  0  0  0  0  0  0  0
   -6.0850   -2.1330    6.1240 C   0  0  0  0  0  0  0  0  0  0  0  0
   -6.0030   -2.0860    7.5180 C   0  0  0  0  0  0  0  0  0  0  0  0
   -5.2020   -3.0050    8.2050 C   0  0  0  0  0  0  0  0  0  0  0  0
   -4.4900   -3.9730    7.4930 C   0  0  0  0  0  0  0  0  0  0  0  0
   -3.4620   -5.1230    8.3850 S   0  0  0  0  0  0  0  0  0  0  0  0
   -2.3230   -4.3620    8.8560 O   0  0  0  0  0  0  0  0  0  0  0  0
   -3.2930   -6.3000    7.5620 O   0  0  0  0  0  0  0  0  0  0  0  0
   -4.4400   -5.4650    9.7070 N   0  0  0  0  0  0  0  0  0  0  0  0
   -3.7610   -6.0070   10.9410 C   0  0  2  0  0  0  0  0  0  0  0  0
   -2.9920   -7.2580   10.5480 C   0  0  0  0  0  0  0  0  0  0  0  0
   -4.8640   -6.4160   11.9640 C   0  0  0  0  0  0  0  0  0  0  0  0
   -5.9800   -6.7420   11.4740 O   0  0  0  0  0  0  0  0  0  0  0  0
   -4.4880   -6.3420   13.1780 O   0  0  0  0  0  0  0  0  0  0  0  0
   -4.5590   -4.0250    6.1010 C   0  0  0  0  0  0  0  0  0  0  0  0
   -5.3590   -3.1020    5.4230 C   0  0  0  0  0  0  0  0  0  0  0  0
   -7.3967   -0.3395    7.0776 H   0  0  0  0  0  0  0  0  0  0  0  0
   -6.9918    0.7345    5.6959 H   0  0  0  0  0  0  0  0  0  0  0  0
   -8.5342   -0.1861    5.6959 H   0  0  0  0  0  0  0  0  0  0  0  0
   -6.5689   -1.3256    8.0762 H   0  0  0  0  0  0  0  0  0  0  0  0
   -5.1333   -2.9652    9.3021 H   0  0  0  0  0  0  0  0  0  0  0  0
   -4.9110   -4.5890   10.0100 H   0  0  0  0  0  0  0  0  0  0  0  0
   -3.0862   -5.2550   11.3760 H   0  0  0  0  0  0  0  0  0  0  0  0
   -2.6661   -7.7882   11.4550 H   0  0  0  0  0  0  0  0  0  0  0  0
   -3.6419   -7.9159    9.9523 H   0  0  0  0  0  0  0  0  0  0  0  0
   -2.1116   -6.9752    9.9523 H   0  0  0  0  0  0  0  0  0  0  0  0
   -3.9902   -4.7838    5.5436 H   0  0  0  0  0  0  0  0  0  0  0  0
   -5.4188   -3.1375    4.3252 H   0  0  0  0  0  0  0  0  0  0  0  0
  1  2  1  0
  2  3  1  0
  3  4  2  0
  4  5  1  0
  5  6  2  0
  6  7  1  0
  7  8  2  0
  7  9  2  0
  7 10  1  0
 10 11  1  0
 11 12  1  0
 11 13  1  0
 13 14  2  0
 13 15  1  0
  6 16  1  0
 16 17  2  0
 17  3  1  0
  1 18  1  0
  1 19  1  0
  1 20  1  0
  4 21  1  0
  5 22  1  0
 10 23  1  0
 11 24  1  1
 12 25  1  0
 12 26  1  0
 12 27  1  0
 16 28  1  0
 17 29  1  0
M  CHG  1  15  -1
M  END
>  <meeko>  (5) 
{"is_sidechain": [false], "free_energy": -6.089, "intermolecular_energy": -8.075, "internal_energy": -0.1}

$$$$
3ehy_ligand
     RDKit          3D

 29 29  0  0  0  0  0  0  0  0999 V2000
   -8.5040   -0.1660    4.4810 C   0  0  0  0  0  0  0  0  0  0  0  0
   -7.4240    0.1260    5.3570 O   0  0  0  0  0  0  0  0  0  0  0  0
   -6.7410   -0.9440    5.8710 C   0  0  0  0  0  0  0  0  0  0  0  0
   -6.1400   -1.9650    5.1280 C   0  0  0  0  0  0  0  0  0  0  0  0
   -5.4720   -3.0060    5.7800 C   0  0  0  0  0  0  0  0  0  0  0  0
   -5.4010   -3.0200    7.1750 C   0  0  0  0  0  0  0  0  0  0  0  0
   -4.5600   -4.3650    7.9870 S   0  0  0  0  0  0  0  0  0  0  0  0
   -3.4860   -4.7610    7.0990 O   0  0  0  0  0  0  0  0  0  0  0  0
   -5.5590   -5.3120    8.4290 O   0  0  0  0  0  0  0  0  0  0  0  0
   -3.8810   -3.5690    9.3000 N   0  0  0  0  0  0  0  0  0  0  0  0
   -2.6780   -4.2130    9.9450 C   0  0  2  0  0  0  0  0  0  0  0  0
   -1.5510   -4.2410    8.9260 C   0  0  0  0  0  0  0  0  0  0  0  0
   -3.0470   -5.6860   10.3010 C   0  0  0  0  0  0  0  0  0  0  0  0
   -2.4550   -6.5800    9.6370 O   0  0  0  0  0  0  0  0  0  0  0  0
   -3.9270   -5.7860   11.2150 O   0  0  0  0  0  0  0  0  0  0  0  0
   -6.0030   -2.0100    7.9260 C   0  0  0  0  0  0  0  0  0  0  0  0
   -6.6700   -0.9750    7.2680 C   0  0  0  0  0  0  0  0  0  0  0  0
   -9.3999   -0.4082    5.0715 H   0  0  0  0  0  0  0  0  0  0  0  0
   -8.7085    0.7091    3.8467 H   0  0  0  0  0  0  0  0  0  0  0  0
   -8.2397   -1.0249    3.8467 H   0  0  0  0  0  0  0  0  0  0  0  0
   -6.1929   -1.9491    4.0294 H   0  0  0  0  0  0  0  0  0  0  0  0
   -5.0036   -3.8119    5.1959 H   0  0  0  0  0  0  0  0  0  0  0  0
   -3.5620   -2.6280    8.9940 H   0  0  0  0  0  0  0  0  0  0  0  0
   -2.3757   -3.6580   10.8453 H   0  0  0  0  0  0  0  0  0  0  0  0
   -0.5839   -4.2650    9.4495 H   0  0  0  0  0  0  0  0  0  0  0  0
   -1.6490   -5.1370    8.2954 H   0  0  0  0  0  0  0  0  0  0  0  0
   -1.6044   -3.3413    8.2954 H   0  0  0  0  0  0  0  0  0  0  0  0
   -5.9526   -2.0290    9.0247 H   0  0  0  0  0  0  0  0  0  0  0  0
   -7.1451   -0.1748    7.8545 H   0  0  0  0  0  0  0  0  0  0  0  0
  1  2  1  0
  2  3  1  0
  3  4  2  0
  4  5  1  0
  5  6  2  0
  6  7  1  0
  7  8  2  0
  7  9  2  0
  7 10  1  0
 10 11  1  0
 11 12  1  0
 11 13  1  0
 13 14  2  0
 13 15  1  0
  6 16  1  0
 16 17  2  0
 17  3  1  0
  1 18  1  0
  1 19  1  0
  1 20  1  0
  4 21  1  0
  5 22  1  0
 10 23  1  0
 11 24  1  1
 12 25  1  0
 12 26  1  0
 12 27  1  0
 16 28  1  0
 17 29  1  0
M  CHG  1  15  -1
M  END
>  <meeko>  (6) 
{"is_sidechain": [false], "free_energy": -5.963, "intermolecular_energy": -8.517, "internal_energy": 0.504}

$$$$
3ehy_ligand
     RDKit          3D

 29 29  0  0  0  0  0  0  0  0999 V2000
    2.7710   -3.1470    9.7030 C   0  0  0  0  0  0  0  0  0  0  0  0
    2.2320   -4.4260   10.0090 O   0  0  0  0  0  0  0  0  0  0  0  0
    0.8830   -4.5840    9.8350 C   0  0  0  0  0  0  0  0  0  0  0  0
    0.0010   -3.6120    9.3540 C   0  0  0  0  0  0  0  0  0  0  0  0
   -1.3610   -3.9030    9.2260 C   0  0  0  0  0  0  0  0  0  0  0  0
   -1.8360   -5.1700    9.5760 C   0  0  0  0  0  0  0  0  0  0  0  0
   -3.5770   -5.5150    9.4230 S   0  0  0  0  0  0  0  0  0  0  0  0
   -4.0900   -5.6030   10.7750 O   0  0  0  0  0  0  0  0  0  0  0  0
   -3.7340   -6.6050    8.4860 O   0  0  0  0  0  0  0  0  0  0  0  0
   -4.1300   -4.0780    8.7520 N   0  0  0  0  0  0  0  0  0  0  0  0
   -4.9750   -4.1820    7.5070 C   0  0  2  0  0  0  0  0  0  0  0  0
   -4.0730   -4.5860    6.3530 C   0  0  0  0  0  0  0  0  0  0  0  0
   -5.5580   -2.7700    7.1950 C   0  0  0  0  0  0  0  0  0  0  0  0
   -5.9460   -2.0990    8.1900 O   0  0  0  0  0  0  0  0  0  0  0  0
   -5.5840   -2.4900    5.9530 O   0  0  0  0  0  0  0  0  0  0  0  0
   -0.9660   -6.1450   10.0640 C   0  0  0  0  0  0  0  0  0  0  0  0
    0.3920   -5.8450   10.1900 C   0  0  0  0  0  0  0  0  0  0  0  0
    2.9968   -2.6113   10.6368 H   0  0  0  0  0  0  0  0  0  0  0  0
    3.6944   -3.2687    9.1177 H   0  0  0  0  0  0  0  0  0  0  0  0
    2.0390   -2.5711    9.1177 H   0  0  0  0  0  0  0  0  0  0  0  0
    0.3786   -2.6170    9.0758 H   0  0  0  0  0  0  0  0  0  0  0  0
   -2.0560   -3.1372    8.8511 H   0  0  0  0  0  0  0  0  0  0  0  0
   -4.7230   -3.5880    9.4520 H   0  0  0  0  0  0  0  0  0  0  0  0
   -5.7826   -4.9158    7.6459 H   0  0  0  0  0  0  0  0  0  0  0  0
   -3.1365   -5.0055    6.7491 H   0  0  0  0  0  0  0  0  0  0  0  0
   -4.5819   -5.3422    5.7372 H   0  0  0  0  0  0  0  0  0  0  0  0
   -3.8476   -3.7028    5.7372 H   0  0  0  0  0  0  0  0  0  0  0  0
   -1.3451   -7.1383   10.3462 H   0  0  0  0  0  0  0  0  0  0  0  0
    1.0840   -6.6094   10.5730 H   0  0  0  0  0  0  0  0  0  0  0  0
  1  2  1  0
  2  3  1  0
  3  4  2  0
  4  5  1  0
  5  6  2  0
  6  7  1  0
  7  8  2  0
  7  9  2  0
  7 10  1  0
 10 11  1  0
 11 12  1  0
 11 13  1  0
 13 14  2  0
 13 15  1  0
  6 16  1  0
 16 17  2  0
 17  3  1  0
  1 18  1  0
  1 19  1  0
  1 20  1  0
  4 21  1  0
  5 22  1  0
 10 23  1  0
 11 24  1  1
 12 25  1  0
 12 26  1  0
 12 27  1  0
 16 28  1  0
 17 29  1  0
M  CHG  1  15  -1
M  END
>  <meeko>  (7) 
{"is_sidechain": [false], "free_energy": -5.57, "intermolecular_energy": -7.465, "internal_energy": -0.04}

$$$$
3ehy_ligand
     RDKit          3D

 29 29  0  0  0  0  0  0  0  0999 V2000
   -8.3570   -8.6640   10.0680 C   0  0  0  0  0  0  0  0  0  0  0  0
   -7.0870   -8.4630   10.6740 O   0  0  0  0  0  0  0  0  0  0  0  0
   -6.1940   -7.6860    9.9860 C   0  0  0  0  0  0  0  0  0  0  0  0
   -4.8140   -7.8960    9.9100 C   0  0  0  0  0  0  0  0  0  0  0  0
   -4.0110   -7.0210    9.1710 C   0  0  0  0  0  0  0  0  0  0  0  0
   -4.5930   -5.9400    8.5030 C   0  0  0  0  0  0  0  0  0  0  0  0
   -3.5500   -4.8280    7.5820 S   0  0  0  0  0  0  0  0  0  0  0  0
   -4.0320   -3.4930    7.8720 O   0  0  0  0  0  0  0  0  0  0  0  0
   -3.4670   -5.3190    6.2240 O   0  0  0  0  0  0  0  0  0  0  0  0
   -2.0850   -5.0340    8.3740 N   0  0  0  0  0  0  0  0  0  0  0  0
   -1.6960   -3.9810    9.3830 C   0  0  2  0  0  0  0  0  0  0  0  0
   -0.2540   -3.5810    9.1180 C   0  0  0  0  0  0  0  0  0  0  0  0
   -1.7690   -4.6180   10.8040 C   0  0  0  0  0  0  0  0  0  0  0  0
   -0.8240   -5.3940   11.1130 O   0  0  0  0  0  0  0  0  0  0  0  0
   -2.8040   -4.2780   11.4640 O   0  0  0  0  0  0  0  0  0  0  0  0
   -5.9680   -5.7170    8.5780 C   0  0  0  0  0  0  0  0  0  0  0  0
   -6.7620   -6.5940    9.3200 C   0  0  0  0  0  0  0  0  0  0  0  0
   -9.1213   -8.7850   10.8498 H   0  0  0  0  0  0  0  0  0  0  0  0
   -8.6066   -7.7942    9.4426 H   0  0  0  0  0  0  0  0  0  0  0  0
   -8.3259   -9.5684    9.4426 H   0  0  0  0  0  0  0  0  0  0  0  0
   -4.3589   -8.7506   10.4321 H   0  0  0  0  0  0  0  0  0  0  0  0
   -2.9244   -7.1832    9.1157 H   0  0  0  0  0  0  0  0  0  0  0  0
   -2.1130   -5.9300    8.9030 H   0  0  0  0  0  0  0  0  0  0  0  0
   -2.3626   -3.1088    9.3120 H   0  0  0  0  0  0  0  0  0  0  0  0
    0.2682   -3.4362   10.0753 H   0  0  0  0  0  0  0  0  0  0  0  0
    0.2469   -4.3741    8.5435 H   0  0  0  0  0  0  0  0  0  0  0  0
   -0.2333   -2.6432    8.5435 H   0  0  0  0  0  0  0  0  0  0  0  0
   -6.4217   -4.8601    8.0586 H   0  0  0  0  0  0  0  0  0  0  0  0
   -7.8471   -6.4244    9.3818 H   0  0  0  0  0  0  0  0  0  0  0  0
  1  2  1  0
  2  3  1  0
  3  4  2  0
  4  5  1  0
  5  6  2  0
  6  7  1  0
  7  8  2  0
  7  9  2  0
  7 10  1  0
 10 11  1  0
 11 12  1  0
 11 13  1  0
 13 14  2  0
 13 15  1  0
  6 16  1  0
 16 17  2  0
 17  3  1  0
  1 18  1  0
  1 19  1  0
  1 20  1  0
  4 21  1  0
  5 22  1  0
 10 23  1  0
 11 24  1  1
 12 25  1  0
 12 26  1  0
 12 27  1  0
 16 28  1  0
 17 29  1  0
M  CHG  1  15  -1
M  END
>  <meeko>  (8) 
{"is_sidechain": [false], "free_energy": -5.559, "intermolecular_energy": -6.989, "internal_energy": -0.501}

$$$$
