4ddh_ligand
     RDKit          3D

 24 25  0  0  0  0  0  0  0  0999 V2000
   -4.1380   23.6170    7.5330 C   0  0  0  0  0  0  0  0  0  0  0  0
   -4.8440   23.3700    8.7420 O   0  0  0  0  0  0  0  0  0  0  0  0
   -5.2530   22.0780    8.9590 C   0  0  0  0  0  0  0  0  0  0  0  0
   -5.2730   21.2790    7.8080 C   0  0  0  0  0  0  0  0  0  0  0  0
   -5.6660   19.9330    7.8540 C   0  0  0  0  0  0  0  0  0  0  0  0
   -6.0410   19.3830    9.0910 C   0  0  0  0  0  0  0  0  0  0  0  0
   -6.4790   18.1030    9.5460 C   0  0  0  0  0  0  0  0  0  0  0  0
   -6.6420   16.8570    8.7430 C   0  0  0  0  0  0  0  0  0  0  0  0
   -5.3410   16.0570    8.6740 C   0  0  0  0  0  0  0  0  0  0  0  0
   -4.4680   16.5070    7.8770 O   0  0  0  0  0  0  0  0  0  0  0  0
   -5.3120   15.0100    9.3850 O   0  0  0  0  0  0  0  0  0  0  0  0
   -6.7140   18.2540   10.8990 C   0  0  0  0  0  0  0  0  0  0  0  0
   -6.4200   19.5140   11.3120 O   0  0  0  0  0  0  0  0  0  0  0  0
   -6.0160   20.2040   10.2100 C   0  0  0  0  0  0  0  0  0  0  0  0
   -5.6300   21.5450   10.1970 C   0  0  0  0  0  0  0  0  0  0  0  0
   -3.1234   23.9720    7.7668 H   0  0  0  0  0  0  0  0  0  0  0  0
   -4.0756   22.6873    6.9484 H   0  0  0  0  0  0  0  0  0  0  0  0
   -4.6687   24.3828    6.9484 H   0  0  0  0  0  0  0  0  0  0  0  0
   -4.9732   21.7178    6.8449 H   0  0  0  0  0  0  0  0  0  0  0  0
   -5.6802   19.3209    6.9402 H   0  0  0  0  0  0  0  0  0  0  0  0
   -7.4204   16.2331    9.2064 H   0  0  0  0  0  0  0  0  0  0  0  0
   -6.9248   17.1424    7.7190 H   0  0  0  0  0  0  0  0  0  0  0  0
   -7.0906   17.4568   11.5568 H   0  0  0  0  0  0  0  0  0  0  0  0
   -5.6224   22.1527   11.1139 H   0  0  0  0  0  0  0  0  0  0  0  0
  1  2  1  0
  2  3  1  0
  3  4  2  0
  4  5  1  0
  5  6  2  0
  6  7  1  0
  7  8  1  0
  8  9  1  0
  9 10  2  0
  9 11  1  0
  7 12  2  0
 12 13  1  0
 13 14  1  0
 14 15  2  0
 15  3  1  0
 14  6  1  0
  1 16  1  0
  1 17  1  0
  1 18  1  0
  4 19  1  0
  5 20  1  0
  8 21  1  0
  8 22  1  0
 12 23  1  0
 15 24  1  0
M  CHG  1  11  -1
M  END
>  <meeko>  (1) 
{"is_sidechain": [false], "free_energy": -5.915, "intermolecular_energy": -6.953, "internal_energy": -0.275}

$$$$
4ddh_ligand
     RDKit          3D

 24 25  0  0  0  0  0  0  0  0999 V2000
   -3.9250   23.2790    6.4970 C   0  0  0  0  0  0  0  0  0  0  0  0
   -4.5820   23.3280    7.7570 O   0  0  0  0  0  0  0  0  0  0  0  0
   -4.9710   22.1260    8.2920 C   0  0  0  0  0  0  0  0  0  0  0  0
   -4.9640   22.0880    9.6930 C   0  0  0  0  0  0  0  0  0  0  0  0
   -5.3360   20.9350   10.3990 C   0  0  0  0  0  0  0  0  0  0  0  0
   -5.7290   19.7980    9.6720 C   0  0  0  0  0  0  0  0  0  0  0  0
   -6.1700   18.4810   10.0020 C   0  0  0  0  0  0  0  0  0  0  0  0
   -6.3880   17.9070   11.3610 C   0  0  0  0  0  0  0  0  0  0  0  0
   -7.6340   18.4910   12.0270 C   0  0  0  0  0  0  0  0  0  0  0  0
   -7.4260   19.4560   12.8180 O   0  0  0  0  0  0  0  0  0  0  0  0
   -8.7220   17.9060   11.7450 O   0  0  0  0  0  0  0  0  0  0  0  0
   -6.3640   17.8450    8.7920 C   0  0  0  0  0  0  0  0  0  0  0  0
   -6.1110   18.6790    7.7500 O   0  0  0  0  0  0  0  0  0  0  0  0
   -5.7180   19.8680    8.2860 C   0  0  0  0  0  0  0  0  0  0  0  0
   -5.3540   20.9990    7.5550 C   0  0  0  0  0  0  0  0  0  0  0  0
   -2.8391   23.1980    6.6526 H   0  0  0  0  0  0  0  0  0  0  0  0
   -4.2806   22.4049    5.9318 H   0  0  0  0  0  0  0  0  0  0  0  0
   -4.1470   24.1962    5.9318 H   0  0  0  0  0  0  0  0  0  0  0  0
   -4.6592   22.9847   10.2525 H   0  0  0  0  0  0  0  0  0  0  0  0
   -5.3206   20.9206   11.4988 H   0  0  0  0  0  0  0  0  0  0  0  0
   -6.5083   16.8172   11.2728 H   0  0  0  0  0  0  0  0  0  0  0  0
   -5.5164   18.1577   11.9835 H   0  0  0  0  0  0  0  0  0  0  0  0
   -6.6825   16.7975    8.6854 H   0  0  0  0  0  0  0  0  0  0  0  0
   -5.3672   21.0050    6.4551 H   0  0  0  0  0  0  0  0  0  0  0  0
  1  2  1  0
  2  3  1  0
  3  4  2  0
  4  5  1  0
  5  6  2  0
  6  7  1  0
  7  8  1  0
  8  9  1  0
  9 10  2  0
  9 11  1  0
  7 12  2  0
 12 13  1  0
 13 14  1  0
 14 15  2  0
 15  3  1  0
 14  6  1  0
  1 16  1  0
  1 17  1  0
  1 18  1  0
  4 19  1  0
  5 20  1  0
  8 21  1  0
  8 22  1  0
 12 23  1  0
 15 24  1  0
M  CHG  1  11  -1
M  END
>  <meeko>  (2) 
{"is_sidechain": [false], "free_energy": -5.91, "intermolecular_energy": -6.962, "internal_energy": -0.26}

$$$$
4ddh_ligand
     RDKit          3D

 24 25  0  0  0  0  0  0  0  0999 V2000
   -8.6410   16.4280   11.7470 C   0  0  0  0  0  0  0  0  0  0  0  0
   -7.3030   16.3850   11.2670 O   0  0  0  0  0  0  0  0  0  0  0  0
   -6.8360   17.5210   10.6550 C   0  0  0  0  0  0  0  0  0  0  0  0
   -6.7610   18.6390   11.4960 C   0  0  0  0  0  0  0  0  0  0  0  0
   -6.3030   19.8800   11.0300 C   0  0  0  0  0  0  0  0  0  0  0  0
   -5.9080   19.9910    9.6860 C   0  0  0  0  0  0  0  0  0  0  0  0
   -5.3960   21.0340    8.8580 C   0  0  0  0  0  0  0  0  0  0  0  0
   -5.0770   22.4370    9.2510 C   0  0  0  0  0  0  0  0  0  0  0  0
   -3.9990   23.0430    8.3520 C   0  0  0  0  0  0  0  0  0  0  0  0
   -2.8170   22.6580    8.5860 O   0  0  0  0  0  0  0  0  0  0  0  0
   -4.4130   23.8970    7.5130 O   0  0  0  0  0  0  0  0  0  0  0  0
   -5.2460   20.4690    7.6060 C   0  0  0  0  0  0  0  0  0  0  0  0
   -5.5910   19.1560    7.6130 O   0  0  0  0  0  0  0  0  0  0  0  0
   -6.0000   18.8650    8.8800 C   0  0  0  0  0  0  0  0  0  0  0  0
   -6.4510   17.6170    9.3130 C   0  0  0  0  0  0  0  0  0  0  0  0
   -8.6361   16.4278   12.8470 H   0  0  0  0  0  0  0  0  0  0  0  0
   -9.1321   17.3424   11.3826 H   0  0  0  0  0  0  0  0  0  0  0  0
   -9.1898   15.5470   11.3826 H   0  0  0  0  0  0  0  0  0  0  0  0
   -7.0689   18.5411   12.5475 H   0  0  0  0  0  0  0  0  0  0  0  0
   -6.2540   20.7488   11.7029 H   0  0  0  0  0  0  0  0  0  0  0  0
   -5.9900   23.0457    9.1733 H   0  0  0  0  0  0  0  0  0  0  0  0
   -4.6977   22.4269   10.2835 H   0  0  0  0  0  0  0  0  0  0  0  0
   -4.8925   21.0131    6.7178 H   0  0  0  0  0  0  0  0  0  0  0  0
   -6.5012   16.7530    8.6340 H   0  0  0  0  0  0  0  0  0  0  0  0
  1  2  1  0
  2  3  1  0
  3  4  2  0
  4  5  1  0
  5  6  2  0
  6  7  1  0
  7  8  1  0
  8  9  1  0
  9 10  2  0
  9 11  1  0
  7 12  2  0
 12 13  1  0
 13 14  1  0
 14 15  2  0
 15  3  1  0
 14  6  1  0
  1 16  1  0
  1 17  1  0
  1 18  1  0
  4 19  1  0
  5 20  1  0
  8 21  1  0
  8 22  1  0
 12 23  1  0
 15 24  1  0
M  CHG  1  11  -1
M  END
>  <meeko>  (3) 
{"is_sidechain": [false], "free_energy": -5.761, "intermolecular_energy": -6.88, "internal_energy": -0.166}

$$$$
4ddh_ligand
     RDKit          3D

 24 25  0  0  0  0  0  0  0  0999 V2000
   -8.6720   16.0060   10.8670 C   0  0  0  0  0  0  0  0  0  0  0  0
   -7.2790   16.2540   11.0120 O   0  0  0  0  0  0  0  0  0  0  0  0
   -6.8170   17.4500   10.5230 C   0  0  0  0  0  0  0  0  0  0  0  0
   -6.3640   17.3940    9.1980 C   0  0  0  0  0  0  0  0  0  0  0  0
   -5.8600   18.5290    8.5450 C   0  0  0  0  0  0  0  0  0  0  0  0
   -5.8190   19.7460    9.2460 C   0  0  0  0  0  0  0  0  0  0  0  0
   -5.4020   21.0780    8.9490 C   0  0  0  0  0  0  0  0  0  0  0  0
   -4.8700   21.6010    7.6570 C   0  0  0  0  0  0  0  0  0  0  0  0
   -3.9510   22.8030    7.8710 C   0  0  0  0  0  0  0  0  0  0  0  0
   -2.8120   22.5370    8.3530 O   0  0  0  0  0  0  0  0  0  0  0  0
   -4.4580   23.9280    7.5860 O   0  0  0  0  0  0  0  0  0  0  0  0
   -5.6040   21.7950   10.1120 C   0  0  0  0  0  0  0  0  0  0  0  0
   -6.1430   21.0140   11.0840 O   0  0  0  0  0  0  0  0  0  0  0  0
   -6.2690   19.7640   10.5590 C   0  0  0  0  0  0  0  0  0  0  0  0
   -6.7760   18.6540   11.2360 C   0  0  0  0  0  0  0  0  0  0  0  0
   -9.1352   15.9235   11.8613 H   0  0  0  0  0  0  0  0  0  0  0  0
   -9.1365   16.8356   10.3138 H   0  0  0  0  0  0  0  0  0  0  0  0
   -8.8216   15.0671   10.3138 H   0  0  0  0  0  0  0  0  0  0  0  0
   -6.4045   16.4372    8.6569 H   0  0  0  0  0  0  0  0  0  0  0  0
   -5.5044   18.4673    7.5059 H   0  0  0  0  0  0  0  0  0  0  0  0
   -4.3027   20.8030    7.1556 H   0  0  0  0  0  0  0  0  0  0  0  0
   -5.7216   21.9251    7.0408 H   0  0  0  0  0  0  0  0  0  0  0  0
   -5.3600   22.8605   10.2352 H   0  0  0  0  0  0  0  0  0  0  0  0
   -7.1256   18.7217   12.2768 H   0  0  0  0  0  0  0  0  0  0  0  0
  1  2  1  0
  2  3  1  0
  3  4  2  0
  4  5  1  0
  5  6  2  0
  6  7  1  0
  7  8  1  0
  8  9  1  0
  9 10  2  0
  9 11  1  0
  7 12  2  0
 12 13  1  0
 13 14  1  0
 14 15  2  0
 15  3  1  0
 14  6  1  0
  1 16  1  0
  1 17  1  0
  1 18  1  0
  4 19  1  0
  5 20  1  0
  8 21  1  0
  8 22  1  0
 12 23  1  0
 15 24  1  0
M  CHG  1  11  -1
M  END
>  <meeko>  (4) 
{"is_sidechain": [false], "free_energy": -5.723, "intermolecular_energy": -6.858, "internal_energy": -0.144}

$$$$
4ddh_ligand
     RDKit          3D

 24 25  0  0  0  0  0  0  0  0999 V2000
   -4.6970   23.5930    9.8110 C   0  0  0  0  0  0  0  0  0  0  0  0
   -4.9810   22.8070    8.6610 O   0  0  0  0  0  0  0  0  0  0  0  0
   -5.3270   21.4970    8.8850 C   0  0  0  0  0  0  0  0  0  0  0  0
   -5.5250   21.1770   10.2350 C   0  0  0  0  0  0  0  0  0  0  0  0
   -5.8840   19.8820   10.6370 C   0  0  0  0  0  0  0  0  0  0  0  0
   -6.0510   18.8930    9.6530 C   0  0  0  0  0  0  0  0  0  0  0  0
   -6.4060   17.5100    9.6490 C   0  0  0  0  0  0  0  0  0  0  0  0
   -6.7670   16.6580   10.8180 C   0  0  0  0  0  0  0  0  0  0  0  0
   -8.2630   16.7290   11.1260 C   0  0  0  0  0  0  0  0  0  0  0  0
   -8.9610   15.7870   10.6500 O   0  0  0  0  0  0  0  0  0  0  0  0
   -8.6330   17.7490   11.7780 O   0  0  0  0  0  0  0  0  0  0  0  0
   -6.3540   17.1220    8.3240 C   0  0  0  0  0  0  0  0  0  0  0  0
   -6.0310   18.1650    7.5170 O   0  0  0  0  0  0  0  0  0  0  0  0
   -5.8400   19.2440    8.3270 C   0  0  0  0  0  0  0  0  0  0  0  0
   -5.4830   20.5210    7.8940 C   0  0  0  0  0  0  0  0  0  0  0  0
   -4.9088   23.0067   10.7173 H   0  0  0  0  0  0  0  0  0  0  0  0
   -3.6365   23.8850    9.8028 H   0  0  0  0  0  0  0  0  0  0  0  0
   -5.3259   24.4955    9.8028 H   0  0  0  0  0  0  0  0  0  0  0  0
   -5.3959   21.9596   10.9971 H   0  0  0  0  0  0  0  0  0  0  0  0
   -6.0318   19.6455   11.7011 H   0  0  0  0  0  0  0  0  0  0  0  0
   -6.4974   15.6149   10.5962 H   0  0  0  0  0  0  0  0  0  0  0  0
   -6.2172   17.0279   11.6960 H   0  0  0  0  0  0  0  0  0  0  0  0
   -6.5492   16.0995    7.9686 H   0  0  0  0  0  0  0  0  0  0  0  0
   -5.3319   20.7492    6.8286 H   0  0  0  0  0  0  0  0  0  0  0  0
  1  2  1  0
  2  3  1  0
  3  4  2  0
  4  5  1  0
  5  6  2  0
  6  7  1  0
  7  8  1  0
  8  9  1  0
  9 10  2  0
  9 11  1  0
  7 12  2  0
 12 13  1  0
 13 14  1  0
 14 15  2  0
 15  3  1  0
 14  6  1  0
  1 16  1  0
  1 17  1  0
  1 18  1  0
  4 19  1  0
  5 20  1  0
  8 21  1  0
  8 22  1  0
 12 23  1  0
 15 24  1  0
M  CHG  1  11  -1
M  END
>  <meeko>  (5) 
{"is_sidechain": [false], "free_energy": -5.687, "intermolecular_energy": -6.675, "internal_energy": -0.285}

$$$$
4ddh_ligand
     RDKit          3D

 24 25  0  0  0  0  0  0  0  0999 V2000
   -6.5010   14.1710    7.4580 C   0  0  0  0  0  0  0  0  0  0  0  0
   -5.9030   14.8430    8.5590 O   0  0  0  0  0  0  0  0  0  0  0  0
   -5.8250   16.2100    8.4740 C   0  0  0  0  0  0  0  0  0  0  0  0
   -5.0430   16.6770    7.4100 C   0  0  0  0  0  0  0  0  0  0  0  0
   -4.8600   18.0490    7.1790 C   0  0  0  0  0  0  0  0  0  0  0  0
   -5.4870   18.9660    8.0390 C   0  0  0  0  0  0  0  0  0  0  0  0
   -5.5550   20.3880    8.1360 C   0  0  0  0  0  0  0  0  0  0  0  0
   -4.9350   21.3950    7.2260 C   0  0  0  0  0  0  0  0  0  0  0  0
   -4.1870   22.4760    8.0080 C   0  0  0  0  0  0  0  0  0  0  0  0
   -3.1600   22.0810    8.6320 O   0  0  0  0  0  0  0  0  0  0  0  0
   -4.7140   23.6270    7.9770 O   0  0  0  0  0  0  0  0  0  0  0  0
   -6.3290   20.6440    9.2510 C   0  0  0  0  0  0  0  0  0  0  0  0
   -6.7680   19.4920    9.8210 O   0  0  0  0  0  0  0  0  0  0  0  0
   -6.2500   18.4690    9.0860 C   0  0  0  0  0  0  0  0  0  0  0  0
   -6.4510   17.1120    9.3430 C   0  0  0  0  0  0  0  0  0  0  0  0
   -7.1891   13.3977    7.8302 H   0  0  0  0  0  0  0  0  0  0  0  0
   -7.0592   14.8947    6.8460 H   0  0  0  0  0  0  0  0  0  0  0  0
   -5.7173   13.7006    6.8460 H   0  0  0  0  0  0  0  0  0  0  0  0
   -4.5606   15.9508    6.7392 H   0  0  0  0  0  0  0  0  0  0  0  0
   -4.2384   18.3993    6.3418 H   0  0  0  0  0  0  0  0  0  0  0  0
   -4.2268   20.8837    6.5574 H   0  0  0  0  0  0  0  0  0  0  0  0
   -5.7380   21.8797    6.6514 H   0  0  0  0  0  0  0  0  0  0  0  0
   -6.5601   21.6510    9.6286 H   0  0  0  0  0  0  0  0  0  0  0  0
   -7.0696   16.7686   10.1852 H   0  0  0  0  0  0  0  0  0  0  0  0
  1  2  1  0
  2  3  1  0
  3  4  2  0
  4  5  1  0
  5  6  2  0
  6  7  1  0
  7  8  1  0
  8  9  1  0
  9 10  2  0
  9 11  1  0
  7 12  2  0
 12 13  1  0
 13 14  1  0
 14 15  2  0
 15  3  1  0
 14  6  1  0
  1 16  1  0
  1 17  1  0
  1 18  1  0
  4 19  1  0
  5 20  1  0
  8 21  1  0
  8 22  1  0
 12 23  1  0
 15 24  1  0
M  CHG  1  11  -1
M  END
>  <meeko>  (6) 
{"is_sidechain": [false], "free_energy": -5.567, "intermolecular_energy": -6.599, "internal_energy": -0.22}

$$$$
4ddh_ligand
     RDKit          3D

 24 25  0  0  0  0  0  0  0  0999 V2000
   -6.0870   17.8330    7.3990 C   0  0  0  0  0  0  0  0  0  0  0  0
   -5.4180   17.0330    8.3660 O   0  0  0  0  0  0  0  0  0  0  0  0
   -5.6550   15.6820    8.3130 C   0  0  0  0  0  0  0  0  0  0  0  0
   -5.7800   15.1700    7.0150 C   0  0  0  0  0  0  0  0  0  0  0  0
   -6.0230   13.8080    6.7830 C   0  0  0  0  0  0  0  0  0  0  0  0
   -6.1350   12.9460    7.8870 C   0  0  0  0  0  0  0  0  0  0  0  0
   -6.3620   11.5490    8.0690 C   0  0  0  0  0  0  0  0  0  0  0  0
   -6.5270   10.5070    7.0150 C   0  0  0  0  0  0  0  0  0  0  0  0
   -7.9860   10.3740    6.5770 C   0  0  0  0  0  0  0  0  0  0  0  0
   -8.3910   11.2540    5.7640 O   0  0  0  0  0  0  0  0  0  0  0  0
   -8.6290    9.4270    7.1200 O   0  0  0  0  0  0  0  0  0  0  0  0
   -6.3890   11.3560    9.4370 C   0  0  0  0  0  0  0  0  0  0  0  0
   -6.1610   12.5180   10.1030 O   0  0  0  0  0  0  0  0  0  0  0  0
   -6.0120   13.4880    9.1590 C   0  0  0  0  0  0  0  0  0  0  0  0
   -5.7700   14.8370    9.4230 C   0  0  0  0  0  0  0  0  0  0  0  0
   -6.7118   18.5802    7.9102 H   0  0  0  0  0  0  0  0  0  0  0  0
   -5.3443   18.3449    6.7695 H   0  0  0  0  0  0  0  0  0  0  0  0
   -6.7223   17.1926    6.7695 H   0  0  0  0  0  0  0  0  0  0  0  0
   -5.6854   15.8522    6.1573 H   0  0  0  0  0  0  0  0  0  0  0  0
   -6.1238   13.4226    5.7577 H   0  0  0  0  0  0  0  0  0  0  0  0
   -5.9162   10.7822    6.1425 H   0  0  0  0  0  0  0  0  0  0  0  0
   -6.2042    9.5418    7.4325 H   0  0  0  0  0  0  0  0  0  0  0  0
   -6.5715   10.3867    9.9239 H   0  0  0  0  0  0  0  0  0  0  0  0
   -5.6745   15.2168   10.4509 H   0  0  0  0  0  0  0  0  0  0  0  0
  1  2  1  0
  2  3  1  0
  3  4  2  0
  4  5  1  0
  5  6  2  0
  6  7  1  0
  7  8  1  0
  8  9  1  0
  9 10  2  0
  9 11  1  0
  7 12  2  0
 12 13  1  0
 13 14  1  0
 14 15  2  0
 15  3  1  0
 14  6  1  0
  1 16  1  0
  1 17  1  0
  1 18  1  0
  4 19  1  0
  5 20  1  0
  8 21  1  0
  8 22  1  0
 12 23  1  0
 15 24  1  0
M  CHG  1  11  -1
M  END
>  <meeko>  (7) 
{"is_sidechain": [false], "free_energy": -5.453, "intermolecular_energy": -6.405, "internal_energy": -0.28}

$$$$
4ddh_ligand
     RDKit          3D

 24 25  0  0  0  0  0  0  0  0999 V2000
   -6.4690   13.0100    7.1830 C   0  0  0  0  0  0  0  0  0  0  0  0
   -6.0280   14.1400    6.4410 O   0  0  0  0  0  0  0  0  0  0  0  0
   -5.8490   15.3040    7.1460 C   0  0  0  0  0  0  0  0  0  0  0  0
   -4.8460   16.1390    6.6360 C   0  0  0  0  0  0  0  0  0  0  0  0
   -4.5370   17.3680    7.2380 C   0  0  0  0  0  0  0  0  0  0  0  0
   -5.2610   17.7620    8.3750 C   0  0  0  0  0  0  0  0  0  0  0  0
   -5.2580   18.8960    9.2420 C   0  0  0  0  0  0  0  0  0  0  0  0
   -4.4120   20.1190    9.1390 C   0  0  0  0  0  0  0  0  0  0  0  0
   -5.1760   21.2820    8.5060 C   0  0  0  0  0  0  0  0  0  0  0  0
   -5.1910   21.2970    7.2410 O   0  0  0  0  0  0  0  0  0  0  0  0
   -5.6600   22.1200    9.3240 O   0  0  0  0  0  0  0  0  0  0  0  0
   -6.2180   18.6290   10.1990 C   0  0  0  0  0  0  0  0  0  0  0  0
   -6.8300   17.4400    9.9660 O   0  0  0  0  0  0  0  0  0  0  0  0
   -6.2440   16.9080    8.8570 C   0  0  0  0  0  0  0  0  0  0  0  0
   -6.5750   15.6800    8.2820 C   0  0  0  0  0  0  0  0  0  0  0  0
   -6.3860   13.2228    8.2590 H   0  0  0  0  0  0  0  0  0  0  0  0
   -7.5178   12.7931    6.9320 H   0  0  0  0  0  0  0  0  0  0  0  0
   -5.8444   12.1400    6.9320 H   0  0  0  0  0  0  0  0  0  0  0  0
   -4.2876   15.8234    5.7424 H   0  0  0  0  0  0  0  0  0  0  0  0
   -3.7436   18.0100    6.8277 H   0  0  0  0  0  0  0  0  0  0  0  0
   -4.0861   20.4132   10.1476 H   0  0  0  0  0  0  0  0  0  0  0  0
   -3.5485   19.8863    8.4985 H   0  0  0  0  0  0  0  0  0  0  0  0
   -6.4559   19.2947   11.0418 H   0  0  0  0  0  0  0  0  0  0  0  0
   -7.3661   15.0403    8.7003 H   0  0  0  0  0  0  0  0  0  0  0  0
  1  2  1  0
  2  3  1  0
  3  4  2  0
  4  5  1  0
  5  6  2  0
  6  7  1  0
  7  8  1  0
  8  9  1  0
  9 10  2  0
  9 11  1  0
  7 12  2  0
 12 13  1  0
 13 14  1  0
 14 15  2  0
 15  3  1  0
 14  6  1  0
  1 16  1  0
  1 17  1  0
  1 18  1  0
  4 19  1  0
  5 20  1  0
  8 21  1  0
  8 22  1  0
 12 23  1  0
 15 24  1  0
M  CHG  1  11  -1
M  END
>  <meeko>  (8) 
{"is_sidechain": [false], "free_energy": -5.415, "intermolecular_energy": -6.397, "internal_energy": -0.242}

$$$$
4ddh_ligand
     RDKit          3D

 24 25  0  0  0  0  0  0  0  0999 V2000
   -8.6390   15.7540   13.1630 C   0  0  0  0  0  0  0  0  0  0  0  0
   -9.0180   16.2550   11.8870 O   0  0  0  0  0  0  0  0  0  0  0  0
   -8.0410   16.8920   11.1650 C   0  0  0  0  0  0  0  0  0  0  0  0
   -7.7380   18.1830   11.6180 C   0  0  0  0  0  0  0  0  0  0  0  0
   -6.7610   18.9720   10.9920 C   0  0  0  0  0  0  0  0  0  0  0  0
   -6.0730   18.4410    9.8880 C   0  0  0  0  0  0  0  0  0  0  0  0
   -5.0430   18.9000    9.0130 C   0  0  0  0  0  0  0  0  0  0  0  0
   -4.3170   20.2020    9.0640 C   0  0  0  0  0  0  0  0  0  0  0  0
   -5.1440   21.3330    8.4520 C   0  0  0  0  0  0  0  0  0  0  0  0
   -5.6550   22.1420    9.2810 O   0  0  0  0  0  0  0  0  0  0  0  0
   -5.2620   21.2960    7.1920 O   0  0  0  0  0  0  0  0  0  0  0  0
   -4.8480   17.8770    8.1070 C   0  0  0  0  0  0  0  0  0  0  0  0
   -5.6510   16.8160    8.3800 O   0  0  0  0  0  0  0  0  0  0  0  0
   -6.4020   17.1610    9.4620 C   0  0  0  0  0  0  0  0  0  0  0  0
   -7.3680   16.3530   10.0630 C   0  0  0  0  0  0  0  0  0  0  0  0
   -9.1026   16.3669   13.9500 H   0  0  0  0  0  0  0  0  0  0  0  0
   -8.9769   14.7120   13.2629 H   0  0  0  0  0  0  0  0  0  0  0  0
   -7.5443   15.7957   13.2629 H   0  0  0  0  0  0  0  0  0  0  0  0
   -8.2794   18.5879   12.4857 H   0  0  0  0  0  0  0  0  0  0  0  0
   -6.5384   19.9852   11.3580 H   0  0  0  0  0  0  0  0  0  0  0  0
   -4.0982   20.4476   10.1137 H   0  0  0  0  0  0  0  0  0  0  0  0
   -3.3891   20.1011    8.4820 H   0  0  0  0  0  0  0  0  0  0  0  0
   -4.1339   17.9160    7.2712 H   0  0  0  0  0  0  0  0  0  0  0  0
   -7.5894   15.3425    9.6890 H   0  0  0  0  0  0  0  0  0  0  0  0
  1  2  1  0
  2  3  1  0
  3  4  2  0
  4  5  1  0
  5  6  2  0
  6  7  1  0
  7  8  1  0
  8  9  1  0
  9 10  2  0
  9 11  1  0
  7 12  2  0
 12 13  1  0
 13 14  1  0
 14 15  2  0
 15  3  1  0
 14  6  1  0
  1 16  1  0
  1 17  1  0
  1 18  1  0
  4 19  1  0
  5 20  1  0
  8 21  1  0
  8 22  1  0
 12 23  1  0
 15 24  1  0
M  CHG  1  11  -1
M  END
>  <meeko>  (9) 
{"is_sidechain": [false], "free_energy": -5.353, "intermolecular_energy": -6.295, "internal_energy": -0.272}

$$$$
