3gc5_ligand
     RDKit          3D

 38 40  0  0  0  0  0  0  0  0999 V2000
    0.6710  -19.9120   -1.7960 C   0  0  0  0  0  0  0  0  0  0  0  0
    2.1130  -19.9830   -1.5710 N   0  0  0  0  0  0  0  0  0  0  0  0
    2.8350  -21.0460   -1.9410 C   0  0  0  0  0  0  0  0  0  0  0  0
    2.4090  -22.0460   -2.7160 N   0  0  0  0  0  0  0  0  0  0  0  0
    3.4230  -22.9680   -2.9330 C   0  0  0  0  0  0  0  0  0  0  0  0
    3.4750  -24.1630   -3.6870 C   0  0  0  0  0  0  0  0  0  0  0  0
    2.2350  -24.6740   -4.3830 C   0  0  0  0  0  0  0  0  0  0  0  0
    1.8060  -23.8150   -5.5880 C   0  0  0  0  0  0  0  0  0  0  0  0
    2.9130  -23.6600   -6.5720 N   0  0  0  0  0  0  0  0  0  0  0  0
    4.7650  -24.7940   -3.7100 C   0  0  0  0  0  0  0  0  0  0  0  0
    4.9790  -25.9710   -4.5050 N   0  0  0  0  0  0  0  0  0  0  0  0
    6.2080  -26.5670   -4.5520 C   0  0  0  0  0  0  0  0  0  0  0  0
    6.3980  -27.6430   -5.3220 N   0  0  0  0  0  0  0  0  0  0  0  0
    7.2100  -26.0800   -3.8350 N   0  0  0  0  0  0  0  0  0  0  0  0
    7.1450  -24.9490   -3.0170 C   0  0  0  0  0  0  0  0  0  0  0  0
    8.1150  -24.5770   -2.3920 O   0  0  0  0  0  0  0  0  0  0  0  0
    5.8520  -24.2570   -2.9690 C   0  0  0  0  0  0  0  0  0  0  0  0
    5.7560  -23.0860   -2.1990 C   0  0  0  0  0  0  0  0  0  0  0  0
    4.5200  -22.4670   -2.2220 C   0  0  0  0  0  0  0  0  0  0  0  0
    4.0890  -21.3130   -1.6210 N   0  0  0  0  0  0  0  0  0  0  0  0
    0.1496  -19.8863   -0.8277 H   0  0  0  0  0  0  0  0  0  0  0  0
    0.4331  -19.0011   -2.3648 H   0  0  0  0  0  0  0  0  0  0  0  0
    0.3447  -20.7952   -2.3648 H   0  0  0  0  0  0  0  0  0  0  0  0
    2.5660  -19.2050   -1.1070 H   0  0  0  0  0  0  0  0  0  0  0  0
    1.4850  -22.0330   -3.1250 H   0  0  0  0  0  0  0  0  0  0  0  0
    2.4315  -25.6967   -4.7373 H   0  0  0  0  0  0  0  0  0  0  0  0
    1.4149  -24.6353   -3.6509 H   0  0  0  0  0  0  0  0  0  0  0  0
    0.9517  -24.2981   -6.0848 H   0  0  0  0  0  0  0  0  0  0  0  0
    1.5316  -22.8160   -5.2183 H   0  0  0  0  0  0  0  0  0  0  0  0
    3.7600  -24.2030   -6.3450 H   0  0  0  0  0  0  0  0  0  0  0  0
    3.2320  -22.6760   -6.6150 H   0  0  0  0  0  0  0  0  0  0  0  0
    2.6590  -23.9000   -7.5430 H   0  0  0  0  0  0  0  0  0  0  0  0
    4.2710  -26.3680   -5.1070 H   0  0  0  0  0  0  0  0  0  0  0  0
    6.2620  -27.6580   -6.3260 H   0  0  0  0  0  0  0  0  0  0  0  0
    6.7240  -28.5230   -4.9260 H   0  0  0  0  0  0  0  0  0  0  0  0
    8.1200  -26.5280   -3.8570 H   0  0  0  0  0  0  0  0  0  0  0  0
    6.6031  -22.6901   -1.6196 H   0  0  0  0  0  0  0  0  0  0  0  0
    4.6580  -20.7110   -1.0320 H   0  0  0  0  0  0  0  0  0  0  0  0
  1  2  1  0
  2  3  1  0
  3  4  1  0
  4  5  1  0
  5  6  2  0
  6  7  1  0
  7  8  1  0
  8  9  1  0
  6 10  1  0
 10 11  1  0
 11 12  2  0
 12 13  1  0
 12 14  1  0
 14 15  1  0
 15 16  2  0
 15 17  1  0
 17 18  1  0
 18 19  2  0
 19 20  1  0
 20  3  2  0
 19  5  1  0
 17 10  2  0
  1 21  1  0
  1 22  1  0
  1 23  1  0
  2 24  1  0
  4 25  1  0
  7 26  1  0
  7 27  1  0
  8 28  1  0
  8 29  1  0
  9 30  1  0
  9 31  1  0
  9 32  1  0
 11 33  1  0
 13 34  1  0
 13 35  1  0
 14 36  1  0
 18 37  1  0
 20 38  1  0
M  CHG  3   9   1  11   1  20   1
M  END
>  <meeko>  (1) 
{"is_sidechain": [false], "free_energy": -7.9, "intermolecular_energy": -9.747, "internal_energy": -0.229}

$$$$
3gc5_ligand
     RDKit          3D

 38 40  0  0  0  0  0  0  0  0999 V2000
    0.7740  -20.0710   -1.6400 C   0  0  0  0  0  0  0  0  0  0  0  0
    0.6030  -21.1090   -2.6530 N   0  0  0  0  0  0  0  0  0  0  0  0
    1.5470  -22.0250   -2.8950 C   0  0  0  0  0  0  0  0  0  0  0  0
    1.3850  -23.1430   -3.6060 N   0  0  0  0  0  0  0  0  0  0  0  0
    2.5760  -23.8500   -3.6920 C   0  0  0  0  0  0  0  0  0  0  0  0
    2.9180  -25.0590   -4.3400 C   0  0  0  0  0  0  0  0  0  0  0  0
    1.8570  -25.8620   -5.0560 C   0  0  0  0  0  0  0  0  0  0  0  0
    1.5680  -27.2260   -4.3990 C   0  0  0  0  0  0  0  0  0  0  0  0
    0.1130  -27.5430   -4.4140 N   0  0  0  0  0  0  0  0  0  0  0  0
    4.3070  -25.4120   -4.2420 C   0  0  0  0  0  0  0  0  0  0  0  0
    4.8070  -26.5720   -4.9250 N   0  0  0  0  0  0  0  0  0  0  0  0
    6.1310  -26.9050   -4.8570 C   0  0  0  0  0  0  0  0  0  0  0  0
    6.5860  -27.9710   -5.5250 N   0  0  0  0  0  0  0  0  0  0  0  0
    6.9630  -26.1740   -4.1310 N   0  0  0  0  0  0  0  0  0  0  0  0
    6.6160  -25.0250   -3.4150 C   0  0  0  0  0  0  0  0  0  0  0  0
    7.4470  -24.4190   -2.7710 O   0  0  0  0  0  0  0  0  0  0  0  0
    5.2100  -24.6120   -3.4930 C   0  0  0  0  0  0  0  0  0  0  0  0
    4.8290  -23.4350   -2.8280 C   0  0  0  0  0  0  0  0  0  0  0  0
    3.4980  -23.0860   -2.9680 C   0  0  0  0  0  0  0  0  0  0  0  0
    2.8040  -22.0050   -2.4880 N   0  0  0  0  0  0  0  0  0  0  0  0
    0.7000  -20.5202   -0.6386 H   0  0  0  0  0  0  0  0  0  0  0  0
    1.7616  -19.6015   -1.7592 H   0  0  0  0  0  0  0  0  0  0  0  0
   -0.0108  -19.3095   -1.7592 H   0  0  0  0  0  0  0  0  0  0  0  0
   -0.2540  -21.1180   -3.1930 H   0  0  0  0  0  0  0  0  0  0  0  0
    0.5070  -23.3490   -4.0630 H   0  0  0  0  0  0  0  0  0  0  0  0
    0.9257  -25.2767   -5.0665 H   0  0  0  0  0  0  0  0  0  0  0  0
    2.2346  -26.0651   -6.0690 H   0  0  0  0  0  0  0  0  0  0  0  0
    2.1100  -28.0094   -4.9490 H   0  0  0  0  0  0  0  0  0  0  0  0
    1.9001  -27.1811   -3.3513 H   0  0  0  0  0  0  0  0  0  0  0  0
   -0.1820  -28.1430   -5.2000 H   0  0  0  0  0  0  0  0  0  0  0  0
   -0.4500  -26.6810   -4.5120 H   0  0  0  0  0  0  0  0  0  0  0  0
   -0.2350  -27.9920   -3.5520 H   0  0  0  0  0  0  0  0  0  0  0  0
    4.2360  -27.1480   -5.5280 H   0  0  0  0  0  0  0  0  0  0  0  0
    6.1430  -28.3590   -6.3480 H   0  0  0  0  0  0  0  0  0  0  0  0
    7.4420  -28.4440   -5.2400 H   0  0  0  0  0  0  0  0  0  0  0  0
    7.9440  -26.4260   -4.0680 H   0  0  0  0  0  0  0  0  0  0  0  0
    5.5376  -22.8345   -2.2387 H   0  0  0  0  0  0  0  0  0  0  0  0
    3.1990  -21.2590   -1.9210 H   0  0  0  0  0  0  0  0  0  0  0  0
  1  2  1  0
  2  3  1  0
  3  4  1  0
  4  5  1  0
  5  6  2  0
  6  7  1  0
  7  8  1  0
  8  9  1  0
  6 10  1  0
 10 11  1  0
 11 12  2  0
 12 13  1  0
 12 14  1  0
 14 15  1  0
 15 16  2  0
 15 17  1  0
 17 18  1  0
 18 19  2  0
 19 20  1  0
 20  3  2  0
 19  5  1  0
 17 10  2  0
  1 21  1  0
  1 22  1  0
  1 23  1  0
  2 24  1  0
  4 25  1  0
  7 26  1  0
  7 27  1  0
  8 28  1  0
  8 29  1  0
  9 30  1  0
  9 31  1  0
  9 32  1  0
 11 33  1  0
 13 34  1  0
 13 35  1  0
 14 36  1  0
 18 37  1  0
 20 38  1  0
M  CHG  3   9   1  11   1  20   1
M  END
>  <meeko>  (2) 
{"is_sidechain": [false], "free_energy": -7.897, "intermolecular_energy": -9.884, "internal_energy": -0.089}

$$$$
3gc5_ligand
     RDKit          3D

 38 40  0  0  0  0  0  0  0  0999 V2000
    0.0120  -19.7270   -1.7520 C   0  0  0  0  0  0  0  0  0  0  0  0
    0.1290  -20.5300   -2.9660 N   0  0  0  0  0  0  0  0  0  0  0  0
    1.1380  -21.3890   -3.1510 C   0  0  0  0  0  0  0  0  0  0  0  0
    2.3720  -21.2600   -2.6570 N   0  0  0  0  0  0  0  0  0  0  0  0
    3.1600  -22.3460   -3.0090 C   0  0  0  0  0  0  0  0  0  0  0  0
    4.5030  -22.6800   -2.7180 C   0  0  0  0  0  0  0  0  0  0  0  0
    5.3690  -21.7200   -1.9350 C   0  0  0  0  0  0  0  0  0  0  0  0
    6.3420  -20.9110   -2.8140 C   0  0  0  0  0  0  0  0  0  0  0  0
    7.7600  -21.2580   -2.5230 N   0  0  0  0  0  0  0  0  0  0  0  0
    4.9190  -23.9590   -3.2230 C   0  0  0  0  0  0  0  0  0  0  0  0
    6.2330  -24.4580   -2.9280 N   0  0  0  0  0  0  0  0  0  0  0  0
    6.6320  -25.6830   -3.3850 C   0  0  0  0  0  0  0  0  0  0  0  0
    7.8470  -26.1460   -3.0740 N   0  0  0  0  0  0  0  0  0  0  0  0
    5.8180  -26.4090   -4.1350 N   0  0  0  0  0  0  0  0  0  0  0  0
    4.5180  -26.0490   -4.5010 C   0  0  0  0  0  0  0  0  0  0  0  0
    3.8430  -26.7780   -5.1970 O   0  0  0  0  0  0  0  0  0  0  0  0
    4.0370  -24.7570   -3.9990 C   0  0  0  0  0  0  0  0  0  0  0  0
    2.7190  -24.3780   -4.3020 C   0  0  0  0  0  0  0  0  0  0  0  0
    2.3200  -23.1650   -3.7730 C   0  0  0  0  0  0  0  0  0  0  0  0
    1.1150  -22.5140   -3.8430 N   0  0  0  0  0  0  0  0  0  0  0  0
    0.1069  -20.3786   -0.8708 H   0  0  0  0  0  0  0  0  0  0  0  0
    0.8092  -18.9693   -1.7353 H   0  0  0  0  0  0  0  0  0  0  0  0
   -0.9683  -19.2283   -1.7353 H   0  0  0  0  0  0  0  0  0  0  0  0
   -0.5700  -20.4150   -3.6890 H   0  0  0  0  0  0  0  0  0  0  0  0
    2.6130  -20.4910   -2.0470 H   0  0  0  0  0  0  0  0  0  0  0  0
    4.7135  -21.0154   -1.4023 H   0  0  0  0  0  0  0  0  0  0  0  0
    5.9802  -22.3234   -1.2477 H   0  0  0  0  0  0  0  0  0  0  0  0
    6.1314  -21.1269   -3.8718 H   0  0  0  0  0  0  0  0  0  0  0  0
    6.1970  -19.8428   -2.5950 H   0  0  0  0  0  0  0  0  0  0  0  0
    8.4290  -20.4930   -2.7040 H   0  0  0  0  0  0  0  0  0  0  0  0
    8.0790  -22.0370   -3.1250 H   0  0  0  0  0  0  0  0  0  0  0  0
    7.9330  -21.5800   -1.5580 H   0  0  0  0  0  0  0  0  0  0  0  0
    6.8870  -23.9740   -2.3280 H   0  0  0  0  0  0  0  0  0  0  0  0
    8.4310  -26.6850   -3.7030 H   0  0  0  0  0  0  0  0  0  0  0  0
    8.2690  -25.9510   -2.1680 H   0  0  0  0  0  0  0  0  0  0  0  0
    6.1160  -27.3130   -4.4860 H   0  0  0  0  0  0  0  0  0  0  0  0
    2.0524  -25.0015   -4.9160 H   0  0  0  0  0  0  0  0  0  0  0  0
    0.2910  -22.8570   -4.3310 H   0  0  0  0  0  0  0  0  0  0  0  0
  1  2  1  0
  2  3  1  0
  3  4  1  0
  4  5  1  0
  5  6  2  0
  6  7  1  0
  7  8  1  0
  8  9  1  0
  6 10  1  0
 10 11  1  0
 11 12  2  0
 12 13  1  0
 12 14  1  0
 14 15  1  0
 15 16  2  0
 15 17  1  0
 17 18  1  0
 18 19  2  0
 19 20  1  0
 20  3  2  0
 19  5  1  0
 17 10  2  0
  1 21  1  0
  1 22  1  0
  1 23  1  0
  2 24  1  0
  4 25  1  0
  7 26  1  0
  7 27  1  0
  8 28  1  0
  8 29  1  0
  9 30  1  0
  9 31  1  0
  9 32  1  0
 11 33  1  0
 13 34  1  0
 13 35  1  0
 14 36  1  0
 18 37  1  0
 20 38  1  0
M  CHG  3   9   1  11   1  20   1
M  END
>  <meeko>  (3) 
{"is_sidechain": [false], "free_energy": -7.721, "intermolecular_energy": -9.51, "internal_energy": -0.247}

$$$$
3gc5_ligand
     RDKit          3D

 38 40  0  0  0  0  0  0  0  0999 V2000
    2.9830  -29.4470   -5.4660 C   0  0  0  0  0  0  0  0  0  0  0  0
    4.1360  -28.6250   -5.8250 N   0  0  0  0  0  0  0  0  0  0  0  0
    4.4240  -27.4900   -5.1790 C   0  0  0  0  0  0  0  0  0  0  0  0
    3.5530  -26.5230   -4.8770 N   0  0  0  0  0  0  0  0  0  0  0  0
    4.1750  -25.5030   -4.1730 C   0  0  0  0  0  0  0  0  0  0  0  0
    3.6880  -24.2950   -3.6210 C   0  0  0  0  0  0  0  0  0  0  0  0
    2.2440  -23.8970   -3.8260 C   0  0  0  0  0  0  0  0  0  0  0  0
    2.0440  -22.8660   -4.9530 C   0  0  0  0  0  0  0  0  0  0  0  0
    2.1300  -23.5000   -6.2970 N   0  0  0  0  0  0  0  0  0  0  0  0
    4.6660  -23.5400   -2.8890 C   0  0  0  0  0  0  0  0  0  0  0  0
    4.2850  -22.3350   -2.2080 N   0  0  0  0  0  0  0  0  0  0  0  0
    5.2030  -21.6190   -1.4900 C   0  0  0  0  0  0  0  0  0  0  0  0
    4.8250  -20.5170   -0.8360 N   0  0  0  0  0  0  0  0  0  0  0  0
    6.4660  -22.0170   -1.4450 N   0  0  0  0  0  0  0  0  0  0  0  0
    6.9760  -23.1640   -2.0600 C   0  0  0  0  0  0  0  0  0  0  0  0
    8.1510  -23.4490   -1.9660 O   0  0  0  0  0  0  0  0  0  0  0  0
    6.0140  -23.9800   -2.8080 C   0  0  0  0  0  0  0  0  0  0  0  0
    6.4740  -25.1680   -3.4010 C   0  0  0  0  0  0  0  0  0  0  0  0
    5.5110  -25.9050   -4.0640 C   0  0  0  0  0  0  0  0  0  0  0  0
    5.6010  -27.1070   -4.7180 N   0  0  0  0  0  0  0  0  0  0  0  0
    2.9011  -29.5054   -4.3706 H   0  0  0  0  0  0  0  0  0  0  0  0
    2.0685  -28.9960   -5.8785 H   0  0  0  0  0  0  0  0  0  0  0  0
    3.1112  -30.4586   -5.8785 H   0  0  0  0  0  0  0  0  0  0  0  0
    4.7200  -28.9250   -6.5960 H   0  0  0  0  0  0  0  0  0  0  0  0
    2.5700  -26.6210   -5.0890 H   0  0  0  0  0  0  0  0  0  0  0  0
    1.6660  -24.7996   -4.0734 H   0  0  0  0  0  0  0  0  0  0  0  0
    1.9030  -23.4256   -2.8925 H   0  0  0  0  0  0  0  0  0  0  0  0
    1.0533  -22.4014   -4.8402 H   0  0  0  0  0  0  0  0  0  0  0  0
    2.8421  -22.1129   -4.8761 H   0  0  0  0  0  0  0  0  0  0  0  0
    2.0910  -22.8340   -7.0840 H   0  0  0  0  0  0  0  0  0  0  0  0
    1.3320  -24.1410   -6.4530 H   0  0  0  0  0  0  0  0  0  0  0  0
    2.9700  -24.0820   -6.4430 H   0  0  0  0  0  0  0  0  0  0  0  0
    3.3330  -21.9980   -2.1680 H   0  0  0  0  0  0  0  0  0  0  0  0
    5.0380  -19.5730   -1.1360 H   0  0  0  0  0  0  0  0  0  0  0  0
    4.2640  -20.5750    0.0120 H   0  0  0  0  0  0  0  0  0  0  0  0
    7.1520  -21.4810   -0.9230 H   0  0  0  0  0  0  0  0  0  0  0  0
    7.5247  -25.4883   -3.3418 H   0  0  0  0  0  0  0  0  0  0  0  0
    6.4490  -27.6590   -4.8160 H   0  0  0  0  0  0  0  0  0  0  0  0
  1  2  1  0
  2  3  1  0
  3  4  1  0
  4  5  1  0
  5  6  2  0
  6  7  1  0
  7  8  1  0
  8  9  1  0
  6 10  1  0
 10 11  1  0
 11 12  2  0
 12 13  1  0
 12 14  1  0
 14 15  1  0
 15 16  2  0
 15 17  1  0
 17 18  1  0
 18 19  2  0
 19 20  1  0
 20  3  2  0
 19  5  1  0
 17 10  2  0
  1 21  1  0
  1 22  1  0
  1 23  1  0
  2 24  1  0
  4 25  1  0
  7 26  1  0
  7 27  1  0
  8 28  1  0
  8 29  1  0
  9 30  1  0
  9 31  1  0
  9 32  1  0
 11 33  1  0
 13 34  1  0
 13 35  1  0
 14 36  1  0
 18 37  1  0
 20 38  1  0
M  CHG  3   9   1  11   1  20   1
M  END
>  <meeko>  (4) 
{"is_sidechain": [false], "free_energy": -7.329, "intermolecular_energy": -9.017, "internal_energy": -0.255}

$$$$
3gc5_ligand
     RDKit          3D

 38 40  0  0  0  0  0  0  0  0999 V2000
   10.9720  -21.4330   -2.1490 C   0  0  0  0  0  0  0  0  0  0  0  0
   10.0920  -22.2140   -1.2830 N   0  0  0  0  0  0  0  0  0  0  0  0
    8.9820  -22.7980   -1.7470 C   0  0  0  0  0  0  0  0  0  0  0  0
    7.7500  -22.2860   -1.6920 N   0  0  0  0  0  0  0  0  0  0  0  0
    6.8350  -23.1360   -2.2970 C   0  0  0  0  0  0  0  0  0  0  0  0
    5.4410  -23.0350   -2.5100 C   0  0  0  0  0  0  0  0  0  0  0  0
    4.6750  -21.8510   -1.9660 C   0  0  0  0  0  0  0  0  0  0  0  0
    4.8950  -20.5530   -2.7680 C   0  0  0  0  0  0  0  0  0  0  0  0
    4.0550  -20.5210   -3.9970 N   0  0  0  0  0  0  0  0  0  0  0  0
    4.8750  -24.1230   -3.2580 C   0  0  0  0  0  0  0  0  0  0  0  0
    3.4840  -24.1050   -3.6160 N   0  0  0  0  0  0  0  0  0  0  0  0
    2.9390  -25.1240   -4.3460 C   0  0  0  0  0  0  0  0  0  0  0  0
    1.6510  -25.0760   -4.6990 N   0  0  0  0  0  0  0  0  0  0  0  0
    3.6860  -26.1580   -4.7030 N   0  0  0  0  0  0  0  0  0  0  0  0
    5.0470  -26.3090   -4.4220 C   0  0  0  0  0  0  0  0  0  0  0  0
    5.6520  -27.2950   -4.7860 O   0  0  0  0  0  0  0  0  0  0  0  0
    5.6790  -25.2170   -3.6720 C   0  0  0  0  0  0  0  0  0  0  0  0
    7.0560  -25.3050   -3.4110 C   0  0  0  0  0  0  0  0  0  0  0  0
    7.5940  -24.2300   -2.7280 C   0  0  0  0  0  0  0  0  0  0  0  0
    8.8840  -23.9750   -2.3400 N   0  0  0  0  0  0  0  0  0  0  0  0
   11.6527  -20.8289   -1.5311 H   0  0  0  0  0  0  0  0  0  0  0  0
   11.5591  -22.1128   -2.7840 H   0  0  0  0  0  0  0  0  0  0  0  0
   10.3668  -20.7693   -2.7840 H   0  0  0  0  0  0  0  0  0  0  0  0
   10.3300  -22.2950   -0.3030 H   0  0  0  0  0  0  0  0  0  0  0  0
    7.5850  -21.3600   -1.3210 H   0  0  0  0  0  0  0  0  0  0  0  0
    3.6021  -22.0930   -1.9834 H   0  0  0  0  0  0  0  0  0  0  0  0
    5.0457  -21.6674   -0.9467 H   0  0  0  0  0  0  0  0  0  0  0  0
    4.6337  -19.6928   -2.1342 H   0  0  0  0  0  0  0  0  0  0  0  0
    5.9515  -20.5100   -3.0713 H   0  0  0  0  0  0  0  0  0  0  0  0
    3.3570  -21.2790   -4.0530 H   0  0  0  0  0  0  0  0  0  0  0  0
    4.6390  -20.6340   -4.8440 H   0  0  0  0  0  0  0  0  0  0  0  0
    3.5440  -19.6360   -4.1430 H   0  0  0  0  0  0  0  0  0  0  0  0
    2.8700  -23.3280   -3.4120 H   0  0  0  0  0  0  0  0  0  0  0  0
    0.9120  -25.5870   -4.2320 H   0  0  0  0  0  0  0  0  0  0  0  0
    1.3370  -24.4850   -5.4670 H   0  0  0  0  0  0  0  0  0  0  0  0
    3.2820  -26.9220   -5.2340 H   0  0  0  0  0  0  0  0  0  0  0  0
    7.6625  -26.1666   -3.7270 H   0  0  0  0  0  0  0  0  0  0  0  0
    9.6790  -24.5850   -2.5100 H   0  0  0  0  0  0  0  0  0  0  0  0
  1  2  1  0
  2  3  1  0
  3  4  1  0
  4  5  1  0
  5  6  2  0
  6  7  1  0
  7  8  1  0
  8  9  1  0
  6 10  1  0
 10 11  1  0
 11 12  2  0
 12 13  1  0
 12 14  1  0
 14 15  1  0
 15 16  2  0
 15 17  1  0
 17 18  1  0
 18 19  2  0
 19 20  1  0
 20  3  2  0
 19  5  1  0
 17 10  2  0
  1 21  1  0
  1 22  1  0
  1 23  1  0
  2 24  1  0
  4 25  1  0
  7 26  1  0
  7 27  1  0
  8 28  1  0
  8 29  1  0
  9 30  1  0
  9 31  1  0
  9 32  1  0
 11 33  1  0
 13 34  1  0
 13 35  1  0
 14 36  1  0
 18 37  1  0
 20 38  1  0
M  CHG  3   9   1  11   1  20   1
M  END
>  <meeko>  (5) 
{"is_sidechain": [false], "free_energy": -7.034, "intermolecular_energy": -8.658, "internal_energy": -0.251}

$$$$
3gc5_ligand
     RDKit          3D

 38 40  0  0  0  0  0  0  0  0999 V2000
   10.5810  -22.1460   -2.2270 C   0  0  0  0  0  0  0  0  0  0  0  0
    9.7100  -23.1880   -1.6880 N   0  0  0  0  0  0  0  0  0  0  0  0
    8.3990  -23.2180   -1.9480 C   0  0  0  0  0  0  0  0  0  0  0  0
    7.5090  -22.2950   -1.5740 N   0  0  0  0  0  0  0  0  0  0  0  0
    6.2420  -22.6150   -2.0380 C   0  0  0  0  0  0  0  0  0  0  0  0
    4.9950  -21.9580   -1.9270 C   0  0  0  0  0  0  0  0  0  0  0  0
    4.8780  -20.6860   -1.1190 C   0  0  0  0  0  0  0  0  0  0  0  0
    4.4460  -20.9220    0.3420 C   0  0  0  0  0  0  0  0  0  0  0  0
    5.6140  -21.2170    1.2170 N   0  0  0  0  0  0  0  0  0  0  0  0
    3.9200  -22.6010   -2.6300 C   0  0  0  0  0  0  0  0  0  0  0  0
    2.6180  -21.9950   -2.6690 N   0  0  0  0  0  0  0  0  0  0  0  0
    1.5930  -22.5880   -3.3520 C   0  0  0  0  0  0  0  0  0  0  0  0
    0.3970  -21.9950   -3.4050 N   0  0  0  0  0  0  0  0  0  0  0  0
    1.7850  -23.7490   -3.9610 N   0  0  0  0  0  0  0  0  0  0  0  0
    2.9930  -24.4510   -4.0030 C   0  0  0  0  0  0  0  0  0  0  0  0
    3.0750  -25.5130   -4.5830 O   0  0  0  0  0  0  0  0  0  0  0  0
    4.1290  -23.8290   -3.3120 C   0  0  0  0  0  0  0  0  0  0  0  0
    5.3740  -24.4760   -3.3720 C   0  0  0  0  0  0  0  0  0  0  0  0
    6.4070  -23.8220   -2.7280 C   0  0  0  0  0  0  0  0  0  0  0  0
    7.7350  -24.1470   -2.6120 N   0  0  0  0  0  0  0  0  0  0  0  0
   11.0449  -21.5910   -1.3983 H   0  0  0  0  0  0  0  0  0  0  0  0
   11.3660  -22.6073   -2.8442 H   0  0  0  0  0  0  0  0  0  0  0  0
    9.9878  -21.4553   -2.8442 H   0  0  0  0  0  0  0  0  0  0  0  0
   10.1200  -23.8950   -1.0900 H   0  0  0  0  0  0  0  0  0  0  0  0
    7.7990  -21.4560   -1.0900 H   0  0  0  0  0  0  0  0  0  0  0  0
    5.8570  -20.1845   -1.1157 H   0  0  0  0  0  0  0  0  0  0  0  0
    4.0965  -20.0733   -1.5921 H   0  0  0  0  0  0  0  0  0  0  0  0
    3.9393  -20.0196    0.7148 H   0  0  0  0  0  0  0  0  0  0  0  0
    3.7701  -21.7895    0.3655 H   0  0  0  0  0  0  0  0  0  0  0  0
    5.4100  -21.1660    2.2270 H   0  0  0  0  0  0  0  0  0  0  0  0
    6.3710  -20.5280    1.0640 H   0  0  0  0  0  0  0  0  0  0  0  0
    6.0530  -22.1360    1.0490 H   0  0  0  0  0  0  0  0  0  0  0  0
    2.4160  -21.0930   -2.2620 H   0  0  0  0  0  0  0  0  0  0  0  0
    0.2580  -21.0020   -3.5470 H   0  0  0  0  0  0  0  0  0  0  0  0
   -0.4630  -22.5360   -3.3270 H   0  0  0  0  0  0  0  0  0  0  0  0
    1.0230  -24.1980   -4.4580 H   0  0  0  0  0  0  0  0  0  0  0  0
    5.5165  -25.4338   -3.8938 H   0  0  0  0  0  0  0  0  0  0  0  0
    8.1730  -24.9730   -3.0100 H   0  0  0  0  0  0  0  0  0  0  0  0
  1  2  1  0
  2  3  1  0
  3  4  1  0
  4  5  1  0
  5  6  2  0
  6  7  1  0
  7  8  1  0
  8  9  1  0
  6 10  1  0
 10 11  1  0
 11 12  2  0
 12 13  1  0
 12 14  1  0
 14 15  1  0
 15 16  2  0
 15 17  1  0
 17 18  1  0
 18 19  2  0
 19 20  1  0
 20  3  2  0
 19  5  1  0
 17 10  2  0
  1 21  1  0
  1 22  1  0
  1 23  1  0
  2 24  1  0
  4 25  1  0
  7 26  1  0
  7 27  1  0
  8 28  1  0
  8 29  1  0
  9 30  1  0
  9 31  1  0
  9 32  1  0
 11 33  1  0
 13 34  1  0
 13 35  1  0
 14 36  1  0
 18 37  1  0
 20 38  1  0
M  CHG  3   9   1  11   1  20   1
M  END
>  <meeko>  (6) 
{"is_sidechain": [false], "free_energy": -6.987, "intermolecular_energy": -8.579, "internal_energy": -0.271}

$$$$
3gc5_ligand
     RDKit          3D

 38 40  0  0  0  0  0  0  0  0999 V2000
   11.2550  -22.4360   -1.3160 C   0  0  0  0  0  0  0  0  0  0  0  0
   10.1740  -23.1940   -0.6910 N   0  0  0  0  0  0  0  0  0  0  0  0
    8.9450  -23.2360   -1.2170 C   0  0  0  0  0  0  0  0  0  0  0  0
    8.5020  -24.1420   -2.0930 N   0  0  0  0  0  0  0  0  0  0  0  0
    7.1690  -23.9160   -2.4040 C   0  0  0  0  0  0  0  0  0  0  0  0
    6.2620  -24.5990   -3.2470 C   0  0  0  0  0  0  0  0  0  0  0  0
    6.7300  -25.7780   -4.0680 C   0  0  0  0  0  0  0  0  0  0  0  0
    6.2820  -27.1390   -3.5030 C   0  0  0  0  0  0  0  0  0  0  0  0
    6.5140  -28.2400   -4.4790 N   0  0  0  0  0  0  0  0  0  0  0  0
    4.9260  -24.0710   -3.2300 C   0  0  0  0  0  0  0  0  0  0  0  0
    3.8850  -24.7200   -3.9770 N   0  0  0  0  0  0  0  0  0  0  0  0
    2.6050  -24.2400   -3.9520 C   0  0  0  0  0  0  0  0  0  0  0  0
    1.6410  -24.8740   -4.6260 N   0  0  0  0  0  0  0  0  0  0  0  0
    2.3200  -23.1470   -3.2600 N   0  0  0  0  0  0  0  0  0  0  0  0
    3.2300  -22.4140   -2.4930 C   0  0  0  0  0  0  0  0  0  0  0  0
    2.8800  -21.4200   -1.8940 O   0  0  0  0  0  0  0  0  0  0  0  0
    4.6080  -22.9190   -2.4630 C   0  0  0  0  0  0  0  0  0  0  0  0
    5.5440  -22.2410   -1.6650 C   0  0  0  0  0  0  0  0  0  0  0  0
    6.8140  -22.7870   -1.6580 C   0  0  0  0  0  0  0  0  0  0  0  0
    7.9430  -22.4080   -0.9790 N   0  0  0  0  0  0  0  0  0  0  0  0
   11.8897  -21.9910   -0.5355 H   0  0  0  0  0  0  0  0  0  0  0  0
   11.8603  -23.1085   -1.9416 H   0  0  0  0  0  0  0  0  0  0  0  0
   10.8290  -21.6377   -1.9416 H   0  0  0  0  0  0  0  0  0  0  0  0
   10.3680  -23.6870    0.1720 H   0  0  0  0  0  0  0  0  0  0  0  0
    9.0860  -24.9130   -2.3870 H   0  0  0  0  0  0  0  0  0  0  0  0
    6.3272  -25.6745   -5.0864 H   0  0  0  0  0  0  0  0  0  0  0  0
    7.8298  -25.7674   -4.0503 H   0  0  0  0  0  0  0  0  0  0  0  0
    6.8508  -27.3495   -2.5853 H   0  0  0  0  0  0  0  0  0  0  0  0
    5.2035  -27.0866   -3.2928 H   0  0  0  0  0  0  0  0  0  0  0  0
    5.8580  -28.2460   -5.2750 H   0  0  0  0  0  0  0  0  0  0  0  0
    6.3920  -29.1630   -4.0270 H   0  0  0  0  0  0  0  0  0  0  0  0
    7.4650  -28.2630   -4.8790 H   0  0  0  0  0  0  0  0  0  0  0  0
    4.0250  -25.5790   -4.4910 H   0  0  0  0  0  0  0  0  0  0  0  0
    1.5320  -24.8410   -5.6330 H   0  0  0  0  0  0  0  0  0  0  0  0
    0.9620  -25.4620   -4.1460 H   0  0  0  0  0  0  0  0  0  0  0  0
    1.3740  -22.7800   -3.2490 H   0  0  0  0  0  0  0  0  0  0  0  0
    5.2854  -21.3411   -1.0877 H   0  0  0  0  0  0  0  0  0  0  0  0
    8.0090  -21.6160   -0.3460 H   0  0  0  0  0  0  0  0  0  0  0  0
  1  2  1  0
  2  3  1  0
  3  4  1  0
  4  5  1  0
  5  6  2  0
  6  7  1  0
  7  8  1  0
  8  9  1  0
  6 10  1  0
 10 11  1  0
 11 12  2  0
 12 13  1  0
 12 14  1  0
 14 15  1  0
 15 16  2  0
 15 17  1  0
 17 18  1  0
 18 19  2  0
 19 20  1  0
 20  3  2  0
 19  5  1  0
 17 10  2  0
  1 21  1  0
  1 22  1  0
  1 23  1  0
  2 24  1  0
  4 25  1  0
  7 26  1  0
  7 27  1  0
  8 28  1  0
  8 29  1  0
  9 30  1  0
  9 31  1  0
  9 32  1  0
 11 33  1  0
 13 34  1  0
 13 35  1  0
 14 36  1  0
 18 37  1  0
 20 38  1  0
M  CHG  3   9   1  11   1  20   1
M  END
>  <meeko>  (7) 
{"is_sidechain": [false], "free_energy": -6.916, "intermolecular_energy": -8.624, "internal_energy": -0.138}

$$$$
3gc5_ligand
     RDKit          3D

 38 40  0  0  0  0  0  0  0  0999 V2000
    1.4850  -23.4960   -5.9200 C   0  0  0  0  0  0  0  0  0  0  0  0
    1.8430  -24.2680   -4.7330 N   0  0  0  0  0  0  0  0  0  0  0  0
    2.9710  -24.0380   -4.0530 C   0  0  0  0  0  0  0  0  0  0  0  0
    4.1090  -24.7270   -4.1750 N   0  0  0  0  0  0  0  0  0  0  0  0
    5.0930  -24.2040   -3.3510 C   0  0  0  0  0  0  0  0  0  0  0  0
    6.4460  -24.5600   -3.1410 C   0  0  0  0  0  0  0  0  0  0  0  0
    7.0290  -25.7650   -3.8430 C   0  0  0  0  0  0  0  0  0  0  0  0
    6.2070  -27.0530   -3.6410 C   0  0  0  0  0  0  0  0  0  0  0  0
    6.4050  -28.0100   -4.7640 N   0  0  0  0  0  0  0  0  0  0  0  0
    7.1540  -23.6970   -2.2380 C   0  0  0  0  0  0  0  0  0  0  0  0
    8.5560  -23.8960   -1.9990 N   0  0  0  0  0  0  0  0  0  0  0  0
    9.2450  -23.0660   -1.1580 C   0  0  0  0  0  0  0  0  0  0  0  0
   10.5560  -23.2460   -0.9720 N   0  0  0  0  0  0  0  0  0  0  0  0
    8.6140  -22.0870   -0.5290 N   0  0  0  0  0  0  0  0  0  0  0  0
    7.2570  -21.7800   -0.6630 C   0  0  0  0  0  0  0  0  0  0  0  0
    6.7630  -20.8630   -0.0420 O   0  0  0  0  0  0  0  0  0  0  0  0
    6.4900  -22.6230   -1.5860 C   0  0  0  0  0  0  0  0  0  0  0  0
    5.1340  -22.3190   -1.7890 C   0  0  0  0  0  0  0  0  0  0  0  0
    4.4780  -23.1320   -2.6940 C   0  0  0  0  0  0  0  0  0  0  0  0
    3.1830  -23.1020   -3.1450 N   0  0  0  0  0  0  0  0  0  0  0  0
    1.0405  -22.5375   -5.6137 H   0  0  0  0  0  0  0  0  0  0  0  0
    2.3872  -23.3067   -6.5201 H   0  0  0  0  0  0  0  0  0  0  0  0
    0.7576  -24.0624   -6.5201 H   0  0  0  0  0  0  0  0  0  0  0  0
    1.2180  -25.0060   -4.4330 H   0  0  0  0  0  0  0  0  0  0  0  0
    4.1990  -25.4690   -4.8560 H   0  0  0  0  0  0  0  0  0  0  0  0
    7.0790  -25.5495   -4.9205 H   0  0  0  0  0  0  0  0  0  0  0  0
    8.0225  -25.9440   -3.4062 H   0  0  0  0  0  0  0  0  0  0  0  0
    6.5209  -27.5336   -2.7026 H   0  0  0  0  0  0  0  0  0  0  0  0
    5.1421  -26.7799   -3.6048 H   0  0  0  0  0  0  0  0  0  0  0  0
    5.6150  -28.0580   -5.4250 H   0  0  0  0  0  0  0  0  0  0  0  0
    6.5140  -28.9760   -4.4090 H   0  0  0  0  0  0  0  0  0  0  0  0
    7.2520  -27.8380   -5.3290 H   0  0  0  0  0  0  0  0  0  0  0  0
    9.1050  -24.5970   -2.4780 H   0  0  0  0  0  0  0  0  0  0  0  0
   10.9550  -23.9460   -0.3580 H   0  0  0  0  0  0  0  0  0  0  0  0
   11.2410  -22.6840   -1.4750 H   0  0  0  0  0  0  0  0  0  0  0  0
    9.1200  -21.4770    0.1060 H   0  0  0  0  0  0  0  0  0  0  0  0
    4.6302  -21.4932   -1.2654 H   0  0  0  0  0  0  0  0  0  0  0  0
    2.4760  -22.4320   -2.8540 H   0  0  0  0  0  0  0  0  0  0  0  0
  1  2  1  0
  2  3  1  0
  3  4  1  0
  4  5  1  0
  5  6  2  0
  6  7  1  0
  7  8  1  0
  8  9  1  0
  6 10  1  0
 10 11  1  0
 11 12  2  0
 12 13  1  0
 12 14  1  0
 14 15  1  0
 15 16  2  0
 15 17  1  0
 17 18  1  0
 18 19  2  0
 19 20  1  0
 20  3  2  0
 19  5  1  0
 17 10  2  0
  1 21  1  0
  1 22  1  0
  1 23  1  0
  2 24  1  0
  4 25  1  0
  7 26  1  0
  7 27  1  0
  8 28  1  0
  8 29  1  0
  9 30  1  0
  9 31  1  0
  9 32  1  0
 11 33  1  0
 13 34  1  0
 13 35  1  0
 14 36  1  0
 18 37  1  0
 20 38  1  0
M  CHG  3   9   1  11   1  20   1
M  END
>  <meeko>  (8) 
{"is_sidechain": [false], "free_energy": -6.795, "intermolecular_energy": -8.635, "internal_energy": 0.021}

$$$$
3gc5_ligand
     RDKit          3D

 38 40  0  0  0  0  0  0  0  0999 V2000
    9.6760  -22.6570   -1.7510 C   0  0  0  0  0  0  0  0  0  0  0  0
    8.5430  -23.5640   -1.5840 N   0  0  0  0  0  0  0  0  0  0  0  0
    7.2790  -23.1350   -1.6530 C   0  0  0  0  0  0  0  0  0  0  0  0
    6.7240  -22.2150   -0.8600 N   0  0  0  0  0  0  0  0  0  0  0  0
    5.4060  -21.9790   -1.2260 C   0  0  0  0  0  0  0  0  0  0  0  0
    4.4230  -21.0980   -0.7200 C   0  0  0  0  0  0  0  0  0  0  0  0
    4.7220  -20.2430    0.4910 C   0  0  0  0  0  0  0  0  0  0  0  0
    4.3340  -20.9080    1.8250 C   0  0  0  0  0  0  0  0  0  0  0  0
    5.5170  -21.5020    2.5060 N   0  0  0  0  0  0  0  0  0  0  0  0
    3.1840  -21.1110   -1.4460 C   0  0  0  0  0  0  0  0  0  0  0  0
    2.1290  -20.2040   -1.0900 N   0  0  0  0  0  0  0  0  0  0  0  0
    0.9540  -20.1930   -1.7880 C   0  0  0  0  0  0  0  0  0  0  0  0
   -0.0060  -19.3210   -1.4630 N   0  0  0  0  0  0  0  0  0  0  0  0
    0.7660  -21.0440   -2.7840 N   0  0  0  0  0  0  0  0  0  0  0  0
    1.7000  -21.9800   -3.2370 C   0  0  0  0  0  0  0  0  0  0  0  0
    1.4380  -22.7250   -4.1570 O   0  0  0  0  0  0  0  0  0  0  0  0
    2.9900  -21.9990   -2.5380 C   0  0  0  0  0  0  0  0  0  0  0  0
    3.9760  -22.8890   -2.9920 C   0  0  0  0  0  0  0  0  0  0  0  0
    5.1770  -22.8340   -2.3100 C   0  0  0  0  0  0  0  0  0  0  0  0
    6.3440  -23.5270   -2.5010 N   0  0  0  0  0  0  0  0  0  0  0  0
   10.0529  -22.3553   -0.7626 H   0  0  0  0  0  0  0  0  0  0  0  0
   10.4754  -23.1676   -2.3081 H   0  0  0  0  0  0  0  0  0  0  0  0
    9.3528  -21.7652   -2.3081 H   0  0  0  0  0  0  0  0  0  0  0  0
    8.7320  -24.5410   -1.3970 H   0  0  0  0  0  0  0  0  0  0  0  0
    7.2690  -21.7330   -0.1580 H   0  0  0  0  0  0  0  0  0  0  0  0
    5.8011  -20.0305    0.5091 H   0  0  0  0  0  0  0  0  0  0  0  0
    4.1176  -19.3286    0.3981 H   0  0  0  0  0  0  0  0  0  0  0  0
    3.8857  -20.1503    2.4844 H   0  0  0  0  0  0  0  0  0  0  0  0
    3.6186  -21.7158    1.6113 H   0  0  0  0  0  0  0  0  0  0  0  0
    5.3520  -22.4400    2.9030 H   0  0  0  0  0  0  0  0  0  0  0  0
    5.8080  -20.9210    3.3120 H   0  0  0  0  0  0  0  0  0  0  0  0
    6.3590  -21.5760    1.9140 H   0  0  0  0  0  0  0  0  0  0  0  0
    2.2230  -19.5020   -0.3680 H   0  0  0  0  0  0  0  0  0  0  0  0
   -0.6140  -19.4140   -0.6580 H   0  0  0  0  0  0  0  0  0  0  0  0
   -0.1610  -18.4790   -2.0150 H   0  0  0  0  0  0  0  0  0  0  0  0
   -0.1110  -21.0470   -3.2970 H   0  0  0  0  0  0  0  0  0  0  0  0
    3.8052  -23.5805   -3.8302 H   0  0  0  0  0  0  0  0  0  0  0  0
    6.4990  -24.2290   -3.2200 H   0  0  0  0  0  0  0  0  0  0  0  0
  1  2  1  0
  2  3  1  0
  3  4  1  0
  4  5  1  0
  5  6  2  0
  6  7  1  0
  7  8  1  0
  8  9  1  0
  6 10  1  0
 10 11  1  0
 11 12  2  0
 12 13  1  0
 12 14  1  0
 14 15  1  0
 15 16  2  0
 15 17  1  0
 17 18  1  0
 18 19  2  0
 19 20  1  0
 20  3  2  0
 19  5  1  0
 17 10  2  0
  1 21  1  0
  1 22  1  0
  1 23  1  0
  2 24  1  0
  4 25  1  0
  7 26  1  0
  7 27  1  0
  8 28  1  0
  8 29  1  0
  9 30  1  0
  9 31  1  0
  9 32  1  0
 11 33  1  0
 13 34  1  0
 13 35  1  0
 14 36  1  0
 18 37  1  0
 20 38  1  0
M  CHG  3   9   1  11   1  20   1
M  END
>  <meeko>  (9) 
{"is_sidechain": [false], "free_energy": -6.708, "intermolecular_energy": -8.222, "internal_energy": -0.284}

$$$$
