
     RDKit          3D

 10 10  0  0  0  0  0  0  0  0999 V2000
   -5.8370  -14.7900    8.2480 O   0  0  0  0  0  0  0  0  0  0  0  0
   -6.0440  -13.5920    8.4750 C   0  0  0  0  0  0  0  0  0  0  0  0
   -7.0050  -13.2120    9.1600 O   0  0  0  0  0  0  0  0  0  0  0  0
   -5.0900  -12.5850    7.9080 C   0  0  0  0  0  0  0  0  0  0  0  0
   -3.8830  -13.0150    7.3820 C   0  0  0  0  0  0  0  0  0  0  0  0
   -2.9820  -12.1090    6.8460 C   0  0  0  0  0  0  0  0  0  0  0  0
   -3.2880  -10.7610    6.8310 C   0  0  0  0  0  0  0  0  0  0  0  0
   -4.4870  -10.3110    7.3470 C   0  0  0  0  0  0  0  0  0  0  0  0
   -5.3930  -11.2130    7.8890 C   0  0  0  0  0  0  0  0  0  0  0  0
   -6.5760  -10.7500    8.4050 O   0  0  0  0  0  0  0  0  0  0  0  0
  2  1  1  0
  3  2  2  0
  4  2  1  0
  5  4  2  0
  6  5  1  0
  7  6  2  0
  8  7  1  0
  9  4  1  0
  9  8  2  0
 10  9  1  0
M  CHG  1   1  -1
M  END
$$$$
