3ivg_ligand
     RDKit          3D

 46 49  0  0  0  0  0  0  0  0999 V2000
    2.3930  -19.9990  -15.1990 C   0  0  0  0  0  0  0  0  0  0  0  0
    3.2550  -20.8960  -14.5120 O   0  0  0  0  0  0  0  0  0  0  0  0
    3.9060  -20.4000  -13.4120 C   0  0  0  0  0  0  0  0  0  0  0  0
    4.6020  -21.3530  -12.6700 C   0  0  0  0  0  0  0  0  0  0  0  0
    5.3160  -21.0080  -11.5180 C   0  0  0  0  0  0  0  0  0  0  0  0
    5.3100  -19.6630  -11.1180 C   0  0  0  0  0  0  0  0  0  0  0  0
    4.6330  -18.6860  -11.8470 C   0  0  0  0  0  0  0  0  0  0  0  0
    3.9190  -19.0600  -13.0070 C   0  0  0  0  0  0  0  0  0  0  0  0
    4.8600  -17.4460  -11.1950 C   0  0  0  0  0  0  0  0  0  0  0  0
    5.6590  -17.6740  -10.0890 C   0  0  0  0  0  0  0  0  0  0  0  0
    6.2190  -16.6910   -9.1190 C   0  0  0  0  0  0  0  0  0  0  0  0
    7.6530  -16.5950   -9.3960 N   0  0  0  0  0  0  0  0  0  0  0  0
    8.6230  -16.0910   -8.1240 S   0  0  0  0  0  0  0  0  0  0  0  0
    8.4980  -17.0410   -7.0400 O   0  0  0  0  0  0  0  0  0  0  0  0
    9.9150  -15.7850   -8.7050 O   0  0  0  0  0  0  0  0  0  0  0  0
    7.9920  -14.5390   -7.4940 C   0  0  0  0  0  0  0  0  0  0  0  0
    7.2010  -14.2570   -6.3860 C   0  0  0  0  0  0  0  0  0  0  0  0
    6.9550  -12.8640   -6.3630 C   0  0  0  0  0  0  0  0  0  0  0  0
    6.2270  -11.9850   -5.5430 C   0  0  0  0  0  0  0  0  0  0  0  0
    6.2260  -10.6190   -5.8570 C   0  0  0  0  0  0  0  0  0  0  0  0
    6.9330  -10.1340   -6.9610 C   0  0  0  0  0  0  0  0  0  0  0  0
    7.6600  -10.9960   -7.7900 C   0  0  0  0  0  0  0  0  0  0  0  0
    7.6380  -12.3480   -7.4520 C   0  0  0  0  0  0  0  0  0  0  0  0
    8.2640  -13.3410   -8.1320 O   0  0  0  0  0  0  0  0  0  0  0  0
    5.9040  -19.0350  -10.0330 N   0  0  0  0  0  0  0  0  0  0  0  0
    6.5720  -19.7400   -8.9480 C   0  0  0  0  0  0  0  0  0  0  0  0
    7.9570  -20.2130   -9.3530 C   0  0  0  0  0  0  0  0  0  0  0  0
    8.8090  -19.2960   -9.5490 O   0  0  0  0  0  0  0  0  0  0  0  0
    8.1210  -21.4670   -9.3810 O   0  0  0  0  0  0  0  0  0  0  0  0
    1.8232  -19.4061  -14.4684 H   0  0  0  0  0  0  0  0  0  0  0  0
    2.9919  -19.3260  -15.8302 H   0  0  0  0  0  0  0  0  0  0  0  0
    1.6967  -20.5706  -15.8302 H   0  0  0  0  0  0  0  0  0  0  0  0
    4.5893  -22.4026  -12.9988 H   0  0  0  0  0  0  0  0  0  0  0  0
    5.8655  -21.7678  -10.9430 H   0  0  0  0  0  0  0  0  0  0  0  0
    3.3755  -18.3016  -13.5896 H   0  0  0  0  0  0  0  0  0  0  0  0
    4.4673  -16.4695  -11.5148 H   0  0  0  0  0  0  0  0  0  0  0  0
    5.7404  -15.7099   -9.2548 H   0  0  0  0  0  0  0  0  0  0  0  0
    6.0374  -17.0114   -8.0825 H   0  0  0  0  0  0  0  0  0  0  0  0
    8.0360  -17.4160   -9.8540 H   0  0  0  0  0  0  0  0  0  0  0  0
    6.8306  -14.9899   -5.6541 H   0  0  0  0  0  0  0  0  0  0  0  0
    5.6694  -12.3613   -4.6726 H   0  0  0  0  0  0  0  0  0  0  0  0
    5.6605   -9.9182   -5.2253 H   0  0  0  0  0  0  0  0  0  0  0  0
    6.9177   -9.0565   -7.1820 H   0  0  0  0  0  0  0  0  0  0  0  0
    8.2191  -10.6261   -8.6621 H   0  0  0  0  0  0  0  0  0  0  0  0
    6.6647  -19.0623   -8.0865 H   0  0  0  0  0  0  0  0  0  0  0  0
    5.9695  -20.6239   -8.6918 H   0  0  0  0  0  0  0  0  0  0  0  0
  1  2  1  0
  2  3  1  0
  3  4  2  0
  4  5  1  0
  5  6  2  0
  6  7  1  0
  7  8  2  0
  7  9  1  0
  9 10  2  0
 10 11  1  0
 11 12  1  0
 12 13  1  0
 13 14  2  0
 13 15  2  0
 13 16  1  0
 16 17  2  0
 17 18  1  0
 18 19  2  0
 19 20  1  0
 20 21  2  0
 21 22  1  0
 22 23  2  0
 23 24  1  0
 10 25  1  0
 25 26  1  0
 26 27  1  0
 27 28  2  0
 27 29  1  0
  8  3  1  0
 24 16  1  0
 25  6  1  0
 23 18  1  0
  1 30  1  0
  1 31  1  0
  1 32  1  0
  4 33  1  0
  5 34  1  0
  8 35  1  0
  9 36  1  0
 11 37  1  0
 11 38  1  0
 12 39  1  0
 17 40  1  0
 19 41  1  0
 20 42  1  0
 21 43  1  0
 22 44  1  0
 26 45  1  0
 26 46  1  0
M  CHG  1  29  -1
M  END
>  <meeko>  (1) 
{"is_sidechain": [false], "free_energy": -9.418, "intermolecular_energy": -13.271, "internal_energy": -1.081}

$$$$
3ivg_ligand
     RDKit          3D

 46 49  0  0  0  0  0  0  0  0999 V2000
    4.7350  -22.9970  -13.4430 C   0  0  0  0  0  0  0  0  0  0  0  0
    3.9810  -21.7930  -13.4350 O   0  0  0  0  0  0  0  0  0  0  0  0
    4.4920  -20.7520  -12.7040 C   0  0  0  0  0  0  0  0  0  0  0  0
    4.0150  -19.4950  -13.0710 C   0  0  0  0  0  0  0  0  0  0  0  0
    4.4410  -18.3310  -12.4220 C   0  0  0  0  0  0  0  0  0  0  0  0
    5.3760  -18.4600  -11.3840 C   0  0  0  0  0  0  0  0  0  0  0  0
    5.8600  -19.7060  -10.9870 C   0  0  0  0  0  0  0  0  0  0  0  0
    5.4150  -20.8670  -11.6580 C   0  0  0  0  0  0  0  0  0  0  0  0
    6.7480  -19.4820   -9.9030 C   0  0  0  0  0  0  0  0  0  0  0  0
    6.7990  -18.1230   -9.6530 C   0  0  0  0  0  0  0  0  0  0  0  0
    7.5390  -17.3920   -8.5850 C   0  0  0  0  0  0  0  0  0  0  0  0
    6.6130  -17.2330   -7.4630 N   0  0  0  0  0  0  0  0  0  0  0  0
    7.2160  -16.4500   -6.1080 S   0  0  0  0  0  0  0  0  0  0  0  0
    6.2810  -16.6250   -5.0160 O   0  0  0  0  0  0  0  0  0  0  0  0
    8.5970  -16.8710   -5.9840 O   0  0  0  0  0  0  0  0  0  0  0  0
    7.2690  -14.6910   -6.4320 C   0  0  0  0  0  0  0  0  0  0  0  0
    7.9810  -13.9570   -7.3760 C   0  0  0  0  0  0  0  0  0  0  0  0
    7.6900  -12.5860   -7.1780 C   0  0  0  0  0  0  0  0  0  0  0  0
    8.0990  -11.3770   -7.7670 C   0  0  0  0  0  0  0  0  0  0  0  0
    7.5670  -10.1770   -7.2750 C   0  0  0  0  0  0  0  0  0  0  0  0
    6.6470  -10.1770   -6.2220 C   0  0  0  0  0  0  0  0  0  0  0  0
    6.2330  -11.3720   -5.6230 C   0  0  0  0  0  0  0  0  0  0  0  0
    6.7830  -12.5450   -6.1320 C   0  0  0  0  0  0  0  0  0  0  0  0
    6.5220  -13.7990   -5.6830 O   0  0  0  0  0  0  0  0  0  0  0  0
    5.9810  -17.5040  -10.5820 N   0  0  0  0  0  0  0  0  0  0  0  0
    5.8540  -16.0680  -10.7880 C   0  0  0  0  0  0  0  0  0  0  0  0
    4.5920  -15.5170  -10.1480 C   0  0  0  0  0  0  0  0  0  0  0  0
    4.0570  -14.5400  -10.7530 O   0  0  0  0  0  0  0  0  0  0  0  0
    4.1820  -16.1370   -9.1240 O   0  0  0  0  0  0  0  0  0  0  0  0
    4.9327  -23.3127  -12.4080 H   0  0  0  0  0  0  0  0  0  0  0  0
    4.1669  -23.7820  -13.9636 H   0  0  0  0  0  0  0  0  0  0  0  0
    5.6893  -22.8286  -13.9636 H   0  0  0  0  0  0  0  0  0  0  0  0
    3.2859  -19.4161  -13.8908 H   0  0  0  0  0  0  0  0  0  0  0  0
    4.0544  -17.3443  -12.7168 H   0  0  0  0  0  0  0  0  0  0  0  0
    5.7920  -21.8564  -11.3599 H   0  0  0  0  0  0  0  0  0  0  0  0
    7.3020  -20.2581   -9.3545 H   0  0  0  0  0  0  0  0  0  0  0  0
    8.4197  -17.9710   -8.2702 H   0  0  0  0  0  0  0  0  0  0  0  0
    7.8923  -16.4152   -8.9470 H   0  0  0  0  0  0  0  0  0  0  0  0
    5.7060  -16.8660   -7.7320 H   0  0  0  0  0  0  0  0  0  0  0  0
    8.6529  -14.3703   -8.1426 H   0  0  0  0  0  0  0  0  0  0  0  0
    8.8214  -11.3726   -8.5966 H   0  0  0  0  0  0  0  0  0  0  0  0
    7.8777   -9.2219   -7.7236 H   0  0  0  0  0  0  0  0  0  0  0  0
    6.2417   -9.2213   -5.8582 H   0  0  0  0  0  0  0  0  0  0  0  0
    5.5108  -11.3838   -4.7934 H   0  0  0  0  0  0  0  0  0  0  0  0
    6.7266  -15.5660  -10.3448 H   0  0  0  0  0  0  0  0  0  0  0  0
    5.7986  -15.8810  -11.8706 H   0  0  0  0  0  0  0  0  0  0  0  0
  1  2  1  0
  2  3  1  0
  3  4  2  0
  4  5  1  0
  5  6  2  0
  6  7  1  0
  7  8  2  0
  7  9  1  0
  9 10  2  0
 10 11  1  0
 11 12  1  0
 12 13  1  0
 13 14  2  0
 13 15  2  0
 13 16  1  0
 16 17  2  0
 17 18  1  0
 18 19  2  0
 19 20  1  0
 20 21  2  0
 21 22  1  0
 22 23  2  0
 23 24  1  0
 10 25  1  0
 25 26  1  0
 26 27  1  0
 27 28  2  0
 27 29  1  0
  8  3  1  0
 24 16  1  0
 25  6  1  0
 23 18  1  0
  1 30  1  0
  1 31  1  0
  1 32  1  0
  4 33  1  0
  5 34  1  0
  8 35  1  0
  9 36  1  0
 11 37  1  0
 11 38  1  0
 12 39  1  0
 17 40  1  0
 19 41  1  0
 20 42  1  0
 21 43  1  0
 22 44  1  0
 26 45  1  0
 26 46  1  0
M  CHG  1  29  -1
M  END
>  <meeko>  (2) 
{"is_sidechain": [false], "free_energy": -9.131, "intermolecular_energy": -12.87, "internal_energy": -1.078}

$$$$
3ivg_ligand
     RDKit          3D

 46 49  0  0  0  0  0  0  0  0999 V2000
    8.8100   -9.1420   -7.4550 C   0  0  0  0  0  0  0  0  0  0  0  0
    7.6360   -9.6700   -6.8560 O   0  0  0  0  0  0  0  0  0  0  0  0
    7.5120  -11.0350   -6.8460 C   0  0  0  0  0  0  0  0  0  0  0  0
    6.8220  -11.5480   -5.7480 C   0  0  0  0  0  0  0  0  0  0  0  0
    6.6130  -12.9220   -5.5900 C   0  0  0  0  0  0  0  0  0  0  0  0
    7.1250  -13.7830   -6.5720 C   0  0  0  0  0  0  0  0  0  0  0  0
    7.8080  -13.2980   -7.6860 C   0  0  0  0  0  0  0  0  0  0  0  0
    8.0070  -11.9060   -7.8240 C   0  0  0  0  0  0  0  0  0  0  0  0
    8.1530  -14.4190   -8.4860 C   0  0  0  0  0  0  0  0  0  0  0  0
    7.6870  -15.5610   -7.8600 C   0  0  0  0  0  0  0  0  0  0  0  0
    7.7480  -16.9760   -8.3250 C   0  0  0  0  0  0  0  0  0  0  0  0
    7.4790  -16.9600   -9.7640 N   0  0  0  0  0  0  0  0  0  0  0  0
    5.8770  -16.7630  -10.2180 S   0  0  0  0  0  0  0  0  0  0  0  0
    5.0600  -16.6980   -9.0250 O   0  0  0  0  0  0  0  0  0  0  0  0
    5.8660  -15.6910  -11.1920 O   0  0  0  0  0  0  0  0  0  0  0  0
    5.3430  -18.2270  -11.1000 C   0  0  0  0  0  0  0  0  0  0  0  0
    5.7480  -19.5540  -10.9990 C   0  0  0  0  0  0  0  0  0  0  0  0
    5.0300  -20.3080  -11.9580 C   0  0  0  0  0  0  0  0  0  0  0  0
    5.0050  -21.6530  -12.3630 C   0  0  0  0  0  0  0  0  0  0  0  0
    4.1230  -22.0290  -13.3860 C   0  0  0  0  0  0  0  0  0  0  0  0
    3.2840  -21.0900  -13.9940 C   0  0  0  0  0  0  0  0  0  0  0  0
    3.3000  -19.7460  -13.6040 C   0  0  0  0  0  0  0  0  0  0  0  0
    4.1900  -19.4050  -12.5880 C   0  0  0  0  0  0  0  0  0  0  0  0
    4.3660  -18.1590  -12.0790 O   0  0  0  0  0  0  0  0  0  0  0  0
    7.0870  -15.1660   -6.6770 N   0  0  0  0  0  0  0  0  0  0  0  0
    6.5960  -16.0510   -5.6300 C   0  0  0  0  0  0  0  0  0  0  0  0
    7.7150  -16.5140   -4.7140 C   0  0  0  0  0  0  0  0  0  0  0  0
    7.9360  -15.7760   -3.7080 O   0  0  0  0  0  0  0  0  0  0  0  0
    8.2520  -17.6170   -5.0220 O   0  0  0  0  0  0  0  0  0  0  0  0
    9.5122   -8.8262   -6.6694 H   0  0  0  0  0  0  0  0  0  0  0  0
    9.2821   -9.9145   -8.0798 H   0  0  0  0  0  0  0  0  0  0  0  0
    8.5453   -8.2763   -8.0798 H   0  0  0  0  0  0  0  0  0  0  0  0
    6.4326  -10.8551   -4.9876 H   0  0  0  0  0  0  0  0  0  0  0  0
    6.0638  -13.3155   -4.7220 H   0  0  0  0  0  0  0  0  0  0  0  0
    8.5481  -11.5086   -8.6954 H   0  0  0  0  0  0  0  0  0  0  0  0
    8.6980  -14.3851   -9.4409 H   0  0  0  0  0  0  0  0  0  0  0  0
    8.7461  -17.3958   -8.1309 H   0  0  0  0  0  0  0  0  0  0  0  0
    7.0135  -17.5985   -7.7929 H   0  0  0  0  0  0  0  0  0  0  0  0
    8.0920  -16.3410  -10.2870 H   0  0  0  0  0  0  0  0  0  0  0  0
    6.4963  -19.9488  -10.2960 H   0  0  0  0  0  0  0  0  0  0  0  0
    5.6632  -22.3952  -11.8877 H   0  0  0  0  0  0  0  0  0  0  0  0
    4.0906  -23.0781  -13.7151 H   0  0  0  0  0  0  0  0  0  0  0  0
    2.5998  -21.4132  -14.7924 H   0  0  0  0  0  0  0  0  0  0  0  0
    2.6445  -18.9985  -14.0748 H   0  0  0  0  0  0  0  0  0  0  0  0
    5.8455  -15.5133   -5.0320 H   0  0  0  0  0  0  0  0  0  0  0  0
    6.1568  -16.9382   -6.1096 H   0  0  0  0  0  0  0  0  0  0  0  0
  1  2  1  0
  2  3  1  0
  3  4  2  0
  4  5  1  0
  5  6  2  0
  6  7  1  0
  7  8  2  0
  7  9  1  0
  9 10  2  0
 10 11  1  0
 11 12  1  0
 12 13  1  0
 13 14  2  0
 13 15  2  0
 13 16  1  0
 16 17  2  0
 17 18  1  0
 18 19  2  0
 19 20  1  0
 20 21  2  0
 21 22  1  0
 22 23  2  0
 23 24  1  0
 10 25  1  0
 25 26  1  0
 26 27  1  0
 27 28  2  0
 27 29  1  0
  8  3  1  0
 24 16  1  0
 25  6  1  0
 23 18  1  0
  1 30  1  0
  1 31  1  0
  1 32  1  0
  4 33  1  0
  5 34  1  0
  8 35  1  0
  9 36  1  0
 11 37  1  0
 11 38  1  0
 12 39  1  0
 17 40  1  0
 19 41  1  0
 20 42  1  0
 21 43  1  0
 22 44  1  0
 26 45  1  0
 26 46  1  0
M  CHG  1  29  -1
M  END
>  <meeko>  (3) 
{"is_sidechain": [false], "free_energy": -8.898, "intermolecular_energy": -12.9, "internal_energy": -0.721}

$$$$
3ivg_ligand
     RDKit          3D

 46 49  0  0  0  0  0  0  0  0999 V2000
    9.0710   -9.3330   -6.8670 C   0  0  0  0  0  0  0  0  0  0  0  0
    7.7420   -9.7440   -6.5780 O   0  0  0  0  0  0  0  0  0  0  0  0
    7.4250  -11.0450   -6.8700 C   0  0  0  0  0  0  0  0  0  0  0  0
    6.3830  -11.1980   -7.7840 C   0  0  0  0  0  0  0  0  0  0  0  0
    5.9380  -12.4620   -8.1850 C   0  0  0  0  0  0  0  0  0  0  0  0
    6.5700  -13.5870   -7.6340 C   0  0  0  0  0  0  0  0  0  0  0  0
    7.6220  -13.4650   -6.7280 C   0  0  0  0  0  0  0  0  0  0  0  0
    8.0530  -12.1780   -6.3380 C   0  0  0  0  0  0  0  0  0  0  0  0
    8.0470  -14.7790   -6.4020 C   0  0  0  0  0  0  0  0  0  0  0  0
    7.2610  -15.6780   -7.1000 C   0  0  0  0  0  0  0  0  0  0  0  0
    7.3490  -17.1660   -7.1420 C   0  0  0  0  0  0  0  0  0  0  0  0
    8.1070  -17.5090   -8.3460 N   0  0  0  0  0  0  0  0  0  0  0  0
    8.2290  -19.1430   -8.7060 S   0  0  0  0  0  0  0  0  0  0  0  0
    9.5150  -19.3880   -9.3230 O   0  0  0  0  0  0  0  0  0  0  0  0
    7.8290  -19.8480   -7.5050 O   0  0  0  0  0  0  0  0  0  0  0  0
    7.0030  -19.5550   -9.9430 C   0  0  0  0  0  0  0  0  0  0  0  0
    6.5910  -20.7850  -10.4470 C   0  0  0  0  0  0  0  0  0  0  0  0
    5.6140  -20.5470  -11.4430 C   0  0  0  0  0  0  0  0  0  0  0  0
    4.8550  -21.3440  -12.3170 C   0  0  0  0  0  0  0  0  0  0  0  0
    3.9570  -20.7160  -13.1910 C   0  0  0  0  0  0  0  0  0  0  0  0
    3.8150  -19.3250  -13.1970 C   0  0  0  0  0  0  0  0  0  0  0  0
    4.5660  -18.5160  -12.3370 C   0  0  0  0  0  0  0  0  0  0  0  0
    5.4510  -19.1720  -11.4840 C   0  0  0  0  0  0  0  0  0  0  0  0
    6.2740  -18.5710  -10.5880 O   0  0  0  0  0  0  0  0  0  0  0  0
    6.3420  -14.9420   -7.8260 N   0  0  0  0  0  0  0  0  0  0  0  0
    5.2210  -15.4810   -8.5840 C   0  0  0  0  0  0  0  0  0  0  0  0
    5.4420  -15.3570  -10.0810 C   0  0  0  0  0  0  0  0  0  0  0  0
    6.6470  -15.4500  -10.4630 O   0  0  0  0  0  0  0  0  0  0  0  0
    4.3950  -15.2440  -10.7820 O   0  0  0  0  0  0  0  0  0  0  0  0
    9.6155   -9.1646   -5.9262 H   0  0  0  0  0  0  0  0  0  0  0  0
    9.5786  -10.1161   -7.4493 H   0  0  0  0  0  0  0  0  0  0  0  0
    9.0479   -8.4000   -7.4493 H   0  0  0  0  0  0  0  0  0  0  0  0
    5.8988  -10.3022   -8.2001 H   0  0  0  0  0  0  0  0  0  0  0  0
    5.1179  -12.5707   -8.9100 H   0  0  0  0  0  0  0  0  0  0  0  0
    8.8784  -12.0660   -5.6195 H   0  0  0  0  0  0  0  0  0  0  0  0
    8.8630  -15.0386   -5.7115 H   0  0  0  0  0  0  0  0  0  0  0  0
    7.8685  -17.5404   -6.2476 H   0  0  0  0  0  0  0  0  0  0  0  0
    6.3477  -17.6210   -7.1620 H   0  0  0  0  0  0  0  0  0  0  0  0
    7.8430  -16.9680   -9.1630 H   0  0  0  0  0  0  0  0  0  0  0  0
    6.9603  -21.7705  -10.1270 H   0  0  0  0  0  0  0  0  0  0  0  0
    4.9635  -22.4386  -12.3152 H   0  0  0  0  0  0  0  0  0  0  0  0
    3.3558  -21.3257  -13.8815 H   0  0  0  0  0  0  0  0  0  0  0  0
    3.0999  -18.8582  -13.8904 H   0  0  0  0  0  0  0  0  0  0  0  0
    4.4632  -17.4208  -12.3345 H   0  0  0  0  0  0  0  0  0  0  0  0
    5.0968  -16.5438   -8.3291 H   0  0  0  0  0  0  0  0  0  0  0  0
    4.3217  -14.9043   -8.3219 H   0  0  0  0  0  0  0  0  0  0  0  0
  1  2  1  0
  2  3  1  0
  3  4  2  0
  4  5  1  0
  5  6  2  0
  6  7  1  0
  7  8  2  0
  7  9  1  0
  9 10  2  0
 10 11  1  0
 11 12  1  0
 12 13  1  0
 13 14  2  0
 13 15  2  0
 13 16  1  0
 16 17  2  0
 17 18  1  0
 18 19  2  0
 19 20  1  0
 20 21  2  0
 21 22  1  0
 22 23  2  0
 23 24  1  0
 10 25  1  0
 25 26  1  0
 26 27  1  0
 27 28  2  0
 27 29  1  0
  8  3  1  0
 24 16  1  0
 25  6  1  0
 23 18  1  0
  1 30  1  0
  1 31  1  0
  1 32  1  0
  4 33  1  0
  5 34  1  0
  8 35  1  0
  9 36  1  0
 11 37  1  0
 11 38  1  0
 12 39  1  0
 17 40  1  0
 19 41  1  0
 20 42  1  0
 21 43  1  0
 22 44  1  0
 26 45  1  0
 26 46  1  0
M  CHG  1  29  -1
M  END
>  <meeko>  (4) 
{"is_sidechain": [false], "free_energy": -8.821, "intermolecular_energy": -12.397, "internal_energy": -1.114}

$$$$
3ivg_ligand
     RDKit          3D

 46 49  0  0  0  0  0  0  0  0999 V2000
    7.7560  -23.8900   -4.7420 C   0  0  0  0  0  0  0  0  0  0  0  0
    8.1470  -22.7970   -3.9230 O   0  0  0  0  0  0  0  0  0  0  0  0
    7.9750  -21.5420   -4.4500 C   0  0  0  0  0  0  0  0  0  0  0  0
    7.4140  -20.6160   -3.5720 C   0  0  0  0  0  0  0  0  0  0  0  0
    7.1720  -19.2930   -3.9580 C   0  0  0  0  0  0  0  0  0  0  0  0
    7.5070  -18.9180   -5.2680 C   0  0  0  0  0  0  0  0  0  0  0  0
    8.0810  -19.8200   -6.1620 C   0  0  0  0  0  0  0  0  0  0  0  0
    8.3150  -21.1500   -5.7500 C   0  0  0  0  0  0  0  0  0  0  0  0
    8.3230  -19.1130   -7.3690 C   0  0  0  0  0  0  0  0  0  0  0  0
    7.8990  -17.8070   -7.2040 C   0  0  0  0  0  0  0  0  0  0  0  0
    7.9900  -16.6640   -8.1560 C   0  0  0  0  0  0  0  0  0  0  0  0
    7.6320  -17.1840   -9.4750 N   0  0  0  0  0  0  0  0  0  0  0  0
    6.0840  -16.8340  -10.0180 S   0  0  0  0  0  0  0  0  0  0  0  0
    5.2060  -16.7160   -8.8730 O   0  0  0  0  0  0  0  0  0  0  0  0
    6.2290  -15.7480  -10.9650 O   0  0  0  0  0  0  0  0  0  0  0  0
    5.4750  -18.2270  -10.9640 C   0  0  0  0  0  0  0  0  0  0  0  0
    5.8080  -19.5770  -10.9210 C   0  0  0  0  0  0  0  0  0  0  0  0
    5.0530  -20.2480  -11.9120 C   0  0  0  0  0  0  0  0  0  0  0  0
    4.9570  -21.5710  -12.3770 C   0  0  0  0  0  0  0  0  0  0  0  0
    4.0590  -21.8540  -13.4160 C   0  0  0  0  0  0  0  0  0  0  0  0
    3.2740  -20.8450  -13.9820 C   0  0  0  0  0  0  0  0  0  0  0  0
    3.3620  -19.5220  -13.5340 C   0  0  0  0  0  0  0  0  0  0  0  0
    4.2650  -19.2750  -12.5030 C   0  0  0  0  0  0  0  0  0  0  0  0
    4.5070  -18.0640  -11.9390 O   0  0  0  0  0  0  0  0  0  0  0  0
    7.3740  -17.7050   -5.9270 N   0  0  0  0  0  0  0  0  0  0  0  0
    6.6740  -16.5510   -5.3800 C   0  0  0  0  0  0  0  0  0  0  0  0
    7.6350  -15.5400   -4.7830 C   0  0  0  0  0  0  0  0  0  0  0  0
    7.7630  -14.4600   -5.4340 O   0  0  0  0  0  0  0  0  0  0  0  0
    8.1460  -15.8600   -3.6710 O   0  0  0  0  0  0  0  0  0  0  0  0
    7.4537  -24.7350   -4.1060 H   0  0  0  0  0  0  0  0  0  0  0  0
    6.9101  -23.5881   -5.3771 H   0  0  0  0  0  0  0  0  0  0  0  0
    8.6014  -24.1932   -5.3771 H   0  0  0  0  0  0  0  0  0  0  0  0
    7.1553  -20.9330   -2.5509 H   0  0  0  0  0  0  0  0  0  0  0  0
    6.7326  -18.5691   -3.2560 H   0  0  0  0  0  0  0  0  0  0  0  0
    8.7621  -21.8742   -6.4469 H   0  0  0  0  0  0  0  0  0  0  0  0
    8.7719  -19.5329   -8.2812 H   0  0  0  0  0  0  0  0  0  0  0  0
    7.2908  -15.8680   -7.8601 H   0  0  0  0  0  0  0  0  0  0  0  0
    9.0028  -16.2349   -8.1622 H   0  0  0  0  0  0  0  0  0  0  0  0
    8.3280  -16.9960  -10.1910 H   0  0  0  0  0  0  0  0  0  0  0  0
    6.5322  -20.0419  -10.2359 H   0  0  0  0  0  0  0  0  0  0  0  0
    5.5735  -22.3676  -11.9350 H   0  0  0  0  0  0  0  0  0  0  0  0
    3.9709  -22.8843  -13.7910 H   0  0  0  0  0  0  0  0  0  0  0  0
    2.5750  -21.0953  -14.7936 H   0  0  0  0  0  0  0  0  0  0  0  0
    2.7504  -18.7199  -13.9729 H   0  0  0  0  0  0  0  0  0  0  0  0
    6.1025  -16.0665   -6.1854 H   0  0  0  0  0  0  0  0  0  0  0  0
    6.0074  -16.9035   -4.5791 H   0  0  0  0  0  0  0  0  0  0  0  0
  1  2  1  0
  2  3  1  0
  3  4  2  0
  4  5  1  0
  5  6  2  0
  6  7  1  0
  7  8  2  0
  7  9  1  0
  9 10  2  0
 10 11  1  0
 11 12  1  0
 12 13  1  0
 13 14  2  0
 13 15  2  0
 13 16  1  0
 16 17  2  0
 17 18  1  0
 18 19  2  0
 19 20  1  0
 20 21  2  0
 21 22  1  0
 22 23  2  0
 23 24  1  0
 10 25  1  0
 25 26  1  0
 26 27  1  0
 27 28  2  0
 27 29  1  0
  8  3  1  0
 24 16  1  0
 25  6  1  0
 23 18  1  0
  1 30  1  0
  1 31  1  0
  1 32  1  0
  4 33  1  0
  5 34  1  0
  8 35  1  0
  9 36  1  0
 11 37  1  0
 11 38  1  0
 12 39  1  0
 17 40  1  0
 19 41  1  0
 20 42  1  0
 21 43  1  0
 22 44  1  0
 26 45  1  0
 26 46  1  0
M  CHG  1  29  -1
M  END
>  <meeko>  (5) 
{"is_sidechain": [false], "free_energy": -8.722, "intermolecular_energy": -12.455, "internal_energy": -0.917}

$$$$
3ivg_ligand
     RDKit          3D

 46 49  0  0  0  0  0  0  0  0999 V2000
    7.7690  -24.0570   -4.0580 C   0  0  0  0  0  0  0  0  0  0  0  0
    7.7640  -22.8150   -3.3670 O   0  0  0  0  0  0  0  0  0  0  0  0
    7.9270  -21.6870   -4.1290 C   0  0  0  0  0  0  0  0  0  0  0  0
    8.7370  -21.8570   -5.2510 C   0  0  0  0  0  0  0  0  0  0  0  0
    9.0030  -20.8020   -6.1300 C   0  0  0  0  0  0  0  0  0  0  0  0
    8.4330  -19.5510   -5.8480 C   0  0  0  0  0  0  0  0  0  0  0  0
    7.6090  -19.3550   -4.7410 C   0  0  0  0  0  0  0  0  0  0  0  0
    7.3550  -20.4370   -3.8680 C   0  0  0  0  0  0  0  0  0  0  0  0
    7.1790  -18.0030   -4.7740 C   0  0  0  0  0  0  0  0  0  0  0  0
    7.7380  -17.3940   -5.8830 C   0  0  0  0  0  0  0  0  0  0  0  0
    7.5460  -16.0040   -6.3860 C   0  0  0  0  0  0  0  0  0  0  0  0
    6.5210  -16.0700   -7.4280 N   0  0  0  0  0  0  0  0  0  0  0  0
    6.7500  -15.0740   -8.7580 S   0  0  0  0  0  0  0  0  0  0  0  0
    8.0260  -15.3910   -9.3620 O   0  0  0  0  0  0  0  0  0  0  0  0
    5.5220  -15.1420   -9.5240 O   0  0  0  0  0  0  0  0  0  0  0  0
    6.8790  -13.3790   -8.1960 C   0  0  0  0  0  0  0  0  0  0  0  0
    5.9000  -12.4590   -7.8350 C   0  0  0  0  0  0  0  0  0  0  0  0
    6.5420  -11.2420   -7.5020 C   0  0  0  0  0  0  0  0  0  0  0  0
    6.1220   -9.9630   -7.0990 C   0  0  0  0  0  0  0  0  0  0  0  0
    7.0950   -8.9840   -6.8530 C   0  0  0  0  0  0  0  0  0  0  0  0
    8.4550   -9.2680   -7.0030 C   0  0  0  0  0  0  0  0  0  0  0  0
    8.8890  -10.5350   -7.4080 C   0  0  0  0  0  0  0  0  0  0  0  0
    7.8970  -11.4840   -7.6470 C   0  0  0  0  0  0  0  0  0  0  0  0
    8.1090  -12.7600   -8.0570 O   0  0  0  0  0  0  0  0  0  0  0  0
    8.5260  -18.3390   -6.5160 N   0  0  0  0  0  0  0  0  0  0  0  0
    9.4220  -18.0920   -7.6380 C   0  0  0  0  0  0  0  0  0  0  0  0
    8.9560  -18.8030   -8.8970 C   0  0  0  0  0  0  0  0  0  0  0  0
    9.7840  -19.6200   -9.3990 O   0  0  0  0  0  0  0  0  0  0  0  0
    7.7720  -18.5500   -9.2620 O   0  0  0  0  0  0  0  0  0  0  0  0
    7.7723  -24.8816   -3.3300 H   0  0  0  0  0  0  0  0  0  0  0  0
    6.8711  -24.1289   -4.6894 H   0  0  0  0  0  0  0  0  0  0  0  0
    8.6674  -24.1217   -4.6894 H   0  0  0  0  0  0  0  0  0  0  0  0
    9.1777  -22.8451   -5.4498 H   0  0  0  0  0  0  0  0  0  0  0  0
    9.6394  -20.9484   -7.0152 H   0  0  0  0  0  0  0  0  0  0  0  0
    6.7107  -20.2971   -2.9875 H   0  0  0  0  0  0  0  0  0  0  0  0
    6.5141  -17.5212   -4.0420 H   0  0  0  0  0  0  0  0  0  0  0  0
    7.2132  -15.3478   -5.5683 H   0  0  0  0  0  0  0  0  0  0  0  0
    8.4866  -15.5940   -6.7826 H   0  0  0  0  0  0  0  0  0  0  0  0
    6.2850  -17.0160   -7.7090 H   0  0  0  0  0  0  0  0  0  0  0  0
    4.8160  -12.6448   -7.8123 H   0  0  0  0  0  0  0  0  0  0  0  0
    5.0526   -9.7348   -6.9791 H   0  0  0  0  0  0  0  0  0  0  0  0
    6.7832   -7.9775   -6.5373 H   0  0  0  0  0  0  0  0  0  0  0  0
    9.1971   -8.4820   -6.7992 H   0  0  0  0  0  0  0  0  0  0  0  0
    9.9566  -10.7695   -7.5312 H   0  0  0  0  0  0  0  0  0  0  0  0
    9.4593  -17.0100   -7.8328 H   0  0  0  0  0  0  0  0  0  0  0  0
   10.4169  -18.4798   -7.3738 H   0  0  0  0  0  0  0  0  0  0  0  0
  1  2  1  0
  2  3  1  0
  3  4  2  0
  4  5  1  0
  5  6  2  0
  6  7  1  0
  7  8  2  0
  7  9  1  0
  9 10  2  0
 10 11  1  0
 11 12  1  0
 12 13  1  0
 13 14  2  0
 13 15  2  0
 13 16  1  0
 16 17  2  0
 17 18  1  0
 18 19  2  0
 19 20  1  0
 20 21  2  0
 21 22  1  0
 22 23  2  0
 23 24  1  0
 10 25  1  0
 25 26  1  0
 26 27  1  0
 27 28  2  0
 27 29  1  0
  8  3  1  0
 24 16  1  0
 25  6  1  0
 23 18  1  0
  1 30  1  0
  1 31  1  0
  1 32  1  0
  4 33  1  0
  5 34  1  0
  8 35  1  0
  9 36  1  0
 11 37  1  0
 11 38  1  0
 12 39  1  0
 17 40  1  0
 19 41  1  0
 20 42  1  0
 21 43  1  0
 22 44  1  0
 26 45  1  0
 26 46  1  0
M  CHG  1  29  -1
M  END
>  <meeko>  (6) 
{"is_sidechain": [false], "free_energy": -8.596, "intermolecular_energy": -12.1, "internal_energy": -1.096}

$$$$
3ivg_ligand
     RDKit          3D

 46 49  0  0  0  0  0  0  0  0999 V2000
    6.7920  -10.5680   -6.3730 C   0  0  0  0  0  0  0  0  0  0  0  0
    7.0760  -11.3130   -7.5490 O   0  0  0  0  0  0  0  0  0  0  0  0
    7.3390  -12.6480   -7.3820 C   0  0  0  0  0  0  0  0  0  0  0  0
    6.6690  -13.2430   -6.3140 C   0  0  0  0  0  0  0  0  0  0  0  0
    6.8310  -14.5980   -6.0090 C   0  0  0  0  0  0  0  0  0  0  0  0
    7.7010  -15.3530   -6.8100 C   0  0  0  0  0  0  0  0  0  0  0  0
    8.3750  -14.7880   -7.8920 C   0  0  0  0  0  0  0  0  0  0  0  0
    8.1950  -13.4170   -8.1800 C   0  0  0  0  0  0  0  0  0  0  0  0
    9.1320  -15.8240   -8.4990 C   0  0  0  0  0  0  0  0  0  0  0  0
    8.9190  -16.9930   -7.7920 C   0  0  0  0  0  0  0  0  0  0  0  0
    9.4400  -18.3630   -8.0660 C   0  0  0  0  0  0  0  0  0  0  0  0
    8.8170  -18.8110   -9.3110 N   0  0  0  0  0  0  0  0  0  0  0  0
    7.8190  -20.1550   -9.2020 S   0  0  0  0  0  0  0  0  0  0  0  0
    8.6040  -21.3400   -9.4750 O   0  0  0  0  0  0  0  0  0  0  0  0
    7.0900  -20.0100   -7.9580 O   0  0  0  0  0  0  0  0  0  0  0  0
    6.5900  -20.0690  -10.5000 C   0  0  0  0  0  0  0  0  0  0  0  0
    6.0400  -18.9790  -11.1680 C   0  0  0  0  0  0  0  0  0  0  0  0
    5.0760  -19.4650  -12.0830 C   0  0  0  0  0  0  0  0  0  0  0  0
    4.1830  -18.8870  -13.0020 C   0  0  0  0  0  0  0  0  0  0  0  0
    3.3570  -19.7320  -13.7570 C   0  0  0  0  0  0  0  0  0  0  0  0
    3.4160  -21.1200  -13.6040 C   0  0  0  0  0  0  0  0  0  0  0  0
    4.2970  -21.7110  -12.6900 C   0  0  0  0  0  0  0  0  0  0  0  0
    5.1010  -20.8430  -11.9540 C   0  0  0  0  0  0  0  0  0  0  0  0
    6.0060  -21.2140  -11.0130 O   0  0  0  0  0  0  0  0  0  0  0  0
    8.0670  -16.6900   -6.7440 N   0  0  0  0  0  0  0  0  0  0  0  0
    7.6960  -17.5850   -5.6570 C   0  0  0  0  0  0  0  0  0  0  0  0
    8.6790  -17.5040   -4.5020 C   0  0  0  0  0  0  0  0  0  0  0  0
    8.3440  -16.7310   -3.5550 O   0  0  0  0  0  0  0  0  0  0  0  0
    9.6840  -18.2680   -4.5840 O   0  0  0  0  0  0  0  0  0  0  0  0
    7.0245  -11.1778   -5.4875 H   0  0  0  0  0  0  0  0  0  0  0  0
    7.4051   -9.6548   -6.3605 H   0  0  0  0  0  0  0  0  0  0  0  0
    5.7266  -10.2946   -6.3605 H   0  0  0  0  0  0  0  0  0  0  0  0
    5.9959  -12.6311   -5.6956 H   0  0  0  0  0  0  0  0  0  0  0  0
    6.2929  -15.0578   -5.1670 H   0  0  0  0  0  0  0  0  0  0  0  0
    8.7245  -12.9558   -9.0267 H   0  0  0  0  0  0  0  0  0  0  0  0
    9.7786  -15.7153   -9.3822 H   0  0  0  0  0  0  0  0  0  0  0  0
   10.5340  -18.3367   -8.1781 H   0  0  0  0  0  0  0  0  0  0  0  0
    9.2042  -19.0478   -7.2380 H   0  0  0  0  0  0  0  0  0  0  0  0
    8.3770  -18.0640   -9.8400 H   0  0  0  0  0  0  0  0  0  0  0  0
    6.3079  -17.9236  -11.0120 H   0  0  0  0  0  0  0  0  0  0  0  0
    4.1332  -17.7952  -13.1262 H   0  0  0  0  0  0  0  0  0  0  0  0
    2.6522  -19.2960  -14.4803 H   0  0  0  0  0  0  0  0  0  0  0  0
    2.7590  -21.7592  -14.2121 H   0  0  0  0  0  0  0  0  0  0  0  0
    4.3514  -22.8019  -12.5600 H   0  0  0  0  0  0  0  0  0  0  0  0
    6.6953  -17.3085   -5.2934 H   0  0  0  0  0  0  0  0  0  0  0  0
    7.7047  -18.6150   -6.0429 H   0  0  0  0  0  0  0  0  0  0  0  0
  1  2  1  0
  2  3  1  0
  3  4  2  0
  4  5  1  0
  5  6  2  0
  6  7  1  0
  7  8  2  0
  7  9  1  0
  9 10  2  0
 10 11  1  0
 11 12  1  0
 12 13  1  0
 13 14  2  0
 13 15  2  0
 13 16  1  0
 16 17  2  0
 17 18  1  0
 18 19  2  0
 19 20  1  0
 20 21  2  0
 21 22  1  0
 22 23  2  0
 23 24  1  0
 10 25  1  0
 25 26  1  0
 26 27  1  0
 27 28  2  0
 27 29  1  0
  8  3  1  0
 24 16  1  0
 25  6  1  0
 23 18  1  0
  1 30  1  0
  1 31  1  0
  1 32  1  0
  4 33  1  0
  5 34  1  0
  8 35  1  0
  9 36  1  0
 11 37  1  0
 11 38  1  0
 12 39  1  0
 17 40  1  0
 19 41  1  0
 20 42  1  0
 21 43  1  0
 22 44  1  0
 26 45  1  0
 26 46  1  0
M  CHG  1  29  -1
M  END
>  <meeko>  (7) 
{"is_sidechain": [false], "free_energy": -8.252, "intermolecular_energy": -11.739, "internal_energy": -0.971}

$$$$
3ivg_ligand
     RDKit          3D

 46 49  0  0  0  0  0  0  0  0999 V2000
    7.7780  -24.0500   -4.4400 C   0  0  0  0  0  0  0  0  0  0  0  0
    7.7570  -22.8380   -3.6990 O   0  0  0  0  0  0  0  0  0  0  0  0
    7.9610  -21.6820   -4.4070 C   0  0  0  0  0  0  0  0  0  0  0  0
    8.8140  -21.8140   -5.5010 C   0  0  0  0  0  0  0  0  0  0  0  0
    9.1250  -20.7260   -6.3240 C   0  0  0  0  0  0  0  0  0  0  0  0
    8.5560  -19.4820   -6.0130 C   0  0  0  0  0  0  0  0  0  0  0  0
    7.6890  -19.3230   -4.9330 C   0  0  0  0  0  0  0  0  0  0  0  0
    7.3910  -20.4370   -4.1170 C   0  0  0  0  0  0  0  0  0  0  0  0
    7.2730  -17.9660   -4.9270 C   0  0  0  0  0  0  0  0  0  0  0  0
    7.8820  -17.3180   -5.9860 C   0  0  0  0  0  0  0  0  0  0  0  0
    7.7240  -15.9070   -6.4380 C   0  0  0  0  0  0  0  0  0  0  0  0
    6.4080  -15.8110   -7.0700 N   0  0  0  0  0  0  0  0  0  0  0  0
    6.3890  -15.3430   -8.6810 S   0  0  0  0  0  0  0  0  0  0  0  0
    5.5400  -14.1780   -8.8170 O   0  0  0  0  0  0  0  0  0  0  0  0
    7.7750  -15.3120   -9.1040 O   0  0  0  0  0  0  0  0  0  0  0  0
    5.6130  -16.6330   -9.6490 C   0  0  0  0  0  0  0  0  0  0  0  0
    4.6240  -17.5540   -9.3190 C   0  0  0  0  0  0  0  0  0  0  0  0
    4.3980  -18.3810  -10.4450 C   0  0  0  0  0  0  0  0  0  0  0  0
    3.5730  -19.4810  -10.7340 C   0  0  0  0  0  0  0  0  0  0  0  0
    3.6370  -20.0500  -12.0140 C   0  0  0  0  0  0  0  0  0  0  0  0
    4.5010  -19.5370  -12.9860 C   0  0  0  0  0  0  0  0  0  0  0  0
    5.3320  -18.4440  -12.7130 C   0  0  0  0  0  0  0  0  0  0  0  0
    5.2460  -17.9050  -11.4310 C   0  0  0  0  0  0  0  0  0  0  0  0
    5.9730  -16.8580  -10.9660 O   0  0  0  0  0  0  0  0  0  0  0  0
    8.6870  -18.2440   -6.6260 N   0  0  0  0  0  0  0  0  0  0  0  0
    9.6300  -17.9610   -7.7000 C   0  0  0  0  0  0  0  0  0  0  0  0
    9.3480  -18.8030   -8.9320 C   0  0  0  0  0  0  0  0  0  0  0  0
    8.1360  -18.8410   -9.3000 O   0  0  0  0  0  0  0  0  0  0  0  0
   10.3630  -19.3130   -9.4900 O   0  0  0  0  0  0  0  0  0  0  0  0
    7.7928  -24.9036   -3.7464 H   0  0  0  0  0  0  0  0  0  0  0  0
    6.8807  -24.1079   -5.0737 H   0  0  0  0  0  0  0  0  0  0  0  0
    8.6767  -24.0768   -5.0737 H   0  0  0  0  0  0  0  0  0  0  0  0
    9.2536  -22.7976   -5.7230 H   0  0  0  0  0  0  0  0  0  0  0  0
    9.7952  -20.8425   -7.1885 H   0  0  0  0  0  0  0  0  0  0  0  0
    6.7138  -20.3264   -3.2573 H   0  0  0  0  0  0  0  0  0  0  0  0
    6.5833  -17.5076   -4.2030 H   0  0  0  0  0  0  0  0  0  0  0  0
    7.7814  -15.2248   -5.5770 H   0  0  0  0  0  0  0  0  0  0  0  0
    8.5215  -15.6261   -7.1417 H   0  0  0  0  0  0  0  0  0  0  0  0
    5.8190  -16.6230   -6.9130 H   0  0  0  0  0  0  0  0  0  0  0  0
    4.1072  -17.6268   -8.3507 H   0  0  0  0  0  0  0  0  0  0  0  0
    2.8913  -19.8872   -9.9722 H   0  0  0  0  0  0  0  0  0  0  0  0
    2.9984  -20.9121  -12.2567 H   0  0  0  0  0  0  0  0  0  0  0  0
    4.5283  -20.0005  -13.9832 H   0  0  0  0  0  0  0  0  0  0  0  0
    6.0161  -18.0328  -13.4699 H   0  0  0  0  0  0  0  0  0  0  0  0
    9.5538  -16.8974   -7.9701 H   0  0  0  0  0  0  0  0  0  0  0  0
   10.6409  -18.2055   -7.3418 H   0  0  0  0  0  0  0  0  0  0  0  0
  1  2  1  0
  2  3  1  0
  3  4  2  0
  4  5  1  0
  5  6  2  0
  6  7  1  0
  7  8  2  0
  7  9  1  0
  9 10  2  0
 10 11  1  0
 11 12  1  0
 12 13  1  0
 13 14  2  0
 13 15  2  0
 13 16  1  0
 16 17  2  0
 17 18  1  0
 18 19  2  0
 19 20  1  0
 20 21  2  0
 21 22  1  0
 22 23  2  0
 23 24  1  0
 10 25  1  0
 25 26  1  0
 26 27  1  0
 27 28  2  0
 27 29  1  0
  8  3  1  0
 24 16  1  0
 25  6  1  0
 23 18  1  0
  1 30  1  0
  1 31  1  0
  1 32  1  0
  4 33  1  0
  5 34  1  0
  8 35  1  0
  9 36  1  0
 11 37  1  0
 11 38  1  0
 12 39  1  0
 17 40  1  0
 19 41  1  0
 20 42  1  0
 21 43  1  0
 22 44  1  0
 26 45  1  0
 26 46  1  0
M  CHG  1  29  -1
M  END
>  <meeko>  (8) 
{"is_sidechain": [false], "free_energy": -7.966, "intermolecular_energy": -11.224, "internal_energy": -1.082}

$$$$
3ivg_ligand
     RDKit          3D

 46 49  0  0  0  0  0  0  0  0999 V2000
    4.0240  -18.1590   -2.2190 C   0  0  0  0  0  0  0  0  0  0  0  0
    5.4230  -18.4100   -2.2000 O   0  0  0  0  0  0  0  0  0  0  0  0
    6.1090  -18.1540   -3.3590 C   0  0  0  0  0  0  0  0  0  0  0  0
    7.1200  -19.0680   -3.6500 C   0  0  0  0  0  0  0  0  0  0  0  0
    7.9130  -18.9450   -4.7950 C   0  0  0  0  0  0  0  0  0  0  0  0
    7.6670  -17.8620   -5.6520 C   0  0  0  0  0  0  0  0  0  0  0  0
    6.6550  -16.9390   -5.3930 C   0  0  0  0  0  0  0  0  0  0  0  0
    5.8680  -17.0840   -4.2290 C   0  0  0  0  0  0  0  0  0  0  0  0
    6.6560  -16.0060   -6.4630 C   0  0  0  0  0  0  0  0  0  0  0  0
    7.6550  -16.3620   -7.3510 C   0  0  0  0  0  0  0  0  0  0  0  0
    8.0180  -15.7350   -8.6540 C   0  0  0  0  0  0  0  0  0  0  0  0
    7.5230  -16.6260   -9.7040 N   0  0  0  0  0  0  0  0  0  0  0  0
    6.0080  -16.2680  -10.3290 S   0  0  0  0  0  0  0  0  0  0  0  0
    5.0860  -16.0720   -9.2310 O   0  0  0  0  0  0  0  0  0  0  0  0
    6.2210  -15.2340  -11.3220 O   0  0  0  0  0  0  0  0  0  0  0  0
    5.4040  -17.6910  -11.2310 C   0  0  0  0  0  0  0  0  0  0  0  0
    4.4330  -17.8010  -12.2210 C   0  0  0  0  0  0  0  0  0  0  0  0
    4.3140  -19.1670  -12.5710 C   0  0  0  0  0  0  0  0  0  0  0  0
    3.5160  -19.9110  -13.4570 C   0  0  0  0  0  0  0  0  0  0  0  0
    3.7010  -21.2990  -13.5230 C   0  0  0  0  0  0  0  0  0  0  0  0
    4.6590  -21.9350  -12.7270 C   0  0  0  0  0  0  0  0  0  0  0  0
    5.4590  -21.2090  -11.8380 C   0  0  0  0  0  0  0  0  0  0  0  0
    5.2470  -19.8330  -11.7940 C   0  0  0  0  0  0  0  0  0  0  0  0
    5.9070  -18.9590  -10.9930 O   0  0  0  0  0  0  0  0  0  0  0  0
    8.2870  -17.4780   -6.8330 N   0  0  0  0  0  0  0  0  0  0  0  0
    9.4950  -18.0990   -7.3590 C   0  0  0  0  0  0  0  0  0  0  0  0
    9.1890  -19.3920   -8.0940 C   0  0  0  0  0  0  0  0  0  0  0  0
    8.6260  -19.2570   -9.2210 O   0  0  0  0  0  0  0  0  0  0  0  0
    9.5910  -20.4500   -7.5300 O   0  0  0  0  0  0  0  0  0  0  0  0
    3.6495  -18.0918   -1.1869 H   0  0  0  0  0  0  0  0  0  0  0  0
    3.8286  -17.2114   -2.7424 H   0  0  0  0  0  0  0  0  0  0  0  0
    3.5113  -18.9795   -2.7424 H   0  0  0  0  0  0  0  0  0  0  0  0
    7.2986  -19.9072   -2.9617 H   0  0  0  0  0  0  0  0  0  0  0  0
    8.7054  -19.6750   -5.0169 H   0  0  0  0  0  0  0  0  0  0  0  0
    5.0700  -16.3600   -4.0073 H   0  0  0  0  0  0  0  0  0  0  0  0
    5.9778  -15.1463   -6.5680 H   0  0  0  0  0  0  0  0  0  0  0  0
    7.5455  -14.7456   -8.7429 H   0  0  0  0  0  0  0  0  0  0  0  0
    9.1060  -15.5951   -8.7354 H   0  0  0  0  0  0  0  0  0  0  0  0
    8.1970  -16.8030  -10.4420 H   0  0  0  0  0  0  0  0  0  0  0  0
    3.8577  -16.9705  -12.6562 H   0  0  0  0  0  0  0  0  0  0  0  0
    2.7620  -19.4145  -14.0855 H   0  0  0  0  0  0  0  0  0  0  0  0
    3.0840  -21.8963  -14.2105 H   0  0  0  0  0  0  0  0  0  0  0  0
    4.7857  -23.0252  -12.8012 H   0  0  0  0  0  0  0  0  0  0  0  0
    6.2154  -21.6989  -11.2072 H   0  0  0  0  0  0  0  0  0  0  0  0
    9.9808  -17.3997   -8.0554 H   0  0  0  0  0  0  0  0  0  0  0  0
   10.1555  -18.3350   -6.5116 H   0  0  0  0  0  0  0  0  0  0  0  0
  1  2  1  0
  2  3  1  0
  3  4  2  0
  4  5  1  0
  5  6  2  0
  6  7  1  0
  7  8  2  0
  7  9  1  0
  9 10  2  0
 10 11  1  0
 11 12  1  0
 12 13  1  0
 13 14  2  0
 13 15  2  0
 13 16  1  0
 16 17  2  0
 17 18  1  0
 18 19  2  0
 19 20  1  0
 20 21  2  0
 21 22  1  0
 22 23  2  0
 23 24  1  0
 10 25  1  0
 25 26  1  0
 26 27  1  0
 27 28  2  0
 27 29  1  0
  8  3  1  0
 24 16  1  0
 25  6  1  0
 23 18  1  0
  1 30  1  0
  1 31  1  0
  1 32  1  0
  4 33  1  0
  5 34  1  0
  8 35  1  0
  9 36  1  0
 11 37  1  0
 11 38  1  0
 12 39  1  0
 17 40  1  0
 19 41  1  0
 20 42  1  0
 21 43  1  0
 22 44  1  0
 26 45  1  0
 26 46  1  0
M  CHG  1  29  -1
M  END
>  <meeko>  (9) 
{"is_sidechain": [false], "free_energy": -7.851, "intermolecular_energy": -11.223, "internal_energy": -0.922}

$$$$
