3n76_ligand
     RDKit          3D

 39 40  0  0  0  0  0  0  0  0999 V2000
   23.0870  -24.1580   -1.9450 O   0  0  0  0  0  0  0  0  0  0  0  0
   23.8650  -23.2260   -2.3280 C   0  0  0  0  0  0  0  0  0  0  0  0
   24.9210  -22.7810   -1.7990 O   0  0  0  0  0  0  0  0  0  0  0  0
   23.3860  -22.5450   -3.6700 C   0  0  2  0  0  0  0  0  0  0  0  0
   24.3940  -21.5980   -4.1000 O   0  0  0  0  0  0  0  0  0  0  0  0
   22.1370  -21.7400   -3.4250 C   0  0  0  0  0  0  0  0  0  0  0  0
   21.0810  -21.7190   -4.2610 C   0  0  0  0  0  0  0  0  0  0  0  0
   19.8630  -20.9840   -3.9490 C   0  0  0  0  0  0  0  0  0  0  0  0
   18.6210  -21.4920   -4.0210 C   0  0  0  0  0  0  0  0  0  0  0  0
   17.3760  -20.7080   -3.7430 C   0  0  0  0  0  0  0  0  0  0  0  0
   17.6490  -19.8180   -2.6630 O   0  0  0  0  0  0  0  0  0  0  0  0
   17.0940  -20.1200   -1.4500 C   0  0  0  0  0  0  0  0  0  0  0  0
   17.7780  -20.2610   -0.2430 C   0  0  0  0  0  0  0  0  0  0  0  0
   17.0790  -20.5730    0.9290 C   0  0  0  0  0  0  0  0  0  0  0  0
   15.6960  -20.7450    0.8970 C   0  0  0  0  0  0  0  0  0  0  0  0
   15.0080  -20.6050   -0.3060 C   0  0  0  0  0  0  0  0  0  0  0  0
   15.7070  -20.2940   -1.4730 C   0  0  0  0  0  0  0  0  0  0  0  0
   21.1200  -22.4430   -5.5940 C   0  0  1  0  0  0  0  0  0  0  0  0
   20.7120  -21.5410   -6.6380 O   0  0  0  0  0  0  0  0  0  0  0  0
   22.5060  -23.0380   -5.9650 C   0  0  2  0  0  0  0  0  0  0  0  0
   22.3570  -24.0730   -6.9550 O   0  0  0  0  0  0  0  0  0  0  0  0
   23.2180  -23.6150   -4.7460 C   0  0  0  0  0  0  0  0  0  0  0  0
   24.3270  -21.6750   -5.0860 H   0  0  0  0  0  0  0  0  0  0  0  0
   22.0839  -21.1332   -2.5091 H   0  0  0  0  0  0  0  0  0  0  0  0
   19.9674  -19.9361   -3.6311 H   0  0  0  0  0  0  0  0  0  0  0  0
   18.5122  -22.5500   -4.3017 H   0  0  0  0  0  0  0  0  0  0  0  0
   17.0887  -20.1341   -4.6364 H   0  0  0  0  0  0  0  0  0  0  0  0
   16.5485  -21.3840   -3.4819 H   0  0  0  0  0  0  0  0  0  0  0  0
   18.8693  -20.1267   -0.2118 H   0  0  0  0  0  0  0  0  0  0  0  0
   17.6230  -20.6829    1.8787 H   0  0  0  0  0  0  0  0  0  0  0  0
   15.1494  -20.9907    1.8194 H   0  0  0  0  0  0  0  0  0  0  0  0
   13.9166  -20.7392   -0.3360 H   0  0  0  0  0  0  0  0  0  0  0  0
   15.1607  -20.1845   -2.4215 H   0  0  0  0  0  0  0  0  0  0  0  0
   20.4313  -23.2947   -5.4924 H   0  0  0  0  0  0  0  0  0  0  0  0
   21.4100  -21.6030   -7.3140 H   0  0  0  0  0  0  0  0  0  0  0  0
   23.1150  -22.2158   -6.3688 H   0  0  0  0  0  0  0  0  0  0  0  0
   22.0610  -24.8710   -6.4840 H   0  0  0  0  0  0  0  0  0  0  0  0
   22.6241  -24.4470   -4.3398 H   0  0  0  0  0  0  0  0  0  0  0  0
   24.2125  -23.9730   -5.0507 H   0  0  0  0  0  0  0  0  0  0  0  0
  1  2  2  0
  2  3  1  0
  2  4  1  0
  4  5  1  6
  4  6  1  0
  6  7  2  0
  7  8  1  0
  8  9  2  0
  9 10  1  0
 10 11  1  0
 11 12  1  0
 12 13  2  0
 13 14  1  0
 14 15  2  0
 15 16  1  0
 16 17  2  0
  7 18  1  0
 18 19  1  0
 18 20  1  0
 20 21  1  0
 20 22  1  0
 22  4  1  0
 17 12  1  0
  5 23  1  0
  6 24  1  0
  8 25  1  0
  9 26  1  0
 10 27  1  0
 10 28  1  0
 13 29  1  0
 14 30  1  0
 15 31  1  0
 16 32  1  0
 17 33  1  0
 18 34  1  1
 19 35  1  0
 20 36  1  6
 21 37  1  0
 22 38  1  0
 22 39  1  0
M  CHG  1   3  -1
M  END
>  <meeko>  (1) 
{"is_sidechain": [false], "free_energy": -5.86, "intermolecular_energy": -8.087, "internal_energy": -0.611}

$$$$
3n76_ligand
     RDKit          3D

 39 40  0  0  0  0  0  0  0  0999 V2000
   18.4750  -20.5440   -1.3440 O   0  0  0  0  0  0  0  0  0  0  0  0
   18.8860  -21.7490   -1.3250 C   0  0  0  0  0  0  0  0  0  0  0  0
   18.8390  -22.6080   -0.4010 O   0  0  0  0  0  0  0  0  0  0  0  0
   19.5570  -22.1850   -2.6860 C   0  0  2  0  0  0  0  0  0  0  0  0
   18.7290  -23.1940   -3.3140 O   0  0  0  0  0  0  0  0  0  0  0  0
   20.8850  -22.8440   -2.4200 C   0  0  0  0  0  0  0  0  0  0  0  0
   21.9940  -22.6210   -3.1510 C   0  0  0  0  0  0  0  0  0  0  0  0
   23.2770  -23.2240   -2.8130 C   0  0  0  0  0  0  0  0  0  0  0  0
   24.3650  -22.5410   -2.4190 C   0  0  0  0  0  0  0  0  0  0  0  0
   25.6900  -23.1720   -2.1220 C   0  0  0  0  0  0  0  0  0  0  0  0
   25.8950  -24.2240   -3.0630 O   0  0  0  0  0  0  0  0  0  0  0  0
   26.7340  -23.9670   -4.1130 C   0  0  0  0  0  0  0  0  0  0  0  0
   26.3540  -23.7580   -5.4380 C   0  0  0  0  0  0  0  0  0  0  0  0
   27.3240  -23.5020   -6.4150 C   0  0  0  0  0  0  0  0  0  0  0  0
   28.6730  -23.4560   -6.0700 C   0  0  0  0  0  0  0  0  0  0  0  0
   29.0580  -23.6640   -4.7470 C   0  0  0  0  0  0  0  0  0  0  0  0
   28.0890  -23.9190   -3.7750 C   0  0  0  0  0  0  0  0  0  0  0  0
   21.9550  -21.7460   -4.3900 C   0  0  1  0  0  0  0  0  0  0  0  0
   22.5650  -22.4480   -5.4880 O   0  0  0  0  0  0  0  0  0  0  0  0
   20.5310  -21.2950   -4.8170 C   0  0  2  0  0  0  0  0  0  0  0  0
   20.6080  -20.1320   -5.6640 O   0  0  0  0  0  0  0  0  0  0  0  0
   19.6540  -20.9750   -3.6110 C   0  0  0  0  0  0  0  0  0  0  0  0
   18.2240  -23.5450   -2.5360 H   0  0  0  0  0  0  0  0  0  0  0  0
   20.9532  -23.5494   -1.5787 H   0  0  0  0  0  0  0  0  0  0  0  0
   23.3608  -24.3184   -2.8858 H   0  0  0  0  0  0  0  0  0  0  0  0
   24.2768  -21.4502   -2.3077 H   0  0  0  0  0  0  0  0  0  0  0  0
   26.4904  -22.4235   -2.2179 H   0  0  0  0  0  0  0  0  0  0  0  0
   25.7047  -23.5675   -1.0957 H   0  0  0  0  0  0  0  0  0  0  0  0
   25.2904  -23.7943   -5.7164 H   0  0  0  0  0  0  0  0  0  0  0  0
   27.0196  -23.3366   -7.4590 H   0  0  0  0  0  0  0  0  0  0  0  0
   29.4325  -23.2559   -6.8402 H   0  0  0  0  0  0  0  0  0  0  0  0
   30.1218  -23.6274   -4.4695 H   0  0  0  0  0  0  0  0  0  0  0  0
   28.3955  -24.0840   -2.7315 H   0  0  0  0  0  0  0  0  0  0  0  0
   22.5068  -20.8311   -4.1284 H   0  0  0  0  0  0  0  0  0  0  0  0
   22.9440  -21.7520   -6.0540 H   0  0  0  0  0  0  0  0  0  0  0  0
   20.0761  -22.1319   -5.3672 H   0  0  0  0  0  0  0  0  0  0  0  0
   20.2100  -20.3800   -6.5160 H   0  0  0  0  0  0  0  0  0  0  0  0
   20.0921  -20.1308   -3.0584 H   0  0  0  0  0  0  0  0  0  0  0  0
   18.6451  -20.7142   -3.9633 H   0  0  0  0  0  0  0  0  0  0  0  0
  1  2  2  0
  2  3  1  0
  2  4  1  0
  4  5  1  6
  4  6  1  0
  6  7  2  0
  7  8  1  0
  8  9  2  0
  9 10  1  0
 10 11  1  0
 11 12  1  0
 12 13  2  0
 13 14  1  0
 14 15  2  0
 15 16  1  0
 16 17  2  0
  7 18  1  0
 18 19  1  0
 18 20  1  0
 20 21  1  0
 20 22  1  0
 22  4  1  0
 17 12  1  0
  5 23  1  0
  6 24  1  0
  8 25  1  0
  9 26  1  0
 10 27  1  0
 10 28  1  0
 13 29  1  0
 14 30  1  0
 15 31  1  0
 16 32  1  0
 17 33  1  0
 18 34  1  1
 19 35  1  0
 20 36  1  6
 21 37  1  0
 22 38  1  0
 22 39  1  0
M  CHG  1   3  -1
M  END
>  <meeko>  (2) 
{"is_sidechain": [false], "free_energy": -5.763, "intermolecular_energy": -7.884, "internal_energy": -0.681}

$$$$
3n76_ligand
     RDKit          3D

 39 40  0  0  0  0  0  0  0  0999 V2000
   24.5040  -23.0840   -4.6340 O   0  0  0  0  0  0  0  0  0  0  0  0
   23.3580  -23.3520   -4.1470 C   0  0  0  0  0  0  0  0  0  0  0  0
   22.9090  -24.4350   -3.6790 O   0  0  0  0  0  0  0  0  0  0  0  0
   22.3830  -22.1100   -4.1620 C   0  0  2  0  0  0  0  0  0  0  0  0
   23.1720  -20.8960   -4.2120 O   0  0  0  0  0  0  0  0  0  0  0  0
   21.6050  -22.0480   -2.8740 C   0  0  0  0  0  0  0  0  0  0  0  0
   20.2920  -21.7570   -2.8030 C   0  0  0  0  0  0  0  0  0  0  0  0
   19.5620  -21.7790   -1.5420 C   0  0  0  0  0  0  0  0  0  0  0  0
   18.5870  -22.6520   -1.2360 C   0  0  0  0  0  0  0  0  0  0  0  0
   17.8140  -22.6320    0.0460 C   0  0  0  0  0  0  0  0  0  0  0  0
   17.7170  -21.2760    0.4780 O   0  0  0  0  0  0  0  0  0  0  0  0
   16.4630  -20.7850    0.7160 C   0  0  0  0  0  0  0  0  0  0  0  0
   15.4380  -20.6540   -0.2210 C   0  0  0  0  0  0  0  0  0  0  0  0
   14.1970  -20.1330    0.1630 C   0  0  0  0  0  0  0  0  0  0  0  0
   13.9770  -19.7420    1.4830 C   0  0  0  0  0  0  0  0  0  0  0  0
   14.9980  -19.8710    2.4230 C   0  0  0  0  0  0  0  0  0  0  0  0
   16.2350  -20.3900    2.0370 C   0  0  0  0  0  0  0  0  0  0  0  0
   19.5080  -21.3570   -4.0390 C   0  0  1  0  0  0  0  0  0  0  0  0
   18.7850  -20.1420   -3.7730 O   0  0  0  0  0  0  0  0  0  0  0  0
   20.3730  -21.1540   -5.3140 C   0  0  2  0  0  0  0  0  0  0  0  0
   19.5530  -21.2510   -6.4940 O   0  0  0  0  0  0  0  0  0  0  0  0
   21.4970  -22.1790   -5.4030 C   0  0  0  0  0  0  0  0  0  0  0  0
   24.0280  -21.2340   -4.5790 H   0  0  0  0  0  0  0  0  0  0  0  0
   22.1410  -22.2526   -1.9355 H   0  0  0  0  0  0  0  0  0  0  0  0
   19.8283  -21.0262   -0.7854 H   0  0  0  0  0  0  0  0  0  0  0  0
   18.3416  -23.4301   -1.9738 H   0  0  0  0  0  0  0  0  0  0  0  0
   16.8077  -23.0450   -0.1178 H   0  0  0  0  0  0  0  0  0  0  0  0
   18.3205  -23.2419    0.8085 H   0  0  0  0  0  0  0  0  0  0  0  0
   15.6054  -20.9608   -1.2640 H   0  0  0  0  0  0  0  0  0  0  0  0
   13.3920  -20.0316   -0.5797 H   0  0  0  0  0  0  0  0  0  0  0  0
   13.0006  -19.3329    1.7817 H   0  0  0  0  0  0  0  0  0  0  0  0
   14.8295  -19.5647    3.4660 H   0  0  0  0  0  0  0  0  0  0  0  0
   17.0393  -20.4892    2.7809 H   0  0  0  0  0  0  0  0  0  0  0  0
   18.8326  -22.1990   -4.2509 H   0  0  0  0  0  0  0  0  0  0  0  0
   17.8600  -20.3420   -4.0040 H   0  0  0  0  0  0  0  0  0  0  0  0
   20.8203  -20.1512   -5.2480 H   0  0  0  0  0  0  0  0  0  0  0  0
   18.7720  -20.6920   -6.3390 H   0  0  0  0  0  0  0  0  0  0  0  0
   21.0627  -23.1865   -5.4821 H   0  0  0  0  0  0  0  0  0  0  0  0
   22.1094  -21.9593   -6.2900 H   0  0  0  0  0  0  0  0  0  0  0  0
  1  2  2  0
  2  3  1  0
  2  4  1  0
  4  5  1  6
  4  6  1  0
  6  7  2  0
  7  8  1  0
  8  9  2  0
  9 10  1  0
 10 11  1  0
 11 12  1  0
 12 13  2  0
 13 14  1  0
 14 15  2  0
 15 16  1  0
 16 17  2  0
  7 18  1  0
 18 19  1  0
 18 20  1  0
 20 21  1  0
 20 22  1  0
 22  4  1  0
 17 12  1  0
  5 23  1  0
  6 24  1  0
  8 25  1  0
  9 26  1  0
 10 27  1  0
 10 28  1  0
 13 29  1  0
 14 30  1  0
 15 31  1  0
 16 32  1  0
 17 33  1  0
 18 34  1  6
 19 35  1  0
 20 36  1  1
 21 37  1  0
 22 38  1  0
 22 39  1  0
M  CHG  1   3  -1
M  END
>  <meeko>  (3) 
{"is_sidechain": [false], "free_energy": -5.734, "intermolecular_energy": -7.963, "internal_energy": -0.561}

$$$$
3n76_ligand
     RDKit          3D

 39 40  0  0  0  0  0  0  0  0999 V2000
   18.6590  -21.8790   -6.9790 O   0  0  0  0  0  0  0  0  0  0  0  0
   19.5950  -22.6200   -6.5390 C   0  0  0  0  0  0  0  0  0  0  0  0
   19.8590  -23.8290   -6.7870 O   0  0  0  0  0  0  0  0  0  0  0  0
   20.5410  -21.8680   -5.5220 C   0  0  2  0  0  0  0  0  0  0  0  0
   20.6530  -20.4810   -5.9260 O   0  0  0  0  0  0  0  0  0  0  0  0
   21.9340  -22.4350   -5.5940 C   0  0  0  0  0  0  0  0  0  0  0  0
   22.7040  -22.6780   -4.5160 C   0  0  0  0  0  0  0  0  0  0  0  0
   24.0180  -23.2960   -4.6270 C   0  0  0  0  0  0  0  0  0  0  0  0
   24.9130  -23.0270   -5.5930 C   0  0  0  0  0  0  0  0  0  0  0  0
   26.2400  -23.7080   -5.7200 C   0  0  0  0  0  0  0  0  0  0  0  0
   26.3470  -24.6630   -4.6660 O   0  0  0  0  0  0  0  0  0  0  0  0
   27.2980  -24.4330   -3.7100 C   0  0  0  0  0  0  0  0  0  0  0  0
   27.2540  -23.4470   -2.7250 C   0  0  0  0  0  0  0  0  0  0  0  0
   28.3030  -23.3250   -1.8050 C   0  0  0  0  0  0  0  0  0  0  0  0
   29.3970  -24.1860   -1.8690 C   0  0  0  0  0  0  0  0  0  0  0  0
   29.4450  -25.1730   -2.8520 C   0  0  0  0  0  0  0  0  0  0  0  0
   28.3990  -25.2930   -3.7680 C   0  0  0  0  0  0  0  0  0  0  0  0
   22.2480  -22.2870   -3.1220 C   0  0  1  0  0  0  0  0  0  0  0  0
   23.2900  -21.5390   -2.4720 O   0  0  0  0  0  0  0  0  0  0  0  0
   20.9370  -21.4540   -3.0820 C   0  0  2  0  0  0  0  0  0  0  0  0
   20.3340  -21.5340   -1.7770 O   0  0  0  0  0  0  0  0  0  0  0  0
   19.9320  -21.9310   -4.1240 C   0  0  0  0  0  0  0  0  0  0  0  0
   20.7700  -20.0310   -5.0510 H   0  0  0  0  0  0  0  0  0  0  0  0
   22.3478  -22.6646   -6.5870 H   0  0  0  0  0  0  0  0  0  0  0  0
   24.2986  -24.0373   -3.8643 H   0  0  0  0  0  0  0  0  0  0  0  0
   24.6543  -22.2587   -6.3365 H   0  0  0  0  0  0  0  0  0  0  0  0
   26.3071  -24.2166   -6.6930 H   0  0  0  0  0  0  0  0  0  0  0  0
   27.0553  -22.9725   -5.6540 H   0  0  0  0  0  0  0  0  0  0  0  0
   26.3937  -22.7636   -2.6704 H   0  0  0  0  0  0  0  0  0  0  0  0
   28.2632  -22.5465   -1.0289 H   0  0  0  0  0  0  0  0  0  0  0  0
   30.2201  -24.0870   -1.1460 H   0  0  0  0  0  0  0  0  0  0  0  0
   30.3056  -25.8560   -2.9057 H   0  0  0  0  0  0  0  0  0  0  0  0
   28.4411  -26.0720   -4.5435 H   0  0  0  0  0  0  0  0  0  0  0  0
   22.0336  -23.2317   -2.6009 H   0  0  0  0  0  0  0  0  0  0  0  0
   23.8320  -22.2060   -2.0130 H   0  0  0  0  0  0  0  0  0  0  0  0
   21.2070  -20.4121   -3.3089 H   0  0  0  0  0  0  0  0  0  0  0  0
   20.4140  -20.6510   -1.3770 H   0  0  0  0  0  0  0  0  0  0  0  0
   19.6443  -22.9690   -3.9009 H   0  0  0  0  0  0  0  0  0  0  0  0
   19.0480  -21.2771   -4.0912 H   0  0  0  0  0  0  0  0  0  0  0  0
  1  2  2  0
  2  3  1  0
  2  4  1  0
  4  5  1  6
  4  6  1  0
  6  7  2  0
  7  8  1  0
  8  9  2  0
  9 10  1  0
 10 11  1  0
 11 12  1  0
 12 13  2  0
 13 14  1  0
 14 15  2  0
 15 16  1  0
 16 17  2  0
  7 18  1  0
 18 19  1  0
 18 20  1  0
 20 21  1  0
 20 22  1  0
 22  4  1  0
 17 12  1  0
  5 23  1  0
  6 24  1  0
  8 25  1  0
  9 26  1  0
 10 27  1  0
 10 28  1  0
 13 29  1  0
 14 30  1  0
 15 31  1  0
 16 32  1  0
 17 33  1  0
 18 34  1  1
 19 35  1  0
 20 36  1  6
 21 37  1  0
 22 38  1  0
 22 39  1  0
M  CHG  1   3  -1
M  END
>  <meeko>  (4) 
{"is_sidechain": [false], "free_energy": -5.665, "intermolecular_energy": -7.819, "internal_energy": -0.61}

$$$$
3n76_ligand
     RDKit          3D

 39 40  0  0  0  0  0  0  0  0999 V2000
   17.2840  -21.9440   -1.2620 O   0  0  0  0  0  0  0  0  0  0  0  0
   17.5570  -21.0680   -2.1450 C   0  0  0  0  0  0  0  0  0  0  0  0
   17.2970  -19.8340   -2.1700 O   0  0  0  0  0  0  0  0  0  0  0  0
   18.3320  -21.6700   -3.3820 C   0  0  2  0  0  0  0  0  0  0  0  0
   17.9740  -23.0670   -3.5240 O   0  0  0  0  0  0  0  0  0  0  0  0
   19.8150  -21.6460   -3.1250 C   0  0  0  0  0  0  0  0  0  0  0  0
   20.7330  -21.2970   -4.0470 C   0  0  0  0  0  0  0  0  0  0  0  0
   22.1530  -21.2160   -3.7330 C   0  0  0  0  0  0  0  0  0  0  0  0
   22.8690  -22.2010   -3.1640 C   0  0  0  0  0  0  0  0  0  0  0  0
   24.3180  -22.0840   -2.8030 C   0  0  0  0  0  0  0  0  0  0  0  0
   24.8470  -23.4030   -2.6790 O   0  0  0  0  0  0  0  0  0  0  0  0
   26.1350  -23.6000   -3.0940 C   0  0  0  0  0  0  0  0  0  0  0  0
   26.5400  -23.9820   -4.3730 C   0  0  0  0  0  0  0  0  0  0  0  0
   27.9000  -24.1470   -4.6600 C   0  0  0  0  0  0  0  0  0  0  0  0
   28.8580  -23.9320   -3.6700 C   0  0  0  0  0  0  0  0  0  0  0  0
   28.4590  -23.5500   -2.3910 C   0  0  0  0  0  0  0  0  0  0  0  0
   27.1020  -23.3860   -2.1070 C   0  0  0  0  0  0  0  0  0  0  0  0
   20.3310  -20.9960   -5.4790 C   0  0  1  0  0  0  0  0  0  0  0  0
   21.1600  -21.7560   -6.3760 O   0  0  0  0  0  0  0  0  0  0  0  0
   18.8410  -21.2910   -5.8070 C   0  0  2  0  0  0  0  0  0  0  0  0
   18.4340  -20.5620   -6.9800 O   0  0  0  0  0  0  0  0  0  0  0  0
   17.9230  -20.9200   -4.6470 C   0  0  0  0  0  0  0  0  0  0  0  0
   17.1350  -23.1080   -2.9980 H   0  0  0  0  0  0  0  0  0  0  0  0
   20.1706  -21.9307   -2.1237 H   0  0  0  0  0  0  0  0  0  0  0  0
   22.6774  -20.2810   -3.9794 H   0  0  0  0  0  0  0  0  0  0  0  0
   22.3592  -23.1520   -2.9502 H   0  0  0  0  0  0  0  0  0  0  0  0
   24.8567  -21.5379   -3.5914 H   0  0  0  0  0  0  0  0  0  0  0  0
   24.4340  -21.5342   -1.8573 H   0  0  0  0  0  0  0  0  0  0  0  0
   25.7888  -24.1540   -5.1579 H   0  0  0  0  0  0  0  0  0  0  0  0
   28.2142  -24.4474   -5.6705 H   0  0  0  0  0  0  0  0  0  0  0  0
   29.9260  -24.0636   -3.8982 H   0  0  0  0  0  0  0  0  0  0  0  0
   29.2112  -23.3781   -1.6070 H   0  0  0  0  0  0  0  0  0  0  0  0
   26.7902  -23.0852   -1.0959 H   0  0  0  0  0  0  0  0  0  0  0  0
   20.4701  -19.9125   -5.6079 H   0  0  0  0  0  0  0  0  0  0  0  0
   21.7880  -22.2290   -5.8010 H   0  0  0  0  0  0  0  0  0  0  0  0
   18.7555  -22.3727   -5.9878 H   0  0  0  0  0  0  0  0  0  0  0  0
   18.6350  -19.6250   -6.8110 H   0  0  0  0  0  0  0  0  0  0  0  0
   17.9902  -19.8374   -4.4639 H   0  0  0  0  0  0  0  0  0  0  0  0
   16.8907  -21.1967   -4.9071 H   0  0  0  0  0  0  0  0  0  0  0  0
  1  2  2  0
  2  3  1  0
  2  4  1  0
  4  5  1  6
  4  6  1  0
  6  7  2  0
  7  8  1  0
  8  9  2  0
  9 10  1  0
 10 11  1  0
 11 12  1  0
 12 13  2  0
 13 14  1  0
 14 15  2  0
 15 16  1  0
 16 17  2  0
  7 18  1  0
 18 19  1  0
 18 20  1  0
 20 21  1  0
 20 22  1  0
 22  4  1  0
 17 12  1  0
  5 23  1  0
  6 24  1  0
  8 25  1  0
  9 26  1  0
 10 27  1  0
 10 28  1  0
 13 29  1  0
 14 30  1  0
 15 31  1  0
 16 32  1  0
 17 33  1  0
 18 34  1  6
 19 35  1  0
 20 36  1  6
 21 37  1  0
 22 38  1  0
 22 39  1  0
M  CHG  1   3  -1
M  END
>  <meeko>  (5) 
{"is_sidechain": [false], "free_energy": -5.615, "intermolecular_energy": -7.941, "internal_energy": -0.419}

$$$$
3n76_ligand
     RDKit          3D

 39 40  0  0  0  0  0  0  0  0999 V2000
   22.8350  -21.6650   -2.8590 O   0  0  0  0  0  0  0  0  0  0  0  0
   21.7020  -22.2300   -2.9900 C   0  0  0  0  0  0  0  0  0  0  0  0
   21.2470  -23.2740   -2.4450 O   0  0  0  0  0  0  0  0  0  0  0  0
   20.7600  -21.4780   -4.0100 C   0  0  2  0  0  0  0  0  0  0  0  0
   21.4970  -20.3840   -4.6080 O   0  0  0  0  0  0  0  0  0  0  0  0
   19.6030  -20.8490   -3.2780 C   0  0  0  0  0  0  0  0  0  0  0  0
   18.3330  -20.8640   -3.7260 C   0  0  0  0  0  0  0  0  0  0  0  0
   17.2330  -20.3070   -2.9500 C   0  0  0  0  0  0  0  0  0  0  0  0
   16.4300  -21.0170   -2.1390 C   0  0  0  0  0  0  0  0  0  0  0  0
   15.2730  -20.4370   -1.3860 C   0  0  0  0  0  0  0  0  0  0  0  0
   15.0700  -21.2290   -0.2170 O   0  0  0  0  0  0  0  0  0  0  0  0
   14.9400  -20.5650    0.9720 C   0  0  0  0  0  0  0  0  0  0  0  0
   13.8820  -19.7350    1.3400 C   0  0  0  0  0  0  0  0  0  0  0  0
   13.8780  -19.1160    2.5960 C   0  0  0  0  0  0  0  0  0  0  0  0
   14.9320  -19.3240    3.4850 C   0  0  0  0  0  0  0  0  0  0  0  0
   15.9920  -20.1520    3.1210 C   0  0  0  0  0  0  0  0  0  0  0  0
   15.9930  -20.7680    1.8690 C   0  0  0  0  0  0  0  0  0  0  0  0
   17.9860  -21.4410   -5.0860 C   0  0  1  0  0  0  0  0  0  0  0  0
   17.1920  -20.4910   -5.8180 O   0  0  0  0  0  0  0  0  0  0  0  0
   19.2150  -21.8350   -5.9510 C   0  0  2  0  0  0  0  0  0  0  0  0
   18.8270  -22.7760   -6.9700 O   0  0  0  0  0  0  0  0  0  0  0  0
   20.3280  -22.4470   -5.1080 C   0  0  0  0  0  0  0  0  0  0  0  0
   21.7710  -19.8710   -3.8060 H   0  0  0  0  0  0  0  0  0  0  0  0
   19.8078  -20.3476   -2.3206 H   0  0  0  0  0  0  0  0  0  0  0  0
   17.0459  -19.2263   -3.0339 H   0  0  0  0  0  0  0  0  0  0  0  0
   16.6356  -22.0912   -2.0211 H   0  0  0  0  0  0  0  0  0  0  0  0
   15.4960  -19.3985   -1.0999 H   0  0  0  0  0  0  0  0  0  0  0  0
   14.3685  -20.4387   -2.0121 H   0  0  0  0  0  0  0  0  0  0  0  0
   13.0486  -19.5660    0.6422 H   0  0  0  0  0  0  0  0  0  0  0  0
   13.0403  -18.4632    2.8825 H   0  0  0  0  0  0  0  0  0  0  0  0
   14.9267  -18.8359    4.4707 H   0  0  0  0  0  0  0  0  0  0  0  0
   16.8257  -20.3196    3.8187 H   0  0  0  0  0  0  0  0  0  0  0  0
   16.8316  -21.4206    1.5846 H   0  0  0  0  0  0  0  0  0  0  0  0
   17.4335  -22.3709   -4.8858 H   0  0  0  0  0  0  0  0  0  0  0  0
   17.5860  -20.4650   -6.7080 H   0  0  0  0  0  0  0  0  0  0  0  0
   19.5953  -20.9125   -6.4141 H   0  0  0  0  0  0  0  0  0  0  0  0
   18.8500  -23.6580   -6.5610 H   0  0  0  0  0  0  0  0  0  0  0  0
   19.9638  -23.3772   -4.6475 H   0  0  0  0  0  0  0  0  0  0  0  0
   21.1910  -22.6582   -5.7565 H   0  0  0  0  0  0  0  0  0  0  0  0
  1  2  2  0
  2  3  1  0
  2  4  1  0
  4  5  1  6
  4  6  1  0
  6  7  2  0
  7  8  1  0
  8  9  2  0
  9 10  1  0
 10 11  1  0
 11 12  1  0
 12 13  2  0
 13 14  1  0
 14 15  2  0
 15 16  1  0
 16 17  2  0
  7 18  1  0
 18 19  1  0
 18 20  1  0
 20 21  1  0
 20 22  1  0
 22  4  1  0
 17 12  1  0
  5 23  1  0
  6 24  1  0
  8 25  1  0
  9 26  1  0
 10 27  1  0
 10 28  1  0
 13 29  1  0
 14 30  1  0
 15 31  1  0
 16 32  1  0
 17 33  1  0
 18 34  1  1
 19 35  1  0
 20 36  1  6
 21 37  1  0
 22 38  1  0
 22 39  1  0
M  CHG  1   3  -1
M  END
>  <meeko>  (6) 
{"is_sidechain": [false], "free_energy": -5.525, "intermolecular_energy": -7.763, "internal_energy": -0.472}

$$$$
3n76_ligand
     RDKit          3D

 39 40  0  0  0  0  0  0  0  0999 V2000
   19.4350  -22.2340   -0.9870 O   0  0  0  0  0  0  0  0  0  0  0  0
   19.2220  -21.3170   -1.8440 C   0  0  0  0  0  0  0  0  0  0  0  0
   19.8950  -20.9790   -2.8570 O   0  0  0  0  0  0  0  0  0  0  0  0
   17.9050  -20.4980   -1.5450 C   0  0  2  0  0  0  0  0  0  0  0  0
   18.0920  -19.1320   -1.9910 O   0  0  0  0  0  0  0  0  0  0  0  0
   17.6690  -20.4220   -0.0600 C   0  0  0  0  0  0  0  0  0  0  0  0
   16.4620  -20.5700    0.5180 C   0  0  0  0  0  0  0  0  0  0  0  0
   16.2910  -20.5620    1.9650 C   0  0  0  0  0  0  0  0  0  0  0  0
   15.5470  -21.4430    2.6540 C   0  0  0  0  0  0  0  0  0  0  0  0
   15.3420  -21.3920    4.1360 C   0  0  0  0  0  0  0  0  0  0  0  0
   15.2030  -20.0240    4.5130 O   0  0  0  0  0  0  0  0  0  0  0  0
   14.9660  -19.7620    5.8350 C   0  0  0  0  0  0  0  0  0  0  0  0
   15.8350  -19.1200    6.7170 C   0  0  0  0  0  0  0  0  0  0  0  0
   15.4590  -18.9160    8.0500 C   0  0  0  0  0  0  0  0  0  0  0  0
   14.2160  -19.3540    8.5040 C   0  0  0  0  0  0  0  0  0  0  0  0
   13.3440  -19.9960    7.6270 C   0  0  0  0  0  0  0  0  0  0  0  0
   13.7210  -20.1980    6.2980 C   0  0  0  0  0  0  0  0  0  0  0  0
   15.2050  -20.7240   -0.3170 C   0  0  1  0  0  0  0  0  0  0  0  0
   14.2130  -19.7870    0.1370 O   0  0  0  0  0  0  0  0  0  0  0  0
   15.4170  -20.5240   -1.8440 C   0  0  2  0  0  0  0  0  0  0  0  0
   14.3410  -21.1340   -2.5810 O   0  0  0  0  0  0  0  0  0  0  0  0
   16.7410  -21.1170   -2.3130 C   0  0  0  0  0  0  0  0  0  0  0  0
   17.8250  -18.6250   -1.1820 H   0  0  0  0  0  0  0  0  0  0  0  0
   18.5348  -20.2343    0.5920 H   0  0  0  0  0  0  0  0  0  0  0  0
   16.8092  -19.7768    2.5350 H   0  0  0  0  0  0  0  0  0  0  0  0
   15.0574  -22.2532    2.0938 H   0  0  0  0  0  0  0  0  0  0  0  0
   14.4326  -21.9484    4.4067 H   0  0  0  0  0  0  0  0  0  0  0  0
   16.1971  -21.8477    4.6567 H   0  0  0  0  0  0  0  0  0  0  0  0
   16.8176  -18.7733    6.3646 H   0  0  0  0  0  0  0  0  0  0  0  0
   16.1471  -18.4081    8.7418 H   0  0  0  0  0  0  0  0  0  0  0  0
   13.9241  -19.1932    9.5523 H   0  0  0  0  0  0  0  0  0  0  0  0
   12.3617  -20.3425    7.9807 H   0  0  0  0  0  0  0  0  0  0  0  0
   13.0311  -20.7056    5.6078 H   0  0  0  0  0  0  0  0  0  0  0  0
   14.8798  -21.7658   -0.1798 H   0  0  0  0  0  0  0  0  0  0  0  0
   13.4260  -20.3270    0.3350 H   0  0  0  0  0  0  0  0  0  0  0  0
   15.4346  -19.4402   -2.0314 H   0  0  0  0  0  0  0  0  0  0  0  0
   14.6990  -21.3720   -3.4540 H   0  0  0  0  0  0  0  0  0  0  0  0
   16.7317  -22.2037   -2.1424 H   0  0  0  0  0  0  0  0  0  0  0  0
   16.8674  -20.9027   -3.3845 H   0  0  0  0  0  0  0  0  0  0  0  0
  1  2  2  0
  2  3  1  0
  2  4  1  0
  4  5  1  6
  4  6  1  0
  6  7  2  0
  7  8  1  0
  8  9  2  0
  9 10  1  0
 10 11  1  0
 11 12  1  0
 12 13  2  0
 13 14  1  0
 14 15  2  0
 15 16  1  0
 16 17  2  0
  7 18  1  0
 18 19  1  0
 18 20  1  0
 20 21  1  0
 20 22  1  0
 22  4  1  0
 17 12  1  0
  5 23  1  0
  6 24  1  0
  8 25  1  0
  9 26  1  0
 10 27  1  0
 10 28  1  0
 13 29  1  0
 14 30  1  0
 15 31  1  0
 16 32  1  0
 17 33  1  0
 18 34  1  6
 19 35  1  0
 20 36  1  1
 21 37  1  0
 22 38  1  0
 22 39  1  0
M  CHG  1   3  -1
M  END
>  <meeko>  (7) 
{"is_sidechain": [false], "free_energy": -5.284, "intermolecular_energy": -7.5, "internal_energy": -0.403}

$$$$
3n76_ligand
     RDKit          3D

 39 40  0  0  0  0  0  0  0  0999 V2000
   16.9450  -20.7710   -4.4700 O   0  0  0  0  0  0  0  0  0  0  0  0
   18.1240  -21.0220   -4.8800 C   0  0  0  0  0  0  0  0  0  0  0  0
   18.5900  -21.0350   -6.0530 O   0  0  0  0  0  0  0  0  0  0  0  0
   19.1160  -21.3750   -3.7030 C   0  0  2  0  0  0  0  0  0  0  0  0
   19.1940  -20.2440   -2.8020 O   0  0  0  0  0  0  0  0  0  0  0  0
   20.5080  -21.5730   -4.2420 C   0  0  0  0  0  0  0  0  0  0  0  0
   21.3370  -22.5560   -3.8400 C   0  0  0  0  0  0  0  0  0  0  0  0
   22.6490  -22.7560   -4.4420 C   0  0  0  0  0  0  0  0  0  0  0  0
   22.9650  -23.7620   -5.2750 C   0  0  0  0  0  0  0  0  0  0  0  0
   24.3320  -23.9800   -5.8460 C   0  0  0  0  0  0  0  0  0  0  0  0
   25.1560  -24.5220   -4.8170 O   0  0  0  0  0  0  0  0  0  0  0  0
   26.4820  -24.1860   -4.8380 C   0  0  0  0  0  0  0  0  0  0  0  0
   27.3580  -24.2160   -3.7530 C   0  0  0  0  0  0  0  0  0  0  0  0
   28.6970  -23.8440   -3.9190 C   0  0  0  0  0  0  0  0  0  0  0  0
   29.1640  -23.4390   -5.1690 C   0  0  0  0  0  0  0  0  0  0  0  0
   28.2930  -23.4080   -6.2560 C   0  0  0  0  0  0  0  0  0  0  0  0
   26.9580  -23.7790   -6.0880 C   0  0  0  0  0  0  0  0  0  0  0  0
   20.9530  -23.4940   -2.7110 C   0  0  1  0  0  0  0  0  0  0  0  0
   22.0220  -23.5450   -1.7500 O   0  0  0  0  0  0  0  0  0  0  0  0
   19.6390  -23.1130   -1.9740 C   0  0  2  0  0  0  0  0  0  0  0  0
   19.1080  -24.2560   -1.2770 O   0  0  0  0  0  0  0  0  0  0  0  0
   18.5830  -22.5840   -2.9390 C   0  0  0  0  0  0  0  0  0  0  0  0
   19.7970  -20.5950   -2.0980 H   0  0  0  0  0  0  0  0  0  0  0  0
   20.8696  -20.8733   -5.0098 H   0  0  0  0  0  0  0  0  0  0  0  0
   23.4384  -22.0304   -4.1966 H   0  0  0  0  0  0  0  0  0  0  0  0
   22.1702  -24.4692   -5.5548 H   0  0  0  0  0  0  0  0  0  0  0  0
   24.2766  -24.6836   -6.6898 H   0  0  0  0  0  0  0  0  0  0  0  0
   24.7503  -23.0304   -6.2112 H   0  0  0  0  0  0  0  0  0  0  0  0
   26.9954  -24.5329   -2.7640 H   0  0  0  0  0  0  0  0  0  0  0  0
   29.3837  -23.8712   -3.0601 H   0  0  0  0  0  0  0  0  0  0  0  0
   30.2163  -23.1450   -5.2964 H   0  0  0  0  0  0  0  0  0  0  0  0
   28.6568  -23.0917   -7.2448 H   0  0  0  0  0  0  0  0  0  0  0  0
   26.2730  -23.7509   -6.9483 H   0  0  0  0  0  0  0  0  0  0  0  0
   20.7749  -24.4722   -3.1815 H   0  0  0  0  0  0  0  0  0  0  0  0
   22.7700  -23.9500   -2.2240 H   0  0  0  0  0  0  0  0  0  0  0  0
   19.8870  -22.3166   -1.2569 H   0  0  0  0  0  0  0  0  0  0  0  0
   19.6620  -25.0160   -1.5230 H   0  0  0  0  0  0  0  0  0  0  0  0
   18.3170  -23.3760   -3.6545 H   0  0  0  0  0  0  0  0  0  0  0  0
   17.6960  -22.2793   -2.3642 H   0  0  0  0  0  0  0  0  0  0  0  0
  1  2  2  0
  2  3  1  0
  2  4  1  0
  4  5  1  1
  4  6  1  0
  6  7  2  0
  7  8  1  0
  8  9  2  0
  9 10  1  0
 10 11  1  0
 11 12  1  0
 12 13  2  0
 13 14  1  0
 14 15  2  0
 15 16  1  0
 16 17  2  0
  7 18  1  0
 18 19  1  0
 18 20  1  0
 20 21  1  0
 20 22  1  0
 22  4  1  0
 17 12  1  0
  5 23  1  0
  6 24  1  0
  8 25  1  0
  9 26  1  0
 10 27  1  0
 10 28  1  0
 13 29  1  0
 14 30  1  0
 15 31  1  0
 16 32  1  0
 17 33  1  0
 18 34  1  6
 19 35  1  0
 20 36  1  1
 21 37  1  0
 22 38  1  0
 22 39  1  0
M  CHG  1   3  -1
M  END
>  <meeko>  (8) 
{"is_sidechain": [false], "free_energy": -5.202, "intermolecular_energy": -7.256, "internal_energy": -0.534}

$$$$
3n76_ligand
     RDKit          3D

 39 40  0  0  0  0  0  0  0  0999 V2000
   15.3300  -19.4120    4.5070 O   0  0  0  0  0  0  0  0  0  0  0  0
   15.3630  -20.6690    4.3030 C   0  0  0  0  0  0  0  0  0  0  0  0
   15.6940  -21.6080    5.0780 O   0  0  0  0  0  0  0  0  0  0  0  0
   14.9220  -21.0600    2.8380 C   0  0  2  0  0  0  0  0  0  0  0  0
   14.3970  -22.4100    2.8530 O   0  0  0  0  0  0  0  0  0  0  0  0
   16.1220  -21.0910    1.9280 C   0  0  0  0  0  0  0  0  0  0  0  0
   16.1260  -20.5980    0.6740 C   0  0  0  0  0  0  0  0  0  0  0  0
   17.3300  -20.5820   -0.1460 C   0  0  0  0  0  0  0  0  0  0  0  0
   17.9880  -21.6770   -0.5640 C   0  0  0  0  0  0  0  0  0  0  0  0
   19.2520  -21.6430   -1.3650 C   0  0  0  0  0  0  0  0  0  0  0  0
   19.1660  -20.5450   -2.2720 O   0  0  0  0  0  0  0  0  0  0  0  0
   18.9820  -20.8420   -3.5950 C   0  0  0  0  0  0  0  0  0  0  0  0
   19.9690  -21.2400   -4.4950 C   0  0  0  0  0  0  0  0  0  0  0  0
   19.6370  -21.5130   -5.8270 C   0  0  0  0  0  0  0  0  0  0  0  0
   18.3180  -21.3880   -6.2620 C   0  0  0  0  0  0  0  0  0  0  0  0
   17.3280  -20.9910   -5.3660 C   0  0  0  0  0  0  0  0  0  0  0  0
   17.6620  -20.7180   -4.0380 C   0  0  0  0  0  0  0  0  0  0  0  0
   14.8590  -20.0580    0.0380 C   0  0  1  0  0  0  0  0  0  0  0  0
   14.6790  -20.6630   -1.2550 O   0  0  0  0  0  0  0  0  0  0  0  0
   13.5700  -20.2830    0.8760 C   0  0  2  0  0  0  0  0  0  0  0  0
   12.5400  -19.3640    0.4650 O   0  0  0  0  0  0  0  0  0  0  0  0
   13.8280  -20.1050    2.3680 C   0  0  0  0  0  0  0  0  0  0  0  0
   13.6640  -22.3420    2.1890 H   0  0  0  0  0  0  0  0  0  0  0  0
   17.0496  -21.5427    2.3096 H   0  0  0  0  0  0  0  0  0  0  0  0
   17.7300  -19.6019   -0.4450 H   0  0  0  0  0  0  0  0  0  0  0  0
   17.5712  -22.6604   -0.3008 H   0  0  0  0  0  0  0  0  0  0  0  0
   20.1150  -21.5088   -0.6962 H   0  0  0  0  0  0  0  0  0  0  0  0
   19.3825  -22.5862   -1.9158 H   0  0  0  0  0  0  0  0  0  0  0  0
   21.0112  -21.3398   -4.1577 H   0  0  0  0  0  0  0  0  0  0  0  0
   20.4195  -21.8273   -6.5334 H   0  0  0  0  0  0  0  0  0  0  0  0
   18.0600  -21.6023   -7.3096 H   0  0  0  0  0  0  0  0  0  0  0  0
   16.2858  -20.8928   -5.7038 H   0  0  0  0  0  0  0  0  0  0  0  0
   16.8786  -20.4022   -3.3334 H   0  0  0  0  0  0  0  0  0  0  0  0
   15.0002  -18.9694   -0.0328 H   0  0  0  0  0  0  0  0  0  0  0  0
   14.1810  -20.0070   -1.7740 H   0  0  0  0  0  0  0  0  0  0  0  0
   13.2435  -21.3184    0.6988 H   0  0  0  0  0  0  0  0  0  0  0  0
   12.3710  -18.7760    1.2210 H   0  0  0  0  0  0  0  0  0  0  0  0
   14.1446  -19.0691    2.5598 H   0  0  0  0  0  0  0  0  0  0  0  0
   12.9017  -20.3260    2.9185 H   0  0  0  0  0  0  0  0  0  0  0  0
  1  2  2  0
  2  3  1  0
  2  4  1  0
  4  5  1  1
  4  6  1  0
  6  7  2  0
  7  8  1  0
  8  9  2  0
  9 10  1  0
 10 11  1  0
 11 12  1  0
 12 13  2  0
 13 14  1  0
 14 15  2  0
 15 16  1  0
 16 17  2  0
  7 18  1  0
 18 19  1  0
 18 20  1  0
 20 21  1  0
 20 22  1  0
 22  4  1  0
 17 12  1  0
  5 23  1  0
  6 24  1  0
  8 25  1  0
  9 26  1  0
 10 27  1  0
 10 28  1  0
 13 29  1  0
 14 30  1  0
 15 31  1  0
 16 32  1  0
 17 33  1  0
 18 34  1  6
 19 35  1  0
 20 36  1  1
 21 37  1  0
 22 38  1  0
 22 39  1  0
M  CHG  1   3  -1
M  END
>  <meeko>  (9) 
{"is_sidechain": [false], "free_energy": -5.097, "intermolecular_energy": -7.014, "internal_energy": -0.631}

$$$$
