
     RDKit          3D

 33 36  0  0  0  0  0  0  0  0999 V2000
   -1.1080   -5.1380   -4.5790 O   0  0  0  0  0  0  0  0  0  0  0  0
   -1.9780   -4.4720   -4.1040 C   0  0  0  0  0  0  0  0  0  0  0  0
   -2.1080   -3.0090   -4.3700 C   0  0  0  0  0  0  0  0  0  0  0  0
   -2.5420   -2.6210   -5.7600 C   0  0  0  0  0  0  0  0  0  0  0  0
   -3.7100   -3.3650   -6.2390 N   0  0  0  0  0  0  0  0  0  0  0  0
   -4.7340   -2.7690   -7.0000 C   0  0  0  0  0  0  0  0  0  0  0  0
   -5.0500   -1.4070   -6.9030 C   0  0  0  0  0  0  0  0  0  0  0  0
   -6.0750   -0.8520   -7.6670 C   0  0  0  0  0  0  0  0  0  0  0  0
   -6.8030   -1.6460   -8.5400 C   0  0  0  0  0  0  0  0  0  0  0  0
   -6.5130   -3.0080   -8.6410 C   0  0  0  0  0  0  0  0  0  0  0  0
   -5.5030   -3.5680   -7.8820 C   0  0  0  0  0  0  0  0  0  0  0  0
   -2.9130   -4.9890   -3.2960 N   0  0  0  0  0  0  0  0  0  0  0  0
   -2.9830   -6.3200   -3.0040 C   0  0  0  0  0  0  0  0  0  0  0  0
   -1.6410   -7.3690   -2.8880 S   0  0  0  0  0  0  0  0  0  0  0  0
   -2.6170   -8.7470   -2.6440 C   0  0  0  0  0  0  0  0  0  0  0  0
   -3.9230   -8.4030   -2.6370 C   0  0  0  0  0  0  0  0  0  0  0  0
   -4.8860   -9.4580   -2.4840 C   0  0  0  0  0  0  0  0  0  0  0  0
   -6.1770   -9.3230   -2.9460 C   0  0  0  0  0  0  0  0  0  0  0  0
   -7.0920  -10.3610   -2.8140 C   0  0  0  0  0  0  0  0  0  0  0  0
   -6.7070  -11.5570   -2.2270 C   0  0  0  0  0  0  0  0  0  0  0  0
   -5.4100  -11.7030   -1.7640 C   0  0  0  0  0  0  0  0  0  0  0  0
   -4.4930  -10.6610   -1.8940 C   0  0  0  0  0  0  0  0  0  0  0  0
   -4.1440   -6.9820   -2.8230 C   0  0  0  0  0  0  0  0  0  0  0  0
   -5.4240   -6.2440   -2.8220 C   0  0  0  0  0  0  0  0  0  0  0  0
   -6.1020   -6.1700   -1.8440 O   0  0  0  0  0  0  0  0  0  0  0  0
   -5.7230   -5.5860   -3.9890 N   0  0  0  0  0  0  0  0  0  0  0  0
   -6.7590   -4.6060   -4.1410 C   0  0  0  0  0  0  0  0  0  0  0  0
   -8.1840   -5.0020   -3.9090 C   0  0  0  0  0  0  0  0  0  0  0  0
   -9.1160   -3.9860   -3.6890 C   0  0  0  0  0  0  0  0  0  0  0  0
  -10.4450   -4.3040   -3.4900 C   0  0  0  0  0  0  0  0  0  0  0  0
  -10.8570   -5.6340   -3.5130 C   0  0  0  0  0  0  0  0  0  0  0  0
   -9.9350   -6.6460   -3.7450 C   0  0  0  0  0  0  0  0  0  0  0  0
   -8.5940   -6.3250   -3.9450 C   0  0  0  0  0  0  0  0  0  0  0  0
  2  1  2  0
  3  2  1  0
  4  3  1  0
  5  4  1  0
  6  5  1  0
  7  6  2  0
  8  7  1  0
  9  8  2  0
 10  9  1  0
 11 10  2  0
 11  6  1  0
 12  2  1  0
 13 12  1  0
 14 13  1  0
 15 14  1  0
 16 15  2  0
 17 16  1  0
 18 17  2  0
 19 18  1  0
 20 19  2  0
 21 20  1  0
 22 21  2  0
 22 17  1  0
 23 16  1  0
 23 13  2  0
 24 23  1  0
 25 24  2  0
 26 24  1  0
 27 26  1  0
 28 27  1  0
 29 28  2  0
 30 29  1  0
 31 30  2  0
 32 31  1  0
 33 32  2  0
 33 28  1  0
M  END
$$$$
