
     RDKit          3D

 33 35  0  0  0  0  0  0  0  0999 V2000
    3.3660   -4.4160  -11.1110 O   0  0  0  0  0  0  0  0  0  0  0  0
    2.5220   -4.3750  -10.2220 C   0  0  0  0  0  0  0  0  0  0  0  0
    2.4740   -3.3980   -9.3580 N   0  0  0  0  0  0  0  0  0  0  0  0
    3.3620   -2.2740   -9.3830 C   0  0  0  0  0  0  0  0  0  0  0  0
    2.6410   -1.1010   -8.7520 C   0  0  0  0  0  0  0  0  0  0  0  0
    3.0390    0.0690   -9.0740 C   0  0  0  0  0  0  0  0  0  0  0  0
    2.3590    1.2660   -8.4790 C   0  0  1  0  0  0  0  0  0  0  0  0
    3.1800    1.7720   -7.4470 O   0  0  0  0  0  0  0  0  0  0  0  0
    3.5920    3.0620   -7.8230 C   0  0  1  0  0  0  0  0  0  0  0  0
    4.8610    3.2760   -7.2220 N   0  0  0  0  0  0  0  0  0  0  0  0
    6.0580    2.8610   -7.6540 C   0  0  0  0  0  0  0  0  0  0  0  0
    6.9680    3.2840   -6.7550 N   0  0  0  0  0  0  0  0  0  0  0  0
    6.3260    3.9420   -5.7830 C   0  0  0  0  0  0  0  0  0  0  0  0
    6.9470    4.5830   -4.5840 C   0  0  1  0  0  0  0  0  0  0  0  0
    6.4720    4.0240   -3.4750 F   0  0  0  0  0  0  0  0  0  0  0  0
    8.2550    4.4090   -4.6080 F   0  0  0  0  0  0  0  0  0  0  0  0
    6.6810    5.8680   -4.5570 F   0  0  0  0  0  0  0  0  0  0  0  0
    4.9890    3.9440   -6.0560 C   0  0  0  0  0  0  0  0  0  0  0  0
    3.5500    3.0560   -9.3280 C   0  0  2  0  0  0  0  0  0  0  0  0
    3.5600    4.3490   -9.8770 O   0  0  0  0  0  0  0  0  0  0  0  0
    2.2350    2.3440   -9.5490 C   0  0  2  0  0  0  0  0  0  0  0  0
    1.1350    3.1930   -9.2590 O   0  0  0  0  0  0  0  0  0  0  0  0
    1.4950   -5.4320  -10.0960 C   0  0  0  0  0  0  0  0  0  0  0  0
    1.4040   -6.3670  -11.1040 C   0  0  0  0  0  0  0  0  0  0  0  0
    0.4360   -7.3510  -11.0280 C   0  0  0  0  0  0  0  0  0  0  0  0
    0.3450   -8.3090  -12.0530 N   0  0  0  0  0  0  0  0  0  0  0  0
    1.1570   -8.2630  -13.0040 O   0  0  0  0  0  0  0  0  0  0  0  0
   -0.5510   -9.1990  -11.9920 O   0  0  0  0  0  0  0  0  0  0  0  0
   -0.4400   -7.4200   -9.9720 C   0  0  0  0  0  0  0  0  0  0  0  0
   -0.3620   -6.4850   -8.9670 C   0  0  0  0  0  0  0  0  0  0  0  0
   -1.2160   -6.5130   -7.9030 O   0  0  0  0  0  0  0  0  0  0  0  0
    0.6150   -5.4830   -9.0210 C   0  0  0  0  0  0  0  0  0  0  0  0
    0.6660   -4.5900   -8.0100 O   0  0  0  0  0  0  0  0  0  0  0  0
  2  1  2  0
  3  2  1  0
  4  3  1  0
  5  4  1  0
  6  5  2  3
  7  6  1  6
  8  7  1  0
  9  8  1  0
  9 10  1  6
 11 10  1  0
 12 11  2  0
 13 12  1  0
 14 13  1  0
 14 15  1  1
 16 14  1  0
 17 14  1  0
 18 10  1  0
 18 13  2  0
 19  9  1  0
 19 20  1  1
 21 19  1  0
 21  7  1  0
 21 22  1  1
 23  2  1  0
 24 23  2  0
 25 24  1  0
 26 25  1  0
 27 26  2  0
 28 26  1  0
 29 25  2  0
 30 29  1  0
 31 30  1  0
 32 30  2  0
 32 23  1  0
 33 32  1  0
M  CHG  2  26   1  28  -1
M  END
$$$$
