4qd6_ligand
     RDKit          3D

 62 66  0  0  0  0  0  0  0  0999 V2000
   15.0440   -7.2510    0.2040 O   0  0  0  0  0  0  0  0  0  0  0  0
   14.8060   -8.6810    0.1490 S   0  0  0  0  0  0  0  0  0  0  0  0
   15.4670   -9.5050   -0.8450 O   0  0  0  0  0  0  0  0  0  0  0  0
   15.2040   -9.3270    1.7560 C   0  0  0  0  0  0  0  0  0  0  0  0
   15.4010  -10.7040    1.9070 C   0  0  0  0  0  0  0  0  0  0  0  0
   15.7220  -11.2150    3.1630 C   0  0  0  0  0  0  0  0  0  0  0  0
   15.8380  -10.3570    4.2580 C   0  0  0  0  0  0  0  0  0  0  0  0
   15.6290   -8.9860    4.1040 C   0  0  0  0  0  0  0  0  0  0  0  0
   15.3080   -8.4640    2.8510 C   0  0  0  0  0  0  0  0  0  0  0  0
   13.0690   -8.9280   -0.0730 C   0  0  0  0  0  0  0  0  0  0  0  0
   12.5390   -9.0350   -1.3520 C   0  0  0  0  0  0  0  0  0  0  0  0
   11.1740   -9.2390   -1.4780 C   0  0  0  0  0  0  0  0  0  0  0  0
   10.6320   -9.3070   -2.7850 N   0  0  0  0  0  0  0  0  0  0  0  0
    9.3260   -9.5080   -3.0880 C   0  0  0  0  0  0  0  0  0  0  0  0
    8.2660   -9.9470   -2.3320 C   0  0  0  0  0  0  0  0  0  0  0  0
    7.1380   -9.9640   -3.2070 C   0  0  0  0  0  0  0  0  0  0  0  0
    5.7540  -10.3570   -2.9010 C   0  0  0  0  0  0  0  0  0  0  0  0
    4.6830   -9.8010   -3.6160 C   0  0  0  0  0  0  0  0  0  0  0  0
    3.3630  -10.1630   -3.3340 C   0  0  0  0  0  0  0  0  0  0  0  0
    3.0940  -11.0910   -2.3310 C   0  0  0  0  0  0  0  0  0  0  0  0
    4.1450  -11.6550   -1.6120 C   0  0  0  0  0  0  0  0  0  0  0  0
    5.4660  -11.2920   -1.8940 C   0  0  0  0  0  0  0  0  0  0  0  0
    7.4950   -9.5510   -4.4360 N   0  0  0  0  0  0  0  0  0  0  0  0
    8.8060   -9.2830   -4.3300 N   0  0  0  0  0  0  0  0  0  0  0  0
   10.3640   -9.2860   -0.3890 N   0  0  0  0  0  0  0  0  0  0  0  0
   10.8910   -9.2020    0.8510 C   0  0  0  0  0  0  0  0  0  0  0  0
   10.0820   -9.3320    1.9930 N   0  0  0  0  0  0  0  0  0  0  0  0
    9.0050   -8.3470    2.1770 C   0  0  2  0  0  0  0  0  0  0  0  0
    8.5870   -8.3570    3.6560 C   0  0  0  0  0  0  0  0  0  0  0  0
    7.9940   -9.6950    4.1060 C   0  0  0  0  0  0  0  0  0  0  0  0
    7.2830  -10.4560    2.9830 C   0  0  1  0  0  0  0  0  0  0  0  0
    6.2260  -11.2330    3.5370 O   0  0  0  0  0  0  0  0  0  0  0  0
    6.7080   -9.5040    1.9460 C   0  0  0  0  0  0  0  0  0  0  0  0
    7.7940   -8.6600    1.2730 C   0  0  0  0  0  0  0  0  0  0  0  0
   12.2510   -9.0300    1.0450 C   0  0  0  0  0  0  0  0  0  0  0  0
   15.3034  -11.3769    1.0423 H   0  0  0  0  0  0  0  0  0  0  0  0
   15.8841  -12.2953    3.2917 H   0  0  0  0  0  0  0  0  0  0  0  0
   16.0954  -10.7637    5.2471 H   0  0  0  0  0  0  0  0  0  0  0  0
   15.7175   -8.3160    4.9719 H   0  0  0  0  0  0  0  0  0  0  0  0
   15.1384   -7.3844    2.7257 H   0  0  0  0  0  0  0  0  0  0  0  0
   13.1841   -8.9600   -2.2398 H   0  0  0  0  0  0  0  0  0  0  0  0
   11.3220   -9.5790   -3.4780 H   0  0  0  0  0  0  0  0  0  0  0  0
    8.2830  -10.2282   -1.2687 H   0  0  0  0  0  0  0  0  0  0  0  0
    4.8853   -9.0684   -4.4113 H   0  0  0  0  0  0  0  0  0  0  0  0
    2.5361   -9.7148   -3.9045 H   0  0  0  0  0  0  0  0  0  0  0  0
    2.0557  -11.3773   -2.1076 H   0  0  0  0  0  0  0  0  0  0  0  0
    3.9355  -12.3885   -0.8195 H   0  0  0  0  0  0  0  0  0  0  0  0
    6.2885  -11.7441   -1.3204 H   0  0  0  0  0  0  0  0  0  0  0  0
    9.3180   -8.9220   -5.1270 H   0  0  0  0  0  0  0  0  0  0  0  0
   10.6910   -9.3830    2.8070 H   0  0  0  0  0  0  0  0  0  0  0  0
    9.3730   -7.3504    1.8919 H   0  0  0  0  0  0  0  0  0  0  0  0
    9.4733   -8.1428    4.2713 H   0  0  0  0  0  0  0  0  0  0  0  0
    7.8041   -7.5943    3.7797 H   0  0  0  0  0  0  0  0  0  0  0  0
    8.8090  -10.3250    4.4919 H   0  0  0  0  0  0  0  0  0  0  0  0
    7.2393   -9.4725    4.8747 H   0  0  0  0  0  0  0  0  0  0  0  0
    8.0206  -11.1049    2.4881 H   0  0  0  0  0  0  0  0  0  0  0  0
    5.5420  -10.6130    3.8430 H   0  0  0  0  0  0  0  0  0  0  0  0
    6.1872  -10.0915    1.1755 H   0  0  0  0  0  0  0  0  0  0  0  0
    6.0179   -8.8194    2.4609 H   0  0  0  0  0  0  0  0  0  0  0  0
    8.1557   -9.2052    0.3887 H   0  0  0  0  0  0  0  0  0  0  0  0
    7.3315   -7.6946    1.0197 H   0  0  0  0  0  0  0  0  0  0  0  0
   12.6733   -8.9755    2.0593 H   0  0  0  0  0  0  0  0  0  0  0  0
  1  2  2  0
  2  3  2  0
  2  4  1  0
  4  5  2  0
  5  6  1  0
  6  7  2  0
  7  8  1  0
  8  9  2  0
  2 10  1  0
 10 11  2  0
 11 12  1  0
 12 13  1  0
 13 14  1  0
 14 15  2  0
 15 16  1  0
 16 17  1  0
 17 18  2  0
 18 19  1  0
 19 20  2  0
 20 21  1  0
 21 22  2  0
 16 23  2  0
 23 24  1  0
 12 25  2  0
 25 26  1  0
 26 27  1  0
 27 28  1  0
 28 29  1  0
 29 30  1  0
 30 31  1  0
 31 32  1  0
 31 33  1  0
 33 34  1  0
 26 35  2  0
  9  4  1  0
 35 10  1  0
 24 14  1  0
 34 28  1  0
 22 17  1  0
  5 36  1  0
  6 37  1  0
  7 38  1  0
  8 39  1  0
  9 40  1  0
 11 41  1  0
 13 42  1  0
 15 43  1  0
 18 44  1  0
 19 45  1  0
 20 46  1  0
 21 47  1  0
 22 48  1  0
 24 49  1  0
 27 50  1  0
 28 51  1  1
 29 52  1  0
 29 53  1  0
 30 54  1  0
 30 55  1  0
 31 56  1  1
 32 57  1  0
 33 58  1  0
 33 59  1  0
 34 60  1  0
 34 61  1  0
 35 62  1  0
M  END
>  <meeko>  (1) 
{"is_sidechain": [false], "free_energy": -10.002, "intermolecular_energy": -14.387, "internal_energy": -0.972}

$$$$
4qd6_ligand
     RDKit          3D

 62 66  0  0  0  0  0  0  0  0999 V2000
   15.0790  -10.0380   -0.0080 O   0  0  0  0  0  0  0  0  0  0  0  0
   14.3980   -9.4220    1.1150 S   0  0  0  0  0  0  0  0  0  0  0  0
   14.3210  -10.0980    2.3960 O   0  0  0  0  0  0  0  0  0  0  0  0
   15.1600   -7.8370    1.3700 C   0  0  0  0  0  0  0  0  0  0  0  0
   14.9990   -7.1950    2.6020 C   0  0  0  0  0  0  0  0  0  0  0  0
   15.6020   -5.9560    2.8110 C   0  0  0  0  0  0  0  0  0  0  0  0
   16.3530   -5.3640    1.7930 C   0  0  0  0  0  0  0  0  0  0  0  0
   16.5000   -6.0040    0.5620 C   0  0  0  0  0  0  0  0  0  0  0  0
   15.9010   -7.2450    0.3440 C   0  0  0  0  0  0  0  0  0  0  0  0
   12.7300   -9.1010    0.6200 C   0  0  0  0  0  0  0  0  0  0  0  0
   12.3280   -9.3610   -0.6840 C   0  0  0  0  0  0  0  0  0  0  0  0
   11.0100   -9.1050   -1.0230 C   0  0  0  0  0  0  0  0  0  0  0  0
   10.6150   -9.3330   -2.3650 N   0  0  0  0  0  0  0  0  0  0  0  0
    9.3430   -9.5320   -2.7900 C   0  0  0  0  0  0  0  0  0  0  0  0
    8.2210   -9.9910   -2.1440 C   0  0  0  0  0  0  0  0  0  0  0  0
    7.1780   -9.9920   -3.1180 C   0  0  0  0  0  0  0  0  0  0  0  0
    5.7740  -10.3960   -2.9480 C   0  0  0  0  0  0  0  0  0  0  0  0
    5.4440  -11.5030   -2.1500 C   0  0  0  0  0  0  0  0  0  0  0  0
    4.1150  -11.9000   -1.9820 C   0  0  0  0  0  0  0  0  0  0  0  0
    3.0930  -11.1930   -2.6090 C   0  0  0  0  0  0  0  0  0  0  0  0
    3.4000  -10.0910   -3.4030 C   0  0  0  0  0  0  0  0  0  0  0  0
    4.7310   -9.6950   -3.5720 C   0  0  0  0  0  0  0  0  0  0  0  0
    7.6440   -9.5520   -4.3010 N   0  0  0  0  0  0  0  0  0  0  0  0
    8.9380   -9.2830   -4.0690 N   0  0  0  0  0  0  0  0  0  0  0  0
   10.1410   -8.5700   -0.1270 N   0  0  0  0  0  0  0  0  0  0  0  0
   10.5350   -8.3410    1.1440 C   0  0  0  0  0  0  0  0  0  0  0  0
    9.6290   -7.8670    2.1080 N   0  0  0  0  0  0  0  0  0  0  0  0
    8.9000   -8.8680    2.9030 C   0  0  2  0  0  0  0  0  0  0  0  0
    7.8860   -9.5690    1.9850 C   0  0  0  0  0  0  0  0  0  0  0  0
    6.8130   -8.6240    1.4370 C   0  0  0  0  0  0  0  0  0  0  0  0
    6.4920   -7.4560    2.3740 C   0  0  1  0  0  0  0  0  0  0  0  0
    5.1310   -7.0750    2.2030 O   0  0  0  0  0  0  0  0  0  0  0  0
    6.7230   -7.8340    3.8300 C   0  0  0  0  0  0  0  0  0  0  0  0
    8.1790   -8.2180    4.1020 C   0  0  0  0  0  0  0  0  0  0  0  0
   11.8290   -8.6060    1.5550 C   0  0  0  0  0  0  0  0  0  0  0  0
   14.4021   -7.6635    3.3984 H   0  0  0  0  0  0  0  0  0  0  0  0
   15.4864   -5.4443    3.7778 H   0  0  0  0  0  0  0  0  0  0  0  0
   16.8311   -4.3880    1.9627 H   0  0  0  0  0  0  0  0  0  0  0  0
   17.0886   -5.5298   -0.2372 H   0  0  0  0  0  0  0  0  0  0  0  0
   16.0110   -7.7523   -0.6258 H   0  0  0  0  0  0  0  0  0  0  0  0
   13.0361   -9.7587   -1.4259 H   0  0  0  0  0  0  0  0  0  0  0  0
   11.3650   -9.7190   -2.9300 H   0  0  0  0  0  0  0  0  0  0  0  0
    8.1424  -10.2959   -1.0900 H   0  0  0  0  0  0  0  0  0  0  0  0
    6.2447  -12.0668   -1.6490 H   0  0  0  0  0  0  0  0  0  0  0  0
    3.8763  -12.7712   -1.3543 H   0  0  0  0  0  0  0  0  0  0  0  0
    2.0460  -11.5038   -2.4777 H   0  0  0  0  0  0  0  0  0  0  0  0
    2.5938   -9.5304   -3.8986 H   0  0  0  0  0  0  0  0  0  0  0  0
    4.9627   -8.8234   -4.2018 H   0  0  0  0  0  0  0  0  0  0  0  0
    9.5190   -8.9030   -4.8080 H   0  0  0  0  0  0  0  0  0  0  0  0
    8.9970   -7.2120    1.6530 H   0  0  0  0  0  0  0  0  0  0  0  0
    9.6146   -9.5982    3.3106 H   0  0  0  0  0  0  0  0  0  0  0  0
    8.4295  -10.0101    1.1365 H   0  0  0  0  0  0  0  0  0  0  0  0
    7.3720  -10.3316    2.5885 H   0  0  0  0  0  0  0  0  0  0  0  0
    7.1657   -8.2149    0.4787 H   0  0  0  0  0  0  0  0  0  0  0  0
    5.8902   -9.2122    1.3249 H   0  0  0  0  0  0  0  0  0  0  0  0
    7.1607   -6.6199    2.1213 H   0  0  0  0  0  0  0  0  0  0  0  0
    5.0950   -6.4630    1.4480 H   0  0  0  0  0  0  0  0  0  0  0  0
    6.4580   -6.9760    4.4653 H   0  0  0  0  0  0  0  0  0  0  0  0
    6.0947   -8.7080    4.0564 H   0  0  0  0  0  0  0  0  0  0  0  0
    8.7287   -7.3072    4.3818 H   0  0  0  0  0  0  0  0  0  0  0  0
    8.1612   -8.9707    4.9039 H   0  0  0  0  0  0  0  0  0  0  0  0
   12.1371   -8.4293    2.5961 H   0  0  0  0  0  0  0  0  0  0  0  0
  1  2  2  0
  2  3  2  0
  2  4  1  0
  4  5  2  0
  5  6  1  0
  6  7  2  0
  7  8  1  0
  8  9  2  0
  2 10  1  0
 10 11  2  0
 11 12  1  0
 12 13  1  0
 13 14  1  0
 14 15  2  0
 15 16  1  0
 16 17  1  0
 17 18  2  0
 18 19  1  0
 19 20  2  0
 20 21  1  0
 21 22  2  0
 16 23  2  0
 23 24  1  0
 12 25  2  0
 25 26  1  0
 26 27  1  0
 27 28  1  0
 28 29  1  0
 29 30  1  0
 30 31  1  0
 31 32  1  0
 31 33  1  0
 33 34  1  0
 26 35  2  0
  9  4  1  0
 35 10  1  0
 24 14  1  0
 34 28  1  0
 22 17  1  0
  5 36  1  0
  6 37  1  0
  7 38  1  0
  8 39  1  0
  9 40  1  0
 11 41  1  0
 13 42  1  0
 15 43  1  0
 18 44  1  0
 19 45  1  0
 20 46  1  0
 21 47  1  0
 22 48  1  0
 24 49  1  0
 27 50  1  0
 28 51  1  6
 29 52  1  0
 29 53  1  0
 30 54  1  0
 30 55  1  0
 31 56  1  1
 32 57  1  0
 33 58  1  0
 33 59  1  0
 34 60  1  0
 34 61  1  0
 35 62  1  0
M  END
>  <meeko>  (2) 
{"is_sidechain": [false], "free_energy": -9.872, "intermolecular_energy": -13.873, "internal_energy": -1.299}

$$$$
4qd6_ligand
     RDKit          3D

 62 66  0  0  0  0  0  0  0  0999 V2000
    8.5620   -7.1270    5.6770 O   0  0  0  0  0  0  0  0  0  0  0  0
    8.7920   -8.3920    5.0050 S   0  0  0  0  0  0  0  0  0  0  0  0
    9.1890   -9.5680    5.7550 O   0  0  0  0  0  0  0  0  0  0  0  0
    7.3000   -8.7780    4.1190 C   0  0  0  0  0  0  0  0  0  0  0  0
    7.0280  -10.1100    3.7920 C   0  0  0  0  0  0  0  0  0  0  0  0
    5.8560  -10.4200    3.1050 C   0  0  0  0  0  0  0  0  0  0  0  0
    4.9670   -9.4040    2.7450 C   0  0  0  0  0  0  0  0  0  0  0  0
    5.2500   -8.0760    3.0640 C   0  0  0  0  0  0  0  0  0  0  0  0
    6.4200   -7.7560    3.7520 C   0  0  0  0  0  0  0  0  0  0  0  0
   10.0450   -8.1320    3.7840 C   0  0  0  0  0  0  0  0  0  0  0  0
   10.0160   -8.8460    2.5930 C   0  0  0  0  0  0  0  0  0  0  0  0
   11.0120   -8.6000    1.6610 C   0  0  0  0  0  0  0  0  0  0  0  0
   11.0020   -9.3600    0.4650 N   0  0  0  0  0  0  0  0  0  0  0  0
    9.9380   -9.5200   -0.3580 C   0  0  0  0  0  0  0  0  0  0  0  0
    8.6500   -9.9360   -0.1220 C   0  0  0  0  0  0  0  0  0  0  0  0
    7.9900   -9.9130   -1.3880 C   0  0  0  0  0  0  0  0  0  0  0  0
    6.5960  -10.2690   -1.6950 C   0  0  0  0  0  0  0  0  0  0  0  0
    5.6630  -10.4430   -0.6610 C   0  0  0  0  0  0  0  0  0  0  0  0
    4.3370  -10.7840   -0.9370 C   0  0  0  0  0  0  0  0  0  0  0  0
    3.9220  -10.9550   -2.2550 C   0  0  0  0  0  0  0  0  0  0  0  0
    4.8330  -10.7850   -3.2950 C   0  0  0  0  0  0  0  0  0  0  0  0
    6.1620  -10.4440   -3.0170 C   0  0  0  0  0  0  0  0  0  0  0  0
    8.8370   -9.5010   -2.3480 N   0  0  0  0  0  0  0  0  0  0  0  0
    9.9890   -9.2710   -1.6990 N   0  0  0  0  0  0  0  0  0  0  0  0
   12.0180   -7.7240    1.9170 N   0  0  0  0  0  0  0  0  0  0  0  0
   12.0260   -7.0200    3.0690 C   0  0  0  0  0  0  0  0  0  0  0  0
   13.0100   -6.0480    3.3170 N   0  0  0  0  0  0  0  0  0  0  0  0
   14.4010   -6.5090    3.4480 C   0  0  2  0  0  0  0  0  0  0  0  0
   14.9480   -6.0190    4.7970 C   0  0  0  0  0  0  0  0  0  0  0  0
   15.0160   -4.4920    4.9020 C   0  0  0  0  0  0  0  0  0  0  0  0
   15.2360   -3.7970    3.5560 C   0  0  1  0  0  0  0  0  0  0  0  0
   15.9590   -2.5880    3.7630 O   0  0  0  0  0  0  0  0  0  0  0  0
   16.0150   -4.6830    2.5960 C   0  0  0  0  0  0  0  0  0  0  0  0
   15.2790   -5.9890    2.2900 C   0  0  0  0  0  0  0  0  0  0  0  0
   11.0420   -7.1940    4.0260 C   0  0  0  0  0  0  0  0  0  0  0  0
    7.7328  -10.9059    4.0745 H   0  0  0  0  0  0  0  0  0  0  0  0
    5.6306  -11.4650    2.8460 H   0  0  0  0  0  0  0  0  0  0  0  0
    4.0399   -9.6525    2.2077 H   0  0  0  0  0  0  0  0  0  0  0  0
    4.5492   -7.2799    2.7724 H   0  0  0  0  0  0  0  0  0  0  0  0
    6.6481   -6.7097    4.0034 H   0  0  0  0  0  0  0  0  0  0  0  0
    9.2257   -9.5851    2.3952 H   0  0  0  0  0  0  0  0  0  0  0  0
   11.7150  -10.0820    0.4590 H   0  0  0  0  0  0  0  0  0  0  0  0
    8.2155  -10.2275    0.8456 H   0  0  0  0  0  0  0  0  0  0  0  0
    5.9812  -10.3087    0.3834 H   0  0  0  0  0  0  0  0  0  0  0  0
    3.6205  -10.9175   -0.1131 H   0  0  0  0  0  0  0  0  0  0  0  0
    2.8781  -11.2235   -2.4743 H   0  0  0  0  0  0  0  0  0  0  0  0
    4.5074  -10.9190   -4.3371 H   0  0  0  0  0  0  0  0  0  0  0  0
    6.8740  -10.3118   -3.8450 H   0  0  0  0  0  0  0  0  0  0  0  0
   10.7960   -8.9180   -2.2030 H   0  0  0  0  0  0  0  0  0  0  0  0
   12.7160   -5.5000    4.1230 H   0  0  0  0  0  0  0  0  0  0  0  0
   14.4242   -7.6079    3.4038 H   0  0  0  0  0  0  0  0  0  0  0  0
   14.2938   -6.3957    5.5971 H   0  0  0  0  0  0  0  0  0  0  0  0
   15.9760   -6.3992    4.8904 H   0  0  0  0  0  0  0  0  0  0  0  0
   14.0697   -4.1299    5.3303 H   0  0  0  0  0  0  0  0  0  0  0  0
   15.8809   -4.2494    5.5368 H   0  0  0  0  0  0  0  0  0  0  0  0
   14.2511   -3.5863    3.1137 H   0  0  0  0  0  0  0  0  0  0  0  0
   16.9060   -2.8040    3.7060 H   0  0  0  0  0  0  0  0  0  0  0  0
   16.1707   -4.1350    1.6550 H   0  0  0  0  0  0  0  0  0  0  0  0
   16.9727   -4.9384    3.0731 H   0  0  0  0  0  0  0  0  0  0  0  0
   14.6330   -5.8237    1.4151 H   0  0  0  0  0  0  0  0  0  0  0  0
   16.0513   -6.7520    2.1128 H   0  0  0  0  0  0  0  0  0  0  0  0
   11.0485   -6.6049    4.9549 H   0  0  0  0  0  0  0  0  0  0  0  0
  1  2  2  0
  2  3  2  0
  2  4  1  0
  4  5  2  0
  5  6  1  0
  6  7  2  0
  7  8  1  0
  8  9  2  0
  2 10  1  0
 10 11  2  0
 11 12  1  0
 12 13  1  0
 13 14  1  0
 14 15  2  0
 15 16  1  0
 16 17  1  0
 17 18  2  0
 18 19  1  0
 19 20  2  0
 20 21  1  0
 21 22  2  0
 16 23  2  0
 23 24  1  0
 12 25  2  0
 25 26  1  0
 26 27  1  0
 27 28  1  0
 28 29  1  0
 29 30  1  0
 30 31  1  0
 31 32  1  0
 31 33  1  0
 33 34  1  0
 26 35  2  0
  9  4  1  0
 35 10  1  0
 24 14  1  0
 34 28  1  0
 22 17  1  0
  5 36  1  0
  6 37  1  0
  7 38  1  0
  8 39  1  0
  9 40  1  0
 11 41  1  0
 13 42  1  0
 15 43  1  0
 18 44  1  0
 19 45  1  0
 20 46  1  0
 21 47  1  0
 22 48  1  0
 24 49  1  0
 27 50  1  0
 28 51  1  6
 29 52  1  0
 29 53  1  0
 30 54  1  0
 30 55  1  0
 31 56  1  1
 32 57  1  0
 33 58  1  0
 33 59  1  0
 34 60  1  0
 34 61  1  0
 35 62  1  0
M  END
>  <meeko>  (3) 
{"is_sidechain": [false], "free_energy": -9.672, "intermolecular_energy": -13.241, "internal_energy": -1.644}

$$$$
4qd6_ligand
     RDKit          3D

 62 66  0  0  0  0  0  0  0  0999 V2000
   15.0960   -9.0570    2.1650 O   0  0  0  0  0  0  0  0  0  0  0  0
   14.8040   -8.4550    0.8770 S   0  0  0  0  0  0  0  0  0  0  0  0
   15.0050   -7.0350    0.6600 O   0  0  0  0  0  0  0  0  0  0  0  0
   15.7620   -9.3400   -0.3300 C   0  0  0  0  0  0  0  0  0  0  0  0
   15.7620  -10.7390   -0.3060 C   0  0  0  0  0  0  0  0  0  0  0  0
   16.5040  -11.4390   -1.2550 C   0  0  0  0  0  0  0  0  0  0  0  0
   17.2430  -10.7450   -2.2150 C   0  0  0  0  0  0  0  0  0  0  0  0
   17.2490   -9.3500   -2.2270 C   0  0  0  0  0  0  0  0  0  0  0  0
   16.5090   -8.6400   -1.2810 C   0  0  0  0  0  0  0  0  0  0  0  0
   13.1060   -8.7810    0.5060 C   0  0  0  0  0  0  0  0  0  0  0  0
   12.7030   -8.9610   -0.8110 C   0  0  0  0  0  0  0  0  0  0  0  0
   11.3650   -9.2260   -1.0540 C   0  0  0  0  0  0  0  0  0  0  0  0
   10.9510   -9.3690   -2.4010 N   0  0  0  0  0  0  0  0  0  0  0  0
    9.6720   -9.5320   -2.8210 C   0  0  0  0  0  0  0  0  0  0  0  0
    8.5440   -9.9700   -2.1730 C   0  0  0  0  0  0  0  0  0  0  0  0
    7.4950   -9.9370   -3.1410 C   0  0  0  0  0  0  0  0  0  0  0  0
    6.0830  -10.3090   -2.9670 C   0  0  0  0  0  0  0  0  0  0  0  0
    5.0850   -9.6880   -3.7340 C   0  0  0  0  0  0  0  0  0  0  0  0
    3.7390  -10.0290   -3.5780 C   0  0  0  0  0  0  0  0  0  0  0  0
    3.3700  -11.0000   -2.6500 C   0  0  0  0  0  0  0  0  0  0  0  0
    4.3470  -11.6280   -1.8810 C   0  0  0  0  0  0  0  0  0  0  0  0
    5.6940  -11.2860   -2.0380 C   0  0  0  0  0  0  0  0  0  0  0  0
    7.9650   -9.4960   -4.3220 N   0  0  0  0  0  0  0  0  0  0  0  0
    9.2660   -9.2600   -4.0950 N   0  0  0  0  0  0  0  0  0  0  0  0
   10.4580   -9.2610   -0.0440 N   0  0  0  0  0  0  0  0  0  0  0  0
   10.8620   -9.1060    1.2350 C   0  0  0  0  0  0  0  0  0  0  0  0
    9.9540   -9.2230    2.3010 N   0  0  0  0  0  0  0  0  0  0  0  0
    8.5260   -9.0420    1.9990 C   0  0  2  0  0  0  0  0  0  0  0  0
    8.0130   -7.8280    2.7900 C   0  0  0  0  0  0  0  0  0  0  0  0
    8.0850   -8.0230    4.3070 C   0  0  0  0  0  0  0  0  0  0  0  0
    7.9410   -9.4840    4.7430 C   0  0  1  0  0  0  0  0  0  0  0  0
    7.3300   -9.5350    6.0270 O   0  0  0  0  0  0  0  0  0  0  0  0
    7.0930  -10.2750    3.7580 C   0  0  0  0  0  0  0  0  0  0  0  0
    7.7100  -10.3020    2.3570 C   0  0  0  0  0  0  0  0  0  0  0  0
   12.1900   -8.8710    1.5470 C   0  0  0  0  0  0  0  0  0  0  0  0
   15.1816  -11.2811    0.4550 H   0  0  0  0  0  0  0  0  0  0  0  0
   16.5076  -12.5390   -1.2479 H   0  0  0  0  0  0  0  0  0  0  0  0
   17.8235  -11.3011   -2.9658 H   0  0  0  0  0  0  0  0  0  0  0  0
   17.8376   -8.8094   -2.9829 H   0  0  0  0  0  0  0  0  0  0  0  0
   16.5136   -7.5400   -1.2838 H   0  0  0  0  0  0  0  0  0  0  0  0
   13.4257   -8.8950   -1.6377 H   0  0  0  0  0  0  0  0  0  0  0  0
   11.6910   -9.7240   -2.9990 H   0  0  0  0  0  0  0  0  0  0  0  0
    8.4644  -10.2829   -1.1214 H   0  0  0  0  0  0  0  0  0  0  0  0
    5.3670   -8.9205   -4.4698 H   0  0  0  0  0  0  0  0  0  0  0  0
    2.9710   -9.5308   -4.1879 H   0  0  0  0  0  0  0  0  0  0  0  0
    2.3110  -11.2699   -2.5249 H   0  0  0  0  0  0  0  0  0  0  0  0
    4.0581  -12.3955   -1.1478 H   0  0  0  0  0  0  0  0  0  0  0  0
    6.4574  -11.7888   -1.4261 H   0  0  0  0  0  0  0  0  0  0  0  0
    9.8520   -8.8870   -4.8340 H   0  0  0  0  0  0  0  0  0  0  0  0
   10.2630   -8.6040    3.0490 H   0  0  0  0  0  0  0  0  0  0  0  0
    8.4030   -8.8722    0.9192 H   0  0  0  0  0  0  0  0  0  0  0  0
    8.6219   -6.9524    2.5207 H   0  0  0  0  0  0  0  0  0  0  0  0
    6.9536   -7.6906    2.5278 H   0  0  0  0  0  0  0  0  0  0  0  0
    9.0570   -7.6485    4.6604 H   0  0  0  0  0  0  0  0  0  0  0  0
    7.2406   -7.4702    4.7445 H   0  0  0  0  0  0  0  0  0  0  0  0
    8.9451   -9.9320    4.7764 H   0  0  0  0  0  0  0  0  0  0  0  0
    8.0170   -9.7950    6.6650 H   0  0  0  0  0  0  0  0  0  0  0  0
    6.9969  -11.3082    4.1230 H   0  0  0  0  0  0  0  0  0  0  0  0
    6.1115   -9.7836    3.6859 H   0  0  0  0  0  0  0  0  0  0  0  0
    8.3765  -11.1746    2.2907 H   0  0  0  0  0  0  0  0  0  0  0  0
    6.8731  -10.3487    1.6447 H   0  0  0  0  0  0  0  0  0  0  0  0
   12.5121   -8.7583    2.5927 H   0  0  0  0  0  0  0  0  0  0  0  0
  1  2  2  0
  2  3  2  0
  2  4  1  0
  4  5  2  0
  5  6  1  0
  6  7  2  0
  7  8  1  0
  8  9  2  0
  2 10  1  0
 10 11  2  0
 11 12  1  0
 12 13  1  0
 13 14  1  0
 14 15  2  0
 15 16  1  0
 16 17  1  0
 17 18  2  0
 18 19  1  0
 19 20  2  0
 20 21  1  0
 21 22  2  0
 16 23  2  0
 23 24  1  0
 12 25  2  0
 25 26  1  0
 26 27  1  0
 27 28  1  0
 28 29  1  0
 29 30  1  0
 30 31  1  0
 31 32  1  0
 31 33  1  0
 33 34  1  0
 26 35  2  0
  9  4  1  0
 35 10  1  0
 24 14  1  0
 34 28  1  0
 22 17  1  0
  5 36  1  0
  6 37  1  0
  7 38  1  0
  8 39  1  0
  9 40  1  0
 11 41  1  0
 13 42  1  0
 15 43  1  0
 18 44  1  0
 19 45  1  0
 20 46  1  0
 21 47  1  0
 22 48  1  0
 24 49  1  0
 27 50  1  0
 28 51  1  1
 29 52  1  0
 29 53  1  0
 30 54  1  0
 30 55  1  0
 31 56  1  6
 32 57  1  0
 33 58  1  0
 33 59  1  0
 34 60  1  0
 34 61  1  0
 35 62  1  0
M  END
>  <meeko>  (4) 
{"is_sidechain": [false], "free_energy": -9.652, "intermolecular_energy": -13.766, "internal_energy": -1.09}

$$$$
4qd6_ligand
     RDKit          3D

 62 66  0  0  0  0  0  0  0  0999 V2000
   14.5000   -9.8060    2.9190 O   0  0  0  0  0  0  0  0  0  0  0  0
   14.4080   -8.7280    1.9530 S   0  0  0  0  0  0  0  0  0  0  0  0
   14.7440   -7.3670    2.3270 O   0  0  0  0  0  0  0  0  0  0  0  0
   15.4280   -9.1900    0.5730 C   0  0  0  0  0  0  0  0  0  0  0  0
   15.3940  -10.5110    0.1140 C   0  0  0  0  0  0  0  0  0  0  0  0
   16.1850  -10.8780   -0.9730 C   0  0  0  0  0  0  0  0  0  0  0  0
   17.0060   -9.9320   -1.5900 C   0  0  0  0  0  0  0  0  0  0  0  0
   17.0450   -8.6190   -1.1200 C   0  0  0  0  0  0  0  0  0  0  0  0
   16.2570   -8.2420   -0.0330 C   0  0  0  0  0  0  0  0  0  0  0  0
   12.7450   -8.6850    1.3530 C   0  0  0  0  0  0  0  0  0  0  0  0
   12.4610   -9.0910    0.0560 C   0  0  0  0  0  0  0  0  0  0  0  0
   11.1420   -9.0510   -0.3670 C   0  0  0  0  0  0  0  0  0  0  0  0
   10.8630   -9.4280   -1.7040 N   0  0  0  0  0  0  0  0  0  0  0  0
    9.6270   -9.5940   -2.2350 C   0  0  0  0  0  0  0  0  0  0  0  0
    8.4330   -9.9770   -1.6760 C   0  0  0  0  0  0  0  0  0  0  0  0
    7.4820   -9.9810   -2.7410 C   0  0  0  0  0  0  0  0  0  0  0  0
    6.0520  -10.3200   -2.6830 C   0  0  0  0  0  0  0  0  0  0  0  0
    5.5710  -11.2110   -1.7120 C   0  0  0  0  0  0  0  0  0  0  0  0
    4.2160  -11.5440   -1.6470 C   0  0  0  0  0  0  0  0  0  0  0  0
    3.3180  -10.9880   -2.5550 C   0  0  0  0  0  0  0  0  0  0  0  0
    3.7760  -10.1000   -3.5250 C   0  0  0  0  0  0  0  0  0  0  0  0
    5.1340   -9.7670   -3.5900 C   0  0  0  0  0  0  0  0  0  0  0  0
    8.0720   -9.6150   -3.8930 N   0  0  0  0  0  0  0  0  0  0  0  0
    9.3500   -9.3880   -3.5550 N   0  0  0  0  0  0  0  0  0  0  0  0
   10.1560   -8.5840    0.4410 N   0  0  0  0  0  0  0  0  0  0  0  0
   10.4380   -8.2110    1.7070 C   0  0  0  0  0  0  0  0  0  0  0  0
    9.4200   -7.8040    2.5870 N   0  0  0  0  0  0  0  0  0  0  0  0
    8.6240   -8.8570    3.2360 C   0  0  2  0  0  0  0  0  0  0  0  0
    7.6990   -9.4850    2.1810 C   0  0  0  0  0  0  0  0  0  0  0  0
    6.6770   -8.4970    1.6100 C   0  0  0  0  0  0  0  0  0  0  0  0
    6.2710   -7.4000    2.5980 C   0  0  1  0  0  0  0  0  0  0  0  0
    4.9300   -7.0010    2.3330 O   0  0  0  0  0  0  0  0  0  0  0  0
    6.3690   -7.8860    4.0360 C   0  0  0  0  0  0  0  0  0  0  0  0
    7.7960   -8.2950    4.4100 C   0  0  0  0  0  0  0  0  0  0  0  0
   11.7300   -8.2580    2.2010 C   0  0  0  0  0  0  0  0  0  0  0  0
   14.7488  -11.2533    0.6066 H   0  0  0  0  0  0  0  0  0  0  0  0
   16.1626  -11.9130   -1.3450 H   0  0  0  0  0  0  0  0  0  0  0  0
   17.6253  -10.2235   -2.4511 H   0  0  0  0  0  0  0  0  0  0  0  0
   17.6981   -7.8802   -1.6075 H   0  0  0  0  0  0  0  0  0  0  0  0
   16.2876   -7.2089    0.3436 H   0  0  0  0  0  0  0  0  0  0  0  0
   13.2605   -9.4347   -0.6168 H   0  0  0  0  0  0  0  0  0  0  0  0
   11.6310   -9.9360   -2.1320 H   0  0  0  0  0  0  0  0  0  0  0  0
    8.2468  -10.2295   -0.6217 H   0  0  0  0  0  0  0  0  0  0  0  0
    6.2724  -11.6547   -0.9900 H   0  0  0  0  0  0  0  0  0  0  0  0
    3.8582  -12.2453   -0.8788 H   0  0  0  0  0  0  0  0  0  0  0  0
    2.2506  -11.2495   -2.5060 H   0  0  0  0  0  0  0  0  0  0  0  0
    3.0684   -9.6589   -4.2424 H   0  0  0  0  0  0  0  0  0  0  0  0
    5.4857   -9.0645   -4.3599 H   0  0  0  0  0  0  0  0  0  0  0  0
   10.0120   -9.0660   -4.2530 H   0  0  0  0  0  0  0  0  0  0  0  0
    8.8310   -7.1320    2.0990 H   0  0  0  0  0  0  0  0  0  0  0  0
    9.3009   -9.6181    3.6513 H   0  0  0  0  0  0  0  0  0  0  0  0
    8.3180   -9.8644    1.3546 H   0  0  0  0  0  0  0  0  0  0  0  0
    7.1350  -10.2885    2.6773 H   0  0  0  0  0  0  0  0  0  0  0  0
    7.1133   -8.0201    0.7200 H   0  0  0  0  0  0  0  0  0  0  0  0
    5.7692   -9.0711    1.3726 H   0  0  0  0  0  0  0  0  0  0  0  0
    6.9586   -6.5510    2.4699 H   0  0  0  0  0  0  0  0  0  0  0  0
    4.6350   -7.4840    1.5420 H   0  0  0  0  0  0  0  0  0  0  0  0
    6.0447   -7.0767    4.7067 H   0  0  0  0  0  0  0  0  0  0  0  0
    5.7250   -8.7718    4.1387 H   0  0  0  0  0  0  0  0  0  0  0  0
    8.3156   -7.4097    4.8053 H   0  0  0  0  0  0  0  0  0  0  0  0
    7.7079   -9.1048    5.1492 H   0  0  0  0  0  0  0  0  0  0  0  0
   11.9480   -7.9648    3.2385 H   0  0  0  0  0  0  0  0  0  0  0  0
  1  2  2  0
  2  3  2  0
  2  4  1  0
  4  5  2  0
  5  6  1  0
  6  7  2  0
  7  8  1  0
  8  9  2  0
  2 10  1  0
 10 11  2  0
 11 12  1  0
 12 13  1  0
 13 14  1  0
 14 15  2  0
 15 16  1  0
 16 17  1  0
 17 18  2  0
 18 19  1  0
 19 20  2  0
 20 21  1  0
 21 22  2  0
 16 23  2  0
 23 24  1  0
 12 25  2  0
 25 26  1  0
 26 27  1  0
 27 28  1  0
 28 29  1  0
 29 30  1  0
 30 31  1  0
 31 32  1  0
 31 33  1  0
 33 34  1  0
 26 35  2  0
  9  4  1  0
 35 10  1  0
 24 14  1  0
 34 28  1  0
 22 17  1  0
  5 36  1  0
  6 37  1  0
  7 38  1  0
  8 39  1  0
  9 40  1  0
 11 41  1  0
 13 42  1  0
 15 43  1  0
 18 44  1  0
 19 45  1  0
 20 46  1  0
 21 47  1  0
 22 48  1  0
 24 49  1  0
 27 50  1  0
 28 51  1  6
 29 52  1  0
 29 53  1  0
 30 54  1  0
 30 55  1  0
 31 56  1  6
 32 57  1  0
 33 58  1  0
 33 59  1  0
 34 60  1  0
 34 61  1  0
 35 62  1  0
M  END
>  <meeko>  (5) 
{"is_sidechain": [false], "free_energy": -9.534, "intermolecular_energy": -13.658, "internal_energy": -1.028}

$$$$
4qd6_ligand
     RDKit          3D

 62 66  0  0  0  0  0  0  0  0999 V2000
   15.2270   -8.4630    0.9280 O   0  0  0  0  0  0  0  0  0  0  0  0
   14.3360   -8.6910    2.0500 S   0  0  0  0  0  0  0  0  0  0  0  0
   14.4580   -9.8870    2.8620 O   0  0  0  0  0  0  0  0  0  0  0  0
   14.4870   -7.2790    3.1190 C   0  0  0  0  0  0  0  0  0  0  0  0
   14.4860   -5.9980    2.5570 C   0  0  0  0  0  0  0  0  0  0  0  0
   14.5960   -4.8860    3.3900 C   0  0  0  0  0  0  0  0  0  0  0  0
   14.7100   -5.0570    4.7720 C   0  0  0  0  0  0  0  0  0  0  0  0
   14.7220   -6.3370    5.3250 C   0  0  0  0  0  0  0  0  0  0  0  0
   14.6130   -7.4560    4.4990 C   0  0  0  0  0  0  0  0  0  0  0  0
   12.6790   -8.6750    1.4310 C   0  0  0  0  0  0  0  0  0  0  0  0
   12.4140   -9.1070    0.1380 C   0  0  0  0  0  0  0  0  0  0  0  0
   11.1000   -9.0880   -0.3000 C   0  0  0  0  0  0  0  0  0  0  0  0
   10.8400   -9.4910   -1.6330 N   0  0  0  0  0  0  0  0  0  0  0  0
    9.6120   -9.6370   -2.1880 C   0  0  0  0  0  0  0  0  0  0  0  0
    8.3970   -9.9800   -1.6480 C   0  0  0  0  0  0  0  0  0  0  0  0
    7.4690   -9.9810   -2.7330 C   0  0  0  0  0  0  0  0  0  0  0  0
    6.0300  -10.2840   -2.7010 C   0  0  0  0  0  0  0  0  0  0  0  0
    5.5080  -11.1490   -1.7260 C   0  0  0  0  0  0  0  0  0  0  0  0
    4.1440  -11.4480   -1.6850 C   0  0  0  0  0  0  0  0  0  0  0  0
    3.2780  -10.8840   -2.6200 C   0  0  0  0  0  0  0  0  0  0  0  0
    3.7790  -10.0220   -3.5930 C   0  0  0  0  0  0  0  0  0  0  0  0
    5.1450   -9.7240   -3.6340 C   0  0  0  0  0  0  0  0  0  0  0  0
    8.0920   -9.6510   -3.8790 N   0  0  0  0  0  0  0  0  0  0  0  0
    9.3680   -9.4480   -3.5180 N   0  0  0  0  0  0  0  0  0  0  0  0
   10.1000   -8.6160    0.4880 N   0  0  0  0  0  0  0  0  0  0  0  0
   10.3640   -8.2180    1.7510 C   0  0  0  0  0  0  0  0  0  0  0  0
    9.3320   -7.8050    2.6110 N   0  0  0  0  0  0  0  0  0  0  0  0
    8.5580   -8.8550    3.2930 C   0  0  2  0  0  0  0  0  0  0  0  0
    7.6440   -9.5320    2.2600 C   0  0  0  0  0  0  0  0  0  0  0  0
    6.6010   -8.5820    1.6630 C   0  0  0  0  0  0  0  0  0  0  0  0
    6.1750   -7.4650    2.6190 C   0  0  1  0  0  0  0  0  0  0  0  0
    4.8260   -7.1000    2.3470 O   0  0  0  0  0  0  0  0  0  0  0  0
    6.2870   -7.9050    4.0710 C   0  0  0  0  0  0  0  0  0  0  0  0
    7.7220   -8.2740    4.4530 C   0  0  0  0  0  0  0  0  0  0  0  0
   11.6510   -8.2430    2.2600 C   0  0  0  0  0  0  0  0  0  0  0  0
   14.3992   -5.8695    1.4680 H   0  0  0  0  0  0  0  0  0  0  0  0
   14.5931   -3.8738    2.9594 H   0  0  0  0  0  0  0  0  0  0  0  0
   14.7907   -4.1772    5.4273 H   0  0  0  0  0  0  0  0  0  0  0  0
   14.8175   -6.4646    6.4134 H   0  0  0  0  0  0  0  0  0  0  0  0
   14.6261   -8.4679    4.9302 H   0  0  0  0  0  0  0  0  0  0  0  0
   13.2245   -9.4544   -0.5196 H   0  0  0  0  0  0  0  0  0  0  0  0
   11.6030  -10.0300   -2.0320 H   0  0  0  0  0  0  0  0  0  0  0  0
    8.1822  -10.2078   -0.5935 H   0  0  0  0  0  0  0  0  0  0  0  0
    6.1834  -11.5982   -0.9830 H   0  0  0  0  0  0  0  0  0  0  0  0
    3.7533  -12.1289   -0.9144 H   0  0  0  0  0  0  0  0  0  0  0  0
    2.2037  -11.1184   -2.5898 H   0  0  0  0  0  0  0  0  0  0  0  0
    3.0979   -9.5741   -4.3316 H   0  0  0  0  0  0  0  0  0  0  0  0
    5.5297   -9.0425   -4.4070 H   0  0  0  0  0  0  0  0  0  0  0  0
   10.0520   -9.1550   -4.2070 H   0  0  0  0  0  0  0  0  0  0  0  0
    8.7290   -7.1660    2.0970 H   0  0  0  0  0  0  0  0  0  0  0  0
    9.2502   -9.5908    3.7283 H   0  0  0  0  0  0  0  0  0  0  0  0
    8.2687   -9.9231    1.4434 H   0  0  0  0  0  0  0  0  0  0  0  0
    7.0975  -10.3317    2.7813 H   0  0  0  0  0  0  0  0  0  0  0  0
    7.0257   -8.1228    0.7581 H   0  0  0  0  0  0  0  0  0  0  0  0
    5.7045   -9.1811    1.4452 H   0  0  0  0  0  0  0  0  0  0  0  0
    6.8452   -6.6069    2.4628 H   0  0  0  0  0  0  0  0  0  0  0  0
    4.8090   -6.1390    2.2030 H   0  0  0  0  0  0  0  0  0  0  0  0
    5.9485   -7.0822    4.7178 H   0  0  0  0  0  0  0  0  0  0  0  0
    5.6613   -8.8001    4.2023 H   0  0  0  0  0  0  0  0  0  0  0  0
    8.2250   -7.3671    4.8198 H   0  0  0  0  0  0  0  0  0  0  0  0
    7.6521   -9.0624    5.2169 H   0  0  0  0  0  0  0  0  0  0  0  0
   11.8547   -7.9289    3.2943 H   0  0  0  0  0  0  0  0  0  0  0  0
  1  2  2  0
  2  3  2  0
  2  4  1  0
  4  5  2  0
  5  6  1  0
  6  7  2  0
  7  8  1  0
  8  9  2  0
  2 10  1  0
 10 11  2  0
 11 12  1  0
 12 13  1  0
 13 14  1  0
 14 15  2  0
 15 16  1  0
 16 17  1  0
 17 18  2  0
 18 19  1  0
 19 20  2  0
 20 21  1  0
 21 22  2  0
 16 23  2  0
 23 24  1  0
 12 25  2  0
 25 26  1  0
 26 27  1  0
 27 28  1  0
 28 29  1  0
 29 30  1  0
 30 31  1  0
 31 32  1  0
 31 33  1  0
 33 34  1  0
 26 35  2  0
  9  4  1  0
 35 10  1  0
 24 14  1  0
 34 28  1  0
 22 17  1  0
  5 36  1  0
  6 37  1  0
  7 38  1  0
  8 39  1  0
  9 40  1  0
 11 41  1  0
 13 42  1  0
 15 43  1  0
 18 44  1  0
 19 45  1  0
 20 46  1  0
 21 47  1  0
 22 48  1  0
 24 49  1  0
 27 50  1  0
 28 51  1  6
 29 52  1  0
 29 53  1  0
 30 54  1  0
 30 55  1  0
 31 56  1  6
 32 57  1  0
 33 58  1  0
 33 59  1  0
 34 60  1  0
 34 61  1  0
 35 62  1  0
M  END
>  <meeko>  (6) 
{"is_sidechain": [false], "free_energy": -9.362, "intermolecular_energy": -13.169, "internal_energy": -1.27}

$$$$
4qd6_ligand
     RDKit          3D

 62 66  0  0  0  0  0  0  0  0999 V2000
    0.7270   -6.6980    6.4290 O   0  0  0  0  0  0  0  0  0  0  0  0
    0.9880   -8.0930    6.1280 S   0  0  0  0  0  0  0  0  0  0  0  0
    0.9010   -9.1040    7.1650 O   0  0  0  0  0  0  0  0  0  0  0  0
   -0.1220   -8.5490    4.8170 C   0  0  0  0  0  0  0  0  0  0  0  0
   -1.2710   -7.7820    4.6000 C   0  0  0  0  0  0  0  0  0  0  0  0
   -2.1410   -8.1290    3.5680 C   0  0  0  0  0  0  0  0  0  0  0  0
   -1.8640   -9.2370    2.7640 C   0  0  0  0  0  0  0  0  0  0  0  0
   -0.7220  -10.0060    2.9930 C   0  0  0  0  0  0  0  0  0  0  0  0
    0.1540   -9.6660    4.0230 C   0  0  0  0  0  0  0  0  0  0  0  0
    2.6220   -8.2020    5.4610 C   0  0  0  0  0  0  0  0  0  0  0  0
    2.8490   -8.9030    4.2840 C   0  0  0  0  0  0  0  0  0  0  0  0
    4.1440   -8.9520    3.7930 C   0  0  0  0  0  0  0  0  0  0  0  0
    4.3770   -9.7020    2.6140 N   0  0  0  0  0  0  0  0  0  0  0  0
    5.5700   -9.8300    1.9830 C   0  0  0  0  0  0  0  0  0  0  0  0
    5.9980   -9.4300    0.7410 C   0  0  0  0  0  0  0  0  0  0  0  0
    7.3560   -9.8580    0.6350 C   0  0  0  0  0  0  0  0  0  0  0  0
    8.2800   -9.6830   -0.4960 C   0  0  0  0  0  0  0  0  0  0  0  0
    9.5970   -9.2500   -0.2770 C   0  0  0  0  0  0  0  0  0  0  0  0
   10.4860   -9.0770   -1.3410 C   0  0  0  0  0  0  0  0  0  0  0  0
   10.0690   -9.3360   -2.6450 C   0  0  0  0  0  0  0  0  0  0  0  0
    8.7660   -9.7680   -2.8810 C   0  0  0  0  0  0  0  0  0  0  0  0
    7.8770   -9.9410   -1.8150 C   0  0  0  0  0  0  0  0  0  0  0  0
    7.7360  -10.4870    1.7620 N   0  0  0  0  0  0  0  0  0  0  0  0
    6.6480  -10.4500    2.5470 N   0  0  0  0  0  0  0  0  0  0  0  0
    5.1750   -8.3750    4.4620 N   0  0  0  0  0  0  0  0  0  0  0  0
    4.9410   -7.6780    5.5940 C   0  0  0  0  0  0  0  0  0  0  0  0
    5.9810   -7.0020    6.2560 N   0  0  0  0  0  0  0  0  0  0  0  0
    6.2080   -7.3290    7.6720 C   0  0  2  0  0  0  0  0  0  0  0  0
    5.3620   -6.3760    8.5310 C   0  0  0  0  0  0  0  0  0  0  0  0
    5.7710   -4.9080    8.3840 C   0  0  0  0  0  0  0  0  0  0  0  0
    7.2540   -4.7160    8.0550 C   0  0  1  0  0  0  0  0  0  0  0  0
    7.7020   -3.4820    8.6040 O   0  0  0  0  0  0  0  0  0  0  0  0
    8.0970   -5.8480    8.6230 C   0  0  0  0  0  0  0  0  0  0  0  0
    7.7010   -7.2090    8.0460 C   0  0  0  0  0  0  0  0  0  0  0  0
    3.6660   -7.5630    6.1190 C   0  0  0  0  0  0  0  0  0  0  0  0
   -1.4863   -6.9124    5.2383 H   0  0  0  0  0  0  0  0  0  0  0  0
   -3.0458   -7.5303    3.3867 H   0  0  0  0  0  0  0  0  0  0  0  0
   -2.5493   -9.5049    1.9463 H   0  0  0  0  0  0  0  0  0  0  0  0
   -0.5129  -10.8812    2.3602 H   0  0  0  0  0  0  0  0  0  0  0  0
    1.0537  -10.2709    4.2091 H   0  0  0  0  0  0  0  0  0  0  0  0
    2.0245   -9.4050    3.7565 H   0  0  0  0  0  0  0  0  0  0  0  0
    3.5360   -9.8240    2.0580 H   0  0  0  0  0  0  0  0  0  0  0  0
    5.4134   -8.8896   -0.0181 H   0  0  0  0  0  0  0  0  0  0  0  0
    9.9349   -9.0434    0.7492 H   0  0  0  0  0  0  0  0  0  0  0  0
   11.5143   -8.7366   -1.1493 H   0  0  0  0  0  0  0  0  0  0  0  0
   10.7662   -9.1998   -3.4849 H   0  0  0  0  0  0  0  0  0  0  0  0
    8.4348   -9.9739   -3.9096 H   0  0  0  0  0  0  0  0  0  0  0  0
    6.8505  -10.2831   -2.0130 H   0  0  0  0  0  0  0  0  0  0  0  0
    6.6810  -10.8400    3.4820 H   0  0  0  0  0  0  0  0  0  0  0  0
    5.8470   -6.0030    6.1160 H   0  0  0  0  0  0  0  0  0  0  0  0
    5.9107   -8.3721    7.8551 H   0  0  0  0  0  0  0  0  0  0  0  0
    4.3085   -6.4771    8.2311 H   0  0  0  0  0  0  0  0  0  0  0  0
    5.5209   -6.6559    9.5829 H   0  0  0  0  0  0  0  0  0  0  0  0
    5.1744   -4.4598    7.5758 H   0  0  0  0  0  0  0  0  0  0  0  0
    5.5901   -4.4235    9.3548 H   0  0  0  0  0  0  0  0  0  0  0  0
    7.3659   -4.7135    6.9607 H   0  0  0  0  0  0  0  0  0  0  0  0
    6.9190   -3.0100    8.9340 H   0  0  0  0  0  0  0  0  0  0  0  0
    9.1538   -5.6564    8.3854 H   0  0  0  0  0  0  0  0  0  0  0  0
    7.9307   -5.8805    9.7099 H   0  0  0  0  0  0  0  0  0  0  0  0
    8.2987   -7.3864    7.1398 H   0  0  0  0  0  0  0  0  0  0  0  0
    7.8896   -7.9528    8.8341 H   0  0  0  0  0  0  0  0  0  0  0  0
    3.4834   -6.9805    7.0341 H   0  0  0  0  0  0  0  0  0  0  0  0
  1  2  2  0
  2  3  2  0
  2  4  1  0
  4  5  2  0
  5  6  1  0
  6  7  2  0
  7  8  1  0
  8  9  2  0
  2 10  1  0
 10 11  2  0
 11 12  1  0
 12 13  1  0
 13 14  1  0
 14 15  2  0
 15 16  1  0
 16 17  1  0
 17 18  2  0
 18 19  1  0
 19 20  2  0
 20 21  1  0
 21 22  2  0
 16 23  2  0
 23 24  1  0
 12 25  2  0
 25 26  1  0
 26 27  1  0
 27 28  1  0
 28 29  1  0
 29 30  1  0
 30 31  1  0
 31 32  1  0
 31 33  1  0
 33 34  1  0
 26 35  2  0
  9  4  1  0
 35 10  1  0
 24 14  1  0
 34 28  1  0
 22 17  1  0
  5 36  1  0
  6 37  1  0
  7 38  1  0
  8 39  1  0
  9 40  1  0
 11 41  1  0
 13 42  1  0
 15 43  1  0
 18 44  1  0
 19 45  1  0
 20 46  1  0
 21 47  1  0
 22 48  1  0
 24 49  1  0
 27 50  1  0
 28 51  1  1
 29 52  1  0
 29 53  1  0
 30 54  1  0
 30 55  1  0
 31 56  1  1
 32 57  1  0
 33 58  1  0
 33 59  1  0
 34 60  1  0
 34 61  1  0
 35 62  1  0
M  END
>  <meeko>  (7) 
{"is_sidechain": [false], "free_energy": -9.319, "intermolecular_energy": -13.899, "internal_energy": -0.478}

$$$$
4qd6_ligand
     RDKit          3D

 62 66  0  0  0  0  0  0  0  0999 V2000
    4.2490   -5.9200    8.7270 O   0  0  0  0  0  0  0  0  0  0  0  0
    5.4180   -5.7440    7.8860 S   0  0  0  0  0  0  0  0  0  0  0  0
    5.9420   -4.4200    7.6120 O   0  0  0  0  0  0  0  0  0  0  0  0
    6.7190   -6.7150    8.6100 C   0  0  0  0  0  0  0  0  0  0  0  0
    6.4110   -7.9650    9.1570 C   0  0  0  0  0  0  0  0  0  0  0  0
    7.4280   -8.7350    9.7180 C   0  0  0  0  0  0  0  0  0  0  0  0
    8.7400   -8.2550    9.7360 C   0  0  0  0  0  0  0  0  0  0  0  0
    9.0380   -7.0020    9.1990 C   0  0  0  0  0  0  0  0  0  0  0  0
    8.0270   -6.2240    8.6350 C   0  0  0  0  0  0  0  0  0  0  0  0
    5.0630   -6.4750    6.3150 C   0  0  0  0  0  0  0  0  0  0  0  0
    6.0970   -6.7900    5.4430 C   0  0  0  0  0  0  0  0  0  0  0  0
    5.7720   -7.3720    4.2290 C   0  0  0  0  0  0  0  0  0  0  0  0
    6.8270   -7.6540    3.3260 N   0  0  0  0  0  0  0  0  0  0  0  0
    6.7750   -8.5440    2.3050 C   0  0  0  0  0  0  0  0  0  0  0  0
    5.9970   -8.5980    1.1740 C   0  0  0  0  0  0  0  0  0  0  0  0
    6.3910   -9.7820    0.4800 C   0  0  0  0  0  0  0  0  0  0  0  0
    5.8690  -10.3100   -0.7890 C   0  0  0  0  0  0  0  0  0  0  0  0
    6.5690  -10.1010   -1.9870 C   0  0  0  0  0  0  0  0  0  0  0  0
    6.0840  -10.5940   -3.2010 C   0  0  0  0  0  0  0  0  0  0  0  0
    4.8880  -11.3070   -3.2350 C   0  0  0  0  0  0  0  0  0  0  0  0
    4.1800  -11.5260   -2.0550 C   0  0  0  0  0  0  0  0  0  0  0  0
    4.6660  -11.0310   -0.8400 C   0  0  0  0  0  0  0  0  0  0  0  0
    7.3650  -10.4170    1.1580 N   0  0  0  0  0  0  0  0  0  0  0  0
    7.5730   -9.6500    2.2390 N   0  0  0  0  0  0  0  0  0  0  0  0
    4.4800   -7.5870    3.8720 N   0  0  0  0  0  0  0  0  0  0  0  0
    3.4820   -7.2960    4.7340 C   0  0  0  0  0  0  0  0  0  0  0  0
    2.1440   -7.5890    4.4190 N   0  0  0  0  0  0  0  0  0  0  0  0
    1.5690   -8.8210    4.9810 C   0  0  2  0  0  0  0  0  0  0  0  0
    0.1480   -8.9910    4.4220 C   0  0  0  0  0  0  0  0  0  0  0  0
   -0.8050   -7.8680    4.8440 C   0  0  0  0  0  0  0  0  0  0  0  0
   -0.4610   -7.2540    6.2040 C   0  0  1  0  0  0  0  0  0  0  0  0
   -1.6550   -6.7970    6.8300 O   0  0  0  0  0  0  0  0  0  0  0  0
    0.2200   -8.2670    7.1130 C   0  0  0  0  0  0  0  0  0  0  0  0
    1.5380   -8.7760    6.5240 C   0  0  0  0  0  0  0  0  0  0  0  0
    3.7420   -6.7440    5.9770 C   0  0  0  0  0  0  0  0  0  0  0  0
    5.3758   -8.3367    9.1444 H   0  0  0  0  0  0  0  0  0  0  0  0
    7.1977   -9.7214   10.1470 H   0  0  0  0  0  0  0  0  0  0  0  0
    9.5413   -8.8673   10.1753 H   0  0  0  0  0  0  0  0  0  0  0  0
   10.0720   -6.6272    9.2205 H   0  0  0  0  0  0  0  0  0  0  0  0
    8.2570   -5.2340    8.2142 H   0  0  0  0  0  0  0  0  0  0  0  0
    7.1441   -6.5832    5.7089 H   0  0  0  0  0  0  0  0  0  0  0  0
    7.7400   -7.4380    3.7150 H   0  0  0  0  0  0  0  0  0  0  0  0
    5.2268   -7.8757    0.8656 H   0  0  0  0  0  0  0  0  0  0  0  0
    7.5150   -9.5399   -1.9701 H   0  0  0  0  0  0  0  0  0  0  0  0
    6.6467  -10.4191   -4.1299 H   0  0  0  0  0  0  0  0  0  0  0  0
    4.5039  -11.6957   -4.1896 H   0  0  0  0  0  0  0  0  0  0  0  0
    3.2359  -12.0899   -2.0788 H   0  0  0  0  0  0  0  0  0  0  0  0
    4.0989  -11.2089    0.0856 H   0  0  0  0  0  0  0  0  0  0  0  0
    8.2920   -9.8990    2.9090 H   0  0  0  0  0  0  0  0  0  0  0  0
    2.0430   -7.5520    3.4070 H   0  0  0  0  0  0  0  0  0  0  0  0
    2.1967   -9.6774    4.6938 H   0  0  0  0  0  0  0  0  0  0  0  0
    0.2041   -9.0076    3.3236 H   0  0  0  0  0  0  0  0  0  0  0  0
   -0.2533   -9.9306    4.8295 H   0  0  0  0  0  0  0  0  0  0  0  0
   -0.7660   -7.0741    4.0836 H   0  0  0  0  0  0  0  0  0  0  0  0
   -1.8079   -8.3111    4.9333 H   0  0  0  0  0  0  0  0  0  0  0  0
    0.2315   -6.4159    6.0366 H   0  0  0  0  0  0  0  0  0  0  0  0
   -1.8430   -7.4000    7.5680 H   0  0  0  0  0  0  0  0  0  0  0  0
    0.4256   -7.7909    8.0831 H   0  0  0  0  0  0  0  0  0  0  0  0
   -0.4551   -9.1281    7.2256 H   0  0  0  0  0  0  0  0  0  0  0  0
    2.3467   -8.1132    6.8656 H   0  0  0  0  0  0  0  0  0  0  0  0
    1.6590   -9.8125    6.8719 H   0  0  0  0  0  0  0  0  0  0  0  0
    2.9241   -6.5241    6.6789 H   0  0  0  0  0  0  0  0  0  0  0  0
  1  2  2  0
  2  3  2  0
  2  4  1  0
  4  5  2  0
  5  6  1  0
  6  7  2  0
  7  8  1  0
  8  9  2  0
  2 10  1  0
 10 11  2  0
 11 12  1  0
 12 13  1  0
 13 14  1  0
 14 15  2  0
 15 16  1  0
 16 17  1  0
 17 18  2  0
 18 19  1  0
 19 20  2  0
 20 21  1  0
 21 22  2  0
 16 23  2  0
 23 24  1  0
 12 25  2  0
 25 26  1  0
 26 27  1  0
 27 28  1  0
 28 29  1  0
 29 30  1  0
 30 31  1  0
 31 32  1  0
 31 33  1  0
 33 34  1  0
 26 35  2  0
  9  4  1  0
 35 10  1  0
 24 14  1  0
 34 28  1  0
 22 17  1  0
  5 36  1  0
  6 37  1  0
  7 38  1  0
  8 39  1  0
  9 40  1  0
 11 41  1  0
 13 42  1  0
 15 43  1  0
 18 44  1  0
 19 45  1  0
 20 46  1  0
 21 47  1  0
 22 48  1  0
 24 49  1  0
 27 50  1  0
 28 51  1  6
 29 52  1  0
 29 53  1  0
 30 54  1  0
 30 55  1  0
 31 56  1  1
 32 57  1  0
 33 58  1  0
 33 59  1  0
 34 60  1  0
 34 61  1  0
 35 62  1  0
M  END
>  <meeko>  (8) 
{"is_sidechain": [false], "free_energy": -9.236, "intermolecular_energy": -13.321, "internal_energy": -0.937}

$$$$
4qd6_ligand
     RDKit          3D

 62 66  0  0  0  0  0  0  0  0999 V2000
   13.1740   -7.7690    4.5870 O   0  0  0  0  0  0  0  0  0  0  0  0
   12.9290   -7.2830    3.2410 S   0  0  0  0  0  0  0  0  0  0  0  0
   12.7560   -5.8660    2.9850 O   0  0  0  0  0  0  0  0  0  0  0  0
   14.2710   -7.8680    2.2350 C   0  0  0  0  0  0  0  0  0  0  0  0
   14.8930   -9.0770    2.5650 C   0  0  0  0  0  0  0  0  0  0  0  0
   15.9410   -9.5450    1.7740 C   0  0  0  0  0  0  0  0  0  0  0  0
   16.3650   -8.8070    0.6670 C   0  0  0  0  0  0  0  0  0  0  0  0
   15.7480   -7.5970    0.3490 C   0  0  0  0  0  0  0  0  0  0  0  0
   14.6990   -7.1200    1.1340 C   0  0  0  0  0  0  0  0  0  0  0  0
   11.4690   -8.0810    2.6410 C   0  0  0  0  0  0  0  0  0  0  0  0
   11.4420   -8.6120    1.3580 C   0  0  0  0  0  0  0  0  0  0  0  0
   10.2810   -9.2380    0.9350 C   0  0  0  0  0  0  0  0  0  0  0  0
   10.2450   -9.7430   -0.3880 N   0  0  0  0  0  0  0  0  0  0  0  0
    9.1380   -9.8430   -1.1650 C   0  0  0  0  0  0  0  0  0  0  0  0
    7.8260  -10.1090   -0.8600 C   0  0  0  0  0  0  0  0  0  0  0  0
    7.1220  -10.0940   -2.1020 C   0  0  0  0  0  0  0  0  0  0  0  0
    5.6890  -10.3240   -2.3400 C   0  0  0  0  0  0  0  0  0  0  0  0
    5.0360   -9.6920   -3.4090 C   0  0  0  0  0  0  0  0  0  0  0  0
    3.6740   -9.8980   -3.6450 C   0  0  0  0  0  0  0  0  0  0  0  0
    2.9430  -10.7430   -2.8140 C   0  0  0  0  0  0  0  0  0  0  0  0
    3.5750  -11.3800   -1.7480 C   0  0  0  0  0  0  0  0  0  0  0  0
    4.9380  -11.1730   -1.5120 C   0  0  0  0  0  0  0  0  0  0  0  0
    7.9680   -9.8280   -3.1140 N   0  0  0  0  0  0  0  0  0  0  0  0
    9.1620   -9.6800   -2.5200 N   0  0  0  0  0  0  0  0  0  0  0  0
    9.1790   -9.2920    1.7270 N   0  0  0  0  0  0  0  0  0  0  0  0
    9.2210   -8.7910    2.9800 C   0  0  0  0  0  0  0  0  0  0  0  0
    8.1200   -8.9110    3.8450 N   0  0  0  0  0  0  0  0  0  0  0  0
    7.1210   -7.8310    3.8260 C   0  0  2  0  0  0  0  0  0  0  0  0
    5.8400   -8.3440    4.5010 C   0  0  0  0  0  0  0  0  0  0  0  0
    5.1890   -9.5110    3.7520 C   0  0  0  0  0  0  0  0  0  0  0  0
    5.4400   -9.4830    2.2420 C   0  0  1  0  0  0  0  0  0  0  0  0
    4.3340  -10.0770    1.5700 O   0  0  0  0  0  0  0  0  0  0  0  0
    5.6210   -8.0590    1.7370 C   0  0  0  0  0  0  0  0  0  0  0  0
    6.8220   -7.3660    2.3850 C   0  0  0  0  0  0  0  0  0  0  0  0
   10.3610   -8.1830    3.4750 C   0  0  0  0  0  0  0  0  0  0  0  0
   14.5582   -9.6528    3.4404 H   0  0  0  0  0  0  0  0  0  0  0  0
   16.4344  -10.4964    2.0220 H   0  0  0  0  0  0  0  0  0  0  0  0
   17.1896   -9.1816    0.0427 H   0  0  0  0  0  0  0  0  0  0  0  0
   16.0894   -7.0185   -0.5221 H   0  0  0  0  0  0  0  0  0  0  0  0
   14.2127   -6.1641    0.8894 H   0  0  0  0  0  0  0  0  0  0  0  0
   12.3177   -8.5376    0.6965 H   0  0  0  0  0  0  0  0  0  0  0  0
   11.0140  -10.3750   -0.5840 H   0  0  0  0  0  0  0  0  0  0  0  0
    7.4033  -10.2957    0.1382 H   0  0  0  0  0  0  0  0  0  0  0  0
    5.6051   -9.0237   -4.0719 H   0  0  0  0  0  0  0  0  0  0  0  0
    3.1793   -9.3925   -4.4875 H   0  0  0  0  0  0  0  0  0  0  0  0
    1.8710  -10.9070   -2.9983 H   0  0  0  0  0  0  0  0  0  0  0  0
    3.0000  -12.0480   -1.0898 H   0  0  0  0  0  0  0  0  0  0  0  0
    5.4270  -11.6813   -0.6679 H   0  0  0  0  0  0  0  0  0  0  0  0
    9.9790   -9.4410   -3.0710 H   0  0  0  0  0  0  0  0  0  0  0  0
    8.4740   -9.0820    4.7840 H   0  0  0  0  0  0  0  0  0  0  0  0
    7.5163   -6.9616    4.3718 H   0  0  0  0  0  0  0  0  0  0  0  0
    6.0908   -8.6781    5.5186 H   0  0  0  0  0  0  0  0  0  0  0  0
    5.1177   -7.5144    4.5047 H   0  0  0  0  0  0  0  0  0  0  0  0
    5.5926  -10.4517    4.1547 H   0  0  0  0  0  0  0  0  0  0  0  0
    4.1025   -9.4256    3.9012 H   0  0  0  0  0  0  0  0  0  0  0  0
    6.3631  -10.0451    2.0370 H   0  0  0  0  0  0  0  0  0  0  0  0
    4.5060  -11.0330    1.5180 H   0  0  0  0  0  0  0  0  0  0  0  0
    5.7722   -8.0856    0.6478 H   0  0  0  0  0  0  0  0  0  0  0  0
    4.7181   -7.4889    2.0011 H   0  0  0  0  0  0  0  0  0  0  0  0
    7.7099   -7.5658    1.7671 H   0  0  0  0  0  0  0  0  0  0  0  0
    6.5747   -6.2958    2.4438 H   0  0  0  0  0  0  0  0  0  0  0  0
   10.3901   -7.7903    4.5021 H   0  0  0  0  0  0  0  0  0  0  0  0
  1  2  2  0
  2  3  2  0
  2  4  1  0
  4  5  2  0
  5  6  1  0
  6  7  2  0
  7  8  1  0
  8  9  2  0
  2 10  1  0
 10 11  2  0
 11 12  1  0
 12 13  1  0
 13 14  1  0
 14 15  2  0
 15 16  1  0
 16 17  1  0
 17 18  2  0
 18 19  1  0
 19 20  2  0
 20 21  1  0
 21 22  2  0
 16 23  2  0
 23 24  1  0
 12 25  2  0
 25 26  1  0
 26 27  1  0
 27 28  1  0
 28 29  1  0
 29 30  1  0
 30 31  1  0
 31 32  1  0
 31 33  1  0
 33 34  1  0
 26 35  2  0
  9  4  1  0
 35 10  1  0
 24 14  1  0
 34 28  1  0
 22 17  1  0
  5 36  1  0
  6 37  1  0
  7 38  1  0
  8 39  1  0
  9 40  1  0
 11 41  1  0
 13 42  1  0
 15 43  1  0
 18 44  1  0
 19 45  1  0
 20 46  1  0
 21 47  1  0
 22 48  1  0
 24 49  1  0
 27 50  1  0
 28 51  1  6
 29 52  1  0
 29 53  1  0
 30 54  1  0
 30 55  1  0
 31 56  1  6
 32 57  1  0
 33 58  1  0
 33 59  1  0
 34 60  1  0
 34 61  1  0
 35 62  1  0
M  END
>  <meeko>  (9) 
{"is_sidechain": [false], "free_energy": -9.218, "intermolecular_energy": -12.953, "internal_energy": -1.279}

$$$$
