1oyt_ligand
     RDKit          3D

 55 59  0  0  0  0  0  0  0  0999 V2000
  -13.9140   -7.1170    5.5870 N   0  0  0  0  0  0  0  0  0  0  0  0
  -13.1680   -7.1080    6.6700 C   0  0  0  0  0  0  0  0  0  0  0  0
  -13.7150   -7.1230    7.8670 N   0  0  0  0  0  0  0  0  0  0  0  0
  -11.6970   -7.0860    6.5440 C   0  0  0  0  0  0  0  0  0  0  0  0
  -10.9710   -5.9260    6.8370 C   0  0  0  0  0  0  0  0  0  0  0  0
   -9.5730   -5.9080    6.7430 C   0  0  0  0  0  0  0  0  0  0  0  0
   -8.8490   -7.0500    6.3510 C   0  0  0  0  0  0  0  0  0  0  0  0
   -7.3240   -6.9660    6.3300 C   0  0  1  0  0  0  0  0  0  0  0  0
   -6.5650   -7.4900    7.5490 C   0  0  1  0  0  0  0  0  0  0  0  0
   -7.4120   -7.6640    8.7750 C   0  0  0  0  0  0  0  0  0  0  0  0
   -7.8640   -6.7340    9.4220 O   0  0  0  0  0  0  0  0  0  0  0  0
   -7.6650   -8.9950    8.9390 N   0  0  0  0  0  0  0  0  0  0  0  0
   -8.5400   -9.5270    9.9660 C   0  0  0  0  0  0  0  0  0  0  0  0
   -7.7340  -10.2120   11.0420 C   0  0  0  0  0  0  0  0  0  0  0  0
   -6.3430  -10.3540   10.9060 C   0  0  0  0  0  0  0  0  0  0  0  0
   -5.6040  -11.0180   11.8860 C   0  0  0  0  0  0  0  0  0  0  0  0
   -6.2520  -11.5440   12.9980 C   0  0  0  0  0  0  0  0  0  0  0  0
   -5.5420  -12.1840   13.9340 F   0  0  0  0  0  0  0  0  0  0  0  0
   -7.6270  -11.4210   13.1460 C   0  0  0  0  0  0  0  0  0  0  0  0
   -8.3710  -10.7590   12.1690 C   0  0  0  0  0  0  0  0  0  0  0  0
   -7.1380   -9.7480    7.9310 C   0  0  0  0  0  0  0  0  0  0  0  0
   -7.4410  -10.8810    7.6070 O   0  0  0  0  0  0  0  0  0  0  0  0
   -6.1290   -8.9040    7.2100 C   0  0  1  0  0  0  0  0  0  0  0  0
   -6.1790   -9.0720    5.7000 C   0  0  2  0  0  0  0  0  0  0  0  0
   -4.8100   -9.2110    5.0430 C   0  0  0  0  0  0  0  0  0  0  0  0
   -4.3110   -7.7870    4.9120 C   0  0  0  0  0  0  0  0  0  0  0  0
   -5.5430   -7.0310    4.4600 C   0  0  0  0  0  0  0  0  0  0  0  0
   -6.7030   -7.7280    5.1640 N   0  0  2  0  0  0  0  0  0  0  0  0
   -9.5790   -8.2090    6.0500 C   0  0  0  0  0  0  0  0  0  0  0  0
  -10.9820   -8.2250    6.1440 C   0  0  0  0  0  0  0  0  0  0  0  0
  -14.9260   -7.1330    5.6250 H   0  0  0  0  0  0  0  0  0  0  0  0
  -13.4950   -7.0710    4.6650 H   0  0  0  0  0  0  0  0  0  0  0  0
  -14.7180   -7.1370    8.0090 H   0  0  0  0  0  0  0  0  0  0  0  0
  -13.1380   -7.1380    8.7030 H   0  0  0  0  0  0  0  0  0  0  0  0
  -11.5054   -5.0154    7.1455 H   0  0  0  0  0  0  0  0  0  0  0  0
   -9.0295   -4.9816    6.9806 H   0  0  0  0  0  0  0  0  0  0  0  0
   -7.2088   -5.8735    6.2732 H   0  0  0  0  0  0  0  0  0  0  0  0
   -5.7666   -6.7630    7.7590 H   0  0  0  0  0  0  0  0  0  0  0  0
   -9.1158   -8.7035   10.4136 H   0  0  0  0  0  0  0  0  0  0  0  0
   -9.2208  -10.2604    9.5093 H   0  0  0  0  0  0  0  0  0  0  0  0
   -5.8341   -9.9399   10.0231 H   0  0  0  0  0  0  0  0  0  0  0  0
   -4.5144  -11.1247   11.7793 H   0  0  0  0  0  0  0  0  0  0  0  0
   -8.1275  -11.8436   14.0297 H   0  0  0  0  0  0  0  0  0  0  0  0
   -9.4612  -10.6647   12.2813 H   0  0  0  0  0  0  0  0  0  0  0  0
   -5.1044   -9.1706    7.5087 H   0  0  0  0  0  0  0  0  0  0  0  0
   -6.7738   -9.9718    5.4841 H   0  0  0  0  0  0  0  0  0  0  0  0
   -4.1330   -9.8045    5.6750 H   0  0  0  0  0  0  0  0  0  0  0  0
   -4.8597   -9.7295    4.0742 H   0  0  0  0  0  0  0  0  0  0  0  0
   -3.9461   -7.4061    5.8773 H   0  0  0  0  0  0  0  0  0  0  0  0
   -3.4640   -7.6880    4.2171 H   0  0  0  0  0  0  0  0  0  0  0  0
   -5.4833   -5.9751    4.7626 H   0  0  0  0  0  0  0  0  0  0  0  0
   -5.6565   -7.0350    3.3659 H   0  0  0  0  0  0  0  0  0  0  0  0
   -7.4230   -7.8900    4.4440 H   0  0  0  0  0  0  0  0  0  0  0  0
   -9.0464   -9.1187    5.7358 H   0  0  0  0  0  0  0  0  0  0  0  0
  -11.5290   -9.1475    5.8994 H   0  0  0  0  0  0  0  0  0  0  0  0
  1  2  1  0
  2  3  2  0
  2  4  1  0
  4  5  2  0
  5  6  1  0
  6  7  2  0
  7  8  1  0
  8  9  1  0
  9 10  1  0
 10 11  2  0
 10 12  1  0
 12 13  1  0
 13 14  1  0
 14 15  2  0
 15 16  1  0
 16 17  2  0
 17 18  1  0
 17 19  1  0
 19 20  2  0
 12 21  1  0
 21 22  2  0
 21 23  1  0
 23 24  1  0
 24 25  1  0
 25 26  1  0
 26 27  1  0
 27 28  1  0
  7 29  1  0
 29 30  2  0
 30  4  1  0
 28  8  1  0
 23  9  1  0
 28 24  1  0
 20 14  1  0
  1 31  1  0
  1 32  1  0
  3 33  1  0
  3 34  1  0
  5 35  1  0
  6 36  1  0
  8 37  1  6
  9 38  1  1
 13 39  1  0
 13 40  1  0
 15 41  1  0
 16 42  1  0
 19 43  1  0
 20 44  1  0
 23 45  1  1
 24 46  1  1
 25 47  1  0
 25 48  1  0
 26 49  1  0
 26 50  1  0
 27 51  1  0
 27 52  1  0
 28 53  1  6
 29 54  1  0
 30 55  1  0
M  CHG  2   3   1  28   1
M  END
>  <meeko>  (1) 
{"is_sidechain": [false], "free_energy": -9.234, "intermolecular_energy": -11.394, "internal_energy": -0.586}

$$$$
1oyt_ligand
     RDKit          3D

 55 59  0  0  0  0  0  0  0  0999 V2000
  -14.0140   -7.3270    7.4670 N   0  0  0  0  0  0  0  0  0  0  0  0
  -13.2560   -7.7580    6.4820 C   0  0  0  0  0  0  0  0  0  0  0  0
  -13.7850   -8.3570    5.4360 N   0  0  0  0  0  0  0  0  0  0  0  0
  -11.7930   -7.5660    6.5460 C   0  0  0  0  0  0  0  0  0  0  0  0
  -10.9230   -8.5030    5.9760 C   0  0  0  0  0  0  0  0  0  0  0  0
   -9.5360   -8.3120    6.0130 C   0  0  0  0  0  0  0  0  0  0  0  0
   -8.9660   -7.1790    6.6240 C   0  0  0  0  0  0  0  0  0  0  0  0
   -7.4480   -7.0160    6.5710 C   0  0  1  0  0  0  0  0  0  0  0  0
   -6.6310   -7.5580    7.7440 C   0  0  1  0  0  0  0  0  0  0  0  0
   -7.4360   -7.8330    8.9800 C   0  0  0  0  0  0  0  0  0  0  0  0
   -7.9170   -6.9600    9.6820 O   0  0  0  0  0  0  0  0  0  0  0  0
   -7.6170   -9.1820    9.0850 N   0  0  0  0  0  0  0  0  0  0  0  0
   -8.4370   -9.8070   10.1050 C   0  0  0  0  0  0  0  0  0  0  0  0
   -9.8370  -10.0350    9.5900 C   0  0  0  0  0  0  0  0  0  0  0  0
  -10.8880   -9.1940    9.9930 C   0  0  0  0  0  0  0  0  0  0  0  0
  -12.1880   -9.4280    9.5430 C   0  0  0  0  0  0  0  0  0  0  0  0
  -12.4400  -10.5020    8.6960 C   0  0  0  0  0  0  0  0  0  0  0  0
  -13.6880  -10.7260    8.2690 F   0  0  0  0  0  0  0  0  0  0  0  0
  -11.4150  -11.3480    8.2930 C   0  0  0  0  0  0  0  0  0  0  0  0
  -10.1140  -11.1190    8.7410 C   0  0  0  0  0  0  0  0  0  0  0  0
   -7.0800   -9.8570    8.0290 C   0  0  0  0  0  0  0  0  0  0  0  0
   -7.3350  -10.9880    7.6570 O   0  0  0  0  0  0  0  0  0  0  0  0
   -6.1340   -8.9300    7.3250 C   0  0  1  0  0  0  0  0  0  0  0  0
   -6.2160   -9.0280    5.8100 C   0  0  2  0  0  0  0  0  0  0  0  0
   -4.8600   -9.0660    5.1150 C   0  0  0  0  0  0  0  0  0  0  0  0
   -4.4370   -7.6130    5.0410 C   0  0  0  0  0  0  0  0  0  0  0  0
   -5.7170   -6.9000    4.6570 C   0  0  0  0  0  0  0  0  0  0  0  0
   -6.8210   -7.6890    5.3540 N   0  0  2  0  0  0  0  0  0  0  0  0
   -9.8390   -6.2470    7.2030 C   0  0  0  0  0  0  0  0  0  0  0  0
  -11.2310   -6.4400    7.1650 C   0  0  0  0  0  0  0  0  0  0  0  0
  -15.0200   -7.4360    7.4640 H   0  0  0  0  0  0  0  0  0  0  0  0
  -13.6050   -6.8960    8.2880 H   0  0  0  0  0  0  0  0  0  0  0  0
  -14.7800   -8.5150    5.3410 H   0  0  0  0  0  0  0  0  0  0  0  0
  -13.2000   -8.6710    4.6660 H   0  0  0  0  0  0  0  0  0  0  0  0
  -11.3343   -9.4014    5.4925 H   0  0  0  0  0  0  0  0  0  0  0  0
   -8.8773   -9.0641    5.5544 H   0  0  0  0  0  0  0  0  0  0  0  0
   -7.3893   -5.9176    6.5659 H   0  0  0  0  0  0  0  0  0  0  0  0
   -5.8641   -6.8026    7.9704 H   0  0  0  0  0  0  0  0  0  0  0  0
   -7.9924  -10.7733   10.3853 H   0  0  0  0  0  0  0  0  0  0  0  0
   -8.4834   -9.1431   10.9809 H   0  0  0  0  0  0  0  0  0  0  0  0
  -10.6852   -8.3478   10.6659 H   0  0  0  0  0  0  0  0  0  0  0  0
  -13.0091   -8.7665    9.8565 H   0  0  0  0  0  0  0  0  0  0  0  0
  -11.6281  -12.1946    7.6237 H   0  0  0  0  0  0  0  0  0  0  0  0
   -9.3011  -11.7906    8.4278 H   0  0  0  0  0  0  0  0  0  0  0  0
   -5.0896   -9.1583    7.5842 H   0  0  0  0  0  0  0  0  0  0  0  0
   -6.7709   -9.9454    5.5639 H   0  0  0  0  0  0  0  0  0  0  0  0
   -4.1377   -9.6528    5.7015 H   0  0  0  0  0  0  0  0  0  0  0  0
   -4.9086   -9.5408    4.1239 H   0  0  0  0  0  0  0  0  0  0  0  0
   -4.0655   -7.2601    6.0144 H   0  0  0  0  0  0  0  0  0  0  0  0
   -3.6156   -7.4381    4.3306 H   0  0  0  0  0  0  0  0  0  0  0  0
   -5.7021   -5.8583    5.0099 H   0  0  0  0  0  0  0  0  0  0  0  0
   -5.8596   -6.8568    3.5671 H   0  0  0  0  0  0  0  0  0  0  0  0
   -7.5500   -7.8530    4.6450 H   0  0  0  0  0  0  0  0  0  0  0  0
   -9.4289   -5.3521    7.6939 H   0  0  0  0  0  0  0  0  0  0  0  0
  -11.8920   -5.6936    7.6297 H   0  0  0  0  0  0  0  0  0  0  0  0
  1  2  1  0
  2  3  2  0
  2  4  1  0
  4  5  2  0
  5  6  1  0
  6  7  2  0
  7  8  1  0
  8  9  1  0
  9 10  1  0
 10 11  2  0
 10 12  1  0
 12 13  1  0
 13 14  1  0
 14 15  2  0
 15 16  1  0
 16 17  2  0
 17 18  1  0
 17 19  1  0
 19 20  2  0
 12 21  1  0
 21 22  2  0
 21 23  1  0
 23 24  1  0
 24 25  1  0
 25 26  1  0
 26 27  1  0
 27 28  1  0
  7 29  1  0
 29 30  2  0
 30  4  1  0
 28  8  1  0
 23  9  1  0
 28 24  1  0
 20 14  1  0
  1 31  1  0
  1 32  1  0
  3 33  1  0
  3 34  1  0
  5 35  1  0
  6 36  1  0
  8 37  1  6
  9 38  1  1
 13 39  1  0
 13 40  1  0
 15 41  1  0
 16 42  1  0
 19 43  1  0
 20 44  1  0
 23 45  1  1
 24 46  1  1
 25 47  1  0
 25 48  1  0
 26 49  1  0
 26 50  1  0
 27 51  1  0
 27 52  1  0
 28 53  1  6
 29 54  1  0
 30 55  1  0
M  CHG  2   3   1  28   1
M  END
>  <meeko>  (2) 
{"is_sidechain": [false], "free_energy": -9.198, "intermolecular_energy": -10.024, "internal_energy": -1.911}

$$$$
1oyt_ligand
     RDKit          3D

 55 59  0  0  0  0  0  0  0  0999 V2000
   -8.4810   -9.9520   12.8920 N   0  0  0  0  0  0  0  0  0  0  0  0
   -7.7630  -10.8480   12.2510 C   0  0  0  0  0  0  0  0  0  0  0  0
   -7.2990  -11.9110   12.8730 N   0  0  0  0  0  0  0  0  0  0  0  0
   -7.4750  -10.6640   10.8150 C   0  0  0  0  0  0  0  0  0  0  0  0
   -8.2160  -11.3460    9.8430 C   0  0  0  0  0  0  0  0  0  0  0  0
   -7.9620  -11.1550    8.4790 C   0  0  0  0  0  0  0  0  0  0  0  0
   -6.9560  -10.2780    8.0340 C   0  0  0  0  0  0  0  0  0  0  0  0
   -6.7810  -10.0810    6.5290 C   0  0  1  0  0  0  0  0  0  0  0  0
   -7.5060   -8.9050    5.8750 C   0  0  1  0  0  0  0  0  0  0  0  0
   -8.6060   -8.3180    6.7100 C   0  0  0  0  0  0  0  0  0  0  0  0
   -9.6640   -8.8840    6.9280 O   0  0  0  0  0  0  0  0  0  0  0  0
   -8.1610   -7.1450    7.2470 N   0  0  0  0  0  0  0  0  0  0  0  0
   -8.9240   -6.3530    8.1930 C   0  0  0  0  0  0  0  0  0  0  0  0
  -10.0330   -5.6130    7.4860 C   0  0  0  0  0  0  0  0  0  0  0  0
  -10.1850   -5.7200    6.0940 C   0  0  0  0  0  0  0  0  0  0  0  0
  -11.1890   -5.0090    5.4380 C   0  0  0  0  0  0  0  0  0  0  0  0
  -12.0390   -4.1860    6.1700 C   0  0  0  0  0  0  0  0  0  0  0  0
  -12.9990   -3.5010    5.5380 F   0  0  0  0  0  0  0  0  0  0  0  0
  -11.9000   -4.0610    7.5460 C   0  0  0  0  0  0  0  0  0  0  0  0
  -10.8970   -4.7700    8.2060 C   0  0  0  0  0  0  0  0  0  0  0  0
   -6.8600   -6.8920    6.9250 C   0  0  0  0  0  0  0  0  0  0  0  0
   -6.0870   -6.1330    7.4800 O   0  0  0  0  0  0  0  0  0  0  0  0
   -6.4930   -7.7790    5.7720 C   0  0  1  0  0  0  0  0  0  0  0  0
   -5.1000   -8.3740    5.8960 C   0  0  2  0  0  0  0  0  0  0  0  0
   -4.2850   -8.3220    4.6090 C   0  0  0  0  0  0  0  0  0  0  0  0
   -4.7700   -9.5140    3.8100 C   0  0  0  0  0  0  0  0  0  0  0  0
   -4.8860  -10.6050    4.8540 C   0  0  0  0  0  0  0  0  0  0  0  0
   -5.3250   -9.8790    6.1220 N   0  0  2  0  0  0  0  0  0  0  0  0
   -6.2080   -9.6020    9.0100 C   0  0  0  0  0  0  0  0  0  0  0  0
   -6.4640   -9.7950   10.3780 C   0  0  0  0  0  0  0  0  0  0  0  0
   -8.7040  -10.0380   13.8760 H   0  0  0  0  0  0  0  0  0  0  0  0
   -8.8100   -9.1160   12.4220 H   0  0  0  0  0  0  0  0  0  0  0  0
   -7.4660  -12.0860   13.8560 H   0  0  0  0  0  0  0  0  0  0  0  0
   -6.7620  -12.6140   12.3720 H   0  0  0  0  0  0  0  0  0  0  0  0
   -9.0089  -12.0417   10.1548 H   0  0  0  0  0  0  0  0  0  0  0  0
   -8.5629  -11.7033    7.7386 H   0  0  0  0  0  0  0  0  0  0  0  0
   -7.2265  -11.0225    6.1754 H   0  0  0  0  0  0  0  0  0  0  0  0
   -7.9271   -9.2797    4.9304 H   0  0  0  0  0  0  0  0  0  0  0  0
   -9.3593   -7.0175    8.9539 H   0  0  0  0  0  0  0  0  0  0  0  0
   -8.2537   -5.6218    8.6684 H   0  0  0  0  0  0  0  0  0  0  0  0
   -9.5082   -6.3683    5.5181 H   0  0  0  0  0  0  0  0  0  0  0  0
  -11.3084   -5.0982    4.3481 H   0  0  0  0  0  0  0  0  0  0  0  0
  -12.5779   -3.4058    8.1126 H   0  0  0  0  0  0  0  0  0  0  0  0
  -10.7814   -4.6691    9.2952 H   0  0  0  0  0  0  0  0  0  0  0  0
   -6.4978   -7.2197    4.8248 H   0  0  0  0  0  0  0  0  0  0  0  0
   -4.5677   -7.8170    6.6811 H   0  0  0  0  0  0  0  0  0  0  0  0
   -4.4751   -7.3850    4.0651 H   0  0  0  0  0  0  0  0  0  0  0  0
   -3.2015   -8.3545    4.7962 H   0  0  0  0  0  0  0  0  0  0  0  0
   -5.7453   -9.3072    3.3453 H   0  0  0  0  0  0  0  0  0  0  0  0
   -4.0984   -9.7799    2.9804 H   0  0  0  0  0  0  0  0  0  0  0  0
   -5.6365  -11.3512    4.5542 H   0  0  0  0  0  0  0  0  0  0  0  0
   -3.9419  -11.1523    4.9922 H   0  0  0  0  0  0  0  0  0  0  0  0
   -4.7120  -10.2200    6.8770 H   0  0  0  0  0  0  0  0  0  0  0  0
   -5.4101   -8.9113    8.6998 H   0  0  0  0  0  0  0  0  0  0  0  0
   -5.8597   -9.2540   11.1211 H   0  0  0  0  0  0  0  0  0  0  0  0
  1  2  1  0
  2  3  2  0
  2  4  1  0
  4  5  2  0
  5  6  1  0
  6  7  2  0
  7  8  1  0
  8  9  1  0
  9 10  1  0
 10 11  2  0
 10 12  1  0
 12 13  1  0
 13 14  1  0
 14 15  2  0
 15 16  1  0
 16 17  2  0
 17 18  1  0
 17 19  1  0
 19 20  2  0
 12 21  1  0
 21 22  2  0
 21 23  1  0
 23 24  1  0
 24 25  1  0
 25 26  1  0
 26 27  1  0
 27 28  1  0
  7 29  1  0
 29 30  2  0
 30  4  1  0
 28  8  1  0
 23  9  1  0
 28 24  1  0
 20 14  1  0
  1 31  1  0
  1 32  1  0
  3 33  1  0
  3 34  1  0
  5 35  1  0
  6 36  1  0
  8 37  1  6
  9 38  1  6
 13 39  1  0
 13 40  1  0
 15 41  1  0
 16 42  1  0
 19 43  1  0
 20 44  1  0
 23 45  1  6
 24 46  1  1
 25 47  1  0
 25 48  1  0
 26 49  1  0
 26 50  1  0
 27 51  1  0
 27 52  1  0
 28 53  1  1
 29 54  1  0
 30 55  1  0
M  CHG  2   3   1  28   1
M  END
>  <meeko>  (3) 
{"is_sidechain": [false], "free_energy": -8.501, "intermolecular_energy": -10.668, "internal_energy": -0.407}

$$$$
1oyt_ligand
     RDKit          3D

 55 59  0  0  0  0  0  0  0  0999 V2000
   -3.8120   -9.9490    3.2710 N   0  0  0  0  0  0  0  0  0  0  0  0
   -4.6730   -9.0140    3.6120 C   0  0  0  0  0  0  0  0  0  0  0  0
   -5.0610   -8.1050    2.7430 N   0  0  0  0  0  0  0  0  0  0  0  0
   -5.2150   -8.9850    4.9850 C   0  0  0  0  0  0  0  0  0  0  0  0
   -5.6170  -10.1650    5.6210 C   0  0  0  0  0  0  0  0  0  0  0  0
   -6.1090  -10.1450    6.9320 C   0  0  0  0  0  0  0  0  0  0  0  0
   -6.2210   -8.9430    7.6570 C   0  0  0  0  0  0  0  0  0  0  0  0
   -6.7120   -9.0130    9.1020 C   0  0  1  0  0  0  0  0  0  0  0  0
   -8.1810   -8.6870    9.3710 C   0  0  1  0  0  0  0  0  0  0  0  0
   -8.8680   -7.9640    8.2510 C   0  0  0  0  0  0  0  0  0  0  0  0
   -8.6370   -6.8040    7.9530 O   0  0  0  0  0  0  0  0  0  0  0  0
   -9.6670   -8.8520    7.5900 N   0  0  0  0  0  0  0  0  0  0  0  0
  -10.4060   -8.5270    6.3850 C   0  0  0  0  0  0  0  0  0  0  0  0
  -10.9780   -7.1340    6.4780 C   0  0  0  0  0  0  0  0  0  0  0  0
  -11.9850   -6.8400    7.4110 C   0  0  0  0  0  0  0  0  0  0  0  0
  -12.5370   -5.5600    7.4720 C   0  0  0  0  0  0  0  0  0  0  0  0
  -12.0880   -4.5750    6.5980 C   0  0  0  0  0  0  0  0  0  0  0  0
  -12.6220   -3.3490    6.6550 F   0  0  0  0  0  0  0  0  0  0  0  0
  -11.0990   -4.8490    5.6630 C   0  0  0  0  0  0  0  0  0  0  0  0
  -10.5440   -6.1270    5.5980 C   0  0  0  0  0  0  0  0  0  0  0  0
   -9.5580  -10.1150    8.0930 C   0  0  0  0  0  0  0  0  0  0  0  0
   -9.8680  -11.1630    7.5550 O   0  0  0  0  0  0  0  0  0  0  0  0
   -8.9110  -10.0170    9.4420 C   0  0  1  0  0  0  0  0  0  0  0  0
   -7.8870  -11.1120    9.6950 C   0  0  2  0  0  0  0  0  0  0  0  0
   -7.9870  -11.7490   11.0770 C   0  0  0  0  0  0  0  0  0  0  0  0
   -7.2480  -10.7890   11.9860 C   0  0  0  0  0  0  0  0  0  0  0  0
   -6.0320  -10.4060   11.1670 C   0  0  0  0  0  0  0  0  0  0  0  0
   -6.5280  -10.3920    9.7250 N   0  0  2  0  0  0  0  0  0  0  0  0
   -5.8260   -7.7600    7.0140 C   0  0  0  0  0  0  0  0  0  0  0  0
   -5.3330   -7.7830    5.6980 C   0  0  0  0  0  0  0  0  0  0  0  0
   -3.4160  -10.0080    2.3410 H   0  0  0  0  0  0  0  0  0  0  0  0
   -3.4870  -10.6290    3.9490 H   0  0  0  0  0  0  0  0  0  0  0  0
   -4.7200   -8.0790    1.7900 H   0  0  0  0  0  0  0  0  0  0  0  0
   -5.7430   -7.3970    3.0010 H   0  0  0  0  0  0  0  0  0  0  0  0
   -5.5455  -11.1220    5.0834 H   0  0  0  0  0  0  0  0  0  0  0  0
   -6.4148  -11.0893    7.4060 H   0  0  0  0  0  0  0  0  0  0  0  0
   -6.0803   -8.2271    9.5417 H   0  0  0  0  0  0  0  0  0  0  0  0
   -8.2040   -8.0608   10.2750 H   0  0  0  0  0  0  0  0  0  0  0  0
   -9.7302   -8.5842    5.5189 H   0  0  0  0  0  0  0  0  0  0  0  0
  -11.2316   -9.2445    6.2685 H   0  0  0  0  0  0  0  0  0  0  0  0
  -12.3406   -7.6226    8.0973 H   0  0  0  0  0  0  0  0  0  0  0  0
  -13.3227   -5.3310    8.2070 H   0  0  0  0  0  0  0  0  0  0  0  0
  -10.7546   -4.0616    4.9764 H   0  0  0  0  0  0  0  0  0  0  0  0
   -9.7634   -6.3480    4.8551 H   0  0  0  0  0  0  0  0  0  0  0  0
   -9.6559  -10.1099   10.2461 H   0  0  0  0  0  0  0  0  0  0  0  0
   -8.0325  -11.8886    8.9297 H   0  0  0  0  0  0  0  0  0  0  0  0
   -9.0382  -11.8469   11.3858 H   0  0  0  0  0  0  0  0  0  0  0  0
   -7.5630  -12.7637   11.1037 H   0  0  0  0  0  0  0  0  0  0  0  0
   -7.8646   -9.9069   12.2134 H   0  0  0  0  0  0  0  0  0  0  0  0
   -6.9912  -11.2284   12.9612 H   0  0  0  0  0  0  0  0  0  0  0  0
   -5.6635   -9.4120   11.4605 H   0  0  0  0  0  0  0  0  0  0  0  0
   -5.1942  -11.1036   11.3131 H   0  0  0  0  0  0  0  0  0  0  0  0
   -5.8350  -10.9220    9.1760 H   0  0  0  0  0  0  0  0  0  0  0  0
   -5.9033   -6.8011    7.5474 H   0  0  0  0  0  0  0  0  0  0  0  0
   -5.0338   -6.8397    5.2178 H   0  0  0  0  0  0  0  0  0  0  0  0
  1  2  1  0
  2  3  2  0
  2  4  1  0
  4  5  2  0
  5  6  1  0
  6  7  2  0
  7  8  1  0
  8  9  1  0
  9 10  1  0
 10 11  2  0
 10 12  1  0
 12 13  1  0
 13 14  1  0
 14 15  2  0
 15 16  1  0
 16 17  2  0
 17 18  1  0
 17 19  1  0
 19 20  2  0
 12 21  1  0
 21 22  2  0
 21 23  1  0
 23 24  1  0
 24 25  1  0
 25 26  1  0
 26 27  1  0
 27 28  1  0
  7 29  1  0
 29 30  2  0
 30  4  1  0
 28  8  1  0
 23  9  1  0
 28 24  1  0
 20 14  1  0
  1 31  1  0
  1 32  1  0
  3 33  1  0
  3 34  1  0
  5 35  1  0
  6 36  1  0
  8 37  1  1
  9 38  1  1
 13 39  1  0
 13 40  1  0
 15 41  1  0
 16 42  1  0
 19 43  1  0
 20 44  1  0
 23 45  1  1
 24 46  1  6
 25 47  1  0
 25 48  1  0
 26 49  1  0
 26 50  1  0
 27 51  1  0
 27 52  1  0
 28 53  1  6
 29 54  1  0
 30 55  1  0
M  CHG  2   3   1  28   1
M  END
>  <meeko>  (4) 
{"is_sidechain": [false], "free_energy": -8.451, "intermolecular_energy": -11.072, "internal_energy": 0.058}

$$$$
1oyt_ligand
     RDKit          3D

 55 59  0  0  0  0  0  0  0  0999 V2000
   -4.9990   -8.0070    2.5460 N   0  0  0  0  0  0  0  0  0  0  0  0
   -4.6250   -8.8890    3.4450 C   0  0  0  0  0  0  0  0  0  0  0  0
   -3.7530   -9.8300    3.1480 N   0  0  0  0  0  0  0  0  0  0  0  0
   -5.1840   -8.8250    4.8100 C   0  0  0  0  0  0  0  0  0  0  0  0
   -5.7300   -9.9640    5.4150 C   0  0  0  0  0  0  0  0  0  0  0  0
   -6.2390   -9.9120    6.7190 C   0  0  0  0  0  0  0  0  0  0  0  0
   -6.2250   -8.7200    7.4670 C   0  0  0  0  0  0  0  0  0  0  0  0
   -6.7460   -8.7620    8.9030 C   0  0  1  0  0  0  0  0  0  0  0  0
   -8.1350   -8.1840    9.1730 C   0  0  1  0  0  0  0  0  0  0  0  0
   -8.6580   -7.2990    8.0810 C   0  0  0  0  0  0  0  0  0  0  0  0
   -8.2140   -6.1890    7.8390 O   0  0  0  0  0  0  0  0  0  0  0  0
   -9.5940   -7.9960    7.3720 N   0  0  0  0  0  0  0  0  0  0  0  0
  -10.2400   -7.4880    6.1770 C   0  0  0  0  0  0  0  0  0  0  0  0
  -11.7210   -7.7750    6.2160 C   0  0  0  0  0  0  0  0  0  0  0  0
  -12.4750   -7.4640    7.3600 C   0  0  0  0  0  0  0  0  0  0  0  0
  -13.8370   -7.7620    7.4070 C   0  0  0  0  0  0  0  0  0  0  0  0
  -14.4460   -8.3740    6.3170 C   0  0  0  0  0  0  0  0  0  0  0  0
  -15.7510   -8.6620    6.3660 F   0  0  0  0  0  0  0  0  0  0  0  0
  -13.7160   -8.6960    5.1800 C   0  0  0  0  0  0  0  0  0  0  0  0
  -12.3530   -8.4010    5.1280 C   0  0  0  0  0  0  0  0  0  0  0  0
   -9.7280   -9.2780    7.8170 C   0  0  0  0  0  0  0  0  0  0  0  0
  -10.2140  -10.2270    7.2290 O   0  0  0  0  0  0  0  0  0  0  0  0
   -9.0970   -9.3590    9.1760 C   0  0  1  0  0  0  0  0  0  0  0  0
   -8.2960  -10.6340    9.3880 C   0  0  2  0  0  0  0  0  0  0  0  0
   -8.5350  -11.3010   10.7370 C   0  0  0  0  0  0  0  0  0  0  0  0
   -7.6490  -10.5330   11.6970 C   0  0  0  0  0  0  0  0  0  0  0  0
   -6.3700  -10.3450   10.9080 C   0  0  0  0  0  0  0  0  0  0  0  0
   -6.8290  -10.1780    9.4630 N   0  0  2  0  0  0  0  0  0  0  0  0
   -5.6860   -7.5790    6.8560 C   0  0  0  0  0  0  0  0  0  0  0  0
   -5.1760   -7.6310    5.5480 C   0  0  0  0  0  0  0  0  0  0  0  0
   -4.6400   -8.0120    1.5990 H   0  0  0  0  0  0  0  0  0  0  0  0
   -5.6960   -7.3030    2.7640 H   0  0  0  0  0  0  0  0  0  0  0  0
   -3.3390   -9.9200    2.2280 H   0  0  0  0  0  0  0  0  0  0  0  0
   -3.4490  -10.4980    3.8500 H   0  0  0  0  0  0  0  0  0  0  0  0
   -5.7595  -10.9124    4.8586 H   0  0  0  0  0  0  0  0  0  0  0  0
   -6.6593  -10.8237    7.1686 H   0  0  0  0  0  0  0  0  0  0  0  0
   -5.9889   -8.1257    9.3846 H   0  0  0  0  0  0  0  0  0  0  0  0
   -8.0592   -7.6042   10.1047 H   0  0  0  0  0  0  0  0  0  0  0  0
  -10.0832   -6.4010    6.1146 H   0  0  0  0  0  0  0  0  0  0  0  0
   -9.8038   -7.9844    5.2976 H   0  0  0  0  0  0  0  0  0  0  0  0
  -11.9894   -6.9836    8.2222 H   0  0  0  0  0  0  0  0  0  0  0  0
  -14.4264   -7.5140    8.3021 H   0  0  0  0  0  0  0  0  0  0  0  0
  -14.2097   -9.1810    4.3250 H   0  0  0  0  0  0  0  0  0  0  0  0
  -11.7707   -8.6596    4.2313 H   0  0  0  0  0  0  0  0  0  0  0  0
   -9.8599   -9.3479    9.9683 H   0  0  0  0  0  0  0  0  0  0  0  0
   -8.5684  -11.3369    8.5869 H   0  0  0  0  0  0  0  0  0  0  0  0
   -9.5918  -11.2180   11.0309 H   0  0  0  0  0  0  0  0  0  0  0  0
   -8.3039  -12.3763   10.7208 H   0  0  0  0  0  0  0  0  0  0  0  0
   -8.0977   -9.5634   11.9588 H   0  0  0  0  0  0  0  0  0  0  0  0
   -7.4945  -11.0536   12.6536 H   0  0  0  0  0  0  0  0  0  0  0  0
   -5.8311   -9.4491   11.2501 H   0  0  0  0  0  0  0  0  0  0  0  0
   -5.6770  -11.1905   11.0300 H   0  0  0  0  0  0  0  0  0  0  0  0
   -6.2350  -10.8010    8.8970 H   0  0  0  0  0  0  0  0  0  0  0  0
   -5.6621   -6.6286    7.4092 H   0  0  0  0  0  0  0  0  0  0  0  0
   -4.7625   -6.7186    5.0935 H   0  0  0  0  0  0  0  0  0  0  0  0
  1  2  1  0
  2  3  2  0
  2  4  1  0
  4  5  2  0
  5  6  1  0
  6  7  2  0
  7  8  1  0
  8  9  1  0
  9 10  1  0
 10 11  2  0
 10 12  1  0
 12 13  1  0
 13 14  1  0
 14 15  2  0
 15 16  1  0
 16 17  2  0
 17 18  1  0
 17 19  1  0
 19 20  2  0
 12 21  1  0
 21 22  2  0
 21 23  1  0
 23 24  1  0
 24 25  1  0
 25 26  1  0
 26 27  1  0
 27 28  1  0
  7 29  1  0
 29 30  2  0
 30  4  1  0
 28  8  1  0
 23  9  1  0
 28 24  1  0
 20 14  1  0
  1 31  1  0
  1 32  1  0
  3 33  1  0
  3 34  1  0
  5 35  1  0
  6 36  1  0
  8 37  1  1
  9 38  1  1
 13 39  1  0
 13 40  1  0
 15 41  1  0
 16 42  1  0
 19 43  1  0
 20 44  1  0
 23 45  1  1
 24 46  1  6
 25 47  1  0
 25 48  1  0
 26 49  1  0
 26 50  1  0
 27 51  1  0
 27 52  1  0
 28 53  1  6
 29 54  1  0
 30 55  1  0
M  CHG  2   3   1  28   1
M  END
>  <meeko>  (5) 
{"is_sidechain": [false], "free_energy": -8.355, "intermolecular_energy": -10.539, "internal_energy": -0.356}

$$$$
1oyt_ligand
     RDKit          3D

 55 59  0  0  0  0  0  0  0  0999 V2000
   -7.3440   -2.8770   10.8960 N   0  0  0  0  0  0  0  0  0  0  0  0
   -7.8130   -2.9960    9.6740 C   0  0  0  0  0  0  0  0  0  0  0  0
   -7.7000   -2.0110    8.8080 N   0  0  0  0  0  0  0  0  0  0  0  0
   -8.4740   -4.2510    9.2630 C   0  0  0  0  0  0  0  0  0  0  0  0
   -9.3640   -4.2710    8.1830 C   0  0  0  0  0  0  0  0  0  0  0  0
   -9.9740   -5.4650    7.7750 C   0  0  0  0  0  0  0  0  0  0  0  0
   -9.7180   -6.6830    8.4320 C   0  0  0  0  0  0  0  0  0  0  0  0
  -10.3770   -7.9490    7.8890 C   0  0  1  0  0  0  0  0  0  0  0  0
   -9.5190   -8.8940    7.0480 C   0  0  1  0  0  0  0  0  0  0  0  0
   -8.2510   -8.2800    6.5310 C   0  0  0  0  0  0  0  0  0  0  0  0
   -8.2190   -7.4290    5.6580 O   0  0  0  0  0  0  0  0  0  0  0  0
   -7.2100   -8.7480    7.2800 N   0  0  0  0  0  0  0  0  0  0  0  0
   -5.8410   -8.2890    7.1300 C   0  0  0  0  0  0  0  0  0  0  0  0
   -5.3060   -8.6650    5.7700 C   0  0  0  0  0  0  0  0  0  0  0  0
   -5.2310  -10.0130    5.3840 C   0  0  0  0  0  0  0  0  0  0  0  0
   -4.7030  -10.3610    4.1400 C   0  0  0  0  0  0  0  0  0  0  0  0
   -4.2460   -9.3650    3.2850 C   0  0  0  0  0  0  0  0  0  0  0  0
   -3.7360   -9.7020    2.0940 F   0  0  0  0  0  0  0  0  0  0  0  0
   -4.3040   -8.0270    3.6510 C   0  0  0  0  0  0  0  0  0  0  0  0
   -4.8300   -7.6740    4.8950 C   0  0  0  0  0  0  0  0  0  0  0  0
   -7.6260   -9.5650    8.2890 C   0  0  0  0  0  0  0  0  0  0  0  0
   -7.0190   -9.8780    9.2970 O   0  0  0  0  0  0  0  0  0  0  0  0
   -9.0340   -9.9850    7.9850 C   0  0  1  0  0  0  0  0  0  0  0  0
   -9.9320   -9.9970    9.2120 C   0  0  2  0  0  0  0  0  0  0  0  0
  -10.8210  -11.2310    9.3200 C   0  0  0  0  0  0  0  0  0  0  0  0
  -11.9940  -10.9280    8.4110 C   0  0  0  0  0  0  0  0  0  0  0  0
  -12.2940   -9.4740    8.7090 C   0  0  0  0  0  0  0  0  0  0  0  0
  -10.9310   -8.8490    8.9890 N   0  0  2  0  0  0  0  0  0  0  0  0
   -8.8320   -6.6580    9.5190 C   0  0  0  0  0  0  0  0  0  0  0  0
   -8.2220   -5.4600    9.9280 C   0  0  0  0  0  0  0  0  0  0  0  0
   -6.8820   -2.0350   11.2200 H   0  0  0  0  0  0  0  0  0  0  0  0
   -7.4610   -3.6210   11.5740 H   0  0  0  0  0  0  0  0  0  0  0  0
   -7.2570   -1.1300    9.0370 H   0  0  0  0  0  0  0  0  0  0  0  0
   -8.0440   -2.1120    7.8570 H   0  0  0  0  0  0  0  0  0  0  0  0
   -9.5878   -3.3368    7.6471 H   0  0  0  0  0  0  0  0  0  0  0  0
  -10.6685   -5.4498    6.9221 H   0  0  0  0  0  0  0  0  0  0  0  0
  -11.1431   -7.4877    7.2485 H   0  0  0  0  0  0  0  0  0  0  0  0
  -10.1414   -9.2124    6.1987 H   0  0  0  0  0  0  0  0  0  0  0  0
   -5.8113   -7.1951    7.2414 H   0  0  0  0  0  0  0  0  0  0  0  0
   -5.2186   -8.7647    7.9022 H   0  0  0  0  0  0  0  0  0  0  0  0
   -5.5901  -10.7983    6.0654 H   0  0  0  0  0  0  0  0  0  0  0  0
   -4.6488  -11.4173    3.8379 H   0  0  0  0  0  0  0  0  0  0  0  0
   -3.9375   -7.2494    2.9646 H   0  0  0  0  0  0  0  0  0  0  0  0
   -4.8720   -6.6155    5.1915 H   0  0  0  0  0  0  0  0  0  0  0  0
   -9.0632  -11.0074    7.5803 H   0  0  0  0  0  0  0  0  0  0  0  0
   -9.2850   -9.9415   10.0999 H   0  0  0  0  0  0  0  0  0  0  0  0
  -10.2849  -12.1286    8.9782 H   0  0  0  0  0  0  0  0  0  0  0  0
  -11.1330  -11.4349   10.3549 H   0  0  0  0  0  0  0  0  0  0  0  0
  -11.7206  -11.0661    7.3545 H   0  0  0  0  0  0  0  0  0  0  0  0
  -12.8553  -11.5906    8.5817 H   0  0  0  0  0  0  0  0  0  0  0  0
  -12.7723   -8.9911    7.8441 H   0  0  0  0  0  0  0  0  0  0  0  0
  -12.9883   -9.3562    9.5540 H   0  0  0  0  0  0  0  0  0  0  0  0
  -11.0380   -8.2990    9.8540 H   0  0  0  0  0  0  0  0  0  0  0  0
   -8.6113   -7.5903   10.0595 H   0  0  0  0  0  0  0  0  0  0  0  0
   -7.5338   -5.4705   10.7860 H   0  0  0  0  0  0  0  0  0  0  0  0
  1  2  1  0
  2  3  2  0
  2  4  1  0
  4  5  2  0
  5  6  1  0
  6  7  2  0
  7  8  1  0
  8  9  1  0
  9 10  1  0
 10 11  2  0
 10 12  1  0
 12 13  1  0
 13 14  1  0
 14 15  2  0
 15 16  1  0
 16 17  2  0
 17 18  1  0
 17 19  1  0
 19 20  2  0
 12 21  1  0
 21 22  2  0
 21 23  1  0
 23 24  1  0
 24 25  1  0
 25 26  1  0
 26 27  1  0
 27 28  1  0
  7 29  1  0
 29 30  2  0
 30  4  1  0
 28  8  1  0
 23  9  1  0
 28 24  1  0
 20 14  1  0
  1 31  1  0
  1 32  1  0
  3 33  1  0
  3 34  1  0
  5 35  1  0
  6 36  1  0
  8 37  1  6
  9 38  1  6
 13 39  1  0
 13 40  1  0
 15 41  1  0
 16 42  1  0
 19 43  1  0
 20 44  1  0
 23 45  1  6
 24 46  1  1
 25 47  1  0
 25 48  1  0
 26 49  1  0
 26 50  1  0
 27 51  1  0
 27 52  1  0
 28 53  1  1
 29 54  1  0
 30 55  1  0
M  CHG  2   3   1  28   1
M  END
>  <meeko>  (6) 
{"is_sidechain": [false], "free_energy": -8.328, "intermolecular_energy": -10.066, "internal_energy": -0.795}

$$$$
1oyt_ligand
     RDKit          3D

 55 59  0  0  0  0  0  0  0  0999 V2000
   -4.6680  -10.7630    5.1180 N   0  0  0  0  0  0  0  0  0  0  0  0
   -4.8810   -9.5280    5.5150 C   0  0  0  0  0  0  0  0  0  0  0  0
   -4.2330   -8.5210    4.9680 N   0  0  0  0  0  0  0  0  0  0  0  0
   -5.8610   -9.2630    6.5870 C   0  0  0  0  0  0  0  0  0  0  0  0
   -5.9590   -7.9940    7.1700 C   0  0  0  0  0  0  0  0  0  0  0  0
   -6.9050   -7.7310    8.1690 C   0  0  0  0  0  0  0  0  0  0  0  0
   -7.7870   -8.7290    8.6270 C   0  0  0  0  0  0  0  0  0  0  0  0
   -8.8280   -8.3470    9.6780 C   0  0  1  0  0  0  0  0  0  0  0  0
  -10.2080   -7.9110    9.1880 C   0  0  1  0  0  0  0  0  0  0  0  0
  -10.2570   -7.5370    7.7360 C   0  0  0  0  0  0  0  0  0  0  0  0
   -9.7460   -6.5270    7.2800 O   0  0  0  0  0  0  0  0  0  0  0  0
  -10.8460   -8.5570    7.0470 N   0  0  0  0  0  0  0  0  0  0  0  0
  -10.9700   -8.5860    5.6020 C   0  0  0  0  0  0  0  0  0  0  0  0
  -12.4140   -8.4320    5.1940 C   0  0  0  0  0  0  0  0  0  0  0  0
  -12.9780   -9.2910    4.2360 C   0  0  0  0  0  0  0  0  0  0  0  0
  -14.3040   -9.1250    3.8340 C   0  0  0  0  0  0  0  0  0  0  0  0
  -15.0650   -8.1000    4.3840 C   0  0  0  0  0  0  0  0  0  0  0  0
  -16.3350   -7.9400    3.9940 F   0  0  0  0  0  0  0  0  0  0  0  0
  -14.5240   -7.2350    5.3260 C   0  0  0  0  0  0  0  0  0  0  0  0
  -13.1980   -7.3960    5.7300 C   0  0  0  0  0  0  0  0  0  0  0  0
  -11.1510   -9.6140    7.8530 C   0  0  0  0  0  0  0  0  0  0  0  0
  -11.3760  -10.7650    7.5240 O   0  0  0  0  0  0  0  0  0  0  0  0
  -11.1020   -9.1350    9.2730 C   0  0  1  0  0  0  0  0  0  0  0  0
  -10.4570  -10.1350   10.2190 C   0  0  2  0  0  0  0  0  0  0  0  0
  -11.2080  -10.3250   11.5320 C   0  0  0  0  0  0  0  0  0  0  0  0
  -10.7630   -9.1590   12.3900 C   0  0  0  0  0  0  0  0  0  0  0  0
   -9.2760   -9.0770   12.1150 C   0  0  0  0  0  0  0  0  0  0  0  0
   -9.1330   -9.4810   10.6510 N   0  0  2  0  0  0  0  0  0  0  0  0
   -7.6810  -10.0020    8.0480 C   0  0  0  0  0  0  0  0  0  0  0  0
   -6.7310  -10.2640    7.0450 C   0  0  0  0  0  0  0  0  0  0  0  0
   -4.0070  -10.9910    4.3860 H   0  0  0  0  0  0  0  0  0  0  0  0
   -5.1410  -11.5420    5.5620 H   0  0  0  0  0  0  0  0  0  0  0  0
   -3.5510   -8.6470    4.2310 H   0  0  0  0  0  0  0  0  0  0  0  0
   -4.4140   -7.5650    5.2610 H   0  0  0  0  0  0  0  0  0  0  0  0
   -5.2833   -7.1917    6.8387 H   0  0  0  0  0  0  0  0  0  0  0  0
   -6.9603   -6.7228    8.6054 H   0  0  0  0  0  0  0  0  0  0  0  0
   -8.3146   -7.4850   10.1290 H   0  0  0  0  0  0  0  0  0  0  0  0
  -10.4984   -7.0426    9.7975 H   0  0  0  0  0  0  0  0  0  0  0  0
  -10.3820   -7.7621    5.1713 H   0  0  0  0  0  0  0  0  0  0  0  0
  -10.5960   -9.5519    5.2315 H   0  0  0  0  0  0  0  0  0  0  0  0
  -12.3712  -10.0986    3.8005 H   0  0  0  0  0  0  0  0  0  0  0  0
  -14.7443   -9.8012    3.0864 H   0  0  0  0  0  0  0  0  0  0  0  0
  -15.1374   -6.4271    5.7515 H   0  0  0  0  0  0  0  0  0  0  0  0
  -12.7644   -6.7088    6.4715 H   0  0  0  0  0  0  0  0  0  0  0  0
  -12.1141   -8.9585    9.6660 H   0  0  0  0  0  0  0  0  0  0  0  0
  -10.4002  -11.1006    9.6952 H   0  0  0  0  0  0  0  0  0  0  0  0
  -12.2951  -10.2947   11.3670 H   0  0  0  0  0  0  0  0  0  0  0  0
  -10.9952  -11.2970   12.0009 H   0  0  0  0  0  0  0  0  0  0  0  0
  -11.2717   -8.2311   12.0897 H   0  0  0  0  0  0  0  0  0  0  0  0
  -10.9985   -9.2924   13.4562 H   0  0  0  0  0  0  0  0  0  0  0  0
   -8.9077   -8.0526   12.2730 H   0  0  0  0  0  0  0  0  0  0  0  0
   -8.6913   -9.7240   12.7855 H   0  0  0  0  0  0  0  0  0  0  0  0
   -8.3680  -10.1720   10.6150 H   0  0  0  0  0  0  0  0  0  0  0  0
   -8.3509  -10.8074    8.3835 H   0  0  0  0  0  0  0  0  0  0  0  0
   -6.6687  -11.2729    6.6112 H   0  0  0  0  0  0  0  0  0  0  0  0
  1  2  1  0
  2  3  2  0
  2  4  1  0
  4  5  2  0
  5  6  1  0
  6  7  2  0
  7  8  1  0
  8  9  1  0
  9 10  1  0
 10 11  2  0
 10 12  1  0
 12 13  1  0
 13 14  1  0
 14 15  2  0
 15 16  1  0
 16 17  2  0
 17 18  1  0
 17 19  1  0
 19 20  2  0
 12 21  1  0
 21 22  2  0
 21 23  1  0
 23 24  1  0
 24 25  1  0
 25 26  1  0
 26 27  1  0
 27 28  1  0
  7 29  1  0
 29 30  2  0
 30  4  1  0
 28  8  1  0
 23  9  1  0
 28 24  1  0
 20 14  1  0
  1 31  1  0
  1 32  1  0
  3 33  1  0
  3 34  1  0
  5 35  1  0
  6 36  1  0
  8 37  1  1
  9 38  1  1
 13 39  1  0
 13 40  1  0
 15 41  1  0
 16 42  1  0
 19 43  1  0
 20 44  1  0
 23 45  1  1
 24 46  1  6
 25 47  1  0
 25 48  1  0
 26 49  1  0
 26 50  1  0
 27 51  1  0
 27 52  1  0
 28 53  1  1
 29 54  1  0
 30 55  1  0
M  CHG  2   3   1  28   1
M  END
>  <meeko>  (7) 
{"is_sidechain": [false], "free_energy": -8.3, "intermolecular_energy": -9.91, "internal_energy": -0.916}

$$$$
1oyt_ligand
     RDKit          3D

 55 59  0  0  0  0  0  0  0  0999 V2000
  -18.8600   -6.3550    4.3570 N   0  0  0  0  0  0  0  0  0  0  0  0
  -17.7140   -6.4150    3.7150 C   0  0  0  0  0  0  0  0  0  0  0  0
  -17.4180   -5.5380    2.7790 N   0  0  0  0  0  0  0  0  0  0  0  0
  -16.7430   -7.4770    4.0480 C   0  0  0  0  0  0  0  0  0  0  0  0
  -16.8600   -8.2050    5.2380 C   0  0  0  0  0  0  0  0  0  0  0  0
  -15.9560   -9.2300    5.5460 C   0  0  0  0  0  0  0  0  0  0  0  0
  -14.8990   -9.5630    4.6780 C   0  0  0  0  0  0  0  0  0  0  0  0
  -13.9920  -10.7310    5.0600 C   0  0  1  0  0  0  0  0  0  0  0  0
  -12.7220  -10.4180    5.8520 C   0  0  1  0  0  0  0  0  0  0  0  0
  -12.3190   -8.9730    5.8240 C   0  0  0  0  0  0  0  0  0  0  0  0
  -11.8730   -8.4150    4.8360 O   0  0  0  0  0  0  0  0  0  0  0  0
  -12.6490   -8.4100    7.0230 N   0  0  0  0  0  0  0  0  0  0  0  0
  -12.4980   -6.9980    7.3170 C   0  0  0  0  0  0  0  0  0  0  0  0
  -11.0570   -6.6750    7.6240 C   0  0  0  0  0  0  0  0  0  0  0  0
  -10.4910   -5.4650    7.1890 C   0  0  0  0  0  0  0  0  0  0  0  0
   -9.1490   -5.1830    7.4450 C   0  0  0  0  0  0  0  0  0  0  0  0
   -8.3700   -6.1100    8.1280 C   0  0  0  0  0  0  0  0  0  0  0  0
   -7.0810   -5.8400    8.3670 F   0  0  0  0  0  0  0  0  0  0  0  0
   -8.9080   -7.3160    8.5590 C   0  0  0  0  0  0  0  0  0  0  0  0
  -10.2500   -7.6020    8.3050 C   0  0  0  0  0  0  0  0  0  0  0  0
  -13.2890   -9.2890    7.8460 C   0  0  0  0  0  0  0  0  0  0  0  0
  -13.9800   -9.0380    8.8160 O   0  0  0  0  0  0  0  0  0  0  0  0
  -13.0520  -10.6710    7.3120 C   0  0  1  0  0  0  0  0  0  0  0  0
  -14.2860  -11.5570    7.3780 C   0  0  2  0  0  0  0  0  0  0  0  0
  -14.0140  -12.9660    7.8920 C   0  0  0  0  0  0  0  0  0  0  0  0
  -13.4900  -13.7110    6.6820 C   0  0  0  0  0  0  0  0  0  0  0  0
  -14.3940  -13.2320    5.5650 C   0  0  0  0  0  0  0  0  0  0  0  0
  -14.6990  -11.7790    5.9130 N   0  0  2  0  0  0  0  0  0  0  0  0
  -14.7790   -8.8260    3.4910 C   0  0  0  0  0  0  0  0  0  0  0  0
  -15.6870   -7.7980    3.1830 C   0  0  0  0  0  0  0  0  0  0  0  0
  -19.5540   -5.6440    4.1620 H   0  0  0  0  0  0  0  0  0  0  0  0
  -19.1040   -7.0500    5.0540 H   0  0  0  0  0  0  0  0  0  0  0  0
  -18.0460   -4.7920    2.5100 H   0  0  0  0  0  0  0  0  0  0  0  0
  -16.5230   -5.5730    2.2980 H   0  0  0  0  0  0  0  0  0  0  0  0
  -17.6727   -7.9690    5.9407 H   0  0  0  0  0  0  0  0  0  0  0  0
  -16.0748   -9.7870    6.4871 H   0  0  0  0  0  0  0  0  0  0  0  0
  -13.7156  -11.0748    4.0523 H   0  0  0  0  0  0  0  0  0  0  0  0
  -11.9185  -11.0281    5.4137 H   0  0  0  0  0  0  0  0  0  0  0  0
  -12.8235   -6.4098    6.4463 H   0  0  0  0  0  0  0  0  0  0  0  0
  -13.1137   -6.7487    8.1938 H   0  0  0  0  0  0  0  0  0  0  0  0
  -11.1091   -4.7364    6.6439 H   0  0  0  0  0  0  0  0  0  0  0  0
   -8.7096   -4.2324    7.1083 H   0  0  0  0  0  0  0  0  0  0  0  0
   -8.2800   -8.0412    9.0973 H   0  0  0  0  0  0  0  0  0  0  0  0
  -10.6784   -8.5583    8.6397 H   0  0  0  0  0  0  0  0  0  0  0  0
  -12.2762  -11.1920    7.8922 H   0  0  0  0  0  0  0  0  0  0  0  0
  -15.0134  -11.0670    8.0420 H   0  0  0  0  0  0  0  0  0  0  0  0
  -13.2625  -12.9495    8.6951 H   0  0  0  0  0  0  0  0  0  0  0  0
  -14.9108  -13.4376    8.3201 H   0  0  0  0  0  0  0  0  0  0  0  0
  -12.4408  -13.4488    6.4807 H   0  0  0  0  0  0  0  0  0  0  0  0
  -13.5015  -14.8036    6.8088 H   0  0  0  0  0  0  0  0  0  0  0  0
  -13.8809  -13.2993    4.5943 H   0  0  0  0  0  0  0  0  0  0  0  0
  -15.3064  -13.8402    5.4770 H   0  0  0  0  0  0  0  0  0  0  0  0
  -15.7190  -11.6650    5.8120 H   0  0  0  0  0  0  0  0  0  0  0  0
  -13.9624   -9.0557    2.7907 H   0  0  0  0  0  0  0  0  0  0  0  0
  -15.5669   -7.2348    2.2458 H   0  0  0  0  0  0  0  0  0  0  0  0
  1  2  1  0
  2  3  2  0
  2  4  1  0
  4  5  2  0
  5  6  1  0
  6  7  2  0
  7  8  1  0
  8  9  1  0
  9 10  1  0
 10 11  2  0
 10 12  1  0
 12 13  1  0
 13 14  1  0
 14 15  2  0
 15 16  1  0
 16 17  2  0
 17 18  1  0
 17 19  1  0
 19 20  2  0
 12 21  1  0
 21 22  2  0
 21 23  1  0
 23 24  1  0
 24 25  1  0
 25 26  1  0
 26 27  1  0
 27 28  1  0
  7 29  1  0
 29 30  2  0
 30  4  1  0
 28  8  1  0
 23  9  1  0
 28 24  1  0
 20 14  1  0
  1 31  1  0
  1 32  1  0
  3 33  1  0
  3 34  1  0
  5 35  1  0
  6 36  1  0
  8 37  1  6
  9 38  1  6
 13 39  1  0
 13 40  1  0
 15 41  1  0
 16 42  1  0
 19 43  1  0
 20 44  1  0
 23 45  1  1
 24 46  1  1
 25 47  1  0
 25 48  1  0
 26 49  1  0
 26 50  1  0
 27 51  1  0
 27 52  1  0
 28 53  1  1
 29 54  1  0
 30 55  1  0
M  CHG  2   3   1  28   1
M  END
>  <meeko>  (8) 
{"is_sidechain": [false], "free_energy": -8.079, "intermolecular_energy": -9.767, "internal_energy": -0.787}

$$$$
1oyt_ligand
     RDKit          3D

 55 59  0  0  0  0  0  0  0  0999 V2000
   -7.6840   -6.2730    5.7550 N   0  0  0  0  0  0  0  0  0  0  0  0
   -8.2160   -5.9650    6.9170 C   0  0  0  0  0  0  0  0  0  0  0  0
   -8.7370   -4.7740    7.1270 N   0  0  0  0  0  0  0  0  0  0  0  0
   -8.2360   -6.9660    8.0020 C   0  0  0  0  0  0  0  0  0  0  0  0
   -7.7070   -8.2470    7.8030 C   0  0  0  0  0  0  0  0  0  0  0  0
   -7.7020   -9.1920    8.8380 C   0  0  0  0  0  0  0  0  0  0  0  0
   -8.2270   -8.8930   10.1090 C   0  0  0  0  0  0  0  0  0  0  0  0
   -8.1300   -9.9580   11.1990 C   0  0  1  0  0  0  0  0  0  0  0  0
   -9.3900  -10.7590   11.5270 C   0  0  1  0  0  0  0  0  0  0  0  0
  -10.6610  -10.1450   11.0180 C   0  0  0  0  0  0  0  0  0  0  0  0
  -11.1530   -9.1300   11.4800 O   0  0  0  0  0  0  0  0  0  0  0  0
  -11.0650  -10.8410    9.9150 N   0  0  0  0  0  0  0  0  0  0  0  0
  -12.2040  -10.4640    9.1000 C   0  0  0  0  0  0  0  0  0  0  0  0
  -11.8150   -9.3890    8.1160 C   0  0  0  0  0  0  0  0  0  0  0  0
  -12.2050   -8.0560    8.3290 C   0  0  0  0  0  0  0  0  0  0  0  0
  -11.8730   -7.0680    7.4010 C   0  0  0  0  0  0  0  0  0  0  0  0
  -11.1590   -7.4110    6.2580 C   0  0  0  0  0  0  0  0  0  0  0  0
  -10.8460   -6.4630    5.3670 F   0  0  0  0  0  0  0  0  0  0  0  0
  -10.7720   -8.7240    6.0260 C   0  0  0  0  0  0  0  0  0  0  0  0
  -11.1010   -9.7150    6.9500 C   0  0  0  0  0  0  0  0  0  0  0  0
  -10.1840  -11.8240    9.5750 C   0  0  0  0  0  0  0  0  0  0  0  0
  -10.0750  -12.3930    8.5040 O   0  0  0  0  0  0  0  0  0  0  0  0
   -9.2860  -12.0620   10.7530 C   0  0  1  0  0  0  0  0  0  0  0  0
   -7.8320  -12.2720   10.3630 C   0  0  2  0  0  0  0  0  0  0  0  0
   -7.1550  -13.4300   11.0880 C   0  0  0  0  0  0  0  0  0  0  0  0
   -6.7560  -12.8500   12.4290 C   0  0  0  0  0  0  0  0  0  0  0  0
   -6.2300  -11.4760   12.0680 C   0  0  0  0  0  0  0  0  0  0  0  0
   -7.0910  -11.0310   10.8910 N   0  0  2  0  0  0  0  0  0  0  0  0
   -8.7650   -7.6120   10.3020 C   0  0  0  0  0  0  0  0  0  0  0  0
   -8.7700   -6.6650    9.2640 C   0  0  0  0  0  0  0  0  0  0  0  0
   -7.6500   -5.6190    4.9830 H   0  0  0  0  0  0  0  0  0  0  0  0
   -7.2530   -7.1780    5.6040 H   0  0  0  0  0  0  0  0  0  0  0  0
   -8.7490   -4.0500    6.4180 H   0  0  0  0  0  0  0  0  0  0  0  0
   -9.1670   -4.5440    8.0180 H   0  0  0  0  0  0  0  0  0  0  0  0
   -7.2897   -8.5153    6.8212 H   0  0  0  0  0  0  0  0  0  0  0  0
   -7.2781  -10.1900    8.6527 H   0  0  0  0  0  0  0  0  0  0  0  0
   -7.8785   -9.3122   12.0532 H   0  0  0  0  0  0  0  0  0  0  0  0
   -9.4371  -10.8368   12.6232 H   0  0  0  0  0  0  0  0  0  0  0  0
  -12.5634  -11.3460    8.5496 H   0  0  0  0  0  0  0  0  0  0  0  0
  -12.9984  -10.0770    9.7551 H   0  0  0  0  0  0  0  0  0  0  0  0
  -12.7747   -7.7899    9.2316 H   0  0  0  0  0  0  0  0  0  0  0  0
  -12.1743   -6.0241    7.5726 H   0  0  0  0  0  0  0  0  0  0  0  0
  -10.2083   -8.9813    5.1172 H   0  0  0  0  0  0  0  0  0  0  0  0
  -10.8003  -10.7569    6.7656 H   0  0  0  0  0  0  0  0  0  0  0  0
   -9.5845  -12.9674   11.3018 H   0  0  0  0  0  0  0  0  0  0  0  0
   -7.8007  -12.4586    9.2794 H   0  0  0  0  0  0  0  0  0  0  0  0
   -7.8536  -14.2695   11.2189 H   0  0  0  0  0  0  0  0  0  0  0  0
   -6.2952  -13.8297   10.5304 H   0  0  0  0  0  0  0  0  0  0  0  0
   -7.6237  -12.7763   13.1010 H   0  0  0  0  0  0  0  0  0  0  0  0
   -6.0196  -13.4672   12.9645 H   0  0  0  0  0  0  0  0  0  0  0  0
   -6.3417  -10.7827   12.9147 H   0  0  0  0  0  0  0  0  0  0  0  0
   -5.1588  -11.4920   11.8185 H   0  0  0  0  0  0  0  0  0  0  0  0
   -6.4410  -10.6760   10.1750 H   0  0  0  0  0  0  0  0  0  0  0  0
   -9.1895   -7.3447   11.2810 H   0  0  0  0  0  0  0  0  0  0  0  0
   -9.2007   -5.6690    9.4442 H   0  0  0  0  0  0  0  0  0  0  0  0
  1  2  1  0
  2  3  2  0
  2  4  1  0
  4  5  2  0
  5  6  1  0
  6  7  2  0
  7  8  1  0
  8  9  1  0
  9 10  1  0
 10 11  2  0
 10 12  1  0
 12 13  1  0
 13 14  1  0
 14 15  2  0
 15 16  1  0
 16 17  2  0
 17 18  1  0
 17 19  1  0
 19 20  2  0
 12 21  1  0
 21 22  2  0
 21 23  1  0
 23 24  1  0
 24 25  1  0
 25 26  1  0
 26 27  1  0
 27 28  1  0
  7 29  1  0
 29 30  2  0
 30  4  1  0
 28  8  1  0
 23  9  1  0
 28 24  1  0
 20 14  1  0
  1 31  1  0
  1 32  1  0
  3 33  1  0
  3 34  1  0
  5 35  1  0
  6 36  1  0
  8 37  1  1
  9 38  1  1
 13 39  1  0
 13 40  1  0
 15 41  1  0
 16 42  1  0
 19 43  1  0
 20 44  1  0
 23 45  1  1
 24 46  1  6
 25 47  1  0
 25 48  1  0
 26 49  1  0
 26 50  1  0
 27 51  1  0
 27 52  1  0
 28 53  1  6
 29 54  1  0
 30 55  1  0
M  CHG  2   3   1  28   1
M  END
>  <meeko>  (9) 
{"is_sidechain": [false], "free_energy": -7.998, "intermolecular_energy": -8.4, "internal_energy": -2.055}

$$$$
