
     RDKit          3D

 31 34  0  0  0  0  0  0  0  0999 V2000
    2.4120    5.2570   -9.7940 N   0  0  0  0  0  0  0  0  0  0  0  0
    2.8230    4.5820  -10.8380 C   0  0  0  0  0  0  0  0  0  0  0  0
    3.0270    5.2350  -11.9870 N   0  0  0  0  0  0  0  0  0  0  0  0
    3.0700    3.1240  -10.7690 C   0  0  0  0  0  0  0  0  0  0  0  0
    2.6890    2.3780   -9.6440 C   0  0  0  0  0  0  0  0  0  0  0  0
    2.9370    1.0200   -9.5790 C   0  0  0  0  0  0  0  0  0  0  0  0
    3.5800    0.3560  -10.6480 C   0  0  0  0  0  0  0  0  0  0  0  0
    3.8460   -1.0310  -10.5940 C   0  0  0  0  0  0  0  0  0  0  0  0
    4.4760   -1.6770  -11.6830 C   0  0  0  0  0  0  0  0  0  0  0  0
    4.7250   -3.1420  -11.6980 C   0  0  0  0  0  0  0  0  0  0  0  0
    5.7510   -3.6110  -12.1520 O   0  0  0  0  0  0  0  0  0  0  0  0
    3.7120   -3.9450  -11.2290 N   0  0  0  0  0  0  0  0  0  0  0  0
    3.6870   -5.3490  -11.2220 C   0  0  0  0  0  0  0  0  0  0  0  0
    2.4620   -6.0030  -11.4150 C   0  0  0  0  0  0  0  0  0  0  0  0
    2.3960   -7.3870  -11.4740 C   0  0  0  0  0  0  0  0  0  0  0  0
    3.5590   -8.1490  -11.3110 C   0  0  0  0  0  0  0  0  0  0  0  0
    3.4690   -9.6540  -11.3760 C   0  0  0  0  0  0  0  0  0  0  0  0
    3.0290  -10.2240  -10.1220 N   0  0  0  0  0  0  0  0  0  0  0  0
    4.7870   -7.5160  -11.1140 C   0  0  0  0  0  0  0  0  0  0  0  0
    4.8480   -6.1210  -11.0600 C   0  0  0  0  0  0  0  0  0  0  0  0
    4.8620   -0.9430  -12.7890 C   0  0  0  0  0  0  0  0  0  0  0  0
    4.6200    0.4220  -12.8730 C   0  0  0  0  0  0  0  0  0  0  0  0
    5.0170    1.1320  -14.0170 N   0  0  0  0  0  0  0  0  0  0  0  0
    6.2860    1.1090  -14.5680 C   0  0  0  0  0  0  0  0  0  0  0  0
    6.4160    1.6190  -15.8260 N   0  0  0  0  0  0  0  0  0  0  0  0
    7.6500    1.6180  -16.4080 C   0  0  0  0  0  0  0  0  0  0  0  0
    8.7550    1.1260  -15.7130 C   0  0  0  0  0  0  0  0  0  0  0  0
    8.5790    0.6540  -14.4060 C   0  0  0  0  0  0  0  0  0  0  0  0
    7.3380    0.6570  -13.8400 N   0  0  0  0  0  0  0  0  0  0  0  0
    3.9670    1.0960  -11.7960 C   0  0  0  0  0  0  0  0  0  0  0  0
    3.6940    2.4770  -11.8340 C   0  0  0  0  0  0  0  0  0  0  0  0
  2  1  2  0
  3  2  1  0
  4  2  1  0
  5  4  2  0
  6  5  1  0
  7  6  2  0
  8  7  1  0
  9  8  2  0
 10  9  1  0
 11 10  2  0
 12 10  1  0
 13 12  1  0
 14 13  2  0
 15 14  1  0
 16 15  2  0
 17 16  1  0
 18 17  1  0
 19 16  1  0
 20 19  2  0
 20 13  1  0
 21  9  1  0
 22 21  2  0
 23 22  1  0
 24 23  1  0
 25 24  2  0
 26 25  1  0
 27 26  2  0
 28 27  1  0
 29 28  2  0
 29 24  1  0
 30 22  1  0
 30  7  1  0
 31 30  2  0
 31  4  1  0
M  CHG  2   1   1  18   1
M  END
$$$$
