
     RDKit          3D

 33 35  0  0  0  0  0  0  0  0999 V2000
   23.1830  -30.7260    4.4000 C   0  0  0  0  0  0  0  0  0  0  0  0
   22.3530  -29.9060    3.4460 C   0  0  0  0  0  0  0  0  0  0  0  0
   22.7400  -28.8210    3.0410 O   0  0  0  0  0  0  0  0  0  0  0  0
   21.1830  -30.4430    3.0810 N   0  0  0  0  0  0  0  0  0  0  0  0
   20.2340  -29.8100    2.1820 C   0  0  2  0  0  0  0  0  0  0  0  0
   18.9440  -29.6050    2.9670 C   0  0  0  0  0  0  0  0  0  0  0  0
   18.5270  -30.4880    3.7420 O   0  0  0  0  0  0  0  0  0  0  0  0
   18.2410  -28.4450    2.8370 N   0  0  0  0  0  0  0  0  0  0  0  0
   18.5800  -27.3150    1.9890 C   0  0  0  0  0  0  0  0  0  0  0  0
   17.8280  -26.1460    2.5970 C   0  0  2  0  0  0  0  0  0  0  0  0
   18.5870  -25.6160    3.7020 O   0  0  0  0  0  0  0  0  0  0  0  0
   16.5750  -26.7820    3.1840 C   0  0  0  0  0  0  0  0  0  0  0  0
   17.0290  -28.1680    3.6250 C   0  0  1  0  0  0  0  0  0  0  0  0
   15.9250  -29.1530    3.3860 C   0  0  0  0  0  0  0  0  0  0  0  0
   15.7140  -29.6570    2.2780 O   0  0  0  0  0  0  0  0  0  0  0  0
   15.1150  -29.4080    4.4390 N   0  0  0  0  0  0  0  0  0  0  0  0
   13.9060  -30.2010    4.3530 C   0  0  0  0  0  0  0  0  0  0  0  0
   12.6740  -29.3610    4.1650 C   0  0  0  0  0  0  0  0  0  0  0  0
   12.6860  -28.0030    4.4710 C   0  0  0  0  0  0  0  0  0  0  0  0
   11.5320  -27.2100    4.3010 C   0  0  0  0  0  0  0  0  0  0  0  0
   10.3370  -27.7990    3.8420 C   0  0  0  0  0  0  0  0  0  0  0  0
    9.1180  -26.9830    3.6980 C   0  0  0  0  0  0  0  0  0  0  0  0
    9.0940  -25.4730    2.9110 S   0  0  0  0  0  0  0  0  0  0  0  0
    7.4520  -25.2770    3.1610 C   0  0  0  0  0  0  0  0  0  0  0  0
    6.9270  -26.2820    3.8080 N   0  0  0  0  0  0  0  0  0  0  0  0
    7.8220  -27.2590    4.1260 C   0  0  0  0  0  0  0  0  0  0  0  0
    7.3990  -28.5110    4.8760 C   0  0  0  0  0  0  0  0  0  0  0  0
   10.3280  -29.1620    3.5130 C   0  0  0  0  0  0  0  0  0  0  0  0
   11.4830  -29.9340    3.6880 C   0  0  0  0  0  0  0  0  0  0  0  0
   20.0840  -30.6420    0.8570 C   0  0  1  0  0  0  0  0  0  0  0  0
   18.7890  -30.3160    0.0840 C   0  0  0  0  0  0  0  0  0  0  0  0
   21.2700  -30.3020   -0.0490 C   0  0  0  0  0  0  0  0  0  0  0  0
   20.0770  -32.1580    1.1640 C   0  0  0  0  0  0  0  0  0  0  0  0
  2  1  1  0
  3  2  2  0
  4  2  1  0
  5  4  1  1
  6  5  1  0
  7  6  2  0
  8  6  1  0
  9  8  1  0
 10  9  1  0
 10 11  1  1
 12 10  1  0
 13  8  1  0
 13 12  1  0
 13 14  1  6
 15 14  2  0
 16 14  1  0
 17 16  1  0
 18 17  1  0
 19 18  2  0
 20 19  1  0
 21 20  2  0
 22 21  1  0
 23 22  1  0
 24 23  1  0
 25 24  2  0
 26 25  1  0
 26 22  2  0
 27 26  1  0
 28 21  1  0
 29 28  2  0
 29 18  1  0
 30  5  1  0
 30 31  1  6
 32 30  1  0
 33 30  1  0
M  END
$$$$
