3lka_ligand
     RDKit          3D

 21 21  0  0  0  0  0  0  0  0999 V2000
   -8.1980    0.0540    6.6970 C   0  0  0  0  0  0  0  0  0  0  0  0
   -7.2580   -0.3900    5.7260 O   0  0  0  0  0  0  0  0  0  0  0  0
   -6.4900   -1.4710    6.0570 C   0  0  0  0  0  0  0  0  0  0  0  0
   -6.2830   -1.6410    7.4310 C   0  0  0  0  0  0  0  0  0  0  0  0
   -5.5170   -2.7040    7.9130 C   0  0  0  0  0  0  0  0  0  0  0  0
   -4.9620   -3.6110    7.0080 C   0  0  0  0  0  0  0  0  0  0  0  0
   -3.9640   -4.9420    7.6050 S   0  0  0  0  0  0  0  0  0  0  0  0
   -3.0910   -5.3630    6.2350 N   0  0  0  0  0  0  0  0  0  0  0  0
   -2.9980   -4.4270    8.5480 O   0  0  0  0  0  0  0  0  0  0  0  0
   -4.8080   -6.0760    7.9030 O   0  0  0  0  0  0  0  0  0  0  0  0
   -5.1510   -3.4470    5.6330 C   0  0  0  0  0  0  0  0  0  0  0  0
   -5.9200   -2.3790    5.1600 C   0  0  0  0  0  0  0  0  0  0  0  0
   -7.8002   -0.1339    7.7052 H   0  0  0  0  0  0  0  0  0  0  0  0
   -8.3767    1.1317    6.5683 H   0  0  0  0  0  0  0  0  0  0  0  0
   -9.1439   -0.4925    6.5683 H   0  0  0  0  0  0  0  0  0  0  0  0
   -6.7295   -0.9281    8.1398 H   0  0  0  0  0  0  0  0  0  0  0  0
   -5.3525   -2.8257    8.9938 H   0  0  0  0  0  0  0  0  0  0  0  0
   -3.6170   -5.1090    5.3980 H   0  0  0  0  0  0  0  0  0  0  0  0
   -2.1600   -4.9480    6.2770 H   0  0  0  0  0  0  0  0  0  0  0  0
   -4.6964   -4.1557    4.9251 H   0  0  0  0  0  0  0  0  0  0  0  0
   -6.0768   -2.2531    4.0785 H   0  0  0  0  0  0  0  0  0  0  0  0
  1  2  1  0
  2  3  1  0
  3  4  2  0
  4  5  1  0
  5  6  2  0
  6  7  1  0
  7  8  1  0
  7  9  2  0
  7 10  2  0
  6 11  1  0
 11 12  2  0
 12  3  1  0
  1 13  1  0
  1 14  1  0
  1 15  1  0
  4 16  1  0
  5 17  1  0
  8 18  1  0
  8 19  1  0
 11 20  1  0
 12 21  1  0
M  END
>  <meeko>  (1) 
{"is_sidechain": [false], "free_energy": -6.563, "intermolecular_energy": -7.522, "internal_energy": -0.104}

$$$$
3lka_ligand
     RDKit          3D

 21 21  0  0  0  0  0  0  0  0999 V2000
   -8.2320    0.1310    6.3230 C   0  0  0  0  0  0  0  0  0  0  0  0
   -7.2400   -0.4870    5.5140 O   0  0  0  0  0  0  0  0  0  0  0  0
   -6.5020   -1.4830    6.0900 C   0  0  0  0  0  0  0  0  0  0  0  0
   -5.9330   -2.3850    5.1830 C   0  0  0  0  0  0  0  0  0  0  0  0
   -5.1530   -3.4530    5.6320 C   0  0  0  0  0  0  0  0  0  0  0  0
   -4.9340   -3.6110    7.0020 C   0  0  0  0  0  0  0  0  0  0  0  0
   -3.9750   -4.9780    7.5820 S   0  0  0  0  0  0  0  0  0  0  0  0
   -3.0840   -5.3810    6.2180 N   0  0  0  0  0  0  0  0  0  0  0  0
   -3.0170   -4.5070    8.5560 O   0  0  0  0  0  0  0  0  0  0  0  0
   -4.8480   -6.1010    7.8340 O   0  0  0  0  0  0  0  0  0  0  0  0
   -5.5050   -2.7240    7.9180 C   0  0  0  0  0  0  0  0  0  0  0  0
   -6.2850   -1.6570    7.4590 C   0  0  0  0  0  0  0  0  0  0  0  0
   -7.9869   -0.0217    7.3844 H   0  0  0  0  0  0  0  0  0  0  0  0
   -8.2635    1.2088    6.1053 H   0  0  0  0  0  0  0  0  0  0  0  0
   -9.2133   -0.3158    6.1053 H   0  0  0  0  0  0  0  0  0  0  0  0
   -6.1022   -2.2510    4.1044 H   0  0  0  0  0  0  0  0  0  0  0  0
   -4.7157   -4.1623    4.9139 H   0  0  0  0  0  0  0  0  0  0  0  0
   -3.1040   -4.6080    5.5510 H   0  0  0  0  0  0  0  0  0  0  0  0
   -2.1440   -5.6650    6.4910 H   0  0  0  0  0  0  0  0  0  0  0  0
   -5.3418   -2.8641    8.9968 H   0  0  0  0  0  0  0  0  0  0  0  0
   -6.7287   -0.9530    8.1783 H   0  0  0  0  0  0  0  0  0  0  0  0
  1  2  1  0
  2  3  1  0
  3  4  2  0
  4  5  1  0
  5  6  2  0
  6  7  1  0
  7  8  1  0
  7  9  2  0
  7 10  2  0
  6 11  1  0
 11 12  2  0
 12  3  1  0
  1 13  1  0
  1 14  1  0
  1 15  1  0
  4 16  1  0
  5 17  1  0
  8 18  1  0
  8 19  1  0
 11 20  1  0
 12 21  1  0
M  END
>  <meeko>  (2) 
{"is_sidechain": [false], "free_energy": -6.553, "intermolecular_energy": -7.525, "internal_energy": -0.089}

$$$$
3lka_ligand
     RDKit          3D

 21 21  0  0  0  0  0  0  0  0999 V2000
   -7.0990   -0.5200    5.2570 C   0  0  0  0  0  0  0  0  0  0  0  0
   -6.7350   -1.8540    4.9250 O   0  0  0  0  0  0  0  0  0  0  0  0
   -5.9390   -2.5190    5.8150 C   0  0  0  0  0  0  0  0  0  0  0  0
   -6.0110   -2.0440    7.1290 C   0  0  0  0  0  0  0  0  0  0  0  0
   -5.2510   -2.6290    8.1440 C   0  0  0  0  0  0  0  0  0  0  0  0
   -4.4190   -3.7080    7.8380 C   0  0  0  0  0  0  0  0  0  0  0  0
   -3.4290   -4.4370    9.1080 S   0  0  0  0  0  0  0  0  0  0  0  0
   -3.2800   -3.1720   10.2010 N   0  0  0  0  0  0  0  0  0  0  0  0
   -4.1970   -5.4560    9.7840 O   0  0  0  0  0  0  0  0  0  0  0  0
   -2.0990   -4.6790    8.5970 O   0  0  0  0  0  0  0  0  0  0  0  0
   -4.3300   -4.1850    6.5270 C   0  0  0  0  0  0  0  0  0  0  0  0
   -5.0940   -3.5920    5.5180 C   0  0  0  0  0  0  0  0  0  0  0  0
   -7.1291   -0.4096    6.3510 H   0  0  0  0  0  0  0  0  0  0  0  0
   -6.3583    0.1772    4.8384 H   0  0  0  0  0  0  0  0  0  0  0  0
   -8.0912   -0.2957    4.8384 H   0  0  0  0  0  0  0  0  0  0  0  0
   -6.6746   -1.1992    7.3655 H   0  0  0  0  0  0  0  0  0  0  0  0
   -5.3071   -2.2442    9.1730 H   0  0  0  0  0  0  0  0  0  0  0  0
   -4.2060   -2.8640   10.5020 H   0  0  0  0  0  0  0  0  0  0  0  0
   -2.6690   -3.4470   10.9690 H   0  0  0  0  0  0  0  0  0  0  0  0
   -3.6604   -5.0249    6.2901 H   0  0  0  0  0  0  0  0  0  0  0  0
   -5.0301   -3.9708    4.4873 H   0  0  0  0  0  0  0  0  0  0  0  0
  1  2  1  0
  2  3  1  0
  3  4  2  0
  4  5  1  0
  5  6  2  0
  6  7  1  0
  7  8  1  0
  7  9  2  0
  7 10  2  0
  6 11  1  0
 11 12  2  0
 12  3  1  0
  1 13  1  0
  1 14  1  0
  1 15  1  0
  4 16  1  0
  5 17  1  0
  8 18  1  0
  8 19  1  0
 11 20  1  0
 12 21  1  0
M  END
>  <meeko>  (3) 
{"is_sidechain": [false], "free_energy": -6.033, "intermolecular_energy": -6.915, "internal_energy": -0.104}

$$$$
3lka_ligand
     RDKit          3D

 21 21  0  0  0  0  0  0  0  0999 V2000
   -7.3140   -0.3130    5.4410 C   0  0  0  0  0  0  0  0  0  0  0  0
   -6.8240   -1.5320    4.8960 O   0  0  0  0  0  0  0  0  0  0  0  0
   -6.0970   -2.3350    5.7290 C   0  0  0  0  0  0  0  0  0  0  0  0
   -6.0730   -1.9200    7.0650 C   0  0  0  0  0  0  0  0  0  0  0  0
   -5.3680   -2.6450    8.0270 C   0  0  0  0  0  0  0  0  0  0  0  0
   -4.6880   -3.8040    7.6460 C   0  0  0  0  0  0  0  0  0  0  0  0
   -3.7660   -4.7130    8.8490 S   0  0  0  0  0  0  0  0  0  0  0  0
   -2.5410   -5.3800    7.9160 N   0  0  0  0  0  0  0  0  0  0  0  0
   -3.1180   -3.7880    9.7500 O   0  0  0  0  0  0  0  0  0  0  0  0
   -4.5590   -5.8250    9.3190 O   0  0  0  0  0  0  0  0  0  0  0  0
   -4.6940   -4.2230    6.3130 C   0  0  0  0  0  0  0  0  0  0  0  0
   -5.4030   -3.4890    5.3570 C   0  0  0  0  0  0  0  0  0  0  0  0
   -7.2921   -0.3675    6.5394 H   0  0  0  0  0  0  0  0  0  0  0  0
   -6.6811    0.5206    5.1025 H   0  0  0  0  0  0  0  0  0  0  0  0
   -8.3478   -0.1494    5.1025 H   0  0  0  0  0  0  0  0  0  0  0  0
   -6.6167   -1.0107    7.3610 H   0  0  0  0  0  0  0  0  0  0  0  0
   -5.3481   -2.3073    9.0737 H   0  0  0  0  0  0  0  0  0  0  0  0
   -2.6160   -6.3990    7.9240 H   0  0  0  0  0  0  0  0  0  0  0  0
   -2.5580   -4.9740    6.9810 H   0  0  0  0  0  0  0  0  0  0  0  0
   -4.1427   -5.1275    6.0166 H   0  0  0  0  0  0  0  0  0  0  0  0
   -5.4143   -3.8214    4.3085 H   0  0  0  0  0  0  0  0  0  0  0  0
  1  2  1  0
  2  3  1  0
  3  4  2  0
  4  5  1  0
  5  6  2  0
  6  7  1  0
  7  8  1  0
  7  9  2  0
  7 10  2  0
  6 11  1  0
 11 12  2  0
 12  3  1  0
  1 13  1  0
  1 14  1  0
  1 15  1  0
  4 16  1  0
  5 17  1  0
  8 18  1  0
  8 19  1  0
 11 20  1  0
 12 21  1  0
M  END
>  <meeko>  (4) 
{"is_sidechain": [false], "free_energy": -5.967, "intermolecular_energy": -6.837, "internal_energy": -0.105}

$$$$
3lka_ligand
     RDKit          3D

 21 21  0  0  0  0  0  0  0  0999 V2000
   -9.3700    1.2610    6.5320 C   0  0  0  0  0  0  0  0  0  0  0  0
   -8.4160    0.9290    5.5320 O   0  0  0  0  0  0  0  0  0  0  0  0
   -7.5980   -0.1360    5.7850 C   0  0  0  0  0  0  0  0  0  0  0  0
   -7.3400   -0.3640    7.1410 C   0  0  0  0  0  0  0  0  0  0  0  0
   -6.5200   -1.4200    7.5460 C   0  0  0  0  0  0  0  0  0  0  0  0
   -5.9620   -2.2600    6.5800 C   0  0  0  0  0  0  0  0  0  0  0  0
   -4.8970   -3.5790    7.0790 S   0  0  0  0  0  0  0  0  0  0  0  0
   -4.4090   -3.0740    8.6030 N   0  0  0  0  0  0  0  0  0  0  0  0
   -5.6840   -4.7720    7.2900 O   0  0  0  0  0  0  0  0  0  0  0  0
   -3.7090   -3.5710    6.2570 O   0  0  0  0  0  0  0  0  0  0  0  0
   -6.2020   -2.0360    5.2210 C   0  0  0  0  0  0  0  0  0  0  0  0
   -7.0240   -0.9770    4.8260 C   0  0  0  0  0  0  0  0  0  0  0  0
   -8.9270    1.1068    7.5270 H   0  0  0  0  0  0  0  0  0  0  0  0
   -9.6655    2.3148    6.4215 H   0  0  0  0  0  0  0  0  0  0  0  0
  -10.2558    0.6183    6.4215 H   0  0  0  0  0  0  0  0  0  0  0  0
   -7.7884    0.2965    7.8977 H   0  0  0  0  0  0  0  0  0  0  0  0
   -6.3162   -1.5879    8.6138 H   0  0  0  0  0  0  0  0  0  0  0  0
   -4.0230   -3.8640    9.1220 H   0  0  0  0  0  0  0  0  0  0  0  0
   -3.7680   -2.2860    8.5170 H   0  0  0  0  0  0  0  0  0  0  0  0
   -5.7452   -2.6914    4.4648 H   0  0  0  0  0  0  0  0  0  0  0  0
   -7.2202   -0.8043    3.7575 H   0  0  0  0  0  0  0  0  0  0  0  0
  1  2  1  0
  2  3  1  0
  3  4  2  0
  4  5  1  0
  5  6  2  0
  6  7  1  0
  7  8  1  0
  7  9  2  0
  7 10  2  0
  6 11  1  0
 11 12  2  0
 12  3  1  0
  1 13  1  0
  1 14  1  0
  1 15  1  0
  4 16  1  0
  5 17  1  0
  8 18  1  0
  8 19  1  0
 11 20  1  0
 12 21  1  0
M  END
>  <meeko>  (5) 
{"is_sidechain": [false], "free_energy": -5.92, "intermolecular_energy": -6.785, "internal_energy": -0.103}

$$$$
3lka_ligand
     RDKit          3D

 21 21  0  0  0  0  0  0  0  0999 V2000
   -3.6130   -4.1340    8.2910 C   0  0  0  0  0  0  0  0  0  0  0  0
   -4.2440   -4.0710    7.0190 O   0  0  0  0  0  0  0  0  0  0  0  0
   -5.1410   -3.0590    6.8210 C   0  0  0  0  0  0  0  0  0  0  0  0
   -5.4650   -2.8210    5.4800 C   0  0  0  0  0  0  0  0  0  0  0  0
   -6.3700   -1.8170    5.1310 C   0  0  0  0  0  0  0  0  0  0  0  0
   -6.9610   -1.0500    6.1360 C   0  0  0  0  0  0  0  0  0  0  0  0
   -8.0830    0.2460    5.7030 S   0  0  0  0  0  0  0  0  0  0  0  0
   -9.4680   -0.6140    5.3030 N   0  0  0  0  0  0  0  0  0  0  0  0
   -8.4160    1.0030    6.8870 O   0  0  0  0  0  0  0  0  0  0  0  0
   -7.6380    0.8740    4.4810 O   0  0  0  0  0  0  0  0  0  0  0  0
   -6.6380   -1.2690    7.4780 C   0  0  0  0  0  0  0  0  0  0  0  0
   -5.7310   -2.2770    7.8180 C   0  0  0  0  0  0  0  0  0  0  0  0
   -4.3738   -4.0580    9.0819 H   0  0  0  0  0  0  0  0  0  0  0  0
   -3.0777   -5.0901    8.3878 H   0  0  0  0  0  0  0  0  0  0  0  0
   -2.8992   -3.3027    8.3878 H   0  0  0  0  0  0  0  0  0  0  0  0
   -5.0010   -3.4323    4.6920 H   0  0  0  0  0  0  0  0  0  0  0  0
   -6.6148   -1.6323    4.0746 H   0  0  0  0  0  0  0  0  0  0  0  0
   -9.3440   -1.6000    5.5400 H   0  0  0  0  0  0  0  0  0  0  0  0
  -10.2810   -0.1840    5.7420 H   0  0  0  0  0  0  0  0  0  0  0  0
   -7.0958   -0.6504    8.2639 H   0  0  0  0  0  0  0  0  0  0  0  0
   -5.4807   -2.4554    8.8742 H   0  0  0  0  0  0  0  0  0  0  0  0
  1  2  1  0
  2  3  1  0
  3  4  2  0
  4  5  1  0
  5  6  2  0
  6  7  1  0
  7  8  1  0
  7  9  2  0
  7 10  2  0
  6 11  1  0
 11 12  2  0
 12  3  1  0
  1 13  1  0
  1 14  1  0
  1 15  1  0
  4 16  1  0
  5 17  1  0
  8 18  1  0
  8 19  1  0
 11 20  1  0
 12 21  1  0
M  END
>  <meeko>  (6) 
{"is_sidechain": [false], "free_energy": -5.804, "intermolecular_energy": -6.67, "internal_energy": -0.086}

$$$$
3lka_ligand
     RDKit          3D

 21 21  0  0  0  0  0  0  0  0999 V2000
   -3.2980   -4.9870    8.5070 C   0  0  0  0  0  0  0  0  0  0  0  0
   -3.9780   -5.0980    7.2640 O   0  0  0  0  0  0  0  0  0  0  0  0
   -4.7620   -4.0440    6.8890 C   0  0  0  0  0  0  0  0  0  0  0  0
   -5.1600   -3.2100    7.9400 C   0  0  0  0  0  0  0  0  0  0  0  0
   -5.9640   -2.0940    7.7030 C   0  0  0  0  0  0  0  0  0  0  0  0
   -6.3640   -1.8060    6.3970 C   0  0  0  0  0  0  0  0  0  0  0  0
   -7.4090   -0.4130    6.0890 S   0  0  0  0  0  0  0  0  0  0  0  0
   -7.6710    0.1730    7.6400 N   0  0  0  0  0  0  0  0  0  0  0  0
   -6.6510    0.6080    5.4030 O   0  0  0  0  0  0  0  0  0  0  0  0
   -8.6930   -0.8750    5.6150 O   0  0  0  0  0  0  0  0  0  0  0  0
   -5.9840   -2.6360    5.3390 C   0  0  0  0  0  0  0  0  0  0  0  0
   -5.1790   -3.7520    5.5870 C   0  0  0  0  0  0  0  0  0  0  0  0
   -4.0178   -5.1045    9.3305 H   0  0  0  0  0  0  0  0  0  0  0  0
   -2.5303   -5.7717    8.5763 H   0  0  0  0  0  0  0  0  0  0  0  0
   -2.8196   -3.9989    8.5763 H   0  0  0  0  0  0  0  0  0  0  0  0
   -4.8350   -3.4369    8.9661 H   0  0  0  0  0  0  0  0  0  0  0  0
   -6.2790   -1.4485    8.5362 H   0  0  0  0  0  0  0  0  0  0  0  0
   -7.9520   -0.5920    8.2560 H   0  0  0  0  0  0  0  0  0  0  0  0
   -6.8480    0.6800    7.9620 H   0  0  0  0  0  0  0  0  0  0  0  0
   -6.3170   -2.4122    4.3148 H   0  0  0  0  0  0  0  0  0  0  0  0
   -4.8727   -4.4026    4.7546 H   0  0  0  0  0  0  0  0  0  0  0  0
  1  2  1  0
  2  3  1  0
  3  4  2  0
  4  5  1  0
  5  6  2  0
  6  7  1  0
  7  8  1  0
  7  9  2  0
  7 10  2  0
  6 11  1  0
 11 12  2  0
 12  3  1  0
  1 13  1  0
  1 14  1  0
  1 15  1  0
  4 16  1  0
  5 17  1  0
  8 18  1  0
  8 19  1  0
 11 20  1  0
 12 21  1  0
M  END
>  <meeko>  (7) 
{"is_sidechain": [false], "free_energy": -5.775, "intermolecular_energy": -6.617, "internal_energy": -0.105}

$$$$
3lka_ligand
     RDKit          3D

 21 21  0  0  0  0  0  0  0  0999 V2000
   -6.7210   -1.1450    5.5400 C   0  0  0  0  0  0  0  0  0  0  0  0
   -5.7040   -2.0870    5.2220 O   0  0  0  0  0  0  0  0  0  0  0  0
   -5.4060   -3.0220    6.1730 C   0  0  0  0  0  0  0  0  0  0  0  0
   -4.6640   -4.1130    5.7050 C   0  0  0  0  0  0  0  0  0  0  0  0
   -4.2890   -5.1450    6.5670 C   0  0  0  0  0  0  0  0  0  0  0  0
   -4.6520   -5.0760    7.9140 C   0  0  0  0  0  0  0  0  0  0  0  0
   -4.2100   -6.3930    9.0070 S   0  0  0  0  0  0  0  0  0  0  0  0
   -5.2960   -7.5930    8.5630 N   0  0  0  0  0  0  0  0  0  0  0  0
   -2.9010   -6.8900    8.6490 O   0  0  0  0  0  0  0  0  0  0  0  0
   -4.5540   -6.0250   10.3610 O   0  0  0  0  0  0  0  0  0  0  0  0
   -5.4020   -3.9980    8.3920 C   0  0  0  0  0  0  0  0  0  0  0  0
   -5.7740   -2.9700    7.5200 C   0  0  0  0  0  0  0  0  0  0  0  0
   -6.8131   -1.0597    6.6328 H   0  0  0  0  0  0  0  0  0  0  0  0
   -6.4579   -0.1644    5.1166 H   0  0  0  0  0  0  0  0  0  0  0  0
   -7.6786   -1.4823    5.1166 H   0  0  0  0  0  0  0  0  0  0  0  0
   -4.3729   -4.1576    4.6451 H   0  0  0  0  0  0  0  0  0  0  0  0
   -3.7138   -6.0033    6.1895 H   0  0  0  0  0  0  0  0  0  0  0  0
   -6.2510   -7.2380    8.6310 H   0  0  0  0  0  0  0  0  0  0  0  0
   -5.0550   -7.9530    7.6400 H   0  0  0  0  0  0  0  0  0  0  0  0
   -5.6987   -3.9583    9.4505 H   0  0  0  0  0  0  0  0  0  0  0  0
   -6.3585   -2.1173    7.8958 H   0  0  0  0  0  0  0  0  0  0  0  0
  1  2  1  0
  2  3  1  0
  3  4  2  0
  4  5  1  0
  5  6  2  0
  6  7  1  0
  7  8  1  0
  7  9  2  0
  7 10  2  0
  6 11  1  0
 11 12  2  0
 12  3  1  0
  1 13  1  0
  1 14  1  0
  1 15  1  0
  4 16  1  0
  5 17  1  0
  8 18  1  0
  8 19  1  0
 11 20  1  0
 12 21  1  0
M  END
>  <meeko>  (8) 
{"is_sidechain": [false], "free_energy": -5.086, "intermolecular_energy": -5.846, "internal_energy": -0.086}

$$$$
3lka_ligand
     RDKit          3D

 21 21  0  0  0  0  0  0  0  0999 V2000
   -5.0200   -9.2370   11.9990 C   0  0  0  0  0  0  0  0  0  0  0  0
   -5.9220   -8.7850   10.9980 O   0  0  0  0  0  0  0  0  0  0  0  0
   -5.4520   -7.8560   10.1130 C   0  0  0  0  0  0  0  0  0  0  0  0
   -6.4440   -7.0840    9.4980 C   0  0  0  0  0  0  0  0  0  0  0  0
   -6.1080   -6.0950    8.5710 C   0  0  0  0  0  0  0  0  0  0  0  0
   -4.7630   -5.8730    8.2660 C   0  0  0  0  0  0  0  0  0  0  0  0
   -4.3280   -4.6450    7.0710 S   0  0  0  0  0  0  0  0  0  0  0  0
   -3.0720   -5.3930    6.2470 N   0  0  0  0  0  0  0  0  0  0  0  0
   -5.4030   -4.5100    6.1150 O   0  0  0  0  0  0  0  0  0  0  0  0
   -3.7430   -3.5090    7.7440 O   0  0  0  0  0  0  0  0  0  0  0  0
   -3.7640   -6.6440    8.8650 C   0  0  0  0  0  0  0  0  0  0  0  0
   -4.1100   -7.6330    9.7920 C   0  0  0  0  0  0  0  0  0  0  0  0
   -5.4403   -9.0264   12.9935 H   0  0  0  0  0  0  0  0  0  0  0  0
   -4.8631  -10.3202   11.8891 H   0  0  0  0  0  0  0  0  0  0  0  0
   -4.0584   -8.7143   11.8891 H   0  0  0  0  0  0  0  0  0  0  0  0
   -7.5010   -7.2582    9.7477 H   0  0  0  0  0  0  0  0  0  0  0  0
   -6.8940   -5.4973    8.0863 H   0  0  0  0  0  0  0  0  0  0  0  0
   -3.2440   -5.3530    5.2420 H   0  0  0  0  0  0  0  0  0  0  0  0
   -2.1810   -4.9840    6.5290 H   0  0  0  0  0  0  0  0  0  0  0  0
   -2.7079   -6.4739    8.6085 H   0  0  0  0  0  0  0  0  0  0  0  0
   -3.3240   -8.2366   10.2694 H   0  0  0  0  0  0  0  0  0  0  0  0
  1  2  1  0
  2  3  1  0
  3  4  2  0
  4  5  1  0
  5  6  2  0
  6  7  1  0
  7  8  1  0
  7  9  2  0
  7 10  2  0
  6 11  1  0
 11 12  2  0
 12  3  1  0
  1 13  1  0
  1 14  1  0
  1 15  1  0
  4 16  1  0
  5 17  1  0
  8 18  1  0
  8 19  1  0
 11 20  1  0
 12 21  1  0
M  END
>  <meeko>  (9) 
{"is_sidechain": [false], "free_energy": -4.818, "intermolecular_energy": -5.537, "internal_energy": -0.089}

$$$$
