3mss_ligand
     RDKit          3D

 42 43  0  0  0  0  0  0  0  0999 V2000
   -2.7520   -6.7770    7.3930 C   0  0  0  0  0  0  0  0  0  0  0  0
   -2.3980   -8.0170    6.7360 N   0  0  0  0  0  0  0  0  0  0  0  0
   -1.2520   -8.6940    7.0530 C   0  0  0  0  0  0  0  0  0  0  0  0
   -0.4490   -8.3290    7.9120 O   0  0  0  0  0  0  0  0  0  0  0  0
   -0.9400   -9.9760    6.2580 C   0  0  1  0  0  0  0  0  0  0  0  0
   -1.8830  -11.0550    6.7500 N   0  0  0  0  0  0  0  0  0  0  0  0
   -1.1500   -9.7980    4.7490 C   0  0  0  0  0  0  0  0  0  0  0  0
    0.1430   -9.7610    3.9730 C   0  0  0  0  0  0  0  0  0  0  0  0
    0.1860  -10.1890    2.6390 C   0  0  0  0  0  0  0  0  0  0  0  0
    1.3750  -10.1230    1.9030 C   0  0  0  0  0  0  0  0  0  0  0  0
    2.5380   -9.6350    2.4950 C   0  0  0  0  0  0  0  0  0  0  0  0
    3.7570   -9.5080    1.8970 O   0  0  0  0  0  0  0  0  0  0  0  0
    4.3630  -10.6900    1.3750 C   0  0  0  0  0  0  0  0  0  0  0  0
    5.8280  -10.6600    1.7260 C   0  0  0  0  0  0  0  0  0  0  0  0
    6.2370  -10.3060    3.0210 C   0  0  0  0  0  0  0  0  0  0  0  0
    7.5920  -10.2700    3.3510 C   0  0  0  0  0  0  0  0  0  0  0  0
    8.5530  -10.5800    2.3900 C   0  0  0  0  0  0  0  0  0  0  0  0
    8.1600  -10.9230    1.0980 C   0  0  0  0  0  0  0  0  0  0  0  0
    6.8030  -10.9590    0.7650 C   0  0  0  0  0  0  0  0  0  0  0  0
    2.5010   -9.2190    3.8280 C   0  0  0  0  0  0  0  0  0  0  0  0
    1.3190   -9.2860    4.5670 C   0  0  0  0  0  0  0  0  0  0  0  0
   -2.7124   -6.9156    8.4835 H   0  0  0  0  0  0  0  0  0  0  0  0
   -2.0427   -5.9899    7.0974 H   0  0  0  0  0  0  0  0  0  0  0  0
   -3.7699   -6.4830    7.0974 H   0  0  0  0  0  0  0  0  0  0  0  0
   -2.9950   -8.3120    5.9680 H   0  0  0  0  0  0  0  0  0  0  0  0
    0.1173  -10.2356    6.4151 H   0  0  0  0  0  0  0  0  0  0  0  0
   -2.3550  -11.4810    5.9360 H   0  0  0  0  0  0  0  0  0  0  0  0
   -1.4420  -11.7840    7.3190 H   0  0  0  0  0  0  0  0  0  0  0  0
   -2.6500  -10.6220    7.2830 H   0  0  0  0  0  0  0  0  0  0  0  0
   -1.7570  -10.6372    4.3784 H   0  0  0  0  0  0  0  0  0  0  0  0
   -1.6509   -8.8302    4.5990 H   0  0  0  0  0  0  0  0  0  0  0  0
   -0.7256  -10.5815    2.1647 H   0  0  0  0  0  0  0  0  0  0  0  0
    1.3911  -10.4571    0.8551 H   0  0  0  0  0  0  0  0  0  0  0  0
    3.8912  -11.5785    1.8201 H   0  0  0  0  0  0  0  0  0  0  0  0
    4.2338  -10.7340    0.2835 H   0  0  0  0  0  0  0  0  0  0  0  0
    5.4832  -10.0549    3.7818 H   0  0  0  0  0  0  0  0  0  0  0  0
    7.9023   -9.9968    4.3703 H   0  0  0  0  0  0  0  0  0  0  0  0
    9.6211  -10.5538    2.6515 H   0  0  0  0  0  0  0  0  0  0  0  0
    8.9185  -11.1657    0.3392 H   0  0  0  0  0  0  0  0  0  0  0  0
    6.4984  -11.2238   -0.2583 H   0  0  0  0  0  0  0  0  0  0  0  0
    3.4159   -8.8334    4.3016 H   0  0  0  0  0  0  0  0  0  0  0  0
    1.3110   -8.9648    5.6190 H   0  0  0  0  0  0  0  0  0  0  0  0
  1  2  1  0
  2  3  1  0
  3  4  2  0
  3  5  1  0
  5  6  1  0
  5  7  1  0
  7  8  1  0
  8  9  2  0
  9 10  1  0
 10 11  2  0
 11 12  1  0
 12 13  1  0
 13 14  1  0
 14 15  2  0
 15 16  1  0
 16 17  2  0
 17 18  1  0
 18 19  2  0
 11 20  1  0
 20 21  2  0
 21  8  1  0
 19 14  1  0
  1 22  1  0
  1 23  1  0
  1 24  1  0
  2 25  1  0
  5 26  1  6
  6 27  1  0
  6 28  1  0
  6 29  1  0
  7 30  1  0
  7 31  1  0
  9 32  1  0
 10 33  1  0
 13 34  1  0
 13 35  1  0
 15 36  1  0
 16 37  1  0
 17 38  1  0
 18 39  1  0
 19 40  1  0
 20 41  1  0
 21 42  1  0
M  CHG  1   6   1
M  END
>  <meeko>  (1) 
{"is_sidechain": [false], "free_energy": -7.717, "intermolecular_energy": -10.65, "internal_energy": -0.599}

$$$$
3mss_ligand
     RDKit          3D

 42 43  0  0  0  0  0  0  0  0999 V2000
   -1.9410   -9.3740    5.7300 C   0  0  0  0  0  0  0  0  0  0  0  0
   -0.8200   -8.5480    5.3370 N   0  0  0  0  0  0  0  0  0  0  0  0
   -0.1380   -7.7860    6.2460 C   0  0  0  0  0  0  0  0  0  0  0  0
   -0.3990   -7.7480    7.4500 O   0  0  0  0  0  0  0  0  0  0  0  0
    1.0060   -6.9010    5.7170 C   0  0  1  0  0  0  0  0  0  0  0  0
    1.0080   -5.6260    6.5350 N   0  0  0  0  0  0  0  0  0  0  0  0
    2.3790   -7.5690    5.8550 C   0  0  0  0  0  0  0  0  0  0  0  0
    2.8320   -8.2550    4.5900 C   0  0  0  0  0  0  0  0  0  0  0  0
    3.6280   -9.4070    4.6510 C   0  0  0  0  0  0  0  0  0  0  0  0
    4.0220  -10.0690    3.4820 C   0  0  0  0  0  0  0  0  0  0  0  0
    3.6300   -9.5810    2.2370 C   0  0  0  0  0  0  0  0  0  0  0  0
    3.9320  -10.1270    1.0240 O   0  0  0  0  0  0  0  0  0  0  0  0
    3.3630  -11.3980    0.7110 C   0  0  0  0  0  0  0  0  0  0  0  0
    2.1280  -11.1660   -0.1220 C   0  0  0  0  0  0  0  0  0  0  0  0
    2.0800  -10.0980   -1.0290 C   0  0  0  0  0  0  0  0  0  0  0  0
    0.9380   -9.8730   -1.7990 C   0  0  0  0  0  0  0  0  0  0  0  0
   -0.1680  -10.7100   -1.6670 C   0  0  0  0  0  0  0  0  0  0  0  0
   -0.1360  -11.7690   -0.7620 C   0  0  0  0  0  0  0  0  0  0  0  0
    1.0060  -11.9940    0.0110 C   0  0  0  0  0  0  0  0  0  0  0  0
    2.8470   -8.4270    2.1730 C   0  0  0  0  0  0  0  0  0  0  0  0
    2.4550   -7.7620    3.3360 C   0  0  0  0  0  0  0  0  0  0  0  0
   -1.9983   -9.4162    6.8277 H   0  0  0  0  0  0  0  0  0  0  0  0
   -2.8713   -8.9438    5.3305 H   0  0  0  0  0  0  0  0  0  0  0  0
   -1.8057  -10.3899    5.3305 H   0  0  0  0  0  0  0  0  0  0  0  0
   -0.6220   -8.4930    4.3420 H   0  0  0  0  0  0  0  0  0  0  0  0
    0.8365   -6.7154    4.6461 H   0  0  0  0  0  0  0  0  0  0  0  0
    1.0330   -4.8180    5.8920 H   0  0  0  0  0  0  0  0  0  0  0  0
    0.2200   -5.5310    7.1840 H   0  0  0  0  0  0  0  0  0  0  0  0
    1.8920   -5.5550    7.0580 H   0  0  0  0  0  0  0  0  0  0  0  0
    3.1183   -6.7987    6.1198 H   0  0  0  0  0  0  0  0  0  0  0  0
    2.2920   -8.3407    6.6341 H   0  0  0  0  0  0  0  0  0  0  0  0
    3.9471   -9.7957    5.6293 H   0  0  0  0  0  0  0  0  0  0  0  0
    4.6418  -10.9755    3.5464 H   0  0  0  0  0  0  0  0  0  0  0  0
    4.0873  -12.0013    0.1440 H   0  0  0  0  0  0  0  0  0  0  0  0
    3.1042  -11.9374    1.6341 H   0  0  0  0  0  0  0  0  0  0  0  0
    2.9492   -9.4322   -1.1345 H   0  0  0  0  0  0  0  0  0  0  0  0
    0.9111   -9.0345   -2.5104 H   0  0  0  0  0  0  0  0  0  0  0  0
   -1.0663  -10.5348   -2.2772 H   0  0  0  0  0  0  0  0  0  0  0  0
   -1.0102  -12.4282   -0.6561 H   0  0  0  0  0  0  0  0  0  0  0  0
    1.0241  -12.8272    0.7290 H   0  0  0  0  0  0  0  0  0  0  0  0
    2.5348   -8.0366    1.1931 H   0  0  0  0  0  0  0  0  0  0  0  0
    1.8478   -6.8474    3.2664 H   0  0  0  0  0  0  0  0  0  0  0  0
  1  2  1  0
  2  3  1  0
  3  4  2  0
  3  5  1  0
  5  6  1  0
  5  7  1  0
  7  8  1  0
  8  9  2  0
  9 10  1  0
 10 11  2  0
 11 12  1  0
 12 13  1  0
 13 14  1  0
 14 15  2  0
 15 16  1  0
 16 17  2  0
 17 18  1  0
 18 19  2  0
 11 20  1  0
 20 21  2  0
 21  8  1  0
 19 14  1  0
  1 22  1  0
  1 23  1  0
  1 24  1  0
  2 25  1  0
  5 26  1  6
  6 27  1  0
  6 28  1  0
  6 29  1  0
  7 30  1  0
  7 31  1  0
  9 32  1  0
 10 33  1  0
 13 34  1  0
 13 35  1  0
 15 36  1  0
 16 37  1  0
 17 38  1  0
 18 39  1  0
 19 40  1  0
 20 41  1  0
 21 42  1  0
M  CHG  1   6   1
M  END
>  <meeko>  (2) 
{"is_sidechain": [false], "free_energy": -7.622, "intermolecular_energy": -10.283, "internal_energy": -0.834}

$$$$
3mss_ligand
     RDKit          3D

 42 43  0  0  0  0  0  0  0  0999 V2000
   10.6850  -10.8600    3.5050 C   0  0  0  0  0  0  0  0  0  0  0  0
    9.6550  -10.6480    2.5120 N   0  0  0  0  0  0  0  0  0  0  0  0
    8.3720  -10.3290    2.8670 C   0  0  0  0  0  0  0  0  0  0  0  0
    7.9930  -10.1820    4.0300 O   0  0  0  0  0  0  0  0  0  0  0  0
    7.3380  -10.1770    1.7360 C   0  0  1  0  0  0  0  0  0  0  0  0
    8.0670  -10.3840    0.4240 N   0  0  0  0  0  0  0  0  0  0  0  0
    6.2060  -11.2070    1.8310 C   0  0  0  0  0  0  0  0  0  0  0  0
    4.8580  -10.5820    2.0920 C   0  0  0  0  0  0  0  0  0  0  0  0
    3.8440  -10.6480    1.1270 C   0  0  0  0  0  0  0  0  0  0  0  0
    2.5800  -10.1010    1.3780 C   0  0  0  0  0  0  0  0  0  0  0  0
    2.3170   -9.4750    2.5950 C   0  0  0  0  0  0  0  0  0  0  0  0
    1.1350   -8.9090    2.9740 O   0  0  0  0  0  0  0  0  0  0  0  0
    0.1130   -9.7800    3.4580 C   0  0  0  0  0  0  0  0  0  0  0  0
   -0.4560   -9.1800    4.7180 C   0  0  0  0  0  0  0  0  0  0  0  0
   -1.7010   -9.6080    5.2030 C   0  0  0  0  0  0  0  0  0  0  0  0
   -2.2370   -9.0530    6.3650 C   0  0  0  0  0  0  0  0  0  0  0  0
   -1.5400   -8.0610    7.0520 C   0  0  0  0  0  0  0  0  0  0  0  0
   -0.3060   -7.6200    6.5730 C   0  0  0  0  0  0  0  0  0  0  0  0
    0.2320   -8.1740    5.4090 C   0  0  0  0  0  0  0  0  0  0  0  0
    3.3290   -9.3980    3.5530 C   0  0  0  0  0  0  0  0  0  0  0  0
    4.5920   -9.9380    3.3070 C   0  0  0  0  0  0  0  0  0  0  0  0
   10.2487  -10.7702    4.5108 H   0  0  0  0  0  0  0  0  0  0  0  0
   11.1138  -11.8652    3.3797 H   0  0  0  0  0  0  0  0  0  0  0  0
   11.4759  -10.1058    3.3797 H   0  0  0  0  0  0  0  0  0  0  0  0
    9.9080  -10.8350    1.5460 H   0  0  0  0  0  0  0  0  0  0  0  0
    6.8820   -9.1789    1.8125 H   0  0  0  0  0  0  0  0  0  0  0  0
    9.0320  -10.6910    0.6260 H   0  0  0  0  0  0  0  0  0  0  0  0
    7.6170  -11.0440   -0.2170 H   0  0  0  0  0  0  0  0  0  0  0  0
    8.1880   -9.4770   -0.0480 H   0  0  0  0  0  0  0  0  0  0  0  0
    6.1569  -11.7618    0.8825 H   0  0  0  0  0  0  0  0  0  0  0  0
    6.4325  -11.8659    2.6822 H   0  0  0  0  0  0  0  0  0  0  0  0
    4.0435  -11.1352    0.1612 H   0  0  0  0  0  0  0  0  0  0  0  0
    1.7925  -10.1655    0.6127 H   0  0  0  0  0  0  0  0  0  0  0  0
   -0.6797   -9.8808    2.7021 H   0  0  0  0  0  0  0  0  0  0  0  0
    0.5288  -10.7772    3.6649 H   0  0  0  0  0  0  0  0  0  0  0  0
   -2.2587  -10.3872    4.6628 H   0  0  0  0  0  0  0  0  0  0  0  0
   -3.2116   -9.3990    6.7397 H   0  0  0  0  0  0  0  0  0  0  0  0
   -1.9619   -7.6264    7.9702 H   0  0  0  0  0  0  0  0  0  0  0  0
    0.2440   -6.8350    7.1127 H   0  0  0  0  0  0  0  0  0  0  0  0
    1.2023   -7.8180    5.0324 H   0  0  0  0  0  0  0  0  0  0  0  0
    3.1282   -8.9047    4.5155 H   0  0  0  0  0  0  0  0  0  0  0  0
    5.3809   -9.8577    4.0694 H   0  0  0  0  0  0  0  0  0  0  0  0
  1  2  1  0
  2  3  1  0
  3  4  2  0
  3  5  1  0
  5  6  1  0
  5  7  1  0
  7  8  1  0
  8  9  2  0
  9 10  1  0
 10 11  2  0
 11 12  1  0
 12 13  1  0
 13 14  1  0
 14 15  2  0
 15 16  1  0
 16 17  2  0
 17 18  1  0
 18 19  2  0
 11 20  1  0
 20 21  2  0
 21  8  1  0
 19 14  1  0
  1 22  1  0
  1 23  1  0
  1 24  1  0
  2 25  1  0
  5 26  1  6
  6 27  1  0
  6 28  1  0
  6 29  1  0
  7 30  1  0
  7 31  1  0
  9 32  1  0
 10 33  1  0
 13 34  1  0
 13 35  1  0
 15 36  1  0
 16 37  1  0
 17 38  1  0
 18 39  1  0
 19 40  1  0
 20 41  1  0
 21 42  1  0
M  CHG  1   6   1
M  END
>  <meeko>  (3) 
{"is_sidechain": [false], "free_energy": -7.55, "intermolecular_energy": -10.38, "internal_energy": -0.638}

$$$$
3mss_ligand
     RDKit          3D

 42 43  0  0  0  0  0  0  0  0999 V2000
   -0.2290   -9.4910   -2.1610 C   0  0  0  0  0  0  0  0  0  0  0  0
    0.2920   -9.1080   -0.8670 N   0  0  0  0  0  0  0  0  0  0  0  0
    1.5580   -9.4490   -0.4760 C   0  0  0  0  0  0  0  0  0  0  0  0
    2.3520  -10.0800   -1.1760 O   0  0  0  0  0  0  0  0  0  0  0  0
    1.9990   -9.0400    0.9420 C   0  0  1  0  0  0  0  0  0  0  0  0
    0.8650   -8.2470    1.5580 N   0  0  0  0  0  0  0  0  0  0  0  0
    2.2900  -10.2490    1.8400 C   0  0  0  0  0  0  0  0  0  0  0  0
    3.7270  -10.3140    2.2960 C   0  0  0  0  0  0  0  0  0  0  0  0
    4.0800   -9.9270    3.5950 C   0  0  0  0  0  0  0  0  0  0  0  0
    5.4050  -10.0190    4.0350 C   0  0  0  0  0  0  0  0  0  0  0  0
    6.3960  -10.4930    3.1780 C   0  0  0  0  0  0  0  0  0  0  0  0
    7.7190  -10.6430    3.4750 O   0  0  0  0  0  0  0  0  0  0  0  0
    8.1800  -10.1150    4.7180 C   0  0  0  0  0  0  0  0  0  0  0  0
    9.6390  -10.4630    4.8630 C   0  0  0  0  0  0  0  0  0  0  0  0
   10.4330  -10.6650    3.7240 C   0  0  0  0  0  0  0  0  0  0  0  0
   11.7830  -10.9940    3.8500 C   0  0  0  0  0  0  0  0  0  0  0  0
   12.3530  -11.1300    5.1140 C   0  0  0  0  0  0  0  0  0  0  0  0
   11.5720  -10.9410    6.2540 C   0  0  0  0  0  0  0  0  0  0  0  0
   10.2200  -10.6130    6.1290 C   0  0  0  0  0  0  0  0  0  0  0  0
    6.0490  -10.8690    1.8790 C   0  0  0  0  0  0  0  0  0  0  0  0
    4.7290  -10.7750    1.4340 C   0  0  0  0  0  0  0  0  0  0  0  0
   -1.1085  -10.1376   -2.0254 H   0  0  0  0  0  0  0  0  0  0  0  0
   -0.5193   -8.5897   -2.7208 H   0  0  0  0  0  0  0  0  0  0  0  0
    0.5446  -10.0370   -2.7208 H   0  0  0  0  0  0  0  0  0  0  0  0
   -0.3570   -8.6540   -0.2310 H   0  0  0  0  0  0  0  0  0  0  0  0
    2.9285   -8.4570    0.8633 H   0  0  0  0  0  0  0  0  0  0  0  0
    0.4590   -7.6300    0.8350 H   0  0  0  0  0  0  0  0  0  0  0  0
    0.1270   -8.8140    1.9870 H   0  0  0  0  0  0  0  0  0  0  0  0
    1.2430   -7.5930    2.2580 H   0  0  0  0  0  0  0  0  0  0  0  0
    1.6431  -10.1898    2.7277 H   0  0  0  0  0  0  0  0  0  0  0  0
    2.0924  -11.1540    1.2468 H   0  0  0  0  0  0  0  0  0  0  0  0
    3.3061   -9.5461    4.2776 H   0  0  0  0  0  0  0  0  0  0  0  0
    5.6649   -9.7163    5.0601 H   0  0  0  0  0  0  0  0  0  0  0  0
    8.0547   -9.0222    4.7282 H   0  0  0  0  0  0  0  0  0  0  0  0
    7.6021  -10.5420    5.5509 H   0  0  0  0  0  0  0  0  0  0  0  0
    9.9875  -10.5631    2.7234 H   0  0  0  0  0  0  0  0  0  0  0  0
   12.3978  -11.1461    2.9506 H   0  0  0  0  0  0  0  0  0  0  0  0
   13.4182  -11.3862    5.2128 H   0  0  0  0  0  0  0  0  0  0  0  0
   12.0210  -11.0503    7.2522 H   0  0  0  0  0  0  0  0  0  0  0  0
    9.6069  -10.4714    7.0313 H   0  0  0  0  0  0  0  0  0  0  0  0
    6.8261  -11.2444    1.1969 H   0  0  0  0  0  0  0  0  0  0  0  0
    4.4757  -11.0640    0.4033 H   0  0  0  0  0  0  0  0  0  0  0  0
  1  2  1  0
  2  3  1  0
  3  4  2  0
  3  5  1  0
  5  6  1  0
  5  7  1  0
  7  8  1  0
  8  9  2  0
  9 10  1  0
 10 11  2  0
 11 12  1  0
 12 13  1  0
 13 14  1  0
 14 15  2  0
 15 16  1  0
 16 17  2  0
 17 18  1  0
 18 19  2  0
 11 20  1  0
 20 21  2  0
 21  8  1  0
 19 14  1  0
  1 22  1  0
  1 23  1  0
  1 24  1  0
  2 25  1  0
  5 26  1  6
  6 27  1  0
  6 28  1  0
  6 29  1  0
  7 30  1  0
  7 31  1  0
  9 32  1  0
 10 33  1  0
 13 34  1  0
 13 35  1  0
 15 36  1  0
 16 37  1  0
 17 38  1  0
 18 39  1  0
 19 40  1  0
 20 41  1  0
 21 42  1  0
M  CHG  1   6   1
M  END
>  <meeko>  (4) 
{"is_sidechain": [false], "free_energy": -7.443, "intermolecular_energy": -10.321, "internal_energy": -0.549}

$$$$
3mss_ligand
     RDKit          3D

 42 43  0  0  0  0  0  0  0  0999 V2000
   -2.6730   -7.3030    7.5020 C   0  0  0  0  0  0  0  0  0  0  0  0
   -1.5220   -6.8490    6.7520 N   0  0  0  0  0  0  0  0  0  0  0  0
   -0.4400   -7.6600    6.5390 C   0  0  0  0  0  0  0  0  0  0  0  0
   -0.3570   -8.8210    6.9410 O   0  0  0  0  0  0  0  0  0  0  0  0
    0.7560   -7.0630    5.7730 C   0  0  1  0  0  0  0  0  0  0  0  0
    1.0040   -5.6760    6.3300 N   0  0  0  0  0  0  0  0  0  0  0  0
    2.0350   -7.8920    5.9410 C   0  0  0  0  0  0  0  0  0  0  0  0
    2.5420   -8.4670    4.6430 C   0  0  0  0  0  0  0  0  0  0  0  0
    2.1580   -7.9060    3.4170 C   0  0  0  0  0  0  0  0  0  0  0  0
    2.6530   -8.4130    2.2110 C   0  0  0  0  0  0  0  0  0  0  0  0
    3.5340   -9.4920    2.2140 C   0  0  0  0  0  0  0  0  0  0  0  0
    4.0980  -10.0790    1.1190 O   0  0  0  0  0  0  0  0  0  0  0  0
    3.5720  -11.3380    0.7000 C   0  0  0  0  0  0  0  0  0  0  0  0
    2.3000  -11.0820   -0.0670 C   0  0  0  0  0  0  0  0  0  0  0  0
    2.2590  -10.0830   -1.0510 C   0  0  0  0  0  0  0  0  0  0  0  0
    1.0840   -9.8360   -1.7610 C   0  0  0  0  0  0  0  0  0  0  0  0
   -0.0640  -10.5800   -1.4930 C   0  0  0  0  0  0  0  0  0  0  0  0
   -0.0380  -11.5690   -0.5100 C   0  0  0  0  0  0  0  0  0  0  0  0
    1.1380  -11.8170    0.2020 C   0  0  0  0  0  0  0  0  0  0  0  0
    3.9100  -10.0610    3.4330 C   0  0  0  0  0  0  0  0  0  0  0  0
    3.4150   -9.5610    4.6390 C   0  0  0  0  0  0  0  0  0  0  0  0
   -2.4646   -7.2208    8.5789 H   0  0  0  0  0  0  0  0  0  0  0  0
   -3.5443   -6.6812    7.2486 H   0  0  0  0  0  0  0  0  0  0  0  0
   -2.8852   -8.3522    7.2486 H   0  0  0  0  0  0  0  0  0  0  0  0
   -1.5190   -5.8730    6.4680 H   0  0  0  0  0  0  0  0  0  0  0  0
    0.5122   -7.0490    4.7004 H   0  0  0  0  0  0  0  0  0  0  0  0
    1.4200   -5.7660    7.2710 H   0  0  0  0  0  0  0  0  0  0  0  0
    1.5940   -5.0770    5.7440 H   0  0  0  0  0  0  0  0  0  0  0  0
    0.1030   -5.2080    6.5000 H   0  0  0  0  0  0  0  0  0  0  0  0
    2.8171   -7.2464    6.3671 H   0  0  0  0  0  0  0  0  0  0  0  0
    1.7933   -8.7374    6.6020 H   0  0  0  0  0  0  0  0  0  0  0  0
    1.4589   -7.0568    3.4033 H   0  0  0  0  0  0  0  0  0  0  0  0
    2.3457   -7.9584    1.2576 H   0  0  0  0  0  0  0  0  0  0  0  0
    4.3003  -11.8500    0.0540 H   0  0  0  0  0  0  0  0  0  0  0  0
    3.3689  -11.9758    1.5729 H   0  0  0  0  0  0  0  0  0  0  0  0
    3.1605   -9.4898   -1.2643 H   0  0  0  0  0  0  0  0  0  0  0  0
    1.0633   -9.0531   -2.5334 H   0  0  0  0  0  0  0  0  0  0  0  0
   -0.9891  -10.3873   -2.0561 H   0  0  0  0  0  0  0  0  0  0  0  0
   -0.9443  -12.1542   -0.2952 H   0  0  0  0  0  0  0  0  0  0  0  0
    1.1518  -12.5950    0.9795 H   0  0  0  0  0  0  0  0  0  0  0  0
    4.6048  -10.9137    3.4430 H   0  0  0  0  0  0  0  0  0  0  0  0
    3.7122  -10.0285    5.5893 H   0  0  0  0  0  0  0  0  0  0  0  0
  1  2  1  0
  2  3  1  0
  3  4  2  0
  3  5  1  0
  5  6  1  0
  5  7  1  0
  7  8  1  0
  8  9  2  0
  9 10  1  0
 10 11  2  0
 11 12  1  0
 12 13  1  0
 13 14  1  0
 14 15  2  0
 15 16  1  0
 16 17  2  0
 17 18  1  0
 18 19  2  0
 11 20  1  0
 20 21  2  0
 21  8  1  0
 19 14  1  0
  1 22  1  0
  1 23  1  0
  1 24  1  0
  2 25  1  0
  5 26  1  6
  6 27  1  0
  6 28  1  0
  6 29  1  0
  7 30  1  0
  7 31  1  0
  9 32  1  0
 10 33  1  0
 13 34  1  0
 13 35  1  0
 15 36  1  0
 16 37  1  0
 17 38  1  0
 18 39  1  0
 19 40  1  0
 20 41  1  0
 21 42  1  0
M  CHG  1   6   1
M  END
>  <meeko>  (5) 
{"is_sidechain": [false], "free_energy": -7.439, "intermolecular_energy": -10.074, "internal_energy": -0.791}

$$$$
3mss_ligand
     RDKit          3D

 42 43  0  0  0  0  0  0  0  0999 V2000
   11.4160  -11.4800    7.9450 C   0  0  0  0  0  0  0  0  0  0  0  0
   10.2750  -11.2370    7.0890 N   0  0  0  0  0  0  0  0  0  0  0  0
    9.8050   -9.9720    6.8630 C   0  0  0  0  0  0  0  0  0  0  0  0
   10.3050   -8.9530    7.3420 O   0  0  0  0  0  0  0  0  0  0  0  0
    8.5530   -9.8260    5.9790 C   0  0  1  0  0  0  0  0  0  0  0  0
    8.1850   -8.3560    5.9530 N   0  0  0  0  0  0  0  0  0  0  0  0
    8.7920  -10.2920    4.5380 C   0  0  0  0  0  0  0  0  0  0  0  0
    7.5380  -10.2890    3.6990 C   0  0  0  0  0  0  0  0  0  0  0  0
    7.6170  -10.2720    2.3000 C   0  0  0  0  0  0  0  0  0  0  0  0
    6.4570  -10.3040    1.5170 C   0  0  0  0  0  0  0  0  0  0  0  0
    5.2040  -10.3480    2.1240 C   0  0  0  0  0  0  0  0  0  0  0  0
    3.9980  -10.3920    1.4870 O   0  0  0  0  0  0  0  0  0  0  0  0
    3.9580  -10.9890    0.1920 C   0  0  0  0  0  0  0  0  0  0  0  0
    2.5630  -10.8270   -0.3560 C   0  0  0  0  0  0  0  0  0  0  0  0
    2.2380   -9.7070   -1.1360 C   0  0  0  0  0  0  0  0  0  0  0  0
    0.9470   -9.5460   -1.6410 C   0  0  0  0  0  0  0  0  0  0  0  0
   -0.0330  -10.4980   -1.3680 C   0  0  0  0  0  0  0  0  0  0  0  0
    0.2760  -11.6100   -0.5850 C   0  0  0  0  0  0  0  0  0  0  0  0
    1.5670  -11.7720   -0.0780 C   0  0  0  0  0  0  0  0  0  0  0  0
    5.1220  -10.3530    3.5180 C   0  0  0  0  0  0  0  0  0  0  0  0
    6.2750  -10.3170    4.3030 C   0  0  0  0  0  0  0  0  0  0  0  0
   11.1051  -11.4138    8.9981 H   0  0  0  0  0  0  0  0  0  0  0  0
   11.8181  -12.4839    7.7438 H   0  0  0  0  0  0  0  0  0  0  0  0
   12.1923  -10.7270    7.7438 H   0  0  0  0  0  0  0  0  0  0  0  0
    9.7880  -12.0560    6.7360 H   0  0  0  0  0  0  0  0  0  0  0  0
    7.7542  -10.4542    6.4000 H   0  0  0  0  0  0  0  0  0  0  0  0
    8.4330   -7.9680    5.0290 H   0  0  0  0  0  0  0  0  0  0  0  0
    7.2030   -8.1550    6.1660 H   0  0  0  0  0  0  0  0  0  0  0  0
    8.7890   -7.8400    6.6090 H   0  0  0  0  0  0  0  0  0  0  0  0
    9.5275   -9.6208    4.0705 H   0  0  0  0  0  0  0  0  0  0  0  0
    9.1528  -11.3301    4.5847 H   0  0  0  0  0  0  0  0  0  0  0  0
    8.6018  -10.2331    1.8115 H   0  0  0  0  0  0  0  0  0  0  0  0
    6.5351  -10.2944    0.4198 H   0  0  0  0  0  0  0  0  0  0  0  0
    4.6794  -10.4893   -0.4713 H   0  0  0  0  0  0  0  0  0  0  0  0
    4.2207  -12.0553    0.2558 H   0  0  0  0  0  0  0  0  0  0  0  0
    3.0066   -8.9500   -1.3511 H   0  0  0  0  0  0  0  0  0  0  0  0
    0.7029   -8.6667   -2.2552 H   0  0  0  0  0  0  0  0  0  0  0  0
   -1.0494  -10.3727   -1.7696 H   0  0  0  0  0  0  0  0  0  0  0  0
   -0.4982  -12.3603   -0.3666 H   0  0  0  0  0  0  0  0  0  0  0  0
    1.8035  -12.6478    0.5441 H   0  0  0  0  0  0  0  0  0  0  0  0
    4.1355  -10.3857    4.0036 H   0  0  0  0  0  0  0  0  0  0  0  0
    6.1915  -10.3106    5.3998 H   0  0  0  0  0  0  0  0  0  0  0  0
  1  2  1  0
  2  3  1  0
  3  4  2  0
  3  5  1  0
  5  6  1  0
  5  7  1  0
  7  8  1  0
  8  9  2  0
  9 10  1  0
 10 11  2  0
 11 12  1  0
 12 13  1  0
 13 14  1  0
 14 15  2  0
 15 16  1  0
 16 17  2  0
 17 18  1  0
 18 19  2  0
 11 20  1  0
 20 21  2  0
 21  8  1  0
 19 14  1  0
  1 22  1  0
  1 23  1  0
  1 24  1  0
  2 25  1  0
  5 26  1  1
  6 27  1  0
  6 28  1  0
  6 29  1  0
  7 30  1  0
  7 31  1  0
  9 32  1  0
 10 33  1  0
 13 34  1  0
 13 35  1  0
 15 36  1  0
 16 37  1  0
 17 38  1  0
 18 39  1  0
 19 40  1  0
 20 41  1  0
 21 42  1  0
M  CHG  1   6   1
M  END
>  <meeko>  (6) 
{"is_sidechain": [false], "free_energy": -7.275, "intermolecular_energy": -10.421, "internal_energy": -0.218}

$$$$
3mss_ligand
     RDKit          3D

 42 43  0  0  0  0  0  0  0  0999 V2000
    1.9360  -13.5060   -0.4160 C   0  0  0  0  0  0  0  0  0  0  0  0
    1.6380  -12.1160   -0.1490 N   0  0  0  0  0  0  0  0  0  0  0  0
    0.4540  -11.5500   -0.5370 C   0  0  0  0  0  0  0  0  0  0  0  0
   -0.4460  -12.1600   -1.1180 O   0  0  0  0  0  0  0  0  0  0  0  0
    0.2550  -10.0500   -0.2530 C   0  0  1  0  0  0  0  0  0  0  0  0
   -0.5490   -9.4740   -1.4000 N   0  0  0  0  0  0  0  0  0  0  0  0
   -0.5080   -9.7940    1.0530 C   0  0  0  0  0  0  0  0  0  0  0  0
    0.3380   -9.1310    2.1120 C   0  0  0  0  0  0  0  0  0  0  0  0
    1.4100   -8.3040    1.7520 C   0  0  0  0  0  0  0  0  0  0  0  0
    2.1770   -7.6590    2.7290 C   0  0  0  0  0  0  0  0  0  0  0  0
    1.8840   -7.8380    4.0790 C   0  0  0  0  0  0  0  0  0  0  0  0
    2.5380   -7.2670    5.1310 O   0  0  0  0  0  0  0  0  0  0  0  0
    3.1250   -8.1400    6.0960 C   0  0  0  0  0  0  0  0  0  0  0  0
    4.3380   -8.7810    5.4730 C   0  0  0  0  0  0  0  0  0  0  0  0
    4.4160  -10.1760    5.3520 C   0  0  0  0  0  0  0  0  0  0  0  0
    5.5390  -10.7770    4.7820 C   0  0  0  0  0  0  0  0  0  0  0  0
    6.5980   -9.9910    4.3320 C   0  0  0  0  0  0  0  0  0  0  0  0
    6.5370   -8.6030    4.4560 C   0  0  0  0  0  0  0  0  0  0  0  0
    5.4130   -8.0010    5.0270 C   0  0  0  0  0  0  0  0  0  0  0  0
    0.8230   -8.6710    4.4410 C   0  0  0  0  0  0  0  0  0  0  0  0
    0.0590   -9.3200    3.4710 C   0  0  0  0  0  0  0  0  0  0  0  0
    2.0517  -14.0455    0.5356 H   0  0  0  0  0  0  0  0  0  0  0  0
    1.1133  -13.9530   -0.9933 H   0  0  0  0  0  0  0  0  0  0  0  0
    2.8697  -13.5765   -0.9933 H   0  0  0  0  0  0  0  0  0  0  0  0
    2.3840  -11.5600    0.2600 H   0  0  0  0  0  0  0  0  0  0  0  0
    1.2445   -9.5799   -0.1534 H   0  0  0  0  0  0  0  0  0  0  0  0
    0.0870   -8.9470   -2.0200 H   0  0  0  0  0  0  0  0  0  0  0  0
   -1.0760  -10.1640   -1.9440 H   0  0  0  0  0  0  0  0  0  0  0  0
   -1.1950   -8.7570   -1.0400 H   0  0  0  0  0  0  0  0  0  0  0  0
   -1.3682   -9.1442    0.8344 H   0  0  0  0  0  0  0  0  0  0  0  0
   -0.8208  -10.7720    1.4475 H   0  0  0  0  0  0  0  0  0  0  0  0
    1.6518   -8.1599    0.6886 H   0  0  0  0  0  0  0  0  0  0  0  0
    3.0129   -7.0094    2.4302 H   0  0  0  0  0  0  0  0  0  0  0  0
    3.4226   -7.5657    6.9857 H   0  0  0  0  0  0  0  0  0  0  0  0
    2.4020   -8.9107    6.4014 H   0  0  0  0  0  0  0  0  0  0  0  0
    3.5849  -10.8017    5.7094 H   0  0  0  0  0  0  0  0  0  0  0  0
    5.5883  -11.8719    4.6878 H   0  0  0  0  0  0  0  0  0  0  0  0
    7.4815  -10.4648    3.8793 H   0  0  0  0  0  0  0  0  0  0  0  0
    7.3741   -7.9822    4.1041 H   0  0  0  0  0  0  0  0  0  0  0  0
    5.3717   -6.9063    5.1272 H   0  0  0  0  0  0  0  0  0  0  0  0
    0.5867   -8.8172    5.5053 H   0  0  0  0  0  0  0  0  0  0  0  0
   -0.7651   -9.9823    3.7747 H   0  0  0  0  0  0  0  0  0  0  0  0
  1  2  1  0
  2  3  1  0
  3  4  2  0
  3  5  1  0
  5  6  1  0
  5  7  1  0
  7  8  1  0
  8  9  2  0
  9 10  1  0
 10 11  2  0
 11 12  1  0
 12 13  1  0
 13 14  1  0
 14 15  2  0
 15 16  1  0
 16 17  2  0
 17 18  1  0
 18 19  2  0
 11 20  1  0
 20 21  2  0
 21  8  1  0
 19 14  1  0
  1 22  1  0
  1 23  1  0
  1 24  1  0
  2 25  1  0
  5 26  1  1
  6 27  1  0
  6 28  1  0
  6 29  1  0
  7 30  1  0
  7 31  1  0
  9 32  1  0
 10 33  1  0
 13 34  1  0
 13 35  1  0
 15 36  1  0
 16 37  1  0
 17 38  1  0
 18 39  1  0
 19 40  1  0
 20 41  1  0
 21 42  1  0
M  CHG  1   6   1
M  END
>  <meeko>  (7) 
{"is_sidechain": [false], "free_energy": -7.25, "intermolecular_energy": -9.64, "internal_energy": -0.963}

$$$$
3mss_ligand
     RDKit          3D

 42 43  0  0  0  0  0  0  0  0999 V2000
    0.0680   -9.2120   -2.2350 C   0  0  0  0  0  0  0  0  0  0  0  0
    1.0630   -9.8430   -1.3950 N   0  0  0  0  0  0  0  0  0  0  0  0
    0.8400  -11.0600   -0.8110 C   0  0  0  0  0  0  0  0  0  0  0  0
   -0.1920  -11.7180   -0.9560 O   0  0  0  0  0  0  0  0  0  0  0  0
    1.9410  -11.6210    0.1080 C   0  0  1  0  0  0  0  0  0  0  0  0
    2.1630  -13.0680   -0.2820 N   0  0  0  0  0  0  0  0  0  0  0  0
    3.2700  -10.8690   -0.0390 C   0  0  0  0  0  0  0  0  0  0  0  0
    3.9660  -10.6370    1.2790 C   0  0  0  0  0  0  0  0  0  0  0  0
    5.3270  -10.9360    1.4270 C   0  0  0  0  0  0  0  0  0  0  0  0
    5.9870  -10.6900    2.6370 C   0  0  0  0  0  0  0  0  0  0  0  0
    5.2920  -10.1470    3.7150 C   0  0  0  0  0  0  0  0  0  0  0  0
    5.8080   -9.8480    4.9420 O   0  0  0  0  0  0  0  0  0  0  0  0
    6.6940   -8.7330    5.0320 C   0  0  0  0  0  0  0  0  0  0  0  0
    7.9910   -9.2120    5.6300 C   0  0  0  0  0  0  0  0  0  0  0  0
    8.7850  -10.1410    4.9420 C   0  0  0  0  0  0  0  0  0  0  0  0
    9.9850  -10.5940    5.4920 C   0  0  0  0  0  0  0  0  0  0  0  0
   10.4010  -10.1280    6.7380 C   0  0  0  0  0  0  0  0  0  0  0  0
    9.6150   -9.2130    7.4360 C   0  0  0  0  0  0  0  0  0  0  0  0
    8.4140   -8.7590    6.8870 C   0  0  0  0  0  0  0  0  0  0  0  0
    3.9330   -9.8580    3.5740 C   0  0  0  0  0  0  0  0  0  0  0  0
    3.2700  -10.1060    2.3710 C   0  0  0  0  0  0  0  0  0  0  0  0
   -0.6926   -8.7297   -1.6034 H   0  0  0  0  0  0  0  0  0  0  0  0
    0.5511   -8.4548   -2.8701 H   0  0  0  0  0  0  0  0  0  0  0  0
   -0.4109   -9.9718   -2.8701 H   0  0  0  0  0  0  0  0  0  0  0  0
    1.8960   -9.2990   -1.1890 H   0  0  0  0  0  0  0  0  0  0  0  0
    1.6135  -11.5104    1.1523 H   0  0  0  0  0  0  0  0  0  0  0  0
    2.2910  -13.1210   -1.3050 H   0  0  0  0  0  0  0  0  0  0  0  0
    2.9480  -13.5260    0.1930 H   0  0  0  0  0  0  0  0  0  0  0  0
    1.3010  -13.6050   -0.1120 H   0  0  0  0  0  0  0  0  0  0  0  0
    3.9355  -11.4573   -0.6878 H   0  0  0  0  0  0  0  0  0  0  0  0
    3.0434   -9.8823   -0.4691 H   0  0  0  0  0  0  0  0  0  0  0  0
    5.8833  -11.3691    0.5826 H   0  0  0  0  0  0  0  0  0  0  0  0
    7.0567  -10.9261    2.7365 H   0  0  0  0  0  0  0  0  0  0  0  0
    6.8762   -8.3198    4.0290 H   0  0  0  0  0  0  0  0  0  0  0  0
    6.2526   -7.9457    5.6607 H   0  0  0  0  0  0  0  0  0  0  0  0
    8.4592  -10.5158    3.9605 H   0  0  0  0  0  0  0  0  0  0  0  0
   10.6028  -11.3191    4.9419 H   0  0  0  0  0  0  0  0  0  0  0  0
   11.3487  -10.4821    7.1699 H   0  0  0  0  0  0  0  0  0  0  0  0
    9.9412   -8.8478    8.4210 H   0  0  0  0  0  0  0  0  0  0  0  0
    7.7955   -8.0407    7.4451 H   0  0  0  0  0  0  0  0  0  0  0  0
    3.3781   -9.4295    4.4216 H   0  0  0  0  0  0  0  0  0  0  0  0
    2.1966   -9.8833    2.2809 H   0  0  0  0  0  0  0  0  0  0  0  0
  1  2  1  0
  2  3  1  0
  3  4  2  0
  3  5  1  0
  5  6  1  0
  5  7  1  0
  7  8  1  0
  8  9  2  0
  9 10  1  0
 10 11  2  0
 11 12  1  0
 12 13  1  0
 13 14  1  0
 14 15  2  0
 15 16  1  0
 16 17  2  0
 17 18  1  0
 18 19  2  0
 11 20  1  0
 20 21  2  0
 21  8  1  0
 19 14  1  0
  1 22  1  0
  1 23  1  0
  1 24  1  0
  2 25  1  0
  5 26  1  1
  6 27  1  0
  6 28  1  0
  6 29  1  0
  7 30  1  0
  7 31  1  0
  9 32  1  0
 10 33  1  0
 13 34  1  0
 13 35  1  0
 15 36  1  0
 16 37  1  0
 17 38  1  0
 18 39  1  0
 19 40  1  0
 20 41  1  0
 21 42  1  0
M  CHG  1   6   1
M  END
>  <meeko>  (8) 
{"is_sidechain": [false], "free_energy": -7.248, "intermolecular_energy": -9.993, "internal_energy": -0.609}

$$$$
3mss_ligand
     RDKit          3D

 42 43  0  0  0  0  0  0  0  0999 V2000
    0.1840   -9.6770   -2.0080 C   0  0  0  0  0  0  0  0  0  0  0  0
    1.1750  -10.3110   -1.1660 N   0  0  0  0  0  0  0  0  0  0  0  0
    0.9450  -11.5260   -0.5800 C   0  0  0  0  0  0  0  0  0  0  0  0
   -0.0890  -12.1790   -0.7250 O   0  0  0  0  0  0  0  0  0  0  0  0
    2.0430  -12.0910    0.3400 C   0  0  1  0  0  0  0  0  0  0  0  0
    2.2380  -13.5480   -0.0270 N   0  0  0  0  0  0  0  0  0  0  0  0
    3.3830  -11.3640    0.1730 C   0  0  0  0  0  0  0  0  0  0  0  0
    3.7880  -10.5810    1.3970 C   0  0  0  0  0  0  0  0  0  0  0  0
    5.1100  -10.6170    1.8610 C   0  0  0  0  0  0  0  0  0  0  0  0
    5.4990   -9.8640    2.9750 C   0  0  0  0  0  0  0  0  0  0  0  0
    4.5690   -9.0710    3.6430 C   0  0  0  0  0  0  0  0  0  0  0  0
    4.8100   -8.2840    4.7310 O   0  0  0  0  0  0  0  0  0  0  0  0
    4.8020   -8.9100    6.0130 C   0  0  0  0  0  0  0  0  0  0  0  0
    3.3720   -9.0070    6.4790 C   0  0  0  0  0  0  0  0  0  0  0  0
    2.7760  -10.2630    6.6680 C   0  0  0  0  0  0  0  0  0  0  0  0
    1.4510  -10.3610    7.0930 C   0  0  0  0  0  0  0  0  0  0  0  0
    0.7050   -9.2070    7.3260 C   0  0  0  0  0  0  0  0  0  0  0  0
    1.2830   -7.9540    7.1310 C   0  0  0  0  0  0  0  0  0  0  0  0
    2.6100   -7.8540    6.7060 C   0  0  0  0  0  0  0  0  0  0  0  0
    3.2480   -9.0410    3.1900 C   0  0  0  0  0  0  0  0  0  0  0  0
    2.8540   -9.7930    2.0820 C   0  0  0  0  0  0  0  0  0  0  0  0
   -0.5756   -9.1910   -1.3781 H   0  0  0  0  0  0  0  0  0  0  0  0
    0.6711   -8.9224   -2.6431 H   0  0  0  0  0  0  0  0  0  0  0  0
   -0.2970  -10.4355   -2.6431 H   0  0  0  0  0  0  0  0  0  0  0  0
    2.0100   -9.7710   -0.9600 H   0  0  0  0  0  0  0  0  0  0  0  0
    1.7244  -11.9581    1.3844 H   0  0  0  0  0  0  0  0  0  0  0  0
    3.2060  -13.6800   -0.3600 H   0  0  0  0  0  0  0  0  0  0  0  0
    2.0330  -14.2110    0.7270 H   0  0  0  0  0  0  0  0  0  0  0  0
    1.6600  -13.7740   -0.8480 H   0  0  0  0  0  0  0  0  0  0  0  0
    4.1624  -12.1108   -0.0386 H   0  0  0  0  0  0  0  0  0  0  0  0
    3.2659  -10.6458   -0.6519 H   0  0  0  0  0  0  0  0  0  0  0  0
    5.8507  -11.2444    1.3436 H   0  0  0  0  0  0  0  0  0  0  0  0
    6.5417   -9.8986    3.3237 H   0  0  0  0  0  0  0  0  0  0  0  0
    5.2389   -9.9168    5.9388 H   0  0  0  0  0  0  0  0  0  0  0  0
    5.3961   -8.3215    6.7276 H   0  0  0  0  0  0  0  0  0  0  0  0
    3.3579  -11.1773    6.4796 H   0  0  0  0  0  0  0  0  0  0  0  0
    0.9944  -11.3502    7.2444 H   0  0  0  0  0  0  0  0  0  0  0  0
   -0.3390   -9.2852    7.6635 H   0  0  0  0  0  0  0  0  0  0  0  0
    0.6938   -7.0429    7.3119 H   0  0  0  0  0  0  0  0  0  0  0  0
    3.0597   -6.8625    6.5485 H   0  0  0  0  0  0  0  0  0  0  0  0
    2.5087   -8.4167    3.7132 H   0  0  0  0  0  0  0  0  0  0  0  0
    1.8070   -9.7668    1.7457 H   0  0  0  0  0  0  0  0  0  0  0  0
  1  2  1  0
  2  3  1  0
  3  4  2  0
  3  5  1  0
  5  6  1  0
  5  7  1  0
  7  8  1  0
  8  9  2  0
  9 10  1  0
 10 11  2  0
 11 12  1  0
 12 13  1  0
 13 14  1  0
 14 15  2  0
 15 16  1  0
 16 17  2  0
 17 18  1  0
 18 19  2  0
 11 20  1  0
 20 21  2  0
 21  8  1  0
 19 14  1  0
  1 22  1  0
  1 23  1  0
  1 24  1  0
  2 25  1  0
  5 26  1  1
  6 27  1  0
  6 28  1  0
  6 29  1  0
  7 30  1  0
  7 31  1  0
  9 32  1  0
 10 33  1  0
 13 34  1  0
 13 35  1  0
 15 36  1  0
 16 37  1  0
 17 38  1  0
 18 39  1  0
 19 40  1  0
 20 41  1  0
 21 42  1  0
M  CHG  1   6   1
M  END
>  <meeko>  (9) 
{"is_sidechain": [false], "free_energy": -7.171, "intermolecular_energy": -9.754, "internal_energy": -0.74}

$$$$
