4w9l_ligand
     RDKit          3D

 84 86  0  0  0  0  0  0  0  0999 V2000
    4.2560   27.2630   18.2480 C   0  0  0  0  0  0  0  0  0  0  0  0
    3.3350   28.0010   19.1800 C   0  0  0  0  0  0  0  0  0  0  0  0
    3.4150   27.8910   20.3980 O   0  0  0  0  0  0  0  0  0  0  0  0
    2.4040   28.7960   18.5490 N   0  0  0  0  0  0  0  0  0  0  0  0
    1.3910   29.5400   19.3190 C   0  0  2  0  0  0  0  0  0  0  0  0
    0.1380   28.6450   19.5140 C   0  0  0  0  0  0  0  0  0  0  0  0
   -0.3800   28.0140   18.5960 O   0  0  0  0  0  0  0  0  0  0  0  0
   -0.2700   28.5100   20.8300 N   0  0  0  0  0  0  0  0  0  0  0  0
   -1.6130   28.0080   21.1340 C   0  0  2  0  0  0  0  0  0  0  0  0
   -2.3910   29.2820   21.5480 C   0  0  0  0  0  0  0  0  0  0  0  0
   -1.7770   30.2920   21.9160 O   0  0  0  0  0  0  0  0  0  0  0  0
   -3.7620   29.2690   21.4720 N   0  0  0  0  0  0  0  0  0  0  0  0
   -4.7100   29.2940   22.5730 C   0  0  0  0  0  0  0  0  0  0  0  0
   -6.0890   29.2740   21.9080 C   0  0  2  0  0  0  0  0  0  0  0  0
   -7.0680   28.5970   22.6760 O   0  0  0  0  0  0  0  0  0  0  0  0
   -5.8250   28.5140   20.6090 C   0  0  0  0  0  0  0  0  0  0  0  0
   -4.4340   28.9990   20.2060 C   0  0  1  0  0  0  0  0  0  0  0  0
   -4.5470   30.2780   19.3530 C   0  0  0  0  0  0  0  0  0  0  0  0
   -3.6350   31.0970   19.2470 O   0  0  0  0  0  0  0  0  0  0  0  0
   -5.7920   30.4600   18.7870 N   0  0  0  0  0  0  0  0  0  0  0  0
   -6.1430   31.6750   18.0890 C   0  0  0  0  0  0  0  0  0  0  0  0
   -7.1480   32.4670   18.8860 C   0  0  0  0  0  0  0  0  0  0  0  0
   -8.3380   32.9150   18.2990 C   0  0  0  0  0  0  0  0  0  0  0  0
   -9.2780   33.6220   19.0550 C   0  0  0  0  0  0  0  0  0  0  0  0
   -9.0500   33.8860   20.4110 C   0  0  0  0  0  0  0  0  0  0  0  0
  -10.0360   34.6350   21.1890 C   0  0  0  0  0  0  0  0  0  0  0  0
  -11.5350   33.9060   21.6130 S   0  0  0  0  0  0  0  0  0  0  0  0
  -12.0060   35.3550   22.3890 C   0  0  0  0  0  0  0  0  0  0  0  0
  -11.1370   36.3380   22.3610 N   0  0  0  0  0  0  0  0  0  0  0  0
   -9.9980   35.9340   21.6760 C   0  0  0  0  0  0  0  0  0  0  0  0
   -8.8810   36.9070   21.5430 C   0  0  0  0  0  0  0  0  0  0  0  0
   -7.8630   33.4340   20.9990 C   0  0  0  0  0  0  0  0  0  0  0  0
   -6.9210   32.7280   20.2440 C   0  0  0  0  0  0  0  0  0  0  0  0
   -1.5930   26.9040   22.2370 C   0  0  0  0  0  0  0  0  0  0  0  0
   -1.2840   27.4590   23.6410 C   0  0  0  0  0  0  0  0  0  0  0  0
   -2.9500   26.1750   22.2890 C   0  0  0  0  0  0  0  0  0  0  0  0
   -0.5120   25.8600   21.8850 C   0  0  0  0  0  0  0  0  0  0  0  0
    1.0660   30.9250   18.6750 C   0  0  0  0  0  0  0  0  0  0  0  0
    2.0950   31.9800   19.1350 C   0  0  0  0  0  0  0  0  0  0  0  0
   -0.3420   31.4340   19.0340 C   0  0  0  0  0  0  0  0  0  0  0  0
    1.1720   30.8180   17.1370 C   0  0  0  0  0  0  0  0  0  0  0  0
    4.9821   26.6811   18.8347 H   0  0  0  0  0  0  0  0  0  0  0  0
    3.6682   26.5831   17.6138 H   0  0  0  0  0  0  0  0  0  0  0  0
    4.7914   27.9849   17.6138 H   0  0  0  0  0  0  0  0  0  0  0  0
    2.3470   28.7870   17.5400 H   0  0  0  0  0  0  0  0  0  0  0  0
    1.7945   29.7791   20.3140 H   0  0  0  0  0  0  0  0  0  0  0  0
    0.0160   29.2830   21.4220 H   0  0  0  0  0  0  0  0  0  0  0  0
   -2.0876   27.4994   20.2819 H   0  0  0  0  0  0  0  0  0  0  0  0
   -4.5783   28.4119   23.2169 H   0  0  0  0  0  0  0  0  0  0  0  0
   -4.5738   30.1760   23.2160 H   0  0  0  0  0  0  0  0  0  0  0  0
   -6.4922   30.2887   21.7748 H   0  0  0  0  0  0  0  0  0  0  0  0
   -7.9090   29.0750   22.5740 H   0  0  0  0  0  0  0  0  0  0  0  0
   -5.8314   27.4271   20.7782 H   0  0  0  0  0  0  0  0  0  0  0  0
   -6.5881   28.6945   19.8376 H   0  0  0  0  0  0  0  0  0  0  0  0
   -3.8838   28.2660   19.5978 H   0  0  0  0  0  0  0  0  0  0  0  0
   -6.5390   29.8180   19.0170 H   0  0  0  0  0  0  0  0  0  0  0  0
   -5.2379   32.2824   17.9410 H   0  0  0  0  0  0  0  0  0  0  0  0
   -6.5853   31.4129   17.1166 H   0  0  0  0  0  0  0  0  0  0  0  0
   -8.5344   32.7094   17.2364 H   0  0  0  0  0  0  0  0  0  0  0  0
  -10.2055   33.9742   18.5799 H   0  0  0  0  0  0  0  0  0  0  0  0
  -12.9829   35.4575   22.8841 H   0  0  0  0  0  0  0  0  0  0  0  0
   -8.5357   37.2078   22.5431 H   0  0  0  0  0  0  0  0  0  0  0  0
   -8.0507   36.4392   20.9937 H   0  0  0  0  0  0  0  0  0  0  0  0
   -9.2305   37.7937   20.9937 H   0  0  0  0  0  0  0  0  0  0  0  0
   -7.6696   33.6356   22.0629 H   0  0  0  0  0  0  0  0  0  0  0  0
   -5.9944   32.3747   20.7200 H   0  0  0  0  0  0  0  0  0  0  0  0
   -1.6701   26.7655   24.4026 H   0  0  0  0  0  0  0  0  0  0  0  0
   -0.1959   27.5669   23.7613 H   0  0  0  0  0  0  0  0  0  0  0  0
   -1.7654   28.4407   23.7613 H   0  0  0  0  0  0  0  0  0  0  0  0
   -3.2420   26.0181   23.3379 H   0  0  0  0  0  0  0  0  0  0  0  0
   -3.7133   26.7845   21.7831 H   0  0  0  0  0  0  0  0  0  0  0  0
   -2.8632   25.2021   21.7831 H   0  0  0  0  0  0  0  0  0  0  0  0
   -0.0851   25.4477   22.8111 H   0  0  0  0  0  0  0  0  0  0  0  0
   -0.9642   25.0481   21.2965 H   0  0  0  0  0  0  0  0  0  0  0  0
    0.2837   26.3402   21.2965 H   0  0  0  0  0  0  0  0  0  0  0  0
    2.1236   32.0094   20.2342 H   0  0  0  0  0  0  0  0  0  0  0  0
    3.0902   31.7141   18.7493 H   0  0  0  0  0  0  0  0  0  0  0  0
    1.8043   32.9683   18.7493 H   0  0  0  0  0  0  0  0  0  0  0  0
   -0.4499   31.4730   20.1280 H   0  0  0  0  0  0  0  0  0  0  0  0
   -0.4857   32.4410   18.6152 H   0  0  0  0  0  0  0  0  0  0  0  0
   -1.0964   30.7517   18.6152 H   0  0  0  0  0  0  0  0  0  0  0  0
    1.9236   30.0594   16.8732 H   0  0  0  0  0  0  0  0  0  0  0  0
    0.1959   30.5271   16.7215 H   0  0  0  0  0  0  0  0  0  0  0  0
    1.4720   31.7913   16.7215 H   0  0  0  0  0  0  0  0  0  0  0  0
  1  2  1  0
  2  3  2  0
  2  4  1  0
  4  5  1  0
  5  6  1  0
  6  7  2  0
  6  8  1  0
  8  9  1  0
  9 10  1  0
 10 11  2  0
 10 12  1  0
 12 13  1  0
 13 14  1  0
 14 15  1  0
 14 16  1  0
 16 17  1  0
 17 18  1  0
 18 19  2  0
 18 20  1  0
 20 21  1  0
 21 22  1  0
 22 23  2  0
 23 24  1  0
 24 25  2  0
 25 26  1  0
 26 27  1  0
 27 28  1  0
 28 29  2  0
 29 30  1  0
 30 31  1  0
 25 32  1  0
 32 33  2  0
  9 34  1  0
 34 35  1  0
 34 36  1  0
 34 37  1  0
  5 38  1  0
 38 39  1  0
 38 40  1  0
 38 41  1  0
 17 12  1  0
 33 22  1  0
 30 26  2  0
  1 42  1  0
  1 43  1  0
  1 44  1  0
  4 45  1  0
  5 46  1  1
  8 47  1  0
  9 48  1  6
 13 49  1  0
 13 50  1  0
 14 51  1  6
 15 52  1  0
 16 53  1  0
 16 54  1  0
 17 55  1  6
 20 56  1  0
 21 57  1  0
 21 58  1  0
 23 59  1  0
 24 60  1  0
 28 61  1  0
 31 62  1  0
 31 63  1  0
 31 64  1  0
 32 65  1  0
 33 66  1  0
 35 67  1  0
 35 68  1  0
 35 69  1  0
 36 70  1  0
 36 71  1  0
 36 72  1  0
 37 73  1  0
 37 74  1  0
 37 75  1  0
 39 76  1  0
 39 77  1  0
 39 78  1  0
 40 79  1  0
 40 80  1  0
 40 81  1  0
 41 82  1  0
 41 83  1  0
 41 84  1  0
M  END
>  <meeko>  (1) 
{"is_sidechain": [false], "free_energy": -6.001, "intermolecular_energy": -10.035, "internal_energy": -1.947}

$$$$
4w9l_ligand
     RDKit          3D

 84 86  0  0  0  0  0  0  0  0999 V2000
   -6.0910   27.7180   18.7990 C   0  0  0  0  0  0  0  0  0  0  0  0
   -5.7720   28.0600   20.2290 C   0  0  0  0  0  0  0  0  0  0  0  0
   -6.0630   29.1450   20.7200 O   0  0  0  0  0  0  0  0  0  0  0  0
   -5.1270   27.0610   20.9230 N   0  0  0  0  0  0  0  0  0  0  0  0
   -4.6940   27.2600   22.3180 C   0  0  2  0  0  0  0  0  0  0  0  0
   -3.3750   28.0800   22.3310 C   0  0  0  0  0  0  0  0  0  0  0  0
   -3.0800   28.8520   23.2400 O   0  0  0  0  0  0  0  0  0  0  0  0
   -2.5000   27.7720   21.3040 N   0  0  0  0  0  0  0  0  0  0  0  0
   -1.4030   28.6880   20.9770 C   0  0  2  0  0  0  0  0  0  0  0  0
   -1.9800   29.5460   19.8220 C   0  0  0  0  0  0  0  0  0  0  0  0
   -2.7320   29.0320   18.9840 O   0  0  0  0  0  0  0  0  0  0  0  0
   -1.6570   30.8790   19.7690 N   0  0  0  0  0  0  0  0  0  0  0  0
   -0.3530   31.4650   19.5120 C   0  0  0  0  0  0  0  0  0  0  0  0
   -0.5830   32.9780   19.5610 C   0  0  2  0  0  0  0  0  0  0  0  0
    0.5380   33.6960   20.0470 O   0  0  0  0  0  0  0  0  0  0  0  0
   -1.7520   33.1090   20.5350 C   0  0  0  0  0  0  0  0  0  0  0  0
   -2.6120   31.8930   20.2030 C   0  0  1  0  0  0  0  0  0  0  0  0
   -3.6040   32.2400   19.0750 C   0  0  0  0  0  0  0  0  0  0  0  0
   -3.4070   33.1420   18.2610 O   0  0  0  0  0  0  0  0  0  0  0  0
   -4.7690   31.5020   19.1130 N   0  0  0  0  0  0  0  0  0  0  0  0
   -5.8850   31.7910   18.2420 C   0  0  0  0  0  0  0  0  0  0  0  0
   -6.9600   32.5330   18.9950 C   0  0  0  0  0  0  0  0  0  0  0  0
   -8.1740   32.8600   18.3770 C   0  0  0  0  0  0  0  0  0  0  0  0
   -9.1770   33.5200   19.0920 C   0  0  0  0  0  0  0  0  0  0  0  0
   -8.9900   33.8570   20.4390 C   0  0  0  0  0  0  0  0  0  0  0  0
  -10.0440   34.5560   21.1740 C   0  0  0  0  0  0  0  0  0  0  0  0
  -11.5260   33.7580   21.5260 S   0  0  0  0  0  0  0  0  0  0  0  0
  -12.0960   35.1790   22.2860 C   0  0  0  0  0  0  0  0  0  0  0  0
  -11.2720   36.2010   22.3010 N   0  0  0  0  0  0  0  0  0  0  0  0
  -10.0860   35.8530   21.6670 C   0  0  0  0  0  0  0  0  0  0  0  0
   -9.0100   36.8760   21.5890 C   0  0  0  0  0  0  0  0  0  0  0  0
   -7.7790   33.5240   21.0570 C   0  0  0  0  0  0  0  0  0  0  0  0
   -6.7750   32.8660   20.3440 C   0  0  0  0  0  0  0  0  0  0  0  0
   -0.0950   27.9270   20.5950 C   0  0  0  0  0  0  0  0  0  0  0  0
    0.1600   27.8890   19.0760 C   0  0  0  0  0  0  0  0  0  0  0  0
    1.1220   28.5810   21.2770 C   0  0  0  0  0  0  0  0  0  0  0  0
   -0.1930   26.4730   21.1030 C   0  0  0  0  0  0  0  0  0  0  0  0
   -4.5900   25.9110   23.0980 C   0  0  0  0  0  0  0  0  0  0  0  0
   -4.8290   26.1490   24.6050 C   0  0  0  0  0  0  0  0  0  0  0  0
   -3.2220   25.2270   22.9270 C   0  0  0  0  0  0  0  0  0  0  0  0
   -5.6890   24.9430   22.6050 C   0  0  0  0  0  0  0  0  0  0  0  0
   -6.8411   26.9138   18.7729 H   0  0  0  0  0  0  0  0  0  0  0  0
   -6.4894   28.6077   18.2893 H   0  0  0  0  0  0  0  0  0  0  0  0
   -5.1758   27.3824   18.2893 H   0  0  0  0  0  0  0  0  0  0  0  0
   -4.8540   26.2170   20.4390 H   0  0  0  0  0  0  0  0  0  0  0  0
   -5.4586   27.8387   22.8570 H   0  0  0  0  0  0  0  0  0  0  0  0
   -2.9580   27.3820   20.4870 H   0  0  0  0  0  0  0  0  0  0  0  0
   -1.0892   29.3090   21.8290 H   0  0  0  0  0  0  0  0  0  0  0  0
    0.3679   31.1581   20.2841 H   0  0  0  0  0  0  0  0  0  0  0  0
    0.0631   31.1410   18.5467 H   0  0  0  0  0  0  0  0  0  0  0  0
   -0.7684   33.3954   18.5603 H   0  0  0  0  0  0  0  0  0  0  0  0
    0.5580   34.5580   19.5960 H   0  0  0  0  0  0  0  0  0  0  0  0
   -1.4037   33.0743   21.5778 H   0  0  0  0  0  0  0  0  0  0  0  0
   -2.2925   34.0621   20.4384 H   0  0  0  0  0  0  0  0  0  0  0  0
   -3.2159   31.5494   21.0558 H   0  0  0  0  0  0  0  0  0  0  0  0
   -4.9270   30.8660   19.8830 H   0  0  0  0  0  0  0  0  0  0  0  0
   -5.5381   32.4099   17.4014 H   0  0  0  0  0  0  0  0  0  0  0  0
   -6.3003   30.8438   17.8674 H   0  0  0  0  0  0  0  0  0  0  0  0
   -8.3388   32.5955   17.3221 H   0  0  0  0  0  0  0  0  0  0  0  0
  -10.1226   33.7775   18.5924 H   0  0  0  0  0  0  0  0  0  0  0  0
  -13.0976   35.2341   22.7374 H   0  0  0  0  0  0  0  0  0  0  0  0
   -8.7052   37.1658   22.6054 H   0  0  0  0  0  0  0  0  0  0  0  0
   -8.1455   36.4586   21.0519 H   0  0  0  0  0  0  0  0  0  0  0  0
   -9.3832   37.7605   21.0519 H   0  0  0  0  0  0  0  0  0  0  0  0
   -7.6169   33.7830   22.1137 H   0  0  0  0  0  0  0  0  0  0  0  0
   -5.8307   32.6067   20.8451 H   0  0  0  0  0  0  0  0  0  0  0  0
    1.2320   27.7293   18.8880 H   0  0  0  0  0  0  0  0  0  0  0  0
   -0.4173   27.0670   18.6277 H   0  0  0  0  0  0  0  0  0  0  0  0
   -0.1526   28.8436   18.6277 H   0  0  0  0  0  0  0  0  0  0  0  0
    1.0072   28.5193   22.3693 H   0  0  0  0  0  0  0  0  0  0  0  0
    2.0390   28.0541   20.9743 H   0  0  0  0  0  0  0  0  0  0  0  0
    1.1887   29.6364   20.9743 H   0  0  0  0  0  0  0  0  0  0  0  0
   -0.1933   26.4682   22.2030 H   0  0  0  0  0  0  0  0  0  0  0  0
   -1.1239   26.0176   20.7340 H   0  0  0  0  0  0  0  0  0  0  0  0
    0.6684   25.8968   20.7340 H   0  0  0  0  0  0  0  0  0  0  0  0
   -4.1686   25.4914   25.1893 H   0  0  0  0  0  0  0  0  0  0  0  0
   -4.6106   27.1990   24.8496 H   0  0  0  0  0  0  0  0  0  0  0  0
   -5.8781   25.9262   24.8496 H   0  0  0  0  0  0  0  0  0  0  0  0
   -2.7930   25.0125   23.9169 H   0  0  0  0  0  0  0  0  0  0  0  0
   -3.3493   24.2865   22.3709 H   0  0  0  0  0  0  0  0  0  0  0  0
   -2.5459   25.8931   22.3709 H   0  0  0  0  0  0  0  0  0  0  0  0
   -6.1981   24.4946   23.4709 H   0  0  0  0  0  0  0  0  0  0  0  0
   -6.4193   25.4966   21.9966 H   0  0  0  0  0  0  0  0  0  0  0  0
   -5.2320   24.1487   21.9966 H   0  0  0  0  0  0  0  0  0  0  0  0
  1  2  1  0
  2  3  2  0
  2  4  1  0
  4  5  1  0
  5  6  1  0
  6  7  2  0
  6  8  1  0
  8  9  1  0
  9 10  1  0
 10 11  2  0
 10 12  1  0
 12 13  1  0
 13 14  1  0
 14 15  1  0
 14 16  1  0
 16 17  1  0
 17 18  1  0
 18 19  2  0
 18 20  1  0
 20 21  1  0
 21 22  1  0
 22 23  2  0
 23 24  1  0
 24 25  2  0
 25 26  1  0
 26 27  1  0
 27 28  1  0
 28 29  2  0
 29 30  1  0
 30 31  1  0
 25 32  1  0
 32 33  2  0
  9 34  1  0
 34 35  1  0
 34 36  1  0
 34 37  1  0
  5 38  1  0
 38 39  1  0
 38 40  1  0
 38 41  1  0
 17 12  1  0
 33 22  1  0
 30 26  2  0
  1 42  1  0
  1 43  1  0
  1 44  1  0
  4 45  1  0
  5 46  1  1
  8 47  1  0
  9 48  1  1
 13 49  1  0
 13 50  1  0
 14 51  1  6
 15 52  1  0
 16 53  1  0
 16 54  1  0
 17 55  1  1
 20 56  1  0
 21 57  1  0
 21 58  1  0
 23 59  1  0
 24 60  1  0
 28 61  1  0
 31 62  1  0
 31 63  1  0
 31 64  1  0
 32 65  1  0
 33 66  1  0
 35 67  1  0
 35 68  1  0
 35 69  1  0
 36 70  1  0
 36 71  1  0
 36 72  1  0
 37 73  1  0
 37 74  1  0
 37 75  1  0
 39 76  1  0
 39 77  1  0
 39 78  1  0
 40 79  1  0
 40 80  1  0
 40 81  1  0
 41 82  1  0
 41 83  1  0
 41 84  1  0
M  END
>  <meeko>  (2) 
{"is_sidechain": [false], "free_energy": -5.976, "intermolecular_energy": -9.773, "internal_energy": -2.168}

$$$$
4w9l_ligand
     RDKit          3D

 84 86  0  0  0  0  0  0  0  0999 V2000
   -5.9940   27.5610   19.7370 C   0  0  0  0  0  0  0  0  0  0  0  0
   -5.5610   28.7420   18.9120 C   0  0  0  0  0  0  0  0  0  0  0  0
   -5.1570   28.6210   17.7610 O   0  0  0  0  0  0  0  0  0  0  0  0
   -5.6510   29.9530   19.5620 N   0  0  0  0  0  0  0  0  0  0  0  0
   -5.2110   31.2010   18.9120 C   0  0  2  0  0  0  0  0  0  0  0  0
   -3.7370   31.4910   19.3080 C   0  0  0  0  0  0  0  0  0  0  0  0
   -2.9720   32.1390   18.5990 O   0  0  0  0  0  0  0  0  0  0  0  0
   -3.3950   31.0740   20.5830 N   0  0  0  0  0  0  0  0  0  0  0  0
   -1.9840   30.9510   20.9600 C   0  0  2  0  0  0  0  0  0  0  0  0
   -1.5950   29.5390   20.4540 C   0  0  0  0  0  0  0  0  0  0  0  0
   -2.3320   28.5720   20.6870 O   0  0  0  0  0  0  0  0  0  0  0  0
   -0.4380   29.3950   19.7290 N   0  0  0  0  0  0  0  0  0  0  0  0
    0.5220   30.4280   19.3790 C   0  0  0  0  0  0  0  0  0  0  0  0
    1.6090   29.7040   18.5810 C   0  0  2  0  0  0  0  0  0  0  0  0
    2.2010   30.5160   17.5820 O   0  0  0  0  0  0  0  0  0  0  0  0
    0.8410   28.5530   17.9330 C   0  0  0  0  0  0  0  0  0  0  0  0
   -0.1550   28.1530   19.0190 C   0  0  1  0  0  0  0  0  0  0  0  0
    0.4790   27.1080   19.9590 C   0  0  0  0  0  0  0  0  0  0  0  0
    1.1160   26.1380   19.5510 O   0  0  0  0  0  0  0  0  0  0  0  0
    0.1960   27.3160   21.2930 N   0  0  0  0  0  0  0  0  0  0  0  0
    0.5640   26.3590   22.3100 C   0  0  0  0  0  0  0  0  0  0  0  0
   -0.6040   25.4600   22.6310 C   0  0  0  0  0  0  0  0  0  0  0  0
   -0.4910   24.0680   22.5180 C   0  0  0  0  0  0  0  0  0  0  0  0
   -1.5690   23.2420   22.8490 C   0  0  0  0  0  0  0  0  0  0  0  0
   -2.7740   23.7890   23.3070 C   0  0  0  0  0  0  0  0  0  0  0  0
   -3.8970   22.9140   23.6420 C   0  0  0  0  0  0  0  0  0  0  0  0
   -3.7320   21.7330   24.8800 S   0  0  0  0  0  0  0  0  0  0  0  0
   -5.3370   21.2190   24.5860 C   0  0  0  0  0  0  0  0  0  0  0  0
   -5.9870   21.8570   23.6410 N   0  0  0  0  0  0  0  0  0  0  0  0
   -5.1700   22.8370   23.0930 C   0  0  0  0  0  0  0  0  0  0  0  0
   -5.7290   23.6860   22.0080 C   0  0  0  0  0  0  0  0  0  0  0  0
   -2.8830   25.1790   23.4260 C   0  0  0  0  0  0  0  0  0  0  0  0
   -1.8080   26.0070   23.0940 C   0  0  0  0  0  0  0  0  0  0  0  0
   -1.7640   31.1470   22.4920 C   0  0  0  0  0  0  0  0  0  0  0  0
   -0.6170   30.2850   23.0530 C   0  0  0  0  0  0  0  0  0  0  0  0
   -1.4610   32.6250   22.8050 C   0  0  0  0  0  0  0  0  0  0  0  0
   -3.0610   30.7660   23.2390 C   0  0  0  0  0  0  0  0  0  0  0  0
   -6.1760   32.3910   19.2110 C   0  0  0  0  0  0  0  0  0  0  0  0
   -5.4390   33.7340   19.0200 C   0  0  0  0  0  0  0  0  0  0  0  0
   -6.7470   32.3500   20.6400 C   0  0  0  0  0  0  0  0  0  0  0  0
   -7.3540   32.3640   18.2120 C   0  0  0  0  0  0  0  0  0  0  0  0
   -5.9038   27.8072   20.8053 H   0  0  0  0  0  0  0  0  0  0  0  0
   -7.0407   27.3153   19.5045 H   0  0  0  0  0  0  0  0  0  0  0  0
   -5.3542   26.6970   19.5045 H   0  0  0  0  0  0  0  0  0  0  0  0
   -5.9250   29.9750   20.5340 H   0  0  0  0  0  0  0  0  0  0  0  0
   -5.2506   31.0749   17.8200 H   0  0  0  0  0  0  0  0  0  0  0  0
   -3.9720   30.3140   20.9280 H   0  0  0  0  0  0  0  0  0  0  0  0
   -1.3488   31.7320   20.5167 H   0  0  0  0  0  0  0  0  0  0  0  0
    0.0456   31.2067   18.7653 H   0  0  0  0  0  0  0  0  0  0  0  0
    0.9286   30.9327   20.2678 H   0  0  0  0  0  0  0  0  0  0  0  0
    2.4478   29.3951   19.2222 H   0  0  0  0  0  0  0  0  0  0  0  0
    1.8150   31.4050   17.6540 H   0  0  0  0  0  0  0  0  0  0  0  0
    0.3212   28.8869   17.0229 H   0  0  0  0  0  0  0  0  0  0  0  0
    1.4895   27.7245   17.6120 H   0  0  0  0  0  0  0  0  0  0  0  0
   -1.0692   27.6946   18.6139 H   0  0  0  0  0  0  0  0  0  0  0  0
   -0.4400   28.0570   21.5540 H   0  0  0  0  0  0  0  0  0  0  0  0
    1.4030   25.7477   21.9463 H   0  0  0  0  0  0  0  0  0  0  0  0
    0.8591   26.9008   23.2207 H   0  0  0  0  0  0  0  0  0  0  0  0
    0.4515   23.6226   22.1668 H   0  0  0  0  0  0  0  0  0  0  0  0
   -1.4697   22.1511   22.7487 H   0  0  0  0  0  0  0  0  0  0  0  0
   -5.7983   20.3997   25.1569 H   0  0  0  0  0  0  0  0  0  0  0  0
   -6.2831   24.5275   22.4495 H   0  0  0  0  0  0  0  0  0  0  0  0
   -4.9086   24.0732   21.3859 H   0  0  0  0  0  0  0  0  0  0  0  0
   -6.4089   23.0854   21.3859 H   0  0  0  0  0  0  0  0  0  0  0  0
   -3.8233   25.6235   23.7841 H   0  0  0  0  0  0  0  0  0  0  0  0
   -1.9076   27.0976   23.1969 H   0  0  0  0  0  0  0  0  0  0  0  0
   -0.6459   30.3067   24.1524 H   0  0  0  0  0  0  0  0  0  0  0  0
   -0.7326   29.2484   22.7036 H   0  0  0  0  0  0  0  0  0  0  0  0
    0.3465   30.6844   22.7036 H   0  0  0  0  0  0  0  0  0  0  0  0
   -1.4312   32.7703   23.8950 H   0  0  0  0  0  0  0  0  0  0  0  0
   -0.4879   32.8995   22.3717 H   0  0  0  0  0  0  0  0  0  0  0  0
   -2.2476   33.2603   22.3717 H   0  0  0  0  0  0  0  0  0  0  0  0
   -2.8876   30.8169   24.3241 H   0  0  0  0  0  0  0  0  0  0  0  0
   -3.8627   31.4666   22.9625 H   0  0  0  0  0  0  0  0  0  0  0  0
   -3.3564   29.7431   22.9625 H   0  0  0  0  0  0  0  0  0  0  0  0
   -5.2022   34.1655   20.0038 H   0  0  0  0  0  0  0  0  0  0  0  0
   -4.5074   33.5646   18.4601 H   0  0  0  0  0  0  0  0  0  0  0  0
   -6.0822   34.4288   18.4601 H   0  0  0  0  0  0  0  0  0  0  0  0
   -5.9228   32.4092   21.3660 H   0  0  0  0  0  0  0  0  0  0  0  0
   -7.4275   33.2016   20.7875 H   0  0  0  0  0  0  0  0  0  0  0  0
   -7.2988   31.4099   20.7875 H   0  0  0  0  0  0  0  0  0  0  0  0
   -8.3041   32.3422   18.7659 H   0  0  0  0  0  0  0  0  0  0  0  0
   -7.3189   33.2632   17.5794 H   0  0  0  0  0  0  0  0  0  0  0  0
   -7.2778   31.4674   17.5794 H   0  0  0  0  0  0  0  0  0  0  0  0
  1  2  1  0
  2  3  2  0
  2  4  1  0
  4  5  1  0
  5  6  1  0
  6  7  2  0
  6  8  1  0
  8  9  1  0
  9 10  1  0
 10 11  2  0
 10 12  1  0
 12 13  1  0
 13 14  1  0
 14 15  1  0
 14 16  1  0
 16 17  1  0
 17 18  1  0
 18 19  2  0
 18 20  1  0
 20 21  1  0
 21 22  1  0
 22 23  2  0
 23 24  1  0
 24 25  2  0
 25 26  1  0
 26 27  1  0
 27 28  1  0
 28 29  2  0
 29 30  1  0
 30 31  1  0
 25 32  1  0
 32 33  2  0
  9 34  1  0
 34 35  1  0
 34 36  1  0
 34 37  1  0
  5 38  1  0
 38 39  1  0
 38 40  1  0
 38 41  1  0
 17 12  1  0
 33 22  1  0
 30 26  2  0
  1 42  1  0
  1 43  1  0
  1 44  1  0
  4 45  1  0
  5 46  1  6
  8 47  1  0
  9 48  1  6
 13 49  1  0
 13 50  1  0
 14 51  1  1
 15 52  1  0
 16 53  1  0
 16 54  1  0
 17 55  1  6
 20 56  1  0
 21 57  1  0
 21 58  1  0
 23 59  1  0
 24 60  1  0
 28 61  1  0
 31 62  1  0
 31 63  1  0
 31 64  1  0
 32 65  1  0
 33 66  1  0
 35 67  1  0
 35 68  1  0
 35 69  1  0
 36 70  1  0
 36 71  1  0
 36 72  1  0
 37 73  1  0
 37 74  1  0
 37 75  1  0
 39 76  1  0
 39 77  1  0
 39 78  1  0
 40 79  1  0
 40 80  1  0
 40 81  1  0
 41 82  1  0
 41 83  1  0
 41 84  1  0
M  END
>  <meeko>  (3) 
{"is_sidechain": [false], "free_energy": -5.975, "intermolecular_energy": -9.88, "internal_energy": -2.06}

$$$$
4w9l_ligand
     RDKit          3D

 84 86  0  0  0  0  0  0  0  0999 V2000
   -2.7470   34.8190   19.7290 C   0  0  0  0  0  0  0  0  0  0  0  0
   -2.4980   34.1820   18.3890 C   0  0  0  0  0  0  0  0  0  0  0  0
   -3.1760   33.2490   17.9740 O   0  0  0  0  0  0  0  0  0  0  0  0
   -1.4490   34.7310   17.6850 N   0  0  0  0  0  0  0  0  0  0  0  0
   -1.0400   34.1840   16.3790 C   0  0  2  0  0  0  0  0  0  0  0  0
   -0.0360   33.0200   16.6050 C   0  0  0  0  0  0  0  0  0  0  0  0
    0.2290   32.1910   15.7380 O   0  0  0  0  0  0  0  0  0  0  0  0
    0.6340   33.0690   17.8160 N   0  0  0  0  0  0  0  0  0  0  0  0
    1.3260   31.8790   18.3190 C   0  0  2  0  0  0  0  0  0  0  0  0
    0.5370   31.5180   19.6030 C   0  0  0  0  0  0  0  0  0  0  0  0
    0.0320   32.4120   20.2940 O   0  0  0  0  0  0  0  0  0  0  0  0
    0.3950   30.1930   19.9370 N   0  0  0  0  0  0  0  0  0  0  0  0
    1.3210   29.3650   20.6900 C   0  0  0  0  0  0  0  0  0  0  0  0
    0.6500   27.9910   20.7670 C   0  0  2  0  0  0  0  0  0  0  0  0
    1.5760   26.9190   20.7830 O   0  0  0  0  0  0  0  0  0  0  0  0
   -0.1790   27.9490   19.4840 C   0  0  0  0  0  0  0  0  0  0  0  0
   -0.6690   29.3890   19.3470 C   0  0  1  0  0  0  0  0  0  0  0  0
   -1.9940   29.5710   20.1130 C   0  0  0  0  0  0  0  0  0  0  0  0
   -2.0440   29.8680   21.3060 O   0  0  0  0  0  0  0  0  0  0  0  0
   -3.1150   29.2900   19.3600 N   0  0  0  0  0  0  0  0  0  0  0  0
   -4.4350   29.2460   19.9440 C   0  0  0  0  0  0  0  0  0  0  0  0
   -5.1530   30.5530   19.7200 C   0  0  0  0  0  0  0  0  0  0  0  0
   -5.2140   31.5210   20.7300 C   0  0  0  0  0  0  0  0  0  0  0  0
   -5.8540   32.7430   20.5020 C   0  0  0  0  0  0  0  0  0  0  0  0
   -6.4350   33.0230   19.2590 C   0  0  0  0  0  0  0  0  0  0  0  0
   -7.1100   34.3010   19.0360 C   0  0  0  0  0  0  0  0  0  0  0  0
   -6.1890   35.7350   18.8060 S   0  0  0  0  0  0  0  0  0  0  0  0
   -7.6390   36.6310   18.6710 C   0  0  0  0  0  0  0  0  0  0  0  0
   -8.7560   35.9480   18.7810 N   0  0  0  0  0  0  0  0  0  0  0  0
   -8.4630   34.6060   18.9880 C   0  0  0  0  0  0  0  0  0  0  0  0
   -9.6000   33.6570   19.1260 C   0  0  0  0  0  0  0  0  0  0  0  0
   -6.3680   32.0580   18.2480 C   0  0  0  0  0  0  0  0  0  0  0  0
   -5.7310   30.8350   18.4740 C   0  0  0  0  0  0  0  0  0  0  0  0
    2.8420   32.1440   18.5730 C   0  0  0  0  0  0  0  0  0  0  0  0
    3.1400   32.6250   20.0060 C   0  0  0  0  0  0  0  0  0  0  0  0
    3.6600   30.8650   18.3090 C   0  0  0  0  0  0  0  0  0  0  0  0
    3.3360   33.2270   17.5900 C   0  0  0  0  0  0  0  0  0  0  0  0
   -0.4950   35.2910   15.4230 C   0  0  0  0  0  0  0  0  0  0  0  0
   -0.7280   34.8850   13.9520 C   0  0  0  0  0  0  0  0  0  0  0  0
    1.0080   35.5620   15.6190 C   0  0  0  0  0  0  0  0  0  0  0  0
   -1.2660   36.6080   15.6650 C   0  0  0  0  0  0  0  0  0  0  0  0
   -2.4714   34.1139   20.5271 H   0  0  0  0  0  0  0  0  0  0  0  0
   -2.1393   35.7314   19.8199 H   0  0  0  0  0  0  0  0  0  0  0  0
   -3.8123   35.0774   19.8199 H   0  0  0  0  0  0  0  0  0  0  0  0
   -0.8870   35.4520   18.1150 H   0  0  0  0  0  0  0  0  0  0  0  0
   -1.9225   33.7769   15.8637 H   0  0  0  0  0  0  0  0  0  0  0  0
    0.1310   33.5790   18.5350 H   0  0  0  0  0  0  0  0  0  0  0  0
    1.3364   31.0473   17.5991 H   0  0  0  0  0  0  0  0  0  0  0  0
    2.2878   29.2947   20.1700 H   0  0  0  0  0  0  0  0  0  0  0  0
    1.5297   29.7798   21.6872 H   0  0  0  0  0  0  0  0  0  0  0  0
    0.0702   27.8715   21.6941 H   0  0  0  0  0  0  0  0  0  0  0  0
    1.4540   26.4330   21.6160 H   0  0  0  0  0  0  0  0  0  0  0  0
    0.4398   27.6579   18.6224 H   0  0  0  0  0  0  0  0  0  0  0  0
   -0.9962   27.2135   19.5188 H   0  0  0  0  0  0  0  0  0  0  0  0
   -0.8697   29.6766   18.3044 H   0  0  0  0  0  0  0  0  0  0  0  0
   -3.0030   28.9260   18.4240 H   0  0  0  0  0  0  0  0  0  0  0  0
   -5.0103   28.4321   19.4786 H   0  0  0  0  0  0  0  0  0  0  0  0
   -4.3407   29.0717   21.0260 H   0  0  0  0  0  0  0  0  0  0  0  0
   -4.7554   31.3187   21.7092 H   0  0  0  0  0  0  0  0  0  0  0  0
   -5.9016   33.4915   21.3066 H   0  0  0  0  0  0  0  0  0  0  0  0
   -7.6368   37.7179   18.5016 H   0  0  0  0  0  0  0  0  0  0  0  0
   -9.8064   33.4847   20.1926 H   0  0  0  0  0  0  0  0  0  0  0  0
  -10.4927   34.0818   18.6437 H   0  0  0  0  0  0  0  0  0  0  0  0
   -9.3417   32.7027   18.6437 H   0  0  0  0  0  0  0  0  0  0  0  0
   -6.8207   32.2639   17.2668 H   0  0  0  0  0  0  0  0  0  0  0  0
   -5.6826   30.0877   17.6682 H   0  0  0  0  0  0  0  0  0  0  0  0
    2.7029   31.9195   20.7279 H   0  0  0  0  0  0  0  0  0  0  0  0
    4.2284   32.6765   20.1566 H   0  0  0  0  0  0  0  0  0  0  0  0
    2.7014   33.6225   20.1566 H   0  0  0  0  0  0  0  0  0  0  0  0
    3.9504   30.4110   19.2679 H   0  0  0  0  0  0  0  0  0  0  0  0
    3.0501   30.1516   17.7353 H   0  0  0  0  0  0  0  0  0  0  0  0
    4.5634   31.1194   17.7353 H   0  0  0  0  0  0  0  0  0  0  0  0
    3.7274   34.0850   18.1562 H   0  0  0  0  0  0  0  0  0  0  0  0
    4.1335   32.8111   16.9567 H   0  0  0  0  0  0  0  0  0  0  0  0
    2.4992   33.5566   16.9567 H   0  0  0  0  0  0  0  0  0  0  0  0
   -1.2752   33.9314   13.9171 H   0  0  0  0  0  0  0  0  0  0  0  0
   -1.3164   35.6642   13.4454 H   0  0  0  0  0  0  0  0  0  0  0  0
    0.2416   34.7701   13.4454 H   0  0  0  0  0  0  0  0  0  0  0  0
    1.2360   35.6031   16.6943 H   0  0  0  0  0  0  0  0  0  0  0  0
    1.5902   34.7544   15.1513 H   0  0  0  0  0  0  0  0  0  0  0  0
    1.2715   36.5221   15.1513 H   0  0  0  0  0  0  0  0  0  0  0  0
   -1.3669   36.7804   16.7467 H   0  0  0  0  0  0  0  0  0  0  0  0
   -0.7149   37.4444   15.2103 H   0  0  0  0  0  0  0  0  0  0  0  0
   -2.2651   36.5369   15.2103 H   0  0  0  0  0  0  0  0  0  0  0  0
  1  2  1  0
  2  3  2  0
  2  4  1  0
  4  5  1  0
  5  6  1  0
  6  7  2  0
  6  8  1  0
  8  9  1  0
  9 10  1  0
 10 11  2  0
 10 12  1  0
 12 13  1  0
 13 14  1  0
 14 15  1  0
 14 16  1  0
 16 17  1  0
 17 18  1  0
 18 19  2  0
 18 20  1  0
 20 21  1  0
 21 22  1  0
 22 23  2  0
 23 24  1  0
 24 25  2  0
 25 26  1  0
 26 27  1  0
 27 28  1  0
 28 29  2  0
 29 30  1  0
 30 31  1  0
 25 32  1  0
 32 33  2  0
  9 34  1  0
 34 35  1  0
 34 36  1  0
 34 37  1  0
  5 38  1  0
 38 39  1  0
 38 40  1  0
 38 41  1  0
 17 12  1  0
 33 22  1  0
 30 26  2  0
  1 42  1  0
  1 43  1  0
  1 44  1  0
  4 45  1  0
  5 46  1  6
  8 47  1  0
  9 48  1  6
 13 49  1  0
 13 50  1  0
 14 51  1  1
 15 52  1  0
 16 53  1  0
 16 54  1  0
 17 55  1  6
 20 56  1  0
 21 57  1  0
 21 58  1  0
 23 59  1  0
 24 60  1  0
 28 61  1  0
 31 62  1  0
 31 63  1  0
 31 64  1  0
 32 65  1  0
 33 66  1  0
 35 67  1  0
 35 68  1  0
 35 69  1  0
 36 70  1  0
 36 71  1  0
 36 72  1  0
 37 73  1  0
 37 74  1  0
 37 75  1  0
 39 76  1  0
 39 77  1  0
 39 78  1  0
 40 79  1  0
 40 80  1  0
 40 81  1  0
 41 82  1  0
 41 83  1  0
 41 84  1  0
M  END
>  <meeko>  (4) 
{"is_sidechain": [false], "free_energy": -5.868, "intermolecular_energy": -8.974, "internal_energy": -2.787}

$$$$
4w9l_ligand
     RDKit          3D

 84 86  0  0  0  0  0  0  0  0999 V2000
   -0.7150   35.2620   13.3250 C   0  0  0  0  0  0  0  0  0  0  0  0
   -0.1150   35.2260   14.7040 C   0  0  0  0  0  0  0  0  0  0  0  0
    0.9030   35.8460   14.9890 O   0  0  0  0  0  0  0  0  0  0  0  0
   -0.8010   34.4380   15.6020 N   0  0  0  0  0  0  0  0  0  0  0  0
   -0.3110   34.2510   16.9800 C   0  0  2  0  0  0  0  0  0  0  0  0
    0.4860   32.9210   17.0620 C   0  0  0  0  0  0  0  0  0  0  0  0
    0.4090   32.0440   16.2050 O   0  0  0  0  0  0  0  0  0  0  0  0
    1.3890   32.8590   18.1090 N   0  0  0  0  0  0  0  0  0  0  0  0
    1.9400   31.5660   18.5270 C   0  0  2  0  0  0  0  0  0  0  0  0
    1.0750   31.1830   19.7540 C   0  0  0  0  0  0  0  0  0  0  0  0
    0.6340   32.0650   20.5020 O   0  0  0  0  0  0  0  0  0  0  0  0
    0.7940   29.8570   19.9730 N   0  0  0  0  0  0  0  0  0  0  0  0
    1.6270   28.8740   20.6440 C   0  0  0  0  0  0  0  0  0  0  0  0
    0.8160   27.5760   20.6070 C   0  0  2  0  0  0  0  0  0  0  0  0
    1.6240   26.4160   20.5220 O   0  0  0  0  0  0  0  0  0  0  0  0
   -0.0120   27.7330   19.3320 C   0  0  0  0  0  0  0  0  0  0  0  0
   -0.3480   29.2220   19.3240 C   0  0  1  0  0  0  0  0  0  0  0  0
   -1.6470   29.4750   20.1150 C   0  0  0  0  0  0  0  0  0  0  0  0
   -1.6580   29.8210   21.2950 O   0  0  0  0  0  0  0  0  0  0  0  0
   -2.7950   29.1970   19.4010 N   0  0  0  0  0  0  0  0  0  0  0  0
   -4.1000   29.2160   20.0180 C   0  0  0  0  0  0  0  0  0  0  0  0
   -4.7940   30.5260   19.7400 C   0  0  0  0  0  0  0  0  0  0  0  0
   -5.2580   30.8340   18.4550 C   0  0  0  0  0  0  0  0  0  0  0  0
   -5.9280   32.0370   18.2140 C   0  0  0  0  0  0  0  0  0  0  0  0
   -6.1550   32.9480   19.2520 C   0  0  0  0  0  0  0  0  0  0  0  0
   -6.8490   34.2070   18.9860 C   0  0  0  0  0  0  0  0  0  0  0  0
   -5.9650   35.6800   18.9000 S   0  0  0  0  0  0  0  0  0  0  0  0
   -7.4250   36.5260   18.6220 C   0  0  0  0  0  0  0  0  0  0  0  0
   -8.5180   35.8010   18.5870 N   0  0  0  0  0  0  0  0  0  0  0  0
   -8.1990   34.4650   18.7910 C   0  0  0  0  0  0  0  0  0  0  0  0
   -9.3060   33.4720   18.7740 C   0  0  0  0  0  0  0  0  0  0  0  0
   -5.6960   32.6370   20.5380 C   0  0  0  0  0  0  0  0  0  0  0  0
   -5.0250   31.4360   20.7800 C   0  0  0  0  0  0  0  0  0  0  0  0
    3.4660   31.6500   18.8410 C   0  0  0  0  0  0  0  0  0  0  0  0
    3.7610   31.9700   20.3200 C   0  0  0  0  0  0  0  0  0  0  0  0
    4.1610   30.3230   18.4820 C   0  0  0  0  0  0  0  0  0  0  0  0
    4.0980   32.7610   17.9750 C   0  0  0  0  0  0  0  0  0  0  0  0
   -1.4620   34.3460   18.0300 C   0  0  0  0  0  0  0  0  0  0  0  0
   -0.9330   34.9590   19.3440 C   0  0  0  0  0  0  0  0  0  0  0  0
   -2.0910   32.9790   18.3510 C   0  0  0  0  0  0  0  0  0  0  0  0
   -2.5700   35.2830   17.4980 C   0  0  0  0  0  0  0  0  0  0  0  0
   -1.8102   35.3277   13.4033 H   0  0  0  0  0  0  0  0  0  0  0  0
   -0.3330   36.1388   12.7817 H   0  0  0  0  0  0  0  0  0  0  0  0
   -0.4405   34.3458   12.7817 H   0  0  0  0  0  0  0  0  0  0  0  0
   -1.5930   33.8980   15.2840 H   0  0  0  0  0  0  0  0  0  0  0  0
    0.3730   35.0732   17.2370 H   0  0  0  0  0  0  0  0  0  0  0  0
    1.1480   33.4650   18.8860 H   0  0  0  0  0  0  0  0  0  0  0  0
    1.8911   30.8000   17.7391 H   0  0  0  0  0  0  0  0  0  0  0  0
    2.5817   28.7487   20.1122 H   0  0  0  0  0  0  0  0  0  0  0  0
    1.8764   29.1763   21.6718 H   0  0  0  0  0  0  0  0  0  0  0  0
    0.2265   27.4372   21.5253 H   0  0  0  0  0  0  0  0  0  0  0  0
    1.1460   25.6880   20.9560 H   0  0  0  0  0  0  0  0  0  0  0  0
    0.5735   27.4547   18.4433 H   0  0  0  0  0  0  0  0  0  0  0  0
   -0.9020   27.0870   19.3100 H   0  0  0  0  0  0  0  0  0  0  0  0
   -0.5166   29.6174   18.3115 H   0  0  0  0  0  0  0  0  0  0  0  0
   -2.7170   28.7920   18.4780 H   0  0  0  0  0  0  0  0  0  0  0  0
   -4.7050   28.3920   19.6118 H   0  0  0  0  0  0  0  0  0  0  0  0
   -3.9824   29.0982   21.1053 H   0  0  0  0  0  0  0  0  0  0  0  0
   -5.0942   30.1249   17.6302 H   0  0  0  0  0  0  0  0  0  0  0  0
   -6.2804   32.2700   17.1983 H   0  0  0  0  0  0  0  0  0  0  0  0
   -7.4465   37.6166   18.4805 H   0  0  0  0  0  0  0  0  0  0  0  0
   -9.5877   33.2193   19.8068 H   0  0  0  0  0  0  0  0  0  0  0  0
  -10.1742   33.8997   18.2513 H   0  0  0  0  0  0  0  0  0  0  0  0
   -8.9748   32.5626   18.2513 H   0  0  0  0  0  0  0  0  0  0  0  0
   -5.8651   33.3438   21.3637 H   0  0  0  0  0  0  0  0  0  0  0  0
   -4.6748   31.2026   21.7963 H   0  0  0  0  0  0  0  0  0  0  0  0
    3.1568   31.3146   20.9645 H   0  0  0  0  0  0  0  0  0  0  0  0
    4.8287   31.8031   20.5254 H   0  0  0  0  0  0  0  0  0  0  0  0
    3.5080   33.0206   20.5254 H   0  0  0  0  0  0  0  0  0  0  0  0
    4.4386   29.7930   19.4051 H   0  0  0  0  0  0  0  0  0  0  0  0
    3.4747   29.6975   17.8923 H   0  0  0  0  0  0  0  0  0  0  0  0
    5.0660   30.5309   17.8923 H   0  0  0  0  0  0  0  0  0  0  0  0
    4.5357   33.5305   18.6279 H   0  0  0  0  0  0  0  0  0  0  0  0
    4.8850   32.3280   17.3400 H   0  0  0  0  0  0  0  0  0  0  0  0
    3.3236   33.2161   17.3400 H   0  0  0  0  0  0  0  0  0  0  0  0
   -1.3842   34.4362   20.2002 H   0  0  0  0  0  0  0  0  0  0  0  0
    0.1611   34.8521   19.3841 H   0  0  0  0  0  0  0  0  0  0  0  0
   -1.1989   36.0256   19.3841 H   0  0  0  0  0  0  0  0  0  0  0  0
   -2.1505   32.8498   19.4418 H   0  0  0  0  0  0  0  0  0  0  0  0
   -3.1020   32.9304   17.9204 H   0  0  0  0  0  0  0  0  0  0  0  0
   -1.4702   32.1795   17.9204 H   0  0  0  0  0  0  0  0  0  0  0  0
   -3.1054   35.7358   18.3455 H   0  0  0  0  0  0  0  0  0  0  0  0
   -2.1166   36.0758   16.8849 H   0  0  0  0  0  0  0  0  0  0  0  0
   -3.2765   34.7042   16.8849 H   0  0  0  0  0  0  0  0  0  0  0  0
  1  2  1  0
  2  3  2  0
  2  4  1  0
  4  5  1  0
  5  6  1  0
  6  7  2  0
  6  8  1  0
  8  9  1  0
  9 10  1  0
 10 11  2  0
 10 12  1  0
 12 13  1  0
 13 14  1  0
 14 15  1  0
 14 16  1  0
 16 17  1  0
 17 18  1  0
 18 19  2  0
 18 20  1  0
 20 21  1  0
 21 22  1  0
 22 23  2  0
 23 24  1  0
 24 25  2  0
 25 26  1  0
 26 27  1  0
 27 28  1  0
 28 29  2  0
 29 30  1  0
 30 31  1  0
 25 32  1  0
 32 33  2  0
  9 34  1  0
 34 35  1  0
 34 36  1  0
 34 37  1  0
  5 38  1  0
 38 39  1  0
 38 40  1  0
 38 41  1  0
 17 12  1  0
 33 22  1  0
 30 26  2  0
  1 42  1  0
  1 43  1  0
  1 44  1  0
  4 45  1  0
  5 46  1  1
  8 47  1  0
  9 48  1  6
 13 49  1  0
 13 50  1  0
 14 51  1  1
 15 52  1  0
 16 53  1  0
 16 54  1  0
 17 55  1  6
 20 56  1  0
 21 57  1  0
 21 58  1  0
 23 59  1  0
 24 60  1  0
 28 61  1  0
 31 62  1  0
 31 63  1  0
 31 64  1  0
 32 65  1  0
 33 66  1  0
 35 67  1  0
 35 68  1  0
 35 69  1  0
 36 70  1  0
 36 71  1  0
 36 72  1  0
 37 73  1  0
 37 74  1  0
 37 75  1  0
 39 76  1  0
 39 77  1  0
 39 78  1  0
 40 79  1  0
 40 80  1  0
 40 81  1  0
 41 82  1  0
 41 83  1  0
 41 84  1  0
M  END
>  <meeko>  (5) 
{"is_sidechain": [false], "free_energy": -5.805, "intermolecular_energy": -8.764, "internal_energy": -2.892}

$$$$
4w9l_ligand
     RDKit          3D

 84 86  0  0  0  0  0  0  0  0999 V2000
   -0.5300   26.4600   27.1260 C   0  0  0  0  0  0  0  0  0  0  0  0
   -0.2340   26.7640   25.6820 C   0  0  0  0  0  0  0  0  0  0  0  0
   -0.0310   27.9050   25.2850 O   0  0  0  0  0  0  0  0  0  0  0  0
   -0.2220   25.6590   24.8600 N   0  0  0  0  0  0  0  0  0  0  0  0
   -0.0040   25.7930   23.4080 C   0  0  2  0  0  0  0  0  0  0  0  0
   -1.3790   25.8730   22.6910 C   0  0  0  0  0  0  0  0  0  0  0  0
   -1.5660   26.5490   21.6820 O   0  0  0  0  0  0  0  0  0  0  0  0
   -2.3420   25.0200   23.2030 N   0  0  0  0  0  0  0  0  0  0  0  0
   -3.7560   25.2330   22.8800 C   0  0  2  0  0  0  0  0  0  0  0  0
   -4.2150   26.2750   23.9320 C   0  0  0  0  0  0  0  0  0  0  0  0
   -3.7340   26.2580   25.0730 O   0  0  0  0  0  0  0  0  0  0  0  0
   -5.1400   27.2190   23.5630 N   0  0  0  0  0  0  0  0  0  0  0  0
   -6.0880   27.9130   24.4180 C   0  0  0  0  0  0  0  0  0  0  0  0
   -6.8540   28.8500   23.4810 C   0  0  2  0  0  0  0  0  0  0  0  0
   -8.1980   29.0580   23.8780 O   0  0  0  0  0  0  0  0  0  0  0  0
   -6.8100   28.1030   22.1480 C   0  0  0  0  0  0  0  0  0  0  0  0
   -5.4180   27.4760   22.1540 C   0  0  1  0  0  0  0  0  0  0  0  0
   -4.3930   28.4600   21.5560 C   0  0  0  0  0  0  0  0  0  0  0  0
   -3.6180   29.1230   22.2440 O   0  0  0  0  0  0  0  0  0  0  0  0
   -4.4830   28.5920   20.1860 N   0  0  0  0  0  0  0  0  0  0  0  0
   -3.7210   29.5820   19.4620 C   0  0  0  0  0  0  0  0  0  0  0  0
   -4.5250   30.8470   19.2970 C   0  0  0  0  0  0  0  0  0  0  0  0
   -5.6030   30.9020   18.4040 C   0  0  0  0  0  0  0  0  0  0  0  0
   -6.3620   32.0700   18.2830 C   0  0  0  0  0  0  0  0  0  0  0  0
   -6.0650   33.1990   19.0560 C   0  0  0  0  0  0  0  0  0  0  0  0
   -6.8610   34.4170   18.9130 C   0  0  0  0  0  0  0  0  0  0  0  0
   -6.0830   35.9380   18.7110 S   0  0  0  0  0  0  0  0  0  0  0  0
   -7.6130   36.7000   18.6690 C   0  0  0  0  0  0  0  0  0  0  0  0
   -8.6570   35.9150   18.7910 N   0  0  0  0  0  0  0  0  0  0  0  0
   -8.2370   34.5980   18.9290 C   0  0  0  0  0  0  0  0  0  0  0  0
   -9.2770   33.5440   19.0690 C   0  0  0  0  0  0  0  0  0  0  0  0
   -4.9920   33.1400   19.9530 C   0  0  0  0  0  0  0  0  0  0  0  0
   -4.2300   31.9750   20.0750 C   0  0  0  0  0  0  0  0  0  0  0  0
   -4.5750   23.9060   22.9180 C   0  0  0  0  0  0  0  0  0  0  0  0
   -5.4160   23.7520   24.2000 C   0  0  0  0  0  0  0  0  0  0  0  0
   -5.5190   23.8250   21.7030 C   0  0  0  0  0  0  0  0  0  0  0  0
   -3.6010   22.7110   22.8360 C   0  0  0  0  0  0  0  0  0  0  0  0
    0.9200   24.6660   22.8470 C   0  0  0  0  0  0  0  0  0  0  0  0
    2.4030   25.0480   23.0430 C   0  0  0  0  0  0  0  0  0  0  0  0
    0.6840   24.3930   21.3510 C   0  0  0  0  0  0  0  0  0  0  0  0
    0.6730   23.3570   23.6300 C   0  0  0  0  0  0  0  0  0  0  0  0
    0.0920   27.0988   27.7702 H   0  0  0  0  0  0  0  0  0  0  0  0
   -1.5927   26.6560   27.3316 H   0  0  0  0  0  0  0  0  0  0  0  0
   -0.3057   25.4029   27.3316 H   0  0  0  0  0  0  0  0  0  0  0  0
   -0.4670   24.7550   25.2390 H   0  0  0  0  0  0  0  0  0  0  0  0
    0.5388   26.7283   23.2067 H   0  0  0  0  0  0  0  0  0  0  0  0
   -2.1830   24.7670   24.1720 H   0  0  0  0  0  0  0  0  0  0  0  0
   -3.9155   25.5932   21.8530 H   0  0  0  0  0  0  0  0  0  0  0  0
   -6.7740   27.1976   24.8951 H   0  0  0  0  0  0  0  0  0  0  0  0
   -5.5879   28.4598   25.2310 H   0  0  0  0  0  0  0  0  0  0  0  0
   -6.4114   29.8568   23.4595 H   0  0  0  0  0  0  0  0  0  0  0  0
   -8.5650   28.1970   24.1450 H   0  0  0  0  0  0  0  0  0  0  0  0
   -7.5917   27.3305   22.1013 H   0  0  0  0  0  0  0  0  0  0  0  0
   -6.9896   28.7536   21.2794 H   0  0  0  0  0  0  0  0  0  0  0  0
   -5.3588   26.5582   21.5505 H   0  0  0  0  0  0  0  0  0  0  0  0
   -5.2270   28.1190   19.6910 H   0  0  0  0  0  0  0  0  0  0  0  0
   -2.7995   29.8082   20.0184 H   0  0  0  0  0  0  0  0  0  0  0  0
   -3.4736   29.1841   18.4668 H   0  0  0  0  0  0  0  0  0  0  0  0
   -5.8537   30.0213   17.7945 H   0  0  0  0  0  0  0  0  0  0  0  0
   -7.2015   32.1023   17.5729 H   0  0  0  0  0  0  0  0  0  0  0  0
   -7.7163   37.7883   18.5465 H   0  0  0  0  0  0  0  0  0  0  0  0
   -9.4648   33.3536   20.1360 H   0  0  0  0  0  0  0  0  0  0  0  0
  -10.2070   33.8802   18.5873 H   0  0  0  0  0  0  0  0  0  0  0  0
   -8.9284   32.6186   18.5873 H   0  0  0  0  0  0  0  0  0  0  0  0
   -4.7464   34.0187   20.5675 H   0  0  0  0  0  0  0  0  0  0  0  0
   -3.3922   31.9429   20.7871 H   0  0  0  0  0  0  0  0  0  0  0  0
   -4.7674   23.8708   25.0805 H   0  0  0  0  0  0  0  0  0  0  0  0
   -6.2022   24.5211   24.2173 H   0  0  0  0  0  0  0  0  0  0  0  0
   -5.8787   22.7542   24.2173 H   0  0  0  0  0  0  0  0  0  0  0  0
   -6.5585   23.7358   22.0516 H   0  0  0  0  0  0  0  0  0  0  0  0
   -5.4130   24.7355   21.0950 H   0  0  0  0  0  0  0  0  0  0  0  0
   -5.2595   22.9458   21.0950 H   0  0  0  0  0  0  0  0  0  0  0  0
   -3.3349   22.3845   23.8522 H   0  0  0  0  0  0  0  0  0  0  0  0
   -4.0833   21.8811   22.2987 H   0  0  0  0  0  0  0  0  0  0  0  0
   -2.6909   23.0160   22.2987 H   0  0  0  0  0  0  0  0  0  0  0  0
    2.6277   25.1059   24.1182 H   0  0  0  0  0  0  0  0  0  0  0  0
    3.0430   24.2854   22.5752 H   0  0  0  0  0  0  0  0  0  0  0  0
    2.5949   26.0249   22.5752 H   0  0  0  0  0  0  0  0  0  0  0  0
   -0.0316   23.5653   21.2378 H   0  0  0  0  0  0  0  0  0  0  0  0
    0.2780   25.2967   20.8730 H   0  0  0  0  0  0  0  0  0  0  0  0
    1.6369   24.1219   20.8730 H   0  0  0  0  0  0  0  0  0  0  0  0
    0.7118   23.5628   24.7099 H   0  0  0  0  0  0  0  0  0  0  0  0
   -0.3169   22.9547   23.3688 H   0  0  0  0  0  0  0  0  0  0  0  0
    1.4482   22.6216   23.3688 H   0  0  0  0  0  0  0  0  0  0  0  0
  1  2  1  0
  2  3  2  0
  2  4  1  0
  4  5  1  0
  5  6  1  0
  6  7  2  0
  6  8  1  0
  8  9  1  0
  9 10  1  0
 10 11  2  0
 10 12  1  0
 12 13  1  0
 13 14  1  0
 14 15  1  0
 14 16  1  0
 16 17  1  0
 17 18  1  0
 18 19  2  0
 18 20  1  0
 20 21  1  0
 21 22  1  0
 22 23  2  0
 23 24  1  0
 24 25  2  0
 25 26  1  0
 26 27  1  0
 27 28  1  0
 28 29  2  0
 29 30  1  0
 30 31  1  0
 25 32  1  0
 32 33  2  0
  9 34  1  0
 34 35  1  0
 34 36  1  0
 34 37  1  0
  5 38  1  0
 38 39  1  0
 38 40  1  0
 38 41  1  0
 17 12  1  0
 33 22  1  0
 30 26  2  0
  1 42  1  0
  1 43  1  0
  1 44  1  0
  4 45  1  0
  5 46  1  1
  8 47  1  0
  9 48  1  6
 13 49  1  0
 13 50  1  0
 14 51  1  6
 15 52  1  0
 16 53  1  0
 16 54  1  0
 17 55  1  6
 20 56  1  0
 21 57  1  0
 21 58  1  0
 23 59  1  0
 24 60  1  0
 28 61  1  0
 31 62  1  0
 31 63  1  0
 31 64  1  0
 32 65  1  0
 33 66  1  0
 35 67  1  0
 35 68  1  0
 35 69  1  0
 36 70  1  0
 36 71  1  0
 36 72  1  0
 37 73  1  0
 37 74  1  0
 37 75  1  0
 39 76  1  0
 39 77  1  0
 39 78  1  0
 40 79  1  0
 40 80  1  0
 40 81  1  0
 41 82  1  0
 41 83  1  0
 41 84  1  0
M  END
>  <meeko>  (6) 
{"is_sidechain": [false], "free_energy": -5.73, "intermolecular_energy": -9.417, "internal_energy": -2.112}

$$$$
4w9l_ligand
     RDKit          3D

 84 86  0  0  0  0  0  0  0  0999 V2000
   -7.0130   27.3020   23.2520 C   0  0  0  0  0  0  0  0  0  0  0  0
   -5.9750   27.2200   22.1670 C   0  0  0  0  0  0  0  0  0  0  0  0
   -5.5520   26.1480   21.7490 O   0  0  0  0  0  0  0  0  0  0  0  0
   -5.5430   28.4410   21.6980 N   0  0  0  0  0  0  0  0  0  0  0  0
   -4.4860   28.5340   20.6750 C   0  0  2  0  0  0  0  0  0  0  0  0
   -3.1130   28.7210   21.3750 C   0  0  0  0  0  0  0  0  0  0  0  0
   -2.9480   29.4820   22.3260 O   0  0  0  0  0  0  0  0  0  0  0  0
   -2.1210   27.8650   20.9280 N   0  0  0  0  0  0  0  0  0  0  0  0
   -0.7150   28.1540   21.2240 C   0  0  2  0  0  0  0  0  0  0  0  0
   -0.2300   28.9210   19.9680 C   0  0  0  0  0  0  0  0  0  0  0  0
   -0.6640   28.6160   18.8490 O   0  0  0  0  0  0  0  0  0  0  0  0
    0.6650   29.9500   20.1290 N   0  0  0  0  0  0  0  0  0  0  0  0
    2.1030   29.9130   19.9260 C   0  0  0  0  0  0  0  0  0  0  0  0
    2.5830   31.3330   20.2390 C   0  0  2  0  0  0  0  0  0  0  0  0
    3.8840   31.3700   20.7970 O   0  0  0  0  0  0  0  0  0  0  0  0
    1.5580   31.8150   21.2650 C   0  0  0  0  0  0  0  0  0  0  0  0
    0.2560   31.1970   20.7640 C   0  0  1  0  0  0  0  0  0  0  0  0
   -0.4200   32.1410   19.7490 C   0  0  0  0  0  0  0  0  0  0  0  0
   -0.2860   32.0250   18.5320 O   0  0  0  0  0  0  0  0  0  0  0  0
   -1.1200   33.1760   20.3340 N   0  0  0  0  0  0  0  0  0  0  0  0
   -1.6850   34.2530   19.5550 C   0  0  0  0  0  0  0  0  0  0  0  0
   -3.1860   34.2720   19.6950 C   0  0  0  0  0  0  0  0  0  0  0  0
   -4.0020   34.6830   18.6330 C   0  0  0  0  0  0  0  0  0  0  0  0
   -5.3930   34.6670   18.7630 C   0  0  0  0  0  0  0  0  0  0  0  0
   -5.9950   34.2320   19.9490 C   0  0  0  0  0  0  0  0  0  0  0  0
   -7.4520   34.2280   20.0760 C   0  0  0  0  0  0  0  0  0  0  0  0
   -8.2100   35.0950   21.3530 S   0  0  0  0  0  0  0  0  0  0  0  0
   -9.7350   34.5560   20.7960 C   0  0  0  0  0  0  0  0  0  0  0  0
   -9.7260   33.7840   19.7350 N   0  0  0  0  0  0  0  0  0  0  0  0
   -8.4180   33.5910   19.3090 C   0  0  0  0  0  0  0  0  0  0  0  0
   -8.1930   32.7500   18.1030 C   0  0  0  0  0  0  0  0  0  0  0  0
   -5.1790   33.8150   21.0080 C   0  0  0  0  0  0  0  0  0  0  0  0
   -3.7880   33.8320   20.8820 C   0  0  0  0  0  0  0  0  0  0  0  0
    0.1030   26.8580   21.5180 C   0  0  0  0  0  0  0  0  0  0  0  0
    0.7760   26.2710   20.2620 C   0  0  0  0  0  0  0  0  0  0  0  0
    1.1950   27.1420   22.5680 C   0  0  0  0  0  0  0  0  0  0  0  0
   -0.8430   25.7880   22.1010 C   0  0  0  0  0  0  0  0  0  0  0  0
   -4.7930   29.6370   19.6130 C   0  0  0  0  0  0  0  0  0  0  0  0
   -5.2500   28.9870   18.2900 C   0  0  0  0  0  0  0  0  0  0  0  0
   -3.5780   30.5350   19.3180 C   0  0  0  0  0  0  0  0  0  0  0  0
   -5.9520   30.5280   20.1130 C   0  0  0  0  0  0  0  0  0  0  0  0
   -6.5201   27.2631   24.2346 H   0  0  0  0  0  0  0  0  0  0  0  0
   -7.5683   28.2468   23.1575 H   0  0  0  0  0  0  0  0  0  0  0  0
   -7.7098   26.4561   23.1575 H   0  0  0  0  0  0  0  0  0  0  0  0
   -5.8810   29.2870   22.1360 H   0  0  0  0  0  0  0  0  0  0  0  0
   -4.4499   27.5949   20.1033 H   0  0  0  0  0  0  0  0  0  0  0  0
   -2.2740   27.5300   19.9830 H   0  0  0  0  0  0  0  0  0  0  0  0
   -0.5791   28.7466   22.1407 H   0  0  0  0  0  0  0  0  0  0  0  0
    2.5713   29.1874   20.6074 H   0  0  0  0  0  0  0  0  0  0  0  0
    2.3687   29.6023   18.9048 H   0  0  0  0  0  0  0  0  0  0  0  0
    2.6520   31.9506   19.3313 H   0  0  0  0  0  0  0  0  0  0  0  0
    4.5110   31.0890   20.1080 H   0  0  0  0  0  0  0  0  0  0  0  0
    1.8063   31.4514   22.2730 H   0  0  0  0  0  0  0  0  0  0  0  0
    1.5131   32.9106   21.3518 H   0  0  0  0  0  0  0  0  0  0  0  0
   -0.4749   31.0270   21.5683 H   0  0  0  0  0  0  0  0  0  0  0  0
   -1.0850   33.2920   21.3380 H   0  0  0  0  0  0  0  0  0  0  0  0
   -1.2758   35.2104   19.9099 H   0  0  0  0  0  0  0  0  0  0  0  0
   -1.4274   34.1008   18.4965 H   0  0  0  0  0  0  0  0  0  0  0  0
   -3.5448   35.0203   17.6911 H   0  0  0  0  0  0  0  0  0  0  0  0
   -6.0217   34.9999   17.9240 H   0  0  0  0  0  0  0  0  0  0  0  0
  -10.6708   34.8407   21.2992 H   0  0  0  0  0  0  0  0  0  0  0  0
   -7.9202   31.7304   18.4127 H   0  0  0  0  0  0  0  0  0  0  0  0
   -9.1138   32.7167   17.5022 H   0  0  0  0  0  0  0  0  0  0  0  0
   -7.3786   33.1810   17.5022 H   0  0  0  0  0  0  0  0  0  0  0  0
   -5.6374   33.4712   21.9470 H   0  0  0  0  0  0  0  0  0  0  0  0
   -3.1600   33.4975   21.7209 H   0  0  0  0  0  0  0  0  0  0  0  0
    1.5731   25.5758   20.5641 H   0  0  0  0  0  0  0  0  0  0  0  0
    0.0273   25.7323   19.6627 H   0  0  0  0  0  0  0  0  0  0  0  0
    1.2080   27.0860   19.6627 H   0  0  0  0  0  0  0  0  0  0  0  0
    0.7710   27.0317   23.5770 H   0  0  0  0  0  0  0  0  0  0  0  0
    2.0227   26.4292   22.4382 H   0  0  0  0  0  0  0  0  0  0  0  0
    1.5706   28.1677   22.4382 H   0  0  0  0  0  0  0  0  0  0  0  0
   -0.8082   25.8273   23.1997 H   0  0  0  0  0  0  0  0  0  0  0  0
   -1.8705   25.9817   21.7595 H   0  0  0  0  0  0  0  0  0  0  0  0
   -0.5248   24.7920   21.7595 H   0  0  0  0  0  0  0  0  0  0  0  0
   -5.8699   28.1053   18.5096 H   0  0  0  0  0  0  0  0  0  0  0  0
   -5.8376   29.7128   17.7087 H   0  0  0  0  0  0  0  0  0  0  0  0
   -4.3682   28.6796   17.7087 H   0  0  0  0  0  0  0  0  0  0  0  0
   -3.1288   30.8670   20.2656 H   0  0  0  0  0  0  0  0  0  0  0  0
   -2.8347   29.9676   18.7388 H   0  0  0  0  0  0  0  0  0  0  0  0
   -3.9023   31.4121   18.7388 H   0  0  0  0  0  0  0  0  0  0  0  0
   -5.9610   30.5349   21.2129 H   0  0  0  0  0  0  0  0  0  0  0  0
   -5.8127   31.5538   19.7410 H   0  0  0  0  0  0  0  0  0  0  0  0
   -6.9075   30.1297   19.7410 H   0  0  0  0  0  0  0  0  0  0  0  0
  1  2  1  0
  2  3  2  0
  2  4  1  0
  4  5  1  0
  5  6  1  0
  6  7  2  0
  6  8  1  0
  8  9  1  0
  9 10  1  0
 10 11  2  0
 10 12  1  0
 12 13  1  0
 13 14  1  0
 14 15  1  0
 14 16  1  0
 16 17  1  0
 17 18  1  0
 18 19  2  0
 18 20  1  0
 20 21  1  0
 21 22  1  0
 22 23  2  0
 23 24  1  0
 24 25  2  0
 25 26  1  0
 26 27  1  0
 27 28  1  0
 28 29  2  0
 29 30  1  0
 30 31  1  0
 25 32  1  0
 32 33  2  0
  9 34  1  0
 34 35  1  0
 34 36  1  0
 34 37  1  0
  5 38  1  0
 38 39  1  0
 38 40  1  0
 38 41  1  0
 17 12  1  0
 33 22  1  0
 30 26  2  0
  1 42  1  0
  1 43  1  0
  1 44  1  0
  4 45  1  0
  5 46  1  6
  8 47  1  0
  9 48  1  1
 13 49  1  0
 13 50  1  0
 14 51  1  6
 15 52  1  0
 16 53  1  0
 16 54  1  0
 17 55  1  1
 20 56  1  0
 21 57  1  0
 21 58  1  0
 23 59  1  0
 24 60  1  0
 28 61  1  0
 31 62  1  0
 31 63  1  0
 31 64  1  0
 32 65  1  0
 33 66  1  0
 35 67  1  0
 35 68  1  0
 35 69  1  0
 36 70  1  0
 36 71  1  0
 36 72  1  0
 37 73  1  0
 37 74  1  0
 37 75  1  0
 39 76  1  0
 39 77  1  0
 39 78  1  0
 40 79  1  0
 40 80  1  0
 40 81  1  0
 41 82  1  0
 41 83  1  0
 41 84  1  0
M  END
>  <meeko>  (7) 
{"is_sidechain": [false], "free_energy": -5.698, "intermolecular_energy": -8.33, "internal_energy": -3.146}

$$$$
4w9l_ligand
     RDKit          3D

 84 86  0  0  0  0  0  0  0  0999 V2000
    0.7670   31.8160   16.0510 C   0  0  0  0  0  0  0  0  0  0  0  0
    1.1430   31.3420   17.4280 C   0  0  0  0  0  0  0  0  0  0  0  0
    2.2910   31.0240   17.7170 O   0  0  0  0  0  0  0  0  0  0  0  0
    0.0940   31.2920   18.3190 N   0  0  0  0  0  0  0  0  0  0  0  0
    0.2850   30.7940   19.6930 C   0  0  2  0  0  0  0  0  0  0  0  0
   -0.0800   29.2860   19.7450 C   0  0  0  0  0  0  0  0  0  0  0  0
   -0.9200   28.7780   19.0060 O   0  0  0  0  0  0  0  0  0  0  0  0
    0.7100   28.5350   20.5990 N   0  0  0  0  0  0  0  0  0  0  0  0
    0.2710   27.2020   21.0220 C   0  0  2  0  0  0  0  0  0  0  0  0
   -0.2200   27.4270   22.4750 C   0  0  0  0  0  0  0  0  0  0  0  0
    0.0240   28.4940   23.0540 O   0  0  0  0  0  0  0  0  0  0  0  0
   -0.9440   26.4330   23.0860 N   0  0  0  0  0  0  0  0  0  0  0  0
   -0.6090   25.7160   24.3050 C   0  0  0  0  0  0  0  0  0  0  0  0
   -1.7680   24.7390   24.5190 C   0  0  2  0  0  0  0  0  0  0  0  0
   -1.3700   23.5290   25.1390 O   0  0  0  0  0  0  0  0  0  0  0  0
   -2.2450   24.4650   23.0930 C   0  0  0  0  0  0  0  0  0  0  0  0
   -2.0830   25.8210   22.4120 C   0  0  1  0  0  0  0  0  0  0  0  0
   -3.3600   26.6640   22.6030 C   0  0  0  0  0  0  0  0  0  0  0  0
   -3.5550   27.3740   23.5880 O   0  0  0  0  0  0  0  0  0  0  0  0
   -4.2980   26.4840   21.6070 N   0  0  0  0  0  0  0  0  0  0  0  0
   -5.6200   27.0600   21.6910 C   0  0  0  0  0  0  0  0  0  0  0  0
   -5.6100   28.4760   21.1740 C   0  0  0  0  0  0  0  0  0  0  0  0
   -5.2880   28.7510   19.8390 C   0  0  0  0  0  0  0  0  0  0  0  0
   -5.3130   30.0640   19.3610 C   0  0  0  0  0  0  0  0  0  0  0  0
   -5.6680   31.1240   20.2040 C   0  0  0  0  0  0  0  0  0  0  0  0
   -5.6820   32.4950   19.6940 C   0  0  0  0  0  0  0  0  0  0  0  0
   -4.4470   33.6000   20.1540 S   0  0  0  0  0  0  0  0  0  0  0  0
   -5.2060   34.8170   19.2220 C   0  0  0  0  0  0  0  0  0  0  0  0
   -6.3040   34.4670   18.5940 N   0  0  0  0  0  0  0  0  0  0  0  0
   -6.5860   33.1330   18.8550 C   0  0  0  0  0  0  0  0  0  0  0  0
   -7.7920   32.5370   18.2210 C   0  0  0  0  0  0  0  0  0  0  0  0
   -5.9960   30.8480   21.5360 C   0  0  0  0  0  0  0  0  0  0  0  0
   -5.9700   29.5360   22.0170 C   0  0  0  0  0  0  0  0  0  0  0  0
    1.4090   26.1420   20.9060 C   0  0  0  0  0  0  0  0  0  0  0  0
    2.3740   26.1570   22.1080 C   0  0  0  0  0  0  0  0  0  0  0  0
    0.8130   24.7270   20.7780 C   0  0  0  0  0  0  0  0  0  0  0  0
    2.2300   26.4230   19.6290 C   0  0  0  0  0  0  0  0  0  0  0  0
   -0.4900   31.6530   20.7410 C   0  0  0  0  0  0  0  0  0  0  0  0
   -0.7870   33.0540   20.1650 C   0  0  0  0  0  0  0  0  0  0  0  0
    0.2840   31.8260   22.0600 C   0  0  0  0  0  0  0  0  0  0  0  0
   -1.8480   30.9860   21.0540 C   0  0  0  0  0  0  0  0  0  0  0  0
    0.0853   32.6754   16.1325 H   0  0  0  0  0  0  0  0  0  0  0  0
    1.6740   32.1178   15.5067 H   0  0  0  0  0  0  0  0  0  0  0  0
    0.2667   31.0015   15.5067 H   0  0  0  0  0  0  0  0  0  0  0  0
   -0.8410   31.5000   17.9970 H   0  0  0  0  0  0  0  0  0  0  0  0
    1.3439   30.8963   19.9726 H   0  0  0  0  0  0  0  0  0  0  0  0
    1.1260   29.0800   21.3470 H   0  0  0  0  0  0  0  0  0  0  0  0
   -0.5215   26.7850   20.3831 H   0  0  0  0  0  0  0  0  0  0  0  0
    0.3392   25.1713   24.1854 H   0  0  0  0  0  0  0  0  0  0  0  0
   -0.4759   26.3941   25.1608 H   0  0  0  0  0  0  0  0  0  0  0  0
   -2.5341   25.1561   25.1892 H   0  0  0  0  0  0  0  0  0  0  0  0
   -0.9120   23.7560   25.9670 H   0  0  0  0  0  0  0  0  0  0  0  0
   -1.6205   23.7010   22.6069 H   0  0  0  0  0  0  0  0  0  0  0  0
   -3.2728   24.0758   23.0463 H   0  0  0  0  0  0  0  0  0  0  0  0
   -1.9220   25.7392   21.3269 H   0  0  0  0  0  0  0  0  0  0  0  0
   -4.1330   25.7890   20.8920 H   0  0  0  0  0  0  0  0  0  0  0  0
   -6.3163   26.4588   21.0879 H   0  0  0  0  0  0  0  0  0  0  0  0
   -5.9402   27.0666   22.7434 H   0  0  0  0  0  0  0  0  0  0  0  0
   -5.0137   27.9282   19.1624 H   0  0  0  0  0  0  0  0  0  0  0  0
   -5.0512   30.2667   18.3120 H   0  0  0  0  0  0  0  0  0  0  0  0
   -4.7968   35.8357   19.1529 H   0  0  0  0  0  0  0  0  0  0  0  0
   -8.4857   32.1942   19.0028 H   0  0  0  0  0  0  0  0  0  0  0  0
   -8.2891   33.2932   17.5956 H   0  0  0  0  0  0  0  0  0  0  0  0
   -7.4932   31.6828   17.5956 H   0  0  0  0  0  0  0  0  0  0  0  0
   -6.2767   31.6706   22.2102 H   0  0  0  0  0  0  0  0  0  0  0  0
   -6.2342   29.3339   23.0655 H   0  0  0  0  0  0  0  0  0  0  0  0
    1.7950   26.1480   23.0432 H   0  0  0  0  0  0  0  0  0  0  0  0
    3.0218   25.2688   22.0693 H   0  0  0  0  0  0  0  0  0  0  0  0
    2.9939   27.0649   22.0693 H   0  0  0  0  0  0  0  0  0  0  0  0
    0.6377   24.3109   21.7810 H   0  0  0  0  0  0  0  0  0  0  0  0
   -0.1398   24.7786   20.2308 H   0  0  0  0  0  0  0  0  0  0  0  0
    1.5156   24.0813   20.2308 H   0  0  0  0  0  0  0  0  0  0  0  0
    3.2365   26.7675   19.9086 H   0  0  0  0  0  0  0  0  0  0  0  0
    2.3100   25.5011   19.0343 H   0  0  0  0  0  0  0  0  0  0  0  0
    1.7284   27.2006   19.0343 H   0  0  0  0  0  0  0  0  0  0  0  0
   -0.9378   33.7654   20.9904 H   0  0  0  0  0  0  0  0  0  0  0  0
    0.0612   33.3838   19.5471 H   0  0  0  0  0  0  0  0  0  0  0  0
   -1.6960   33.0112   19.5471 H   0  0  0  0  0  0  0  0  0  0  0  0
   -0.3990   31.6733   22.9087 H   0  0  0  0  0  0  0  0  0  0  0  0
    1.0980   31.0876   22.1070 H   0  0  0  0  0  0  0  0  0  0  0  0
    0.7062   32.8407   22.1070 H   0  0  0  0  0  0  0  0  0  0  0  0
   -1.9817   30.9203   22.1439 H   0  0  0  0  0  0  0  0  0  0  0  0
   -2.6605   31.5875   20.6205 H   0  0  0  0  0  0  0  0  0  0  0  0
   -1.8686   29.9752   20.6205 H   0  0  0  0  0  0  0  0  0  0  0  0
  1  2  1  0
  2  3  2  0
  2  4  1  0
  4  5  1  0
  5  6  1  0
  6  7  2  0
  6  8  1  0
  8  9  1  0
  9 10  1  0
 10 11  2  0
 10 12  1  0
 12 13  1  0
 13 14  1  0
 14 15  1  0
 14 16  1  0
 16 17  1  0
 17 18  1  0
 18 19  2  0
 18 20  1  0
 20 21  1  0
 21 22  1  0
 22 23  2  0
 23 24  1  0
 24 25  2  0
 25 26  1  0
 26 27  1  0
 27 28  1  0
 28 29  2  0
 29 30  1  0
 30 31  1  0
 25 32  1  0
 32 33  2  0
  9 34  1  0
 34 35  1  0
 34 36  1  0
 34 37  1  0
  5 38  1  0
 38 39  1  0
 38 40  1  0
 38 41  1  0
 17 12  1  0
 33 22  1  0
 30 26  2  0
  1 42  1  0
  1 43  1  0
  1 44  1  0
  4 45  1  0
  5 46  1  1
  8 47  1  0
  9 48  1  6
 13 49  1  0
 13 50  1  0
 14 51  1  1
 15 52  1  0
 16 53  1  0
 16 54  1  0
 17 55  1  6
 20 56  1  0
 21 57  1  0
 21 58  1  0
 23 59  1  0
 24 60  1  0
 28 61  1  0
 31 62  1  0
 31 63  1  0
 31 64  1  0
 32 65  1  0
 33 66  1  0
 35 67  1  0
 35 68  1  0
 35 69  1  0
 36 70  1  0
 36 71  1  0
 36 72  1  0
 37 73  1  0
 37 74  1  0
 37 75  1  0
 39 76  1  0
 39 77  1  0
 39 78  1  0
 40 79  1  0
 40 80  1  0
 40 81  1  0
 41 82  1  0
 41 83  1  0
 41 84  1  0
M  END
>  <meeko>  (8) 
{"is_sidechain": [false], "free_energy": -5.687, "intermolecular_energy": -8.638, "internal_energy": -2.819}

$$$$
4w9l_ligand
     RDKit          3D

 84 86  0  0  0  0  0  0  0  0999 V2000
   -6.3760   26.8140   18.1820 C   0  0  0  0  0  0  0  0  0  0  0  0
   -6.1520   27.8480   19.2510 C   0  0  0  0  0  0  0  0  0  0  0  0
   -6.4070   27.6330   20.4310 O   0  0  0  0  0  0  0  0  0  0  0  0
   -5.6490   29.0440   18.7880 N   0  0  0  0  0  0  0  0  0  0  0  0
   -5.4270   30.1810   19.7000 C   0  0  2  0  0  0  0  0  0  0  0  0
   -5.8040   31.5000   18.9730 C   0  0  0  0  0  0  0  0  0  0  0  0
   -5.4200   31.7680   17.8370 O   0  0  0  0  0  0  0  0  0  0  0  0
   -6.7150   32.2890   19.6540 N   0  0  0  0  0  0  0  0  0  0  0  0
   -6.8890   33.6960   19.2810 C   0  0  2  0  0  0  0  0  0  0  0  0
   -6.0200   34.4550   20.3160 C   0  0  0  0  0  0  0  0  0  0  0  0
   -5.9920   34.0820   21.4960 O   0  0  0  0  0  0  0  0  0  0  0  0
   -5.2710   35.5240   19.8880 N   0  0  0  0  0  0  0  0  0  0  0  0
   -5.5830   36.9360   20.0280 C   0  0  0  0  0  0  0  0  0  0  0  0
   -4.4020   37.6680   19.3840 C   0  0  2  0  0  0  0  0  0  0  0  0
   -4.7720   38.8910   18.7730 O   0  0  0  0  0  0  0  0  0  0  0  0
   -3.9280   36.6740   18.3250 C   0  0  0  0  0  0  0  0  0  0  0  0
   -4.1240   35.3240   19.0110 C   0  0  1  0  0  0  0  0  0  0  0  0
   -2.8640   34.9550   19.8190 C   0  0  0  0  0  0  0  0  0  0  0  0
   -2.7900   35.0790   21.0410 O   0  0  0  0  0  0  0  0  0  0  0  0
   -1.8000   34.5540   19.0380 N   0  0  0  0  0  0  0  0  0  0  0  0
   -0.4880   34.3230   19.5950 C   0  0  0  0  0  0  0  0  0  0  0  0
   -0.1480   32.8550   19.5470 C   0  0  0  0  0  0  0  0  0  0  0  0
   -0.0550   32.1780   18.3240 C   0  0  0  0  0  0  0  0  0  0  0  0
    0.2930   30.8250   18.2890 C   0  0  0  0  0  0  0  0  0  0  0  0
    0.5620   30.1260   19.4720 C   0  0  0  0  0  0  0  0  0  0  0  0
    0.9160   28.7070   19.4220 C   0  0  0  0  0  0  0  0  0  0  0  0
    2.1190   28.1550   18.3240 S   0  0  0  0  0  0  0  0  0  0  0  0
    1.8710   26.5560   18.8750 C   0  0  0  0  0  0  0  0  0  0  0  0
    0.9650   26.3990   19.8130 N   0  0  0  0  0  0  0  0  0  0  0  0
    0.4120   27.6300   20.1380 C   0  0  0  0  0  0  0  0  0  0  0  0
   -0.6330   27.6690   21.1960 C   0  0  0  0  0  0  0  0  0  0  0  0
    0.4750   30.8040   20.6930 C   0  0  0  0  0  0  0  0  0  0  0  0
    0.1260   32.1560   20.7310 C   0  0  0  0  0  0  0  0  0  0  0  0
   -8.3890   34.1260   19.2920 C   0  0  0  0  0  0  0  0  0  0  0  0
   -8.5920   35.6160   18.9520 C   0  0  0  0  0  0  0  0  0  0  0  0
   -9.1940   33.2830   18.2840 C   0  0  0  0  0  0  0  0  0  0  0  0
   -8.9760   33.8690   20.6960 C   0  0  0  0  0  0  0  0  0  0  0  0
   -3.9800   30.1900   20.2850 C   0  0  0  0  0  0  0  0  0  0  0  0
   -2.9980   29.5460   19.2830 C   0  0  0  0  0  0  0  0  0  0  0  0
   -3.8720   29.4360   21.6220 C   0  0  0  0  0  0  0  0  0  0  0  0
   -3.5210   31.6490   20.5050 C   0  0  0  0  0  0  0  0  0  0  0  0
   -6.5867   25.8415   18.6509 H   0  0  0  0  0  0  0  0  0  0  0  0
   -7.2304   27.1123   17.5566 H   0  0  0  0  0  0  0  0  0  0  0  0
   -5.4748   26.7320   17.5566 H   0  0  0  0  0  0  0  0  0  0  0  0
   -5.5280   29.1800   17.7940 H   0  0  0  0  0  0  0  0  0  0  0  0
   -6.0838   30.0774   20.5763 H   0  0  0  0  0  0  0  0  0  0  0  0
   -6.7120   32.1340   20.6570 H   0  0  0  0  0  0  0  0  0  0  0  0
   -6.5759   33.9121   18.2489 H   0  0  0  0  0  0  0  0  0  0  0  0
   -6.5199   37.1787   19.5053 H   0  0  0  0  0  0  0  0  0  0  0  0
   -5.7252   37.2257   21.0796 H   0  0  0  0  0  0  0  0  0  0  0  0
   -3.6402   37.9476   20.1266 H   0  0  0  0  0  0  0  0  0  0  0  0
   -3.9800   39.4550   18.7350 H   0  0  0  0  0  0  0  0  0  0  0  0
   -4.5385   36.7466   17.4129 H   0  0  0  0  0  0  0  0  0  0  0  0
   -2.8922   36.8486   17.9985 H   0  0  0  0  0  0  0  0  0  0  0  0
   -4.2910   34.5017   18.2996 H   0  0  0  0  0  0  0  0  0  0  0  0
   -1.8820   34.5970   18.0320 H   0  0  0  0  0  0  0  0  0  0  0  0
    0.2568   34.8868   19.0141 H   0  0  0  0  0  0  0  0  0  0  0  0
   -0.4813   34.6568   20.6431 H   0  0  0  0  0  0  0  0  0  0  0  0
   -0.2572   32.7148   17.3854 H   0  0  0  0  0  0  0  0  0  0  0  0
    0.3562   30.3039   17.3223 H   0  0  0  0  0  0  0  0  0  0  0  0
    2.4382   25.7064   18.4670 H   0  0  0  0  0  0  0  0  0  0  0  0
   -0.1535   27.6511   22.1858 H   0  0  0  0  0  0  0  0  0  0  0  0
   -1.2256   28.5899   21.0923 H   0  0  0  0  0  0  0  0  0  0  0  0
   -1.2926   26.7948   21.0923 H   0  0  0  0  0  0  0  0  0  0  0  0
    0.6832   30.2678   21.6307 H   0  0  0  0  0  0  0  0  0  0  0  0
    0.0656   32.6767   21.6981 H   0  0  0  0  0  0  0  0  0  0  0  0
   -8.6712   36.1970   19.8827 H   0  0  0  0  0  0  0  0  0  0  0  0
   -7.7349   35.9783   18.3654 H   0  0  0  0  0  0  0  0  0  0  0  0
   -9.5148   35.7358   18.3654 H   0  0  0  0  0  0  0  0  0  0  0  0
   -9.8540   32.5918   18.8286 H   0  0  0  0  0  0  0  0  0  0  0  0
   -9.8008   33.9480   17.6519 H   0  0  0  0  0  0  0  0  0  0  0  0
   -8.5017   32.7074   17.6519 H   0  0  0  0  0  0  0  0  0  0  0  0
   -8.2512   34.1863   21.4602 H   0  0  0  0  0  0  0  0  0  0  0  0
   -9.9078   34.4415   20.8143 H   0  0  0  0  0  0  0  0  0  0  0  0
   -9.1874   32.7960   20.8143 H   0  0  0  0  0  0  0  0  0  0  0  0
   -2.2018   29.0239   19.8339 H   0  0  0  0  0  0  0  0  0  0  0  0
   -3.5387   28.8266   18.6505 H   0  0  0  0  0  0  0  0  0  0  0  0
   -2.5537   30.3287   18.6505 H   0  0  0  0  0  0  0  0  0  0  0  0
   -3.9740   30.1483   22.4540 H   0  0  0  0  0  0  0  0  0  0  0  0
   -4.6715   28.6830   21.6839 H   0  0  0  0  0  0  0  0  0  0  0  0
   -2.8933   28.9377   21.6839 H   0  0  0  0  0  0  0  0  0  0  0  0
   -3.4564   31.8544   21.5837 H   0  0  0  0  0  0  0  0  0  0  0  0
   -2.5332   31.7961   20.0439 H   0  0  0  0  0  0  0  0  0  0  0  0
   -4.2467   32.3352   20.0439 H   0  0  0  0  0  0  0  0  0  0  0  0
  1  2  1  0
  2  3  2  0
  2  4  1  0
  4  5  1  0
  5  6  1  0
  6  7  2  0
  6  8  1  0
  8  9  1  0
  9 10  1  0
 10 11  2  0
 10 12  1  0
 12 13  1  0
 13 14  1  0
 14 15  1  0
 14 16  1  0
 16 17  1  0
 17 18  1  0
 18 19  2  0
 18 20  1  0
 20 21  1  0
 21 22  1  0
 22 23  2  0
 23 24  1  0
 24 25  2  0
 25 26  1  0
 26 27  1  0
 27 28  1  0
 28 29  2  0
 29 30  1  0
 30 31  1  0
 25 32  1  0
 32 33  2  0
  9 34  1  0
 34 35  1  0
 34 36  1  0
 34 37  1  0
  5 38  1  0
 38 39  1  0
 38 40  1  0
 38 41  1  0
 17 12  1  0
 33 22  1  0
 30 26  2  0
  1 42  1  0
  1 43  1  0
  1 44  1  0
  4 45  1  0
  5 46  1  1
  8 47  1  0
  9 48  1  6
 13 49  1  0
 13 50  1  0
 14 51  1  1
 15 52  1  0
 16 53  1  0
 16 54  1  0
 17 55  1  6
 20 56  1  0
 21 57  1  0
 21 58  1  0
 23 59  1  0
 24 60  1  0
 28 61  1  0
 31 62  1  0
 31 63  1  0
 31 64  1  0
 32 65  1  0
 33 66  1  0
 35 67  1  0
 35 68  1  0
 35 69  1  0
 36 70  1  0
 36 71  1  0
 36 72  1  0
 37 73  1  0
 37 74  1  0
 37 75  1  0
 39 76  1  0
 39 77  1  0
 39 78  1  0
 40 79  1  0
 40 80  1  0
 40 81  1  0
 41 82  1  0
 41 83  1  0
 41 84  1  0
M  END
>  <meeko>  (9) 
{"is_sidechain": [false], "free_energy": -5.683, "intermolecular_energy": -8.465, "internal_energy": -2.987}

$$$$
