
     RDKit          3D

 18 20  0  0  0  0  0  0  0  0999 V2000
  -23.2620    7.5620   15.9680 C   0  0  0  0  0  0  0  0  0  0  0  0
  -24.1330    8.7100   16.0750 N   0  0  0  0  0  0  0  0  0  0  0  0
  -23.9300    9.8120   15.2650 C   0  0  0  0  0  0  0  0  0  0  0  0
  -22.9810    9.7700   14.3230 N   0  0  0  0  0  0  0  0  0  0  0  0
  -22.7920   10.8740   13.5280 C   0  0  0  0  0  0  0  0  0  0  0  0
  -21.8160   10.8240   12.5220 C   0  0  0  0  0  0  0  0  0  0  0  0
  -21.6470   11.9420   11.7170 C   0  0  0  0  0  0  0  0  0  0  0  0
  -20.8140   12.1680   10.6610 N   0  0  0  0  0  0  0  0  0  0  0  0
  -21.0790   13.3930   10.2260 C   0  0  0  0  0  0  0  0  0  0  0  0
  -20.4950   14.0190    9.1440 N   0  0  0  0  0  0  0  0  0  0  0  0
  -19.5740   13.2780    8.2700 C   0  0  0  0  0  0  0  0  0  0  0  0
  -22.0280   14.0000   10.9500 N   0  0  0  0  0  0  0  0  0  0  0  0
  -22.4070   13.1020   11.8900 C   0  0  0  0  0  0  0  0  0  0  0  0
  -23.3690   13.1600   12.8940 C   0  0  0  0  0  0  0  0  0  0  0  0
  -23.5770   12.0350   13.7170 C   0  0  0  0  0  0  0  0  0  0  0  0
  -24.5690   12.0210   14.7460 C   0  0  0  0  0  0  0  0  0  0  0  0
  -25.3030   13.0020   14.9560 O   0  0  0  0  0  0  0  0  0  0  0  0
  -24.7120   10.9010   15.4810 N   0  0  0  0  0  0  0  0  0  0  0  0
  2  1  1  0
  3  2  1  0
  4  3  2  0
  5  4  1  0
  6  5  2  0
  7  6  1  0
  8  7  1  0
  9  8  1  0
 10  9  1  0
 11 10  1  0
 12  9  2  0
 13 12  1  0
 13  7  2  0
 14 13  1  0
 15  5  1  0
 15 14  2  0
 16 15  1  0
 17 16  2  0
 18  3  1  0
 18 16  1  0
M  CHG  2   4   1  12   1
M  END
$$$$
