1yc1_ligand
     RDKit          3D

 42 45  0  0  0  0  0  0  0  0999 V2000
   -8.0370   -1.5720   -7.1870 C   0  0  0  0  0  0  0  0  0  0  0  0
   -7.1890   -1.3930   -5.9370 C   0  0  0  0  0  0  0  0  0  0  0  0
   -6.3890   -0.1150   -5.9750 C   0  0  0  0  0  0  0  0  0  0  0  0
   -6.8490    0.9850   -5.2270 C   0  0  0  0  0  0  0  0  0  0  0  0
   -6.1570    2.2090   -5.2120 C   0  0  0  0  0  0  0  0  0  0  0  0
   -6.7160    3.3120   -4.4320 C   0  0  0  0  0  0  0  0  0  0  0  0
   -7.7470    4.0250   -4.9200 N   0  0  0  0  0  0  0  0  0  0  0  0
   -7.9990    4.9190   -3.9470 N   0  0  0  0  0  0  0  0  0  0  0  0
   -7.1790    4.8150   -2.8700 C   0  0  0  0  0  0  0  0  0  0  0  0
   -7.3640    5.8030   -1.6990 C   0  0  0  0  0  0  0  0  0  0  0  0
   -6.4190    6.6440   -1.5940 O   0  0  0  0  0  0  0  0  0  0  0  0
   -8.3960    5.7110   -0.9810 O   0  0  0  0  0  0  0  0  0  0  0  0
   -6.3060    3.7840   -3.1360 C   0  0  0  0  0  0  0  0  0  0  0  0
   -5.2190    3.3220   -2.2890 C   0  0  0  0  0  0  0  0  0  0  0  0
   -5.1830    1.9890   -1.8260 C   0  0  0  0  0  0  0  0  0  0  0  0
   -4.1130    1.5180   -1.0560 C   0  0  0  0  0  0  0  0  0  0  0  0
   -3.0950    2.4000   -0.7740 C   0  0  0  0  0  0  0  0  0  0  0  0
   -3.1200    3.7000   -1.2200 C   0  0  0  0  0  0  0  0  0  0  0  0
   -4.1620    4.1920   -1.9780 C   0  0  0  0  0  0  0  0  0  0  0  0
   -2.0210    4.4040   -0.8300 O   0  0  0  0  0  0  0  0  0  0  0  0
   -1.3180    3.4010   -0.0710 C   0  0  0  0  0  0  0  0  0  0  0  0
   -1.9790    2.1210   -0.0460 O   0  0  0  0  0  0  0  0  0  0  0  0
   -4.9680    2.3190   -5.9420 C   0  0  0  0  0  0  0  0  0  0  0  0
   -4.1880    3.4430   -5.9650 O   0  0  0  0  0  0  0  0  0  0  0  0
   -4.4970    1.2380   -6.6860 C   0  0  0  0  0  0  0  0  0  0  0  0
   -5.2000    0.0340   -6.6990 C   0  0  0  0  0  0  0  0  0  0  0  0
   -4.6520   -0.9710   -7.4460 O   0  0  0  0  0  0  0  0  0  0  0  0
   -9.0753   -1.7912   -6.8974 H   0  0  0  0  0  0  0  0  0  0  0  0
   -8.0100   -0.6484   -7.7838 H   0  0  0  0  0  0  0  0  0  0  0  0
   -7.6390   -2.4059   -7.7838 H   0  0  0  0  0  0  0  0  0  0  0  0
   -7.8511   -1.3715   -5.0588 H   0  0  0  0  0  0  0  0  0  0  0  0
   -6.4826   -2.2344   -5.8824 H   0  0  0  0  0  0  0  0  0  0  0  0
   -7.7733    0.8846   -4.6392 H   0  0  0  0  0  0  0  0  0  0  0  0
   -8.7440    5.6030   -4.0480 H   0  0  0  0  0  0  0  0  0  0  0  0
   -6.0105    1.3082   -2.0747 H   0  0  0  0  0  0  0  0  0  0  0  0
   -4.0869    0.4811   -0.6898 H   0  0  0  0  0  0  0  0  0  0  0  0
   -4.1647    5.2347   -2.3283 H   0  0  0  0  0  0  0  0  0  0  0  0
   -0.3200    3.2673   -0.5137 H   0  0  0  0  0  0  0  0  0  0  0  0
   -1.2732    3.7587    0.9683 H   0  0  0  0  0  0  0  0  0  0  0  0
   -3.8430    3.5640   -6.8690 H   0  0  0  0  0  0  0  0  0  0  0  0
   -3.5669    1.3354   -7.2651 H   0  0  0  0  0  0  0  0  0  0  0  0
   -4.4010   -1.7000   -6.8620 H   0  0  0  0  0  0  0  0  0  0  0  0
  1  2  1  0
  2  3  1  0
  3  4  2  0
  4  5  1  0
  5  6  1  0
  6  7  2  0
  7  8  1  0
  8  9  1  0
  9 10  1  0
 10 11  2  0
 10 12  1  0
  9 13  2  0
 13 14  1  0
 14 15  2  0
 15 16  1  0
 16 17  2  0
 17 18  1  0
 18 19  2  0
 18 20  1  0
 20 21  1  0
 21 22  1  0
  5 23  2  0
 23 24  1  0
 23 25  1  0
 25 26  2  0
 26 27  1  0
 26  3  1  0
 13  6  1  0
 19 14  1  0
 22 17  1  0
  1 28  1  0
  1 29  1  0
  1 30  1  0
  2 31  1  0
  2 32  1  0
  4 33  1  0
  8 34  1  0
 15 35  1  0
 16 36  1  0
 19 37  1  0
 21 38  1  0
 21 39  1  0
 24 40  1  0
 25 41  1  0
 27 42  1  0
M  CHG  1  12  -1
M  END
>  <meeko>  (1) 
{"is_sidechain": [false], "free_energy": -7.985, "intermolecular_energy": -10.319, "internal_energy": -1.262}

$$$$
1yc1_ligand
     RDKit          3D

 42 45  0  0  0  0  0  0  0  0999 V2000
   -3.5330    0.1580    1.0150 C   0  0  0  0  0  0  0  0  0  0  0  0
   -2.4760    0.5000   -0.0240 C   0  0  0  0  0  0  0  0  0  0  0  0
   -2.2060    1.9830   -0.0890 C   0  0  0  0  0  0  0  0  0  0  0  0
   -3.3030    2.8640   -0.1000 C   0  0  0  0  0  0  0  0  0  0  0  0
   -3.1310    4.2580   -0.1590 C   0  0  0  0  0  0  0  0  0  0  0  0
   -4.3230    5.1030   -0.1970 C   0  0  0  0  0  0  0  0  0  0  0  0
   -4.5750    5.9560    0.8110 N   0  0  0  0  0  0  0  0  0  0  0  0
   -5.7140    6.5620    0.4340 N   0  0  0  0  0  0  0  0  0  0  0  0
   -6.2030    6.1340   -0.7580 C   0  0  0  0  0  0  0  0  0  0  0  0
   -7.5190    6.7470   -1.2820 C   0  0  0  0  0  0  0  0  0  0  0  0
   -8.3690    5.8790   -1.6510 O   0  0  0  0  0  0  0  0  0  0  0  0
   -7.6460    8.0010   -1.2920 O   0  0  0  0  0  0  0  0  0  0  0  0
   -5.3390    5.1650   -1.2150 C   0  0  0  0  0  0  0  0  0  0  0  0
   -5.4660    4.3900   -2.4380 C   0  0  0  0  0  0  0  0  0  0  0  0
   -4.7950    4.7860   -3.6150 C   0  0  0  0  0  0  0  0  0  0  0  0
   -4.8650    4.0170   -4.7820 C   0  0  0  0  0  0  0  0  0  0  0  0
   -5.6070    2.8580   -4.7380 C   0  0  0  0  0  0  0  0  0  0  0  0
   -6.2640    2.4630   -3.5970 C   0  0  0  0  0  0  0  0  0  0  0  0
   -6.2140    3.2030   -2.4340 C   0  0  0  0  0  0  0  0  0  0  0  0
   -6.9390    1.2930   -3.7650 O   0  0  0  0  0  0  0  0  0  0  0  0
   -6.6460    1.0120   -5.1480 C   0  0  0  0  0  0  0  0  0  0  0  0
   -5.7850    1.9870   -5.7690 O   0  0  0  0  0  0  0  0  0  0  0  0
   -1.8310    4.7750   -0.1790 C   0  0  0  0  0  0  0  0  0  0  0  0
   -1.5410    6.1130   -0.1890 O   0  0  0  0  0  0  0  0  0  0  0  0
   -0.7320    3.9160   -0.1640 C   0  0  0  0  0  0  0  0  0  0  0  0
   -0.9200    2.5360   -0.1170 C   0  0  0  0  0  0  0  0  0  0  0  0
    0.2180    1.7780   -0.0920 O   0  0  0  0  0  0  0  0  0  0  0  0
   -3.1138    0.2936    2.0229 H   0  0  0  0  0  0  0  0  0  0  0  0
   -4.4013    0.8210    0.8867 H   0  0  0  0  0  0  0  0  0  0  0  0
   -3.8483   -0.8880    0.8867 H   0  0  0  0  0  0  0  0  0  0  0  0
   -1.5420   -0.0200    0.2352 H   0  0  0  0  0  0  0  0  0  0  0  0
   -2.8502    0.1795   -1.0075 H   0  0  0  0  0  0  0  0  0  0  0  0
   -4.3219    2.4512   -0.0614 H   0  0  0  0  0  0  0  0  0  0  0  0
   -6.1460    7.2710    1.0210 H   0  0  0  0  0  0  0  0  0  0  0  0
   -4.2067    5.7155   -3.6149 H   0  0  0  0  0  0  0  0  0  0  0  0
   -4.3461    4.3271   -5.7010 H   0  0  0  0  0  0  0  0  0  0  0  0
   -6.7453    2.8720   -1.5295 H   0  0  0  0  0  0  0  0  0  0  0  0
   -6.1557    0.0290   -5.2060 H   0  0  0  0  0  0  0  0  0  0  0  0
   -7.6028    1.0373   -5.6902 H   0  0  0  0  0  0  0  0  0  0  0  0
   -2.3520    6.6040   -0.4160 H   0  0  0  0  0  0  0  0  0  0  0  0
    0.2870    4.3296   -0.1894 H   0  0  0  0  0  0  0  0  0  0  0  0
    0.0300    0.9110   -0.4790 H   0  0  0  0  0  0  0  0  0  0  0  0
  1  2  1  0
  2  3  1  0
  3  4  2  0
  4  5  1  0
  5  6  1  0
  6  7  2  0
  7  8  1  0
  8  9  1  0
  9 10  1  0
 10 11  2  0
 10 12  1  0
  9 13  2  0
 13 14  1  0
 14 15  2  0
 15 16  1  0
 16 17  2  0
 17 18  1  0
 18 19  2  0
 18 20  1  0
 20 21  1  0
 21 22  1  0
  5 23  2  0
 23 24  1  0
 23 25  1  0
 25 26  2  0
 26 27  1  0
 26  3  1  0
 13  6  1  0
 19 14  1  0
 22 17  1  0
  1 28  1  0
  1 29  1  0
  1 30  1  0
  2 31  1  0
  2 32  1  0
  4 33  1  0
  8 34  1  0
 15 35  1  0
 16 36  1  0
 19 37  1  0
 21 38  1  0
 21 39  1  0
 24 40  1  0
 25 41  1  0
 27 42  1  0
M  CHG  1  12  -1
M  END
>  <meeko>  (2) 
{"is_sidechain": [false], "free_energy": -7.921, "intermolecular_energy": -10.001, "internal_energy": -1.497}

$$$$
1yc1_ligand
     RDKit          3D

 42 45  0  0  0  0  0  0  0  0999 V2000
   -3.5170    0.4820    1.1840 C   0  0  0  0  0  0  0  0  0  0  0  0
   -3.4950    0.5750   -0.3340 C   0  0  0  0  0  0  0  0  0  0  0  0
   -3.4830    2.0050   -0.8130 C   0  0  0  0  0  0  0  0  0  0  0  0
   -4.6430    2.5170   -1.4240 C   0  0  0  0  0  0  0  0  0  0  0  0
   -4.7080    3.8400   -1.8950 C   0  0  0  0  0  0  0  0  0  0  0  0
   -5.9400    4.2850   -2.5440 C   0  0  0  0  0  0  0  0  0  0  0  0
   -6.6830    5.2540   -1.9820 N   0  0  0  0  0  0  0  0  0  0  0  0
   -7.7020    5.4100   -2.8440 N   0  0  0  0  0  0  0  0  0  0  0  0
   -7.6490    4.5860   -3.9230 C   0  0  0  0  0  0  0  0  0  0  0  0
   -8.7790    4.6630   -4.9710 C   0  0  0  0  0  0  0  0  0  0  0  0
   -9.4160    5.7600   -4.9480 O   0  0  0  0  0  0  0  0  0  0  0  0
   -8.9640    3.6810   -5.7400 O   0  0  0  0  0  0  0  0  0  0  0  0
   -6.5190    3.8140   -3.7740 C   0  0  0  0  0  0  0  0  0  0  0  0
   -6.0600    2.7600   -4.6640 C   0  0  0  0  0  0  0  0  0  0  0  0
   -5.0650    3.0170   -5.6310 C   0  0  0  0  0  0  0  0  0  0  0  0
   -4.5760    1.9960   -6.4550 C   0  0  0  0  0  0  0  0  0  0  0  0
   -5.0960    0.7340   -6.2830 C   0  0  0  0  0  0  0  0  0  0  0  0
   -6.0660    0.4730   -5.3440 C   0  0  0  0  0  0  0  0  0  0  0  0
   -6.5670    1.4590   -4.5210 C   0  0  0  0  0  0  0  0  0  0  0  0
   -6.4440   -0.8350   -5.3370 O   0  0  0  0  0  0  0  0  0  0  0  0
   -5.6150   -1.3570   -6.3950 C   0  0  0  0  0  0  0  0  0  0  0  0
   -4.7410   -0.3760   -6.9870 O   0  0  0  0  0  0  0  0  0  0  0  0
   -3.5940    4.6700   -1.7240 C   0  0  0  0  0  0  0  0  0  0  0  0
   -3.5580    5.9860   -2.0990 O   0  0  0  0  0  0  0  0  0  0  0  0
   -2.4380    4.1800   -1.1170 C   0  0  0  0  0  0  0  0  0  0  0  0
   -2.3860    2.8630   -0.6640 C   0  0  0  0  0  0  0  0  0  0  0  0
   -1.2160    2.4800   -0.0720 O   0  0  0  0  0  0  0  0  0  0  0  0
   -3.2840    1.4668    1.6151 H   0  0  0  0  0  0  0  0  0  0  0  0
   -4.5155    0.1627    1.5174 H   0  0  0  0  0  0  0  0  0  0  0  0
   -2.7674   -0.2508    1.5174 H   0  0  0  0  0  0  0  0  0  0  0  0
   -2.5933    0.0679   -0.7077 H   0  0  0  0  0  0  0  0  0  0  0  0
   -4.4085    0.0965   -0.7167 H   0  0  0  0  0  0  0  0  0  0  0  0
   -5.5217    1.8649   -1.5359 H   0  0  0  0  0  0  0  0  0  0  0  0
   -8.4350    6.0920   -2.6680 H   0  0  0  0  0  0  0  0  0  0  0  0
   -4.6668    4.0367   -5.7393 H   0  0  0  0  0  0  0  0  0  0  0  0
   -3.8039    2.1958   -7.2126 H   0  0  0  0  0  0  0  0  0  0  0  0
   -7.3418    1.2327   -3.7737 H   0  0  0  0  0  0  0  0  0  0  0  0
   -4.9970   -2.1684   -5.9831 H   0  0  0  0  0  0  0  0  0  0  0  0
   -6.2912   -1.7047   -7.1899 H   0  0  0  0  0  0  0  0  0  0  0  0
   -2.8330    6.4260   -1.6200 H   0  0  0  0  0  0  0  0  0  0  0  0
   -1.5634    4.8359   -0.9952 H   0  0  0  0  0  0  0  0  0  0  0  0
   -0.5440    3.1590   -0.2260 H   0  0  0  0  0  0  0  0  0  0  0  0
  1  2  1  0
  2  3  1  0
  3  4  2  0
  4  5  1  0
  5  6  1  0
  6  7  2  0
  7  8  1  0
  8  9  1  0
  9 10  1  0
 10 11  2  0
 10 12  1  0
  9 13  2  0
 13 14  1  0
 14 15  2  0
 15 16  1  0
 16 17  2  0
 17 18  1  0
 18 19  2  0
 18 20  1  0
 20 21  1  0
 21 22  1  0
  5 23  2  0
 23 24  1  0
 23 25  1  0
 25 26  2  0
 26 27  1  0
 26  3  1  0
 13  6  1  0
 19 14  1  0
 22 17  1  0
  1 28  1  0
  1 29  1  0
  1 30  1  0
  2 31  1  0
  2 32  1  0
  4 33  1  0
  8 34  1  0
 15 35  1  0
 16 36  1  0
 19 37  1  0
 21 38  1  0
 21 39  1  0
 24 40  1  0
 25 41  1  0
 27 42  1  0
M  CHG  1  12  -1
M  END
>  <meeko>  (3) 
{"is_sidechain": [false], "free_energy": -7.887, "intermolecular_energy": -10.092, "internal_energy": -1.361}

$$$$
1yc1_ligand
     RDKit          3D

 42 45  0  0  0  0  0  0  0  0999 V2000
   -3.5570    0.1750    1.0270 C   0  0  0  0  0  0  0  0  0  0  0  0
   -2.5580    0.5330   -0.0630 C   0  0  0  0  0  0  0  0  0  0  0  0
   -2.2810    2.0140   -0.1110 C   0  0  0  0  0  0  0  0  0  0  0  0
   -3.3740    2.9000   -0.1380 C   0  0  0  0  0  0  0  0  0  0  0  0
   -3.1950    4.2940   -0.1830 C   0  0  0  0  0  0  0  0  0  0  0  0
   -4.3830    5.1440   -0.2380 C   0  0  0  0  0  0  0  0  0  0  0  0
   -4.5930    6.0670    0.7170 N   0  0  0  0  0  0  0  0  0  0  0  0
   -5.7410    6.6550    0.3390 N   0  0  0  0  0  0  0  0  0  0  0  0
   -6.2750    6.1500   -0.8030 C   0  0  0  0  0  0  0  0  0  0  0  0
   -7.6050    6.7350   -1.3220 C   0  0  0  0  0  0  0  0  0  0  0  0
   -7.6440    8.0040   -1.2940 O   0  0  0  0  0  0  0  0  0  0  0  0
   -8.5020    5.9460   -1.7250 O   0  0  0  0  0  0  0  0  0  0  0  0
   -5.4330    5.1440   -1.2210 C   0  0  0  0  0  0  0  0  0  0  0  0
   -5.6090    4.2870   -2.3820 C   0  0  0  0  0  0  0  0  0  0  0  0
   -6.5570    3.2430   -2.3700 C   0  0  0  0  0  0  0  0  0  0  0  0
   -6.7740    2.4480   -3.5020 C   0  0  0  0  0  0  0  0  0  0  0  0
   -6.0330    2.7270   -4.6280 C   0  0  0  0  0  0  0  0  0  0  0  0
   -5.1060    3.7420   -4.6500 C   0  0  0  0  0  0  0  0  0  0  0  0
   -4.8710    4.5390   -3.5490 C   0  0  0  0  0  0  0  0  0  0  0  0
   -4.4820    3.8500   -5.8550 O   0  0  0  0  0  0  0  0  0  0  0  0
   -5.1100    2.7710   -6.5770 C   0  0  0  0  0  0  0  0  0  0  0  0
   -6.1090    2.0660   -5.8150 O   0  0  0  0  0  0  0  0  0  0  0  0
   -1.8920    4.8050   -0.1740 C   0  0  0  0  0  0  0  0  0  0  0  0
   -1.5970    6.1420   -0.1690 O   0  0  0  0  0  0  0  0  0  0  0  0
   -0.7980    3.9420   -0.1440 C   0  0  0  0  0  0  0  0  0  0  0  0
   -0.9920    2.5620   -0.1100 C   0  0  0  0  0  0  0  0  0  0  0  0
    0.1420    1.7990   -0.0690 O   0  0  0  0  0  0  0  0  0  0  0  0
   -3.0983    0.3394    2.0132 H   0  0  0  0  0  0  0  0  0  0  0  0
   -4.4505    0.8089    0.9280 H   0  0  0  0  0  0  0  0  0  0  0  0
   -3.8446   -0.8821    0.9280 H   0  0  0  0  0  0  0  0  0  0  0  0
   -1.6148    0.0014    0.1313 H   0  0  0  0  0  0  0  0  0  0  0  0
   -2.9899    0.2366   -1.0303 H   0  0  0  0  0  0  0  0  0  0  0  0
   -4.3952    2.4913   -0.1235 H   0  0  0  0  0  0  0  0  0  0  0  0
   -6.1480    7.4070    0.8890 H   0  0  0  0  0  0  0  0  0  0  0  0
   -7.1363    3.0498   -1.4551 H   0  0  0  0  0  0  0  0  0  0  0  0
   -7.5098    1.6303   -3.4919 H   0  0  0  0  0  0  0  0  0  0  0  0
   -4.1270    5.3484   -3.5845 H   0  0  0  0  0  0  0  0  0  0  0  0
   -5.5889    3.1873   -7.4755 H   0  0  0  0  0  0  0  0  0  0  0  0
   -4.3201    2.0449   -6.8193 H   0  0  0  0  0  0  0  0  0  0  0  0
   -0.6350    6.2470   -0.0520 H   0  0  0  0  0  0  0  0  0  0  0  0
    0.2229    4.3516   -0.1472 H   0  0  0  0  0  0  0  0  0  0  0  0
    0.3620    1.6070    0.8530 H   0  0  0  0  0  0  0  0  0  0  0  0
  1  2  1  0
  2  3  1  0
  3  4  2  0
  4  5  1  0
  5  6  1  0
  6  7  2  0
  7  8  1  0
  8  9  1  0
  9 10  1  0
 10 11  2  0
 10 12  1  0
  9 13  2  0
 13 14  1  0
 14 15  2  0
 15 16  1  0
 16 17  2  0
 17 18  1  0
 18 19  2  0
 18 20  1  0
 20 21  1  0
 21 22  1  0
  5 23  2  0
 23 24  1  0
 23 25  1  0
 25 26  2  0
 26 27  1  0
 26  3  1  0
 13  6  1  0
 19 14  1  0
 22 17  1  0
  1 28  1  0
  1 29  1  0
  1 30  1  0
  2 31  1  0
  2 32  1  0
  4 33  1  0
  8 34  1  0
 15 35  1  0
 16 36  1  0
 19 37  1  0
 21 38  1  0
 21 39  1  0
 24 40  1  0
 25 41  1  0
 27 42  1  0
M  CHG  1  12  -1
M  END
>  <meeko>  (4) 
{"is_sidechain": [false], "free_energy": -7.762, "intermolecular_energy": -9.828, "internal_energy": -1.464}

$$$$
1yc1_ligand
     RDKit          3D

 42 45  0  0  0  0  0  0  0  0999 V2000
   -3.9620    3.1190   -8.6400 C   0  0  0  0  0  0  0  0  0  0  0  0
   -3.7020    1.7300   -8.0790 C   0  0  0  0  0  0  0  0  0  0  0  0
   -4.6380    1.3930   -6.9460 C   0  0  0  0  0  0  0  0  0  0  0  0
   -5.1660    2.4470   -6.1780 C   0  0  0  0  0  0  0  0  0  0  0  0
   -6.0450    2.2120   -5.1060 C   0  0  0  0  0  0  0  0  0  0  0  0
   -6.5270    3.3600   -4.3390 C   0  0  0  0  0  0  0  0  0  0  0  0
   -7.5190    4.1250   -4.8260 N   0  0  0  0  0  0  0  0  0  0  0  0
   -7.7040    5.0490   -3.8680 N   0  0  0  0  0  0  0  0  0  0  0  0
   -6.8760    4.9150   -2.7990 C   0  0  0  0  0  0  0  0  0  0  0  0
   -6.9850    5.9330   -1.6450 C   0  0  0  0  0  0  0  0  0  0  0  0
   -8.0800    5.8590   -1.0070 O   0  0  0  0  0  0  0  0  0  0  0  0
   -6.0200    6.7140   -1.4280 O   0  0  0  0  0  0  0  0  0  0  0  0
   -6.0710    3.8290   -3.0570 C   0  0  0  0  0  0  0  0  0  0  0  0
   -5.0020    3.3170   -2.2150 C   0  0  0  0  0  0  0  0  0  0  0  0
   -5.0260    1.9840   -1.7530 C   0  0  0  0  0  0  0  0  0  0  0  0
   -3.9740    1.4640   -0.9880 C   0  0  0  0  0  0  0  0  0  0  0  0
   -2.9150    2.2980   -0.7110 C   0  0  0  0  0  0  0  0  0  0  0  0
   -2.8820    3.5980   -1.1570 C   0  0  0  0  0  0  0  0  0  0  0  0
   -3.9050    4.1370   -1.9100 C   0  0  0  0  0  0  0  0  0  0  0  0
   -1.7510    4.2500   -0.7730 O   0  0  0  0  0  0  0  0  0  0  0  0
   -1.0900    3.2160   -0.0170 C   0  0  0  0  0  0  0  0  0  0  0  0
   -1.8100    1.9670    0.0110 O   0  0  0  0  0  0  0  0  0  0  0  0
   -6.4200    0.8940   -4.8200 C   0  0  0  0  0  0  0  0  0  0  0  0
   -7.3030    0.5490   -3.8320 O   0  0  0  0  0  0  0  0  0  0  0  0
   -5.9090   -0.1620   -5.5740 C   0  0  0  0  0  0  0  0  0  0  0  0
   -5.0300    0.0870   -6.6270 C   0  0  0  0  0  0  0  0  0  0  0  0
   -4.5940   -1.0110   -7.3140 O   0  0  0  0  0  0  0  0  0  0  0  0
   -4.0951    3.8301   -7.8114 H   0  0  0  0  0  0  0  0  0  0  0  0
   -3.1067    3.4312   -9.2572 H   0  0  0  0  0  0  0  0  0  0  0  0
   -4.8723    3.1007   -9.2572 H   0  0  0  0  0  0  0  0  0  0  0  0
   -3.8374    0.9915   -8.8829 H   0  0  0  0  0  0  0  0  0  0  0  0
   -2.6742    1.7090   -7.6877 H   0  0  0  0  0  0  0  0  0  0  0  0
   -4.8838    3.4817   -6.4225 H   0  0  0  0  0  0  0  0  0  0  0  0
   -8.4080    5.7750   -3.9720 H   0  0  0  0  0  0  0  0  0  0  0  0
   -5.8853    1.3423   -1.9977 H   0  0  0  0  0  0  0  0  0  0  0  0
   -3.9937    0.4268   -0.6220 H   0  0  0  0  0  0  0  0  0  0  0  0
   -3.8618    5.1787   -2.2608 H   0  0  0  0  0  0  0  0  0  0  0  0
   -0.1014    3.0368   -0.4647 H   0  0  0  0  0  0  0  0  0  0  0  0
   -1.0226    3.5711    1.0219 H   0  0  0  0  0  0  0  0  0  0  0  0
   -6.8150    0.4740   -2.9920 H   0  0  0  0  0  0  0  0  0  0  0  0
   -6.2007   -1.1958   -5.3369 H   0  0  0  0  0  0  0  0  0  0  0  0
   -4.9170   -0.9640   -8.2250 H   0  0  0  0  0  0  0  0  0  0  0  0
  1  2  1  0
  2  3  1  0
  3  4  2  0
  4  5  1  0
  5  6  1  0
  6  7  2  0
  7  8  1  0
  8  9  1  0
  9 10  1  0
 10 11  2  0
 10 12  1  0
  9 13  2  0
 13 14  1  0
 14 15  2  0
 15 16  1  0
 16 17  2  0
 17 18  1  0
 18 19  2  0
 18 20  1  0
 20 21  1  0
 21 22  1  0
  5 23  2  0
 23 24  1  0
 23 25  1  0
 25 26  2  0
 26 27  1  0
 26  3  1  0
 13  6  1  0
 19 14  1  0
 22 17  1  0
  1 28  1  0
  1 29  1  0
  1 30  1  0
  2 31  1  0
  2 32  1  0
  4 33  1  0
  8 34  1  0
 15 35  1  0
 16 36  1  0
 19 37  1  0
 21 38  1  0
 21 39  1  0
 24 40  1  0
 25 41  1  0
 27 42  1  0
M  CHG  1  12  -1
M  END
>  <meeko>  (5) 
{"is_sidechain": [false], "free_energy": -7.526, "intermolecular_energy": -9.791, "internal_energy": -1.196}

$$$$
1yc1_ligand
     RDKit          3D

 42 45  0  0  0  0  0  0  0  0999 V2000
   -8.0740    6.0960   -1.7060 C   0  0  0  0  0  0  0  0  0  0  0  0
   -6.9850    6.6640   -0.8090 C   0  0  0  0  0  0  0  0  0  0  0  0
   -5.7950    5.7440   -0.7140 C   0  0  0  0  0  0  0  0  0  0  0  0
   -5.6930    4.6820   -1.6330 C   0  0  0  0  0  0  0  0  0  0  0  0
   -4.6120    3.7830   -1.6060 C   0  0  0  0  0  0  0  0  0  0  0  0
   -4.5960    2.6900   -2.5770 C   0  0  0  0  0  0  0  0  0  0  0  0
   -4.3900    1.4270   -2.1640 N   0  0  0  0  0  0  0  0  0  0  0  0
   -4.4580    0.7100   -3.2990 N   0  0  0  0  0  0  0  0  0  0  0  0
   -4.6910    1.4520   -4.4130 C   0  0  0  0  0  0  0  0  0  0  0  0
   -4.7700    0.7350   -5.7770 C   0  0  0  0  0  0  0  0  0  0  0  0
   -5.5750   -0.2460   -5.7870 O   0  0  0  0  0  0  0  0  0  0  0  0
   -4.0710    1.1680   -6.7340 O   0  0  0  0  0  0  0  0  0  0  0  0
   -4.7770    2.7630   -4.0030 C   0  0  0  0  0  0  0  0  0  0  0  0
   -4.9850    3.9280   -4.8470 C   0  0  0  0  0  0  0  0  0  0  0  0
   -3.9530    4.8720   -5.0390 C   0  0  0  0  0  0  0  0  0  0  0  0
   -4.1230    5.9670   -5.8940 C   0  0  0  0  0  0  0  0  0  0  0  0
   -5.3300    6.0860   -6.5450 C   0  0  0  0  0  0  0  0  0  0  0  0
   -6.3410    5.1720   -6.3660 C   0  0  0  0  0  0  0  0  0  0  0  0
   -6.2020    4.0850   -5.5280 C   0  0  0  0  0  0  0  0  0  0  0  0
   -7.4490    5.4720   -7.0980 O   0  0  0  0  0  0  0  0  0  0  0  0
   -7.0220    6.6900   -7.7390 C   0  0  0  0  0  0  0  0  0  0  0  0
   -5.6720    7.0770   -7.4120 O   0  0  0  0  0  0  0  0  0  0  0  0
   -3.6030    3.9720   -0.6550 C   0  0  0  0  0  0  0  0  0  0  0  0
   -2.4830    3.1900   -0.5650 O   0  0  0  0  0  0  0  0  0  0  0  0
   -3.6860    5.0210    0.2600 C   0  0  0  0  0  0  0  0  0  0  0  0
   -4.7700    5.8970    0.2280 C   0  0  0  0  0  0  0  0  0  0  0  0
   -4.7550    6.9000    1.1560 O   0  0  0  0  0  0  0  0  0  0  0  0
   -8.8789    5.6762   -1.0847 H   0  0  0  0  0  0  0  0  0  0  0  0
   -8.4807    6.8968   -2.3410 H   0  0  0  0  0  0  0  0  0  0  0  0
   -7.6500    5.3042   -2.3410 H   0  0  0  0  0  0  0  0  0  0  0  0
   -6.6552    7.6300   -1.2189 H   0  0  0  0  0  0  0  0  0  0  0  0
   -7.4043    6.7827    0.2010 H   0  0  0  0  0  0  0  0  0  0  0  0
   -6.4791    4.5523   -2.3915 H   0  0  0  0  0  0  0  0  0  0  0  0
   -4.3350   -0.2990   -3.2870 H   0  0  0  0  0  0  0  0  0  0  0  0
   -2.9985    4.7447   -4.5073 H   0  0  0  0  0  0  0  0  0  0  0  0
   -3.3212    6.7057   -6.0404 H   0  0  0  0  0  0  0  0  0  0  0  0
   -7.0211    3.3625   -5.3974 H   0  0  0  0  0  0  0  0  0  0  0  0
   -7.0887    6.5506   -8.8281 H   0  0  0  0  0  0  0  0  0  0  0  0
   -7.6821    7.4916   -7.3761 H   0  0  0  0  0  0  0  0  0  0  0  0
   -1.7900    3.5740   -1.1320 H   0  0  0  0  0  0  0  0  0  0  0  0
   -2.8930    5.1578    1.0100 H   0  0  0  0  0  0  0  0  0  0  0  0
   -5.5170    6.8000    1.7450 H   0  0  0  0  0  0  0  0  0  0  0  0
  1  2  1  0
  2  3  1  0
  3  4  2  0
  4  5  1  0
  5  6  1  0
  6  7  2  0
  7  8  1  0
  8  9  1  0
  9 10  1  0
 10 11  2  0
 10 12  1  0
  9 13  2  0
 13 14  1  0
 14 15  2  0
 15 16  1  0
 16 17  2  0
 17 18  1  0
 18 19  2  0
 18 20  1  0
 20 21  1  0
 21 22  1  0
  5 23  2  0
 23 24  1  0
 23 25  1  0
 25 26  2  0
 26 27  1  0
 26  3  1  0
 13  6  1  0
 19 14  1  0
 22 17  1  0
  1 28  1  0
  1 29  1  0
  1 30  1  0
  2 31  1  0
  2 32  1  0
  4 33  1  0
  8 34  1  0
 15 35  1  0
 16 36  1  0
 19 37  1  0
 21 38  1  0
 21 39  1  0
 24 40  1  0
 25 41  1  0
 27 42  1  0
M  CHG  1  12  -1
M  END
>  <meeko>  (6) 
{"is_sidechain": [false], "free_energy": -7.315, "intermolecular_energy": -9.249, "internal_energy": -1.466}

$$$$
1yc1_ligand
     RDKit          3D

 42 45  0  0  0  0  0  0  0  0999 V2000
   -4.4810    0.8440   -2.9980 C   0  0  0  0  0  0  0  0  0  0  0  0
   -3.9660    1.7000   -1.8510 C   0  0  0  0  0  0  0  0  0  0  0  0
   -4.0130    3.1710   -2.1780 C   0  0  0  0  0  0  0  0  0  0  0  0
   -4.2700    3.5540   -3.5080 C   0  0  0  0  0  0  0  0  0  0  0  0
   -4.3290    4.9060   -3.8900 C   0  0  0  0  0  0  0  0  0  0  0  0
   -4.5720    5.2190   -5.2970 C   0  0  0  0  0  0  0  0  0  0  0  0
   -4.2650    6.4370   -5.7780 N   0  0  0  0  0  0  0  0  0  0  0  0
   -4.6000    6.3560   -7.0770 N   0  0  0  0  0  0  0  0  0  0  0  0
   -5.1080    5.1520   -7.4470 C   0  0  0  0  0  0  0  0  0  0  0  0
   -5.5450    4.9510   -8.9130 C   0  0  0  0  0  0  0  0  0  0  0  0
   -6.7730    4.6530   -9.0380 O   0  0  0  0  0  0  0  0  0  0  0  0
   -4.6930    5.1030   -9.8290 O   0  0  0  0  0  0  0  0  0  0  0  0
   -5.1270    4.3670   -6.3160 C   0  0  0  0  0  0  0  0  0  0  0  0
   -5.6200    3.0040   -6.2090 C   0  0  0  0  0  0  0  0  0  0  0  0
   -6.8970    2.7400   -5.6710 C   0  0  0  0  0  0  0  0  0  0  0  0
   -7.4040    1.4360   -5.6150 C   0  0  0  0  0  0  0  0  0  0  0  0
   -6.6150    0.4240   -6.1110 C   0  0  0  0  0  0  0  0  0  0  0  0
   -5.3690    0.6700   -6.6380 C   0  0  0  0  0  0  0  0  0  0  0  0
   -4.8440    1.9440   -6.7030 C   0  0  0  0  0  0  0  0  0  0  0  0
   -4.7540   -0.4650   -7.0700 O   0  0  0  0  0  0  0  0  0  0  0  0
   -5.7490   -1.4520   -6.7330 C   0  0  0  0  0  0  0  0  0  0  0  0
   -6.9420   -0.8970   -6.1440 O   0  0  0  0  0  0  0  0  0  0  0  0
   -4.1530    5.8900   -2.9110 C   0  0  0  0  0  0  0  0  0  0  0  0
   -4.2350    7.2340   -3.1560 O   0  0  0  0  0  0  0  0  0  0  0  0
   -3.9010    5.5280   -1.5870 C   0  0  0  0  0  0  0  0  0  0  0  0
   -3.8350    4.1830   -1.2270 C   0  0  0  0  0  0  0  0  0  0  0  0
   -3.5970    3.9290    0.0950 O   0  0  0  0  0  0  0  0  0  0  0  0
   -5.0083   -0.0325   -2.5934 H   0  0  0  0  0  0  0  0  0  0  0  0
   -5.1732    1.4357   -3.6151 H   0  0  0  0  0  0  0  0  0  0  0  0
   -3.6340    0.5097   -3.6151 H   0  0  0  0  0  0  0  0  0  0  0  0
   -4.5871    1.5138   -0.9624 H   0  0  0  0  0  0  0  0  0  0  0  0
   -2.9165    1.4263   -1.6677 H   0  0  0  0  0  0  0  0  0  0  0  0
   -4.4288    2.7752   -4.2684 H   0  0  0  0  0  0  0  0  0  0  0  0
   -4.4740    7.1510   -7.6980 H   0  0  0  0  0  0  0  0  0  0  0  0
   -7.5051    3.5731   -5.2888 H   0  0  0  0  0  0  0  0  0  0  0  0
   -8.3970    1.2283   -5.1899 H   0  0  0  0  0  0  0  0  0  0  0  0
   -3.8462    2.1239   -7.1296 H   0  0  0  0  0  0  0  0  0  0  0  0
   -6.0321   -1.9869   -7.6515 H   0  0  0  0  0  0  0  0  0  0  0  0
   -5.2994   -2.1168   -5.9807 H   0  0  0  0  0  0  0  0  0  0  0  0
   -4.1970    7.7070   -2.3050 H   0  0  0  0  0  0  0  0  0  0  0  0
   -3.7539    6.3071   -0.8245 H   0  0  0  0  0  0  0  0  0  0  0  0
   -4.2490    3.2910    0.4180 H   0  0  0  0  0  0  0  0  0  0  0  0
  1  2  1  0
  2  3  1  0
  3  4  2  0
  4  5  1  0
  5  6  1  0
  6  7  2  0
  7  8  1  0
  8  9  1  0
  9 10  1  0
 10 11  2  0
 10 12  1  0
  9 13  2  0
 13 14  1  0
 14 15  2  0
 15 16  1  0
 16 17  2  0
 17 18  1  0
 18 19  2  0
 18 20  1  0
 20 21  1  0
 21 22  1  0
  5 23  2  0
 23 24  1  0
 23 25  1  0
 25 26  2  0
 26 27  1  0
 26  3  1  0
 13  6  1  0
 19 14  1  0
 22 17  1  0
  1 28  1  0
  1 29  1  0
  1 30  1  0
  2 31  1  0
  2 32  1  0
  4 33  1  0
  8 34  1  0
 15 35  1  0
 16 36  1  0
 19 37  1  0
 21 38  1  0
 21 39  1  0
 24 40  1  0
 25 41  1  0
 27 42  1  0
M  CHG  1  12  -1
M  END
>  <meeko>  (7) 
{"is_sidechain": [false], "free_energy": -7.096, "intermolecular_energy": -9.048, "internal_energy": -1.384}

$$$$
1yc1_ligand
     RDKit          3D

 42 45  0  0  0  0  0  0  0  0999 V2000
   -0.4900    2.4190   -0.4060 C   0  0  0  0  0  0  0  0  0  0  0  0
   -1.3530    1.2360   -0.8170 C   0  0  0  0  0  0  0  0  0  0  0  0
   -2.7520    1.6590   -1.1880 C   0  0  0  0  0  0  0  0  0  0  0  0
   -2.9220    2.5270   -2.2830 C   0  0  0  0  0  0  0  0  0  0  0  0
   -4.1950    2.9640   -2.6890 C   0  0  0  0  0  0  0  0  0  0  0  0
   -4.2830    3.8880   -3.8180 C   0  0  0  0  0  0  0  0  0  0  0  0
   -3.9740    5.1860   -3.6510 N   0  0  0  0  0  0  0  0  0  0  0  0
   -4.1480    5.7120   -4.8760 N   0  0  0  0  0  0  0  0  0  0  0  0
   -4.5570    4.8170   -5.8120 C   0  0  0  0  0  0  0  0  0  0  0  0
   -4.8090    5.3130   -7.2520 C   0  0  0  0  0  0  0  0  0  0  0  0
   -5.5920    6.3090   -7.3130 O   0  0  0  0  0  0  0  0  0  0  0  0
   -4.2340    4.7250   -8.2080 O   0  0  0  0  0  0  0  0  0  0  0  0
   -4.6760    3.6030   -5.1730 C   0  0  0  0  0  0  0  0  0  0  0  0
   -5.1190    2.3490   -5.7590 C   0  0  0  0  0  0  0  0  0  0  0  0
   -4.1910    1.4500   -6.3250 C   0  0  0  0  0  0  0  0  0  0  0  0
   -4.6000    0.2150   -6.8420 C   0  0  0  0  0  0  0  0  0  0  0  0
   -5.9400   -0.0920   -6.7710 C   0  0  0  0  0  0  0  0  0  0  0  0
   -6.8530    0.7770   -6.2220 C   0  0  0  0  0  0  0  0  0  0  0  0
   -6.4780    2.0000   -5.7080 C   0  0  0  0  0  0  0  0  0  0  0  0
   -8.1220    0.2830   -6.2510 O   0  0  0  0  0  0  0  0  0  0  0  0
   -7.9000   -0.9840   -6.9020 C   0  0  0  0  0  0  0  0  0  0  0  0
   -6.5170   -1.2410   -7.2160 O   0  0  0  0  0  0  0  0  0  0  0  0
   -5.3180    2.5000   -1.9960 C   0  0  0  0  0  0  0  0  0  0  0  0
   -6.6070    2.8200   -2.3290 O   0  0  0  0  0  0  0  0  0  0  0  0
   -5.1680    1.6370   -0.9110 C   0  0  0  0  0  0  0  0  0  0  0  0
   -3.8990    1.2200   -0.5140 C   0  0  0  0  0  0  0  0  0  0  0  0
   -3.8550    0.3650    0.5510 O   0  0  0  0  0  0  0  0  0  0  0  0
   -0.4471    2.4778    0.6916 H   0  0  0  0  0  0  0  0  0  0  0  0
    0.5262    2.2881   -0.8062 H   0  0  0  0  0  0  0  0  0  0  0  0
   -0.9250    3.3467   -0.8062 H   0  0  0  0  0  0  0  0  0  0  0  0
   -0.8895    0.7426   -1.6840 H   0  0  0  0  0  0  0  0  0  0  0  0
   -1.4215    0.5511    0.0411 H   0  0  0  0  0  0  0  0  0  0  0  0
   -2.0357    2.8724   -2.8354 H   0  0  0  0  0  0  0  0  0  0  0  0
   -3.9840    6.7000   -5.0470 H   0  0  0  0  0  0  0  0  0  0  0  0
   -3.1264    1.7244   -6.3608 H   0  0  0  0  0  0  0  0  0  0  0  0
   -3.8775   -0.4841   -7.2884 H   0  0  0  0  0  0  0  0  0  0  0  0
   -7.2217    2.6824   -5.2707 H   0  0  0  0  0  0  0  0  0  0  0  0
   -8.2593   -1.7834   -6.2372 H   0  0  0  0  0  0  0  0  0  0  0  0
   -8.4456   -0.9542   -7.8567 H   0  0  0  0  0  0  0  0  0  0  0  0
   -7.1630    2.7380   -1.5330 H   0  0  0  0  0  0  0  0  0  0  0  0
   -6.0557    1.2837   -0.3659 H   0  0  0  0  0  0  0  0  0  0  0  0
   -4.5100   -0.3360    0.4230 H   0  0  0  0  0  0  0  0  0  0  0  0
  1  2  1  0
  2  3  1  0
  3  4  2  0
  4  5  1  0
  5  6  1  0
  6  7  2  0
  7  8  1  0
  8  9  1  0
  9 10  1  0
 10 11  2  0
 10 12  1  0
  9 13  2  0
 13 14  1  0
 14 15  2  0
 15 16  1  0
 16 17  2  0
 17 18  1  0
 18 19  2  0
 18 20  1  0
 20 21  1  0
 21 22  1  0
  5 23  2  0
 23 24  1  0
 23 25  1  0
 25 26  2  0
 26 27  1  0
 26  3  1  0
 13  6  1  0
 19 14  1  0
 22 17  1  0
  1 28  1  0
  1 29  1  0
  1 30  1  0
  2 31  1  0
  2 32  1  0
  4 33  1  0
  8 34  1  0
 15 35  1  0
 16 36  1  0
 19 37  1  0
 21 38  1  0
 21 39  1  0
 24 40  1  0
 25 41  1  0
 27 42  1  0
M  CHG  1  12  -1
M  END
>  <meeko>  (8) 
{"is_sidechain": [false], "free_energy": -7.001, "intermolecular_energy": -8.873, "internal_energy": -1.436}

$$$$
1yc1_ligand
     RDKit          3D

 42 45  0  0  0  0  0  0  0  0999 V2000
   -1.3460    3.8490   -0.0850 C   0  0  0  0  0  0  0  0  0  0  0  0
   -2.3220    4.9960    0.1310 C   0  0  0  0  0  0  0  0  0  0  0  0
   -3.6390    4.7560   -0.5620 C   0  0  0  0  0  0  0  0  0  0  0  0
   -3.6850    3.8120   -1.6060 C   0  0  0  0  0  0  0  0  0  0  0  0
   -4.8760    3.5340   -2.2990 C   0  0  0  0  0  0  0  0  0  0  0  0
   -4.8320    2.5610   -3.3890 C   0  0  0  0  0  0  0  0  0  0  0  0
   -4.6270    1.2600   -3.1210 N   0  0  0  0  0  0  0  0  0  0  0  0
   -4.6670    0.6780   -4.3320 N   0  0  0  0  0  0  0  0  0  0  0  0
   -4.8810    1.5430   -5.3570 C   0  0  0  0  0  0  0  0  0  0  0  0
   -4.9260    0.9890   -6.7970 C   0  0  0  0  0  0  0  0  0  0  0  0
   -3.8880    1.2580   -7.4750 O   0  0  0  0  0  0  0  0  0  0  0  0
   -5.9380    0.3340   -7.1660 O   0  0  0  0  0  0  0  0  0  0  0  0
   -4.9840    2.7980   -4.8000 C   0  0  0  0  0  0  0  0  0  0  0  0
   -5.1810    4.0520   -5.5090 C   0  0  0  0  0  0  0  0  0  0  0  0
   -4.1110    4.9560   -5.6840 C   0  0  0  0  0  0  0  0  0  0  0  0
   -4.2750    6.1390   -6.4130 C   0  0  0  0  0  0  0  0  0  0  0  0
   -5.5150    6.3860   -6.9570 C   0  0  0  0  0  0  0  0  0  0  0  0
   -6.5640    5.5120   -6.7920 C   0  0  0  0  0  0  0  0  0  0  0  0
   -6.4310    4.3400   -6.0770 C   0  0  0  0  0  0  0  0  0  0  0  0
   -7.7000    5.9430   -7.4060 O   0  0  0  0  0  0  0  0  0  0  0  0
   -7.2470    7.1960   -7.9550 C   0  0  0  0  0  0  0  0  0  0  0  0
   -5.8580    7.4770   -7.6940 O   0  0  0  0  0  0  0  0  0  0  0  0
   -6.0470    4.1980   -1.9170 C   0  0  0  0  0  0  0  0  0  0  0  0
   -7.2710    3.9750   -2.4880 O   0  0  0  0  0  0  0  0  0  0  0  0
   -6.0200    5.1330   -0.8830 C   0  0  0  0  0  0  0  0  0  0  0  0
   -4.8290    5.4060   -0.2130 C   0  0  0  0  0  0  0  0  0  0  0  0
   -4.9060    6.3270    0.7940 O   0  0  0  0  0  0  0  0  0  0  0  0
   -1.0154    3.4604    0.8895 H   0  0  0  0  0  0  0  0  0  0  0  0
   -1.8425    3.0466   -0.6503 H   0  0  0  0  0  0  0  0  0  0  0  0
   -0.4745    4.2107   -0.6503 H   0  0  0  0  0  0  0  0  0  0  0  0
   -2.5040    5.1088    1.2100 H   0  0  0  0  0  0  0  0  0  0  0  0
   -1.8753    5.9065   -0.2950 H   0  0  0  0  0  0  0  0  0  0  0  0
   -2.7650    3.2783   -1.8865 H   0  0  0  0  0  0  0  0  0  0  0  0
   -4.5380   -0.3250   -4.4340 H   0  0  0  0  0  0  0  0  0  0  0  0
   -3.1313    4.7264   -5.2396 H   0  0  0  0  0  0  0  0  0  0  0  0
   -3.4430    6.8461   -6.5465 H   0  0  0  0  0  0  0  0  0  0  0  0
   -7.2802    3.6514   -5.9557 H   0  0  0  0  0  0  0  0  0  0  0  0
   -7.3972    7.1718   -9.0444 H   0  0  0  0  0  0  0  0  0  0  0  0
   -7.8317    7.9897   -7.4669 H   0  0  0  0  0  0  0  0  0  0  0  0
   -7.6170    4.8230   -2.8220 H   0  0  0  0  0  0  0  0  0  0  0  0
   -6.9430    5.6575   -0.5948 H   0  0  0  0  0  0  0  0  0  0  0  0
   -4.0190    6.4930    1.1420 H   0  0  0  0  0  0  0  0  0  0  0  0
  1  2  1  0
  2  3  1  0
  3  4  2  0
  4  5  1  0
  5  6  1  0
  6  7  2  0
  7  8  1  0
  8  9  1  0
  9 10  1  0
 10 11  2  0
 10 12  1  0
  9 13  2  0
 13 14  1  0
 14 15  2  0
 15 16  1  0
 16 17  2  0
 17 18  1  0
 18 19  2  0
 18 20  1  0
 20 21  1  0
 21 22  1  0
  5 23  2  0
 23 24  1  0
 23 25  1  0
 25 26  2  0
 26 27  1  0
 26  3  1  0
 13  6  1  0
 19 14  1  0
 22 17  1  0
  1 28  1  0
  1 29  1  0
  1 30  1  0
  2 31  1  0
  2 32  1  0
  4 33  1  0
  8 34  1  0
 15 35  1  0
 16 36  1  0
 19 37  1  0
 21 38  1  0
 21 39  1  0
 24 40  1  0
 25 41  1  0
 27 42  1  0
M  CHG  1  12  -1
M  END
>  <meeko>  (9) 
{"is_sidechain": [false], "free_energy": -6.945, "intermolecular_energy": -8.857, "internal_energy": -1.38}

$$$$
