
     RDKit          3D

 24 25  0  0  0  0  0  0  0  0999 V2000
    5.3710   -6.5190    1.9160 O   0  0  0  0  0  0  0  0  0  0  0  0
    4.3690   -6.8460    2.5440 C   0  0  0  0  0  0  0  0  0  0  0  0
    4.4690   -7.1640    4.0330 C   0  0  0  0  0  0  0  0  0  0  0  0
    4.2690   -8.6640    4.2990 C   0  0  0  0  0  0  0  0  0  0  0  0
    5.4910   -9.5160    3.9020 C   0  0  0  0  0  0  0  0  0  0  0  0
    5.3900  -10.9770    4.3590 C   0  0  0  0  0  0  0  0  0  0  0  0
    5.1030  -12.0200    3.2190 C   0  0  0  0  0  0  0  0  0  0  0  0
    5.4590  -11.5360    1.8370 C   0  0  0  0  0  0  0  0  0  0  0  0
    4.3720  -11.0280    1.0890 C   0  0  0  0  0  0  0  0  0  0  0  0
    4.5130  -10.7290   -0.3570 C   0  0  0  0  0  0  0  0  0  0  0  0
    3.2750   -9.9940   -0.7970 C   0  0  0  0  0  0  0  0  0  0  0  0
    3.3760   -8.6330   -0.3810 O   0  0  0  0  0  0  0  0  0  0  0  0
    2.5500   -7.7550   -0.9420 C   0  0  0  0  0  0  0  0  0  0  0  0
    1.7280   -8.0960   -1.7600 O   0  0  0  0  0  0  0  0  0  0  0  0
    2.7280   -6.3390   -0.5690 C   0  0  0  0  0  0  0  0  0  0  0  0
    2.7110   -5.3700   -1.6090 C   0  0  0  0  0  0  0  0  0  0  0  0
    2.5320   -5.7970   -2.8760 O   0  0  0  0  0  0  0  0  0  0  0  0
    2.8770   -4.0240   -1.3330 C   0  0  0  0  0  0  0  0  0  0  0  0
    3.0580   -3.5950   -0.0220 C   0  0  0  0  0  0  0  0  0  0  0  0
    3.2330   -2.2730    0.2360 O   0  0  0  0  0  0  0  0  0  0  0  0
    3.0810   -4.5220    1.0310 C   0  0  0  0  0  0  0  0  0  0  0  0
    3.2900   -3.9440    2.6450 Cl  0  0  0  0  0  0  0  0  0  0  0  0
    2.9300   -5.8950    0.7630 C   0  0  0  0  0  0  0  0  0  0  0  0
    3.0290   -6.8760    1.9090 C   0  0  0  0  0  0  0  0  0  0  0  0
  2  1  2  0
  3  2  1  0
  4  3  1  0
  5  4  1  0
  6  5  1  0
  7  6  1  0
  8  7  1  0
  9  8  2  3
 10  9  1  0
 11 10  1  0
 12 11  1  0
 13 12  1  0
 14 13  2  0
 15 13  1  0
 16 15  2  0
 17 16  1  0
 18 16  1  0
 19 18  2  0
 20 19  1  0
 21 19  1  0
 22 21  1  0
 23 15  1  0
 23 21  2  0
 24 23  1  0
 24  2  1  0
M  END
$$$$
