3up2_ligand
     RDKit          3D

 40 42  0  0  0  0  0  0  0  0999 V2000
   -1.1960    5.2340    9.1600 O   0  0  0  0  0  0  0  0  0  0  0  0
   -0.0170    5.6100    9.4550 C   0  0  0  0  0  0  0  0  0  0  0  0
    0.3170    6.7760    9.8330 O   0  0  0  0  0  0  0  0  0  0  0  0
    1.0850    4.5730    9.3470 C   0  0  0  0  0  0  0  0  0  0  0  0
    1.5470    4.1320    8.0990 C   0  0  0  0  0  0  0  0  0  0  0  0
    2.5660    3.1720    7.9990 C   0  0  0  0  0  0  0  0  0  0  0  0
    3.1570    2.6230    9.1400 C   0  0  0  0  0  0  0  0  0  0  0  0
    4.1750    1.6610    9.1120 N   0  0  0  0  0  0  0  0  0  0  0  0
    5.5610    1.7150    9.0430 C   0  0  0  0  0  0  0  0  0  0  0  0
    6.3440    0.8000    9.6280 N   0  0  0  0  0  0  0  0  0  0  0  0
    7.6700    0.9480    9.4960 C   0  0  0  0  0  0  0  0  0  0  0  0
    8.2460    1.9730    8.7940 C   0  0  0  0  0  0  0  0  0  0  0  0
    7.3820    2.8770    8.2130 C   0  0  0  0  0  0  0  0  0  0  0  0
    7.9510    3.9530    7.4890 N   0  0  0  0  0  0  0  0  0  0  0  0
    9.0120    4.8110    7.8830 C   0  0  0  0  0  0  0  0  0  0  0  0
    8.9200    5.6300    9.0160 C   0  0  0  0  0  0  0  0  0  0  0  0
    9.9950    6.4240    9.4150 C   0  0  0  0  0  0  0  0  0  0  0  0
   11.1860    6.3910    8.6980 C   0  0  0  0  0  0  0  0  0  0  0  0
   11.3110    5.5590    7.5830 C   0  0  0  0  0  0  0  0  0  0  0  0
   10.2370    4.7590    7.1770 C   0  0  0  0  0  0  0  0  0  0  0  0
   10.2450    3.9010    6.1050 O   0  0  0  0  0  0  0  0  0  0  0  0
   10.9650    2.6880    6.2370 C   0  0  0  0  0  0  0  0  0  0  0  0
   11.5020    2.5670    7.4700 F   0  0  0  0  0  0  0  0  0  0  0  0
   10.1060    1.6590    6.0550 F   0  0  0  0  0  0  0  0  0  0  0  0
   11.9370    2.5890    5.3070 F   0  0  0  0  0  0  0  0  0  0  0  0
    6.0500    2.7530    8.3420 N   0  0  0  0  0  0  0  0  0  0  0  0
    2.6910    3.0650   10.3890 C   0  0  0  0  0  0  0  0  0  0  0  0
    1.6740    4.0220   10.4920 C   0  0  0  0  0  0  0  0  0  0  0  0
    1.1029    4.5458    7.1816 H   0  0  0  0  0  0  0  0  0  0  0  0
    2.9054    2.8460    7.0048 H   0  0  0  0  0  0  0  0  0  0  0  0
    3.8810    0.6990    9.1730 H   0  0  0  0  0  0  0  0  0  0  0  0
    8.3284    0.2088    9.9758 H   0  0  0  0  0  0  0  0  0  0  0  0
    9.3376    2.0698    8.6989 H   0  0  0  0  0  0  0  0  0  0  0  0
    7.2180    4.4960    7.0420 H   0  0  0  0  0  0  0  0  0  0  0  0
    7.9872    5.6470    9.5988 H   0  0  0  0  0  0  0  0  0  0  0  0
    9.9008    7.0758   10.2961 H   0  0  0  0  0  0  0  0  0  0  0  0
   12.0317    7.0216    9.0096 H   0  0  0  0  0  0  0  0  0  0  0  0
   12.2569    5.5325    7.0221 H   0  0  0  0  0  0  0  0  0  0  0  0
    3.1346    2.6504   11.3062 H   0  0  0  0  0  0  0  0  0  0  0  0
    1.3328    4.3456   11.4864 H   0  0  0  0  0  0  0  0  0  0  0  0
  1  2  2  0
  2  3  1  0
  2  4  1  0
  4  5  2  0
  5  6  1  0
  6  7  2  0
  7  8  1  0
  8  9  1  0
  9 10  2  0
 10 11  1  0
 11 12  2  0
 12 13  1  0
 13 14  1  0
 14 15  1  0
 15 16  2  0
 16 17  1  0
 17 18  2  0
 18 19  1  0
 19 20  2  0
 20 21  1  0
 21 22  1  0
 22 23  1  0
 22 24  1  0
 22 25  1  0
 13 26  2  0
  7 27  1  0
 27 28  2  0
 28  4  1  0
 26  9  1  0
 20 15  1  0
  5 29  1  0
  6 30  1  0
  8 31  1  0
 11 32  1  0
 12 33  1  0
 14 34  1  0
 16 35  1  0
 17 36  1  0
 18 37  1  0
 19 38  1  0
 27 39  1  0
 28 40  1  0
M  CHG  1   3  -1
M  END
>  <meeko>  (1) 
{"is_sidechain": [false], "free_energy": -8.208, "intermolecular_energy": -11.566, "internal_energy": -1.22}

$$$$
3up2_ligand
     RDKit          3D

 40 42  0  0  0  0  0  0  0  0999 V2000
   -1.6140    6.0380    8.5710 O   0  0  0  0  0  0  0  0  0  0  0  0
   -1.5400    4.8330    8.9740 C   0  0  0  0  0  0  0  0  0  0  0  0
   -2.5060    4.1390    9.4200 O   0  0  0  0  0  0  0  0  0  0  0  0
   -0.1770    4.1700    8.9160 C   0  0  0  0  0  0  0  0  0  0  0  0
    0.6910    4.1930   10.0170 C   0  0  0  0  0  0  0  0  0  0  0  0
    1.9520    3.5800    9.9620 C   0  0  0  0  0  0  0  0  0  0  0  0
    2.3870    2.9230    8.8090 C   0  0  0  0  0  0  0  0  0  0  0  0
    3.6320    2.2940    8.6860 N   0  0  0  0  0  0  0  0  0  0  0  0
    4.8930    2.5190    9.2260 C   0  0  0  0  0  0  0  0  0  0  0  0
    5.1520    2.3600   10.5300 N   0  0  0  0  0  0  0  0  0  0  0  0
    6.4030    2.6020   10.9440 C   0  0  0  0  0  0  0  0  0  0  0  0
    7.4120    2.9900   10.1020 C   0  0  0  0  0  0  0  0  0  0  0  0
    7.0780    3.1290    8.7720 C   0  0  0  0  0  0  0  0  0  0  0  0
    8.0980    3.5390    7.8800 N   0  0  0  0  0  0  0  0  0  0  0  0
    9.1600    4.4510    8.1220 C   0  0  0  0  0  0  0  0  0  0  0  0
    8.9390    5.7070    8.7020 C   0  0  0  0  0  0  0  0  0  0  0  0
   10.0030    6.5640    8.9810 C   0  0  0  0  0  0  0  0  0  0  0  0
   11.3060    6.1660    8.7030 C   0  0  0  0  0  0  0  0  0  0  0  0
   11.5530    4.9070    8.1530 C   0  0  0  0  0  0  0  0  0  0  0  0
   10.4910    4.0410    7.8710 C   0  0  0  0  0  0  0  0  0  0  0  0
   10.6110    2.7800    7.3380 O   0  0  0  0  0  0  0  0  0  0  0  0
   11.0070    2.6740    5.9830 C   0  0  0  0  0  0  0  0  0  0  0  0
   12.1150    1.9140    5.8520 F   0  0  0  0  0  0  0  0  0  0  0  0
   10.0100    2.0770    5.2910 F   0  0  0  0  0  0  0  0  0  0  0  0
   11.2230    3.8890    5.4370 F   0  0  0  0  0  0  0  0  0  0  0  0
    5.8260    2.9020    8.3380 N   0  0  0  0  0  0  0  0  0  0  0  0
    1.5170    2.9020    7.7070 C   0  0  0  0  0  0  0  0  0  0  0  0
    0.2590    3.5140    7.7580 C   0  0  0  0  0  0  0  0  0  0  0  0
    0.3776    4.7010   10.9410 H   0  0  0  0  0  0  0  0  0  0  0  0
    2.6097    3.6176   10.8429 H   0  0  0  0  0  0  0  0  0  0  0  0
    3.6630    1.4760    8.0970 H   0  0  0  0  0  0  0  0  0  0  0  0
    6.6316    2.4833   12.0134 H   0  0  0  0  0  0  0  0  0  0  0  0
    8.4320    3.1800   10.4673 H   0  0  0  0  0  0  0  0  0  0  0  0
    7.7070    3.7050    6.9570 H   0  0  0  0  0  0  0  0  0  0  0  0
    7.9122    6.0214    8.9405 H   0  0  0  0  0  0  0  0  0  0  0  0
    9.8117    7.5540    9.4206 H   0  0  0  0  0  0  0  0  0  0  0  0
   12.1444    6.8451    8.9171 H   0  0  0  0  0  0  0  0  0  0  0  0
   12.5861    4.5947    7.9406 H   0  0  0  0  0  0  0  0  0  0  0  0
    1.8308    2.3935    6.7834 H   0  0  0  0  0  0  0  0  0  0  0  0
   -0.3967    3.4791    6.8755 H   0  0  0  0  0  0  0  0  0  0  0  0
  1  2  2  0
  2  3  1  0
  2  4  1  0
  4  5  2  0
  5  6  1  0
  6  7  2  0
  7  8  1  0
  8  9  1  0
  9 10  2  0
 10 11  1  0
 11 12  2  0
 12 13  1  0
 13 14  1  0
 14 15  1  0
 15 16  2  0
 16 17  1  0
 17 18  2  0
 18 19  1  0
 19 20  2  0
 20 21  1  0
 21 22  1  0
 22 23  1  0
 22 24  1  0
 22 25  1  0
 13 26  2  0
  7 27  1  0
 27 28  2  0
 28  4  1  0
 26  9  1  0
 20 15  1  0
  5 29  1  0
  6 30  1  0
  8 31  1  0
 11 32  1  0
 12 33  1  0
 14 34  1  0
 16 35  1  0
 17 36  1  0
 18 37  1  0
 19 38  1  0
 27 39  1  0
 28 40  1  0
M  CHG  1   3  -1
M  END
>  <meeko>  (2) 
{"is_sidechain": [false], "free_energy": -8.175, "intermolecular_energy": -12.034, "internal_energy": -0.707}

$$$$
3up2_ligand
     RDKit          3D

 40 42  0  0  0  0  0  0  0  0999 V2000
   -1.4760    2.7970   12.2490 O   0  0  0  0  0  0  0  0  0  0  0  0
   -0.6220    1.8560   12.1900 C   0  0  0  0  0  0  0  0  0  0  0  0
   -0.6890    0.7530   12.8170 O   0  0  0  0  0  0  0  0  0  0  0  0
    0.5800    2.0700   11.2900 C   0  0  0  0  0  0  0  0  0  0  0  0
    0.7100    1.3820   10.0760 C   0  0  0  0  0  0  0  0  0  0  0  0
    1.8230    1.5800    9.2430 C   0  0  0  0  0  0  0  0  0  0  0  0
    2.8400    2.4710    9.5950 C   0  0  0  0  0  0  0  0  0  0  0  0
    3.9760    2.7140    8.8140 N   0  0  0  0  0  0  0  0  0  0  0  0
    5.3060    2.3170    8.8830 C   0  0  0  0  0  0  0  0  0  0  0  0
    5.7120    1.3070    9.6610 N   0  0  0  0  0  0  0  0  0  0  0  0
    7.0180    1.0050    9.6500 C   0  0  0  0  0  0  0  0  0  0  0  0
    7.9370    1.6720    8.8830 C   0  0  0  0  0  0  0  0  0  0  0  0
    7.4500    2.6980    8.1010 C   0  0  0  0  0  0  0  0  0  0  0  0
    8.3790    3.4100    7.3040 N   0  0  0  0  0  0  0  0  0  0  0  0
    9.3320    4.3780    7.7220 C   0  0  0  0  0  0  0  0  0  0  0  0
    9.0660    5.2760    8.7640 C   0  0  0  0  0  0  0  0  0  0  0  0
   10.0360    6.1810    9.1930 C   0  0  0  0  0  0  0  0  0  0  0  0
   11.2940    6.1840    8.6010 C   0  0  0  0  0  0  0  0  0  0  0  0
   11.5920    5.2770    7.5820 C   0  0  0  0  0  0  0  0  0  0  0  0
   10.6240    4.3650    7.1450 C   0  0  0  0  0  0  0  0  0  0  0  0
   10.8020    3.4260    6.1590 O   0  0  0  0  0  0  0  0  0  0  0  0
   11.5200    2.2510    6.4910 C   0  0  0  0  0  0  0  0  0  0  0  0
   12.1490    2.3770    7.6790 F   0  0  0  0  0  0  0  0  0  0  0  0
   10.6410    1.2270    6.5930 F   0  0  0  0  0  0  0  0  0  0  0  0
   12.4170    1.9360    5.5340 F   0  0  0  0  0  0  0  0  0  0  0  0
    6.1450    3.0230    8.1050 N   0  0  0  0  0  0  0  0  0  0  0  0
    2.7080    3.1580   10.8130 C   0  0  0  0  0  0  0  0  0  0  0  0
    1.6000    2.9620   11.6460 C   0  0  0  0  0  0  0  0  0  0  0  0
   -0.0742    0.6739    9.7700 H   0  0  0  0  0  0  0  0  0  0  0  0
    1.8954    1.0238    8.2967 H   0  0  0  0  0  0  0  0  0  0  0  0
    3.8420    3.2860    7.9940 H   0  0  0  0  0  0  0  0  0  0  0  0
    7.3694    0.1809   10.2883 H   0  0  0  0  0  0  0  0  0  0  0  0
    9.0038    1.4039    8.8907 H   0  0  0  0  0  0  0  0  0  0  0  0
    7.9350    3.7150    6.4420 H   0  0  0  0  0  0  0  0  0  0  0  0
    8.0792    5.2669    9.2499 H   0  0  0  0  0  0  0  0  0  0  0  0
    9.8060    6.8925    9.9997 H   0  0  0  0  0  0  0  0  0  0  0  0
   12.0564    6.9026    8.9362 H   0  0  0  0  0  0  0  0  0  0  0  0
   12.5908    5.2791    7.1211 H   0  0  0  0  0  0  0  0  0  0  0  0
    3.4925    3.8657   11.1191 H   0  0  0  0  0  0  0  0  0  0  0  0
    1.5293    3.5163   12.5935 H   0  0  0  0  0  0  0  0  0  0  0  0
  1  2  2  0
  2  3  1  0
  2  4  1  0
  4  5  2  0
  5  6  1  0
  6  7  2  0
  7  8  1  0
  8  9  1  0
  9 10  2  0
 10 11  1  0
 11 12  2  0
 12 13  1  0
 13 14  1  0
 14 15  1  0
 15 16  2  0
 16 17  1  0
 17 18  2  0
 18 19  1  0
 19 20  2  0
 20 21  1  0
 21 22  1  0
 22 23  1  0
 22 24  1  0
 22 25  1  0
 13 26  2  0
  7 27  1  0
 27 28  2  0
 28  4  1  0
 26  9  1  0
 20 15  1  0
  5 29  1  0
  6 30  1  0
  8 31  1  0
 11 32  1  0
 12 33  1  0
 14 34  1  0
 16 35  1  0
 17 36  1  0
 18 37  1  0
 19 38  1  0
 27 39  1  0
 28 40  1  0
M  CHG  1   3  -1
M  END
>  <meeko>  (3) 
{"is_sidechain": [false], "free_energy": -7.999, "intermolecular_energy": -11.53, "internal_energy": -0.963}

$$$$
3up2_ligand
     RDKit          3D

 40 42  0  0  0  0  0  0  0  0999 V2000
   -2.4620    4.1280    9.2280 O   0  0  0  0  0  0  0  0  0  0  0  0
   -1.4770    4.7180    8.6780 C   0  0  0  0  0  0  0  0  0  0  0  0
   -1.5210    5.8420    8.0890 O   0  0  0  0  0  0  0  0  0  0  0  0
   -0.1340    4.0150    8.7320 C   0  0  0  0  0  0  0  0  0  0  0  0
    0.2430    3.0910    7.7480 C   0  0  0  0  0  0  0  0  0  0  0  0
    1.4850    2.4400    7.7990 C   0  0  0  0  0  0  0  0  0  0  0  0
    2.3910    2.6900    8.8320 C   0  0  0  0  0  0  0  0  0  0  0  0
    3.6440    2.0750    8.9450 N   0  0  0  0  0  0  0  0  0  0  0  0
    4.9030    2.5010    9.3480 C   0  0  0  0  0  0  0  0  0  0  0  0
    5.2230    2.6740   10.6360 N   0  0  0  0  0  0  0  0  0  0  0  0
    6.4680    3.0870   10.9130 C   0  0  0  0  0  0  0  0  0  0  0  0
    7.4120    3.3270    9.9500 C   0  0  0  0  0  0  0  0  0  0  0  0
    7.0170    3.1250    8.6440 C   0  0  0  0  0  0  0  0  0  0  0  0
    7.9700    3.3750    7.6270 N   0  0  0  0  0  0  0  0  0  0  0  0
    9.2880    2.8590    7.5140 C   0  0  0  0  0  0  0  0  0  0  0  0
    9.5510    1.4830    7.5630 C   0  0  0  0  0  0  0  0  0  0  0  0
   10.8470    0.9960    7.3960 C   0  0  0  0  0  0  0  0  0  0  0  0
   11.8960    1.8780    7.1540 C   0  0  0  0  0  0  0  0  0  0  0  0
   11.6520    3.2510    7.0720 C   0  0  0  0  0  0  0  0  0  0  0  0
   10.3540    3.7480    7.2380 C   0  0  0  0  0  0  0  0  0  0  0  0
    9.9940    5.0720    7.1710 O   0  0  0  0  0  0  0  0  0  0  0  0
   10.4770    5.9370    8.1830 C   0  0  0  0  0  0  0  0  0  0  0  0
   11.7310    6.3590    7.9120 F   0  0  0  0  0  0  0  0  0  0  0  0
    9.6740    7.0240    8.2340 F   0  0  0  0  0  0  0  0  0  0  0  0
   10.4500    5.3420    9.3940 F   0  0  0  0  0  0  0  0  0  0  0  0
    5.7700    2.7210    8.3450 N   0  0  0  0  0  0  0  0  0  0  0  0
    2.0100    3.6140    9.8190 C   0  0  0  0  0  0  0  0  0  0  0  0
    0.7710    4.2650    9.7710 C   0  0  0  0  0  0  0  0  0  0  0  0
   -0.4476    2.8720    6.9203 H   0  0  0  0  0  0  0  0  0  0  0  0
    1.7499    1.7196    7.0110 H   0  0  0  0  0  0  0  0  0  0  0  0
    3.6830    1.0950    8.7110 H   0  0  0  0  0  0  0  0  0  0  0  0
    6.7453    3.2408   11.9663 H   0  0  0  0  0  0  0  0  0  0  0  0
    8.4284    3.6621   10.2040 H   0  0  0  0  0  0  0  0  0  0  0  0
    7.9650    4.3610    7.3810 H   0  0  0  0  0  0  0  0  0  0  0  0
    8.7243    0.7782    7.7354 H   0  0  0  0  0  0  0  0  0  0  0  0
   11.0402   -0.0853    7.4555 H   0  0  0  0  0  0  0  0  0  0  0  0
   12.9187    1.4934    7.0271 H   0  0  0  0  0  0  0  0  0  0  0  0
   12.4832    3.9444    6.8762 H   0  0  0  0  0  0  0  0  0  0  0  0
    2.7000    3.8310   10.6478 H   0  0  0  0  0  0  0  0  0  0  0  0
    0.5049    4.9830   10.5607 H   0  0  0  0  0  0  0  0  0  0  0  0
  1  2  2  0
  2  3  1  0
  2  4  1  0
  4  5  2  0
  5  6  1  0
  6  7  2  0
  7  8  1  0
  8  9  1  0
  9 10  2  0
 10 11  1  0
 11 12  2  0
 12 13  1  0
 13 14  1  0
 14 15  1  0
 15 16  2  0
 16 17  1  0
 17 18  2  0
 18 19  1  0
 19 20  2  0
 20 21  1  0
 21 22  1  0
 22 23  1  0
 22 24  1  0
 22 25  1  0
 13 26  2  0
  7 27  1  0
 27 28  2  0
 28  4  1  0
 26  9  1  0
 20 15  1  0
  5 29  1  0
  6 30  1  0
  8 31  1  0
 11 32  1  0
 12 33  1  0
 14 34  1  0
 16 35  1  0
 17 36  1  0
 18 37  1  0
 19 38  1  0
 27 39  1  0
 28 40  1  0
M  CHG  1   3  -1
M  END
>  <meeko>  (4) 
{"is_sidechain": [false], "free_energy": -7.892, "intermolecular_energy": -11.288, "internal_energy": -1.054}

$$$$
3up2_ligand
     RDKit          3D

 40 42  0  0  0  0  0  0  0  0999 V2000
   -2.8360   -5.7080   11.9900 O   0  0  0  0  0  0  0  0  0  0  0  0
   -3.5160   -4.6690   11.7120 C   0  0  0  0  0  0  0  0  0  0  0  0
   -4.7830   -4.5850   11.7290 O   0  0  0  0  0  0  0  0  0  0  0  0
   -2.7430   -3.4210   11.3290 C   0  0  0  0  0  0  0  0  0  0  0  0
   -1.8360   -3.4280   10.2600 C   0  0  0  0  0  0  0  0  0  0  0  0
   -1.1210   -2.2730    9.9060 C   0  0  0  0  0  0  0  0  0  0  0  0
   -1.2870   -1.0760   10.6060 C   0  0  0  0  0  0  0  0  0  0  0  0
   -0.6050    0.1100   10.3080 N   0  0  0  0  0  0  0  0  0  0  0  0
   -0.9630    1.3150    9.7170 C   0  0  0  0  0  0  0  0  0  0  0  0
   -0.7580    1.5650    8.4180 N   0  0  0  0  0  0  0  0  0  0  0  0
   -1.1440    2.7610    7.9510 C   0  0  0  0  0  0  0  0  0  0  0  0
   -1.7370    3.7170    8.7330 C   0  0  0  0  0  0  0  0  0  0  0  0
   -1.9220    3.3930   10.0600 C   0  0  0  0  0  0  0  0  0  0  0  0
   -2.5240    4.3670   10.8930 N   0  0  0  0  0  0  0  0  0  0  0  0
   -3.7560    5.0460   10.7000 C   0  0  0  0  0  0  0  0  0  0  0  0
   -3.8620    6.1610    9.8570 C   0  0  0  0  0  0  0  0  0  0  0  0
   -5.0930    6.7790    9.6400 C   0  0  0  0  0  0  0  0  0  0  0  0
   -6.2400    6.2750   10.2450 C   0  0  0  0  0  0  0  0  0  0  0  0
   -6.1630    5.1470   11.0640 C   0  0  0  0  0  0  0  0  0  0  0  0
   -4.9320    4.5210   11.2870 C   0  0  0  0  0  0  0  0  0  0  0  0
   -4.7350    3.4050   12.0640 O   0  0  0  0  0  0  0  0  0  0  0  0
   -5.2500    2.1740   11.5920 C   0  0  0  0  0  0  0  0  0  0  0  0
   -4.4780    1.1360   11.9790 F   0  0  0  0  0  0  0  0  0  0  0  0
   -6.4820    1.9950   12.1210 F   0  0  0  0  0  0  0  0  0  0  0  0
   -5.3700    2.1740   10.2480 F   0  0  0  0  0  0  0  0  0  0  0  0
   -1.5330    2.2030   10.5500 N   0  0  0  0  0  0  0  0  0  0  0  0
   -2.1950   -1.0730   11.6780 C   0  0  0  0  0  0  0  0  0  0  0  0
   -2.9100   -2.2220   12.0340 C   0  0  0  0  0  0  0  0  0  0  0  0
   -1.6819   -4.3551    9.6884 H   0  0  0  0  0  0  0  0  0  0  0  0
   -0.4170   -2.3115    9.0617 H   0  0  0  0  0  0  0  0  0  0  0  0
    0.3640    0.1500   10.5850 H   0  0  0  0  0  0  0  0  0  0  0  0
   -0.9763    2.9858    6.8874 H   0  0  0  0  0  0  0  0  0  0  0  0
   -2.0484    4.6897    8.3244 H   0  0  0  0  0  0  0  0  0  0  0  0
   -1.8210    5.0200   11.2280 H   0  0  0  0  0  0  0  0  0  0  0  0
   -2.9624    6.5535    9.3603 H   0  0  0  0  0  0  0  0  0  0  0  0
   -5.1572    7.6646    8.9907 H   0  0  0  0  0  0  0  0  0  0  0  0
   -7.2098    6.7664   10.0776 H   0  0  0  0  0  0  0  0  0  0  0  0
   -7.0736    4.7490   11.5357 H   0  0  0  0  0  0  0  0  0  0  0  0
   -2.3474   -0.1462   12.2506 H   0  0  0  0  0  0  0  0  0  0  0  0
   -3.6130   -2.1832   12.8792 H   0  0  0  0  0  0  0  0  0  0  0  0
  1  2  2  0
  2  3  1  0
  2  4  1  0
  4  5  2  0
  5  6  1  0
  6  7  2  0
  7  8  1  0
  8  9  1  0
  9 10  2  0
 10 11  1  0
 11 12  2  0
 12 13  1  0
 13 14  1  0
 14 15  1  0
 15 16  2  0
 16 17  1  0
 17 18  2  0
 18 19  1  0
 19 20  2  0
 20 21  1  0
 21 22  1  0
 22 23  1  0
 22 24  1  0
 22 25  1  0
 13 26  2  0
  7 27  1  0
 27 28  2  0
 28  4  1  0
 26  9  1  0
 20 15  1  0
  5 29  1  0
  6 30  1  0
  8 31  1  0
 11 32  1  0
 12 33  1  0
 14 34  1  0
 16 35  1  0
 17 36  1  0
 18 37  1  0
 19 38  1  0
 27 39  1  0
 28 40  1  0
M  CHG  1   3  -1
M  END
>  <meeko>  (5) 
{"is_sidechain": [false], "free_energy": -7.797, "intermolecular_energy": -10.892, "internal_energy": -1.315}

$$$$
3up2_ligand
     RDKit          3D

 40 42  0  0  0  0  0  0  0  0999 V2000
   -6.5180    7.0670   10.2490 O   0  0  0  0  0  0  0  0  0  0  0  0
   -5.3970    6.5760    9.9010 C   0  0  0  0  0  0  0  0  0  0  0  0
   -4.5940    7.0840    9.0580 O   0  0  0  0  0  0  0  0  0  0  0  0
   -4.9840    5.2700   10.5530 C   0  0  0  0  0  0  0  0  0  0  0  0
   -3.8710    5.2030   11.4030 C   0  0  0  0  0  0  0  0  0  0  0  0
   -3.4880    3.9950   12.0060 C   0  0  0  0  0  0  0  0  0  0  0  0
   -4.2040    2.8160   11.7820 C   0  0  0  0  0  0  0  0  0  0  0  0
   -3.8760    1.5780   12.3480 N   0  0  0  0  0  0  0  0  0  0  0  0
   -2.9440    0.5910   12.0520 C   0  0  0  0  0  0  0  0  0  0  0  0
   -2.7960   -0.5040   12.8080 N   0  0  0  0  0  0  0  0  0  0  0  0
   -1.8680   -1.3940   12.4300 C   0  0  0  0  0  0  0  0  0  0  0  0
   -1.0840   -1.2360   11.3180 C   0  0  0  0  0  0  0  0  0  0  0  0
   -1.2910   -0.0890   10.5820 C   0  0  0  0  0  0  0  0  0  0  0  0
   -0.4880    0.1050    9.4330 N   0  0  0  0  0  0  0  0  0  0  0  0
    0.6770    0.9080    9.3020 C   0  0  0  0  0  0  0  0  0  0  0  0
    1.9300    0.4720    9.7530 C   0  0  0  0  0  0  0  0  0  0  0  0
    3.0700    1.2540    9.5660 C   0  0  0  0  0  0  0  0  0  0  0  0
    2.9740    2.4730    8.9030 C   0  0  0  0  0  0  0  0  0  0  0  0
    1.7410    2.9140    8.4180 C   0  0  0  0  0  0  0  0  0  0  0  0
    0.5930    2.1350    8.6020 C   0  0  0  0  0  0  0  0  0  0  0  0
   -0.6680    2.4600    8.1650 O   0  0  0  0  0  0  0  0  0  0  0  0
   -1.3040    3.5770    8.7600 C   0  0  0  0  0  0  0  0  0  0  0  0
   -1.1820    4.6800    7.9920 F   0  0  0  0  0  0  0  0  0  0  0  0
   -2.6220    3.3020    8.8860 F   0  0  0  0  0  0  0  0  0  0  0  0
   -0.8100    3.8250    9.9920 F   0  0  0  0  0  0  0  0  0  0  0  0
   -2.2100    0.8210   10.9500 N   0  0  0  0  0  0  0  0  0  0  0  0
   -5.3170    2.8860   10.9280 C   0  0  0  0  0  0  0  0  0  0  0  0
   -5.7010    4.0890   10.3250 C   0  0  0  0  0  0  0  0  0  0  0  0
   -3.2872    6.1141   11.6009 H   0  0  0  0  0  0  0  0  0  0  0  0
   -2.6087    3.9759   12.6666 H   0  0  0  0  0  0  0  0  0  0  0  0
   -4.3960    1.3110   13.1690 H   0  0  0  0  0  0  0  0  0  0  0  0
   -1.7290   -2.2964   13.0434 H   0  0  0  0  0  0  0  0  0  0  0  0
   -0.3306   -1.9833   11.0282 H   0  0  0  0  0  0  0  0  0  0  0  0
   -1.0770    0.2190    8.6120 H   0  0  0  0  0  0  0  0  0  0  0  0
    2.0158   -0.4998   10.2612 H   0  0  0  0  0  0  0  0  0  0  0  0
    4.0436    0.9070    9.9424 H   0  0  0  0  0  0  0  0  0  0  0  0
    3.8723    3.0916    8.7603 H   0  0  0  0  0  0  0  0  0  0  0  0
    1.6719    3.8764    7.8898 H   0  0  0  0  0  0  0  0  0  0  0  0
   -5.8999    1.9747   10.7287 H   0  0  0  0  0  0  0  0  0  0  0  0
   -6.5788    4.1072    9.6623 H   0  0  0  0  0  0  0  0  0  0  0  0
  1  2  2  0
  2  3  1  0
  2  4  1  0
  4  5  2  0
  5  6  1  0
  6  7  2  0
  7  8  1  0
  8  9  1  0
  9 10  2  0
 10 11  1  0
 11 12  2  0
 12 13  1  0
 13 14  1  0
 14 15  1  0
 15 16  2  0
 16 17  1  0
 17 18  2  0
 18 19  1  0
 19 20  2  0
 20 21  1  0
 21 22  1  0
 22 23  1  0
 22 24  1  0
 22 25  1  0
 13 26  2  0
  7 27  1  0
 27 28  2  0
 28  4  1  0
 26  9  1  0
 20 15  1  0
  5 29  1  0
  6 30  1  0
  8 31  1  0
 11 32  1  0
 12 33  1  0
 14 34  1  0
 16 35  1  0
 17 36  1  0
 18 37  1  0
 19 38  1  0
 27 39  1  0
 28 40  1  0
M  CHG  1   3  -1
M  END
>  <meeko>  (6) 
{"is_sidechain": [false], "free_energy": -7.729, "intermolecular_energy": -10.05, "internal_energy": -2.062}

$$$$
3up2_ligand
     RDKit          3D

 40 42  0  0  0  0  0  0  0  0999 V2000
   -7.2210    0.0400   14.1320 O   0  0  0  0  0  0  0  0  0  0  0  0
   -7.1640    0.1500   12.8660 C   0  0  0  0  0  0  0  0  0  0  0  0
   -7.4070   -0.7750   12.0290 O   0  0  0  0  0  0  0  0  0  0  0  0
   -6.7750    1.5060   12.3080 C   0  0  0  0  0  0  0  0  0  0  0  0
   -5.7120    1.6410   11.4030 C   0  0  0  0  0  0  0  0  0  0  0  0
   -5.3510    2.8960   10.8880 C   0  0  0  0  0  0  0  0  0  0  0  0
   -6.0380    4.0540   11.2580 C   0  0  0  0  0  0  0  0  0  0  0  0
   -5.7300    5.3360   10.7850 N   0  0  0  0  0  0  0  0  0  0  0  0
   -4.6360    5.8940   10.1340 C   0  0  0  0  0  0  0  0  0  0  0  0
   -4.7030    7.0720    9.5030 N   0  0  0  0  0  0  0  0  0  0  0  0
   -3.5870    7.5190    8.9090 C   0  0  0  0  0  0  0  0  0  0  0  0
   -2.4000    6.8350    8.9280 C   0  0  0  0  0  0  0  0  0  0  0  0
   -2.4000    5.6310    9.6000 C   0  0  0  0  0  0  0  0  0  0  0  0
   -1.1890    4.8970    9.6280 N   0  0  0  0  0  0  0  0  0  0  0  0
   -0.7240    3.9370    8.6900 C   0  0  0  0  0  0  0  0  0  0  0  0
   -1.5260    2.8680    8.2670 C   0  0  0  0  0  0  0  0  0  0  0  0
   -1.0690    1.9680    7.3050 C   0  0  0  0  0  0  0  0  0  0  0  0
    0.1900    2.1390    6.7360 C   0  0  0  0  0  0  0  0  0  0  0  0
    0.9930    3.2140    7.1210 C   0  0  0  0  0  0  0  0  0  0  0  0
    0.5410    4.1220    8.0850 C   0  0  0  0  0  0  0  0  0  0  0  0
    1.2380    5.2170    8.5360 O   0  0  0  0  0  0  0  0  0  0  0  0
    1.4900    6.2620    7.6150 C   0  0  0  0  0  0  0  0  0  0  0  0
    0.3890    6.5560    6.8900 F   0  0  0  0  0  0  0  0  0  0  0  0
    1.8370    7.3690    8.3100 F   0  0  0  0  0  0  0  0  0  0  0  0
    2.5090    5.9530    6.7870 F   0  0  0  0  0  0  0  0  0  0  0  0
   -3.5110    5.1600   10.1930 N   0  0  0  0  0  0  0  0  0  0  0  0
   -7.1010    3.9160   12.1660 C   0  0  0  0  0  0  0  0  0  0  0  0
   -7.4630    2.6670   12.6820 C   0  0  0  0  0  0  0  0  0  0  0  0
   -5.1512    0.7475   11.0912 H   0  0  0  0  0  0  0  0  0  0  0  0
   -4.5120    2.9685   10.1804 H   0  0  0  0  0  0  0  0  0  0  0  0
   -6.4410    6.0400   10.9050 H   0  0  0  0  0  0  0  0  0  0  0  0
   -3.6265    8.4827    8.3802 H   0  0  0  0  0  0  0  0  0  0  0  0
   -1.4973    7.2246    8.4347 H   0  0  0  0  0  0  0  0  0  0  0  0
   -1.0000    4.5740   10.5730 H   0  0  0  0  0  0  0  0  0  0  0  0
   -2.5289    2.7374    8.6996 H   0  0  0  0  0  0  0  0  0  0  0  0
   -1.7027    1.1237    6.9960 H   0  0  0  0  0  0  0  0  0  0  0  0
    0.5528    1.4255    5.9815 H   0  0  0  0  0  0  0  0  0  0  0  0
    1.9850    3.3478    6.6648 H   0  0  0  0  0  0  0  0  0  0  0  0
   -7.6611    4.8098   12.4782 H   0  0  0  0  0  0  0  0  0  0  0  0
   -8.3003    2.5959   13.3919 H   0  0  0  0  0  0  0  0  0  0  0  0
  1  2  2  0
  2  3  1  0
  2  4  1  0
  4  5  2  0
  5  6  1  0
  6  7  2  0
  7  8  1  0
  8  9  1  0
  9 10  2  0
 10 11  1  0
 11 12  2  0
 12 13  1  0
 13 14  1  0
 14 15  1  0
 15 16  2  0
 16 17  1  0
 17 18  2  0
 18 19  1  0
 19 20  2  0
 20 21  1  0
 21 22  1  0
 22 23  1  0
 22 24  1  0
 22 25  1  0
 13 26  2  0
  7 27  1  0
 27 28  2  0
 28  4  1  0
 26  9  1  0
 20 15  1  0
  5 29  1  0
  6 30  1  0
  8 31  1  0
 11 32  1  0
 12 33  1  0
 14 34  1  0
 16 35  1  0
 17 36  1  0
 18 37  1  0
 19 38  1  0
 27 39  1  0
 28 40  1  0
M  CHG  1   3  -1
M  END
>  <meeko>  (7) 
{"is_sidechain": [false], "free_energy": -7.625, "intermolecular_energy": -11.138, "internal_energy": -0.827}

$$$$
3up2_ligand
     RDKit          3D

 40 42  0  0  0  0  0  0  0  0999 V2000
   -7.1240   -0.2590   14.0170 O   0  0  0  0  0  0  0  0  0  0  0  0
   -6.9490   -0.1030   12.7670 C   0  0  0  0  0  0  0  0  0  0  0  0
   -6.9650   -1.0270   11.8940 O   0  0  0  0  0  0  0  0  0  0  0  0
   -6.7010    1.3110   12.2760 C   0  0  0  0  0  0  0  0  0  0  0  0
   -5.6790    1.5920   11.3580 C   0  0  0  0  0  0  0  0  0  0  0  0
   -5.4490    2.9000   10.9050 C   0  0  0  0  0  0  0  0  0  0  0  0
   -6.2310    3.9690   11.3510 C   0  0  0  0  0  0  0  0  0  0  0  0
   -6.0540    5.2960   10.9420 N   0  0  0  0  0  0  0  0  0  0  0  0
   -5.0800    5.9670   10.2130 C   0  0  0  0  0  0  0  0  0  0  0  0
   -5.3770    6.9590    9.3640 N   0  0  0  0  0  0  0  0  0  0  0  0
   -4.3590    7.5390    8.7130 C   0  0  0  0  0  0  0  0  0  0  0  0
   -3.0500    7.1700    8.8830 C   0  0  0  0  0  0  0  0  0  0  0  0
   -2.8150    6.1460    9.7750 C   0  0  0  0  0  0  0  0  0  0  0  0
   -1.4730    5.7380    9.9630 N   0  0  0  0  0  0  0  0  0  0  0  0
   -0.5790    5.1920    9.0030 C   0  0  0  0  0  0  0  0  0  0  0  0
    0.5170    5.9160    8.5160 C   0  0  0  0  0  0  0  0  0  0  0  0
    1.4120    5.3410    7.6150 C   0  0  0  0  0  0  0  0  0  0  0  0
    1.2350    4.0230    7.2050 C   0  0  0  0  0  0  0  0  0  0  0  0
    0.1660    3.2720    7.7010 C   0  0  0  0  0  0  0  0  0  0  0  0
   -0.7360    3.8420    8.6070 C   0  0  0  0  0  0  0  0  0  0  0  0
   -1.8150    3.2020    9.1650 O   0  0  0  0  0  0  0  0  0  0  0  0
   -1.5820    2.3780   10.2920 C   0  0  0  0  0  0  0  0  0  0  0  0
   -0.2610    2.2380   10.5340 F   0  0  0  0  0  0  0  0  0  0  0  0
   -2.1430    2.9640   11.3740 F   0  0  0  0  0  0  0  0  0  0  0  0
   -2.1460    1.1620   10.1370 F   0  0  0  0  0  0  0  0  0  0  0  0
   -3.8230    5.5440   10.4300 N   0  0  0  0  0  0  0  0  0  0  0  0
   -7.2520    3.6840   12.2720 C   0  0  0  0  0  0  0  0  0  0  0  0
   -7.4840    2.3810   12.7270 C   0  0  0  0  0  0  0  0  0  0  0  0
   -5.0463    0.7725   10.9864 H   0  0  0  0  0  0  0  0  0  0  0  0
   -4.6383    3.0874   10.1856 H   0  0  0  0  0  0  0  0  0  0  0  0
   -6.7850    5.9430   11.1960 H   0  0  0  0  0  0  0  0  0  0  0  0
   -4.5854    8.3517    8.0071 H   0  0  0  0  0  0  0  0  0  0  0  0
   -2.2322    7.6638    8.3377 H   0  0  0  0  0  0  0  0  0  0  0  0
   -1.3820    5.2340   10.8410 H   0  0  0  0  0  0  0  0  0  0  0  0
    0.6736    6.9526    8.8492 H   0  0  0  0  0  0  0  0  0  0  0  0
    2.2576    5.9288    7.2284 H   0  0  0  0  0  0  0  0  0  0  0  0
    1.9378    3.5716    6.4892 H   0  0  0  0  0  0  0  0  0  0  0  0
    0.0328    2.2289    7.3782 H   0  0  0  0  0  0  0  0  0  0  0  0
   -7.8840    4.5037   12.6444 H   0  0  0  0  0  0  0  0  0  0  0  0
   -8.2927    2.1947   13.4490 H   0  0  0  0  0  0  0  0  0  0  0  0
  1  2  2  0
  2  3  1  0
  2  4  1  0
  4  5  2  0
  5  6  1  0
  6  7  2  0
  7  8  1  0
  8  9  1  0
  9 10  2  0
 10 11  1  0
 11 12  2  0
 12 13  1  0
 13 14  1  0
 14 15  1  0
 15 16  2  0
 16 17  1  0
 17 18  2  0
 18 19  1  0
 19 20  2  0
 20 21  1  0
 21 22  1  0
 22 23  1  0
 22 24  1  0
 22 25  1  0
 13 26  2  0
  7 27  1  0
 27 28  2  0
 28  4  1  0
 26  9  1  0
 20 15  1  0
  5 29  1  0
  6 30  1  0
  8 31  1  0
 11 32  1  0
 12 33  1  0
 14 34  1  0
 16 35  1  0
 17 36  1  0
 18 37  1  0
 19 38  1  0
 27 39  1  0
 28 40  1  0
M  CHG  1   3  -1
M  END
>  <meeko>  (8) 
{"is_sidechain": [false], "free_energy": -7.6, "intermolecular_energy": -10.858, "internal_energy": -1.072}

$$$$
3up2_ligand
     RDKit          3D

 40 42  0  0  0  0  0  0  0  0999 V2000
   -5.6960   -3.9040   12.7620 O   0  0  0  0  0  0  0  0  0  0  0  0
   -4.8310   -4.5090   12.0510 C   0  0  0  0  0  0  0  0  0  0  0  0
   -4.8490   -5.7430   11.7510 O   0  0  0  0  0  0  0  0  0  0  0  0
   -3.6790   -3.6810   11.5140 C   0  0  0  0  0  0  0  0  0  0  0  0
   -2.9260   -4.1130   10.4120 C   0  0  0  0  0  0  0  0  0  0  0  0
   -1.8600   -3.3470    9.9160 C   0  0  0  0  0  0  0  0  0  0  0  0
   -1.5110   -2.1270   10.5000 C   0  0  0  0  0  0  0  0  0  0  0  0
   -0.4590   -1.3160   10.0580 N   0  0  0  0  0  0  0  0  0  0  0  0
   -0.1270    0.0220   10.2260 C   0  0  0  0  0  0  0  0  0  0  0  0
    0.7400    0.4340   11.1590 N   0  0  0  0  0  0  0  0  0  0  0  0
    0.9900    1.7480   11.2330 C   0  0  0  0  0  0  0  0  0  0  0  0
    0.4110    2.6710   10.4020 C   0  0  0  0  0  0  0  0  0  0  0  0
   -0.4680    2.1790    9.4610 C   0  0  0  0  0  0  0  0  0  0  0  0
   -1.0880    3.1120    8.5950 N   0  0  0  0  0  0  0  0  0  0  0  0
   -1.8790    4.2400    8.9430 C   0  0  0  0  0  0  0  0  0  0  0  0
   -2.9800    4.1350    9.8030 C   0  0  0  0  0  0  0  0  0  0  0  0
   -3.7090    5.2650   10.1740 C   0  0  0  0  0  0  0  0  0  0  0  0
   -3.3300    6.5200    9.7070 C   0  0  0  0  0  0  0  0  0  0  0  0
   -2.2180    6.6520    8.8730 C   0  0  0  0  0  0  0  0  0  0  0  0
   -1.4810    5.5230    8.4970 C   0  0  0  0  0  0  0  0  0  0  0  0
   -0.3690    5.5300    7.6900 O   0  0  0  0  0  0  0  0  0  0  0  0
    0.8830    5.7900    8.2970 C   0  0  0  0  0  0  0  0  0  0  0  0
    1.7140    4.7320    8.1840 F   0  0  0  0  0  0  0  0  0  0  0  0
    1.4560    6.8380    7.6640 F   0  0  0  0  0  0  0  0  0  0  0  0
    0.7400    6.1170    9.5990 F   0  0  0  0  0  0  0  0  0  0  0  0
   -0.7400    0.8650    9.3770 N   0  0  0  0  0  0  0  0  0  0  0  0
   -2.2650   -1.6990   11.6050 C   0  0  0  0  0  0  0  0  0  0  0  0
   -3.3290   -2.4600   12.1030 C   0  0  0  0  0  0  0  0  0  0  0  0
   -3.1756   -5.0689    9.9283 H   0  0  0  0  0  0  0  0  0  0  0  0
   -1.2884   -3.7142    9.0509 H   0  0  0  0  0  0  0  0  0  0  0  0
    0.2520   -1.7690    9.5050 H   0  0  0  0  0  0  0  0  0  0  0  0
    1.6950    2.1037   11.9988 H   0  0  0  0  0  0  0  0  0  0  0  0
    0.6352    3.7450   10.4814 H   0  0  0  0  0  0  0  0  0  0  0  0
   -1.5090    2.6280    7.8070 H   0  0  0  0  0  0  0  0  0  0  0  0
   -3.2735    3.1484   10.1908 H   0  0  0  0  0  0  0  0  0  0  0  0
   -4.5825    5.1642   10.8350 H   0  0  0  0  0  0  0  0  0  0  0  0
   -3.9080    7.4103    9.9957 H   0  0  0  0  0  0  0  0  0  0  0  0
   -1.9201    7.6468    8.5102 H   0  0  0  0  0  0  0  0  0  0  0  0
   -2.0137   -0.7442   12.0900 H   0  0  0  0  0  0  0  0  0  0  0  0
   -3.8985   -2.0934   12.9698 H   0  0  0  0  0  0  0  0  0  0  0  0
  1  2  2  0
  2  3  1  0
  2  4  1  0
  4  5  2  0
  5  6  1  0
  6  7  2  0
  7  8  1  0
  8  9  1  0
  9 10  2  0
 10 11  1  0
 11 12  2  0
 12 13  1  0
 13 14  1  0
 14 15  1  0
 15 16  2  0
 16 17  1  0
 17 18  2  0
 18 19  1  0
 19 20  2  0
 20 21  1  0
 21 22  1  0
 22 23  1  0
 22 24  1  0
 22 25  1  0
 13 26  2  0
  7 27  1  0
 27 28  2  0
 28  4  1  0
 26  9  1  0
 20 15  1  0
  5 29  1  0
  6 30  1  0
  8 31  1  0
 11 32  1  0
 12 33  1  0
 14 34  1  0
 16 35  1  0
 17 36  1  0
 18 37  1  0
 19 38  1  0
 27 39  1  0
 28 40  1  0
M  CHG  1   3  -1
M  END
>  <meeko>  (9) 
{"is_sidechain": [false], "free_energy": -7.562, "intermolecular_energy": -10.667, "internal_energy": -1.209}

$$$$
