
     RDKit          3D

  9  9  0  0  0  0  0  0  0  0999 V2000
    2.4140   10.8830    0.1650 N   0  0  0  0  0  0  0  0  0  0  0  0
    1.9230   10.6630    1.5280 C   0  0  0  0  0  0  0  0  0  0  0  0
    2.0400    9.2330    1.9250 C   0  0  0  0  0  0  0  0  0  0  0  0
    1.5370    9.0260    3.3280 C   0  0  0  0  0  0  0  0  0  0  0  0
    0.6440    7.9970    3.5770 C   0  0  0  0  0  0  0  0  0  0  0  0
    0.1610    7.7990    4.8620 C   0  0  0  0  0  0  0  0  0  0  0  0
    0.5750    8.6190    5.8920 C   0  0  0  0  0  0  0  0  0  0  0  0
    1.4640    9.6440    5.6500 C   0  0  0  0  0  0  0  0  0  0  0  0
    1.9590    9.8480    4.3620 C   0  0  0  0  0  0  0  0  0  0  0  0
  2  1  1  0
  3  2  1  0
  4  3  1  0
  5  4  2  0
  6  5  1  0
  7  6  2  0
  8  7  1  0
  9  4  1  0
  9  8  2  0
M  CHG  1   1   1
M  END
$$$$
