
     RDKit          3D

 49 53  0  0  0  0  0  0  0  0999 V2000
   -3.9450   11.3300    0.5630 C   0  0  0  0  0  0  0  0  0  0  0  0
   -3.4270   11.0800    1.9880 C   0  0  1  0  0  0  0  0  0  0  0  0
   -3.1620   12.4240    2.6880 C   0  0  0  0  0  0  0  0  0  0  0  0
   -4.4710   10.2850    2.7770 C   0  0  0  0  0  0  0  0  0  0  0  0
   -2.1790   10.2720    1.9590 N   0  0  0  0  0  0  0  0  0  0  0  0
   -1.0480   10.6770    1.3370 C   0  0  0  0  0  0  0  0  0  0  0  0
   -1.0010   11.7210    0.7390 O   0  0  0  0  0  0  0  0  0  0  0  0
    0.2330    9.8560    1.4370 C   0  0  1  0  0  0  0  0  0  0  0  0
    1.2700   10.7130    2.1190 C   0  0  0  0  0  0  0  0  0  0  0  0
    0.9650   10.8390    3.5510 C   0  0  2  0  0  0  0  0  0  0  0  0
    1.9770   11.7810    4.1940 C   0  0  0  0  0  0  0  0  0  0  0  0
    1.6760   11.9350    5.6740 C   0  0  0  0  0  0  0  0  0  0  0  0
    1.7150   10.5680    6.3390 C   0  0  0  0  0  0  0  0  0  0  0  0
    0.7810    9.5680    5.6860 C   0  0  0  0  0  0  0  0  0  0  0  0
    1.0590    9.4590    4.1800 C   0  0  1  0  0  0  0  0  0  0  0  0
    0.0300    8.4690    3.5160 C   0  0  0  0  0  0  0  0  0  0  0  0
    0.0270    8.5560    2.0440 N   0  0  0  0  0  0  0  0  0  0  0  0
    1.0090    7.6590    1.3800 C   0  0  0  0  0  0  0  0  0  0  0  0
    0.3900    6.8930    0.1800 C   0  0  1  0  0  0  0  0  0  0  0  0
   -0.9930    7.1470    0.1260 O   0  0  0  0  0  0  0  0  0  0  0  0
    1.0170    7.2950   -1.1670 C   0  0  2  0  0  0  0  0  0  0  0  0
    0.4550    6.3940   -2.2760 C   0  0  0  0  0  0  0  0  0  0  0  0
    1.2050    6.5440   -3.5540 C   0  0  0  0  0  0  0  0  0  0  0  0
    1.2460    7.7660   -4.2210 C   0  0  0  0  0  0  0  0  0  0  0  0
    1.9590    7.8640   -5.4110 C   0  0  0  0  0  0  0  0  0  0  0  0
    2.6200    6.7480   -5.9300 C   0  0  0  0  0  0  0  0  0  0  0  0
    2.5620    5.5540   -5.2700 C   0  0  0  0  0  0  0  0  0  0  0  0
    1.8660    5.4300   -4.0690 C   0  0  0  0  0  0  0  0  0  0  0  0
    2.4800    7.1330   -1.1010 N   0  0  0  0  0  0  0  0  0  0  0  0
    3.2950    8.2230   -1.1000 C   0  0  0  0  0  0  0  0  0  0  0  0
    2.9020    9.3440   -1.1220 O   0  0  0  0  0  0  0  0  0  0  0  0
    4.7780    7.9000   -1.0600 C   0  0  2  0  0  0  0  0  0  0  0  0
    5.5750    9.1420   -0.6540 C   0  0  0  0  0  0  0  0  0  0  0  0
    7.0210    8.8170   -0.3980 C   0  0  0  0  0  0  0  0  0  0  0  0
    7.9210    9.6440   -0.8950 N   0  0  0  0  0  0  0  0  0  0  0  0
    7.3160    7.8500    0.2680 O   0  0  0  0  0  0  0  0  0  0  0  0
    5.1740    7.4030   -2.3900 N   0  0  0  0  0  0  0  0  0  0  0  0
    5.8120    6.1490   -2.4870 C   0  0  0  0  0  0  0  0  0  0  0  0
    6.1330    5.5270   -1.4960 O   0  0  0  0  0  0  0  0  0  0  0  0
    6.0480    5.5530   -3.8210 C   0  0  0  0  0  0  0  0  0  0  0  0
    5.6810    4.2370   -4.0130 C   0  0  0  0  0  0  0  0  0  0  0  0
    5.8600    3.6390   -5.2330 C   0  0  0  0  0  0  0  0  0  0  0  0
    6.4600    4.3600   -6.2860 C   0  0  0  0  0  0  0  0  0  0  0  0
    6.6780    3.7770   -7.5480 C   0  0  0  0  0  0  0  0  0  0  0  0
    7.2650    4.4970   -8.5340 C   0  0  0  0  0  0  0  0  0  0  0  0
    7.6500    5.8120   -8.3130 C   0  0  0  0  0  0  0  0  0  0  0  0
    7.4390    6.4050   -7.0830 C   0  0  0  0  0  0  0  0  0  0  0  0
    6.8370    5.6930   -6.0410 C   0  0  0  0  0  0  0  0  0  0  0  0
    6.6170    6.2720   -4.8130 N   0  0  0  0  0  0  0  0  0  0  0  0
  2  1  1  6
  3  2  1  0
  4  2  1  0
  5  2  1  0
  6  5  1  0
  7  6  2  0
  8  6  1  1
  9  8  1  0
 10  9  1  6
 11 10  1  0
 12 11  1  0
 13 12  1  0
 14 13  1  0
 15 10  1  0
 15 14  1  1
 16 15  1  0
 17 16  1  0
 17  8  1  0
 18 17  1  0
 19 18  1  0
 19 20  1  6
 21 19  1  0
 21 22  1  6
 23 22  1  0
 24 23  2  0
 25 24  1  0
 26 25  2  0
 27 26  1  0
 28 27  2  0
 28 23  1  0
 29 21  1  0
 30 29  1  0
 31 30  2  0
 32 30  1  0
 32 33  1  6
 34 33  1  0
 35 34  1  0
 36 34  2  0
 37 32  1  0
 38 37  1  0
 39 38  2  0
 40 38  1  0
 41 40  2  0
 42 41  1  0
 43 42  2  0
 44 43  1  0
 45 44  2  0
 46 45  1  0
 47 46  2  0
 48 43  1  0
 48 47  1  0
 49 48  2  0
 49 40  1  0
M  CHG  1  17   1
M  END
$$$$
