2x00_ligand
     RDKit          3D

 85 89  0  0  0  0  0  0  0  0999 V2000
   -8.1730  -25.7590   -5.7090 C   0  0  0  0  0  0  0  0  0  0  0  0
   -6.9480  -25.4000   -6.5320 C   0  0  0  0  0  0  0  0  0  0  0  0
   -5.6840  -25.5530   -6.0560 C   0  0  0  0  0  0  0  0  0  0  0  0
   -5.3010  -26.3260   -4.7890 C   0  0  2  0  0  0  0  0  0  0  0  0
   -3.8650  -26.1270   -4.3260 C   0  0  0  0  0  0  0  0  0  0  0  0
   -3.6360  -27.3490   -3.4590 C   0  0  2  0  0  0  0  0  0  0  0  0
   -2.1710  -27.7290   -3.3540 C   0  0  0  0  0  0  0  0  0  0  0  0
   -4.4560  -28.3710   -4.1950 C   0  0  0  0  0  0  0  0  0  0  0  0
   -4.3460  -29.5820   -4.1100 O   0  0  0  0  0  0  0  0  0  0  0  0
   -5.3800  -27.7420   -4.9790 O   0  0  0  0  0  0  0  0  0  0  0  0
   -4.5060  -24.8780   -6.7340 C   0  0  0  0  0  0  0  0  0  0  0  0
   -4.8930  -23.8430   -7.7910 C   0  0  0  0  0  0  0  0  0  0  0  0
   -6.0080  -24.3400   -8.7470 C   0  0  2  0  0  0  0  0  0  0  0  0
   -5.4990  -25.5870   -9.5460 C   0  0  0  0  0  0  0  0  0  0  0  0
   -4.6030  -25.2010  -10.7130 C   0  0  0  0  0  0  0  0  0  0  0  0
   -5.4140  -24.3630  -11.6790 C   0  0  0  0  0  0  0  0  0  0  0  0
   -6.0290  -23.2410  -10.9470 N   0  0  0  0  0  0  0  0  0  0  0  0
   -6.3260  -23.1530   -9.6940 C   0  0  0  0  0  0  0  0  0  0  0  0
   -6.8150  -21.7890   -9.1970 C   0  0  0  0  0  0  0  0  0  0  0  0
   -7.3480  -20.7960  -10.2440 C   0  0  0  0  0  0  0  0  0  0  0  0
   -8.5680  -21.3390  -10.9210 C   0  0  0  0  0  0  0  0  0  0  0  0
   -8.7730  -21.5690  -12.2350 C   0  0  0  0  0  0  0  0  0  0  0  0
   -7.8320  -21.1890  -13.3470 C   0  0  0  0  0  0  0  0  0  0  0  0
  -10.0000  -22.3610  -12.6470 C   0  0  2  0  0  0  0  0  0  0  0  0
  -10.1890  -23.3710  -11.6320 O   0  0  0  0  0  0  0  0  0  0  0  0
  -10.8470  -24.4960  -12.2480 C   0  0  1  0  0  0  0  0  0  0  0  0
  -12.1190  -24.9380  -11.5030 C   0  0  0  0  0  0  0  0  0  0  0  0
  -11.9280  -25.2220  -10.0090 C   0  0  0  0  0  0  0  0  0  0  0  0
  -10.5970  -25.9730   -9.6620 C   0  0  2  0  0  0  0  0  0  0  0  0
  -10.8580  -27.2630   -9.1170 O   0  0  0  0  0  0  0  0  0  0  0  0
   -9.7170  -25.1720   -8.7030 C   0  0  0  0  0  0  0  0  0  0  0  0
  -10.5030  -24.2610   -7.7930 C   0  0  0  0  0  0  0  0  0  0  0  0
   -8.3730  -25.3340   -8.6860 C   0  0  0  0  0  0  0  0  0  0  0  0
   -7.2600  -24.7020   -7.8600 C   0  0  1  0  0  0  0  0  0  0  0  0
  -11.0900  -24.1310  -13.7110 C   0  0  0  0  0  0  0  0  0  0  0  0
   -9.9840  -23.1220  -13.9700 C   0  0  1  0  0  0  0  0  0  0  0  0
  -10.2200  -22.2460  -15.1870 C   0  0  0  0  0  0  0  0  0  0  0  0
   -7.9294  -25.6876   -4.6387 H   0  0  0  0  0  0  0  0  0  0  0  0
   -8.9910  -25.0628   -5.9461 H   0  0  0  0  0  0  0  0  0  0  0  0
   -8.4858  -26.7866   -5.9461 H   0  0  0  0  0  0  0  0  0  0  0  0
   -6.0169  -25.9285   -4.0545 H   0  0  0  0  0  0  0  0  0  0  0  0
   -3.1702  -26.1070   -5.1786 H   0  0  0  0  0  0  0  0  0  0  0  0
   -3.6983  -25.1751   -3.8004 H   0  0  0  0  0  0  0  0  0  0  0  0
   -3.9216  -27.2170   -2.4050 H   0  0  0  0  0  0  0  0  0  0  0  0
   -1.8864  -27.8028   -2.2940 H   0  0  0  0  0  0  0  0  0  0  0  0
   -2.0077  -28.6992   -3.8459 H   0  0  0  0  0  0  0  0  0  0  0  0
   -1.5567  -26.9605   -3.8459 H   0  0  0  0  0  0  0  0  0  0  0  0
   -3.9074  -24.3733   -5.9614 H   0  0  0  0  0  0  0  0  0  0  0  0
   -3.9503  -25.6693   -7.2585 H   0  0  0  0  0  0  0  0  0  0  0  0
   -5.2483  -22.9361   -7.2798 H   0  0  0  0  0  0  0  0  0  0  0  0
   -3.9994  -23.6471   -8.4019 H   0  0  0  0  0  0  0  0  0  0  0  0
   -4.9305  -26.2360   -8.8636 H   0  0  0  0  0  0  0  0  0  0  0  0
   -6.3787  -26.1053   -9.9553 H   0  0  0  0  0  0  0  0  0  0  0  0
   -3.7445  -24.6192  -10.3461 H   0  0  0  0  0  0  0  0  0  0  0  0
   -4.2279  -26.1038  -11.2173 H   0  0  0  0  0  0  0  0  0  0  0  0
   -4.7560  -23.9709  -12.4685 H   0  0  0  0  0  0  0  0  0  0  0  0
   -6.2001  -24.9819  -12.1362 H   0  0  0  0  0  0  0  0  0  0  0  0
   -6.2770  -22.4570  -11.5590 H   0  0  0  0  0  0  0  0  0  0  0  0
   -7.6253  -21.9731   -8.4763 H   0  0  0  0  0  0  0  0  0  0  0  0
   -5.9171  -21.3045   -8.7858 H   0  0  0  0  0  0  0  0  0  0  0  0
   -7.6037  -19.8494   -9.7455 H   0  0  0  0  0  0  0  0  0  0  0  0
   -6.5683  -20.6318  -11.0023 H   0  0  0  0  0  0  0  0  0  0  0  0
   -9.4110  -21.5835  -10.2580 H   0  0  0  0  0  0  0  0  0  0  0  0
   -6.8925  -20.8096  -12.9187 H   0  0  0  0  0  0  0  0  0  0  0  0
   -7.6217  -22.0727  -13.9674 H   0  0  0  0  0  0  0  0  0  0  0  0
   -8.2943  -20.4071  -13.9674 H   0  0  0  0  0  0  0  0  0  0  0  0
  -10.7800  -21.5950  -12.7688 H   0  0  0  0  0  0  0  0  0  0  0  0
  -10.2035  -25.3863  -12.1915 H   0  0  0  0  0  0  0  0  0  0  0  0
  -12.8694  -24.1402  -11.6057 H   0  0  0  0  0  0  0  0  0  0  0  0
  -12.4284  -25.8895  -11.9601 H   0  0  0  0  0  0  0  0  0  0  0  0
  -11.9322  -24.2619   -9.4722 H   0  0  0  0  0  0  0  0  0  0  0  0
  -12.7524  -25.8840   -9.7056 H   0  0  0  0  0  0  0  0  0  0  0  0
  -10.0489  -26.0903  -10.6085 H   0  0  0  0  0  0  0  0  0  0  0  0
  -11.0470  -27.8410   -9.8780 H   0  0  0  0  0  0  0  0  0  0  0  0
  -10.2854  -24.5132   -6.7447 H   0  0  0  0  0  0  0  0  0  0  0  0
  -10.2184  -23.2160   -7.9854 H   0  0  0  0  0  0  0  0  0  0  0  0
  -11.5784  -24.3895   -7.9854 H   0  0  0  0  0  0  0  0  0  0  0  0
   -8.0112  -26.0719   -9.4172 H   0  0  0  0  0  0  0  0  0  0  0  0
   -7.6604  -23.7417   -7.5029 H   0  0  0  0  0  0  0  0  0  0  0  0
  -10.9906  -25.0102  -14.3646 H   0  0  0  0  0  0  0  0  0  0  0  0
  -12.1002  -23.7443  -13.9108 H   0  0  0  0  0  0  0  0  0  0  0  0
   -9.0123  -23.5694  -14.2260 H   0  0  0  0  0  0  0  0  0  0  0  0
  -10.4933  -21.2315  -14.8611 H   0  0  0  0  0  0  0  0  0  0  0  0
   -9.3016  -22.2022  -15.7909 H   0  0  0  0  0  0  0  0  0  0  0  0
  -11.0361  -22.6695  -15.7909 H   0  0  0  0  0  0  0  0  0  0  0  0
  1  2  1  0
  2  3  2  0
  3  4  1  0
  4  5  1  0
  5  6  1  0
  6  7  1  0
  6  8  1  0
  8  9  2  0
  8 10  1  0
  3 11  1  0
 11 12  1  0
 13 12  1  1
 13 14  1  0
 14 15  1  0
 15 16  1  0
 16 17  1  0
 17 18  2  0
 18 19  1  0
 19 20  1  0
 20 21  1  0
 21 22  2  0
 22 23  1  0
 22 24  1  0
 24 25  1  0
 25 26  1  0
 26 27  1  0
 27 28  1  0
 28 29  1  0
 29 30  1  0
 29 31  1  0
 31 32  1  0
 31 33  2  0
 33 34  1  0
 26 35  1  0
 35 36  1  0
 36 37  1  0
 34  2  1  0
 10  4  1  0
 18 13  1  0
 36 24  1  0
 34 13  1  0
  1 38  1  0
  1 39  1  0
  1 40  1  0
  4 41  1  1
  5 42  1  0
  5 43  1  0
  6 44  1  1
  7 45  1  0
  7 46  1  0
  7 47  1  0
 11 48  1  0
 11 49  1  0
 12 50  1  0
 12 51  1  0
 14 52  1  0
 14 53  1  0
 15 54  1  0
 15 55  1  0
 16 56  1  0
 16 57  1  0
 17 58  1  0
 19 59  1  0
 19 60  1  0
 20 61  1  0
 20 62  1  0
 21 63  1  0
 23 64  1  0
 23 65  1  0
 23 66  1  0
 24 67  1  6
 26 68  1  6
 27 69  1  0
 27 70  1  0
 28 71  1  0
 28 72  1  0
 29 73  1  6
 30 74  1  0
 32 75  1  0
 32 76  1  0
 32 77  1  0
 33 78  1  0
 34 79  1  1
 35 80  1  0
 35 81  1  0
 36 82  1  6
 37 83  1  0
 37 84  1  0
 37 85  1  0
M  CHG  1  17   1
M  END
>  <meeko>  (1) 
{"is_sidechain": [false], "free_energy": -7.933, "intermolecular_energy": -12.338, "internal_energy": -0.103}

$$$$
2x00_ligand
     RDKit          3D

 85 89  0  0  0  0  0  0  0  0999 V2000
   -4.1390  -26.3840   -8.1670 C   0  0  0  0  0  0  0  0  0  0  0  0
   -5.5170  -26.6210   -7.5740 C   0  0  0  0  0  0  0  0  0  0  0  0
   -5.7100  -27.3900   -6.4700 C   0  0  0  0  0  0  0  0  0  0  0  0
   -4.6040  -27.8920   -5.5350 C   0  0  2  0  0  0  0  0  0  0  0  0
   -4.9950  -29.0700   -4.6550 C   0  0  0  0  0  0  0  0  0  0  0  0
   -3.9760  -28.9850   -3.5360 C   0  0  2  0  0  0  0  0  0  0  0  0
   -4.4610  -29.6240   -2.2480 C   0  0  0  0  0  0  0  0  0  0  0  0
   -3.8070  -27.4960   -3.4240 C   0  0  0  0  0  0  0  0  0  0  0  0
   -3.3610  -26.8890   -2.4650 O   0  0  0  0  0  0  0  0  0  0  0  0
   -4.2140  -26.8980   -4.5820 O   0  0  0  0  0  0  0  0  0  0  0  0
   -7.0920  -27.8960   -6.1020 C   0  0  0  0  0  0  0  0  0  0  0  0
   -8.1500  -27.6910   -7.1870 C   0  0  0  0  0  0  0  0  0  0  0  0
   -8.1130  -26.2730   -7.8110 C   0  0  2  0  0  0  0  0  0  0  0  0
   -8.4260  -25.2050   -6.7100 C   0  0  0  0  0  0  0  0  0  0  0  0
   -9.9160  -25.0910   -6.4210 C   0  0  0  0  0  0  0  0  0  0  0  0
  -10.6130  -24.6340   -7.6860 C   0  0  0  0  0  0  0  0  0  0  0  0
  -10.2430  -25.5340   -8.7940 N   0  0  0  0  0  0  0  0  0  0  0  0
   -9.1870  -26.2640   -8.9300 C   0  0  0  0  0  0  0  0  0  0  0  0
   -9.1610  -27.2200  -10.1270 C   0  0  0  0  0  0  0  0  0  0  0  0
   -9.5840  -26.6620  -11.4960 C   0  0  0  0  0  0  0  0  0  0  0  0
   -8.8840  -25.3700  -11.7840 C   0  0  0  0  0  0  0  0  0  0  0  0
   -9.3520  -24.2820  -12.4330 C   0  0  0  0  0  0  0  0  0  0  0  0
  -10.6770  -24.1890  -13.1420 C   0  0  0  0  0  0  0  0  0  0  0  0
   -8.5390  -23.0020  -12.3750 C   0  0  2  0  0  0  0  0  0  0  0  0
   -8.7080  -22.4760  -11.0410 O   0  0  0  0  0  0  0  0  0  0  0  0
   -8.5550  -21.0440  -11.1100 C   0  0  1  0  0  0  0  0  0  0  0  0
   -7.5190  -20.4940  -10.1140 C   0  0  0  0  0  0  0  0  0  0  0  0
   -7.1210  -21.4610   -8.9930 C   0  0  0  0  0  0  0  0  0  0  0  0
   -5.7990  -22.2440   -9.2210 C   0  0  2  0  0  0  0  0  0  0  0  0
   -5.5550  -22.4790  -10.6050 O   0  0  0  0  0  0  0  0  0  0  0  0
   -5.8040  -23.5700   -8.4620 C   0  0  0  0  0  0  0  0  0  0  0  0
   -5.0410  -23.5160   -7.1620 C   0  0  0  0  0  0  0  0  0  0  0  0
   -6.4770  -24.6450   -8.9350 C   0  0  0  0  0  0  0  0  0  0  0  0
   -6.6710  -26.0640   -8.4140 C   0  0  1  0  0  0  0  0  0  0  0  0
   -8.2530  -20.6930  -12.5650 C   0  0  0  0  0  0  0  0  0  0  0  0
   -8.9000  -21.8490  -13.3070 C   0  0  1  0  0  0  0  0  0  0  0  0
   -8.3990  -22.0270  -14.7290 C   0  0  0  0  0  0  0  0  0  0  0  0
   -3.4073  -26.2581   -7.3554 H   0  0  0  0  0  0  0  0  0  0  0  0
   -3.8536  -27.2463   -8.7876 H   0  0  0  0  0  0  0  0  0  0  0  0
   -4.1581  -25.4760   -8.7876 H   0  0  0  0  0  0  0  0  0  0  0  0
   -3.8122  -28.1699   -6.2463 H   0  0  0  0  0  0  0  0  0  0  0  0
   -6.0197  -28.9582   -4.2708 H   0  0  0  0  0  0  0  0  0  0  0  0
   -4.9926  -30.0354   -5.1823 H   0  0  0  0  0  0  0  0  0  0  0  0
   -3.0415  -29.5309   -3.7327 H   0  0  0  0  0  0  0  0  0  0  0  0
   -4.0460  -29.0772   -1.3885 H   0  0  0  0  0  0  0  0  0  0  0  0
   -5.5597  -29.5860   -2.2109 H   0  0  0  0  0  0  0  0  0  0  0  0
   -4.1289  -30.6720   -2.2109 H   0  0  0  0  0  0  0  0  0  0  0  0
   -7.0191  -28.9733   -5.8918 H   0  0  0  0  0  0  0  0  0  0  0  0
   -7.4188  -27.3099   -5.2304 H   0  0  0  0  0  0  0  0  0  0  0  0
   -7.9811  -28.4292   -7.9848 H   0  0  0  0  0  0  0  0  0  0  0  0
   -9.1348  -27.8155   -6.7130 H   0  0  0  0  0  0  0  0  0  0  0  0
   -7.9069  -25.4903   -5.7831 H   0  0  0  0  0  0  0  0  0  0  0  0
   -8.0801  -24.2289   -7.0808 H   0  0  0  0  0  0  0  0  0  0  0  0
  -10.3108  -26.0701   -6.1119 H   0  0  0  0  0  0  0  0  0  0  0  0
  -10.0903  -24.3682   -5.6103 H   0  0  0  0  0  0  0  0  0  0  0  0
  -11.7025  -24.6623   -7.5368 H   0  0  0  0  0  0  0  0  0  0  0  0
  -10.3065  -23.6053   -7.9266 H   0  0  0  0  0  0  0  0  0  0  0  0
  -10.9230  -25.5210   -9.5590 H   0  0  0  0  0  0  0  0  0  0  0  0
   -8.1309  -27.5923  -10.2279 H   0  0  0  0  0  0  0  0  0  0  0  0
   -9.9184  -27.9820   -9.8910 H   0  0  0  0  0  0  0  0  0  0  0  0
   -9.3283  -27.3925  -12.2776 H   0  0  0  0  0  0  0  0  0  0  0  0
  -10.6686  -26.4794  -11.4820 H   0  0  0  0  0  0  0  0  0  0  0  0
   -7.8493  -25.2973  -11.4177 H   0  0  0  0  0  0  0  0  0  0  0  0
  -11.4868  -24.1322  -12.3997 H   0  0  0  0  0  0  0  0  0  0  0  0
  -10.6932  -23.2875  -13.7721 H   0  0  0  0  0  0  0  0  0  0  0  0
  -10.8190  -25.0794  -13.7721 H   0  0  0  0  0  0  0  0  0  0  0  0
   -7.5315  -23.3151  -12.6864 H   0  0  0  0  0  0  0  0  0  0  0  0
   -9.4863  -20.5498  -10.7962 H   0  0  0  0  0  0  0  0  0  0  0  0
   -6.6109  -20.2313  -10.6765 H   0  0  0  0  0  0  0  0  0  0  0  0
   -7.9930  -19.6317   -9.6223 H   0  0  0  0  0  0  0  0  0  0  0  0
   -7.0141  -20.8789   -8.0658 H   0  0  0  0  0  0  0  0  0  0  0  0
   -7.9170  -22.2191   -8.9524 H   0  0  0  0  0  0  0  0  0  0  0  0
   -4.9857  -21.6145   -8.8308 H   0  0  0  0  0  0  0  0  0  0  0  0
   -5.1150  -23.3470  -10.6540 H   0  0  0  0  0  0  0  0  0  0  0  0
   -5.7471  -23.5660   -6.3201 H   0  0  0  0  0  0  0  0  0  0  0  0
   -4.3463  -24.3672   -7.1089 H   0  0  0  0  0  0  0  0  0  0  0  0
   -4.4731  -22.5754   -7.1089 H   0  0  0  0  0  0  0  0  0  0  0  0
   -6.9882  -24.4558   -9.8904 H   0  0  0  0  0  0  0  0  0  0  0  0
   -6.6200  -26.7170   -9.2978 H   0  0  0  0  0  0  0  0  0  0  0  0
   -8.7075  -19.7319  -12.8473 H   0  0  0  0  0  0  0  0  0  0  0  0
   -7.1810  -20.5716  -12.7796 H   0  0  0  0  0  0  0  0  0  0  0  0
   -9.9789  -21.7278  -13.4839 H   0  0  0  0  0  0  0  0  0  0  0  0
   -7.3626  -22.3952  -14.7092 H   0  0  0  0  0  0  0  0  0  0  0  0
   -9.0364  -22.7537  -15.2541 H   0  0  0  0  0  0  0  0  0  0  0  0
   -8.4350  -21.0611  -15.2541 H   0  0  0  0  0  0  0  0  0  0  0  0
  1  2  1  0
  2  3  2  0
  3  4  1  0
  4  5  1  0
  5  6  1  0
  6  7  1  0
  6  8  1  0
  8  9  2  0
  8 10  1  0
  3 11  1  0
 11 12  1  0
 13 12  1  1
 13 14  1  0
 14 15  1  0
 15 16  1  0
 16 17  1  0
 17 18  2  0
 18 19  1  0
 19 20  1  0
 20 21  1  0
 21 22  2  0
 22 23  1  0
 22 24  1  0
 24 25  1  0
 25 26  1  0
 26 27  1  0
 27 28  1  0
 28 29  1  0
 29 30  1  0
 29 31  1  0
 31 32  1  0
 31 33  2  0
 33 34  1  0
 26 35  1  0
 35 36  1  0
 36 37  1  0
 34  2  1  0
 10  4  1  0
 18 13  1  0
 36 24  1  0
 34 13  1  0
  1 38  1  0
  1 39  1  0
  1 40  1  0
  4 41  1  6
  5 42  1  0
  5 43  1  0
  6 44  1  6
  7 45  1  0
  7 46  1  0
  7 47  1  0
 11 48  1  0
 11 49  1  0
 12 50  1  0
 12 51  1  0
 14 52  1  0
 14 53  1  0
 15 54  1  0
 15 55  1  0
 16 56  1  0
 16 57  1  0
 17 58  1  0
 19 59  1  0
 19 60  1  0
 20 61  1  0
 20 62  1  0
 21 63  1  0
 23 64  1  0
 23 65  1  0
 23 66  1  0
 24 67  1  1
 26 68  1  1
 27 69  1  0
 27 70  1  0
 28 71  1  0
 28 72  1  0
 29 73  1  1
 30 74  1  0
 32 75  1  0
 32 76  1  0
 32 77  1  0
 33 78  1  0
 34 79  1  6
 35 80  1  0
 35 81  1  0
 36 82  1  6
 37 83  1  0
 37 84  1  0
 37 85  1  0
M  CHG  1  17   1
M  END
>  <meeko>  (2) 
{"is_sidechain": [false], "free_energy": -7.924, "intermolecular_energy": -11.183, "internal_energy": -1.244}

$$$$
2x00_ligand
     RDKit          3D

 85 89  0  0  0  0  0  0  0  0999 V2000
   -6.7400  -26.0450   -4.8520 C   0  0  0  0  0  0  0  0  0  0  0  0
   -6.2870  -25.6540   -6.2490 C   0  0  0  0  0  0  0  0  0  0  0  0
   -4.9740  -25.5970   -6.5960 C   0  0  0  0  0  0  0  0  0  0  0  0
   -3.8120  -26.1500   -5.7620 C   0  0  2  0  0  0  0  0  0  0  0  0
   -3.7690  -27.6670   -5.6500 C   0  0  0  0  0  0  0  0  0  0  0  0
   -2.9230  -27.8720   -4.4100 C   0  0  2  0  0  0  0  0  0  0  0  0
   -3.1950  -29.1970   -3.7240 C   0  0  0  0  0  0  0  0  0  0  0  0
   -3.3430  -26.6880   -3.5850 C   0  0  0  0  0  0  0  0  0  0  0  0
   -3.2150  -26.5650   -2.3790 O   0  0  0  0  0  0  0  0  0  0  0  0
   -3.8840  -25.7320   -4.3950 O   0  0  0  0  0  0  0  0  0  0  0  0
   -4.5300  -24.8820   -7.8580 C   0  0  0  0  0  0  0  0  0  0  0  0
   -5.6200  -24.0440   -8.5270 C   0  0  0  0  0  0  0  0  0  0  0  0
   -6.9760  -24.7870   -8.6330 C   0  0  2  0  0  0  0  0  0  0  0  0
   -6.8120  -26.0590   -9.5320 C   0  0  0  0  0  0  0  0  0  0  0  0
   -6.8240  -25.7240  -11.0160 C   0  0  0  0  0  0  0  0  0  0  0  0
   -8.1690  -25.1180  -11.3570 C   0  0  0  0  0  0  0  0  0  0  0  0
   -8.4360  -23.9910  -10.4450 N   0  0  0  0  0  0  0  0  0  0  0  0
   -7.9740  -23.7780   -9.2590 C   0  0  0  0  0  0  0  0  0  0  0  0
   -8.3160  -22.4270   -8.6200 C   0  0  0  0  0  0  0  0  0  0  0  0
   -9.7980  -22.0230   -8.5520 C   0  0  0  0  0  0  0  0  0  0  0  0
  -10.6550  -23.2000   -8.2010 C   0  0  0  0  0  0  0  0  0  0  0  0
  -11.9320  -23.2140   -7.7630 C   0  0  0  0  0  0  0  0  0  0  0  0
  -12.7440  -22.0010   -7.3950 C   0  0  0  0  0  0  0  0  0  0  0  0
  -12.6660  -24.5420   -7.7210 C   0  0  2  0  0  0  0  0  0  0  0  0
  -11.8630  -25.4720   -8.4790 O   0  0  0  0  0  0  0  0  0  0  0  0
  -12.7460  -26.4720   -9.0260 C   0  0  1  0  0  0  0  0  0  0  0  0
  -12.3100  -27.9110   -8.7000 C   0  0  0  0  0  0  0  0  0  0  0  0
  -10.8010  -28.1030   -8.5070 C   0  0  0  0  0  0  0  0  0  0  0  0
  -10.2980  -27.9450   -7.0470 C   0  0  2  0  0  0  0  0  0  0  0  0
  -11.1880  -27.1490   -6.2690 O   0  0  0  0  0  0  0  0  0  0  0  0
   -8.8880  -27.3580   -6.9840 C   0  0  0  0  0  0  0  0  0  0  0  0
   -7.8190  -28.3970   -6.7540 C   0  0  0  0  0  0  0  0  0  0  0  0
   -8.6730  -26.0340   -7.1650 C   0  0  0  0  0  0  0  0  0  0  0  0
   -7.4140  -25.1760   -7.1690 C   0  0  1  0  0  0  0  0  0  0  0  0
  -14.1570  -26.1370   -8.5470 C   0  0  0  0  0  0  0  0  0  0  0  0
  -14.0650  -24.6370   -8.3240 C   0  0  1  0  0  0  0  0  0  0  0  0
  -15.1590  -24.0770   -7.4330 C   0  0  0  0  0  0  0  0  0  0  0  0
   -6.1276  -25.5164   -4.1066 H   0  0  0  0  0  0  0  0  0  0  0  0
   -7.7970  -25.7709   -4.7191 H   0  0  0  0  0  0  0  0  0  0  0  0
   -6.6233  -27.1307   -4.7191 H   0  0  0  0  0  0  0  0  0  0  0  0
   -2.9373  -25.7639   -6.3058 H   0  0  0  0  0  0  0  0  0  0  0  0
   -4.7775  -28.0860   -5.5186 H   0  0  0  0  0  0  0  0  0  0  0  0
   -3.3684  -28.1649   -6.5453 H   0  0  0  0  0  0  0  0  0  0  0  0
   -1.8416  -27.9246   -4.6043 H   0  0  0  0  0  0  0  0  0  0  0  0
   -3.1664  -29.0578   -2.6332 H   0  0  0  0  0  0  0  0  0  0  0  0
   -4.1877  -29.5665   -4.0206 H   0  0  0  0  0  0  0  0  0  0  0  0
   -2.4281  -29.9277   -4.0206 H   0  0  0  0  0  0  0  0  0  0  0  0
   -3.6939  -24.2156   -7.5996 H   0  0  0  0  0  0  0  0  0  0  0  0
   -4.2488  -25.6638   -8.5789 H   0  0  0  0  0  0  0  0  0  0  0  0
   -5.7680  -23.1268   -7.9380 H   0  0  0  0  0  0  0  0  0  0  0  0
   -5.2842  -23.8247   -9.5513 H   0  0  0  0  0  0  0  0  0  0  0  0
   -5.8558  -26.5443   -9.2868 H   0  0  0  0  0  0  0  0  0  0  0  0
   -7.6642  -26.7248   -9.3309 H   0  0  0  0  0  0  0  0  0  0  0  0
   -6.0239  -25.0034  -11.2409 H   0  0  0  0  0  0  0  0  0  0  0  0
   -6.6572  -26.6342  -11.6108 H   0  0  0  0  0  0  0  0  0  0  0  0
   -8.1572  -24.7563  -12.3958 H   0  0  0  0  0  0  0  0  0  0  0  0
   -8.9564  -25.8782  -11.2468 H   0  0  0  0  0  0  0  0  0  0  0  0
   -9.1180  -23.3270  -10.8250 H   0  0  0  0  0  0  0  0  0  0  0  0
   -7.9328  -22.4448   -7.5891 H   0  0  0  0  0  0  0  0  0  0  0  0
   -7.8547  -21.6809   -9.2838 H   0  0  0  0  0  0  0  0  0  0  0  0
   -9.9245  -21.2437   -7.7860 H   0  0  0  0  0  0  0  0  0  0  0  0
  -10.1057  -21.6446   -9.5380 H   0  0  0  0  0  0  0  0  0  0  0  0
  -10.1802  -24.1856   -8.3155 H   0  0  0  0  0  0  0  0  0  0  0  0
  -12.8007  -21.9162   -6.2997 H   0  0  0  0  0  0  0  0  0  0  0  0
  -12.2659  -21.1006   -7.8082 H   0  0  0  0  0  0  0  0  0  0  0  0
  -13.7587  -22.0998   -7.8082 H   0  0  0  0  0  0  0  0  0  0  0  0
  -12.8057  -24.7329   -6.6467 H   0  0  0  0  0  0  0  0  0  0  0  0
  -12.7119  -26.4448  -10.1251 H   0  0  0  0  0  0  0  0  0  0  0  0
  -12.8145  -28.2185   -7.7721 H   0  0  0  0  0  0  0  0  0  0  0  0
  -12.5885  -28.5215   -9.5716 H   0  0  0  0  0  0  0  0  0  0  0  0
  -10.5398  -29.1151   -8.8497 H   0  0  0  0  0  0  0  0  0  0  0  0
  -10.3143  -27.3047   -9.0865 H   0  0  0  0  0  0  0  0  0  0  0  0
  -10.2665  -28.9586   -6.6209 H   0  0  0  0  0  0  0  0  0  0  0  0
  -11.9560  -26.9720   -6.8420 H   0  0  0  0  0  0  0  0  0  0  0  0
   -7.6725  -28.5393   -5.6731 H   0  0  0  0  0  0  0  0  0  0  0  0
   -8.1284  -29.3487   -7.2106 H   0  0  0  0  0  0  0  0  0  0  0  0
   -6.8765  -28.0606   -7.2106 H   0  0  0  0  0  0  0  0  0  0  0  0
   -9.5944  -25.4611   -7.3460 H   0  0  0  0  0  0  0  0  0  0  0  0
   -7.6956  -24.2314   -6.6806 H   0  0  0  0  0  0  0  0  0  0  0  0
  -14.9080  -26.3823   -9.3124 H   0  0  0  0  0  0  0  0  0  0  0  0
  -14.4689  -26.7004   -7.6552 H   0  0  0  0  0  0  0  0  0  0  0  0
  -14.2120  -24.0328   -9.2314 H   0  0  0  0  0  0  0  0  0  0  0  0
  -14.8814  -24.2191   -6.3781 H   0  0  0  0  0  0  0  0  0  0  0  0
  -15.2849  -23.0036   -7.6376 H   0  0  0  0  0  0  0  0  0  0  0  0
  -16.1034  -24.6025   -7.6376 H   0  0  0  0  0  0  0  0  0  0  0  0
  1  2  1  0
  2  3  2  0
  3  4  1  0
  4  5  1  0
  5  6  1  0
  6  7  1  0
  6  8  1  0
  8  9  2  0
  8 10  1  0
  3 11  1  0
 11 12  1  0
 13 12  1  1
 13 14  1  0
 14 15  1  0
 15 16  1  0
 16 17  1  0
 17 18  2  0
 18 19  1  0
 19 20  1  0
 20 21  1  0
 21 22  2  0
 22 23  1  0
 22 24  1  0
 24 25  1  0
 25 26  1  0
 26 27  1  0
 27 28  1  0
 28 29  1  0
 29 30  1  0
 29 31  1  0
 31 32  1  0
 31 33  2  0
 33 34  1  0
 26 35  1  0
 35 36  1  0
 36 37  1  0
 34  2  1  0
 10  4  1  0
 18 13  1  0
 36 24  1  0
 34 13  1  0
  1 38  1  0
  1 39  1  0
  1 40  1  0
  4 41  1  6
  5 42  1  0
  5 43  1  0
  6 44  1  6
  7 45  1  0
  7 46  1  0
  7 47  1  0
 11 48  1  0
 11 49  1  0
 12 50  1  0
 12 51  1  0
 14 52  1  0
 14 53  1  0
 15 54  1  0
 15 55  1  0
 16 56  1  0
 16 57  1  0
 17 58  1  0
 19 59  1  0
 19 60  1  0
 20 61  1  0
 20 62  1  0
 21 63  1  0
 23 64  1  0
 23 65  1  0
 23 66  1  0
 24 67  1  1
 26 68  1  6
 27 69  1  0
 27 70  1  0
 28 71  1  0
 28 72  1  0
 29 73  1  1
 30 74  1  0
 32 75  1  0
 32 76  1  0
 32 77  1  0
 33 78  1  0
 34 79  1  1
 35 80  1  0
 35 81  1  0
 36 82  1  6
 37 83  1  0
 37 84  1  0
 37 85  1  0
M  CHG  1  17   1
M  END
>  <meeko>  (3) 
{"is_sidechain": [false], "free_energy": -7.806, "intermolecular_energy": -11.82, "internal_energy": -0.424}

$$$$
2x00_ligand
     RDKit          3D

 85 89  0  0  0  0  0  0  0  0999 V2000
   -7.9380  -25.7020   -5.1250 C   0  0  0  0  0  0  0  0  0  0  0  0
   -6.7880  -25.5190   -6.1010 C   0  0  0  0  0  0  0  0  0  0  0  0
   -5.4990  -25.7850   -5.7620 C   0  0  0  0  0  0  0  0  0  0  0  0
   -5.0500  -26.5300   -4.5000 C   0  0  2  0  0  0  0  0  0  0  0  0
   -3.9030  -25.8750   -3.7430 C   0  0  0  0  0  0  0  0  0  0  0  0
   -3.3520  -27.0320   -2.9350 C   0  0  2  0  0  0  0  0  0  0  0  0
   -1.8930  -26.8470   -2.5620 C   0  0  0  0  0  0  0  0  0  0  0  0
   -3.5730  -28.1710   -3.8900 C   0  0  0  0  0  0  0  0  0  0  0  0
   -3.0090  -29.2520   -3.8680 O   0  0  0  0  0  0  0  0  0  0  0  0
   -4.5320  -27.8300   -4.7990 O   0  0  0  0  0  0  0  0  0  0  0  0
   -4.3480  -25.2760   -6.6090 C   0  0  0  0  0  0  0  0  0  0  0  0
   -4.7500  -24.2600   -7.6780 C   0  0  0  0  0  0  0  0  0  0  0  0
   -6.0140  -24.6800   -8.4700 C   0  0  2  0  0  0  0  0  0  0  0  0
   -5.7330  -26.0140   -9.2410 C   0  0  0  0  0  0  0  0  0  0  0  0
   -4.9470  -25.7860  -10.5230 C   0  0  0  0  0  0  0  0  0  0  0  0
   -5.7760  -24.9150  -11.4430 C   0  0  0  0  0  0  0  0  0  0  0  0
   -6.1830  -23.6970  -10.7180 N   0  0  0  0  0  0  0  0  0  0  0  0
   -6.3190  -23.5150   -9.4470 C   0  0  0  0  0  0  0  0  0  0  0  0
   -6.6050  -22.0820   -8.9850 C   0  0  0  0  0  0  0  0  0  0  0  0
   -7.8890  -21.4090   -9.4970 C   0  0  0  0  0  0  0  0  0  0  0  0
   -9.1010  -22.0290   -8.8750 C   0  0  0  0  0  0  0  0  0  0  0  0
  -10.0960  -22.7210   -9.4710 C   0  0  0  0  0  0  0  0  0  0  0  0
  -10.2670  -22.9030  -10.9550 C   0  0  0  0  0  0  0  0  0  0  0  0
  -11.0830  -23.4670   -8.5920 C   0  0  2  0  0  0  0  0  0  0  0  0
  -11.4330  -24.6700   -9.3090 O   0  0  0  0  0  0  0  0  0  0  0  0
  -12.7630  -25.0520   -8.9050 C   0  0  1  0  0  0  0  0  0  0  0  0
  -12.8570  -26.5110   -8.4240 C   0  0  0  0  0  0  0  0  0  0  0  0
  -11.5380  -27.1160   -7.9300 C   0  0  0  0  0  0  0  0  0  0  0  0
  -10.3120  -26.8880   -8.8730 C   0  0  2  0  0  0  0  0  0  0  0  0
  -10.1430  -27.9960   -9.7530 O   0  0  0  0  0  0  0  0  0  0  0  0
   -9.0170  -26.6340   -8.1030 C   0  0  0  0  0  0  0  0  0  0  0  0
   -8.4620  -27.8730   -7.4450 C   0  0  0  0  0  0  0  0  0  0  0  0
   -8.4440  -25.4070   -8.0810 C   0  0  0  0  0  0  0  0  0  0  0  0
   -7.1830  -24.8600   -7.4270 C   0  0  1  0  0  0  0  0  0  0  0  0
  -13.2280  -24.0340   -7.8660 C   0  0  0  0  0  0  0  0  0  0  0  0
  -12.4130  -22.8080   -8.2420 C   0  0  1  0  0  0  0  0  0  0  0  0
  -12.3160  -21.7690   -7.1400 C   0  0  0  0  0  0  0  0  0  0  0  0
   -7.5576  -25.6415   -4.0946 H   0  0  0  0  0  0  0  0  0  0  0  0
   -8.6856  -24.9115   -5.2869 H   0  0  0  0  0  0  0  0  0  0  0  0
   -8.4033  -26.6855   -5.2869 H   0  0  0  0  0  0  0  0  0  0  0  0
   -5.9720  -26.5388   -3.9002 H   0  0  0  0  0  0  0  0  0  0  0  0
   -3.1463  -25.4745   -4.4337 H   0  0  0  0  0  0  0  0  0  0  0  0
   -4.2119  -25.0154   -3.1301 H   0  0  0  0  0  0  0  0  0  0  0  0
   -3.8311  -27.1677   -1.9542 H   0  0  0  0  0  0  0  0  0  0  0  0
   -1.7933  -26.8344   -1.4666 H   0  0  0  0  0  0  0  0  0  0  0  0
   -1.3010  -27.6773   -2.9745 H   0  0  0  0  0  0  0  0  0  0  0  0
   -1.5269  -25.8952   -2.9745 H   0  0  0  0  0  0  0  0  0  0  0  0
   -3.6140  -24.8007   -5.9417 H   0  0  0  0  0  0  0  0  0  0  0  0
   -3.9419  -26.1481   -7.1425 H   0  0  0  0  0  0  0  0  0  0  0  0
   -4.9484  -23.2956   -7.1876 H   0  0  0  0  0  0  0  0  0  0  0  0
   -3.9196  -24.1932   -8.3963 H   0  0  0  0  0  0  0  0  0  0  0  0
   -5.1567  -26.6854   -8.5875 H   0  0  0  0  0  0  0  0  0  0  0  0
   -6.7029  -26.4546   -9.5151 H   0  0  0  0  0  0  0  0  0  0  0  0
   -3.9966  -25.2829  -10.2916 H   0  0  0  0  0  0  0  0  0  0  0  0
   -4.7286  -26.7484  -11.0088 H   0  0  0  0  0  0  0  0  0  0  0  0
   -5.1788  -24.6370  -12.3239 H   0  0  0  0  0  0  0  0  0  0  0  0
   -6.6693  -25.4671  -11.7703 H   0  0  0  0  0  0  0  0  0  0  0  0
   -6.4200  -22.9230  -11.3460 H   0  0  0  0  0  0  0  0  0  0  0  0
   -6.6566  -22.0952   -7.8863 H   0  0  0  0  0  0  0  0  0  0  0  0
   -5.7875  -21.4834   -9.4133 H   0  0  0  0  0  0  0  0  0  0  0  0
   -7.8610  -20.3392   -9.2428 H   0  0  0  0  0  0  0  0  0  0  0  0
   -7.9456  -21.5432  -10.5873 H   0  0  0  0  0  0  0  0  0  0  0  0
   -9.1938  -21.9043   -7.7860 H   0  0  0  0  0  0  0  0  0  0  0  0
  -11.0090  -23.6927  -11.1445 H   0  0  0  0  0  0  0  0  0  0  0  0
  -10.6131  -21.9597  -11.4026 H   0  0  0  0  0  0  0  0  0  0  0  0
   -9.3040  -23.1897  -11.4026 H   0  0  0  0  0  0  0  0  0  0  0  0
  -10.5563  -23.5694   -7.6317 H   0  0  0  0  0  0  0  0  0  0  0  0
  -13.4403  -25.0321   -9.7715 H   0  0  0  0  0  0  0  0  0  0  0  0
  -13.5819  -26.5519   -7.5977 H   0  0  0  0  0  0  0  0  0  0  0  0
  -13.1590  -27.1047   -9.2994 H   0  0  0  0  0  0  0  0  0  0  0  0
  -11.3036  -26.6707   -6.9519 H   0  0  0  0  0  0  0  0  0  0  0  0
  -11.6955  -28.2039   -7.8883 H   0  0  0  0  0  0  0  0  0  0  0  0
  -10.5296  -25.9826   -9.4585 H   0  0  0  0  0  0  0  0  0  0  0  0
   -9.7640  -28.7110   -9.2100 H   0  0  0  0  0  0  0  0  0  0  0  0
   -8.5120  -27.7613   -6.3518 H   0  0  0  0  0  0  0  0  0  0  0  0
   -9.0543  -28.7477   -7.7517 H   0  0  0  0  0  0  0  0  0  0  0  0
   -7.4150  -28.0134   -7.7517 H   0  0  0  0  0  0  0  0  0  0  0  0
   -9.0040  -24.6519   -8.6521 H   0  0  0  0  0  0  0  0  0  0  0  0
   -7.4394  -23.8455   -7.0878 H   0  0  0  0  0  0  0  0  0  0  0  0
  -14.3071  -23.8389   -7.9521 H   0  0  0  0  0  0  0  0  0  0  0  0
  -13.0831  -24.3623   -6.8262 H   0  0  0  0  0  0  0  0  0  0  0  0
  -12.8481  -22.2044   -9.0521 H   0  0  0  0  0  0  0  0  0  0  0  0
  -12.3626  -22.2678   -6.1607 H   0  0  0  0  0  0  0  0  0  0  0  0
  -11.3633  -21.2266   -7.2303 H   0  0  0  0  0  0  0  0  0  0  0  0
  -13.1518  -21.0596   -7.2303 H   0  0  0  0  0  0  0  0  0  0  0  0
  1  2  1  0
  2  3  2  0
  3  4  1  0
  4  5  1  0
  5  6  1  0
  6  7  1  0
  6  8  1  0
  8  9  2  0
  8 10  1  0
  3 11  1  0
 11 12  1  0
 13 12  1  1
 13 14  1  0
 14 15  1  0
 15 16  1  0
 16 17  1  0
 17 18  2  0
 18 19  1  0
 19 20  1  0
 20 21  1  0
 21 22  2  0
 22 23  1  0
 22 24  1  0
 24 25  1  0
 25 26  1  0
 26 27  1  0
 27 28  1  0
 28 29  1  0
 29 30  1  0
 29 31  1  0
 31 32  1  0
 31 33  2  0
 33 34  1  0
 26 35  1  0
 35 36  1  0
 36 37  1  0
 34  2  1  0
 10  4  1  0
 18 13  1  0
 36 24  1  0
 34 13  1  0
  1 38  1  0
  1 39  1  0
  1 40  1  0
  4 41  1  1
  5 42  1  0
  5 43  1  0
  6 44  1  1
  7 45  1  0
  7 46  1  0
  7 47  1  0
 11 48  1  0
 11 49  1  0
 12 50  1  0
 12 51  1  0
 14 52  1  0
 14 53  1  0
 15 54  1  0
 15 55  1  0
 16 56  1  0
 16 57  1  0
 17 58  1  0
 19 59  1  0
 19 60  1  0
 20 61  1  0
 20 62  1  0
 21 63  1  0
 23 64  1  0
 23 65  1  0
 23 66  1  0
 24 67  1  1
 26 68  1  6
 27 69  1  0
 27 70  1  0
 28 71  1  0
 28 72  1  0
 29 73  1  6
 30 74  1  0
 32 75  1  0
 32 76  1  0
 32 77  1  0
 33 78  1  0
 34 79  1  1
 35 80  1  0
 35 81  1  0
 36 82  1  6
 37 83  1  0
 37 84  1  0
 37 85  1  0
M  CHG  1  17   1
M  END
>  <meeko>  (4) 
{"is_sidechain": [false], "free_energy": -7.548, "intermolecular_energy": -12.0, "internal_energy": 0.158}

$$$$
2x00_ligand
     RDKit          3D

 85 89  0  0  0  0  0  0  0  0999 V2000
  -11.0960  -24.7640  -14.1300 C   0  0  0  0  0  0  0  0  0  0  0  0
  -10.0630  -23.7000  -13.8030 C   0  0  0  0  0  0  0  0  0  0  0  0
   -9.7600  -22.6940  -14.6650 C   0  0  0  0  0  0  0  0  0  0  0  0
  -10.5620  -22.3310  -15.9200 C   0  0  2  0  0  0  0  0  0  0  0  0
  -10.7990  -23.4840  -16.8850 C   0  0  0  0  0  0  0  0  0  0  0  0
  -11.0970  -22.7590  -18.1820 C   0  0  2  0  0  0  0  0  0  0  0  0
  -10.7880  -23.5970  -19.4090 C   0  0  0  0  0  0  0  0  0  0  0  0
  -10.1970  -21.5630  -18.0480 C   0  0  0  0  0  0  0  0  0  0  0  0
   -9.8080  -20.8460  -18.9540 O   0  0  0  0  0  0  0  0  0  0  0  0
   -9.8810  -21.3700  -16.7340 O   0  0  0  0  0  0  0  0  0  0  0  0
   -8.5060  -21.8600  -14.4840 C   0  0  0  0  0  0  0  0  0  0  0  0
   -7.5270  -22.4080  -13.4450 C   0  0  0  0  0  0  0  0  0  0  0  0
   -8.2200  -22.8500  -12.1310 C   0  0  2  0  0  0  0  0  0  0  0  0
   -8.9020  -21.6140  -11.4550 C   0  0  0  0  0  0  0  0  0  0  0  0
   -7.9080  -20.7480  -10.6960 C   0  0  0  0  0  0  0  0  0  0  0  0
   -7.3040  -21.5780   -9.5830 C   0  0  0  0  0  0  0  0  0  0  0  0
   -6.7610  -22.8260  -10.1510 N   0  0  0  0  0  0  0  0  0  0  0  0
   -7.1040  -23.4430  -11.2320 C   0  0  0  0  0  0  0  0  0  0  0  0
   -6.2420  -24.6420  -11.6420 C   0  0  0  0  0  0  0  0  0  0  0  0
   -5.8530  -25.6500  -10.5480 C   0  0  0  0  0  0  0  0  0  0  0  0
   -7.0530  -26.0670   -9.7560 C   0  0  0  0  0  0  0  0  0  0  0  0
   -7.1760  -26.2040   -8.4190 C   0  0  0  0  0  0  0  0  0  0  0  0
   -6.0550  -26.0930   -7.4210 C   0  0  0  0  0  0  0  0  0  0  0  0
   -8.5660  -26.3920   -7.8380 C   0  0  2  0  0  0  0  0  0  0  0  0
   -9.1470  -25.0740   -7.7460 O   0  0  0  0  0  0  0  0  0  0  0  0
  -10.0980  -25.0860   -6.6620 C   0  0  1  0  0  0  0  0  0  0  0  0
  -11.4910  -24.5780   -7.0710 C   0  0  0  0  0  0  0  0  0  0  0  0
  -11.5340  -23.7900   -8.3850 C   0  0  0  0  0  0  0  0  0  0  0  0
  -11.9640  -24.6300   -9.6190 C   0  0  2  0  0  0  0  0  0  0  0  0
  -11.5920  -25.9990   -9.4840 O   0  0  0  0  0  0  0  0  0  0  0  0
  -11.3820  -24.0600  -10.9120 C   0  0  0  0  0  0  0  0  0  0  0  0
  -12.3260  -23.1270  -11.6290 C   0  0  0  0  0  0  0  0  0  0  0  0
  -10.1230  -24.3620  -11.3060 C   0  0  0  0  0  0  0  0  0  0  0  0
   -9.2830  -23.9520  -12.5090 C   0  0  1  0  0  0  0  0  0  0  0  0
  -10.1050  -26.5000   -6.0860 C   0  0  0  0  0  0  0  0  0  0  0  0
   -8.7130  -26.9910   -6.4420 C   0  0  1  0  0  0  0  0  0  0  0  0
   -8.5620  -28.5010   -6.4010 C   0  0  0  0  0  0  0  0  0  0  0  0
  -11.5010  -25.1811  -13.1962 H   0  0  0  0  0  0  0  0  0  0  0  0
  -11.9120  -24.3152  -14.7153 H   0  0  0  0  0  0  0  0  0  0  0  0
  -10.6232  -25.5664  -14.7153 H   0  0  0  0  0  0  0  0  0  0  0  0
  -11.5073  -21.9688  -15.4896 H   0  0  0  0  0  0  0  0  0  0  0  0
   -9.9040  -24.1167  -16.9782 H   0  0  0  0  0  0  0  0  0  0  0  0
  -11.5994  -24.1685  -16.5675 H   0  0  0  0  0  0  0  0  0  0  0  0
  -12.1585  -22.5096  -18.3270 H   0  0  0  0  0  0  0  0  0  0  0  0
  -10.4233  -24.5862  -19.0951 H   0  0  0  0  0  0  0  0  0  0  0  0
  -11.7011  -23.7168  -20.0106 H   0  0  0  0  0  0  0  0  0  0  0  0
  -10.0157  -23.0954  -20.0106 H   0  0  0  0  0  0  0  0  0  0  0  0
   -7.9860  -21.8062  -15.4518 H   0  0  0  0  0  0  0  0  0  0  0  0
   -8.8338  -20.8759  -14.1179 H   0  0  0  0  0  0  0  0  0  0  0  0
   -7.0082  -23.2767  -13.8766 H   0  0  0  0  0  0  0  0  0  0  0  0
   -6.8294  -21.5963  -13.1912 H   0  0  0  0  0  0  0  0  0  0  0  0
   -9.3795  -21.0031  -12.2352 H   0  0  0  0  0  0  0  0  0  0  0  0
   -9.6398  -21.9913  -10.7316 H   0  0  0  0  0  0  0  0  0  0  0  0
   -7.1149  -20.4077  -11.3781 H   0  0  0  0  0  0  0  0  0  0  0  0
   -8.4165  -19.8670  -10.2774 H   0  0  0  0  0  0  0  0  0  0  0  0
   -6.4951  -21.0114   -9.0985 H   0  0  0  0  0  0  0  0  0  0  0  0
   -8.0769  -21.8160   -8.8373 H   0  0  0  0  0  0  0  0  0  0  0  0
   -6.0440  -23.2530   -9.5570 H   0  0  0  0  0  0  0  0  0  0  0  0
   -6.7946  -25.1944  -12.4162 H   0  0  0  0  0  0  0  0  0  0  0  0
   -5.2877  -24.2007  -11.9654 H   0  0  0  0  0  0  0  0  0  0  0  0
   -5.4056  -26.5379  -11.0187 H   0  0  0  0  0  0  0  0  0  0  0  0
   -5.1321  -25.1714   -9.8688 H   0  0  0  0  0  0  0  0  0  0  0  0
   -7.9559  -26.2920  -10.3427 H   0  0  0  0  0  0  0  0  0  0  0  0
   -6.4663  -26.1337   -6.4016 H   0  0  0  0  0  0  0  0  0  0  0  0
   -5.3512  -26.9258   -7.5660 H   0  0  0  0  0  0  0  0  0  0  0  0
   -5.5282  -25.1383   -7.5660 H   0  0  0  0  0  0  0  0  0  0  0  0
   -9.0378  -27.1217   -8.5125 H   0  0  0  0  0  0  0  0  0  0  0  0
   -9.7930  -24.3715   -5.8832 H   0  0  0  0  0  0  0  0  0  0  0  0
  -12.1551  -25.4489   -7.1737 H   0  0  0  0  0  0  0  0  0  0  0  0
  -11.8063  -23.8783   -6.2829 H   0  0  0  0  0  0  0  0  0  0  0  0
  -12.2474  -22.9611   -8.2667 H   0  0  0  0  0  0  0  0  0  0  0  0
  -10.5077  -23.4454   -8.5800 H   0  0  0  0  0  0  0  0  0  0  0  0
  -13.0614  -24.5739   -9.6704 H   0  0  0  0  0  0  0  0  0  0  0  0
  -11.3730  -26.3060  -10.3830 H   0  0  0  0  0  0  0  0  0  0  0  0
  -12.9060  -22.5537  -10.8908 H   0  0  0  0  0  0  0  0  0  0  0  0
  -11.7488  -22.4347  -12.2595 H   0  0  0  0  0  0  0  0  0  0  0  0
  -13.0115  -23.7123  -12.2595 H   0  0  0  0  0  0  0  0  0  0  0  0
   -9.5997  -25.0418  -10.6175 H   0  0  0  0  0  0  0  0  0  0  0  0
   -8.7025  -24.8443  -12.7862 H   0  0  0  0  0  0  0  0  0  0  0  0
  -10.2583  -26.4874   -4.9968 H   0  0  0  0  0  0  0  0  0  0  0  0
  -10.9135  -27.1350   -6.4773 H   0  0  0  0  0  0  0  0  0  0  0  0
   -7.9294  -26.6880   -5.7320 H   0  0  0  0  0  0  0  0  0  0  0  0
   -8.5283  -28.8378   -5.3544 H   0  0  0  0  0  0  0  0  0  0  0  0
   -9.4178  -28.9690   -6.9095 H   0  0  0  0  0  0  0  0  0  0  0  0
   -7.6304  -28.7903   -6.9095 H   0  0  0  0  0  0  0  0  0  0  0  0
  1  2  1  0
  2  3  2  0
  3  4  1  0
  4  5  1  0
  5  6  1  0
  6  7  1  0
  6  8  1  0
  8  9  2  0
  8 10  1  0
  3 11  1  0
 11 12  1  0
 13 12  1  6
 13 14  1  0
 14 15  1  0
 15 16  1  0
 16 17  1  0
 17 18  2  0
 18 19  1  0
 19 20  1  0
 20 21  1  0
 21 22  2  0
 22 23  1  0
 22 24  1  0
 24 25  1  0
 25 26  1  0
 26 27  1  0
 27 28  1  0
 28 29  1  0
 29 30  1  0
 29 31  1  0
 31 32  1  0
 31 33  2  0
 33 34  1  0
 26 35  1  0
 35 36  1  0
 36 37  1  0
 34  2  1  0
 10  4  1  0
 18 13  1  0
 36 24  1  0
 34 13  1  0
  1 38  1  0
  1 39  1  0
  1 40  1  0
  4 41  1  1
  5 42  1  0
  5 43  1  0
  6 44  1  1
  7 45  1  0
  7 46  1  0
  7 47  1  0
 11 48  1  0
 11 49  1  0
 12 50  1  0
 12 51  1  0
 14 52  1  0
 14 53  1  0
 15 54  1  0
 15 55  1  0
 16 56  1  0
 16 57  1  0
 17 58  1  0
 19 59  1  0
 19 60  1  0
 20 61  1  0
 20 62  1  0
 21 63  1  0
 23 64  1  0
 23 65  1  0
 23 66  1  0
 24 67  1  6
 26 68  1  1
 27 69  1  0
 27 70  1  0
 28 71  1  0
 28 72  1  0
 29 73  1  6
 30 74  1  0
 32 75  1  0
 32 76  1  0
 32 77  1  0
 33 78  1  0
 34 79  1  6
 35 80  1  0
 35 81  1  0
 36 82  1  1
 37 83  1  0
 37 84  1  0
 37 85  1  0
M  CHG  1  17   1
M  END
>  <meeko>  (5) 
{"is_sidechain": [false], "free_energy": -7.441, "intermolecular_energy": -10.82, "internal_energy": -0.856}

$$$$
2x00_ligand
     RDKit          3D

 85 89  0  0  0  0  0  0  0  0999 V2000
   -9.3410  -25.9970   -6.3760 C   0  0  0  0  0  0  0  0  0  0  0  0
   -8.0330  -25.8880   -7.1410 C   0  0  0  0  0  0  0  0  0  0  0  0
   -6.9400  -26.6290   -6.8190 C   0  0  0  0  0  0  0  0  0  0  0  0
   -6.9320  -27.8250   -5.8590 C   0  0  2  0  0  0  0  0  0  0  0  0
   -5.6110  -28.5790   -5.7870 C   0  0  0  0  0  0  0  0  0  0  0  0
   -6.0420  -29.9260   -5.2410 C   0  0  2  0  0  0  0  0  0  0  0  0
   -5.0870  -31.0440   -5.6140 C   0  0  0  0  0  0  0  0  0  0  0  0
   -7.3920  -30.0700   -5.8840 C   0  0  0  0  0  0  0  0  0  0  0  0
   -8.0110  -31.1080   -6.0420 O   0  0  0  0  0  0  0  0  0  0  0  0
   -7.8560  -28.8420   -6.2600 O   0  0  0  0  0  0  0  0  0  0  0  0
   -5.5660  -26.2680   -7.3510 C   0  0  0  0  0  0  0  0  0  0  0  0
   -5.4910  -24.9020   -8.0320 C   0  0  0  0  0  0  0  0  0  0  0  0
   -6.6640  -24.6480   -9.0120 C   0  0  2  0  0  0  0  0  0  0  0  0
   -6.6200  -25.6990  -10.1720 C   0  0  0  0  0  0  0  0  0  0  0  0
   -5.5910  -25.3450  -11.2350 C   0  0  0  0  0  0  0  0  0  0  0  0
   -5.9860  -24.0230  -11.8580 C   0  0  0  0  0  0  0  0  0  0  0  0
   -6.1740  -23.0220  -10.7920 N   0  0  0  0  0  0  0  0  0  0  0  0
   -6.4740  -23.2050   -9.5500 C   0  0  0  0  0  0  0  0  0  0  0  0
   -6.4440  -21.9680   -8.6460 C   0  0  0  0  0  0  0  0  0  0  0  0
   -7.3290  -20.7730   -9.0390 C   0  0  0  0  0  0  0  0  0  0  0  0
   -8.2480  -21.1380  -10.1630 C   0  0  0  0  0  0  0  0  0  0  0  0
   -8.4600  -20.4870  -11.3270 C   0  0  0  0  0  0  0  0  0  0  0  0
   -7.8940  -19.1410  -11.6910 C   0  0  0  0  0  0  0  0  0  0  0  0
   -9.2500  -21.1910  -12.4150 C   0  0  2  0  0  0  0  0  0  0  0  0
   -9.5100  -22.5240  -11.9270 O   0  0  0  0  0  0  0  0  0  0  0  0
   -9.6340  -23.3950  -13.0690 C   0  0  1  0  0  0  0  0  0  0  0  0
  -10.9310  -24.2220  -13.0660 C   0  0  0  0  0  0  0  0  0  0  0  0
  -10.9100  -25.4570  -12.1570 C   0  0  0  0  0  0  0  0  0  0  0  0
  -11.1330  -25.1740  -10.6400 C   0  0  2  0  0  0  0  0  0  0  0  0
  -11.4480  -23.8060  -10.3970 O   0  0  0  0  0  0  0  0  0  0  0  0
   -9.9120  -25.5800   -9.8160 C   0  0  0  0  0  0  0  0  0  0  0  0
   -9.5550  -27.0390   -9.9580 C   0  0  0  0  0  0  0  0  0  0  0  0
   -9.2300  -24.6710   -9.0800 C   0  0  0  0  0  0  0  0  0  0  0  0
   -8.0020  -24.7670   -8.1850 C   0  0  1  0  0  0  0  0  0  0  0  0
   -9.4630  -22.5290  -14.3160 C   0  0  0  0  0  0  0  0  0  0  0  0
   -8.6150  -21.3850  -13.7880 C   0  0  1  0  0  0  0  0  0  0  0  0
   -8.6430  -20.1430  -14.6610 C   0  0  0  0  0  0  0  0  0  0  0  0
   -9.1363  -25.9799   -5.2954 H   0  0  0  0  0  0  0  0  0  0  0  0
   -9.9915  -25.1499   -6.6394 H   0  0  0  0  0  0  0  0  0  0  0  0
   -9.8423  -26.9400   -6.6394 H   0  0  0  0  0  0  0  0  0  0  0  0
   -7.1746  -27.3484   -4.8978 H   0  0  0  0  0  0  0  0  0  0  0  0
   -5.1542  -28.6796   -6.7826 H   0  0  0  0  0  0  0  0  0  0  0  0
   -4.8483  -28.0769   -5.1737 H   0  0  0  0  0  0  0  0  0  0  0  0
   -6.0581  -29.9851   -4.1427 H   0  0  0  0  0  0  0  0  0  0  0  0
   -4.6905  -31.5081   -4.6989 H   0  0  0  0  0  0  0  0  0  0  0  0
   -5.6219  -31.8006   -6.2068 H   0  0  0  0  0  0  0  0  0  0  0  0
   -4.2561  -30.6339   -6.2068 H   0  0  0  0  0  0  0  0  0  0  0  0
   -4.8591  -26.2714   -6.5082 H   0  0  0  0  0  0  0  0  0  0  0  0
   -5.3209  -27.0156   -8.1197 H   0  0  0  0  0  0  0  0  0  0  0  0
   -5.5075  -24.1223   -7.2562 H   0  0  0  0  0  0  0  0  0  0  0  0
   -4.5611  -24.8780   -8.6191 H   0  0  0  0  0  0  0  0  0  0  0  0
   -6.3670  -26.6823   -9.7487 H   0  0  0  0  0  0  0  0  0  0  0  0
   -7.6093  -25.7103  -10.6527 H   0  0  0  0  0  0  0  0  0  0  0  0
   -4.5960  -25.2565  -10.7745 H   0  0  0  0  0  0  0  0  0  0  0  0
   -5.5553  -26.1306  -12.0041 H   0  0  0  0  0  0  0  0  0  0  0  0
   -5.1930  -23.6872  -12.5424 H   0  0  0  0  0  0  0  0  0  0  0  0
   -6.9235  -24.1448  -12.4203 H   0  0  0  0  0  0  0  0  0  0  0  0
   -6.0840  -22.0600  -11.1310 H   0  0  0  0  0  0  0  0  0  0  0  0
   -6.7529  -22.2887   -7.6402 H   0  0  0  0  0  0  0  0  0  0  0  0
   -5.4143  -21.5896   -8.7271 H   0  0  0  0  0  0  0  0  0  0  0  0
   -7.9279  -20.4664   -8.1688 H   0  0  0  0  0  0  0  0  0  0  0  0
   -6.6806  -19.9476   -9.3681 H   0  0  0  0  0  0  0  0  0  0  0  0
   -8.8291  -22.0612  -10.0216 H   0  0  0  0  0  0  0  0  0  0  0  0
   -7.6589  -18.5818  -10.7734 H   0  0  0  0  0  0  0  0  0  0  0  0
   -6.9768  -19.2768  -12.2828 H   0  0  0  0  0  0  0  0  0  0  0  0
   -8.6326  -18.5805  -12.2828 H   0  0  0  0  0  0  0  0  0  0  0  0
  -10.1080  -20.5254  -12.5905 H   0  0  0  0  0  0  0  0  0  0  0  0
   -8.8492  -24.1653  -13.0422 H   0  0  0  0  0  0  0  0  0  0  0  0
  -11.7516  -23.5685  -12.7350 H   0  0  0  0  0  0  0  0  0  0  0  0
  -11.0586  -24.5975  -14.0920 H   0  0  0  0  0  0  0  0  0  0  0  0
  -11.7027  -26.1407  -12.4949 H   0  0  0  0  0  0  0  0  0  0  0  0
   -9.8975  -25.8785  -12.2413 H   0  0  0  0  0  0  0  0  0  0  0  0
  -11.9921  -25.7853  -10.3265 H   0  0  0  0  0  0  0  0  0  0  0  0
  -10.9320  -23.5490   -9.6110 H   0  0  0  0  0  0  0  0  0  0  0  0
   -9.4450  -27.4884   -8.9600 H   0  0  0  0  0  0  0  0  0  0  0  0
  -10.3522  -27.5596  -10.5088 H   0  0  0  0  0  0  0  0  0  0  0  0
   -8.6074  -27.1327  -10.5088 H   0  0  0  0  0  0  0  0  0  0  0  0
   -9.6486  -23.6556   -9.1411 H   0  0  0  0  0  0  0  0  0  0  0  0
   -8.0342  -23.8773   -7.5390 H   0  0  0  0  0  0  0  0  0  0  0  0
   -8.9428  -23.0769  -15.1155 H   0  0  0  0  0  0  0  0  0  0  0  0
  -10.4129  -22.2069  -14.7676 H   0  0  0  0  0  0  0  0  0  0  0  0
   -7.5352  -21.5937  -13.7637 H   0  0  0  0  0  0  0  0  0  0  0  0
   -8.6632  -19.2469  -14.0233 H   0  0  0  0  0  0  0  0  0  0  0  0
   -7.7451  -20.1209  -15.2961 H   0  0  0  0  0  0  0  0  0  0  0  0
   -9.5410  -20.1614  -15.2961 H   0  0  0  0  0  0  0  0  0  0  0  0
  1  2  1  0
  2  3  2  0
  3  4  1  0
  4  5  1  0
  5  6  1  0
  6  7  1  0
  6  8  1  0
  8  9  2  0
  8 10  1  0
  3 11  1  0
 11 12  1  0
 13 12  1  1
 13 14  1  0
 14 15  1  0
 15 16  1  0
 16 17  1  0
 17 18  2  0
 18 19  1  0
 19 20  1  0
 20 21  1  0
 21 22  2  0
 22 23  1  0
 22 24  1  0
 24 25  1  0
 25 26  1  0
 26 27  1  0
 27 28  1  0
 28 29  1  0
 29 30  1  0
 29 31  1  0
 31 32  1  0
 31 33  2  0
 33 34  1  0
 26 35  1  0
 35 36  1  0
 36 37  1  0
 34  2  1  0
 10  4  1  0
 18 13  1  0
 36 24  1  0
 34 13  1  0
  1 38  1  0
  1 39  1  0
  1 40  1  0
  4 41  1  1
  5 42  1  0
  5 43  1  0
  6 44  1  1
  7 45  1  0
  7 46  1  0
  7 47  1  0
 11 48  1  0
 11 49  1  0
 12 50  1  0
 12 51  1  0
 14 52  1  0
 14 53  1  0
 15 54  1  0
 15 55  1  0
 16 56  1  0
 16 57  1  0
 17 58  1  0
 19 59  1  0
 19 60  1  0
 20 61  1  0
 20 62  1  0
 21 63  1  0
 23 64  1  0
 23 65  1  0
 23 66  1  0
 24 67  1  6
 26 68  1  1
 27 69  1  0
 27 70  1  0
 28 71  1  0
 28 72  1  0
 29 73  1  1
 30 74  1  0
 32 75  1  0
 32 76  1  0
 32 77  1  0
 33 78  1  0
 34 79  1  1
 35 80  1  0
 35 81  1  0
 36 82  1  1
 37 83  1  0
 37 84  1  0
 37 85  1  0
M  CHG  1  17   1
M  END
>  <meeko>  (6) 
{"is_sidechain": [false], "free_energy": -7.248, "intermolecular_energy": -10.772, "internal_energy": -0.604}

$$$$
2x00_ligand
     RDKit          3D

 85 89  0  0  0  0  0  0  0  0999 V2000
  -11.7300  -24.3940  -15.2380 C   0  0  0  0  0  0  0  0  0  0  0  0
  -10.6870  -23.2900  -15.2200 C   0  0  0  0  0  0  0  0  0  0  0  0
  -10.3010  -22.6380  -16.3490 C   0  0  0  0  0  0  0  0  0  0  0  0
  -11.0120  -22.7170  -17.7050 C   0  0  2  0  0  0  0  0  0  0  0  0
  -10.2380  -23.4480  -18.7920 C   0  0  0  0  0  0  0  0  0  0  0  0
  -10.8820  -22.9160  -20.0560 C   0  0  2  0  0  0  0  0  0  0  0  0
   -9.9640  -22.9920  -21.2620 C   0  0  0  0  0  0  0  0  0  0  0  0
  -11.1900  -21.5050  -19.6410 C   0  0  0  0  0  0  0  0  0  0  0  0
  -11.4030  -20.5630  -20.3850 O   0  0  0  0  0  0  0  0  0  0  0  0
  -11.2200  -21.4230  -18.2790 O   0  0  0  0  0  0  0  0  0  0  0  0
   -9.0360  -21.8010  -16.3740 C   0  0  0  0  0  0  0  0  0  0  0  0
   -8.1400  -21.9720  -15.1470 C   0  0  0  0  0  0  0  0  0  0  0  0
   -8.9270  -21.9360  -13.8120 C   0  0  2  0  0  0  0  0  0  0  0  0
   -9.6120  -20.5380  -13.6420 C   0  0  0  0  0  0  0  0  0  0  0  0
   -8.6410  -19.4730  -13.1550 C   0  0  0  0  0  0  0  0  0  0  0  0
   -8.1340  -19.8810  -11.7880 C   0  0  0  0  0  0  0  0  0  0  0  0
   -7.5950  -21.2510  -11.8610 N   0  0  0  0  0  0  0  0  0  0  0  0
   -7.8880  -22.1960  -12.6910 C   0  0  0  0  0  0  0  0  0  0  0  0
   -7.0380  -23.4690  -12.6100 C   0  0  0  0  0  0  0  0  0  0  0  0
   -6.4040  -23.8210  -11.2540 C   0  0  0  0  0  0  0  0  0  0  0  0
   -7.4090  -24.4570  -10.3450 C   0  0  0  0  0  0  0  0  0  0  0  0
   -7.4070  -24.5200   -8.9960 C   0  0  0  0  0  0  0  0  0  0  0  0
   -6.2850  -24.0640   -8.1010 C   0  0  0  0  0  0  0  0  0  0  0  0
   -8.6650  -24.9960   -8.2940 C   0  0  2  0  0  0  0  0  0  0  0  0
   -9.7050  -24.0610   -8.6490 O   0  0  0  0  0  0  0  0  0  0  0  0
  -10.6650  -24.0400   -7.5730 C   0  0  1  0  0  0  0  0  0  0  0  0
  -12.1090  -24.2830   -8.0430 C   0  0  0  0  0  0  0  0  0  0  0  0
  -12.2480  -24.7470   -9.4970 C   0  0  0  0  0  0  0  0  0  0  0  0
  -12.1770  -23.6270  -10.5550 C   0  0  2  0  0  0  0  0  0  0  0  0
  -13.4530  -23.3810  -11.1380 O   0  0  0  0  0  0  0  0  0  0  0  0
  -11.1570  -23.9370  -11.6500 C   0  0  0  0  0  0  0  0  0  0  0  0
  -10.5140  -25.2930  -11.4990 C   0  0  0  0  0  0  0  0  0  0  0  0
  -10.9230  -23.0630  -12.6570 C   0  0  0  0  0  0  0  0  0  0  0  0
   -9.9970  -23.0930  -13.8670 C   0  0  1  0  0  0  0  0  0  0  0  0
  -10.1850  -25.0390   -6.5230 C   0  0  0  0  0  0  0  0  0  0  0  0
   -8.6860  -25.0580   -6.7690 C   0  0  1  0  0  0  0  0  0  0  0  0
   -7.9820  -26.2720   -6.1920 C   0  0  0  0  0  0  0  0  0  0  0  0
  -11.9902  -24.6694  -14.2053 H   0  0  0  0  0  0  0  0  0  0  0  0
  -12.6304  -24.0393  -15.7609 H   0  0  0  0  0  0  0  0  0  0  0  0
  -11.3247  -25.2728  -15.7609 H   0  0  0  0  0  0  0  0  0  0  0  0
  -11.9388  -23.2498  -17.4460 H   0  0  0  0  0  0  0  0  0  0  0  0
   -9.1671  -23.1995  -18.7549 H   0  0  0  0  0  0  0  0  0  0  0  0
  -10.2792  -24.5436  -18.7028 H   0  0  0  0  0  0  0  0  0  0  0  0
  -11.7595  -23.4880  -20.3918 H   0  0  0  0  0  0  0  0  0  0  0  0
   -8.9208  -23.0784  -20.9239 H   0  0  0  0  0  0  0  0  0  0  0  0
  -10.2270  -23.8714  -21.8681 H   0  0  0  0  0  0  0  0  0  0  0  0
  -10.0788  -22.0813  -21.8681 H   0  0  0  0  0  0  0  0  0  0  0  0
   -8.4556  -22.0815  -17.2653 H   0  0  0  0  0  0  0  0  0  0  0  0
   -9.3565  -20.7488  -16.3840 H   0  0  0  0  0  0  0  0  0  0  0  0
   -7.6228  -22.9398  -15.2229 H   0  0  0  0  0  0  0  0  0  0  0  0
   -7.4339  -21.1286  -15.1353 H   0  0  0  0  0  0  0  0  0  0  0  0
  -10.0220  -20.2248  -14.6135 H   0  0  0  0  0  0  0  0  0  0  0  0
  -10.4038  -20.6417  -12.8855 H   0  0  0  0  0  0  0  0  0  0  0  0
   -7.7969  -19.3910  -13.8555 H   0  0  0  0  0  0  0  0  0  0  0  0
   -9.1465  -18.4978  -13.0961 H   0  0  0  0  0  0  0  0  0  0  0  0
   -7.3403  -19.1897  -11.4684 H   0  0  0  0  0  0  0  0  0  0  0  0
   -8.9595  -19.8464  -11.0618 H   0  0  0  0  0  0  0  0  0  0  0  0
   -6.9290  -21.4560  -11.1100 H   0  0  0  0  0  0  0  0  0  0  0  0
   -7.6815  -24.3125  -12.9005 H   0  0  0  0  0  0  0  0  0  0  0  0
   -6.1830  -23.2747  -13.2742 H   0  0  0  0  0  0  0  0  0  0  0  0
   -5.5711  -24.5210  -11.4164 H   0  0  0  0  0  0  0  0  0  0  0  0
   -6.0407  -22.8950  -10.7843 H   0  0  0  0  0  0  0  0  0  0  0  0
   -8.2641  -24.9377  -10.8428 H   0  0  0  0  0  0  0  0  0  0  0  0
   -6.5828  -24.1850   -7.0490 H   0  0  0  0  0  0  0  0  0  0  0  0
   -5.3882  -24.6690   -8.3001 H   0  0  0  0  0  0  0  0  0  0  0  0
   -6.0645  -23.0049   -8.3001 H   0  0  0  0  0  0  0  0  0  0  0  0
   -8.7722  -26.0401   -8.6231 H   0  0  0  0  0  0  0  0  0  0  0  0
  -10.7150  -23.0343   -7.1303 H   0  0  0  0  0  0  0  0  0  0  0  0
  -12.5536  -25.0529   -7.3952 H   0  0  0  0  0  0  0  0  0  0  0  0
  -12.6201  -23.3109   -7.9806 H   0  0  0  0  0  0  0  0  0  0  0  0
  -11.4386  -25.4625   -9.7044 H   0  0  0  0  0  0  0  0  0  0  0  0
  -13.2541  -25.1834   -9.5826 H   0  0  0  0  0  0  0  0  0  0  0  0
  -11.8477  -22.7197  -10.0273 H   0  0  0  0  0  0  0  0  0  0  0  0
  -13.8260  -22.6220  -10.6540 H   0  0  0  0  0  0  0  0  0  0  0  0
  -10.4022  -25.5288  -10.4304 H   0  0  0  0  0  0  0  0  0  0  0  0
  -11.1470  -26.0544  -11.9782 H   0  0  0  0  0  0  0  0  0  0  0  0
   -9.5239  -25.2847  -11.9782 H   0  0  0  0  0  0  0  0  0  0  0  0
  -11.5236  -22.1440  -12.5878 H   0  0  0  0  0  0  0  0  0  0  0  0
   -9.4274  -24.0305  -13.7851 H   0  0  0  0  0  0  0  0  0  0  0  0
  -10.4189  -24.6929   -5.5054 H   0  0  0  0  0  0  0  0  0  0  0  0
  -10.6603  -26.0279   -6.6010 H   0  0  0  0  0  0  0  0  0  0  0  0
   -8.1332  -24.2467   -6.2728 H   0  0  0  0  0  0  0  0  0  0  0  0
   -8.0097  -26.2242   -5.0934 H   0  0  0  0  0  0  0  0  0  0  0  0
   -8.4899  -27.1865   -6.5322 H   0  0  0  0  0  0  0  0  0  0  0  0
   -6.9360  -26.2854   -6.5322 H   0  0  0  0  0  0  0  0  0  0  0  0
  1  2  1  0
  2  3  2  0
  3  4  1  0
  4  5  1  0
  5  6  1  0
  6  7  1  0
  6  8  1  0
  8  9  2  0
  8 10  1  0
  3 11  1  0
 11 12  1  0
 13 12  1  6
 13 14  1  0
 14 15  1  0
 15 16  1  0
 16 17  1  0
 17 18  2  0
 18 19  1  0
 19 20  1  0
 20 21  1  0
 21 22  2  0
 22 23  1  0
 22 24  1  0
 24 25  1  0
 25 26  1  0
 26 27  1  0
 27 28  1  0
 28 29  1  0
 29 30  1  0
 29 31  1  0
 31 32  1  0
 31 33  2  0
 33 34  1  0
 26 35  1  0
 35 36  1  0
 36 37  1  0
 34  2  1  0
 10  4  1  0
 18 13  1  0
 36 24  1  0
 34 13  1  0
  1 38  1  0
  1 39  1  0
  1 40  1  0
  4 41  1  1
  5 42  1  0
  5 43  1  0
  6 44  1  6
  7 45  1  0
  7 46  1  0
  7 47  1  0
 11 48  1  0
 11 49  1  0
 12 50  1  0
 12 51  1  0
 14 52  1  0
 14 53  1  0
 15 54  1  0
 15 55  1  0
 16 56  1  0
 16 57  1  0
 17 58  1  0
 19 59  1  0
 19 60  1  0
 20 61  1  0
 20 62  1  0
 21 63  1  0
 23 64  1  0
 23 65  1  0
 23 66  1  0
 24 67  1  6
 26 68  1  1
 27 69  1  0
 27 70  1  0
 28 71  1  0
 28 72  1  0
 29 73  1  1
 30 74  1  0
 32 75  1  0
 32 76  1  0
 32 77  1  0
 33 78  1  0
 34 79  1  1
 35 80  1  0
 35 81  1  0
 36 82  1  1
 37 83  1  0
 37 84  1  0
 37 85  1  0
M  CHG  1  17   1
M  END
>  <meeko>  (7) 
{"is_sidechain": [false], "free_energy": -7.22, "intermolecular_energy": -10.593, "internal_energy": -0.739}

$$$$
2x00_ligand
     RDKit          3D

 85 89  0  0  0  0  0  0  0  0999 V2000
   -6.4880  -26.0120   -8.6910 C   0  0  0  0  0  0  0  0  0  0  0  0
   -7.8010  -25.6350   -8.0260 C   0  0  0  0  0  0  0  0  0  0  0  0
   -8.1400  -26.0790   -6.7870 C   0  0  0  0  0  0  0  0  0  0  0  0
   -7.1900  -26.7690   -5.8010 C   0  0  2  0  0  0  0  0  0  0  0  0
   -5.8600  -26.0600   -5.5910 C   0  0  0  0  0  0  0  0  0  0  0  0
   -4.9850  -27.1740   -5.0530 C   0  0  2  0  0  0  0  0  0  0  0  0
   -3.5090  -26.9390   -5.3100 C   0  0  0  0  0  0  0  0  0  0  0  0
   -5.5320  -28.3500   -5.8120 C   0  0  0  0  0  0  0  0  0  0  0  0
   -4.9680  -29.4150   -5.9990 O   0  0  0  0  0  0  0  0  0  0  0  0
   -6.7890  -28.0650   -6.2590 O   0  0  0  0  0  0  0  0  0  0  0  0
   -9.5700  -25.9880   -6.2890 C   0  0  0  0  0  0  0  0  0  0  0  0
  -10.5920  -25.6150   -7.3640 C   0  0  0  0  0  0  0  0  0  0  0  0
  -10.1290  -24.4350   -8.2570 C   0  0  2  0  0  0  0  0  0  0  0  0
   -9.9510  -23.1500   -7.3800 C   0  0  0  0  0  0  0  0  0  0  0  0
  -11.2760  -22.4660   -7.0800 C   0  0  0  0  0  0  0  0  0  0  0  0
  -11.8900  -22.0210   -8.3910 C   0  0  0  0  0  0  0  0  0  0  0  0
  -11.9590  -23.1730   -9.3090 N   0  0  0  0  0  0  0  0  0  0  0  0
  -11.2360  -24.2420   -9.3260 C   0  0  0  0  0  0  0  0  0  0  0  0
  -11.6540  -25.3390  -10.3110 C   0  0  0  0  0  0  0  0  0  0  0  0
  -11.8150  -24.9480  -11.7890 C   0  0  0  0  0  0  0  0  0  0  0  0
  -10.6760  -24.0870  -12.2410 C   0  0  0  0  0  0  0  0  0  0  0  0
  -10.4690  -23.5260  -13.4510 C   0  0  0  0  0  0  0  0  0  0  0  0
  -11.3020  -23.7670  -14.6810 C   0  0  0  0  0  0  0  0  0  0  0  0
   -9.3710  -22.4870  -13.5870 C   0  0  2  0  0  0  0  0  0  0  0  0
   -9.4870  -21.6230  -12.4360 O   0  0  0  0  0  0  0  0  0  0  0  0
   -8.9830  -20.3250  -12.8080 C   0  0  1  0  0  0  0  0  0  0  0  0
   -7.9070  -19.7920  -11.8460 C   0  0  0  0  0  0  0  0  0  0  0  0
   -7.8220  -20.5220  -10.5010 C   0  0  0  0  0  0  0  0  0  0  0  0
   -6.8190  -21.7140  -10.4450 C   0  0  2  0  0  0  0  0  0  0  0  0
   -6.6750  -22.3310  -11.7210 O   0  0  0  0  0  0  0  0  0  0  0  0
   -7.2530  -22.7540   -9.4120 C   0  0  0  0  0  0  0  0  0  0  0  0
   -6.6230  -22.5470   -8.0570 C   0  0  0  0  0  0  0  0  0  0  0  0
   -8.1490  -23.7190   -9.7240 C   0  0  0  0  0  0  0  0  0  0  0  0
   -8.7670  -24.8610   -8.9280 C   0  0  1  0  0  0  0  0  0  0  0  0
   -8.5140  -20.4220  -14.2580 C   0  0  0  0  0  0  0  0  0  0  0  0
   -9.3780  -21.5520  -14.7920 C   0  0  1  0  0  0  0  0  0  0  0  0
   -8.8490  -22.1840  -16.0660 C   0  0  0  0  0  0  0  0  0  0  0  0
   -5.7348  -26.2283   -7.9190 H   0  0  0  0  0  0  0  0  0  0  0  0
   -6.6371  -26.9036   -9.3177 H   0  0  0  0  0  0  0  0  0  0  0  0
   -6.1414  -25.1771   -9.3177 H   0  0  0  0  0  0  0  0  0  0  0  0
   -7.7881  -26.7811   -4.8779 H   0  0  0  0  0  0  0  0  0  0  0  0
   -5.4648  -25.6646   -6.5384 H   0  0  0  0  0  0  0  0  0  0  0  0
   -5.9250  -25.1880   -4.9236 H   0  0  0  0  0  0  0  0  0  0  0  0
   -5.0188  -27.2883   -3.9595 H   0  0  0  0  0  0  0  0  0  0  0  0
   -2.9786  -26.8545   -4.3500 H   0  0  0  0  0  0  0  0  0  0  0  0
   -3.0977  -27.7830   -5.8832 H   0  0  0  0  0  0  0  0  0  0  0  0
   -3.3801  -26.0090   -5.8832 H   0  0  0  0  0  0  0  0  0  0  0  0
   -9.8516  -26.9659   -5.8715 H   0  0  0  0  0  0  0  0  0  0  0  0
   -9.5912  -25.1802   -5.5426 H   0  0  0  0  0  0  0  0  0  0  0  0
  -10.7634  -26.4929   -8.0043 H   0  0  0  0  0  0  0  0  0  0  0  0
  -11.5103  -25.2969   -6.8486 H   0  0  0  0  0  0  0  0  0  0  0  0
   -9.4765  -23.4340   -6.4291 H   0  0  0  0  0  0  0  0  0  0  0  0
   -9.3276  -22.4414   -7.9450 H   0  0  0  0  0  0  0  0  0  0  0  0
  -11.9518  -23.1706   -6.5732 H   0  0  0  0  0  0  0  0  0  0  0  0
  -11.1140  -21.5981   -6.4239 H   0  0  0  0  0  0  0  0  0  0  0  0
  -12.9034  -21.6334   -8.2100 H   0  0  0  0  0  0  0  0  0  0  0  0
  -11.2726  -21.2281   -8.8383 H   0  0  0  0  0  0  0  0  0  0  0  0
  -12.6630  -23.0530  -10.0430 H   0  0  0  0  0  0  0  0  0  0  0  0
  -10.8933  -26.1321  -10.2618 H   0  0  0  0  0  0  0  0  0  0  0  0
  -12.6642  -25.6319   -9.9890 H   0  0  0  0  0  0  0  0  0  0  0  0
  -11.8419  -25.8608  -12.4022 H   0  0  0  0  0  0  0  0  0  0  0  0
  -12.7508  -24.3812  -11.9027 H   0  0  0  0  0  0  0  0  0  0  0  0
   -9.9036  -23.8844  -11.4845 H   0  0  0  0  0  0  0  0  0  0  0  0
  -12.3192  -24.0613  -14.3831 H   0  0  0  0  0  0  0  0  0  0  0  0
  -11.3475  -22.8452  -15.2795 H   0  0  0  0  0  0  0  0  0  0  0  0
  -10.8482  -24.5707  -15.2795 H   0  0  0  0  0  0  0  0  0  0  0  0
   -8.4541  -23.0846  -13.6967 H   0  0  0  0  0  0  0  0  0  0  0  0
   -9.7821  -19.5734  -12.7275 H   0  0  0  0  0  0  0  0  0  0  0  0
   -6.9302  -19.8796  -12.3442 H   0  0  0  0  0  0  0  0  0  0  0  0
   -8.1879  -18.7538  -11.6152 H   0  0  0  0  0  0  0  0  0  0  0  0
   -7.5212  -19.7901   -9.7369 H   0  0  0  0  0  0  0  0  0  0  0  0
   -8.8177  -20.9577  -10.3311 H   0  0  0  0  0  0  0  0  0  0  0  0
   -5.8445  -21.3027  -10.1432 H   0  0  0  0  0  0  0  0  0  0  0  0
   -6.3260  -23.2240  -11.5480 H   0  0  0  0  0  0  0  0  0  0  0  0
   -7.3548  -22.7875   -7.2718 H   0  0  0  0  0  0  0  0  0  0  0  0
   -5.7470  -23.2046   -7.9556 H   0  0  0  0  0  0  0  0  0  0  0  0
   -6.3077  -21.4980   -7.9556 H   0  0  0  0  0  0  0  0  0  0  0  0
   -8.5030  -23.6683  -10.7642 H   0  0  0  0  0  0  0  0  0  0  0  0
   -9.0265  -25.6338   -9.6666 H   0  0  0  0  0  0  0  0  0  0  0  0
   -8.7003  -19.4844  -14.8023 H   0  0  0  0  0  0  0  0  0  0  0  0
   -7.4337  -20.5999  -14.3647 H   0  0  0  0  0  0  0  0  0  0  0  0
  -10.3808  -21.2411  -15.1204 H   0  0  0  0  0  0  0  0  0  0  0  0
   -8.1623  -23.0044  -15.8105 H   0  0  0  0  0  0  0  0  0  0  0  0
   -9.6893  -22.5793  -16.6555 H   0  0  0  0  0  0  0  0  0  0  0  0
   -8.3119  -21.4264  -16.6555 H   0  0  0  0  0  0  0  0  0  0  0  0
  1  2  1  0
  2  3  2  0
  3  4  1  0
  4  5  1  0
  5  6  1  0
  6  7  1  0
  6  8  1  0
  8  9  2  0
  8 10  1  0
  3 11  1  0
 11 12  1  0
 13 12  1  1
 13 14  1  0
 14 15  1  0
 15 16  1  0
 16 17  1  0
 17 18  2  0
 18 19  1  0
 19 20  1  0
 20 21  1  0
 21 22  2  0
 22 23  1  0
 22 24  1  0
 24 25  1  0
 25 26  1  0
 26 27  1  0
 27 28  1  0
 28 29  1  0
 29 30  1  0
 29 31  1  0
 31 32  1  0
 31 33  2  0
 33 34  1  0
 26 35  1  0
 35 36  1  0
 36 37  1  0
 34  2  1  0
 10  4  1  0
 18 13  1  0
 36 24  1  0
 34 13  1  0
  1 38  1  0
  1 39  1  0
  1 40  1  0
  4 41  1  1
  5 42  1  0
  5 43  1  0
  6 44  1  1
  7 45  1  0
  7 46  1  0
  7 47  1  0
 11 48  1  0
 11 49  1  0
 12 50  1  0
 12 51  1  0
 14 52  1  0
 14 53  1  0
 15 54  1  0
 15 55  1  0
 16 56  1  0
 16 57  1  0
 17 58  1  0
 19 59  1  0
 19 60  1  0
 20 61  1  0
 20 62  1  0
 21 63  1  0
 23 64  1  0
 23 65  1  0
 23 66  1  0
 24 67  1  1
 26 68  1  6
 27 69  1  0
 27 70  1  0
 28 71  1  0
 28 72  1  0
 29 73  1  1
 30 74  1  0
 32 75  1  0
 32 76  1  0
 32 77  1  0
 33 78  1  0
 34 79  1  6
 35 80  1  0
 35 81  1  0
 36 82  1  6
 37 83  1  0
 37 84  1  0
 37 85  1  0
M  CHG  1  17   1
M  END
>  <meeko>  (8) 
{"is_sidechain": [false], "free_energy": -7.11, "intermolecular_energy": -10.302, "internal_energy": -0.859}

$$$$
2x00_ligand
     RDKit          3D

 85 89  0  0  0  0  0  0  0  0999 V2000
  -10.9680  -28.8970   -8.9260 C   0  0  0  0  0  0  0  0  0  0  0  0
  -11.9630  -27.7510   -8.8800 C   0  0  0  0  0  0  0  0  0  0  0  0
  -13.3000  -27.9550   -8.7510 C   0  0  0  0  0  0  0  0  0  0  0  0
  -13.9610  -29.2870   -8.3770 C   0  0  2  0  0  0  0  0  0  0  0  0
  -15.4420  -29.3860   -8.7160 C   0  0  0  0  0  0  0  0  0  0  0  0
  -15.9080  -30.4950   -7.7950 C   0  0  2  0  0  0  0  0  0  0  0  0
  -17.3890  -30.4120   -7.4770 C   0  0  0  0  0  0  0  0  0  0  0  0
  -15.0360  -30.2480   -6.5960 C   0  0  0  0  0  0  0  0  0  0  0  0
  -15.2390  -30.6430   -5.4610 O   0  0  0  0  0  0  0  0  0  0  0  0
  -13.9430  -29.5180   -6.9650 O   0  0  0  0  0  0  0  0  0  0  0  0
  -14.2930  -26.8490   -9.0540 C   0  0  0  0  0  0  0  0  0  0  0  0
  -13.6860  -25.6260   -9.7420 C   0  0  0  0  0  0  0  0  0  0  0  0
  -12.3590  -25.1600   -9.0910 C   0  0  2  0  0  0  0  0  0  0  0  0
  -12.6230  -24.7220   -7.6110 C   0  0  0  0  0  0  0  0  0  0  0  0
  -13.2160  -23.3240   -7.5180 C   0  0  0  0  0  0  0  0  0  0  0  0
  -12.2160  -22.3430   -8.0920 C   0  0  0  0  0  0  0  0  0  0  0  0
  -11.8280  -22.7850   -9.4450 N   0  0  0  0  0  0  0  0  0  0  0  0
  -11.8500  -23.9720   -9.9500 C   0  0  0  0  0  0  0  0  0  0  0  0
  -11.5330  -24.0900  -11.4440 C   0  0  0  0  0  0  0  0  0  0  0  0
  -10.3690  -23.2520  -11.9960 C   0  0  0  0  0  0  0  0  0  0  0  0
   -9.0510  -23.8490  -11.6100 C   0  0  0  0  0  0  0  0  0  0  0  0
   -7.9890  -23.2500  -11.0310 C   0  0  0  0  0  0  0  0  0  0  0  0
   -7.8550  -21.7740  -10.7660 C   0  0  0  0  0  0  0  0  0  0  0  0
   -6.8650  -24.1240  -10.5050 C   0  0  2  0  0  0  0  0  0  0  0  0
   -7.1160  -24.3000   -9.0950 O   0  0  0  0  0  0  0  0  0  0  0  0
   -5.8460  -24.5110   -8.4450 C   0  0  1  0  0  0  0  0  0  0  0  0
   -5.8110  -25.7800   -7.5760 C   0  0  0  0  0  0  0  0  0  0  0  0
   -7.1380  -26.5430   -7.4910 C   0  0  0  0  0  0  0  0  0  0  0  0
   -8.2600  -25.8310   -6.6800 C   0  0  2  0  0  0  0  0  0  0  0  0
   -8.1160  -26.0750   -5.2830 O   0  0  0  0  0  0  0  0  0  0  0  0
   -9.6540  -26.2540   -7.1400 C   0  0  0  0  0  0  0  0  0  0  0  0
  -10.4990  -26.8300   -6.0300 C   0  0  0  0  0  0  0  0  0  0  0  0
  -10.0550  -26.0700   -8.4190 C   0  0  0  0  0  0  0  0  0  0  0  0
  -11.3530  -26.3730   -9.1570 C   0  0  1  0  0  0  0  0  0  0  0  0
   -4.7740  -24.4840   -9.5330 C   0  0  0  0  0  0  0  0  0  0  0  0
   -5.4280  -23.6190  -10.5970 C   0  0  1  0  0  0  0  0  0  0  0  0
   -4.8100  -23.7650  -11.9750 C   0  0  0  0  0  0  0  0  0  0  0  0
  -10.7071  -29.1975   -7.9005 H   0  0  0  0  0  0  0  0  0  0  0  0
  -11.4162  -29.7507   -9.4554 H   0  0  0  0  0  0  0  0  0  0  0  0
  -10.0598  -28.5731   -9.4554 H   0  0  0  0  0  0  0  0  0  0  0  0
  -13.3680  -30.0069   -8.9601 H   0  0  0  0  0  0  0  0  0  0  0  0
  -15.9645  -28.4424   -8.5001 H   0  0  0  0  0  0  0  0  0  0  0  0
  -15.6391  -29.5838   -9.7800 H   0  0  0  0  0  0  0  0  0  0  0  0
  -15.8140  -31.5055   -8.2194 H   0  0  0  0  0  0  0  0  0  0  0  0
  -17.5299  -30.4041   -6.3861 H   0  0  0  0  0  0  0  0  0  0  0  0
  -17.8052  -29.4891   -7.9072 H   0  0  0  0  0  0  0  0  0  0  0  0
  -17.9057  -31.2826   -7.9072 H   0  0  0  0  0  0  0  0  0  0  0  0
  -15.0755  -27.2593   -9.7092 H   0  0  0  0  0  0  0  0  0  0  0  0
  -14.6826  -26.5030   -8.0853 H   0  0  0  0  0  0  0  0  0  0  0  0
  -13.4903  -25.8774  -10.7948 H   0  0  0  0  0  0  0  0  0  0  0  0
  -14.4076  -24.8016   -9.6434 H   0  0  0  0  0  0  0  0  0  0  0  0
  -13.3237  -25.4345   -7.1512 H   0  0  0  0  0  0  0  0  0  0  0  0
  -11.6564  -24.7124   -7.0861 H   0  0  0  0  0  0  0  0  0  0  0  0
  -14.1530  -23.2787   -8.0925 H   0  0  0  0  0  0  0  0  0  0  0  0
  -13.4324  -23.0737   -6.4689 H   0  0  0  0  0  0  0  0  0  0  0  0
  -12.6712  -21.3431   -8.1476 H   0  0  0  0  0  0  0  0  0  0  0  0
  -11.3262  -22.3006   -7.4467 H   0  0  0  0  0  0  0  0  0  0  0  0
  -11.4590  -22.0210  -10.0200 H   0  0  0  0  0  0  0  0  0  0  0  0
  -11.3034  -25.1461  -11.6486 H   0  0  0  0  0  0  0  0  0  0  0  0
  -12.4255  -23.6929  -11.9496 H   0  0  0  0  0  0  0  0  0  0  0  0
  -10.4402  -23.2151  -13.0931 H   0  0  0  0  0  0  0  0  0  0  0  0
  -10.4335  -22.2388  -11.5726 H   0  0  0  0  0  0  0  0  0  0  0  0
   -8.9323  -24.9207  -11.8278 H   0  0  0  0  0  0  0  0  0  0  0  0
   -7.8389  -21.5963   -9.6806 H   0  0  0  0  0  0  0  0  0  0  0  0
   -6.9196  -21.4048  -11.2119 H   0  0  0  0  0  0  0  0  0  0  0  0
   -8.7086  -21.2424  -11.2119 H   0  0  0  0  0  0  0  0  0  0  0  0
   -6.8959  -25.0135  -11.1514 H   0  0  0  0  0  0  0  0  0  0  0  0
   -5.6562  -23.7076   -7.7180 H   0  0  0  0  0  0  0  0  0  0  0  0
   -5.0530  -26.4590   -7.9937 H   0  0  0  0  0  0  0  0  0  0  0  0
   -5.5818  -25.4463   -6.5532 H   0  0  0  0  0  0  0  0  0  0  0  0
   -7.5062  -26.7009   -8.5154 H   0  0  0  0  0  0  0  0  0  0  0  0
   -6.9192  -27.4780   -6.9543 H   0  0  0  0  0  0  0  0  0  0  0  0
   -8.1519  -24.7526   -6.8682 H   0  0  0  0  0  0  0  0  0  0  0  0
   -8.8290  -25.5710   -4.8500 H   0  0  0  0  0  0  0  0  0  0  0  0
  -10.0740  -26.5403   -5.0576 H   0  0  0  0  0  0  0  0  0  0  0  0
  -11.5253  -26.4426   -6.1117 H   0  0  0  0  0  0  0  0  0  0  0  0
  -10.5135  -27.9269   -6.1117 H   0  0  0  0  0  0  0  0  0  0  0  0
   -9.2870  -25.6071   -9.0562 H   0  0  0  0  0  0  0  0  0  0  0  0
  -11.0772  -26.4758  -10.2169 H   0  0  0  0  0  0  0  0  0  0  0  0
   -3.8422  -24.0296   -9.1652 H   0  0  0  0  0  0  0  0  0  0  0  0
   -4.4792  -25.4815   -9.8909 H   0  0  0  0  0  0  0  0  0  0  0  0
   -5.3151  -22.5366  -10.4367 H   0  0  0  0  0  0  0  0  0  0  0  0
   -3.7440  -24.0168  -11.8740 H   0  0  0  0  0  0  0  0  0  0  0  0
   -5.3255  -24.5661  -12.5250 H   0  0  0  0  0  0  0  0  0  0  0  0
   -4.9125  -22.8179  -12.5250 H   0  0  0  0  0  0  0  0  0  0  0  0
  1  2  1  0
  2  3  2  0
  3  4  1  0
  4  5  1  0
  5  6  1  0
  6  7  1  0
  6  8  1  0
  8  9  2  0
  8 10  1  0
  3 11  1  0
 11 12  1  0
 13 12  1  6
 13 14  1  0
 14 15  1  0
 15 16  1  0
 16 17  1  0
 17 18  2  0
 18 19  1  0
 19 20  1  0
 20 21  1  0
 21 22  2  0
 22 23  1  0
 22 24  1  0
 24 25  1  0
 25 26  1  0
 26 27  1  0
 27 28  1  0
 28 29  1  0
 29 30  1  0
 29 31  1  0
 31 32  1  0
 31 33  2  0
 33 34  1  0
 26 35  1  0
 35 36  1  0
 36 37  1  0
 34  2  1  0
 10  4  1  0
 18 13  1  0
 36 24  1  0
 34 13  1  0
  1 38  1  0
  1 39  1  0
  1 40  1  0
  4 41  1  6
  5 42  1  0
  5 43  1  0
  6 44  1  6
  7 45  1  0
  7 46  1  0
  7 47  1  0
 11 48  1  0
 11 49  1  0
 12 50  1  0
 12 51  1  0
 14 52  1  0
 14 53  1  0
 15 54  1  0
 15 55  1  0
 16 56  1  0
 16 57  1  0
 17 58  1  0
 19 59  1  0
 19 60  1  0
 20 61  1  0
 20 62  1  0
 21 63  1  0
 23 64  1  0
 23 65  1  0
 23 66  1  0
 24 67  1  6
 26 68  1  1
 27 69  1  0
 27 70  1  0
 28 71  1  0
 28 72  1  0
 29 73  1  1
 30 74  1  0
 32 75  1  0
 32 76  1  0
 32 77  1  0
 33 78  1  0
 34 79  1  6
 35 80  1  0
 35 81  1  0
 36 82  1  1
 37 83  1  0
 37 84  1  0
 37 85  1  0
M  CHG  1  17   1
M  END
>  <meeko>  (9) 
{"is_sidechain": [false], "free_energy": -7.088, "intermolecular_energy": -9.929, "internal_energy": -1.199}

$$$$
