2qbr_ligand
     RDKit          3D

 42 44  0  0  0  0  0  0  0  0999 V2000
    3.7180    5.0460   -8.7660 O   0  0  0  0  0  0  0  0  0  0  0  0
    4.2190    5.9420   -8.0170 C   0  0  0  0  0  0  0  0  0  0  0  0
    4.6540    5.8080   -6.8310 O   0  0  0  0  0  0  0  0  0  0  0  0
    4.2330    7.3770   -8.5910 C   0  0  0  0  0  0  0  0  0  0  0  0
    4.7720    7.4130   -9.9340 O   0  0  0  0  0  0  0  0  0  0  0  0
    6.1200    7.5650   -9.9250 C   0  0  0  0  0  0  0  0  0  0  0  0
    7.0330    6.5540  -10.1720 C   0  0  0  0  0  0  0  0  0  0  0  0
    6.7350    5.0430  -10.5720 C   0  0  0  0  0  0  0  0  0  0  0  0
    7.1680    4.1510   -9.7690 O   0  0  0  0  0  0  0  0  0  0  0  0
    6.1200    4.8030  -11.6560 O   0  0  0  0  0  0  0  0  0  0  0  0
    8.6460    7.1240   -9.9890 S   0  0  0  0  0  0  0  0  0  0  0  0
    8.1380    8.7320   -9.6710 C   0  0  0  0  0  0  0  0  0  0  0  0
    9.1430    9.7480   -9.3410 C   0  0  0  0  0  0  0  0  0  0  0  0
    9.2670   10.9300  -10.0820 C   0  0  0  0  0  0  0  0  0  0  0  0
   10.2650   11.8580   -9.7730 C   0  0  0  0  0  0  0  0  0  0  0  0
   11.1430   11.6130   -8.7170 C   0  0  0  0  0  0  0  0  0  0  0  0
   11.0160   10.4560   -7.9440 C   0  0  0  0  0  0  0  0  0  0  0  0
   11.9590   10.1830   -6.9230 N   0  0  0  0  0  0  0  0  0  0  0  0
   12.7920    9.0330   -7.2910 C   0  0  0  0  0  0  0  0  0  0  0  0
   12.9540    8.1360   -6.0860 C   0  0  0  0  0  0  0  0  0  0  0  0
   12.6840    8.6210   -4.7980 C   0  0  0  0  0  0  0  0  0  0  0  0
   12.8540    7.7990   -3.6820 C   0  0  0  0  0  0  0  0  0  0  0  0
   13.3010    6.4890   -3.8420 C   0  0  0  0  0  0  0  0  0  0  0  0
   13.5870    6.0000   -5.1170 C   0  0  0  0  0  0  0  0  0  0  0  0
   13.4190    6.8210   -6.2330 C   0  0  0  0  0  0  0  0  0  0  0  0
   10.0260    9.5230   -8.2730 C   0  0  0  0  0  0  0  0  0  0  0  0
    6.7640    8.8230   -9.7400 C   0  0  0  0  0  0  0  0  0  0  0  0
    5.7780   10.4420   -9.6000 Br  0  0  0  0  0  0  0  0  0  0  0  0
    3.2031    7.7630   -8.6101 H   0  0  0  0  0  0  0  0  0  0  0  0
    4.8753    7.9965   -7.9478 H   0  0  0  0  0  0  0  0  0  0  0  0
    8.5741   11.1292  -10.9128 H   0  0  0  0  0  0  0  0  0  0  0  0
   10.3583   12.7819  -10.3626 H   0  0  0  0  0  0  0  0  0  0  0  0
   11.9409   12.3358   -8.4913 H   0  0  0  0  0  0  0  0  0  0  0  0
   11.4350    9.9300   -6.0810 H   0  0  0  0  0  0  0  0  0  0  0  0
   12.3085    8.4730   -8.1050 H   0  0  0  0  0  0  0  0  0  0  0  0
   13.7787    9.3824   -7.6290 H   0  0  0  0  0  0  0  0  0  0  0  0
   12.3359    9.6561   -4.6660 H   0  0  0  0  0  0  0  0  0  0  0  0
   12.6349    8.1859   -2.6759 H   0  0  0  0  0  0  0  0  0  0  0  0
   13.4284    5.8402   -2.9629 H   0  0  0  0  0  0  0  0  0  0  0  0
   13.9449    4.9675   -5.2426 H   0  0  0  0  0  0  0  0  0  0  0  0
   13.6531    6.4338   -7.2356 H   0  0  0  0  0  0  0  0  0  0  0  0
    9.9383    8.5977   -7.6847 H   0  0  0  0  0  0  0  0  0  0  0  0
  1  2  2  0
  2  3  1  0
  2  4  1  0
  4  5  1  0
  5  6  1  0
  6  7  2  0
  7  8  1  0
  8  9  2  0
  8 10  1  0
  7 11  1  0
 11 12  1  0
 12 13  1  0
 13 14  2  0
 14 15  1  0
 15 16  2  0
 16 17  1  0
 17 18  1  0
 18 19  1  0
 19 20  1  0
 20 21  2  0
 21 22  1  0
 22 23  2  0
 23 24  1  0
 24 25  2  0
 17 26  2  0
 12 27  2  0
 27 28  1  0
 27  6  1  0
 26 13  1  0
 25 20  1  0
  4 29  1  0
  4 30  1  0
 14 31  1  0
 15 32  1  0
 16 33  1  0
 18 34  1  0
 19 35  1  0
 19 36  1  0
 21 37  1  0
 22 38  1  0
 23 39  1  0
 24 40  1  0
 25 41  1  0
 26 42  1  0
M  CHG  2   3  -1  10  -1
M  END
>  <meeko>  (1) 
{"is_sidechain": [false], "free_energy": -6.963, "intermolecular_energy": -10.219, "internal_energy": -1.078}

$$$$
2qbr_ligand
     RDKit          3D

 42 44  0  0  0  0  0  0  0  0999 V2000
    4.3770   10.8410   -9.0480 O   0  0  0  0  0  0  0  0  0  0  0  0
    3.8050    9.7900   -9.4770 C   0  0  0  0  0  0  0  0  0  0  0  0
    2.5630    9.5260   -9.4680 O   0  0  0  0  0  0  0  0  0  0  0  0
    4.7370    8.6750  -10.0020 C   0  0  0  0  0  0  0  0  0  0  0  0
    5.5040    8.0700   -8.9350 O   0  0  0  0  0  0  0  0  0  0  0  0
    6.2680    7.0460   -9.3900 C   0  0  0  0  0  0  0  0  0  0  0  0
    5.8130    5.7610   -9.6250 C   0  0  0  0  0  0  0  0  0  0  0  0
    4.3280    5.2070   -9.4830 C   0  0  0  0  0  0  0  0  0  0  0  0
    3.6920    5.0090  -10.5720 O   0  0  0  0  0  0  0  0  0  0  0  0
    3.8500    5.0180   -8.3230 O   0  0  0  0  0  0  0  0  0  0  0  0
    7.1010    4.7320  -10.1190 S   0  0  0  0  0  0  0  0  0  0  0  0
    8.2460    6.0100  -10.1090 C   0  0  0  0  0  0  0  0  0  0  0  0
    9.6520    5.7130  -10.4000 C   0  0  0  0  0  0  0  0  0  0  0  0
   10.0790    5.3520  -11.6840 C   0  0  0  0  0  0  0  0  0  0  0  0
   11.4170    5.0290  -11.9210 C   0  0  0  0  0  0  0  0  0  0  0  0
   12.3410    5.0700  -10.8760 C   0  0  0  0  0  0  0  0  0  0  0  0
   11.9430    5.4590   -9.5950 C   0  0  0  0  0  0  0  0  0  0  0  0
   12.8730    5.4250   -8.5260 N   0  0  0  0  0  0  0  0  0  0  0  0
   13.2500    6.7860   -8.1330 C   0  0  0  0  0  0  0  0  0  0  0  0
   13.2060    6.8950   -6.6270 C   0  0  0  0  0  0  0  0  0  0  0  0
   12.7990    8.0870   -6.0120 C   0  0  0  0  0  0  0  0  0  0  0  0
   12.7770    8.1950   -4.6200 C   0  0  0  0  0  0  0  0  0  0  0  0
   13.1680    7.1150   -3.8310 C   0  0  0  0  0  0  0  0  0  0  0  0
   13.5880    5.9280   -4.4310 C   0  0  0  0  0  0  0  0  0  0  0  0
   13.6120    5.8200   -5.8220 C   0  0  0  0  0  0  0  0  0  0  0  0
   10.5970    5.7620   -9.3620 C   0  0  0  0  0  0  0  0  0  0  0  0
    7.6350    7.1980   -9.7660 C   0  0  0  0  0  0  0  0  0  0  0  0
    8.4900    8.8960   -9.7710 Br  0  0  0  0  0  0  0  0  0  0  0  0
    4.1261    7.8987  -10.4860 H   0  0  0  0  0  0  0  0  0  0  0  0
    5.4413    9.1260  -10.7165 H   0  0  0  0  0  0  0  0  0  0  0  0
    9.3553    5.3226  -12.5119 H   0  0  0  0  0  0  0  0  0  0  0  0
   11.7426    4.7422  -12.9318 H   0  0  0  0  0  0  0  0  0  0  0  0
   13.3894    4.7942  -11.0624 H   0  0  0  0  0  0  0  0  0  0  0  0
   13.7150    4.9550   -8.8670 H   0  0  0  0  0  0  0  0  0  0  0  0
   14.2679    7.0036   -8.4886 H   0  0  0  0  0  0  0  0  0  0  0  0
   12.5493    7.5080   -8.5777 H   0  0  0  0  0  0  0  0  0  0  0  0
   12.4946    8.9440   -6.6307 H   0  0  0  0  0  0  0  0  0  0  0  0
   12.4510    9.1327   -4.1462 H   0  0  0  0  0  0  0  0  0  0  0  0
   13.1454    7.1986   -2.7344 H   0  0  0  0  0  0  0  0  0  0  0  0
   13.9003    5.0771   -3.8077 H   0  0  0  0  0  0  0  0  0  0  0  0
   13.9518    4.8848   -6.2910 H   0  0  0  0  0  0  0  0  0  0  0  0
   10.2735    6.0433   -8.3490 H   0  0  0  0  0  0  0  0  0  0  0  0
  1  2  2  0
  2  3  1  0
  2  4  1  0
  4  5  1  0
  5  6  1  0
  6  7  2  0
  7  8  1  0
  8  9  2  0
  8 10  1  0
  7 11  1  0
 11 12  1  0
 12 13  1  0
 13 14  2  0
 14 15  1  0
 15 16  2  0
 16 17  1  0
 17 18  1  0
 18 19  1  0
 19 20  1  0
 20 21  2  0
 21 22  1  0
 22 23  2  0
 23 24  1  0
 24 25  2  0
 17 26  2  0
 12 27  2  0
 27 28  1  0
 27  6  1  0
 26 13  1  0
 25 20  1  0
  4 29  1  0
  4 30  1  0
 14 31  1  0
 15 32  1  0
 16 33  1  0
 18 34  1  0
 19 35  1  0
 19 36  1  0
 21 37  1  0
 22 38  1  0
 23 39  1  0
 24 40  1  0
 25 41  1  0
 26 42  1  0
M  CHG  2   3  -1  10  -1
M  END
>  <meeko>  (2) 
{"is_sidechain": [false], "free_energy": -6.957, "intermolecular_energy": -10.309, "internal_energy": -0.98}

$$$$
2qbr_ligand
     RDKit          3D

 42 44  0  0  0  0  0  0  0  0999 V2000
    3.3530    8.7160   -9.4560 O   0  0  0  0  0  0  0  0  0  0  0  0
    4.3570    9.4890   -9.3520 C   0  0  0  0  0  0  0  0  0  0  0  0
    4.3530   10.7550   -9.2550 O   0  0  0  0  0  0  0  0  0  0  0  0
    5.7450    8.8140   -9.4280 C   0  0  0  0  0  0  0  0  0  0  0  0
    5.9160    8.0770  -10.6620 O   0  0  0  0  0  0  0  0  0  0  0  0
    6.6030    6.9240  -10.4620 C   0  0  0  0  0  0  0  0  0  0  0  0
    6.0330    5.7150  -10.1040 C   0  0  0  0  0  0  0  0  0  0  0  0
    4.4900    5.3800   -9.9070 C   0  0  0  0  0  0  0  0  0  0  0  0
    3.8280    5.1220  -10.9660 O   0  0  0  0  0  0  0  0  0  0  0  0
    3.9980    5.4100   -8.7370 O   0  0  0  0  0  0  0  0  0  0  0  0
    7.2410    4.5120   -9.8670 S   0  0  0  0  0  0  0  0  0  0  0  0
    8.5120    5.5690  -10.3270 C   0  0  0  0  0  0  0  0  0  0  0  0
    9.8980    5.0960  -10.2520 C   0  0  0  0  0  0  0  0  0  0  0  0
   10.4150    4.5100   -9.0890 C   0  0  0  0  0  0  0  0  0  0  0  0
   11.7530    4.1120   -9.0310 C   0  0  0  0  0  0  0  0  0  0  0  0
   12.5830    4.2920  -10.1380 C   0  0  0  0  0  0  0  0  0  0  0  0
   12.0800    4.8430  -11.3190 C   0  0  0  0  0  0  0  0  0  0  0  0
   12.9490    5.0900  -12.4100 N   0  0  0  0  0  0  0  0  0  0  0  0
   14.2650    4.4950  -12.1590 C   0  0  0  0  0  0  0  0  0  0  0  0
   14.3830    3.2100  -12.9450 C   0  0  0  0  0  0  0  0  0  0  0  0
   13.7100    3.0600  -14.1660 C   0  0  0  0  0  0  0  0  0  0  0  0
   13.8020    1.8650  -14.8830 C   0  0  0  0  0  0  0  0  0  0  0  0
   14.5600    0.8080  -14.3830 C   0  0  0  0  0  0  0  0  0  0  0  0
   15.2210    0.9400  -13.1630 C   0  0  0  0  0  0  0  0  0  0  0  0
   15.1290    2.1330  -12.4440 C   0  0  0  0  0  0  0  0  0  0  0  0
   10.7430    5.2570  -11.3610 C   0  0  0  0  0  0  0  0  0  0  0  0
    8.0060    6.8010  -10.6830 C   0  0  0  0  0  0  0  0  0  0  0  0
    9.0370    8.2300  -11.3970 Br  0  0  0  0  0  0  0  0  0  0  0  0
    6.5224    9.5898   -9.3656 H   0  0  0  0  0  0  0  0  0  0  0  0
    5.8272    8.1047   -8.5912 H   0  0  0  0  0  0  0  0  0  0  0  0
    9.7629    4.3623   -8.2155 H   0  0  0  0  0  0  0  0  0  0  0  0
   12.1521    3.6567   -8.1126 H   0  0  0  0  0  0  0  0  0  0  0  0
   13.6414    3.9978  -10.0803 H   0  0  0  0  0  0  0  0  0  0  0  0
   13.0740    6.1030  -12.4790 H   0  0  0  0  0  0  0  0  0  0  0  0
   15.0524    5.1946  -12.4760 H   0  0  0  0  0  0  0  0  0  0  0  0
   14.3788    4.2851  -11.0852 H   0  0  0  0  0  0  0  0  0  0  0  0
   13.1054    3.8893  -14.5619 H   0  0  0  0  0  0  0  0  0  0  0  0
   13.2758    1.7581  -15.8430 H   0  0  0  0  0  0  0  0  0  0  0  0
   14.6367   -0.1307  -14.9512 H   0  0  0  0  0  0  0  0  0  0  0  0
   15.8155    0.1037  -12.7665 H   0  0  0  0  0  0  0  0  0  0  0  0
   15.6453    2.2292  -11.4775 H   0  0  0  0  0  0  0  0  0  0  0  0
   10.3481    5.7164  -12.2791 H   0  0  0  0  0  0  0  0  0  0  0  0
  1  2  2  0
  2  3  1  0
  2  4  1  0
  4  5  1  0
  5  6  1  0
  6  7  2  0
  7  8  1  0
  8  9  2  0
  8 10  1  0
  7 11  1  0
 11 12  1  0
 12 13  1  0
 13 14  2  0
 14 15  1  0
 15 16  2  0
 16 17  1  0
 17 18  1  0
 18 19  1  0
 19 20  1  0
 20 21  2  0
 21 22  1  0
 22 23  2  0
 23 24  1  0
 24 25  2  0
 17 26  2  0
 12 27  2  0
 27 28  1  0
 27  6  1  0
 26 13  1  0
 25 20  1  0
  4 29  1  0
  4 30  1  0
 14 31  1  0
 15 32  1  0
 16 33  1  0
 18 34  1  0
 19 35  1  0
 19 36  1  0
 21 37  1  0
 22 38  1  0
 23 39  1  0
 24 40  1  0
 25 41  1  0
 26 42  1  0
M  CHG  2   3  -1  10  -1
M  END
>  <meeko>  (3) 
{"is_sidechain": [false], "free_energy": -6.923, "intermolecular_energy": -10.23, "internal_energy": -1.008}

$$$$
2qbr_ligand
     RDKit          3D

 42 44  0  0  0  0  0  0  0  0999 V2000
    3.6550    4.9990   -8.7200 O   0  0  0  0  0  0  0  0  0  0  0  0
    4.2560    5.8840   -8.0350 C   0  0  0  0  0  0  0  0  0  0  0  0
    4.6070    5.8150   -6.8160 O   0  0  0  0  0  0  0  0  0  0  0  0
    4.5230    7.2290   -8.7470 C   0  0  0  0  0  0  0  0  0  0  0  0
    5.0580    7.0340  -10.0780 O   0  0  0  0  0  0  0  0  0  0  0  0
    6.3690    7.3740  -10.1430 C   0  0  0  0  0  0  0  0  0  0  0  0
    6.8510    8.6710  -10.1810 C   0  0  0  0  0  0  0  0  0  0  0  0
    6.0210   10.0260  -10.0990 C   0  0  0  0  0  0  0  0  0  0  0  0
    5.6100   10.5050  -11.2070 O   0  0  0  0  0  0  0  0  0  0  0  0
    5.8340   10.5650   -8.9650 O   0  0  0  0  0  0  0  0  0  0  0  0
    8.5640    8.6860  -10.3420 S   0  0  0  0  0  0  0  0  0  0  0  0
    8.6770    6.9760  -10.2700 C   0  0  0  0  0  0  0  0  0  0  0  0
    9.9860    6.3380  -10.4390 C   0  0  0  0  0  0  0  0  0  0  0  0
   10.3180    5.6320  -11.6020 C   0  0  0  0  0  0  0  0  0  0  0  0
   11.5550    4.9930  -11.7160 C   0  0  0  0  0  0  0  0  0  0  0  0
   12.4740    5.0610  -10.6680 C   0  0  0  0  0  0  0  0  0  0  0  0
   12.1770    5.7870   -9.5120 C   0  0  0  0  0  0  0  0  0  0  0  0
   13.0850    5.7870   -8.4250 N   0  0  0  0  0  0  0  0  0  0  0  0
   13.2760    7.1490   -7.9180 C   0  0  0  0  0  0  0  0  0  0  0  0
   13.1970    7.1290   -6.4090 C   0  0  0  0  0  0  0  0  0  0  0  0
   12.7820    8.2680   -5.7040 C   0  0  0  0  0  0  0  0  0  0  0  0
   12.7280    8.2560   -4.3080 C   0  0  0  0  0  0  0  0  0  0  0  0
   13.0940    7.1100   -3.6060 C   0  0  0  0  0  0  0  0  0  0  0  0
   13.5230    5.9760   -4.2950 C   0  0  0  0  0  0  0  0  0  0  0  0
   13.5790    5.9870   -5.6900 C   0  0  0  0  0  0  0  0  0  0  0  0
   10.9270    6.4070   -9.3990 C   0  0  0  0  0  0  0  0  0  0  0  0
    7.4280    6.4200  -10.0930 C   0  0  0  0  0  0  0  0  0  0  0  0
    7.0960    4.5690   -9.8150 Br  0  0  0  0  0  0  0  0  0  0  0  0
    3.5778    7.7868   -8.8210 H   0  0  0  0  0  0  0  0  0  0  0  0
    5.2654    7.7872   -8.1577 H   0  0  0  0  0  0  0  0  0  0  0  0
    9.5987    5.5802  -12.4327 H   0  0  0  0  0  0  0  0  0  0  0  0
   11.8045    4.4365  -12.6314 H   0  0  0  0  0  0  0  0  0  0  0  0
   13.4388    4.5394  -10.7527 H   0  0  0  0  0  0  0  0  0  0  0  0
   13.9870    5.4580   -8.7790 H   0  0  0  0  0  0  0  0  0  0  0  0
   14.2618    7.5238   -8.2306 H   0  0  0  0  0  0  0  0  0  0  0  0
   12.4938    7.8085   -8.3219 H   0  0  0  0  0  0  0  0  0  0  0  0
   12.4970    9.1771   -6.2539 H   0  0  0  0  0  0  0  0  0  0  0  0
   12.3963    9.1521   -3.7630 H   0  0  0  0  0  0  0  0  0  0  0  0
   13.0446    7.0994   -2.5072 H   0  0  0  0  0  0  0  0  0  0  0  0
   13.8172    5.0732   -3.7396 H   0  0  0  0  0  0  0  0  0  0  0  0
   13.9254    5.0931   -6.2293 H   0  0  0  0  0  0  0  0  0  0  0  0
   10.6777    6.9576   -8.4799 H   0  0  0  0  0  0  0  0  0  0  0  0
  1  2  2  0
  2  3  1  0
  2  4  1  0
  4  5  1  0
  5  6  1  0
  6  7  2  0
  7  8  1  0
  8  9  2  0
  8 10  1  0
  7 11  1  0
 11 12  1  0
 12 13  1  0
 13 14  2  0
 14 15  1  0
 15 16  2  0
 16 17  1  0
 17 18  1  0
 18 19  1  0
 19 20  1  0
 20 21  2  0
 21 22  1  0
 22 23  2  0
 23 24  1  0
 24 25  2  0
 17 26  2  0
 12 27  2  0
 27 28  1  0
 27  6  1  0
 26 13  1  0
 25 20  1  0
  4 29  1  0
  4 30  1  0
 14 31  1  0
 15 32  1  0
 16 33  1  0
 18 34  1  0
 19 35  1  0
 19 36  1  0
 21 37  1  0
 22 38  1  0
 23 39  1  0
 24 40  1  0
 25 41  1  0
 26 42  1  0
M  CHG  2   3  -1  10  -1
M  END
>  <meeko>  (4) 
{"is_sidechain": [false], "free_energy": -6.711, "intermolecular_energy": -9.845, "internal_energy": -1.082}

$$$$
2qbr_ligand
     RDKit          3D

 42 44  0  0  0  0  0  0  0  0999 V2000
    4.3660    6.4060  -13.1460 O   0  0  0  0  0  0  0  0  0  0  0  0
    4.7710    5.7700  -12.1230 C   0  0  0  0  0  0  0  0  0  0  0  0
    4.0780    5.0730  -11.3190 O   0  0  0  0  0  0  0  0  0  0  0  0
    6.2680    5.9260  -11.7750 C   0  0  0  0  0  0  0  0  0  0  0  0
    6.4990    5.8440  -10.3480 O   0  0  0  0  0  0  0  0  0  0  0  0
    6.7990    7.0580   -9.8220 C   0  0  0  0  0  0  0  0  0  0  0  0
    5.8890    7.9050   -9.2140 C   0  0  0  0  0  0  0  0  0  0  0  0
    4.3440    7.6460   -8.9390 C   0  0  0  0  0  0  0  0  0  0  0  0
    3.5260    8.4330   -9.5210 O   0  0  0  0  0  0  0  0  0  0  0  0
    4.0080    6.7070   -8.1530 O   0  0  0  0  0  0  0  0  0  0  0  0
    6.6390    9.3820   -8.7500 S   0  0  0  0  0  0  0  0  0  0  0  0
    8.1890    8.8650   -9.2720 C   0  0  0  0  0  0  0  0  0  0  0  0
    9.3180    9.7970   -9.1940 C   0  0  0  0  0  0  0  0  0  0  0  0
    9.6190   10.6800  -10.2390 C   0  0  0  0  0  0  0  0  0  0  0  0
   10.7300   11.5240  -10.1560 C   0  0  0  0  0  0  0  0  0  0  0  0
   11.5450   11.4950   -9.0240 C   0  0  0  0  0  0  0  0  0  0  0  0
   11.2450   10.6460   -7.9560 C   0  0  0  0  0  0  0  0  0  0  0  0
   12.1210   10.5710   -6.8460 N   0  0  0  0  0  0  0  0  0  0  0  0
   13.1890    9.5990   -7.1020 C   0  0  0  0  0  0  0  0  0  0  0  0
   13.1800    8.5570   -6.0070 C   0  0  0  0  0  0  0  0  0  0  0  0
   13.5160    7.2260   -6.2910 C   0  0  0  0  0  0  0  0  0  0  0  0
   13.4890    6.2590   -5.2850 C   0  0  0  0  0  0  0  0  0  0  0  0
   13.1180    6.6110   -3.9880 C   0  0  0  0  0  0  0  0  0  0  0  0
   12.7680    7.9290   -3.6970 C   0  0  0  0  0  0  0  0  0  0  0  0
   12.7930    8.8970   -4.7030 C   0  0  0  0  0  0  0  0  0  0  0  0
   10.1410    9.7900   -8.0570 C   0  0  0  0  0  0  0  0  0  0  0  0
    8.1260    7.5770   -9.7580 C   0  0  0  0  0  0  0  0  0  0  0  0
    9.6290    6.5520  -10.3090 Br  0  0  0  0  0  0  0  0  0  0  0  0
    6.8349    5.1263  -12.2741 H   0  0  0  0  0  0  0  0  0  0  0  0
    6.5977    6.9176  -12.1186 H   0  0  0  0  0  0  0  0  0  0  0  0
    8.9764   10.7093  -11.1313 H   0  0  0  0  0  0  0  0  0  0  0  0
   10.9618   12.2111  -10.9832 H   0  0  0  0  0  0  0  0  0  0  0  0
   12.4305   12.1456   -8.9721 H   0  0  0  0  0  0  0  0  0  0  0  0
   11.5770   10.2310   -6.0480 H   0  0  0  0  0  0  0  0  0  0  0  0
   13.0202    9.1133   -8.0744 H   0  0  0  0  0  0  0  0  0  0  0  0
   14.1619   10.1120   -7.1184 H   0  0  0  0  0  0  0  0  0  0  0  0
   13.8030    6.9417   -7.3141 H   0  0  0  0  0  0  0  0  0  0  0  0
   13.7606    5.2183   -5.5156 H   0  0  0  0  0  0  0  0  0  0  0  0
   13.1014    5.8493   -3.1946 H   0  0  0  0  0  0  0  0  0  0  0  0
   12.4721    8.2063   -2.6745 H   0  0  0  0  0  0  0  0  0  0  0  0
   12.5071    9.9335   -4.4708 H   0  0  0  0  0  0  0  0  0  0  0  0
    9.9149    9.1000   -7.2307 H   0  0  0  0  0  0  0  0  0  0  0  0
  1  2  2  0
  2  3  1  0
  2  4  1  0
  4  5  1  0
  5  6  1  0
  6  7  2  0
  7  8  1  0
  8  9  2  0
  8 10  1  0
  7 11  1  0
 11 12  1  0
 12 13  1  0
 13 14  2  0
 14 15  1  0
 15 16  2  0
 16 17  1  0
 17 18  1  0
 18 19  1  0
 19 20  1  0
 20 21  2  0
 21 22  1  0
 22 23  2  0
 23 24  1  0
 24 25  2  0
 17 26  2  0
 12 27  2  0
 27 28  1  0
 27  6  1  0
 26 13  1  0
 25 20  1  0
  4 29  1  0
  4 30  1  0
 14 31  1  0
 15 32  1  0
 16 33  1  0
 18 34  1  0
 19 35  1  0
 19 36  1  0
 21 37  1  0
 22 38  1  0
 23 39  1  0
 24 40  1  0
 25 41  1  0
 26 42  1  0
M  CHG  2   3  -1  10  -1
M  END
>  <meeko>  (5) 
{"is_sidechain": [false], "free_energy": -6.618, "intermolecular_energy": -9.466, "internal_energy": -1.324}

$$$$
2qbr_ligand
     RDKit          3D

 42 44  0  0  0  0  0  0  0  0999 V2000
    3.0080    9.0740   -9.4560 O   0  0  0  0  0  0  0  0  0  0  0  0
    4.1530    9.6250   -9.4330 C   0  0  0  0  0  0  0  0  0  0  0  0
    4.4320   10.8180   -9.1000 O   0  0  0  0  0  0  0  0  0  0  0  0
    5.3310    8.7650   -9.9420 C   0  0  0  0  0  0  0  0  0  0  0  0
    5.9030    7.9590   -8.8840 O   0  0  0  0  0  0  0  0  0  0  0  0
    6.5710    6.8880   -9.3800 C   0  0  0  0  0  0  0  0  0  0  0  0
    5.9810    5.7030   -9.7830 C   0  0  0  0  0  0  0  0  0  0  0  0
    4.4310    5.3440   -9.8190 C   0  0  0  0  0  0  0  0  0  0  0  0
    3.8550    5.2120   -8.6880 O   0  0  0  0  0  0  0  0  0  0  0  0
    3.8620    5.1850  -10.9430 O   0  0  0  0  0  0  0  0  0  0  0  0
    7.1690    4.5600  -10.2760 S   0  0  0  0  0  0  0  0  0  0  0  0
    8.4600    5.6660  -10.0430 C   0  0  0  0  0  0  0  0  0  0  0  0
    9.8380    5.2100  -10.2490 C   0  0  0  0  0  0  0  0  0  0  0  0
   10.5630    4.5700   -9.2350 C   0  0  0  0  0  0  0  0  0  0  0  0
   11.8900    4.1900   -9.4450 C   0  0  0  0  0  0  0  0  0  0  0  0
   12.5030    4.4410  -10.6730 C   0  0  0  0  0  0  0  0  0  0  0  0
   11.7890    5.0490  -11.7090 C   0  0  0  0  0  0  0  0  0  0  0  0
   12.4420    5.3670  -12.9250 N   0  0  0  0  0  0  0  0  0  0  0  0
   11.4600    5.6990  -13.9620 C   0  0  0  0  0  0  0  0  0  0  0  0
   11.1820    4.4670  -14.7910 C   0  0  0  0  0  0  0  0  0  0  0  0
   12.2370    3.7510  -15.3740 C   0  0  0  0  0  0  0  0  0  0  0  0
   11.9810    2.6240  -16.1580 C   0  0  0  0  0  0  0  0  0  0  0  0
   10.6680    2.2070  -16.3710 C   0  0  0  0  0  0  0  0  0  0  0  0
    9.6100    2.9190  -15.8080 C   0  0  0  0  0  0  0  0  0  0  0  0
    9.8650    4.0470  -15.0260 C   0  0  0  0  0  0  0  0  0  0  0  0
   10.4650    5.4440  -11.4830 C   0  0  0  0  0  0  0  0  0  0  0  0
    7.9750    6.8880   -9.6290 C   0  0  0  0  0  0  0  0  0  0  0  0
    9.0340    8.4490   -9.3890 Br  0  0  0  0  0  0  0  0  0  0  0  0
    4.9683    8.1003  -10.7399 H   0  0  0  0  0  0  0  0  0  0  0  0
    6.1124    9.4422  -10.3173 H   0  0  0  0  0  0  0  0  0  0  0  0
   10.0832    4.3655   -8.2665 H   0  0  0  0  0  0  0  0  0  0  0  0
   12.4527    3.6922   -8.6415 H   0  0  0  0  0  0  0  0  0  0  0  0
   13.5550    4.1585  -10.8266 H   0  0  0  0  0  0  0  0  0  0  0  0
   12.9450    4.5310  -13.2310 H   0  0  0  0  0  0  0  0  0  0  0  0
   10.5280    6.0437  -13.4901 H   0  0  0  0  0  0  0  0  0  0  0  0
   11.8564    6.4978  -14.6061 H   0  0  0  0  0  0  0  0  0  0  0  0
   13.2744    4.0794  -15.2127 H   0  0  0  0  0  0  0  0  0  0  0  0
   12.8153    2.0654  -16.6074 H   0  0  0  0  0  0  0  0  0  0  0  0
   10.4667    1.3158  -16.9836 H   0  0  0  0  0  0  0  0  0  0  0  0
    8.5739    2.5919  -15.9800 H   0  0  0  0  0  0  0  0  0  0  0  0
    9.0265    4.6105  -14.5909 H   0  0  0  0  0  0  0  0  0  0  0  0
    9.9063    5.9465  -12.2864 H   0  0  0  0  0  0  0  0  0  0  0  0
  1  2  2  0
  2  3  1  0
  2  4  1  0
  4  5  1  0
  5  6  1  0
  6  7  2  0
  7  8  1  0
  8  9  2  0
  8 10  1  0
  7 11  1  0
 11 12  1  0
 12 13  1  0
 13 14  2  0
 14 15  1  0
 15 16  2  0
 16 17  1  0
 17 18  1  0
 18 19  1  0
 19 20  1  0
 20 21  2  0
 21 22  1  0
 22 23  2  0
 23 24  1  0
 24 25  2  0
 17 26  2  0
 12 27  2  0
 27 28  1  0
 27  6  1  0
 26 13  1  0
 25 20  1  0
  4 29  1  0
  4 30  1  0
 14 31  1  0
 15 32  1  0
 16 33  1  0
 18 34  1  0
 19 35  1  0
 19 36  1  0
 21 37  1  0
 22 38  1  0
 23 39  1  0
 24 40  1  0
 25 41  1  0
 26 42  1  0
M  CHG  2   3  -1  10  -1
M  END
>  <meeko>  (6) 
{"is_sidechain": [false], "free_energy": -6.526, "intermolecular_energy": -9.481, "internal_energy": -1.175}

$$$$
2qbr_ligand
     RDKit          3D

 42 44  0  0  0  0  0  0  0  0999 V2000
    3.5670    4.7180   -8.7260 O   0  0  0  0  0  0  0  0  0  0  0  0
    4.1350    5.6970   -8.1490 C   0  0  0  0  0  0  0  0  0  0  0  0
    4.4260    5.8080   -6.9180 O   0  0  0  0  0  0  0  0  0  0  0  0
    4.4370    6.9250   -9.0350 C   0  0  0  0  0  0  0  0  0  0  0  0
    5.8490    7.0360   -9.3370 O   0  0  0  0  0  0  0  0  0  0  0  0
    6.0580    7.6810  -10.5110 C   0  0  0  0  0  0  0  0  0  0  0  0
    6.4040    9.0150  -10.6310 C   0  0  0  0  0  0  0  0  0  0  0  0
    6.6890   10.0610   -9.4670 C   0  0  0  0  0  0  0  0  0  0  0  0
    5.6800   10.7050   -9.0260 O   0  0  0  0  0  0  0  0  0  0  0  0
    7.8810   10.2190   -9.0600 O   0  0  0  0  0  0  0  0  0  0  0  0
    6.5000    9.4790  -12.2860 S   0  0  0  0  0  0  0  0  0  0  0  0
    6.1730    7.8910  -12.8440 C   0  0  0  0  0  0  0  0  0  0  0  0
    6.0460    7.6510  -14.2850 C   0  0  0  0  0  0  0  0  0  0  0  0
    4.7970    7.5040  -14.9010 C   0  0  0  0  0  0  0  0  0  0  0  0
    4.7080    7.2290  -16.2680 C   0  0  0  0  0  0  0  0  0  0  0  0
    5.8700    7.1040  -17.0310 C   0  0  0  0  0  0  0  0  0  0  0  0
    7.1250    7.2790  -16.4440 C   0  0  0  0  0  0  0  0  0  0  0  0
    8.2980    7.0750  -17.2120 N   0  0  0  0  0  0  0  0  0  0  0  0
    8.1910    5.8380  -17.9910 C   0  0  0  0  0  0  0  0  0  0  0  0
    8.9690    4.7470  -17.2930 C   0  0  0  0  0  0  0  0  0  0  0  0
    8.6070    3.4020  -17.4530 C   0  0  0  0  0  0  0  0  0  0  0  0
    9.3120    2.3940  -16.7930 C   0  0  0  0  0  0  0  0  0  0  0  0
   10.3820    2.7220  -15.9610 C   0  0  0  0  0  0  0  0  0  0  0  0
   10.7420    4.0570  -15.7820 C   0  0  0  0  0  0  0  0  0  0  0  0
   10.0360    5.0660  -16.4410 C   0  0  0  0  0  0  0  0  0  0  0  0
    7.2040    7.5340  -15.0700 C   0  0  0  0  0  0  0  0  0  0  0  0
    6.0280    7.0280  -11.7790 C   0  0  0  0  0  0  0  0  0  0  0  0
    5.8020    5.1470  -11.9310 Br  0  0  0  0  0  0  0  0  0  0  0  0
    3.8777    6.8303   -9.9774 H   0  0  0  0  0  0  0  0  0  0  0  0
    4.1332    7.8273   -8.4839 H   0  0  0  0  0  0  0  0  0  0  0  0
    3.8788    7.6058  -14.3040 H   0  0  0  0  0  0  0  0  0  0  0  0
    3.7227    7.1111  -16.7426 H   0  0  0  0  0  0  0  0  0  0  0  0
    5.7967    6.8659  -18.1024 H   0  0  0  0  0  0  0  0  0  0  0  0
    9.0770    6.9640  -16.5580 H   0  0  0  0  0  0  0  0  0  0  0  0
    7.1343    5.5434  -18.0715 H   0  0  0  0  0  0  0  0  0  0  0  0
    8.5996    5.9981  -18.9997 H   0  0  0  0  0  0  0  0  0  0  0  0
    7.7603    3.1388  -18.1041 H   0  0  0  0  0  0  0  0  0  0  0  0
    9.0236    1.3413  -16.9292 H   0  0  0  0  0  0  0  0  0  0  0  0
   10.9419    1.9275  -15.4460 H   0  0  0  0  0  0  0  0  0  0  0  0
   11.5826    4.3158  -15.1214 H   0  0  0  0  0  0  0  0  0  0  0  0
   10.3190    6.1183  -16.2906 H   0  0  0  0  0  0  0  0  0  0  0  0
    8.1909    7.6447  -14.5969 H   0  0  0  0  0  0  0  0  0  0  0  0
  1  2  2  0
  2  3  1  0
  2  4  1  0
  4  5  1  0
  5  6  1  0
  6  7  2  0
  7  8  1  0
  8  9  2  0
  8 10  1  0
  7 11  1  0
 11 12  1  0
 12 13  1  0
 13 14  2  0
 14 15  1  0
 15 16  2  0
 16 17  1  0
 17 18  1  0
 18 19  1  0
 19 20  1  0
 20 21  2  0
 21 22  1  0
 22 23  2  0
 23 24  1  0
 24 25  2  0
 17 26  2  0
 12 27  2  0
 27 28  1  0
 27  6  1  0
 26 13  1  0
 25 20  1  0
  4 29  1  0
  4 30  1  0
 14 31  1  0
 15 32  1  0
 16 33  1  0
 18 34  1  0
 19 35  1  0
 19 36  1  0
 21 37  1  0
 22 38  1  0
 23 39  1  0
 24 40  1  0
 25 41  1  0
 26 42  1  0
M  CHG  2   3  -1  10  -1
M  END
>  <meeko>  (7) 
{"is_sidechain": [false], "free_energy": -6.515, "intermolecular_energy": -9.347, "internal_energy": -1.294}

$$$$
2qbr_ligand
     RDKit          3D

 42 44  0  0  0  0  0  0  0  0999 V2000
    3.7430    4.8830   -8.9430 O   0  0  0  0  0  0  0  0  0  0  0  0
    4.1720    5.6730   -8.0460 C   0  0  0  0  0  0  0  0  0  0  0  0
    4.2480    5.4590   -6.7970 O   0  0  0  0  0  0  0  0  0  0  0  0
    4.5800    7.0850   -8.5240 C   0  0  0  0  0  0  0  0  0  0  0  0
    4.2550    7.2950   -9.9180 O   0  0  0  0  0  0  0  0  0  0  0  0
    5.2240    7.9990  -10.5550 C   0  0  0  0  0  0  0  0  0  0  0  0
    5.3850    9.3720  -10.4790 C   0  0  0  0  0  0  0  0  0  0  0  0
    4.5460   10.4090   -9.6130 C   0  0  0  0  0  0  0  0  0  0  0  0
    5.1990   11.3790   -9.1030 O   0  0  0  0  0  0  0  0  0  0  0  0
    3.3010   10.2130   -9.4540 O   0  0  0  0  0  0  0  0  0  0  0  0
    6.6750    9.8960  -11.4890 S   0  0  0  0  0  0  0  0  0  0  0  0
    7.0790    8.2960  -11.9580 C   0  0  0  0  0  0  0  0  0  0  0  0
    8.1430    8.0870  -12.9450 C   0  0  0  0  0  0  0  0  0  0  0  0
    7.9130    8.2330  -14.3190 C   0  0  0  0  0  0  0  0  0  0  0  0
    8.9330    7.9810  -15.2400 C   0  0  0  0  0  0  0  0  0  0  0  0
   10.1940    7.5860  -14.7920 C   0  0  0  0  0  0  0  0  0  0  0  0
   10.4550    7.4650  -13.4250 C   0  0  0  0  0  0  0  0  0  0  0  0
   11.7160    6.9910  -12.9860 N   0  0  0  0  0  0  0  0  0  0  0  0
   11.7290    5.5260  -12.9590 C   0  0  0  0  0  0  0  0  0  0  0  0
   11.5420    5.0570  -11.5350 C   0  0  0  0  0  0  0  0  0  0  0  0
   12.6460    4.6730  -10.7620 C   0  0  0  0  0  0  0  0  0  0  0  0
   12.4720    4.2200   -9.4520 C   0  0  0  0  0  0  0  0  0  0  0  0
   11.1920    4.1410   -8.9070 C   0  0  0  0  0  0  0  0  0  0  0  0
   10.0840    4.5070   -9.6710 C   0  0  0  0  0  0  0  0  0  0  0  0
   10.2570    4.9580  -10.9800 C   0  0  0  0  0  0  0  0  0  0  0  0
    9.4210    7.7010  -12.5120 C   0  0  0  0  0  0  0  0  0  0  0  0
    6.2590    7.3890  -11.3220 C   0  0  0  0  0  0  0  0  0  0  0  0
    6.4430    5.5000  -11.4310 Br  0  0  0  0  0  0  0  0  0  0  0  0
    4.0486    7.8335   -7.9178 H   0  0  0  0  0  0  0  0  0  0  0  0
    5.6694    7.1837   -8.4083 H   0  0  0  0  0  0  0  0  0  0  0  0
    6.9215    8.5486  -14.6757 H   0  0  0  0  0  0  0  0  0  0  0  0
    8.7421    8.0939  -16.3174 H   0  0  0  0  0  0  0  0  0  0  0  0
   10.9886    7.3682  -15.5208 H   0  0  0  0  0  0  0  0  0  0  0  0
   11.8500    7.3210  -12.0270 H   0  0  0  0  0  0  0  0  0  0  0  0
   10.9116    5.1386  -13.5849 H   0  0  0  0  0  0  0  0  0  0  0  0
   12.6891    5.1563  -13.3483 H   0  0  0  0  0  0  0  0  0  0  0  0
   13.6577    4.7287  -11.1902 H   0  0  0  0  0  0  0  0  0  0  0  0
   13.3451    3.9258   -8.8510 H   0  0  0  0  0  0  0  0  0  0  0  0
   11.0553    3.7898   -7.8736 H   0  0  0  0  0  0  0  0  0  0  0  0
    9.0735    4.4401   -9.2415 H   0  0  0  0  0  0  0  0  0  0  0  0
    9.3795    5.2380  -11.5814 H   0  0  0  0  0  0  0  0  0  0  0  0
    9.6134    7.5818  -11.4355 H   0  0  0  0  0  0  0  0  0  0  0  0
  1  2  2  0
  2  3  1  0
  2  4  1  0
  4  5  1  0
  5  6  1  0
  6  7  2  0
  7  8  1  0
  8  9  2  0
  8 10  1  0
  7 11  1  0
 11 12  1  0
 12 13  1  0
 13 14  2  0
 14 15  1  0
 15 16  2  0
 16 17  1  0
 17 18  1  0
 18 19  1  0
 19 20  1  0
 20 21  2  0
 21 22  1  0
 22 23  2  0
 23 24  1  0
 24 25  2  0
 17 26  2  0
 12 27  2  0
 27 28  1  0
 27  6  1  0
 26 13  1  0
 25 20  1  0
  4 29  1  0
  4 30  1  0
 14 31  1  0
 15 32  1  0
 16 33  1  0
 18 34  1  0
 19 35  1  0
 19 36  1  0
 21 37  1  0
 22 38  1  0
 23 39  1  0
 24 40  1  0
 25 41  1  0
 26 42  1  0
M  CHG  2   3  -1  10  -1
M  END
>  <meeko>  (8) 
{"is_sidechain": [false], "free_energy": -6.39, "intermolecular_energy": -9.418, "internal_energy": -1.039}

$$$$
2qbr_ligand
     RDKit          3D

 42 44  0  0  0  0  0  0  0  0999 V2000
    5.0350   10.6040  -10.6800 O   0  0  0  0  0  0  0  0  0  0  0  0
    5.4950   10.1330   -9.5940 C   0  0  0  0  0  0  0  0  0  0  0  0
    6.4220   10.6140   -8.8720 O   0  0  0  0  0  0  0  0  0  0  0  0
    4.9100    8.7770   -9.1400 C   0  0  0  0  0  0  0  0  0  0  0  0
    4.8640    7.8210  -10.2260 O   0  0  0  0  0  0  0  0  0  0  0  0
    5.7440    6.8070  -10.0340 C   0  0  0  0  0  0  0  0  0  0  0  0
    5.5040    5.6850   -9.2610 C   0  0  0  0  0  0  0  0  0  0  0  0
    4.1680    5.2940   -8.4900 C   0  0  0  0  0  0  0  0  0  0  0  0
    4.0150    5.8050   -7.3310 O   0  0  0  0  0  0  0  0  0  0  0  0
    3.3510    4.4940   -9.0410 O   0  0  0  0  0  0  0  0  0  0  0  0
    6.8930    4.6700   -9.2020 S   0  0  0  0  0  0  0  0  0  0  0  0
    7.7830    5.6730  -10.2720 C   0  0  0  0  0  0  0  0  0  0  0  0
    9.1780    5.3370  -10.5730 C   0  0  0  0  0  0  0  0  0  0  0  0
   10.0380    4.8160   -9.5980 C   0  0  0  0  0  0  0  0  0  0  0  0
   11.3750    4.5500   -9.9010 C   0  0  0  0  0  0  0  0  0  0  0  0
   11.8630    4.7980  -11.1840 C   0  0  0  0  0  0  0  0  0  0  0  0
   11.0150    5.2870  -12.1810 C   0  0  0  0  0  0  0  0  0  0  0  0
   11.5380    5.6060  -13.4590 N   0  0  0  0  0  0  0  0  0  0  0  0
   10.4980    5.4750  -14.4840 C   0  0  0  0  0  0  0  0  0  0  0  0
   10.0200    6.8530  -14.8810 C   0  0  0  0  0  0  0  0  0  0  0  0
    8.7920    7.0170  -15.5370 C   0  0  0  0  0  0  0  0  0  0  0  0
    8.3600    8.2880  -15.9220 C   0  0  0  0  0  0  0  0  0  0  0  0
    9.1530    9.4030  -15.6620 C   0  0  0  0  0  0  0  0  0  0  0  0
   10.3830    9.2500  -15.0240 C   0  0  0  0  0  0  0  0  0  0  0  0
   10.8180    7.9810  -14.6390 C   0  0  0  0  0  0  0  0  0  0  0  0
    9.6810    5.5690  -11.8630 C   0  0  0  0  0  0  0  0  0  0  0  0
    7.0110    6.7380  -10.6850 C   0  0  0  0  0  0  0  0  0  0  0  0
    7.5400    8.0200  -11.9850 Br  0  0  0  0  0  0  0  0  0  0  0  0
    5.5382    8.3702   -8.3338 H   0  0  0  0  0  0  0  0  0  0  0  0
    3.8809    8.9481   -8.7911 H   0  0  0  0  0  0  0  0  0  0  0  0
    9.6573    4.6148   -8.5858 H   0  0  0  0  0  0  0  0  0  0  0  0
   12.0438    4.1446   -9.1274 H   0  0  0  0  0  0  0  0  0  0  0  0
   12.9220    4.6074  -11.4123 H   0  0  0  0  0  0  0  0  0  0  0  0
   12.2700    4.9240  -13.6700 H   0  0  0  0  0  0  0  0  0  0  0  0
   10.9108    4.9603  -15.3642 H   0  0  0  0  0  0  0  0  0  0  0  0
    9.6556    4.8906  -14.0853 H   0  0  0  0  0  0  0  0  0  0  0  0
    8.1646    6.1389  -15.7499 H   0  0  0  0  0  0  0  0  0  0  0  0
    7.3924    8.4086  -16.4311 H   0  0  0  0  0  0  0  0  0  0  0  0
    8.8088   10.4043  -15.9601 H   0  0  0  0  0  0  0  0  0  0  0  0
   11.0114   10.1304  -14.8238 H   0  0  0  0  0  0  0  0  0  0  0  0
   11.7927    7.8646  -14.1427 H   0  0  0  0  0  0  0  0  0  0  0  0
    9.0158    5.9793  -12.6370 H   0  0  0  0  0  0  0  0  0  0  0  0
  1  2  2  0
  2  3  1  0
  2  4  1  0
  4  5  1  0
  5  6  1  0
  6  7  2  0
  7  8  1  0
  8  9  2  0
  8 10  1  0
  7 11  1  0
 11 12  1  0
 12 13  1  0
 13 14  2  0
 14 15  1  0
 15 16  2  0
 16 17  1  0
 17 18  1  0
 18 19  1  0
 19 20  1  0
 20 21  2  0
 21 22  1  0
 22 23  2  0
 23 24  1  0
 24 25  2  0
 17 26  2  0
 12 27  2  0
 27 28  1  0
 27  6  1  0
 26 13  1  0
 25 20  1  0
  4 29  1  0
  4 30  1  0
 14 31  1  0
 15 32  1  0
 16 33  1  0
 18 34  1  0
 19 35  1  0
 19 36  1  0
 21 37  1  0
 22 38  1  0
 23 39  1  0
 24 40  1  0
 25 41  1  0
 26 42  1  0
M  CHG  2   3  -1  10  -1
M  END
>  <meeko>  (9) 
{"is_sidechain": [false], "free_energy": -6.026, "intermolecular_energy": -8.63, "internal_energy": -1.293}

$$$$
