2v7a_ligand
     RDKit          3D

 67 71  0  0  0  0  0  0  0  0999 V2000
  -10.8630    0.9250   14.8090 C   0  0  0  0  0  0  0  0  0  0  0  0
  -10.0390   -0.2350   14.7390 O   0  0  0  0  0  0  0  0  0  0  0  0
   -9.2540   -0.2710   13.5400 C   0  0  1  0  0  0  0  0  0  0  0  0
   -7.9290    0.5090   13.7580 C   0  0  0  0  0  0  0  0  0  0  0  0
   -7.2550    0.3390   14.7810 O   0  0  0  0  0  0  0  0  0  0  0  0
   -7.5150    1.4330   12.8170 N   0  0  0  0  0  0  0  0  0  0  0  0
   -8.3720    2.4290   12.1330 C   0  0  0  0  0  0  0  0  0  0  0  0
   -7.3700    3.1500   11.3450 C   0  0  0  0  0  0  0  0  0  0  0  0
   -7.3180    4.2280   10.4680 N   0  0  0  0  0  0  0  0  0  0  0  0
   -5.8290    4.3530   10.0650 N   0  0  0  0  0  0  0  0  0  0  0  0
   -5.1180    3.3240   10.7500 C   0  0  0  0  0  0  0  0  0  0  0  0
   -3.6770    3.1110   10.6300 N   0  0  0  0  0  0  0  0  0  0  0  0
   -2.9420    3.9820    9.8520 C   0  0  0  0  0  0  0  0  0  0  0  0
   -3.5010    4.9080    9.2610 O   0  0  0  0  0  0  0  0  0  0  0  0
   -1.4760    3.7530    9.7280 C   0  0  0  0  0  0  0  0  0  0  0  0
   -0.6390    4.5670    8.9620 C   0  0  0  0  0  0  0  0  0  0  0  0
    0.7350    4.2860    8.8860 C   0  0  0  0  0  0  0  0  0  0  0  0
    1.3120    3.1930    9.5550 C   0  0  0  0  0  0  0  0  0  0  0  0
    2.6980    2.9650    9.4500 N   0  0  0  0  0  0  0  0  0  0  0  0
    3.0590    1.5250    9.5920 C   0  0  0  0  0  0  0  0  0  0  0  0
    4.5940    1.3170    9.6360 C   0  0  0  0  0  0  0  0  0  0  0  0
    5.2790    2.4590    8.9080 N   0  0  0  0  0  0  0  0  0  0  0  0
    6.7150    2.2010    8.5930 C   0  0  0  0  0  0  0  0  0  0  0  0
    5.0530    3.7820    9.6290 C   0  0  0  0  0  0  0  0  0  0  0  0
    3.6050    3.8910   10.1700 C   0  0  0  0  0  0  0  0  0  0  0  0
    0.4520    2.3880   10.3140 C   0  0  0  0  0  0  0  0  0  0  0  0
   -0.9230    2.6560   10.3940 C   0  0  0  0  0  0  0  0  0  0  0  0
   -6.0630    2.5970   11.5230 C   0  0  0  0  0  0  0  0  0  0  0  0
   -6.0930    1.4720   12.4400 C   0  0  0  0  0  0  0  0  0  0  0  0
   -8.9920   -1.6940   13.0640 C   0  0  0  0  0  0  0  0  0  0  0  0
   -7.7280   -2.1140   12.6160 C   0  0  0  0  0  0  0  0  0  0  0  0
   -7.5180   -3.4280   12.1950 C   0  0  0  0  0  0  0  0  0  0  0  0
   -8.5650   -4.3470   12.2220 C   0  0  0  0  0  0  0  0  0  0  0  0
   -9.8210   -3.9520   12.6750 C   0  0  0  0  0  0  0  0  0  0  0  0
  -10.0320   -2.6390   13.0960 C   0  0  0  0  0  0  0  0  0  0  0  0
  -11.0456    1.1820   15.8629 H   0  0  0  0  0  0  0  0  0  0  0  0
  -10.3576    1.7645   14.3091 H   0  0  0  0  0  0  0  0  0  0  0  0
  -11.8221    0.7242   14.3091 H   0  0  0  0  0  0  0  0  0  0  0  0
   -9.8290    0.2188   12.7403 H   0  0  0  0  0  0  0  0  0  0  0  0
   -9.1225    1.9454   11.4904 H   0  0  0  0  0  0  0  0  0  0  0  0
   -8.9656    3.0626   12.8084 H   0  0  0  0  0  0  0  0  0  0  0  0
   -8.0630    4.8410   10.1270 H   0  0  0  0  0  0  0  0  0  0  0  0
   -5.3960    5.0310    9.4260 H   0  0  0  0  0  0  0  0  0  0  0  0
   -3.2590    2.3030   11.0710 H   0  0  0  0  0  0  0  0  0  0  0  0
   -1.0555    5.4278    8.4184 H   0  0  0  0  0  0  0  0  0  0  0  0
    1.3801    4.9424    8.2836 H   0  0  0  0  0  0  0  0  0  0  0  0
    2.6207    1.1385   10.5239 H   0  0  0  0  0  0  0  0  0  0  0  0
    2.6664    0.9867    8.7167 H   0  0  0  0  0  0  0  0  0  0  0  0
    4.9313    1.2943   10.6828 H   0  0  0  0  0  0  0  0  0  0  0  0
    4.8497    0.3647    9.1483 H   0  0  0  0  0  0  0  0  0  0  0  0
    4.7620    2.5620    8.0220 H   0  0  0  0  0  0  0  0  0  0  0  0
    7.2832    2.0989    9.5294 H   0  0  0  0  0  0  0  0  0  0  0  0
    6.8012    1.2730    8.0088 H   0  0  0  0  0  0  0  0  0  0  0  0
    7.1189    3.0410    8.0088 H   0  0  0  0  0  0  0  0  0  0  0  0
    5.7563    3.8551   10.4716 H   0  0  0  0  0  0  0  0  0  0  0  0
    5.2170    4.5996    8.9116 H   0  0  0  0  0  0  0  0  0  0  0  0
    3.6010    3.6386   11.2406 H   0  0  0  0  0  0  0  0  0  0  0  0
    3.2496    4.9205   10.0156 H   0  0  0  0  0  0  0  0  0  0  0  0
    0.8643    1.5263   10.8595 H   0  0  0  0  0  0  0  0  0  0  0  0
   -1.5725    1.9956   10.9873 H   0  0  0  0  0  0  0  0  0  0  0  0
   -5.7843    0.5407   11.9426 H   0  0  0  0  0  0  0  0  0  0  0  0
   -5.4070    1.5732   13.2939 H   0  0  0  0  0  0  0  0  0  0  0  0
   -6.8933   -1.3979   12.5969 H   0  0  0  0  0  0  0  0  0  0  0  0
   -6.5239   -3.7388   11.8412 H   0  0  0  0  0  0  0  0  0  0  0  0
   -8.3998   -5.3815   11.8864 H   0  0  0  0  0  0  0  0  0  0  0  0
  -10.6482   -4.6766   12.7009 H   0  0  0  0  0  0  0  0  0  0  0  0
  -11.0264   -2.3389   13.4582 H   0  0  0  0  0  0  0  0  0  0  0  0
  1  2  1  0
  2  3  1  0
  3  4  1  0
  4  5  2  0
  4  6  1  0
  6  7  1  0
  7  8  1  0
  8  9  1  0
  9 10  1  0
 10 11  2  0
 11 12  1  0
 12 13  1  0
 13 14  2  0
 13 15  1  0
 15 16  2  0
 16 17  1  0
 17 18  2  0
 18 19  1  0
 19 20  1  0
 20 21  1  0
 21 22  1  0
 22 23  1  0
 22 24  1  0
 24 25  1  0
 18 26  1  0
 26 27  2  0
 11 28  1  0
 28 29  1  0
  3 30  1  0
 30 31  2  0
 31 32  1  0
 32 33  2  0
 33 34  1  0
 34 35  2  0
 29  6  1  0
 35 30  1  0
 28  8  2  0
 27 15  1  0
 25 19  1  0
  1 36  1  0
  1 37  1  0
  1 38  1  0
  3 39  1  6
  7 40  1  0
  7 41  1  0
  9 42  1  0
 10 43  1  0
 12 44  1  0
 16 45  1  0
 17 46  1  0
 20 47  1  0
 20 48  1  0
 21 49  1  0
 21 50  1  0
 22 51  1  0
 23 52  1  0
 23 53  1  0
 23 54  1  0
 24 55  1  0
 24 56  1  0
 25 57  1  0
 25 58  1  0
 26 59  1  0
 27 60  1  0
 29 61  1  0
 29 62  1  0
 31 63  1  0
 32 64  1  0
 33 65  1  0
 34 66  1  0
 35 67  1  0
M  CHG  2  10   1  22   1
M  END
>  <meeko>  (1) 
{"is_sidechain": [false], "free_energy": -9.418, "intermolecular_energy": -13.271, "internal_energy": -0.751}

$$$$
2v7a_ligand
     RDKit          3D

 67 71  0  0  0  0  0  0  0  0999 V2000
    1.7960   -0.3040    8.8730 C   0  0  0  0  0  0  0  0  0  0  0  0
    2.8640    0.5280    9.3180 O   0  0  0  0  0  0  0  0  0  0  0  0
    2.4460    1.8830    9.5260 C   0  0  1  0  0  0  0  0  0  0  0  0
    1.2970    1.9230   10.5710 C   0  0  0  0  0  0  0  0  0  0  0  0
    1.3770    1.2790   11.6240 O   0  0  0  0  0  0  0  0  0  0  0  0
    0.1540    2.6540   10.3060 N   0  0  0  0  0  0  0  0  0  0  0  0
    0.0180    3.7270    9.2940 C   0  0  0  0  0  0  0  0  0  0  0  0
   -1.4060    4.0450    9.4290 C   0  0  0  0  0  0  0  0  0  0  0  0
   -2.3410    4.8930    8.8450 N   0  0  0  0  0  0  0  0  0  0  0  0
   -3.6700    4.6010    9.5830 N   0  0  0  0  0  0  0  0  0  0  0  0
   -3.4030    3.5900   10.5520 C   0  0  0  0  0  0  0  0  0  0  0  0
   -4.4130    3.0400   11.4540 N   0  0  0  0  0  0  0  0  0  0  0  0
   -5.6570    2.7270   10.9440 C   0  0  0  0  0  0  0  0  0  0  0  0
   -5.9050    2.9260    9.7530 O   0  0  0  0  0  0  0  0  0  0  0  0
   -6.6820    2.1750   11.8710 C   0  0  0  0  0  0  0  0  0  0  0  0
   -7.9910    2.6580   11.9350 C   0  0  0  0  0  0  0  0  0  0  0  0
   -8.9030    2.0930   12.8410 C   0  0  0  0  0  0  0  0  0  0  0  0
   -8.5450    1.0470   13.7080 C   0  0  0  0  0  0  0  0  0  0  0  0
   -9.5050    0.5120   14.5900 N   0  0  0  0  0  0  0  0  0  0  0  0
  -10.8320    1.1820   14.4710 C   0  0  0  0  0  0  0  0  0  0  0  0
  -11.8240    0.6910   15.5570 C   0  0  0  0  0  0  0  0  0  0  0  0
  -11.4380   -0.7090   15.9970 N   0  0  0  0  0  0  0  0  0  0  0  0
  -12.4980   -1.4090   16.7810 C   0  0  0  0  0  0  0  0  0  0  0  0
  -10.0820   -0.7110   16.6900 C   0  0  0  0  0  0  0  0  0  0  0  0
   -9.0850    0.2430   15.9850 C   0  0  0  0  0  0  0  0  0  0  0  0
   -7.2240    0.5820   13.6290 C   0  0  0  0  0  0  0  0  0  0  0  0
   -6.3030    1.1410   12.7320 C   0  0  0  0  0  0  0  0  0  0  0  0
   -2.0240    3.2600   10.4530 C   0  0  0  0  0  0  0  0  0  0  0  0
   -1.0660    2.3630   11.0740 C   0  0  0  0  0  0  0  0  0  0  0  0
    3.6010    2.7880    9.9330 C   0  0  0  0  0  0  0  0  0  0  0  0
    3.4250    3.8930   10.7830 C   0  0  0  0  0  0  0  0  0  0  0  0
    4.5070    4.6980   11.1450 C   0  0  0  0  0  0  0  0  0  0  0  0
    5.7840    4.4070   10.6710 C   0  0  0  0  0  0  0  0  0  0  0  0
    5.9800    3.3090    9.8380 C   0  0  0  0  0  0  0  0  0  0  0  0
    4.9000    2.5040    9.4750 C   0  0  0  0  0  0  0  0  0  0  0  0
    1.2657   -0.7171    9.7437 H   0  0  0  0  0  0  0  0  0  0  0  0
    1.0970    0.2900    8.2659 H   0  0  0  0  0  0  0  0  0  0  0  0
    2.2009   -1.1271    8.2659 H   0  0  0  0  0  0  0  0  0  0  0  0
    2.0719    2.2749    8.5687 H   0  0  0  0  0  0  0  0  0  0  0  0
    0.6518    4.5935    9.5337 H   0  0  0  0  0  0  0  0  0  0  0  0
    0.3286    3.4403    8.2785 H   0  0  0  0  0  0  0  0  0  0  0  0
   -2.2350    5.5770    8.0940 H   0  0  0  0  0  0  0  0  0  0  0  0
   -4.5900    5.0340    9.4340 H   0  0  0  0  0  0  0  0  0  0  0  0
   -4.2000    2.9530   12.4390 H   0  0  0  0  0  0  0  0  0  0  0  0
   -8.3072    3.4802   11.2763 H   0  0  0  0  0  0  0  0  0  0  0  0
   -9.9314    2.4821   12.8730 H   0  0  0  0  0  0  0  0  0  0  0  0
  -10.6937    2.2678   14.5797 H   0  0  0  0  0  0  0  0  0  0  0  0
  -11.2533    0.9340   13.4856 H   0  0  0  0  0  0  0  0  0  0  0  0
  -11.7875    1.3704   16.4214 H   0  0  0  0  0  0  0  0  0  0  0  0
  -12.8435    0.6782   15.1442 H   0  0  0  0  0  0  0  0  0  0  0  0
  -11.2770   -1.2310   15.1230 H   0  0  0  0  0  0  0  0  0  0  0  0
  -12.3038   -1.2808   17.8561 H   0  0  0  0  0  0  0  0  0  0  0  0
  -13.4806   -0.9816   16.5323 H   0  0  0  0  0  0  0  0  0  0  0  0
  -12.4907   -2.4805   16.5323 H   0  0  0  0  0  0  0  0  0  0  0  0
  -10.2125   -0.3854   17.7326 H   0  0  0  0  0  0  0  0  0  0  0  0
   -9.6733   -1.7314   16.6478 H   0  0  0  0  0  0  0  0  0  0  0  0
   -9.0437    1.1930   16.5380 H   0  0  0  0  0  0  0  0  0  0  0  0
   -8.0946   -0.2354   15.9672 H   0  0  0  0  0  0  0  0  0  0  0  0
   -6.9034   -0.2400   14.2859 H   0  0  0  0  0  0  0  0  0  0  0  0
   -5.2708    0.7618   12.7054 H   0  0  0  0  0  0  0  0  0  0  0  0
   -0.9331    2.5943   12.1412 H   0  0  0  0  0  0  0  0  0  0  0  0
   -1.3657    1.3048   11.0532 H   0  0  0  0  0  0  0  0  0  0  0  0
    2.4216    4.1270   11.1683 H   0  0  0  0  0  0  0  0  0  0  0  0
    4.3506    5.5635   11.8057 H   0  0  0  0  0  0  0  0  0  0  0  0
    6.6355    5.0432   10.9542 H   0  0  0  0  0  0  0  0  0  0  0  0
    6.9883    3.0757    9.4653 H   0  0  0  0  0  0  0  0  0  0  0  0
    5.0668    1.6350    8.8215 H   0  0  0  0  0  0  0  0  0  0  0  0
  1  2  1  0
  2  3  1  0
  3  4  1  0
  4  5  2  0
  4  6  1  0
  6  7  1  0
  7  8  1  0
  8  9  1  0
  9 10  1  0
 10 11  2  0
 11 12  1  0
 12 13  1  0
 13 14  2  0
 13 15  1  0
 15 16  2  0
 16 17  1  0
 17 18  2  0
 18 19  1  0
 19 20  1  0
 20 21  1  0
 21 22  1  0
 22 23  1  0
 22 24  1  0
 24 25  1  0
 18 26  1  0
 26 27  2  0
 11 28  1  0
 28 29  1  0
  3 30  1  0
 30 31  2  0
 31 32  1  0
 32 33  2  0
 33 34  1  0
 34 35  2  0
 29  6  1  0
 35 30  1  0
 28  8  2  0
 27 15  1  0
 25 19  1  0
  1 36  1  0
  1 37  1  0
  1 38  1  0
  3 39  1  6
  7 40  1  0
  7 41  1  0
  9 42  1  0
 10 43  1  0
 12 44  1  0
 16 45  1  0
 17 46  1  0
 20 47  1  0
 20 48  1  0
 21 49  1  0
 21 50  1  0
 22 51  1  0
 23 52  1  0
 23 53  1  0
 23 54  1  0
 24 55  1  0
 24 56  1  0
 25 57  1  0
 25 58  1  0
 26 59  1  0
 27 60  1  0
 29 61  1  0
 29 62  1  0
 31 63  1  0
 32 64  1  0
 33 65  1  0
 34 66  1  0
 35 67  1  0
M  CHG  2  10   1  22   1
M  END
>  <meeko>  (2) 
{"is_sidechain": [false], "free_energy": -9.225, "intermolecular_energy": -12.748, "internal_energy": -1.003}

$$$$
2v7a_ligand
     RDKit          3D

 67 71  0  0  0  0  0  0  0  0999 V2000
    2.4910    3.0520   10.8390 C   0  0  0  0  0  0  0  0  0  0  0  0
    2.3790    1.8620   10.0640 O   0  0  0  0  0  0  0  0  0  0  0  0
    1.0540    1.3160   10.0970 C   0  0  1  0  0  0  0  0  0  0  0  0
    0.2200    1.8910    8.9210 C   0  0  0  0  0  0  0  0  0  0  0  0
    0.5190    1.6330    7.7480 O   0  0  0  0  0  0  0  0  0  0  0  0
   -0.8460    2.7320    9.1810 N   0  0  0  0  0  0  0  0  0  0  0  0
   -1.0670    4.0710    8.5880 C   0  0  0  0  0  0  0  0  0  0  0  0
   -2.3670    4.4120    9.1720 C   0  0  0  0  0  0  0  0  0  0  0  0
   -3.2890    5.4510    9.1170 N   0  0  0  0  0  0  0  0  0  0  0  0
   -4.4400    5.0220   10.0580 N   0  0  0  0  0  0  0  0  0  0  0  0
   -4.0950    3.7480   10.5950 C   0  0  0  0  0  0  0  0  0  0  0  0
   -4.9350    3.0040   11.5320 N   0  0  0  0  0  0  0  0  0  0  0  0
   -6.2790    2.8620   11.2480 C   0  0  0  0  0  0  0  0  0  0  0  0
   -6.7530    3.3690   10.2300 O   0  0  0  0  0  0  0  0  0  0  0  0
   -7.1280    2.1100   12.2120 C   0  0  0  0  0  0  0  0  0  0  0  0
   -6.6330    1.0990   13.0370 C   0  0  0  0  0  0  0  0  0  0  0  0
   -7.4950    0.4270   13.9180 C   0  0  0  0  0  0  0  0  0  0  0  0
   -8.8650    0.7310   14.0000 C   0  0  0  0  0  0  0  0  0  0  0  0
   -9.6810    0.0300   14.9100 N   0  0  0  0  0  0  0  0  0  0  0  0
  -11.1120   -0.0050   14.4920 C   0  0  0  0  0  0  0  0  0  0  0  0
  -12.0150   -0.6380   15.5820 C   0  0  0  0  0  0  0  0  0  0  0  0
  -11.1900   -1.5870   16.4310 N   0  0  0  0  0  0  0  0  0  0  0  0
  -12.0080   -2.4980   17.2860 C   0  0  0  0  0  0  0  0  0  0  0  0
  -10.1210   -0.8350   17.2120 C   0  0  0  0  0  0  0  0  0  0  0  0
   -9.4770    0.2850   16.3550 C   0  0  0  0  0  0  0  0  0  0  0  0
   -9.3400    1.7470   13.1590 C   0  0  0  0  0  0  0  0  0  0  0  0
   -8.4900    2.4220   12.2710 C   0  0  0  0  0  0  0  0  0  0  0  0
   -2.8320    3.3860   10.0530 C   0  0  0  0  0  0  0  0  0  0  0  0
   -1.8850    2.2870   10.1220 C   0  0  0  0  0  0  0  0  0  0  0  0
    1.0560   -0.2080   10.0880 C   0  0  0  0  0  0  0  0  0  0  0  0
   -0.1300   -0.9590   10.0510 C   0  0  0  0  0  0  0  0  0  0  0  0
   -0.0940   -2.3540   10.0340 C   0  0  0  0  0  0  0  0  0  0  0  0
    1.1290   -3.0220   10.0440 C   0  0  0  0  0  0  0  0  0  0  0  0
    2.3160   -2.2940   10.0660 C   0  0  0  0  0  0  0  0  0  0  0  0
    2.2810   -0.8990   10.0840 C   0  0  0  0  0  0  0  0  0  0  0  0
    2.4670    2.7966   11.9087 H   0  0  0  0  0  0  0  0  0  0  0  0
    3.4405    3.5550   10.6034 H   0  0  0  0  0  0  0  0  0  0  0  0
    1.6521    3.7233   10.6034 H   0  0  0  0  0  0  0  0  0  0  0  0
    0.5855    1.6160   11.0460 H   0  0  0  0  0  0  0  0  0  0  0  0
   -0.2860    4.7835    8.8921 H   0  0  0  0  0  0  0  0  0  0  0  0
   -1.0384    4.0952    7.4886 H   0  0  0  0  0  0  0  0  0  0  0  0
   -3.2680    6.3280    8.5910 H   0  0  0  0  0  0  0  0  0  0  0  0
   -5.3040    5.5320   10.2820 H   0  0  0  0  0  0  0  0  0  0  0  0
   -4.5290    2.6590   12.3920 H   0  0  0  0  0  0  0  0  0  0  0  0
   -5.5675    0.8287   12.9969 H   0  0  0  0  0  0  0  0  0  0  0  0
   -7.0853   -0.3627   14.5649 H   0  0  0  0  0  0  0  0  0  0  0  0
  -11.4523    1.0234   14.3008 H   0  0  0  0  0  0  0  0  0  0  0  0
  -11.1881   -0.6218   13.5844 H   0  0  0  0  0  0  0  0  0  0  0  0
  -12.4326    0.1556   16.2190 H   0  0  0  0  0  0  0  0  0  0  0  0
  -12.8356   -1.1923   15.1031 H   0  0  0  0  0  0  0  0  0  0  0  0
  -10.6590   -2.1580   15.7580 H   0  0  0  0  0  0  0  0  0  0  0  0
  -11.8121   -2.2799   18.3462 H   0  0  0  0  0  0  0  0  0  0  0  0
  -13.0755   -2.3425   17.0708 H   0  0  0  0  0  0  0  0  0  0  0  0
  -11.7389   -3.5426   17.0708 H   0  0  0  0  0  0  0  0  0  0  0  0
  -10.5803   -0.3838   18.1039 H   0  0  0  0  0  0  0  0  0  0  0  0
   -9.3340   -1.5488   17.4969 H   0  0  0  0  0  0  0  0  0  0  0  0
   -9.9363    1.2491   16.6187 H   0  0  0  0  0  0  0  0  0  0  0  0
   -8.3962    0.3051   16.5586 H   0  0  0  0  0  0  0  0  0  0  0  0
  -10.4046    2.0213   13.1965 H   0  0  0  0  0  0  0  0  0  0  0  0
   -8.8985    3.2044   11.6145 H   0  0  0  0  0  0  0  0  0  0  0  0
   -1.4816    2.1680   11.1384 H   0  0  0  0  0  0  0  0  0  0  0  0
   -2.3193    1.3063    9.8779 H   0  0  0  0  0  0  0  0  0  0  0  0
   -1.1002   -0.4409   10.0352 H   0  0  0  0  0  0  0  0  0  0  0  0
   -1.0326   -2.9273   10.0127 H   0  0  0  0  0  0  0  0  0  0  0  0
    1.1567   -4.1216   10.0345 H   0  0  0  0  0  0  0  0  0  0  0  0
    3.2825   -2.8193   10.0692 H   0  0  0  0  0  0  0  0  0  0  0  0
    3.2238   -0.3325   10.0952 H   0  0  0  0  0  0  0  0  0  0  0  0
  1  2  1  0
  2  3  1  0
  3  4  1  0
  4  5  2  0
  4  6  1  0
  6  7  1  0
  7  8  1  0
  8  9  1  0
  9 10  1  0
 10 11  2  0
 11 12  1  0
 12 13  1  0
 13 14  2  0
 13 15  1  0
 15 16  2  0
 16 17  1  0
 17 18  2  0
 18 19  1  0
 19 20  1  0
 20 21  1  0
 21 22  1  0
 22 23  1  0
 22 24  1  0
 24 25  1  0
 18 26  1  0
 26 27  2  0
 11 28  1  0
 28 29  1  0
  3 30  1  0
 30 31  2  0
 31 32  1  0
 32 33  2  0
 33 34  1  0
 34 35  2  0
 29  6  1  0
 35 30  1  0
 28  8  2  0
 27 15  1  0
 25 19  1  0
  1 36  1  0
  1 37  1  0
  1 38  1  0
  3 39  1  1
  7 40  1  0
  7 41  1  0
  9 42  1  0
 10 43  1  0
 12 44  1  0
 16 45  1  0
 17 46  1  0
 20 47  1  0
 20 48  1  0
 21 49  1  0
 21 50  1  0
 22 51  1  0
 23 52  1  0
 23 53  1  0
 23 54  1  0
 24 55  1  0
 24 56  1  0
 25 57  1  0
 25 58  1  0
 26 59  1  0
 27 60  1  0
 29 61  1  0
 29 62  1  0
 31 63  1  0
 32 64  1  0
 33 65  1  0
 34 66  1  0
 35 67  1  0
M  CHG  2  10   1  22   1
M  END
>  <meeko>  (3) 
{"is_sidechain": [false], "free_energy": -8.96, "intermolecular_energy": -12.122, "internal_energy": -1.256}

$$$$
2v7a_ligand
     RDKit          3D

 67 71  0  0  0  0  0  0  0  0999 V2000
   -2.5220    0.3440   12.6490 C   0  0  0  0  0  0  0  0  0  0  0  0
   -3.6890    1.1410   12.4650 O   0  0  0  0  0  0  0  0  0  0  0  0
   -3.4700    2.2200   11.5480 C   0  0  1  0  0  0  0  0  0  0  0  0
   -2.7330    1.6950   10.2860 C   0  0  0  0  0  0  0  0  0  0  0  0
   -3.1880    0.7460    9.6360 O   0  0  0  0  0  0  0  0  0  0  0  0
   -1.5330    2.2660    9.9050 N   0  0  0  0  0  0  0  0  0  0  0  0
   -1.2370    3.7160    9.8390 C   0  0  0  0  0  0  0  0  0  0  0  0
    0.1790    3.6840    9.4630 C   0  0  0  0  0  0  0  0  0  0  0  0
    1.2110    4.5860    9.2290 N   0  0  0  0  0  0  0  0  0  0  0  0
    2.4390    3.7140    8.8720 N   0  0  0  0  0  0  0  0  0  0  0  0
    2.0210    2.3520    8.9270 C   0  0  0  0  0  0  0  0  0  0  0  0
    2.9010    1.2180    8.6520 N   0  0  0  0  0  0  0  0  0  0  0  0
    4.1660    1.2120    9.2040 C   0  0  0  0  0  0  0  0  0  0  0  0
    4.5410    2.1570    9.9010 O   0  0  0  0  0  0  0  0  0  0  0  0
    5.0590    0.0580    8.9110 C   0  0  0  0  0  0  0  0  0  0  0  0
    6.0550    0.0940    7.9340 C   0  0  0  0  0  0  0  0  0  0  0  0
    6.8560   -1.0370    7.7070 C   0  0  0  0  0  0  0  0  0  0  0  0
    6.6880   -2.2300    8.4320 C   0  0  0  0  0  0  0  0  0  0  0  0
    7.5270   -3.3300    8.1680 N   0  0  0  0  0  0  0  0  0  0  0  0
    7.3700   -4.4280    9.1650 C   0  0  0  0  0  0  0  0  0  0  0  0
    8.4130   -5.5550    8.9500 C   0  0  0  0  0  0  0  0  0  0  0  0
    8.8480   -5.5690    7.4970 N   0  0  0  0  0  0  0  0  0  0  0  0
    9.5840   -6.8060    7.0990 C   0  0  0  0  0  0  0  0  0  0  0  0
    9.5900   -4.2890    7.1340 C   0  0  0  0  0  0  0  0  0  0  0  0
    8.9330   -3.0490    7.7920 C   0  0  0  0  0  0  0  0  0  0  0  0
    5.6790   -2.2430    9.4050 C   0  0  0  0  0  0  0  0  0  0  0  0
    4.8700   -1.1220    9.6370 C   0  0  0  0  0  0  0  0  0  0  0  0
    0.6450    2.3440    9.2850 C   0  0  0  0  0  0  0  0  0  0  0  0
   -0.4160    1.3840    9.5300 C   0  0  0  0  0  0  0  0  0  0  0  0
   -4.7620    2.9380   11.1810 C   0  0  0  0  0  0  0  0  0  0  0  0
   -6.0210    2.4790   11.6050 C   0  0  0  0  0  0  0  0  0  0  0  0
   -7.1870    3.1650   11.2600 C   0  0  0  0  0  0  0  0  0  0  0  0
   -7.1130    4.3250   10.4920 C   0  0  0  0  0  0  0  0  0  0  0  0
   -5.8740    4.8020   10.0740 C   0  0  0  0  0  0  0  0  0  0  0  0
   -4.7080    4.1180   10.4180 C   0  0  0  0  0  0  0  0  0  0  0  0
   -2.3323    0.2145   13.7248 H   0  0  0  0  0  0  0  0  0  0  0  0
   -2.6730   -0.6405   12.1821 H   0  0  0  0  0  0  0  0  0  0  0  0
   -1.6599    0.8429   12.1821 H   0  0  0  0  0  0  0  0  0  0  0  0
   -2.8351    2.9671   12.0468 H   0  0  0  0  0  0  0  0  0  0  0  0
   -1.8482    4.2207    9.0763 H   0  0  0  0  0  0  0  0  0  0  0  0
   -1.4526    4.2699   10.7646 H   0  0  0  0  0  0  0  0  0  0  0  0
    1.2200    5.6080    9.2690 H   0  0  0  0  0  0  0  0  0  0  0  0
    3.3900    4.0200    8.6300 H   0  0  0  0  0  0  0  0  0  0  0  0
    2.5880    0.4920    8.0210 H   0  0  0  0  0  0  0  0  0  0  0  0
    6.2125    1.0077    7.3421 H   0  0  0  0  0  0  0  0  0  0  0  0
    7.6402   -0.9880    6.9371 H   0  0  0  0  0  0  0  0  0  0  0  0
    7.4981   -4.0124   10.1754 H   0  0  0  0  0  0  0  0  0  0  0  0
    6.3671   -4.8622    9.0401 H   0  0  0  0  0  0  0  0  0  0  0  0
    9.2869   -5.3736    9.5929 H   0  0  0  0  0  0  0  0  0  0  0  0
    7.9637   -6.5253    9.2082 H   0  0  0  0  0  0  0  0  0  0  0  0
    7.9740   -5.5180    6.9530 H   0  0  0  0  0  0  0  0  0  0  0  0
    9.9060   -7.3472    8.0009 H   0  0  0  0  0  0  0  0  0  0  0  0
    8.9222   -7.4502    6.5015 H   0  0  0  0  0  0  0  0  0  0  0  0
   10.4659   -6.5317    6.5015 H   0  0  0  0  0  0  0  0  0  0  0  0
   10.6311   -4.3684    7.4800 H   0  0  0  0  0  0  0  0  0  0  0  0
    9.5503   -4.1635    6.0419 H   0  0  0  0  0  0  0  0  0  0  0  0
    9.4997   -2.7782    8.6951 H   0  0  0  0  0  0  0  0  0  0  0  0
    8.9435   -2.2210    7.0680 H   0  0  0  0  0  0  0  0  0  0  0  0
    5.5183   -3.1540   10.0003 H   0  0  0  0  0  0  0  0  0  0  0  0
    4.0778   -1.1711   10.3986 H   0  0  0  0  0  0  0  0  0  0  0  0
   -0.6491    0.8038    8.6250 H   0  0  0  0  0  0  0  0  0  0  0  0
   -0.1685    0.6280   10.2897 H   0  0  0  0  0  0  0  0  0  0  0  0
   -6.0885    1.5673   12.2167 H   0  0  0  0  0  0  0  0  0  0  0  0
   -8.1651    2.7892   11.5949 H   0  0  0  0  0  0  0  0  0  0  0  0
   -8.0321    4.8630   10.2165 H   0  0  0  0  0  0  0  0  0  0  0  0
   -5.8142    5.7202    9.4712 H   0  0  0  0  0  0  0  0  0  0  0  0
   -3.7333    4.5068   10.0881 H   0  0  0  0  0  0  0  0  0  0  0  0
  1  2  1  0
  2  3  1  0
  3  4  1  0
  4  5  2  0
  4  6  1  0
  6  7  1  0
  7  8  1  0
  8  9  1  0
  9 10  1  0
 10 11  2  0
 11 12  1  0
 12 13  1  0
 13 14  2  0
 13 15  1  0
 15 16  2  0
 16 17  1  0
 17 18  2  0
 18 19  1  0
 19 20  1  0
 20 21  1  0
 21 22  1  0
 22 23  1  0
 22 24  1  0
 24 25  1  0
 18 26  1  0
 26 27  2  0
 11 28  1  0
 28 29  1  0
  3 30  1  0
 30 31  2  0
 31 32  1  0
 32 33  2  0
 33 34  1  0
 34 35  2  0
 29  6  1  0
 35 30  1  0
 28  8  2  0
 27 15  1  0
 25 19  1  0
  1 36  1  0
  1 37  1  0
  1 38  1  0
  3 39  1  1
  7 40  1  0
  7 41  1  0
  9 42  1  0
 10 43  1  0
 12 44  1  0
 16 45  1  0
 17 46  1  0
 20 47  1  0
 20 48  1  0
 21 49  1  0
 21 50  1  0
 22 51  1  0
 23 52  1  0
 23 53  1  0
 23 54  1  0
 24 55  1  0
 24 56  1  0
 25 57  1  0
 25 58  1  0
 26 59  1  0
 27 60  1  0
 29 61  1  0
 29 62  1  0
 31 63  1  0
 32 64  1  0
 33 65  1  0
 34 66  1  0
 35 67  1  0
M  CHG  2  10   1  22   1
M  END
>  <meeko>  (4) 
{"is_sidechain": [false], "free_energy": -8.774, "intermolecular_energy": -12.199, "internal_energy": -0.916}

$$$$
2v7a_ligand
     RDKit          3D

 67 71  0  0  0  0  0  0  0  0999 V2000
   -7.0480   -3.0650   12.7720 C   0  0  0  0  0  0  0  0  0  0  0  0
   -7.8310   -1.8800   12.6670 O   0  0  0  0  0  0  0  0  0  0  0  0
   -8.3580   -1.4640   13.9330 C   0  0  1  0  0  0  0  0  0  0  0  0
   -7.7460   -0.0940   14.3310 C   0  0  0  0  0  0  0  0  0  0  0  0
   -7.5670    0.1990   15.5200 O   0  0  0  0  0  0  0  0  0  0  0  0
   -7.4320    0.8290   13.3510 N   0  0  0  0  0  0  0  0  0  0  0  0
   -8.3790    1.7510   12.6810 C   0  0  0  0  0  0  0  0  0  0  0  0
   -7.4600    2.5110   11.8320 C   0  0  0  0  0  0  0  0  0  0  0  0
   -7.5150    3.5660   10.9280 N   0  0  0  0  0  0  0  0  0  0  0  0
   -6.0550    3.7720   10.4560 N   0  0  0  0  0  0  0  0  0  0  0  0
   -5.2520    2.8080   11.1320 C   0  0  0  0  0  0  0  0  0  0  0  0
   -3.8070    2.6820   10.9530 N   0  0  0  0  0  0  0  0  0  0  0  0
   -3.1380    3.6660   10.2530 C   0  0  0  0  0  0  0  0  0  0  0  0
   -3.7580    4.6200    9.7800 O   0  0  0  0  0  0  0  0  0  0  0  0
   -1.6670    3.5250   10.0680 C   0  0  0  0  0  0  0  0  0  0  0  0
   -0.9400    4.2810    9.1460 C   0  0  0  0  0  0  0  0  0  0  0  0
    0.4460    4.0890    9.0200 C   0  0  0  0  0  0  0  0  0  0  0  0
    1.1430    3.1440    9.7930 C   0  0  0  0  0  0  0  0  0  0  0  0
    2.5350    3.0010    9.6310 N   0  0  0  0  0  0  0  0  0  0  0  0
    2.9790    1.5780    9.6810 C   0  0  0  0  0  0  0  0  0  0  0  0
    4.5240    1.4560    9.6630 C   0  0  0  0  0  0  0  0  0  0  0  0
    5.1180    2.6730    8.9780 N   0  0  0  0  0  0  0  0  0  0  0  0
    6.5550    2.5130    8.6030 C   0  0  0  0  0  0  0  0  0  0  0  0
    4.8460    3.9400    9.7780 C   0  0  0  0  0  0  0  0  0  0  0  0
    3.4140    3.9370   10.3700 C   0  0  0  0  0  0  0  0  0  0  0  0
    0.3900    2.3940   10.7080 C   0  0  0  0  0  0  0  0  0  0  0  0
   -0.9940    2.5740   10.8390 C   0  0  0  0  0  0  0  0  0  0  0  0
   -6.1140    2.0450   11.9650 C   0  0  0  0  0  0  0  0  0  0  0  0
   -6.0330    0.9450   12.9090 C   0  0  0  0  0  0  0  0  0  0  0  0
   -9.8810   -1.4170   13.9370 C   0  0  0  0  0  0  0  0  0  0  0  0
  -10.6050   -0.6520   14.8670 C   0  0  0  0  0  0  0  0  0  0  0  0
  -12.0000   -0.6220   14.8390 C   0  0  0  0  0  0  0  0  0  0  0  0
  -12.6950   -1.3490   13.8750 C   0  0  0  0  0  0  0  0  0  0  0  0
  -11.9940   -2.1020   12.9360 C   0  0  0  0  0  0  0  0  0  0  0  0
  -10.6000   -2.1330   12.9640 C   0  0  0  0  0  0  0  0  0  0  0  0
   -6.8886   -3.3063   13.8333 H   0  0  0  0  0  0  0  0  0  0  0  0
   -7.5747   -3.8971   12.2819 H   0  0  0  0  0  0  0  0  0  0  0  0
   -6.0760   -2.9068   12.2819 H   0  0  0  0  0  0  0  0  0  0  0  0
   -8.0720   -2.2142   14.6849 H   0  0  0  0  0  0  0  0  0  0  0  0
   -9.1241    1.2042   12.0844 H   0  0  0  0  0  0  0  0  0  0  0  0
   -8.9819    2.3648   13.3664 H   0  0  0  0  0  0  0  0  0  0  0  0
   -8.3100    4.1220   10.6060 H   0  0  0  0  0  0  0  0  0  0  0  0
   -5.6940    4.4590    9.7820 H   0  0  0  0  0  0  0  0  0  0  0  0
   -3.3370    1.8530   11.2940 H   0  0  0  0  0  0  0  0  0  0  0  0
   -1.4519    5.0260    8.5191 H   0  0  0  0  0  0  0  0  0  0  0  0
    1.0038    4.6977    8.2931 H   0  0  0  0  0  0  0  0  0  0  0  0
    2.5963    1.1178   10.6039 H   0  0  0  0  0  0  0  0  0  0  0  0
    2.5852    1.0656    8.7909 H   0  0  0  0  0  0  0  0  0  0  0  0
    4.8994    1.3962   10.6952 H   0  0  0  0  0  0  0  0  0  0  0  0
    4.8144    0.5476    9.1148 H   0  0  0  0  0  0  0  0  0  0  0  0
    4.5660    2.7930    8.1160 H   0  0  0  0  0  0  0  0  0  0  0  0
    7.1665    2.4449    9.5148 H   0  0  0  0  0  0  0  0  0  0  0  0
    6.6790    1.5955    8.0090 H   0  0  0  0  0  0  0  0  0  0  0  0
    6.8778    3.3808    8.0090 H   0  0  0  0  0  0  0  0  0  0  0  0
    5.5734    4.0073   10.6005 H   0  0  0  0  0  0  0  0  0  0  0  0
    4.9402    4.8033    9.1028 H   0  0  0  0  0  0  0  0  0  0  0  0
    3.4616    3.6286   11.4248 H   0  0  0  0  0  0  0  0  0  0  0  0
    2.9971    4.9512   10.2830 H   0  0  0  0  0  0  0  0  0  0  0  0
    0.8969    1.6475   11.3372 H   0  0  0  0  0  0  0  0  0  0  0  0
   -1.5566    1.9594   11.5571 H   0  0  0  0  0  0  0  0  0  0  0  0
   -5.6888    0.0216   12.4204 H   0  0  0  0  0  0  0  0  0  0  0  0
   -5.3177    1.1107   13.7281 H   0  0  0  0  0  0  0  0  0  0  0  0
  -10.0649   -0.0688   15.6274 H   0  0  0  0  0  0  0  0  0  0  0  0
  -12.5515   -0.0235   15.5791 H   0  0  0  0  0  0  0  0  0  0  0  0
  -13.7946   -1.3284   13.8554 H   0  0  0  0  0  0  0  0  0  0  0  0
  -12.5407   -2.6731   12.1712 H   0  0  0  0  0  0  0  0  0  0  0  0
  -10.0555   -2.7259   12.2143 H   0  0  0  0  0  0  0  0  0  0  0  0
  1  2  1  0
  2  3  1  0
  3  4  1  0
  4  5  2  0
  4  6  1  0
  6  7  1  0
  7  8  1  0
  8  9  1  0
  9 10  1  0
 10 11  2  0
 11 12  1  0
 12 13  1  0
 13 14  2  0
 13 15  1  0
 15 16  2  0
 16 17  1  0
 17 18  2  0
 18 19  1  0
 19 20  1  0
 20 21  1  0
 21 22  1  0
 22 23  1  0
 22 24  1  0
 24 25  1  0
 18 26  1  0
 26 27  2  0
 11 28  1  0
 28 29  1  0
  3 30  1  0
 30 31  2  0
 31 32  1  0
 32 33  2  0
 33 34  1  0
 34 35  2  0
 29  6  1  0
 35 30  1  0
 28  8  2  0
 27 15  1  0
 25 19  1  0
  1 36  1  0
  1 37  1  0
  1 38  1  0
  3 39  1  1
  7 40  1  0
  7 41  1  0
  9 42  1  0
 10 43  1  0
 12 44  1  0
 16 45  1  0
 17 46  1  0
 20 47  1  0
 20 48  1  0
 21 49  1  0
 21 50  1  0
 22 51  1  0
 23 52  1  0
 23 53  1  0
 23 54  1  0
 24 55  1  0
 24 56  1  0
 25 57  1  0
 25 58  1  0
 26 59  1  0
 27 60  1  0
 29 61  1  0
 29 62  1  0
 31 63  1  0
 32 64  1  0
 33 65  1  0
 34 66  1  0
 35 67  1  0
M  CHG  2  10   1  22   1
M  END
>  <meeko>  (5) 
{"is_sidechain": [false], "free_energy": -8.764, "intermolecular_energy": -12.409, "internal_energy": -0.693}

$$$$
2v7a_ligand
     RDKit          3D

 67 71  0  0  0  0  0  0  0  0999 V2000
    3.1610    4.6170   11.5780 C   0  0  0  0  0  0  0  0  0  0  0  0
    3.2200    4.1280   10.2410 O   0  0  0  0  0  0  0  0  0  0  0  0
    3.0800    2.7040   10.1780 C   0  0  1  0  0  0  0  0  0  0  0  0
    1.8970    2.3340    9.2420 C   0  0  0  0  0  0  0  0  0  0  0  0
    1.9770    1.3700    8.4710 O   0  0  0  0  0  0  0  0  0  0  0  0
    0.7550    3.1120    9.2390 N   0  0  0  0  0  0  0  0  0  0  0  0
    0.5630    4.3800    8.4980 C   0  0  0  0  0  0  0  0  0  0  0  0
   -0.8370    4.6700    8.8190 C   0  0  0  0  0  0  0  0  0  0  0  0
   -1.7950    5.6300    8.5130 N   0  0  0  0  0  0  0  0  0  0  0  0
   -3.0670    5.1940    9.2800 N   0  0  0  0  0  0  0  0  0  0  0  0
   -2.7470    3.9950    9.9820 C   0  0  0  0  0  0  0  0  0  0  0  0
   -3.6930    3.2680   10.8260 N   0  0  0  0  0  0  0  0  0  0  0  0
   -5.0420    3.3750   10.5530 C   0  0  0  0  0  0  0  0  0  0  0  0
   -5.4310    4.0850    9.6240 O   0  0  0  0  0  0  0  0  0  0  0  0
   -5.9990    2.6390   11.4230 C   0  0  0  0  0  0  0  0  0  0  0  0
   -5.6360    1.5270   12.1850 C   0  0  0  0  0  0  0  0  0  0  0  0
   -6.5940    0.8760   12.9780 C   0  0  0  0  0  0  0  0  0  0  0  0
   -7.9330    1.3020   13.0320 C   0  0  0  0  0  0  0  0  0  0  0  0
   -8.8500    0.6160   13.8540 N   0  0  0  0  0  0  0  0  0  0  0  0
   -8.1950   -0.0500   15.0160 C   0  0  0  0  0  0  0  0  0  0  0  0
   -9.1940   -0.9290   15.8130 C   0  0  0  0  0  0  0  0  0  0  0  0
  -10.6010   -0.3970   15.6180 N   0  0  0  0  0  0  0  0  0  0  0  0
  -11.5940   -0.9450   16.5900 C   0  0  0  0  0  0  0  0  0  0  0  0
  -11.0440   -0.5360   14.1680 C   0  0  0  0  0  0  0  0  0  0  0  0
   -9.8880   -0.2060   13.1900 C   0  0  0  0  0  0  0  0  0  0  0  0
   -8.2750    2.4170   12.2550 C   0  0  0  0  0  0  0  0  0  0  0  0
   -7.3280    3.0720   11.4560 C   0  0  0  0  0  0  0  0  0  0  0  0
   -1.3890    3.6850    9.6980 C   0  0  0  0  0  0  0  0  0  0  0  0
   -0.4060    2.6680   10.0270 C   0  0  0  0  0  0  0  0  0  0  0  0
    4.3690    2.0150    9.7470 C   0  0  0  0  0  0  0  0  0  0  0  0
    5.5250    2.7350    9.4050 C   0  0  0  0  0  0  0  0  0  0  0  0
    6.6940    2.0740    9.0230 C   0  0  0  0  0  0  0  0  0  0  0  0
    6.7290    0.6820    8.9860 C   0  0  0  0  0  0  0  0  0  0  0  0
    5.5960   -0.0500    9.3340 C   0  0  0  0  0  0  0  0  0  0  0  0
    4.4280    0.6100    9.7160 C   0  0  0  0  0  0  0  0  0  0  0  0
    3.2624    3.7767   12.2806 H   0  0  0  0  0  0  0  0  0  0  0  0
    3.9792    5.3335   11.7428 H   0  0  0  0  0  0  0  0  0  0  0  0
    2.1959    5.1183   11.7428 H   0  0  0  0  0  0  0  0  0  0  0  0
    2.8607    2.3379   11.1918 H   0  0  0  0  0  0  0  0  0  0  0  0
    1.2353    5.1698    8.8644 H   0  0  0  0  0  0  0  0  0  0  0  0
    0.7825    4.3188    7.4219 H   0  0  0  0  0  0  0  0  0  0  0  0
   -1.7340    6.4610    7.9210 H   0  0  0  0  0  0  0  0  0  0  0  0
   -3.9850    5.6550    9.3070 H   0  0  0  0  0  0  0  0  0  0  0  0
   -3.3470    2.7490   11.6230 H   0  0  0  0  0  0  0  0  0  0  0  0
   -4.5989    1.1608   12.1640 H   0  0  0  0  0  0  0  0  0  0  0  0
   -6.2876    0.0051   13.5761 H   0  0  0  0  0  0  0  0  0  0  0  0
   -7.3766   -0.6858   14.6473 H   0  0  0  0  0  0  0  0  0  0  0  0
   -7.8146    0.7323   15.6893 H   0  0  0  0  0  0  0  0  0  0  0  0
   -9.1404   -1.9661   15.4503 H   0  0  0  0  0  0  0  0  0  0  0  0
   -8.9358   -0.9011   16.8819 H   0  0  0  0  0  0  0  0  0  0  0  0
  -10.5270    0.6210   15.7650 H   0  0  0  0  0  0  0  0  0  0  0  0
  -11.2469   -0.7534   17.6161 H   0  0  0  0  0  0  0  0  0  0  0  0
  -12.5671   -0.4562   16.4349 H   0  0  0  0  0  0  0  0  0  0  0  0
  -11.6992   -2.0289   16.4349 H   0  0  0  0  0  0  0  0  0  0  0  0
  -11.3770   -1.5697   13.9929 H   0  0  0  0  0  0  0  0  0  0  0  0
  -11.8644    0.1741   13.9868 H   0  0  0  0  0  0  0  0  0  0  0  0
   -9.4340   -1.1447   12.8397 H   0  0  0  0  0  0  0  0  0  0  0  0
  -10.2974    0.3635   12.3426 H   0  0  0  0  0  0  0  0  0  0  0  0
   -9.3109    2.7867   12.2726 H   0  0  0  0  0  0  0  0  0  0  0  0
   -7.6337    3.9363   10.8481 H   0  0  0  0  0  0  0  0  0  0  0  0
   -0.1811    2.6607   11.1037 H   0  0  0  0  0  0  0  0  0  0  0  0
   -0.7323    1.6416    9.8034 H   0  0  0  0  0  0  0  0  0  0  0  0
    5.5094    3.8344    9.4385 H   0  0  0  0  0  0  0  0  0  0  0  0
    7.5886    2.6533    8.7509 H   0  0  0  0  0  0  0  0  0  0  0  0
    7.6495    0.1618    8.6826 H   0  0  0  0  0  0  0  0  0  0  0  0
    5.6224   -1.1494    9.3075 H   0  0  0  0  0  0  0  0  0  0  0  0
    3.5408    0.0236    9.9969 H   0  0  0  0  0  0  0  0  0  0  0  0
  1  2  1  0
  2  3  1  0
  3  4  1  0
  4  5  2  0
  4  6  1  0
  6  7  1  0
  7  8  1  0
  8  9  1  0
  9 10  1  0
 10 11  2  0
 11 12  1  0
 12 13  1  0
 13 14  2  0
 13 15  1  0
 15 16  2  0
 16 17  1  0
 17 18  2  0
 18 19  1  0
 19 20  1  0
 20 21  1  0
 21 22  1  0
 22 23  1  0
 22 24  1  0
 24 25  1  0
 18 26  1  0
 26 27  2  0
 11 28  1  0
 28 29  1  0
  3 30  1  0
 30 31  2  0
 31 32  1  0
 32 33  2  0
 33 34  1  0
 34 35  2  0
 29  6  1  0
 35 30  1  0
 28  8  2  0
 27 15  1  0
 25 19  1  0
  1 36  1  0
  1 37  1  0
  1 38  1  0
  3 39  1  1
  7 40  1  0
  7 41  1  0
  9 42  1  0
 10 43  1  0
 12 44  1  0
 16 45  1  0
 17 46  1  0
 20 47  1  0
 20 48  1  0
 21 49  1  0
 21 50  1  0
 22 51  1  0
 23 52  1  0
 23 53  1  0
 23 54  1  0
 24 55  1  0
 24 56  1  0
 25 57  1  0
 25 58  1  0
 26 59  1  0
 27 60  1  0
 29 61  1  0
 29 62  1  0
 31 63  1  0
 32 64  1  0
 33 65  1  0
 34 66  1  0
 35 67  1  0
M  CHG  2  10   1  22   1
M  END
>  <meeko>  (6) 
{"is_sidechain": [false], "free_energy": -8.713, "intermolecular_energy": -12.759, "internal_energy": -0.271}

$$$$
2v7a_ligand
     RDKit          3D

 67 71  0  0  0  0  0  0  0  0999 V2000
   -6.7170    3.9070    9.6760 C   0  0  0  0  0  0  0  0  0  0  0  0
   -6.0680    3.6970   10.9270 O   0  0  0  0  0  0  0  0  0  0  0  0
   -5.1580    2.5900   10.8870 C   0  0  1  0  0  0  0  0  0  0  0  0
   -3.7240    3.0770   11.2270 C   0  0  0  0  0  0  0  0  0  0  0  0
   -3.3330    3.1270   12.4000 O   0  0  0  0  0  0  0  0  0  0  0  0
   -2.8840    3.4990   10.2140 N   0  0  0  0  0  0  0  0  0  0  0  0
   -3.0870    4.6820    9.3450 C   0  0  0  0  0  0  0  0  0  0  0  0
   -1.8550    4.6490    8.5530 C   0  0  0  0  0  0  0  0  0  0  0  0
   -1.2420    5.3980    7.5550 N   0  0  0  0  0  0  0  0  0  0  0  0
    0.0890    4.6670    7.2570 N   0  0  0  0  0  0  0  0  0  0  0  0
    0.1490    3.5320    8.1180 C   0  0  0  0  0  0  0  0  0  0  0  0
    1.2610    2.5840    8.1390 N   0  0  0  0  0  0  0  0  0  0  0  0
    2.1230    2.5970    9.2170 C   0  0  0  0  0  0  0  0  0  0  0  0
    1.9590    3.4070   10.1300 O   0  0  0  0  0  0  0  0  0  0  0  0
    3.2580    1.6340    9.2250 C   0  0  0  0  0  0  0  0  0  0  0  0
    4.5770    2.0110    9.4880 C   0  0  0  0  0  0  0  0  0  0  0  0
    5.5980    1.0480    9.4720 C   0  0  0  0  0  0  0  0  0  0  0  0
    5.3460   -0.3050    9.1890 C   0  0  0  0  0  0  0  0  0  0  0  0
    6.4090   -1.2290    9.1960 N   0  0  0  0  0  0  0  0  0  0  0  0
    7.3060   -1.0660   10.3760 C   0  0  0  0  0  0  0  0  0  0  0  0
    8.5550   -1.9810   10.2810 C   0  0  0  0  0  0  0  0  0  0  0  0
    8.2310   -3.1880    9.4210 N   0  0  0  0  0  0  0  0  0  0  0  0
    9.2290   -4.2930    9.5300 C   0  0  0  0  0  0  0  0  0  0  0  0
    7.9490   -2.7770    7.9820 C   0  0  0  0  0  0  0  0  0  0  0  0
    7.1230   -1.4670    7.9200 C   0  0  0  0  0  0  0  0  0  0  0  0
    4.0150   -0.6590    8.9230 C   0  0  0  0  0  0  0  0  0  0  0  0
    2.9870    0.2940    8.9320 C   0  0  0  0  0  0  0  0  0  0  0  0
   -1.0370    3.5280    8.9010 C   0  0  0  0  0  0  0  0  0  0  0  0
   -1.6560    2.7340    9.9460 C   0  0  0  0  0  0  0  0  0  0  0  0
   -5.5930    1.4520   11.8020 C   0  0  0  0  0  0  0  0  0  0  0  0
   -4.9110    0.2250   11.8470 C   0  0  0  0  0  0  0  0  0  0  0  0
   -5.3290   -0.7950   12.7040 C   0  0  0  0  0  0  0  0  0  0  0  0
   -6.4290   -0.6020   13.5370 C   0  0  0  0  0  0  0  0  0  0  0  0
   -7.1090    0.6130   13.5160 C   0  0  0  0  0  0  0  0  0  0  0  0
   -6.6920    1.6330   12.6600 C   0  0  0  0  0  0  0  0  0  0  0  0
   -7.7503    4.2414    9.8506 H   0  0  0  0  0  0  0  0  0  0  0  0
   -6.1744    4.6754    9.1058 H   0  0  0  0  0  0  0  0  0  0  0  0
   -6.7274    2.9664    9.1058 H   0  0  0  0  0  0  0  0  0  0  0  0
   -5.1624    2.1814    9.8657 H   0  0  0  0  0  0  0  0  0  0  0  0
   -3.9796    4.5717    8.7116 H   0  0  0  0  0  0  0  0  0  0  0  0
   -3.2573    5.6239    9.8870 H   0  0  0  0  0  0  0  0  0  0  0  0
   -1.5510    6.2520    7.0830 H   0  0  0  0  0  0  0  0  0  0  0  0
    0.8150    4.9160    6.5740 H   0  0  0  0  0  0  0  0  0  0  0  0
    1.4090    1.9780    7.3420 H   0  0  0  0  0  0  0  0  0  0  0  0
    4.8155    3.0622    9.7076 H   0  0  0  0  0  0  0  0  0  0  0  0
    6.6295    1.3629    9.6882 H   0  0  0  0  0  0  0  0  0  0  0  0
    7.6357   -0.0180   10.4305 H   0  0  0  0  0  0  0  0  0  0  0  0
    6.7416   -1.3503   11.2763 H   0  0  0  0  0  0  0  0  0  0  0  0
    9.3868   -1.4209    9.8289 H   0  0  0  0  0  0  0  0  0  0  0  0
    8.8437   -2.3146   11.2887 H   0  0  0  0  0  0  0  0  0  0  0  0
    7.3230   -3.5310    9.7690 H   0  0  0  0  0  0  0  0  0  0  0  0
    9.4234   -4.5082   10.5911 H   0  0  0  0  0  0  0  0  0  0  0  0
    8.8329   -5.1945    9.0396 H   0  0  0  0  0  0  0  0  0  0  0  0
   10.1660   -3.9905    9.0396 H   0  0  0  0  0  0  0  0  0  0  0  0
    8.9048   -2.6225    7.4600 H   0  0  0  0  0  0  0  0  0  0  0  0
    7.3666   -3.5768    7.5011 H   0  0  0  0  0  0  0  0  0  0  0  0
    7.8009   -0.6231    7.7243 H   0  0  0  0  0  0  0  0  0  0  0  0
    6.3798   -1.5590    7.1143 H   0  0  0  0  0  0  0  0  0  0  0  0
    3.7723   -1.7089    8.7022 H   0  0  0  0  0  0  0  0  0  0  0  0
    1.9560   -0.0158    8.7061 H   0  0  0  0  0  0  0  0  0  0  0  0
   -1.8856    1.7173    9.5943 H   0  0  0  0  0  0  0  0  0  0  0  0
   -1.0196    2.5866   10.8310 H   0  0  0  0  0  0  0  0  0  0  0  0
   -4.0366    0.0656   11.1989 H   0  0  0  0  0  0  0  0  0  0  0  0
   -4.7887   -1.7530   12.7215 H   0  0  0  0  0  0  0  0  0  0  0  0
   -6.7595   -1.4073   14.2095 H   0  0  0  0  0  0  0  0  0  0  0  0
   -7.9759    0.7689   14.1750 H   0  0  0  0  0  0  0  0  0  0  0  0
   -7.2306    2.5921   12.6564 H   0  0  0  0  0  0  0  0  0  0  0  0
  1  2  1  0
  2  3  1  0
  3  4  1  0
  4  5  2  0
  4  6  1  0
  6  7  1  0
  7  8  1  0
  8  9  1  0
  9 10  1  0
 10 11  2  0
 11 12  1  0
 12 13  1  0
 13 14  2  0
 13 15  1  0
 15 16  2  0
 16 17  1  0
 17 18  2  0
 18 19  1  0
 19 20  1  0
 20 21  1  0
 21 22  1  0
 22 23  1  0
 22 24  1  0
 24 25  1  0
 18 26  1  0
 26 27  2  0
 11 28  1  0
 28 29  1  0
  3 30  1  0
 30 31  2  0
 31 32  1  0
 32 33  2  0
 33 34  1  0
 34 35  2  0
 29  6  1  0
 35 30  1  0
 28  8  2  0
 27 15  1  0
 25 19  1  0
  1 36  1  0
  1 37  1  0
  1 38  1  0
  3 39  1  6
  7 40  1  0
  7 41  1  0
  9 42  1  0
 10 43  1  0
 12 44  1  0
 16 45  1  0
 17 46  1  0
 20 47  1  0
 20 48  1  0
 21 49  1  0
 21 50  1  0
 22 51  1  0
 23 52  1  0
 23 53  1  0
 23 54  1  0
 24 55  1  0
 24 56  1  0
 25 57  1  0
 25 58  1  0
 26 59  1  0
 27 60  1  0
 29 61  1  0
 29 62  1  0
 31 63  1  0
 32 64  1  0
 33 65  1  0
 34 66  1  0
 35 67  1  0
M  CHG  2  10   1  22   1
M  END
>  <meeko>  (7) 
{"is_sidechain": [false], "free_energy": -8.699, "intermolecular_energy": -12.074, "internal_energy": -0.936}

$$$$
2v7a_ligand
     RDKit          3D

 67 71  0  0  0  0  0  0  0  0999 V2000
   -0.2130   -0.8490    9.8940 C   0  0  0  0  0  0  0  0  0  0  0  0
   -0.1160    0.5170   10.2860 O   0  0  0  0  0  0  0  0  0  0  0  0
    0.4730    1.3330    9.2650 C   0  0  1  0  0  0  0  0  0  0  0  0
   -0.6370    1.8910    8.3340 C   0  0  0  0  0  0  0  0  0  0  0  0
   -0.6430    1.6240    7.1260 O   0  0  0  0  0  0  0  0  0  0  0  0
   -1.6090    2.7280    8.8490 N   0  0  0  0  0  0  0  0  0  0  0  0
   -1.7980    4.1580    8.5140 C   0  0  0  0  0  0  0  0  0  0  0  0
   -3.0030    4.4590    9.2910 C   0  0  0  0  0  0  0  0  0  0  0  0
   -3.8520    5.5380    9.5130 N   0  0  0  0  0  0  0  0  0  0  0  0
   -4.9250    5.0130   10.4980 N   0  0  0  0  0  0  0  0  0  0  0  0
   -4.6140    3.6500   10.7760 C   0  0  0  0  0  0  0  0  0  0  0  0
   -5.4000    2.8010   11.6690 N   0  0  0  0  0  0  0  0  0  0  0  0
   -6.7750    2.8070   11.5490 C   0  0  0  0  0  0  0  0  0  0  0  0
   -7.3200    3.5300   10.7130 O   0  0  0  0  0  0  0  0  0  0  0  0
   -7.5680    1.9460   12.4680 C   0  0  0  0  0  0  0  0  0  0  0  0
   -8.9570    2.0320   12.5850 C   0  0  0  0  0  0  0  0  0  0  0  0
   -9.6390    1.1920   13.4790 C   0  0  0  0  0  0  0  0  0  0  0  0
   -8.9680    0.2540   14.2830 C   0  0  0  0  0  0  0  0  0  0  0  0
   -9.7050   -0.5700   15.1560 N   0  0  0  0  0  0  0  0  0  0  0  0
   -9.3630   -2.0150   15.0110 C   0  0  0  0  0  0  0  0  0  0  0  0
  -10.2970   -2.9150   15.8610 C   0  0  0  0  0  0  0  0  0  0  0  0
  -10.8320   -2.1200   17.0370 N   0  0  0  0  0  0  0  0  0  0  0  0
  -11.4620   -2.9600   18.0980 C   0  0  0  0  0  0  0  0  0  0  0  0
  -11.7260   -0.9800   16.5660 C   0  0  0  0  0  0  0  0  0  0  0  0
  -11.1560   -0.3020   15.2950 C   0  0  0  0  0  0  0  0  0  0  0  0
   -7.5740    0.1880   14.1510 C   0  0  0  0  0  0  0  0  0  0  0  0
   -6.8810    1.0260   13.2650 C   0  0  0  0  0  0  0  0  0  0  0  0
   -3.4430    3.3230   10.0400 C   0  0  0  0  0  0  0  0  0  0  0  0
   -2.5720    2.1820    9.8190 C   0  0  0  0  0  0  0  0  0  0  0  0
    1.3310    2.4520    9.8440 C   0  0  0  0  0  0  0  0  0  0  0  0
    1.6790    2.5030   11.2030 C   0  0  0  0  0  0  0  0  0  0  0  0
    2.4750    3.5360   11.7010 C   0  0  0  0  0  0  0  0  0  0  0  0
    2.9440    4.5310   10.8450 C   0  0  0  0  0  0  0  0  0  0  0  0
    2.6200    4.4890    9.4910 C   0  0  0  0  0  0  0  0  0  0  0  0
    1.8250    3.4570    8.9940 C   0  0  0  0  0  0  0  0  0  0  0  0
   -0.2582   -1.4853   10.7901 H   0  0  0  0  0  0  0  0  0  0  0  0
   -1.1238   -0.9947    9.2946 H   0  0  0  0  0  0  0  0  0  0  0  0
    0.6680   -1.1219    9.2946 H   0  0  0  0  0  0  0  0  0  0  0  0
    1.1510    0.7015    8.6720 H   0  0  0  0  0  0  0  0  0  0  0  0
   -0.9423    4.7676    8.8397 H   0  0  0  0  0  0  0  0  0  0  0  0
   -1.8829    4.3686    7.4377 H   0  0  0  0  0  0  0  0  0  0  0  0
   -3.8270    6.4890    9.1390 H   0  0  0  0  0  0  0  0  0  0  0  0
   -5.7230    5.5200   10.9010 H   0  0  0  0  0  0  0  0  0  0  0  0
   -4.9270    2.2710   12.3900 H   0  0  0  0  0  0  0  0  0  0  0  0
   -9.5164    2.7579   11.9766 H   0  0  0  0  0  0  0  0  0  0  0  0
  -10.7337    1.2701   13.5530 H   0  0  0  0  0  0  0  0  0  0  0  0
   -9.4602   -2.2996   13.9529 H   0  0  0  0  0  0  0  0  0  0  0  0
   -8.3320   -2.1600   15.3659 H   0  0  0  0  0  0  0  0  0  0  0  0
  -11.1365   -3.2617   15.2405 H   0  0  0  0  0  0  0  0  0  0  0  0
   -9.7321   -3.7831   16.2317 H   0  0  0  0  0  0  0  0  0  0  0  0
  -10.0090   -1.6470   17.4390 H   0  0  0  0  0  0  0  0  0  0  0  0
  -11.1745   -2.5766   19.0881 H   0  0  0  0  0  0  0  0  0  0  0  0
  -12.5564   -2.9223   17.9939 H   0  0  0  0  0  0  0  0  0  0  0  0
  -11.1194   -4.0001   17.9939 H   0  0  0  0  0  0  0  0  0  0  0  0
  -12.7260   -1.3792   16.3407 H   0  0  0  0  0  0  0  0  0  0  0  0
  -11.7771   -0.2271   17.3664 H   0  0  0  0  0  0  0  0  0  0  0  0
  -11.6807   -0.6948   14.4116 H   0  0  0  0  0  0  0  0  0  0  0  0
  -11.3054    0.7845   15.3802 H   0  0  0  0  0  0  0  0  0  0  0  0
   -7.0107   -0.5376   14.7561 H   0  0  0  0  0  0  0  0  0  0  0  0
   -5.7852    0.9584   13.1967 H   0  0  0  0  0  0  0  0  0  0  0  0
   -2.0729    1.8720   10.7490 H   0  0  0  0  0  0  0  0  0  0  0  0
   -3.0961    1.2801    9.4699 H   0  0  0  0  0  0  0  0  0  0  0  0
    1.3195    1.7182   11.8848 H   0  0  0  0  0  0  0  0  0  0  0  0
    2.7324    3.5648   12.7701 H   0  0  0  0  0  0  0  0  0  0  0  0
    3.5683    5.3472   11.2377 H   0  0  0  0  0  0  0  0  0  0  0  0
    2.9919    5.2711    8.8128 H   0  0  0  0  0  0  0  0  0  0  0  0
    1.5809    3.4288    7.9218 H   0  0  0  0  0  0  0  0  0  0  0  0
  1  2  1  0
  2  3  1  0
  3  4  1  0
  4  5  2  0
  4  6  1  0
  6  7  1  0
  7  8  1  0
  8  9  1  0
  9 10  1  0
 10 11  2  0
 11 12  1  0
 12 13  1  0
 13 14  2  0
 13 15  1  0
 15 16  2  0
 16 17  1  0
 17 18  2  0
 18 19  1  0
 19 20  1  0
 20 21  1  0
 21 22  1  0
 22 23  1  0
 22 24  1  0
 24 25  1  0
 18 26  1  0
 26 27  2  0
 11 28  1  0
 28 29  1  0
  3 30  1  0
 30 31  2  0
 31 32  1  0
 32 33  2  0
 33 34  1  0
 34 35  2  0
 29  6  1  0
 35 30  1  0
 28  8  2  0
 27 15  1  0
 25 19  1  0
  1 36  1  0
  1 37  1  0
  1 38  1  0
  3 39  1  6
  7 40  1  0
  7 41  1  0
  9 42  1  0
 10 43  1  0
 12 44  1  0
 16 45  1  0
 17 46  1  0
 20 47  1  0
 20 48  1  0
 21 49  1  0
 21 50  1  0
 22 51  1  0
 23 52  1  0
 23 53  1  0
 23 54  1  0
 24 55  1  0
 24 56  1  0
 25 57  1  0
 25 58  1  0
 26 59  1  0
 27 60  1  0
 29 61  1  0
 29 62  1  0
 31 63  1  0
 32 64  1  0
 33 65  1  0
 34 66  1  0
 35 67  1  0
M  CHG  2  10   1  22   1
M  END
>  <meeko>  (8) 
{"is_sidechain": [false], "free_energy": -8.642, "intermolecular_energy": -11.867, "internal_energy": -1.063}

$$$$
2v7a_ligand
     RDKit          3D

 67 71  0  0  0  0  0  0  0  0999 V2000
  -11.6130   -1.7800   16.6020 C   0  0  0  0  0  0  0  0  0  0  0  0
  -10.1960   -1.8350   16.4620 O   0  0  0  0  0  0  0  0  0  0  0  0
   -9.7620   -1.4040   15.1660 C   0  0  1  0  0  0  0  0  0  0  0  0
   -8.6740   -0.3060   15.3160 C   0  0  0  0  0  0  0  0  0  0  0  0
   -8.1060   -0.1210   16.3990 O   0  0  0  0  0  0  0  0  0  0  0  0
   -8.3610    0.5020   14.2390 N   0  0  0  0  0  0  0  0  0  0  0  0
   -9.2930    1.4050   13.5240 C   0  0  0  0  0  0  0  0  0  0  0  0
   -8.3780    2.0320   12.5670 C   0  0  0  0  0  0  0  0  0  0  0  0
   -8.4240    2.9980   11.5680 N   0  0  0  0  0  0  0  0  0  0  0  0
   -6.9790    3.0820   11.0180 N   0  0  0  0  0  0  0  0  0  0  0  0
   -6.1930    2.1450   11.7500 C   0  0  0  0  0  0  0  0  0  0  0  0
   -4.7660    1.9260   11.5240 N   0  0  0  0  0  0  0  0  0  0  0  0
   -3.9630    3.0170   11.2590 C   0  0  0  0  0  0  0  0  0  0  0  0
   -4.4520    4.1460   11.2000 O   0  0  0  0  0  0  0  0  0  0  0  0
   -2.5120    2.7840   11.0210 C   0  0  0  0  0  0  0  0  0  0  0  0
   -1.6760    2.1670   11.9530 C   0  0  0  0  0  0  0  0  0  0  0  0
   -0.3140    1.9870   11.6640 C   0  0  0  0  0  0  0  0  0  0  0  0
    0.2560    2.4180   10.4530 C   0  0  0  0  0  0  0  0  0  0  0  0
    1.6270    2.2020   10.2130 N   0  0  0  0  0  0  0  0  0  0  0  0
    2.0260    0.7760   10.3930 C   0  0  0  0  0  0  0  0  0  0  0  0
    3.5620    0.5900   10.2830 C   0  0  0  0  0  0  0  0  0  0  0  0
    4.1440    1.6980    9.4260 N   0  0  0  0  0  0  0  0  0  0  0  0
    5.5440    1.4410    8.9740 C   0  0  0  0  0  0  0  0  0  0  0  0
    3.9720    3.0560   10.0950 C   0  0  0  0  0  0  0  0  0  0  0  0
    2.5880    3.1760   10.7810 C   0  0  0  0  0  0  0  0  0  0  0  0
   -0.6010    3.0390    9.5350 C   0  0  0  0  0  0  0  0  0  0  0  0
   -1.9620    3.2290    9.8150 C   0  0  0  0  0  0  0  0  0  0  0  0
   -7.0520    1.5100   12.6880 C   0  0  0  0  0  0  0  0  0  0  0  0
   -6.9810    0.5020   13.7300 C   0  0  0  0  0  0  0  0  0  0  0  0
   -9.2720   -2.5620   14.3060 C   0  0  0  0  0  0  0  0  0  0  0  0
  -10.0240   -3.0700   13.2340 C   0  0  0  0  0  0  0  0  0  0  0  0
   -9.5430   -4.1260   12.4580 C   0  0  0  0  0  0  0  0  0  0  0  0
   -8.2980   -4.6850   12.7350 C   0  0  0  0  0  0  0  0  0  0  0  0
   -7.5320   -4.1860   13.7860 C   0  0  0  0  0  0  0  0  0  0  0  0
   -8.0120   -3.1310   14.5610 C   0  0  0  0  0  0  0  0  0  0  0  0
  -11.8758   -1.7698   17.6701 H   0  0  0  0  0  0  0  0  0  0  0  0
  -11.9937   -0.8664   16.1220 H   0  0  0  0  0  0  0  0  0  0  0  0
  -12.0634   -2.6613   16.1220 H   0  0  0  0  0  0  0  0  0  0  0  0
  -10.6289   -0.9775   14.6401 H   0  0  0  0  0  0  0  0  0  0  0  0
  -10.0909    0.8444   13.0151 H   0  0  0  0  0  0  0  0  0  0  0  0
   -9.8330    2.1115   14.1715 H   0  0  0  0  0  0  0  0  0  0  0  0
   -9.2050    3.5630   11.2280 H   0  0  0  0  0  0  0  0  0  0  0  0
   -6.6170    3.6810   10.2670 H   0  0  0  0  0  0  0  0  0  0  0  0
   -4.4070    0.9800   11.5110 H   0  0  0  0  0  0  0  0  0  0  0  0
   -2.0844    1.8217   12.9142 H   0  0  0  0  0  0  0  0  0  0  0  0
    0.3276    1.4931   12.4086 H   0  0  0  0  0  0  0  0  0  0  0  0
    1.6963    0.4365   11.3860 H   0  0  0  0  0  0  0  0  0  0  0  0
    1.5518    0.1847    9.5958 H   0  0  0  0  0  0  0  0  0  0  0  0
    4.0092    0.6295   11.2872 H   0  0  0  0  0  0  0  0  0  0  0  0
    3.7819   -0.3845    9.8225 H   0  0  0  0  0  0  0  0  0  0  0  0
    3.5350    1.7460    8.5960 H   0  0  0  0  0  0  0  0  0  0  0  0
    6.1964    1.3212    9.8515 H   0  0  0  0  0  0  0  0  0  0  0  0
    5.5712    0.5229    8.3688 H   0  0  0  0  0  0  0  0  0  0  0  0
    5.8955    2.2896    8.3688 H   0  0  0  0  0  0  0  0  0  0  0  0
    4.7594    3.1843   10.8524 H   0  0  0  0  0  0  0  0  0  0  0  0
    4.0442    3.8349    9.3217 H   0  0  0  0  0  0  0  0  0  0  0  0
    2.7023    2.9822   11.8577 H   0  0  0  0  0  0  0  0  0  0  0  0
    2.1997    4.1910   10.6109 H   0  0  0  0  0  0  0  0  0  0  0  0
   -0.1970    3.3856    8.5723 H   0  0  0  0  0  0  0  0  0  0  0  0
   -2.6038    3.7336    9.0778 H   0  0  0  0  0  0  0  0  0  0  0  0
   -6.7050   -0.4805   13.3194 H   0  0  0  0  0  0  0  0  0  0  0  0
   -6.2214    0.7070   14.4987 H   0  0  0  0  0  0  0  0  0  0  0  0
  -11.0052   -2.6298   13.0028 H   0  0  0  0  0  0  0  0  0  0  0  0
  -10.1481   -4.5170   11.6268 H   0  0  0  0  0  0  0  0  0  0  0  0
   -7.9202   -5.5189   12.1251 H   0  0  0  0  0  0  0  0  0  0  0  0
   -6.5473   -4.6248   14.0048 H   0  0  0  0  0  0  0  0  0  0  0  0
   -7.3961   -2.7384   15.3835 H   0  0  0  0  0  0  0  0  0  0  0  0
  1  2  1  0
  2  3  1  0
  3  4  1  0
  4  5  2  0
  4  6  1  0
  6  7  1  0
  7  8  1  0
  8  9  1  0
  9 10  1  0
 10 11  2  0
 11 12  1  0
 12 13  1  0
 13 14  2  0
 13 15  1  0
 15 16  2  0
 16 17  1  0
 17 18  2  0
 18 19  1  0
 19 20  1  0
 20 21  1  0
 21 22  1  0
 22 23  1  0
 22 24  1  0
 24 25  1  0
 18 26  1  0
 26 27  2  0
 11 28  1  0
 28 29  1  0
  3 30  1  0
 30 31  2  0
 31 32  1  0
 32 33  2  0
 33 34  1  0
 34 35  2  0
 29  6  1  0
 35 30  1  0
 28  8  2  0
 27 15  1  0
 25 19  1  0
  1 36  1  0
  1 37  1  0
  1 38  1  0
  3 39  1  6
  7 40  1  0
  7 41  1  0
  9 42  1  0
 10 43  1  0
 12 44  1  0
 16 45  1  0
 17 46  1  0
 20 47  1  0
 20 48  1  0
 21 49  1  0
 21 50  1  0
 22 51  1  0
 23 52  1  0
 23 53  1  0
 23 54  1  0
 24 55  1  0
 24 56  1  0
 25 57  1  0
 25 58  1  0
 26 59  1  0
 27 60  1  0
 29 61  1  0
 29 62  1  0
 31 63  1  0
 32 64  1  0
 33 65  1  0
 34 66  1  0
 35 67  1  0
M  CHG  2  10   1  22   1
M  END
>  <meeko>  (9) 
{"is_sidechain": [false], "free_energy": -8.288, "intermolecular_energy": -11.262, "internal_energy": -1.168}

$$$$
