
     RDKit          3D

 22 23  0  0  0  0  0  0  0  0999 V2000
  -12.7350   -5.1580  -10.4260 C   0  0  0  0  0  0  0  0  0  0  0  0
  -14.1460   -4.8950  -10.0710 C   0  0  0  0  0  0  0  0  0  0  0  0
  -14.2790   -4.3810   -8.6810 C   0  0  0  0  0  0  0  0  0  0  0  0
  -15.6270   -3.7910   -8.4640 C   0  0  0  0  0  0  0  0  0  0  0  0
  -15.7700   -3.1880   -7.1040 C   0  0  0  0  0  0  0  0  0  0  0  0
  -16.8660   -2.1680   -7.1000 C   0  0  0  0  0  0  0  0  0  0  0  0
  -17.0900   -1.6310   -5.7320 C   0  0  0  0  0  0  0  0  0  0  0  0
  -18.0190   -0.4450   -5.7390 C   0  0  0  0  0  0  0  0  0  0  0  0
  -18.2480   -0.1230   -4.3710 N   0  0  0  0  0  0  0  0  0  0  0  0
  -18.6350    1.0100   -3.9200 C   0  0  0  0  0  0  0  0  0  0  0  0
  -18.9030    2.1200   -4.6280 O   0  0  0  0  0  0  0  0  0  0  0  0
  -19.1530    3.2170   -3.7890 C   0  0  0  0  0  0  0  0  0  0  0  0
  -19.2320    2.6100   -2.4060 C   0  0  2  0  0  0  0  0  0  0  0  0
  -18.3210    3.2080   -1.3720 C   0  0  1  0  0  0  0  0  0  0  0  0
  -18.6860    4.5590   -1.1420 O   0  0  0  0  0  0  0  0  0  0  0  0
  -18.4210    2.3650   -0.0830 C   0  0  2  0  0  0  0  0  0  0  0  0
  -17.6150    2.9100    0.9410 O   0  0  0  0  0  0  0  0  0  0  0  0
  -17.9860    0.9370   -0.3370 C   0  0  1  0  0  0  0  0  0  0  0  0
  -18.3400    0.1270    0.7620 O   0  0  0  0  0  0  0  0  0  0  0  0
  -18.5600    0.4070   -1.5880 C   0  0  0  0  0  0  0  0  0  0  0  0
  -18.8090   -0.9110   -1.7280 O   0  0  0  0  0  0  0  0  0  0  0  0
  -18.8240    1.2550   -2.6480 N   0  0  0  0  0  0  0  0  0  0  0  0
  2  1  1  0
  3  2  1  0
  4  3  1  0
  5  4  1  0
  6  5  1  0
  7  6  1  0
  8  7  1  0
  9  8  1  0
 10  9  2  3
 11 10  1  0
 12 11  1  0
 13 12  1  6
 14 13  1  0
 14 15  1  1
 16 14  1  0
 16 17  1  1
 18 16  1  0
 18 19  1  1
 20 18  1  0
 21 20  1  0
 22 20  1  0
 22 13  1  0
 22 10  1  0
M  CHG  1   9   1
M  END
$$$$
