1owh_ligand
     RDKit          3D

 44 46  0  0  0  0  0  0  0  0999 V2000
   -7.0690   -9.1410   -4.2370 N   0  0  0  0  0  0  0  0  0  0  0  0
   -6.4050   -8.1960   -4.8670 C   0  0  0  0  0  0  0  0  0  0  0  0
   -5.3280   -8.4710   -5.5700 N   0  0  0  0  0  0  0  0  0  0  0  0
   -6.8750   -6.8060   -4.7820 C   0  0  0  0  0  0  0  0  0  0  0  0
   -6.2780   -5.9000   -3.8950 C   0  0  0  0  0  0  0  0  0  0  0  0
   -6.7330   -4.5800   -3.8110 C   0  0  0  0  0  0  0  0  0  0  0  0
   -7.7980   -4.1320   -4.6080 C   0  0  0  0  0  0  0  0  0  0  0  0
   -8.2750   -2.8100   -4.5240 C   0  0  0  0  0  0  0  0  0  0  0  0
   -9.3470   -2.3890   -5.3220 C   0  0  0  0  0  0  0  0  0  0  0  0
   -9.9070   -1.0100   -5.2400 C   0  0  0  0  0  0  0  0  0  0  0  0
  -11.1100   -0.8930   -5.0430 O   0  0  0  0  0  0  0  0  0  0  0  0
   -8.9980    0.0190   -5.4310 N   0  0  0  0  0  0  0  0  0  0  0  0
   -9.2790    1.4040   -5.4350 C   0  0  0  0  0  0  0  0  0  0  0  0
   -9.9040    2.0720   -6.4870 C   0  0  0  0  0  0  0  0  0  0  0  0
  -10.1270    3.4530   -6.4310 C   0  0  0  0  0  0  0  0  0  0  0  0
   -9.7330    4.1970   -5.3120 C   0  0  0  0  0  0  0  0  0  0  0  0
   -9.9940    5.6730   -5.2510 C   0  0  0  0  0  0  0  0  0  0  0  0
   -9.3650    6.3750   -6.3910 N   0  0  0  0  0  0  0  0  0  0  0  0
   -9.1220    3.5250   -4.2450 C   0  0  0  0  0  0  0  0  0  0  0  0
   -8.8950    2.1440   -4.3100 C   0  0  0  0  0  0  0  0  0  0  0  0
   -9.9560   -3.2940   -6.1960 C   0  0  0  0  0  0  0  0  0  0  0  0
   -9.4860   -4.6050   -6.2920 C   0  0  0  0  0  0  0  0  0  0  0  0
   -8.4090   -5.0390   -5.5050 C   0  0  0  0  0  0  0  0  0  0  0  0
   -7.9380   -6.3610   -5.5830 C   0  0  0  0  0  0  0  0  0  0  0  0
   -6.7920  -10.1140   -4.2630 H   0  0  0  0  0  0  0  0  0  0  0  0
   -7.9170   -8.9130   -3.7270 H   0  0  0  0  0  0  0  0  0  0  0  0
   -4.8160   -7.7270   -6.0310 H   0  0  0  0  0  0  0  0  0  0  0  0
   -4.9610   -9.4090   -5.6620 H   0  0  0  0  0  0  0  0  0  0  0  0
   -5.4436   -6.2301   -3.2588 H   0  0  0  0  0  0  0  0  0  0  0  0
   -6.2494   -3.8832   -3.1105 H   0  0  0  0  0  0  0  0  0  0  0  0
   -7.8026   -2.1024   -3.8267 H   0  0  0  0  0  0  0  0  0  0  0  0
   -8.0540   -0.2420   -5.6820 H   0  0  0  0  0  0  0  0  0  0  0  0
  -10.2264    1.5061   -7.3734 H   0  0  0  0  0  0  0  0  0  0  0  0
  -10.6172    3.9594   -7.2755 H   0  0  0  0  0  0  0  0  0  0  0  0
  -11.0799    5.8468   -5.2776 H   0  0  0  0  0  0  0  0  0  0  0  0
   -9.5612    6.0650   -4.3188 H   0  0  0  0  0  0  0  0  0  0  0  0
  -10.0660    6.7300   -7.0510 H   0  0  0  0  0  0  0  0  0  0  0  0
   -8.7320    5.7470   -6.9000 H   0  0  0  0  0  0  0  0  0  0  0  0
   -8.8030    7.1710   -6.0640 H   0  0  0  0  0  0  0  0  0  0  0  0
   -8.8181    4.0863   -3.3491 H   0  0  0  0  0  0  0  0  0  0  0  0
   -8.4084    1.6340   -3.4656 H   0  0  0  0  0  0  0  0  0  0  0  0
  -10.8093   -2.9718   -6.8108 H   0  0  0  0  0  0  0  0  0  0  0  0
   -9.9653   -5.3050   -6.9922 H   0  0  0  0  0  0  0  0  0  0  0  0
   -8.4123   -7.0612   -6.2863 H   0  0  0  0  0  0  0  0  0  0  0  0
  1  2  1  0
  2  3  2  0
  2  4  1  0
  4  5  2  0
  5  6  1  0
  6  7  2  0
  7  8  1  0
  8  9  2  0
  9 10  1  0
 10 11  2  0
 10 12  1  0
 12 13  1  0
 13 14  2  0
 14 15  1  0
 15 16  2  0
 16 17  1  0
 17 18  1  0
 16 19  1  0
 19 20  2  0
  9 21  1  0
 21 22  2  0
 22 23  1  0
 23 24  2  0
 24  4  1  0
 23  7  1  0
 20 13  1  0
  1 25  1  0
  1 26  1  0
  3 27  1  0
  3 28  1  0
  5 29  1  0
  6 30  1  0
  8 31  1  0
 12 32  1  0
 14 33  1  0
 15 34  1  0
 17 35  1  0
 17 36  1  0
 18 37  1  0
 18 38  1  0
 18 39  1  0
 19 40  1  0
 20 41  1  0
 21 42  1  0
 22 43  1  0
 24 44  1  0
M  CHG  2   3   1  18   1
M  END
>  <meeko>  (1) 
{"is_sidechain": [false], "free_energy": -8.143, "intermolecular_energy": -10.286, "internal_energy": -0.429}

$$$$
1owh_ligand
     RDKit          3D

 44 46  0  0  0  0  0  0  0  0999 V2000
  -11.7260    5.2270   -1.4720 N   0  0  0  0  0  0  0  0  0  0  0  0
  -11.3470    4.9150   -2.6920 C   0  0  0  0  0  0  0  0  0  0  0  0
  -11.2500    5.8300   -3.6320 N   0  0  0  0  0  0  0  0  0  0  0  0
  -11.0260    3.5170   -3.0110 C   0  0  0  0  0  0  0  0  0  0  0  0
  -11.3240    2.4880   -2.1080 C   0  0  0  0  0  0  0  0  0  0  0  0
  -11.0090    1.1590   -2.4120 C   0  0  0  0  0  0  0  0  0  0  0  0
  -10.3870    0.8250   -3.6240 C   0  0  0  0  0  0  0  0  0  0  0  0
  -10.0530   -0.5070   -3.9380 C   0  0  0  0  0  0  0  0  0  0  0  0
   -9.4210   -0.8150   -5.1490 C   0  0  0  0  0  0  0  0  0  0  0  0
   -9.0170   -2.2050   -5.5060 C   0  0  0  0  0  0  0  0  0  0  0  0
   -9.4470   -2.6720   -6.5540 O   0  0  0  0  0  0  0  0  0  0  0  0
   -8.2090   -2.8510   -4.5850 N   0  0  0  0  0  0  0  0  0  0  0  0
   -7.7180   -4.1730   -4.6720 C   0  0  0  0  0  0  0  0  0  0  0  0
   -8.5260   -5.3100   -4.6450 C   0  0  0  0  0  0  0  0  0  0  0  0
   -7.9670   -6.5920   -4.7100 C   0  0  0  0  0  0  0  0  0  0  0  0
   -6.5810   -6.7630   -4.8110 C   0  0  0  0  0  0  0  0  0  0  0  0
   -5.9910   -8.1400   -4.9000 C   0  0  0  0  0  0  0  0  0  0  0  0
   -6.8850   -9.1460   -4.2860 N   0  0  0  0  0  0  0  0  0  0  0  0
   -5.7680   -5.6230   -4.8570 C   0  0  0  0  0  0  0  0  0  0  0  0
   -6.3330   -4.3440   -4.7840 C   0  0  0  0  0  0  0  0  0  0  0  0
   -9.1070    0.2110   -6.0460 C   0  0  0  0  0  0  0  0  0  0  0  0
   -9.4400    1.5330   -5.7480 C   0  0  0  0  0  0  0  0  0  0  0  0
  -10.0790    1.8560   -4.5430 C   0  0  0  0  0  0  0  0  0  0  0  0
  -10.4060    3.1860   -4.2260 C   0  0  0  0  0  0  0  0  0  0  0  0
  -11.9570    6.1730   -1.1960 H   0  0  0  0  0  0  0  0  0  0  0  0
  -11.7620    4.5130   -0.7510 H   0  0  0  0  0  0  0  0  0  0  0  0
  -10.9770    5.5670   -4.5730 H   0  0  0  0  0  0  0  0  0  0  0  0
  -11.4590    6.8060   -3.4680 H   0  0  0  0  0  0  0  0  0  0  0  0
  -11.8103    2.7272   -1.1508 H   0  0  0  0  0  0  0  0  0  0  0  0
  -11.2525    0.3652   -1.6905 H   0  0  0  0  0  0  0  0  0  0  0  0
  -10.2905   -1.3114   -3.2263 H   0  0  0  0  0  0  0  0  0  0  0  0
   -8.0190   -2.3640   -3.7190 H   0  0  0  0  0  0  0  0  0  0  0  0
   -9.6178   -5.1977   -4.5716 H   0  0  0  0  0  0  0  0  0  0  0  0
   -8.6236   -7.4741   -4.6814 H   0  0  0  0  0  0  0  0  0  0  0  0
   -5.8360   -8.3962   -5.9585 H   0  0  0  0  0  0  0  0  0  0  0  0
   -5.0352   -8.1451   -4.3556 H   0  0  0  0  0  0  0  0  0  0  0  0
   -7.0270   -9.9530   -4.9030 H   0  0  0  0  0  0  0  0  0  0  0  0
   -7.8030   -8.7370   -4.0740 H   0  0  0  0  0  0  0  0  0  0  0  0
   -6.4940   -9.4870   -3.3990 H   0  0  0  0  0  0  0  0  0  0  0  0
   -4.6776   -5.7336   -4.9512 H   0  0  0  0  0  0  0  0  0  0  0  0
   -5.6788   -3.4602   -4.8151 H   0  0  0  0  0  0  0  0  0  0  0  0
   -8.5953   -0.0251   -6.9906 H   0  0  0  0  0  0  0  0  0  0  0  0
   -9.1984    2.3301   -6.4665 H   0  0  0  0  0  0  0  0  0  0  0  0
  -10.1710    3.9842   -4.9454 H   0  0  0  0  0  0  0  0  0  0  0  0
  1  2  1  0
  2  3  2  0
  2  4  1  0
  4  5  2  0
  5  6  1  0
  6  7  2  0
  7  8  1  0
  8  9  2  0
  9 10  1  0
 10 11  2  0
 10 12  1  0
 12 13  1  0
 13 14  2  0
 14 15  1  0
 15 16  2  0
 16 17  1  0
 17 18  1  0
 16 19  1  0
 19 20  2  0
  9 21  1  0
 21 22  2  0
 22 23  1  0
 23 24  2  0
 24  4  1  0
 23  7  1  0
 20 13  1  0
  1 25  1  0
  1 26  1  0
  3 27  1  0
  3 28  1  0
  5 29  1  0
  6 30  1  0
  8 31  1  0
 12 32  1  0
 14 33  1  0
 15 34  1  0
 17 35  1  0
 17 36  1  0
 18 37  1  0
 18 38  1  0
 18 39  1  0
 19 40  1  0
 20 41  1  0
 21 42  1  0
 22 43  1  0
 24 44  1  0
M  CHG  2   3   1  18   1
M  END
>  <meeko>  (2) 
{"is_sidechain": [false], "free_energy": -8.101, "intermolecular_energy": -10.254, "internal_energy": -0.407}

$$$$
1owh_ligand
     RDKit          3D

 44 46  0  0  0  0  0  0  0  0999 V2000
   -9.5300    7.0910   -7.4590 N   0  0  0  0  0  0  0  0  0  0  0  0
   -9.7960    6.7650   -6.2130 C   0  0  0  0  0  0  0  0  0  0  0  0
  -10.1590    7.6730   -5.3320 N   0  0  0  0  0  0  0  0  0  0  0  0
   -9.6850    5.3610   -5.7960 C   0  0  0  0  0  0  0  0  0  0  0  0
   -9.4370    5.0270   -4.4580 C   0  0  0  0  0  0  0  0  0  0  0  0
   -9.3230    3.6890   -4.0660 C   0  0  0  0  0  0  0  0  0  0  0  0
   -9.4510    2.6500   -5.0010 C   0  0  0  0  0  0  0  0  0  0  0  0
   -9.3260    1.2990   -4.6230 C   0  0  0  0  0  0  0  0  0  0  0  0
   -9.4460    0.2800   -5.5760 C   0  0  0  0  0  0  0  0  0  0  0  0
   -9.2850   -1.1600   -5.2270 C   0  0  0  0  0  0  0  0  0  0  0  0
  -10.0740   -1.6440   -4.4250 O   0  0  0  0  0  0  0  0  0  0  0  0
   -8.2210   -1.8090   -5.8330 N   0  0  0  0  0  0  0  0  0  0  0  0
   -7.8370   -3.1560   -5.6460 C   0  0  0  0  0  0  0  0  0  0  0  0
   -8.4770   -4.2410   -6.2440 C   0  0  0  0  0  0  0  0  0  0  0  0
   -8.0570   -5.5530   -5.9930 C   0  0  0  0  0  0  0  0  0  0  0  0
   -6.9770   -5.8070   -5.1390 C   0  0  0  0  0  0  0  0  0  0  0  0
   -6.5200   -7.2140   -4.8910 C   0  0  0  0  0  0  0  0  0  0  0  0
   -5.0440   -7.2960   -4.8310 N   0  0  0  0  0  0  0  0  0  0  0  0
   -6.3200   -4.7180   -4.5520 C   0  0  0  0  0  0  0  0  0  0  0  0
   -6.7500   -3.4080   -4.8010 C   0  0  0  0  0  0  0  0  0  0  0  0
   -9.6770    0.6100   -6.9150 C   0  0  0  0  0  0  0  0  0  0  0  0
   -9.8100    1.9450   -7.2990 C   0  0  0  0  0  0  0  0  0  0  0  0
   -9.7000    2.9750   -6.3550 C   0  0  0  0  0  0  0  0  0  0  0  0
   -9.8170    4.3240   -6.7340 C   0  0  0  0  0  0  0  0  0  0  0  0
   -9.5920    8.0410   -7.8010 H   0  0  0  0  0  0  0  0  0  0  0  0
   -9.2840    6.3710   -8.1320 H   0  0  0  0  0  0  0  0  0  0  0  0
  -10.3390    7.4060   -4.3710 H   0  0  0  0  0  0  0  0  0  0  0  0
  -10.2510    8.6530   -5.5650 H   0  0  0  0  0  0  0  0  0  0  0  0
   -9.3309    5.8249   -3.7083 H   0  0  0  0  0  0  0  0  0  0  0  0
   -9.1303    3.4478   -3.0102 H   0  0  0  0  0  0  0  0  0  0  0  0
   -9.1326    1.0423   -3.5710 H   0  0  0  0  0  0  0  0  0  0  0  0
   -7.6010   -1.2460   -6.3980 H   0  0  0  0  0  0  0  0  0  0  0  0
   -9.3242   -4.0637   -6.9228 H   0  0  0  0  0  0  0  0  0  0  0  0
   -8.5812   -6.3931   -6.4719 H   0  0  0  0  0  0  0  0  0  0  0  0
   -6.9376   -7.5634   -3.9352 H   0  0  0  0  0  0  0  0  0  0  0  0
   -6.8697   -7.8446   -5.7216 H   0  0  0  0  0  0  0  0  0  0  0  0
   -4.6500   -7.6650   -5.7030 H   0  0  0  0  0  0  0  0  0  0  0  0
   -4.7440   -7.9040   -4.0590 H   0  0  0  0  0  0  0  0  0  0  0  0
   -4.6350   -6.3690   -4.6620 H   0  0  0  0  0  0  0  0  0  0  0  0
   -5.4591   -4.8928   -3.8899 H   0  0  0  0  0  0  0  0  0  0  0  0
   -6.2260   -2.5657   -4.3257 H   0  0  0  0  0  0  0  0  0  0  0  0
   -9.7543   -0.1867   -7.6695 H   0  0  0  0  0  0  0  0  0  0  0  0
  -10.0032    2.1914   -8.3535 H   0  0  0  0  0  0  0  0  0  0  0  0
  -10.0160    4.5723   -7.7870 H   0  0  0  0  0  0  0  0  0  0  0  0
  1  2  1  0
  2  3  2  0
  2  4  1  0
  4  5  2  0
  5  6  1  0
  6  7  2  0
  7  8  1  0
  8  9  2  0
  9 10  1  0
 10 11  2  0
 10 12  1  0
 12 13  1  0
 13 14  2  0
 14 15  1  0
 15 16  2  0
 16 17  1  0
 17 18  1  0
 16 19  1  0
 19 20  2  0
  9 21  1  0
 21 22  2  0
 22 23  1  0
 23 24  2  0
 24  4  1  0
 23  7  1  0
 20 13  1  0
  1 25  1  0
  1 26  1  0
  3 27  1  0
  3 28  1  0
  5 29  1  0
  6 30  1  0
  8 31  1  0
 12 32  1  0
 14 33  1  0
 15 34  1  0
 17 35  1  0
 17 36  1  0
 18 37  1  0
 18 38  1  0
 18 39  1  0
 19 40  1  0
 20 41  1  0
 21 42  1  0
 22 43  1  0
 24 44  1  0
M  CHG  2   3   1  18   1
M  END
>  <meeko>  (3) 
{"is_sidechain": [false], "free_energy": -7.946, "intermolecular_energy": -10.018, "internal_energy": -0.447}

$$$$
1owh_ligand
     RDKit          3D

 44 46  0  0  0  0  0  0  0  0999 V2000
  -10.9200    6.4940   -4.1050 N   0  0  0  0  0  0  0  0  0  0  0  0
  -11.0300    5.4930   -3.2590 C   0  0  0  0  0  0  0  0  0  0  0  0
  -11.6010    5.6520   -2.0840 N   0  0  0  0  0  0  0  0  0  0  0  0
  -10.5040    4.1720   -3.6320 C   0  0  0  0  0  0  0  0  0  0  0  0
   -9.1820    4.0250   -4.0710 C   0  0  0  0  0  0  0  0  0  0  0  0
   -8.6880    2.7670   -4.4330 C   0  0  0  0  0  0  0  0  0  0  0  0
   -9.5020    1.6260   -4.3700 C   0  0  0  0  0  0  0  0  0  0  0  0
   -9.0210    0.3560   -4.7440 C   0  0  0  0  0  0  0  0  0  0  0  0
   -9.8570   -0.7660   -4.6830 C   0  0  0  0  0  0  0  0  0  0  0  0
   -9.4010   -2.1220   -5.1030 C   0  0  0  0  0  0  0  0  0  0  0  0
   -9.9470   -2.6320   -6.0730 O   0  0  0  0  0  0  0  0  0  0  0  0
   -8.4110   -2.6920   -4.3180 N   0  0  0  0  0  0  0  0  0  0  0  0
   -7.8340   -3.9710   -4.4840 C   0  0  0  0  0  0  0  0  0  0  0  0
   -8.5630   -5.1590   -4.5170 C   0  0  0  0  0  0  0  0  0  0  0  0
   -7.9200   -6.3950   -4.6590 C   0  0  0  0  0  0  0  0  0  0  0  0
   -6.5270   -6.4660   -4.7780 C   0  0  0  0  0  0  0  0  0  0  0  0
   -5.8470   -7.7930   -4.9500 C   0  0  0  0  0  0  0  0  0  0  0  0
   -6.7160   -8.9020   -4.5000 N   0  0  0  0  0  0  0  0  0  0  0  0
   -5.7930   -5.2730   -4.7640 C   0  0  0  0  0  0  0  0  0  0  0  0
   -6.4420   -4.0410   -4.6140 C   0  0  0  0  0  0  0  0  0  0  0  0
  -11.1820   -0.6200   -4.2610 C   0  0  0  0  0  0  0  0  0  0  0  0
  -11.6660    0.6330   -3.8810 C   0  0  0  0  0  0  0  0  0  0  0  0
  -10.8400    1.7640   -3.9300 C   0  0  0  0  0  0  0  0  0  0  0  0
  -11.3220    3.0330   -3.5640 C   0  0  0  0  0  0  0  0  0  0  0  0
  -11.2660    7.4230   -3.9010 H   0  0  0  0  0  0  0  0  0  0  0  0
  -10.5070    6.3430   -5.0210 H   0  0  0  0  0  0  0  0  0  0  0  0
  -11.6570    4.8740   -1.4360 H   0  0  0  0  0  0  0  0  0  0  0  0
  -11.9790    6.5380   -1.7760 H   0  0  0  0  0  0  0  0  0  0  0  0
   -8.5265    4.9063   -4.1317 H   0  0  0  0  0  0  0  0  0  0  0  0
   -7.6459    2.6711   -4.7720 H   0  0  0  0  0  0  0  0  0  0  0  0
   -7.9816    0.2447   -5.0863 H   0  0  0  0  0  0  0  0  0  0  0  0
   -8.1320   -2.1840   -3.4900 H   0  0  0  0  0  0  0  0  0  0  0  0
   -9.6590   -5.1250   -4.4302 H   0  0  0  0  0  0  0  0  0  0  0  0
   -8.5157   -7.3196   -4.6772 H   0  0  0  0  0  0  0  0  0  0  0  0
   -5.6040   -7.9364   -6.0132 H   0  0  0  0  0  0  0  0  0  0  0  0
   -4.9324   -7.7974   -4.3389 H   0  0  0  0  0  0  0  0  0  0  0  0
   -6.6600   -9.0390   -3.4850 H   0  0  0  0  0  0  0  0  0  0  0  0
   -6.4500   -9.7820   -4.9580 H   0  0  0  0  0  0  0  0  0  0  0  0
   -7.6970   -8.7190   -4.7440 H   0  0  0  0  0  0  0  0  0  0  0  0
   -4.6987   -5.3040   -4.8716 H   0  0  0  0  0  0  0  0  0  0  0  0
   -5.8491   -3.1146   -4.5981 H   0  0  0  0  0  0  0  0  0  0  0  0
  -11.8460   -1.4964   -4.2283 H   0  0  0  0  0  0  0  0  0  0  0  0
  -12.7068    0.7337   -3.5395 H   0  0  0  0  0  0  0  0  0  0  0  0
  -12.3609    3.1355   -3.2174 H   0  0  0  0  0  0  0  0  0  0  0  0
  1  2  1  0
  2  3  2  0
  2  4  1  0
  4  5  2  0
  5  6  1  0
  6  7  2  0
  7  8  1  0
  8  9  2  0
  9 10  1  0
 10 11  2  0
 10 12  1  0
 12 13  1  0
 13 14  2  0
 14 15  1  0
 15 16  2  0
 16 17  1  0
 17 18  1  0
 16 19  1  0
 19 20  2  0
  9 21  1  0
 21 22  2  0
 22 23  1  0
 23 24  2  0
 24  4  1  0
 23  7  1  0
 20 13  1  0
  1 25  1  0
  1 26  1  0
  3 27  1  0
  3 28  1  0
  5 29  1  0
  6 30  1  0
  8 31  1  0
 12 32  1  0
 14 33  1  0
 15 34  1  0
 17 35  1  0
 17 36  1  0
 18 37  1  0
 18 38  1  0
 18 39  1  0
 19 40  1  0
 20 41  1  0
 21 42  1  0
 22 43  1  0
 24 44  1  0
M  CHG  2   3   1  18   1
M  END
>  <meeko>  (4) 
{"is_sidechain": [false], "free_energy": -7.825, "intermolecular_energy": -9.979, "internal_energy": -0.333}

$$$$
1owh_ligand
     RDKit          3D

 44 46  0  0  0  0  0  0  0  0999 V2000
   -8.2100   -4.7040   -9.2340 N   0  0  0  0  0  0  0  0  0  0  0  0
   -8.4280   -4.4880   -7.9550 C   0  0  0  0  0  0  0  0  0  0  0  0
   -8.5210   -5.4830   -7.1000 N   0  0  0  0  0  0  0  0  0  0  0  0
   -8.5750   -3.1070   -7.4730 C   0  0  0  0  0  0  0  0  0  0  0  0
   -8.2000   -2.0230   -8.2770 C   0  0  0  0  0  0  0  0  0  0  0  0
   -8.3340   -0.7100   -7.8100 C   0  0  0  0  0  0  0  0  0  0  0  0
   -8.8420   -0.4490   -6.5290 C   0  0  0  0  0  0  0  0  0  0  0  0
   -8.9690    0.8670   -6.0420 C   0  0  0  0  0  0  0  0  0  0  0  0
   -9.4680    1.1030   -4.7540 C   0  0  0  0  0  0  0  0  0  0  0  0
   -9.5870    2.4760   -4.1850 C   0  0  0  0  0  0  0  0  0  0  0  0
   -8.5650    3.0130   -3.7760 O   0  0  0  0  0  0  0  0  0  0  0  0
  -10.8680    3.0010   -4.1470 N   0  0  0  0  0  0  0  0  0  0  0  0
  -11.2500    4.2600   -3.6320 C   0  0  0  0  0  0  0  0  0  0  0  0
  -11.2190    5.4470   -4.3630 C   0  0  0  0  0  0  0  0  0  0  0  0
  -11.5880    6.6630   -3.7780 C   0  0  0  0  0  0  0  0  0  0  0  0
  -12.0060    6.7170   -2.4420 C   0  0  0  0  0  0  0  0  0  0  0  0
  -12.4190    8.0220   -1.8280 C   0  0  0  0  0  0  0  0  0  0  0  0
  -12.7640    7.8560   -0.4000 N   0  0  0  0  0  0  0  0  0  0  0  0
  -12.0570    5.5240   -1.7100 C   0  0  0  0  0  0  0  0  0  0  0  0
  -11.6790    4.3100   -2.3000 C   0  0  0  0  0  0  0  0  0  0  0  0
   -9.8280    0.0230   -3.9430 C   0  0  0  0  0  0  0  0  0  0  0  0
   -9.7120   -1.2850   -4.4190 C   0  0  0  0  0  0  0  0  0  0  0  0
   -9.2220   -1.5360   -5.7080 C   0  0  0  0  0  0  0  0  0  0  0  0
   -9.0870   -2.8500   -6.1910 C   0  0  0  0  0  0  0  0  0  0  0  0
   -8.0990   -5.6330   -9.6200 H   0  0  0  0  0  0  0  0  0  0  0  0
   -8.1080   -3.9220   -9.8730 H   0  0  0  0  0  0  0  0  0  0  0  0
   -8.7120   -5.2980   -6.1210 H   0  0  0  0  0  0  0  0  0  0  0  0
   -8.4280   -6.4510   -7.3770 H   0  0  0  0  0  0  0  0  0  0  0  0
   -7.7967   -2.2050   -9.2841 H   0  0  0  0  0  0  0  0  0  0  0  0
   -8.0367    0.1286   -8.4568 H   0  0  0  0  0  0  0  0  0  0  0  0
   -8.6743    1.7152   -6.6774 H   0  0  0  0  0  0  0  0  0  0  0  0
  -11.6230    2.3930   -4.4350 H   0  0  0  0  0  0  0  0  0  0  0  0
  -10.8996    5.4270   -5.4154 H   0  0  0  0  0  0  0  0  0  0  0  0
  -11.5495    7.5870   -4.3736 H   0  0  0  0  0  0  0  0  0  0  0  0
  -11.5888    8.7383   -1.9156 H   0  0  0  0  0  0  0  0  0  0  0  0
  -13.3080    8.3913   -2.3603 H   0  0  0  0  0  0  0  0  0  0  0  0
  -13.7730    7.7260   -0.2670 H   0  0  0  0  0  0  0  0  0  0  0  0
  -12.4720    8.6780    0.1430 H   0  0  0  0  0  0  0  0  0  0  0  0
  -12.2810    7.0430   -0.0000 H   0  0  0  0  0  0  0  0  0  0  0  0
  -12.3964    5.5399   -0.6638 H   0  0  0  0  0  0  0  0  0  0  0  0
  -11.7199    3.3836   -1.7083 H   0  0  0  0  0  0  0  0  0  0  0  0
  -10.2043    0.2040   -2.9254 H   0  0  0  0  0  0  0  0  0  0  0  0
  -10.0082   -2.1267   -3.7757 H   0  0  0  0  0  0  0  0  0  0  0  0
   -9.3884   -3.6930   -5.5519 H   0  0  0  0  0  0  0  0  0  0  0  0
  1  2  1  0
  2  3  2  0
  2  4  1  0
  4  5  2  0
  5  6  1  0
  6  7  2  0
  7  8  1  0
  8  9  2  0
  9 10  1  0
 10 11  2  0
 10 12  1  0
 12 13  1  0
 13 14  2  0
 14 15  1  0
 15 16  2  0
 16 17  1  0
 17 18  1  0
 16 19  1  0
 19 20  2  0
  9 21  1  0
 21 22  2  0
 22 23  1  0
 23 24  2  0
 24  4  1  0
 23  7  1  0
 20 13  1  0
  1 25  1  0
  1 26  1  0
  3 27  1  0
  3 28  1  0
  5 29  1  0
  6 30  1  0
  8 31  1  0
 12 32  1  0
 14 33  1  0
 15 34  1  0
 17 35  1  0
 17 36  1  0
 18 37  1  0
 18 38  1  0
 18 39  1  0
 19 40  1  0
 20 41  1  0
 21 42  1  0
 22 43  1  0
 24 44  1  0
M  CHG  2   3   1  18   1
M  END
>  <meeko>  (5) 
{"is_sidechain": [false], "free_energy": -7.407, "intermolecular_energy": -9.329, "internal_energy": -0.456}

$$$$
1owh_ligand
     RDKit          3D

 44 46  0  0  0  0  0  0  0  0999 V2000
   -9.2000    9.5490   -6.6430 N   0  0  0  0  0  0  0  0  0  0  0  0
   -9.3090    8.2520   -6.8370 C   0  0  0  0  0  0  0  0  0  0  0  0
   -8.8490    7.6830   -7.9300 N   0  0  0  0  0  0  0  0  0  0  0  0
   -9.9620    7.4230   -5.8130 C   0  0  0  0  0  0  0  0  0  0  0  0
   -9.9470    6.0260   -5.9060 C   0  0  0  0  0  0  0  0  0  0  0  0
  -10.5770    5.2400   -4.9330 C   0  0  0  0  0  0  0  0  0  0  0  0
  -11.2380    5.8320   -3.8470 C   0  0  0  0  0  0  0  0  0  0  0  0
  -11.8870    5.0530   -2.8680 C   0  0  0  0  0  0  0  0  0  0  0  0
  -12.5520    5.6660   -1.7980 C   0  0  0  0  0  0  0  0  0  0  0  0
  -13.2810    4.8840   -0.7600 C   0  0  0  0  0  0  0  0  0  0  0  0
  -13.1070    3.6720   -0.7320 O   0  0  0  0  0  0  0  0  0  0  0  0
  -14.1230    5.6160    0.0620 N   0  0  0  0  0  0  0  0  0  0  0  0
  -14.9430    5.1110    1.0960 C   0  0  0  0  0  0  0  0  0  0  0  0
  -14.6880    5.2910    2.4550 C   0  0  0  0  0  0  0  0  0  0  0  0
  -15.5320    4.7390    3.4260 C   0  0  0  0  0  0  0  0  0  0  0  0
  -16.6600    3.9970    3.0540 C   0  0  0  0  0  0  0  0  0  0  0  0
  -17.5710    3.4250    4.1000 C   0  0  0  0  0  0  0  0  0  0  0  0
  -18.0130    2.0610    3.7380 N   0  0  0  0  0  0  0  0  0  0  0  0
  -16.9300    3.8300    1.6890 C   0  0  0  0  0  0  0  0  0  0  0  0
  -16.0770    4.3790    0.7230 C   0  0  0  0  0  0  0  0  0  0  0  0
  -12.5820    7.0610   -1.7110 C   0  0  0  0  0  0  0  0  0  0  0  0
  -11.9360    7.8410   -2.6720 C   0  0  0  0  0  0  0  0  0  0  0  0
  -11.2610    7.2420   -3.7440 C   0  0  0  0  0  0  0  0  0  0  0  0
  -10.6200    8.0190   -4.7250 C   0  0  0  0  0  0  0  0  0  0  0  0
   -8.7590   10.1660   -7.3120 H   0  0  0  0  0  0  0  0  0  0  0  0
   -9.5310    9.9640   -5.7780 H   0  0  0  0  0  0  0  0  0  0  0  0
   -8.9630    6.6860   -8.0720 H   0  0  0  0  0  0  0  0  0  0  0  0
   -8.3920    8.2060   -8.6660 H   0  0  0  0  0  0  0  0  0  0  0  0
   -9.4358    5.5415   -6.7509 H   0  0  0  0  0  0  0  0  0  0  0  0
  -10.5530    4.1438   -5.0218 H   0  0  0  0  0  0  0  0  0  0  0  0
  -11.8713    3.9558   -2.9446 H   0  0  0  0  0  0  0  0  0  0  0  0
  -14.2320    6.5980   -0.1510 H   0  0  0  0  0  0  0  0  0  0  0  0
  -13.8106    5.8755    2.7688 H   0  0  0  0  0  0  0  0  0  0  0  0
  -15.3069    4.8896    4.4921 H   0  0  0  0  0  0  0  0  0  0  0  0
  -17.0348    3.3853    5.0596 H   0  0  0  0  0  0  0  0  0  0  0  0
  -18.4592    4.0693    4.1776 H   0  0  0  0  0  0  0  0  0  0  0  0
  -17.4970    1.6980    2.9290 H   0  0  0  0  0  0  0  0  0  0  0  0
  -19.0150    2.0520    3.5110 H   0  0  0  0  0  0  0  0  0  0  0  0
  -17.8750    1.4130    4.5230 H   0  0  0  0  0  0  0  0  0  0  0  0
  -17.8186    3.2634    1.3738 H   0  0  0  0  0  0  0  0  0  0  0  0
  -16.3012    4.2330   -0.3440 H   0  0  0  0  0  0  0  0  0  0  0  0
  -13.1171    7.5464   -0.8815 H   0  0  0  0  0  0  0  0  0  0  0  0
  -11.9571    8.9375   -2.5867 H   0  0  0  0  0  0  0  0  0  0  0  0
  -10.6342    9.1155   -4.6385 H   0  0  0  0  0  0  0  0  0  0  0  0
  1  2  1  0
  2  3  2  0
  2  4  1  0
  4  5  2  0
  5  6  1  0
  6  7  2  0
  7  8  1  0
  8  9  2  0
  9 10  1  0
 10 11  2  0
 10 12  1  0
 12 13  1  0
 13 14  2  0
 14 15  1  0
 15 16  2  0
 16 17  1  0
 17 18  1  0
 16 19  1  0
 19 20  2  0
  9 21  1  0
 21 22  2  0
 22 23  1  0
 23 24  2  0
 24  4  1  0
 23  7  1  0
 20 13  1  0
  1 25  1  0
  1 26  1  0
  3 27  1  0
  3 28  1  0
  5 29  1  0
  6 30  1  0
  8 31  1  0
 12 32  1  0
 14 33  1  0
 15 34  1  0
 17 35  1  0
 17 36  1  0
 18 37  1  0
 18 38  1  0
 18 39  1  0
 19 40  1  0
 20 41  1  0
 21 42  1  0
 22 43  1  0
 24 44  1  0
M  CHG  2   3   1  18   1
M  END
>  <meeko>  (6) 
{"is_sidechain": [false], "free_energy": -7.164, "intermolecular_energy": -9.039, "internal_energy": -0.439}

$$$$
1owh_ligand
     RDKit          3D

 44 46  0  0  0  0  0  0  0  0999 V2000
  -12.3270    8.9690   -1.0080 N   0  0  0  0  0  0  0  0  0  0  0  0
  -12.9550    7.8310   -1.2080 C   0  0  0  0  0  0  0  0  0  0  0  0
  -14.1660    7.6270   -0.7360 N   0  0  0  0  0  0  0  0  0  0  0  0
  -12.2900    6.7650   -1.9710 C   0  0  0  0  0  0  0  0  0  0  0  0
  -11.6290    7.0490   -3.1730 C   0  0  0  0  0  0  0  0  0  0  0  0
  -11.0040    6.0300   -3.9000 C   0  0  0  0  0  0  0  0  0  0  0  0
  -11.0270    4.7020   -3.4470 C   0  0  0  0  0  0  0  0  0  0  0  0
  -10.4130    3.6650   -4.1760 C   0  0  0  0  0  0  0  0  0  0  0  0
  -10.4590    2.3450   -3.7090 C   0  0  0  0  0  0  0  0  0  0  0  0
   -9.8550    1.2110   -4.4650 C   0  0  0  0  0  0  0  0  0  0  0  0
   -8.9120    1.4580   -5.2070 O   0  0  0  0  0  0  0  0  0  0  0  0
  -10.4520   -0.0240   -4.2740 N   0  0  0  0  0  0  0  0  0  0  0  0
  -10.0920   -1.2420   -4.8930 C   0  0  0  0  0  0  0  0  0  0  0  0
   -9.0890   -2.0900   -4.4240 C   0  0  0  0  0  0  0  0  0  0  0  0
   -8.7680   -3.2710   -5.1050 C   0  0  0  0  0  0  0  0  0  0  0  0
   -9.4520   -3.6320   -6.2720 C   0  0  0  0  0  0  0  0  0  0  0  0
   -9.1150   -4.9090   -6.9840 C   0  0  0  0  0  0  0  0  0  0  0  0
   -7.8800   -5.5150   -6.4420 N   0  0  0  0  0  0  0  0  0  0  0  0
  -10.4730   -2.7920   -6.7350 C   0  0  0  0  0  0  0  0  0  0  0  0
  -10.7840   -1.6080   -6.0530 C   0  0  0  0  0  0  0  0  0  0  0  0
  -11.1320    2.0550   -2.5180 C   0  0  0  0  0  0  0  0  0  0  0  0
  -11.7370    3.0770   -1.7850 C   0  0  0  0  0  0  0  0  0  0  0  0
  -11.6930    4.4040   -2.2350 C   0  0  0  0  0  0  0  0  0  0  0  0
  -12.3120    5.4380   -1.5120 C   0  0  0  0  0  0  0  0  0  0  0  0
  -12.7380    9.7370   -0.4930 H   0  0  0  0  0  0  0  0  0  0  0  0
  -11.4060    9.1200   -1.4090 H   0  0  0  0  0  0  0  0  0  0  0  0
  -14.6260    6.7350   -0.8810 H   0  0  0  0  0  0  0  0  0  0  0  0
  -14.6700    8.3250   -0.2050 H   0  0  0  0  0  0  0  0  0  0  0  0
  -11.6011    8.0825   -3.5487 H   0  0  0  0  0  0  0  0  0  0  0  0
  -10.4872    6.2733   -4.8401 H   0  0  0  0  0  0  0  0  0  0  0  0
   -9.8938    3.8931   -5.1185 H   0  0  0  0  0  0  0  0  0  0  0  0
  -11.2860   -0.0480   -3.7020 H   0  0  0  0  0  0  0  0  0  0  0  0
   -8.5423   -1.8276   -3.5063 H   0  0  0  0  0  0  0  0  0  0  0  0
   -7.9698   -3.9220   -4.7188 H   0  0  0  0  0  0  0  0  0  0  0  0
   -9.9465   -5.6185   -6.8607 H   0  0  0  0  0  0  0  0  0  0  0  0
   -8.9528   -4.6816   -8.0479 H   0  0  0  0  0  0  0  0  0  0  0  0
   -8.0650   -6.4250   -6.0040 H   0  0  0  0  0  0  0  0  0  0  0  0
   -7.4520   -4.9010   -5.7390 H   0  0  0  0  0  0  0  0  0  0  0  0
   -7.1850   -5.6540   -7.1860 H   0  0  0  0  0  0  0  0  0  0  0  0
  -11.0348   -3.0639   -7.6408 H   0  0  0  0  0  0  0  0  0  0  0  0
  -11.5839   -0.9567   -6.4351 H   0  0  0  0  0  0  0  0  0  0  0  0
  -11.1848    1.0171   -2.1574 H   0  0  0  0  0  0  0  0  0  0  0  0
  -12.2541    2.8387   -0.8438 H   0  0  0  0  0  0  0  0  0  0  0  0
  -12.8242    5.2031   -0.5673 H   0  0  0  0  0  0  0  0  0  0  0  0
  1  2  1  0
  2  3  2  0
  2  4  1  0
  4  5  2  0
  5  6  1  0
  6  7  2  0
  7  8  1  0
  8  9  2  0
  9 10  1  0
 10 11  2  0
 10 12  1  0
 12 13  1  0
 13 14  2  0
 14 15  1  0
 15 16  2  0
 16 17  1  0
 17 18  1  0
 16 19  1  0
 19 20  2  0
  9 21  1  0
 21 22  2  0
 22 23  1  0
 23 24  2  0
 24  4  1  0
 23  7  1  0
 20 13  1  0
  1 25  1  0
  1 26  1  0
  3 27  1  0
  3 28  1  0
  5 29  1  0
  6 30  1  0
  8 31  1  0
 12 32  1  0
 14 33  1  0
 15 34  1  0
 17 35  1  0
 17 36  1  0
 18 37  1  0
 18 38  1  0
 18 39  1  0
 19 40  1  0
 20 41  1  0
 21 42  1  0
 22 43  1  0
 24 44  1  0
M  CHG  2   3   1  18   1
M  END
>  <meeko>  (7) 
{"is_sidechain": [false], "free_energy": -7.024, "intermolecular_energy": -8.818, "internal_energy": -0.483}

$$$$
1owh_ligand
     RDKit          3D

 44 46  0  0  0  0  0  0  0  0999 V2000
  -12.0260    8.2210   -1.9840 N   0  0  0  0  0  0  0  0  0  0  0  0
  -12.4040    7.1180   -1.3760 C   0  0  0  0  0  0  0  0  0  0  0  0
  -13.1440    7.1560   -0.2890 N   0  0  0  0  0  0  0  0  0  0  0  0
  -11.9910    5.8170   -1.9210 C   0  0  0  0  0  0  0  0  0  0  0  0
  -12.1870    4.6380   -1.1900 C   0  0  0  0  0  0  0  0  0  0  0  0
  -11.7850    3.4020   -1.7080 C   0  0  0  0  0  0  0  0  0  0  0  0
  -11.1740    3.3140   -2.9680 C   0  0  0  0  0  0  0  0  0  0  0  0
  -10.7520    2.0780   -3.4970 C   0  0  0  0  0  0  0  0  0  0  0  0
  -10.1340    2.0160   -4.7520 C   0  0  0  0  0  0  0  0  0  0  0  0
   -9.6400    0.7350   -5.3340 C   0  0  0  0  0  0  0  0  0  0  0  0
   -8.8660    0.8000   -6.2810 O   0  0  0  0  0  0  0  0  0  0  0  0
  -10.1410   -0.4200   -4.7550 N   0  0  0  0  0  0  0  0  0  0  0  0
   -9.8560   -1.7490   -5.1400 C   0  0  0  0  0  0  0  0  0  0  0  0
   -8.9340   -2.5710   -4.4910 C   0  0  0  0  0  0  0  0  0  0  0  0
   -8.6850   -3.8710   -4.9450 C   0  0  0  0  0  0  0  0  0  0  0  0
   -9.3620   -4.3820   -6.0590 C   0  0  0  0  0  0  0  0  0  0  0  0
   -9.1030   -5.7850   -6.5270 C   0  0  0  0  0  0  0  0  0  0  0  0
   -7.7900   -6.2730   -6.0540 N   0  0  0  0  0  0  0  0  0  0  0  0
  -10.3020   -3.5670   -6.7010 C   0  0  0  0  0  0  0  0  0  0  0  0
  -10.5420   -2.2630   -6.2470 C   0  0  0  0  0  0  0  0  0  0  0  0
   -9.9220    3.1920   -5.4770 C   0  0  0  0  0  0  0  0  0  0  0  0
  -10.3420    4.4210   -4.9660 C   0  0  0  0  0  0  0  0  0  0  0  0
  -10.9690    4.4970   -3.7150 C   0  0  0  0  0  0  0  0  0  0  0  0
  -11.3830    5.7320   -3.1830 C   0  0  0  0  0  0  0  0  0  0  0  0
  -12.2830    9.1430   -1.6540 H   0  0  0  0  0  0  0  0  0  0  0  0
  -11.4840    8.1700   -2.8410 H   0  0  0  0  0  0  0  0  0  0  0  0
  -13.4080    6.2960    0.1790 H   0  0  0  0  0  0  0  0  0  0  0  0
  -13.4560    8.0230    0.1290 H   0  0  0  0  0  0  0  0  0  0  0  0
  -12.6617    4.6845   -0.1988 H   0  0  0  0  0  0  0  0  0  0  0  0
  -11.9501    2.4873   -1.1197 H   0  0  0  0  0  0  0  0  0  0  0  0
  -10.9092    1.1549   -2.9198 H   0  0  0  0  0  0  0  0  0  0  0  0
  -10.8490   -0.3070   -4.0420 H   0  0  0  0  0  0  0  0  0  0  0  0
   -8.3953   -2.1918   -3.6101 H   0  0  0  0  0  0  0  0  0  0  0  0
   -7.9491   -4.4985   -4.4208 H   0  0  0  0  0  0  0  0  0  0  0  0
   -9.8924   -6.4446   -6.1374 H   0  0  0  0  0  0  0  0  0  0  0  0
   -9.1007   -5.7902   -7.6270 H   0  0  0  0  0  0  0  0  0  0  0  0
   -7.5980   -7.2250   -6.3860 H   0  0  0  0  0  0  0  0  0  0  0  0
   -7.7500   -6.2760   -5.0280 H   0  0  0  0  0  0  0  0  0  0  0  0
   -7.0330   -5.6610   -6.3840 H   0  0  0  0  0  0  0  0  0  0  0  0
  -10.8567   -3.9533   -7.5688 H   0  0  0  0  0  0  0  0  0  0  0  0
  -11.2796   -1.6346   -6.7676 H   0  0  0  0  0  0  0  0  0  0  0  0
   -9.4215    3.1487   -6.4556 H   0  0  0  0  0  0  0  0  0  0  0  0
  -10.1794    5.3385   -5.5506 H   0  0  0  0  0  0  0  0  0  0  0  0
  -11.2269    6.6501   -3.7685 H   0  0  0  0  0  0  0  0  0  0  0  0
  1  2  1  0
  2  3  2  0
  2  4  1  0
  4  5  2  0
  5  6  1  0
  6  7  2  0
  7  8  1  0
  8  9  2  0
  9 10  1  0
 10 11  2  0
 10 12  1  0
 12 13  1  0
 13 14  2  0
 14 15  1  0
 15 16  2  0
 16 17  1  0
 17 18  1  0
 16 19  1  0
 19 20  2  0
  9 21  1  0
 21 22  2  0
 22 23  1  0
 23 24  2  0
 24  4  1  0
 23  7  1  0
 20 13  1  0
  1 25  1  0
  1 26  1  0
  3 27  1  0
  3 28  1  0
  5 29  1  0
  6 30  1  0
  8 31  1  0
 12 32  1  0
 14 33  1  0
 15 34  1  0
 17 35  1  0
 17 36  1  0
 18 37  1  0
 18 38  1  0
 18 39  1  0
 19 40  1  0
 20 41  1  0
 21 42  1  0
 22 43  1  0
 24 44  1  0
M  CHG  2   3   1  18   1
M  END
>  <meeko>  (8) 
{"is_sidechain": [false], "free_energy": -6.673, "intermolecular_energy": -8.381, "internal_energy": -0.477}

$$$$
1owh_ligand
     RDKit          3D

 44 46  0  0  0  0  0  0  0  0999 V2000
  -13.3260    6.8910   -0.1530 N   0  0  0  0  0  0  0  0  0  0  0  0
  -12.6450    7.4990   -1.1000 C   0  0  0  0  0  0  0  0  0  0  0  0
  -12.4810    8.8040   -1.0940 N   0  0  0  0  0  0  0  0  0  0  0  0
  -12.0570    6.7040   -2.1880 C   0  0  0  0  0  0  0  0  0  0  0  0
  -11.6380    7.3150   -3.3770 C   0  0  0  0  0  0  0  0  0  0  0  0
  -11.0870    6.5530   -4.4140 C   0  0  0  0  0  0  0  0  0  0  0  0
  -10.9420    5.1640   -4.2890 C   0  0  0  0  0  0  0  0  0  0  0  0
  -10.4000    4.3830   -5.3300 C   0  0  0  0  0  0  0  0  0  0  0  0
  -10.2770    2.9960   -5.1870 C   0  0  0  0  0  0  0  0  0  0  0  0
   -9.7430    2.1270   -6.2750 C   0  0  0  0  0  0  0  0  0  0  0  0
   -9.3360    2.6740   -7.2920 O   0  0  0  0  0  0  0  0  0  0  0  0
   -9.7920    0.7640   -6.0330 N   0  0  0  0  0  0  0  0  0  0  0  0
   -9.3800   -0.2650   -6.9100 C   0  0  0  0  0  0  0  0  0  0  0  0
   -8.1860   -0.9730   -6.7780 C   0  0  0  0  0  0  0  0  0  0  0  0
   -7.8310   -1.9640   -7.7010 C   0  0  0  0  0  0  0  0  0  0  0  0
   -8.6720   -2.2730   -8.7780 C   0  0  0  0  0  0  0  0  0  0  0  0
   -8.2930   -3.3500   -9.7520 C   0  0  0  0  0  0  0  0  0  0  0  0
   -8.2540   -2.8310  -11.1360 N   0  0  0  0  0  0  0  0  0  0  0  0
   -9.8800   -1.5760   -8.9020 C   0  0  0  0  0  0  0  0  0  0  0  0
  -10.2260   -0.5810   -7.9790 C   0  0  0  0  0  0  0  0  0  0  0  0
  -10.7080    2.3800   -4.0080 C   0  0  0  0  0  0  0  0  0  0  0  0
  -11.2400    3.1450   -2.9680 C   0  0  0  0  0  0  0  0  0  0  0  0
  -11.3630    4.5360   -3.0940 C   0  0  0  0  0  0  0  0  0  0  0  0
  -11.9110    5.3140   -2.0580 C   0  0  0  0  0  0  0  0  0  0  0  0
  -13.7500    7.3880    0.6190 H   0  0  0  0  0  0  0  0  0  0  0  0
  -13.4120    5.8790   -0.1580 H   0  0  0  0  0  0  0  0  0  0  0  0
  -11.9720    9.2570   -1.8450 H   0  0  0  0  0  0  0  0  0  0  0  0
  -12.8640    9.3980   -0.3710 H   0  0  0  0  0  0  0  0  0  0  0  0
  -11.7429    8.4034   -3.4968 H   0  0  0  0  0  0  0  0  0  0  0  0
  -10.7633    7.0509   -5.3399 H   0  0  0  0  0  0  0  0  0  0  0  0
  -10.0713    4.8671   -6.2615 H   0  0  0  0  0  0  0  0  0  0  0  0
  -10.2480    0.4640   -5.1810 H   0  0  0  0  0  0  0  0  0  0  0  0
   -7.5134   -0.7497   -5.9367 H   0  0  0  0  0  0  0  0  0  0  0  0
   -6.8815   -2.5059   -7.5793 H   0  0  0  0  0  0  0  0  0  0  0  0
   -7.2991   -3.7397   -9.4870 H   0  0  0  0  0  0  0  0  0  0  0  0
   -9.0491   -4.1473   -9.7006 H   0  0  0  0  0  0  0  0  0  0  0  0
   -8.6010   -1.8660  -11.1880 H   0  0  0  0  0  0  0  0  0  0  0  0
   -8.8280   -3.4120  -11.7590 H   0  0  0  0  0  0  0  0  0  0  0  0
   -7.2960   -2.8470  -11.5050 H   0  0  0  0  0  0  0  0  0  0  0  0
  -10.5631   -1.8119   -9.7313 H   0  0  0  0  0  0  0  0  0  0  0  0
  -11.1766   -0.0400   -8.0961 H   0  0  0  0  0  0  0  0  0  0  0  0
  -10.6276    1.2883   -3.8993 H   0  0  0  0  0  0  0  0  0  0  0  0
  -11.5659    2.6514   -2.0406 H   0  0  0  0  0  0  0  0  0  0  0  0
  -12.2316    4.8232   -1.1272 H   0  0  0  0  0  0  0  0  0  0  0  0
  1  2  1  0
  2  3  2  0
  2  4  1  0
  4  5  2  0
  5  6  1  0
  6  7  2  0
  7  8  1  0
  8  9  2  0
  9 10  1  0
 10 11  2  0
 10 12  1  0
 12 13  1  0
 13 14  2  0
 14 15  1  0
 15 16  2  0
 16 17  1  0
 17 18  1  0
 16 19  1  0
 19 20  2  0
  9 21  1  0
 21 22  2  0
 22 23  1  0
 23 24  2  0
 24  4  1  0
 23  7  1  0
 20 13  1  0
  1 25  1  0
  1 26  1  0
  3 27  1  0
  3 28  1  0
  5 29  1  0
  6 30  1  0
  8 31  1  0
 12 32  1  0
 14 33  1  0
 15 34  1  0
 17 35  1  0
 17 36  1  0
 18 37  1  0
 18 38  1  0
 18 39  1  0
 19 40  1  0
 20 41  1  0
 21 42  1  0
 22 43  1  0
 24 44  1  0
M  CHG  2   3   1  18   1
M  END
>  <meeko>  (9) 
{"is_sidechain": [false], "free_energy": -6.607, "intermolecular_energy": -8.316, "internal_energy": -0.458}

$$$$
