1nvq_ligand
     RDKit          3D

 63 70  0  0  0  0  0  0  0  0999 V2000
    2.4410   -7.9630    6.5940 C   0  0  0  0  0  0  0  0  0  0  0  0
    2.1300   -8.5560    5.2680 N   0  0  0  0  0  0  0  0  0  0  0  0
    2.7040   -9.9440    4.9900 C   0  0  2  0  0  0  0  0  0  0  0  0
    3.7670  -10.1900    6.0600 C   0  0  0  0  0  0  0  0  0  0  0  0
    4.7420  -11.3040    5.6760 C   0  0  1  0  0  0  0  0  0  0  0  0
    4.3000  -12.0710    4.5660 O   0  0  0  0  0  0  0  0  0  0  0  0
    3.9330  -11.3920    3.3420 C   0  0  1  0  0  0  0  0  0  0  0  0
    2.7980  -12.3240    2.8600 C   0  0  0  0  0  0  0  0  0  0  0  0
    3.3240   -9.9620    3.5830 C   0  0  2  0  0  0  0  0  0  0  0  0
    4.2550   -8.8590    3.6140 O   0  0  0  0  0  0  0  0  0  0  0  0
    4.4140   -8.1930    2.3620 C   0  0  0  0  0  0  0  0  0  0  0  0
    5.1010  -11.3730    2.4550 N   0  0  0  0  0  0  0  0  0  0  0  0
    5.1590  -11.4950    1.0650 C   0  0  0  0  0  0  0  0  0  0  0  0
    4.1920  -11.7810    0.0810 C   0  0  0  0  0  0  0  0  0  0  0  0
    4.5690  -11.8190   -1.2650 C   0  0  0  0  0  0  0  0  0  0  0  0
    5.8770  -11.5700   -1.6490 C   0  0  0  0  0  0  0  0  0  0  0  0
    6.8410  -11.2780   -0.6850 C   0  0  0  0  0  0  0  0  0  0  0  0
    6.4930  -11.2400    0.6830 C   0  0  0  0  0  0  0  0  0  0  0  0
    7.2400  -10.9510    1.8570 C   0  0  0  0  0  0  0  0  0  0  0  0
    8.5600  -10.5920    2.1700 C   0  0  0  0  0  0  0  0  0  0  0  0
    8.9700  -10.3360    3.5130 C   0  0  0  0  0  0  0  0  0  0  0  0
    8.1380  -10.4200    4.6400 C   0  0  0  0  0  0  0  0  0  0  0  0
    8.2160  -10.2330    6.0530 C   0  0  0  0  0  0  0  0  0  0  0  0
    9.2420   -9.8470    6.9430 C   0  0  0  0  0  0  0  0  0  0  0  0
    8.9920   -9.7740    8.3160 C   0  0  0  0  0  0  0  0  0  0  0  0
    7.7360  -10.0830    8.8230 C   0  0  0  0  0  0  0  0  0  0  0  0
    6.6970  -10.4670    7.9720 C   0  0  0  0  0  0  0  0  0  0  0  0
    6.9520  -10.5290    6.5890 C   0  0  0  0  0  0  0  0  0  0  0  0
    6.1270  -10.8720    5.5280 N   0  0  0  0  0  0  0  0  0  0  0  0
    6.8310  -10.7900    4.3700 C   0  0  0  0  0  0  0  0  0  0  0  0
    6.3570  -11.0580    2.9110 C   0  0  0  0  0  0  0  0  0  0  0  0
   10.4000  -10.0040    3.4650 C   0  0  0  0  0  0  0  0  0  0  0  0
   11.1470   -9.8090    4.4010 O   0  0  0  0  0  0  0  0  0  0  0  0
   10.7820   -9.9780    2.1400 N   0  0  0  0  0  0  0  0  0  0  0  0
    9.7460  -10.4140    1.2680 C   0  0  2  0  0  0  0  0  0  0  0  0
    9.5370   -9.3760    0.3510 O   0  0  0  0  0  0  0  0  0  0  0  0
    2.0878   -8.6365    7.3888 H   0  0  0  0  0  0  0  0  0  0  0  0
    3.5281   -7.8239    6.6876 H   0  0  0  0  0  0  0  0  0  0  0  0
    1.9374   -6.9896    6.6876 H   0  0  0  0  0  0  0  0  0  0  0  0
    1.1020   -8.6460    5.1620 H   0  0  0  0  0  0  0  0  0  0  0  0
    2.4220   -7.8940    4.5360 H   0  0  0  0  0  0  0  0  0  0  0  0
    1.9335  -10.7283    5.0250 H   0  0  0  0  0  0  0  0  0  0  0  0
    4.3359   -9.2608    6.2115 H   0  0  0  0  0  0  0  0  0  0  0  0
    3.2488  -10.5031    6.9784 H   0  0  0  0  0  0  0  0  0  0  0  0
    4.7408  -11.9730    6.5492 H   0  0  0  0  0  0  0  0  0  0  0  0
    2.2788  -12.7503    3.7310 H   0  0  0  0  0  0  0  0  0  0  0  0
    2.0838  -11.7484    2.2530 H   0  0  0  0  0  0  0  0  0  0  0  0
    3.2237  -13.1366    2.2530 H   0  0  0  0  0  0  0  0  0  0  0  0
    2.6414   -9.8171    2.7327 H   0  0  0  0  0  0  0  0  0  0  0  0
    4.6661   -7.1368    2.5379 H   0  0  0  0  0  0  0  0  0  0  0  0
    5.2228   -8.6729    1.7915 H   0  0  0  0  0  0  0  0  0  0  0  0
    3.4756   -8.2558    1.7915 H   0  0  0  0  0  0  0  0  0  0  0  0
    3.1480  -11.9730    0.3695 H   0  0  0  0  0  0  0  0  0  0  0  0
    3.8149  -12.0504   -2.0317 H   0  0  0  0  0  0  0  0  0  0  0  0
    6.1543  -11.6027   -2.7130 H   0  0  0  0  0  0  0  0  0  0  0  0
    7.8779  -11.0762   -0.9917 H   0  0  0  0  0  0  0  0  0  0  0  0
   10.2416   -9.6029    6.5542 H   0  0  0  0  0  0  0  0  0  0  0  0
    9.7967   -9.4692    9.0013 H   0  0  0  0  0  0  0  0  0  0  0  0
    7.5577  -10.0246    9.9069 H   0  0  0  0  0  0  0  0  0  0  0  0
    5.7032  -10.7150    8.3730 H   0  0  0  0  0  0  0  0  0  0  0  0
   11.7680  -10.0130    1.9200 H   0  0  0  0  0  0  0  0  0  0  0  0
    9.9564  -11.3389    0.7110 H   0  0  0  0  0  0  0  0  0  0  0  0
    8.6010   -9.1430    0.4660 H   0  0  0  0  0  0  0  0  0  0  0  0
  1  2  1  0
  2  3  1  0
  3  4  1  0
  4  5  1  0
  5  6  1  0
  6  7  1  0
  7  8  1  6
  7  9  1  0
  9 10  1  0
 10 11  1  0
  7 12  1  0
 12 13  1  0
 13 14  2  0
 14 15  1  0
 15 16  2  0
 16 17  1  0
 17 18  2  0
 18 19  1  0
 19 20  2  0
 20 21  1  0
 21 22  2  0
 22 23  1  0
 23 24  2  0
 24 25  1  0
 25 26  2  0
 26 27  1  0
 27 28  2  0
 28 29  1  0
 29 30  1  0
 30 31  2  0
 21 32  1  0
 32 33  2  0
 32 34  1  0
 34 35  1  0
 35 36  1  0
  9  3  1  0
 31 12  1  0
 29  5  1  0
 18 13  1  0
 31 19  1  0
 35 20  1  0
 30 22  1  0
 28 23  1  0
  1 37  1  0
  1 38  1  0
  1 39  1  0
  2 40  1  0
  2 41  1  0
  3 42  1  6
  4 43  1  0
  4 44  1  0
  5 45  1  1
  8 46  1  0
  8 47  1  0
  8 48  1  0
  9 49  1  6
 11 50  1  0
 11 51  1  0
 11 52  1  0
 14 53  1  0
 15 54  1  0
 16 55  1  0
 17 56  1  0
 24 57  1  0
 25 58  1  0
 26 59  1  0
 27 60  1  0
 34 61  1  0
 35 62  1  6
 36 63  1  0
M  CHG  1   2   1
M  END
>  <meeko>  (1) 
{"is_sidechain": [false], "free_energy": -6.661, "intermolecular_energy": -7.635, "internal_energy": -0.191}

$$$$
1nvq_ligand
     RDKit          3D

 63 70  0  0  0  0  0  0  0  0999 V2000
    9.7770  -11.9180    9.4540 C   0  0  0  0  0  0  0  0  0  0  0  0
   10.8460  -11.7150    8.4440 N   0  0  0  0  0  0  0  0  0  0  0  0
   11.1750  -10.2680    8.0800 C   0  0  2  0  0  0  0  0  0  0  0  0
   10.5450  -10.0170    6.7110 C   0  0  0  0  0  0  0  0  0  0  0  0
   11.1440   -8.8020    6.0010 C   0  0  1  0  0  0  0  0  0  0  0  0
   11.9380   -7.9940    6.8570 O   0  0  0  0  0  0  0  0  0  0  0  0
   13.0060   -8.6080    7.6160 C   0  0  1  0  0  0  0  0  0  0  0  0
   12.9500   -7.7370    8.8920 C   0  0  0  0  0  0  0  0  0  0  0  0
   12.7030  -10.0960    8.0230 C   0  0  2  0  0  0  0  0  0  0  0  0
   13.1200  -11.1190    7.0940 O   0  0  0  0  0  0  0  0  0  0  0  0
   14.2350  -11.8920    7.5380 C   0  0  0  0  0  0  0  0  0  0  0  0
   14.2540   -8.4670    6.8570 N   0  0  0  0  0  0  0  0  0  0  0  0
   15.5500   -8.2380    7.3200 C   0  0  0  0  0  0  0  0  0  0  0  0
   16.0830   -7.9590    8.5950 C   0  0  0  0  0  0  0  0  0  0  0  0
   17.4640   -7.7920    8.7420 C   0  0  0  0  0  0  0  0  0  0  0  0
   18.3180   -7.9050    7.6570 C   0  0  0  0  0  0  0  0  0  0  0  0
   17.8040   -8.1890    6.3930 C   0  0  0  0  0  0  0  0  0  0  0  0
   16.4130   -8.3550    6.2100 C   0  0  0  0  0  0  0  0  0  0  0  0
   15.6240   -8.6690    5.0710 C   0  0  0  0  0  0  0  0  0  0  0  0
   15.8480   -8.9420    3.7120 C   0  0  0  0  0  0  0  0  0  0  0  0
   14.7770   -9.2630    2.8250 C   0  0  0  0  0  0  0  0  0  0  0  0
   13.4230   -9.3300    3.1870 C   0  0  0  0  0  0  0  0  0  0  0  0
   12.1600   -9.6140    2.5840 C   0  0  0  0  0  0  0  0  0  0  0  0
   11.7450   -9.9810    1.2860 C   0  0  0  0  0  0  0  0  0  0  0  0
   10.3880  -10.1750    1.0090 C   0  0  0  0  0  0  0  0  0  0  0  0
    9.4340  -10.0070    2.0030 C   0  0  0  0  0  0  0  0  0  0  0  0
    9.8070   -9.6460    3.2990 C   0  0  0  0  0  0  0  0  0  0  0  0
   11.1750   -9.4620    3.5750 C   0  0  0  0  0  0  0  0  0  0  0  0
   11.8260   -9.1080    4.7490 N   0  0  0  0  0  0  0  0  0  0  0  0
   13.1630   -9.0480    4.5180 C   0  0  0  0  0  0  0  0  0  0  0  0
   14.3170   -8.7120    5.5070 C   0  0  0  0  0  0  0  0  0  0  0  0
   15.3720   -9.4740    1.4990 C   0  0  0  0  0  0  0  0  0  0  0  0
   14.7950   -9.6760    0.4510 O   0  0  0  0  0  0  0  0  0  0  0  0
   16.7410   -9.3710    1.6310 N   0  0  0  0  0  0  0  0  0  0  0  0
   17.1310   -8.9560    2.9340 C   0  0  2  0  0  0  0  0  0  0  0  0
   18.0080   -9.9380    3.4170 O   0  0  0  0  0  0  0  0  0  0  0  0
   10.2061  -11.8365   10.4636 H   0  0  0  0  0  0  0  0  0  0  0  0
    8.9988  -11.1516    9.3234 H   0  0  0  0  0  0  0  0  0  0  0  0
    9.3340  -12.9163    9.3234 H   0  0  0  0  0  0  0  0  0  0  0  0
   11.7310  -12.1310    8.7890 H   0  0  0  0  0  0  0  0  0  0  0  0
   10.6050  -12.2510    7.5990 H   0  0  0  0  0  0  0  0  0  0  0  0
   10.7859   -9.5533    8.8202 H   0  0  0  0  0  0  0  0  0  0  0  0
   10.7031  -10.9057    6.0823 H   0  0  0  0  0  0  0  0  0  0  0  0
    9.4750   -9.8163    6.8687 H   0  0  0  0  0  0  0  0  0  0  0  0
   10.2681   -8.2019    5.7135 H   0  0  0  0  0  0  0  0  0  0  0  0
   12.9916   -8.3847    9.7802 H   0  0  0  0  0  0  0  0  0  0  0  0
   13.8056   -7.0457    8.9019 H   0  0  0  0  0  0  0  0  0  0  0  0
   12.0130   -7.1609    8.9019 H   0  0  0  0  0  0  0  0  0  0  0  0
   13.2583  -10.2328    8.9627 H   0  0  0  0  0  0  0  0  0  0  0  0
   14.2563  -11.9068    8.6377 H   0  0  0  0  0  0  0  0  0  0  0  0
   14.1422  -12.9205    7.1592 H   0  0  0  0  0  0  0  0  0  0  0  0
   15.1656  -11.4443    7.1592 H   0  0  0  0  0  0  0  0  0  0  0  0
   15.4182   -7.8733    9.4672 H   0  0  0  0  0  0  0  0  0  0  0  0
   17.8788   -7.5672    9.7357 H   0  0  0  0  0  0  0  0  0  0  0  0
   19.4013   -7.7706    7.7930 H   0  0  0  0  0  0  0  0  0  0  0  0
   18.4845   -8.2843    5.5340 H   0  0  0  0  0  0  0  0  0  0  0  0
   12.4916  -10.1149    0.4893 H   0  0  0  0  0  0  0  0  0  0  0  0
   10.0741  -10.4631   -0.0051 H   0  0  0  0  0  0  0  0  0  0  0  0
    8.3707  -10.1602    1.7667 H   0  0  0  0  0  0  0  0  0  0  0  0
    9.0502   -9.5087    4.0854 H   0  0  0  0  0  0  0  0  0  0  0  0
   17.3000   -9.2400    0.7980 H   0  0  0  0  0  0  0  0  0  0  0  0
   17.6323   -7.9783    2.9871 H   0  0  0  0  0  0  0  0  0  0  0  0
   18.6360   -9.4430    3.9680 H   0  0  0  0  0  0  0  0  0  0  0  0
  1  2  1  0
  2  3  1  0
  3  4  1  0
  4  5  1  0
  5  6  1  0
  6  7  1  0
  7  8  1  1
  7  9  1  0
  9 10  1  0
 10 11  1  0
  7 12  1  0
 12 13  1  0
 13 14  2  0
 14 15  1  0
 15 16  2  0
 16 17  1  0
 17 18  2  0
 18 19  1  0
 19 20  2  0
 20 21  1  0
 21 22  2  0
 22 23  1  0
 23 24  2  0
 24 25  1  0
 25 26  2  0
 26 27  1  0
 27 28  2  0
 28 29  1  0
 29 30  1  0
 30 31  2  0
 21 32  1  0
 32 33  2  0
 32 34  1  0
 34 35  1  0
 35 36  1  0
  9  3  1  0
 31 12  1  0
 29  5  1  0
 18 13  1  0
 31 19  1  0
 35 20  1  0
 30 22  1  0
 28 23  1  0
  1 37  1  0
  1 38  1  0
  1 39  1  0
  2 40  1  0
  2 41  1  0
  3 42  1  1
  4 43  1  0
  4 44  1  0
  5 45  1  6
  8 46  1  0
  8 47  1  0
  8 48  1  0
  9 49  1  1
 11 50  1  0
 11 51  1  0
 11 52  1  0
 14 53  1  0
 15 54  1  0
 16 55  1  0
 17 56  1  0
 24 57  1  0
 25 58  1  0
 26 59  1  0
 27 60  1  0
 34 61  1  0
 35 62  1  6
 36 63  1  0
M  CHG  1   2   1
M  END
>  <meeko>  (2) 
{"is_sidechain": [false], "free_energy": -6.525, "intermolecular_energy": -7.375, "internal_energy": -0.295}

$$$$
1nvq_ligand
     RDKit          3D

 63 70  0  0  0  0  0  0  0  0999 V2000
   18.5140  -13.2220    6.1150 C   0  0  0  0  0  0  0  0  0  0  0  0
   18.3670  -13.0610    4.6450 N   0  0  0  0  0  0  0  0  0  0  0  0
   18.0150  -11.6620    4.1440 C   0  0  2  0  0  0  0  0  0  0  0  0
   18.2900  -10.7080    5.3060 C   0  0  0  0  0  0  0  0  0  0  0  0
   17.5800   -9.3630    5.1450 C   0  0  1  0  0  0  0  0  0  0  0  0
   17.0590   -9.1620    3.8400 O   0  0  0  0  0  0  0  0  0  0  0  0
   16.1930  -10.1680    3.2640 C   0  0  1  0  0  0  0  0  0  0  0  0
   16.6020  -10.0420    1.7780 C   0  0  0  0  0  0  0  0  0  0  0  0
   16.5300  -11.6280    3.7430 C   0  0  2  0  0  0  0  0  0  0  0  0
   15.8530  -12.0910    4.9310 O   0  0  0  0  0  0  0  0  0  0  0  0
   14.7740  -12.9900    4.6760 C   0  0  0  0  0  0  0  0  0  0  0  0
   14.8010   -9.7870    3.5290 N   0  0  0  0  0  0  0  0  0  0  0  0
   13.6730   -9.9400    2.7220 C   0  0  0  0  0  0  0  0  0  0  0  0
   13.4880  -10.3790    1.3960 C   0  0  0  0  0  0  0  0  0  0  0  0
   12.1960  -10.4360    0.8620 C   0  0  0  0  0  0  0  0  0  0  0  0
   11.0940  -10.0770    1.6190 C   0  0  0  0  0  0  0  0  0  0  0  0
   11.2620   -9.6480    2.9350 C   0  0  0  0  0  0  0  0  0  0  0  0
   12.5550   -9.5730    3.5000 C   0  0  0  0  0  0  0  0  0  0  0  0
   13.0190   -9.2060    4.7920 C   0  0  0  0  0  0  0  0  0  0  0  0
   12.4510   -8.7910    6.0060 C   0  0  0  0  0  0  0  0  0  0  0  0
   13.2500   -8.5290    7.1590 C   0  0  0  0  0  0  0  0  0  0  0  0
   14.6480   -8.6400    7.2120 C   0  0  0  0  0  0  0  0  0  0  0  0
   15.7070   -8.4690    8.1550 C   0  0  0  0  0  0  0  0  0  0  0  0
   15.7680   -8.1050    9.5170 C   0  0  0  0  0  0  0  0  0  0  0  0
   17.0020   -8.0090   10.1660 C   0  0  0  0  0  0  0  0  0  0  0  0
   18.1820   -8.2670    9.4800 C   0  0  0  0  0  0  0  0  0  0  0  0
   18.1610   -8.6310    8.1330 C   0  0  0  0  0  0  0  0  0  0  0  0
   16.9140   -8.7360    7.4870 C   0  0  0  0  0  0  0  0  0  0  0  0
   16.5940   -9.0720    6.1790 N   0  0  0  0  0  0  0  0  0  0  0  0
   15.2450   -9.0310    6.0250 C   0  0  0  0  0  0  0  0  0  0  0  0
   14.3910   -9.3370    4.7590 C   0  0  0  0  0  0  0  0  0  0  0  0
   12.3330   -8.1110    8.2270 C   0  0  0  0  0  0  0  0  0  0  0  0
   12.6200   -7.7140    9.3370 O   0  0  0  0  0  0  0  0  0  0  0  0
   11.0460   -8.2150    7.7420 N   0  0  0  0  0  0  0  0  0  0  0  0
   11.0130   -8.5380    6.3570 C   0  0  2  0  0  0  0  0  0  0  0  0
   10.2480   -9.7060    6.2410 O   0  0  0  0  0  0  0  0  0  0  0  0
   17.8586  -12.5041    6.6298 H   0  0  0  0  0  0  0  0  0  0  0  0
   18.2329  -14.2461    6.4016 H   0  0  0  0  0  0  0  0  0  0  0  0
   19.5594  -13.0349    6.4016 H   0  0  0  0  0  0  0  0  0  0  0  0
   19.2580  -13.3150    4.1790 H   0  0  0  0  0  0  0  0  0  0  0  0
   17.6790  -13.7470    4.3080 H   0  0  0  0  0  0  0  0  0  0  0  0
   18.6061  -11.3745    3.2620 H   0  0  0  0  0  0  0  0  0  0  0  0
   17.9443  -11.1793    6.2378 H   0  0  0  0  0  0  0  0  0  0  0  0
   19.3723  -10.5124    5.3268 H   0  0  0  0  0  0  0  0  0  0  0  0
   18.3787   -8.6206    5.2898 H   0  0  0  0  0  0  0  0  0  0  0  0
   17.6514   -9.7187    1.7127 H   0  0  0  0  0  0  0  0  0  0  0  0
   16.4872  -11.0172    1.2821 H   0  0  0  0  0  0  0  0  0  0  0  0
   15.9583   -9.3005    1.2821 H   0  0  0  0  0  0  0  0  0  0  0  0
   16.2242  -12.2627    2.8982 H   0  0  0  0  0  0  0  0  0  0  0  0
   14.3545  -13.3395    5.6309 H   0  0  0  0  0  0  0  0  0  0  0  0
   13.9931  -12.4716    4.1003 H   0  0  0  0  0  0  0  0  0  0  0  0
   15.1429  -13.8517    4.1003 H   0  0  0  0  0  0  0  0  0  0  0  0
   14.3534  -10.6749    0.7848 H   0  0  0  0  0  0  0  0  0  0  0  0
   12.0536  -10.7714   -0.1759 H   0  0  0  0  0  0  0  0  0  0  0  0
   10.0858  -10.1302    1.1823 H   0  0  0  0  0  0  0  0  0  0  0  0
   10.3845   -9.3668    3.5358 H   0  0  0  0  0  0  0  0  0  0  0  0
   14.8405   -7.8960   10.0702 H   0  0  0  0  0  0  0  0  0  0  0  0
   17.0391   -7.7269   11.2286 H   0  0  0  0  0  0  0  0  0  0  0  0
   19.1450   -8.1833   10.0051 H   0  0  0  0  0  0  0  0  0  0  0  0
   19.0959   -8.8311    7.5889 H   0  0  0  0  0  0  0  0  0  0  0  0
   10.3020   -7.7420    8.2360 H   0  0  0  0  0  0  0  0  0  0  0  0
   10.5803   -7.7666    5.7030 H   0  0  0  0  0  0  0  0  0  0  0  0
   10.9010  -10.4230    6.2950 H   0  0  0  0  0  0  0  0  0  0  0  0
  1  2  1  0
  2  3  1  0
  3  4  1  0
  4  5  1  0
  5  6  1  0
  6  7  1  0
  7  8  1  6
  7  9  1  0
  9 10  1  0
 10 11  1  0
  7 12  1  0
 12 13  1  0
 13 14  2  0
 14 15  1  0
 15 16  2  0
 16 17  1  0
 17 18  2  0
 18 19  1  0
 19 20  2  0
 20 21  1  0
 21 22  2  0
 22 23  1  0
 23 24  2  0
 24 25  1  0
 25 26  2  0
 26 27  1  0
 27 28  2  0
 28 29  1  0
 29 30  1  0
 30 31  2  0
 21 32  1  0
 32 33  2  0
 32 34  1  0
 34 35  1  0
 35 36  1  0
  9  3  1  0
 31 12  1  0
 29  5  1  0
 18 13  1  0
 31 19  1  0
 35 20  1  0
 30 22  1  0
 28 23  1  0
  1 37  1  0
  1 38  1  0
  1 39  1  0
  2 40  1  0
  2 41  1  0
  3 42  1  6
  4 43  1  0
  4 44  1  0
  5 45  1  1
  8 46  1  0
  8 47  1  0
  8 48  1  0
  9 49  1  6
 11 50  1  0
 11 51  1  0
 11 52  1  0
 14 53  1  0
 15 54  1  0
 16 55  1  0
 17 56  1  0
 24 57  1  0
 25 58  1  0
 26 59  1  0
 27 60  1  0
 34 61  1  0
 35 62  1  6
 36 63  1  0
M  CHG  1   2   1
M  END
>  <meeko>  (3) 
{"is_sidechain": [false], "free_energy": -6.372, "intermolecular_energy": -7.331, "internal_energy": -0.163}

$$$$
1nvq_ligand
     RDKit          3D

 63 70  0  0  0  0  0  0  0  0999 V2000
   18.2480   -5.5180    1.6850 C   0  0  0  0  0  0  0  0  0  0  0  0
   17.0680   -6.4170    1.6190 N   0  0  0  0  0  0  0  0  0  0  0  0
   17.1410   -7.7000    2.4440 C   0  0  2  0  0  0  0  0  0  0  0  0
   15.9920   -8.5850    1.9640 C   0  0  0  0  0  0  0  0  0  0  0  0
   15.6380   -9.6860    2.9640 C   0  0  1  0  0  0  0  0  0  0  0  0
   16.6160   -9.8490    3.9810 O   0  0  0  0  0  0  0  0  0  0  0  0
   17.0310   -8.6960    4.7510 C   0  0  1  0  0  0  0  0  0  0  0  0
   18.5140   -9.0640    4.9880 C   0  0  0  0  0  0  0  0  0  0  0  0
   16.9830   -7.3530    3.9350 C   0  0  2  0  0  0  0  0  0  0  0  0
   15.7440   -6.6140    3.9750 O   0  0  0  0  0  0  0  0  0  0  0  0
   15.8100   -5.4020    4.7260 C   0  0  0  0  0  0  0  0  0  0  0  0
   16.2290   -8.6470    5.9790 N   0  0  0  0  0  0  0  0  0  0  0  0
   16.6040   -8.2570    7.2650 C   0  0  0  0  0  0  0  0  0  0  0  0
   17.8390   -7.9030    7.8440 C   0  0  0  0  0  0  0  0  0  0  0  0
   17.8880   -7.5350    9.1930 C   0  0  0  0  0  0  0  0  0  0  0  0
   16.7390   -7.5020    9.9670 C   0  0  0  0  0  0  0  0  0  0  0  0
   15.5100   -7.8410    9.4040 C   0  0  0  0  0  0  0  0  0  0  0  0
   15.4290   -8.2250    8.0470 C   0  0  0  0  0  0  0  0  0  0  0  0
   14.3380   -8.5900    7.2140 C   0  0  0  0  0  0  0  0  0  0  0  0
   12.9460   -8.7200    7.3460 C   0  0  0  0  0  0  0  0  0  0  0  0
   12.1190   -9.0910    6.2440 C   0  0  0  0  0  0  0  0  0  0  0  0
   12.5790   -9.3720    4.9490 C   0  0  0  0  0  0  0  0  0  0  0  0
   12.0530   -9.7480    3.6760 C   0  0  0  0  0  0  0  0  0  0  0  0
   10.7550   -9.9910    3.1770 C   0  0  0  0  0  0  0  0  0  0  0  0
   10.5740  -10.3710    1.8440 C   0  0  0  0  0  0  0  0  0  0  0  0
   11.6640  -10.5160    0.9960 C   0  0  0  0  0  0  0  0  0  0  0  0
   12.9620  -10.2820    1.4540 C   0  0  0  0  0  0  0  0  0  0  0  0
   13.1380   -9.8900    2.7950 C   0  0  0  0  0  0  0  0  0  0  0  0
   14.2890   -9.5960    3.5120 N   0  0  0  0  0  0  0  0  0  0  0  0
   13.9510   -9.2720    4.7870 C   0  0  0  0  0  0  0  0  0  0  0  0
   14.8720   -8.8520    5.9710 C   0  0  0  0  0  0  0  0  0  0  0  0
   10.7390   -9.1380    6.7450 C   0  0  0  0  0  0  0  0  0  0  0  0
    9.7460   -9.5000    6.1490 O   0  0  0  0  0  0  0  0  0  0  0  0
   10.7530   -8.7220    8.0600 N   0  0  0  0  0  0  0  0  0  0  0  0
   12.0740   -8.5280    8.5520 C   0  0  2  0  0  0  0  0  0  0  0  0
   12.1320   -7.2070    9.0180 O   0  0  0  0  0  0  0  0  0  0  0  0
   18.5027   -5.3239    2.7374 H   0  0  0  0  0  0  0  0  0  0  0  0
   19.1020   -5.9965    1.1833 H   0  0  0  0  0  0  0  0  0  0  0  0
   18.0134   -4.5676    1.1833 H   0  0  0  0  0  0  0  0  0  0  0  0
   16.2280   -5.9100    1.9540 H   0  0  0  0  0  0  0  0  0  0  0  0
   16.8770   -6.6360    0.6320 H   0  0  0  0  0  0  0  0  0  0  0  0
   18.1034   -8.2186    2.3220 H   0  0  0  0  0  0  0  0  0  0  0  0
   15.1046   -7.9546    1.8059 H   0  0  0  0  0  0  0  0  0  0  0  0
   16.3152   -9.0732    1.0328 H   0  0  0  0  0  0  0  0  0  0  0  0
   15.6443  -10.6057    2.3606 H   0  0  0  0  0  0  0  0  0  0  0  0
   18.7114   -9.1130    6.0690 H   0  0  0  0  0  0  0  0  0  0  0  0
   18.7265  -10.0421    4.5318 H   0  0  0  0  0  0  0  0  0  0  0  0
   19.1591   -8.2987    4.5318 H   0  0  0  0  0  0  0  0  0  0  0  0
   17.7705   -6.7367    4.3933 H   0  0  0  0  0  0  0  0  0  0  0  0
   15.7973   -5.6355    5.8009 H   0  0  0  0  0  0  0  0  0  0  0  0
   16.7386   -4.8671    4.4780 H   0  0  0  0  0  0  0  0  0  0  0  0
   14.9450   -4.7694    4.4780 H   0  0  0  0  0  0  0  0  0  0  0  0
   18.7580   -7.9159    7.2397 H   0  0  0  0  0  0  0  0  0  0  0  0
   18.8539   -7.2676    9.6464 H   0  0  0  0  0  0  0  0  0  0  0  0
   16.7970   -7.2083   11.0255 H   0  0  0  0  0  0  0  0  0  0  0  0
   14.5987   -7.8094   10.0193 H   0  0  0  0  0  0  0  0  0  0  0  0
    9.8835   -9.8810    3.8391 H   0  0  0  0  0  0  0  0  0  0  0  0
    9.5588  -10.5569    1.4633 H   0  0  0  0  0  0  0  0  0  0  0  0
   11.5029  -10.8189   -0.0491 H   0  0  0  0  0  0  0  0  0  0  0  0
   13.8260  -10.4009    0.7837 H   0  0  0  0  0  0  0  0  0  0  0  0
    9.9500   -8.9220    8.6400 H   0  0  0  0  0  0  0  0  0  0  0  0
   12.3785   -9.2029    9.3655 H   0  0  0  0  0  0  0  0  0  0  0  0
   12.4690   -6.7030    8.2590 H   0  0  0  0  0  0  0  0  0  0  0  0
  1  2  1  0
  2  3  1  0
  3  4  1  0
  4  5  1  0
  5  6  1  0
  6  7  1  0
  7  8  1  1
  7  9  1  0
  9 10  1  0
 10 11  1  0
  7 12  1  0
 12 13  1  0
 13 14  2  0
 14 15  1  0
 15 16  2  0
 16 17  1  0
 17 18  2  0
 18 19  1  0
 19 20  2  0
 20 21  1  0
 21 22  2  0
 22 23  1  0
 23 24  2  0
 24 25  1  0
 25 26  2  0
 26 27  1  0
 27 28  2  0
 28 29  1  0
 29 30  1  0
 30 31  2  0
 21 32  1  0
 32 33  2  0
 32 34  1  0
 34 35  1  0
 35 36  1  0
  9  3  1  0
 31 12  1  0
 29  5  1  0
 18 13  1  0
 31 19  1  0
 35 20  1  0
 30 22  1  0
 28 23  1  0
  1 37  1  0
  1 38  1  0
  1 39  1  0
  2 40  1  0
  2 41  1  0
  3 42  1  1
  4 43  1  0
  4 44  1  0
  5 45  1  6
  8 46  1  0
  8 47  1  0
  8 48  1  0
  9 49  1  1
 11 50  1  0
 11 51  1  0
 11 52  1  0
 14 53  1  0
 15 54  1  0
 16 55  1  0
 17 56  1  0
 24 57  1  0
 25 58  1  0
 26 59  1  0
 27 60  1  0
 34 61  1  0
 35 62  1  1
 36 63  1  0
M  CHG  1   2   1
M  END
>  <meeko>  (4) 
{"is_sidechain": [false], "free_energy": -6.094, "intermolecular_energy": -6.818, "internal_energy": -0.357}

$$$$
1nvq_ligand
     RDKit          3D

 63 70  0  0  0  0  0  0  0  0999 V2000
   10.0150   -8.1980    8.4990 C   0  0  0  0  0  0  0  0  0  0  0  0
   10.4440   -9.2100    7.5010 N   0  0  0  0  0  0  0  0  0  0  0  0
   11.8670   -9.7460    7.6420 C   0  0  2  0  0  0  0  0  0  0  0  0
   12.5580   -8.8610    8.6780 C   0  0  0  0  0  0  0  0  0  0  0  0
   14.0830   -8.9570    8.6130 C   0  0  1  0  0  0  0  0  0  0  0  0
   14.5380  -10.0460    7.8230 O   0  0  0  0  0  0  0  0  0  0  0  0
   14.0470  -10.1870    6.4690 C   0  0  1  0  0  0  0  0  0  0  0  0
   14.0220  -11.7290    6.3620 C   0  0  0  0  0  0  0  0  0  0  0  0
   12.5780   -9.6580    6.2810 C   0  0  2  0  0  0  0  0  0  0  0  0
   12.4320   -8.2690    5.9170 O   0  0  0  0  0  0  0  0  0  0  0  0
   12.0810   -8.0570    4.5490 C   0  0  0  0  0  0  0  0  0  0  0  0
   15.0050   -9.5460    5.5610 N   0  0  0  0  0  0  0  0  0  0  0  0
   15.4020   -9.9290    4.2790 C   0  0  0  0  0  0  0  0  0  0  0  0
   15.1340  -11.0630    3.4850 C   0  0  0  0  0  0  0  0  0  0  0  0
   15.6810  -11.1500    2.2010 C   0  0  0  0  0  0  0  0  0  0  0  0
   16.4740  -10.1350    1.6910 C   0  0  0  0  0  0  0  0  0  0  0  0
   16.7390   -9.0040    2.4630 C   0  0  0  0  0  0  0  0  0  0  0  0
   16.2080   -8.8910    3.7670 C   0  0  0  0  0  0  0  0  0  0  0  0
   16.2860   -7.8690    4.7510 C   0  0  0  0  0  0  0  0  0  0  0  0
   16.8740   -6.6000    4.8670 C   0  0  0  0  0  0  0  0  0  0  0  0
   16.7120   -5.8010    6.0390 C   0  0  0  0  0  0  0  0  0  0  0  0
   15.9820   -6.1780    7.1760 C   0  0  0  0  0  0  0  0  0  0  0  0
   15.6280   -5.6480    8.4540 C   0  0  0  0  0  0  0  0  0  0  0  0
   15.8840   -4.4320    9.1240 C   0  0  0  0  0  0  0  0  0  0  0  0
   15.3940   -4.2240   10.4160 C   0  0  0  0  0  0  0  0  0  0  0  0
   14.6550   -5.2090   11.0580 C   0  0  0  0  0  0  0  0  0  0  0  0
   14.3810   -6.4230   10.4260 C   0  0  0  0  0  0  0  0  0  0  0  0
   14.8680   -6.6240    9.1210 C   0  0  0  0  0  0  0  0  0  0  0  0
   14.7540   -7.7100    8.2650 N   0  0  0  0  0  0  0  0  0  0  0  0
   15.4020   -7.4340    7.1040 C   0  0  0  0  0  0  0  0  0  0  0  0
   15.5530   -8.3160    5.8290 C   0  0  0  0  0  0  0  0  0  0  0  0
   17.4630   -4.5600    5.8150 C   0  0  0  0  0  0  0  0  0  0  0  0
   17.6540   -3.6570    6.6020 O   0  0  0  0  0  0  0  0  0  0  0  0
   17.9650   -4.5970    4.5300 N   0  0  0  0  0  0  0  0  0  0  0  0
   17.7350   -5.8480    3.8940 C   0  0  2  0  0  0  0  0  0  0  0  0
   17.0400   -5.5680    2.7100 O   0  0  0  0  0  0  0  0  0  0  0  0
   10.1811   -8.5899    9.5133 H   0  0  0  0  0  0  0  0  0  0  0  0
   10.5999   -7.2766    8.3616 H   0  0  0  0  0  0  0  0  0  0  0  0
    8.9461   -7.9777    8.3616 H   0  0  0  0  0  0  0  0  0  0  0  0
    9.8210  -10.0370    7.5570 H   0  0  0  0  0  0  0  0  0  0  0  0
   10.2990   -8.8230    6.5580 H   0  0  0  0  0  0  0  0  0  0  0  0
   11.8854  -10.7986    7.9608 H   0  0  0  0  0  0  0  0  0  0  0  0
   12.2633   -7.8161    8.5010 H   0  0  0  0  0  0  0  0  0  0  0  0
   12.2453   -9.2087    9.6736 H   0  0  0  0  0  0  0  0  0  0  0  0
   14.3818   -9.1655    9.6509 H   0  0  0  0  0  0  0  0  0  0  0  0
   14.0149  -12.1665    7.3712 H   0  0  0  0  0  0  0  0  0  0  0  0
   13.1186  -12.0443    5.8193 H   0  0  0  0  0  0  0  0  0  0  0  0
   14.9147  -12.0734    5.8193 H   0  0  0  0  0  0  0  0  0  0  0  0
   12.1756  -10.2754    5.4644 H   0  0  0  0  0  0  0  0  0  0  0  0
   11.1405   -7.4890    4.4956 H   0  0  0  0  0  0  0  0  0  0  0  0
   12.8804   -7.4906    4.0489 H   0  0  0  0  0  0  0  0  0  0  0  0
   11.9517   -9.0282    4.0489 H   0  0  0  0  0  0  0  0  0  0  0  0
   14.4992  -11.8734    3.8728 H   0  0  0  0  0  0  0  0  0  0  0  0
   15.4783  -12.0390    1.5858 H   0  0  0  0  0  0  0  0  0  0  0  0
   16.8943  -10.2210    0.6781 H   0  0  0  0  0  0  0  0  0  0  0  0
   17.3643   -8.1964    2.0545 H   0  0  0  0  0  0  0  0  0  0  0  0
   16.4712   -3.6456    8.6273 H   0  0  0  0  0  0  0  0  0  0  0  0
   15.5954   -3.2719   10.9289 H   0  0  0  0  0  0  0  0  0  0  0  0
   14.2810   -5.0303   12.0769 H   0  0  0  0  0  0  0  0  0  0  0  0
   13.7982   -7.2042   10.9359 H   0  0  0  0  0  0  0  0  0  0  0  0
   18.7060   -3.9560    4.2810 H   0  0  0  0  0  0  0  0  0  0  0  0
   18.6385   -6.4238    3.6448 H   0  0  0  0  0  0  0  0  0  0  0  0
   16.1090   -5.7210    2.9400 H   0  0  0  0  0  0  0  0  0  0  0  0
  1  2  1  0
  2  3  1  0
  3  4  1  0
  4  5  1  0
  5  6  1  0
  6  7  1  0
  7  8  1  6
  7  9  1  0
  9 10  1  0
 10 11  1  0
  7 12  1  0
 12 13  1  0
 13 14  2  0
 14 15  1  0
 15 16  2  0
 16 17  1  0
 17 18  2  0
 18 19  1  0
 19 20  2  0
 20 21  1  0
 21 22  2  0
 22 23  1  0
 23 24  2  0
 24 25  1  0
 25 26  2  0
 26 27  1  0
 27 28  2  0
 28 29  1  0
 29 30  1  0
 30 31  2  0
 21 32  1  0
 32 33  2  0
 32 34  1  0
 34 35  1  0
 35 36  1  0
  9  3  1  0
 31 12  1  0
 29  5  1  0
 18 13  1  0
 31 19  1  0
 35 20  1  0
 30 22  1  0
 28 23  1  0
  1 37  1  0
  1 38  1  0
  1 39  1  0
  2 40  1  0
  2 41  1  0
  3 42  1  1
  4 43  1  0
  4 44  1  0
  5 45  1  1
  8 46  1  0
  8 47  1  0
  8 48  1  0
  9 49  1  6
 11 50  1  0
 11 51  1  0
 11 52  1  0
 14 53  1  0
 15 54  1  0
 16 55  1  0
 17 56  1  0
 24 57  1  0
 25 58  1  0
 26 59  1  0
 27 60  1  0
 34 61  1  0
 35 62  1  6
 36 63  1  0
M  CHG  1   2   1
M  END
>  <meeko>  (5) 
{"is_sidechain": [false], "free_energy": -5.697, "intermolecular_energy": -6.365, "internal_energy": -0.356}

$$$$
1nvq_ligand
     RDKit          3D

 63 70  0  0  0  0  0  0  0  0999 V2000
    4.0230   -9.1390    1.8670 C   0  0  0  0  0  0  0  0  0  0  0  0
    5.0400   -8.8660    2.9140 N   0  0  0  0  0  0  0  0  0  0  0  0
    5.1000   -9.8510    4.0800 C   0  0  2  0  0  0  0  0  0  0  0  0
    3.9070  -10.7900    3.9090 C   0  0  0  0  0  0  0  0  0  0  0  0
    3.5520  -11.5320    5.1980 C   0  0  1  0  0  0  0  0  0  0  0  0
    4.5590  -11.4290    6.1940 O   0  0  0  0  0  0  0  0  0  0  0  0
    5.0380  -10.1190    6.5790 C   0  0  1  0  0  0  0  0  0  0  0  0
    6.5150  -10.4610    6.8800 C   0  0  0  0  0  0  0  0  0  0  0  0
    5.0060   -9.0740    5.4040 C   0  0  2  0  0  0  0  0  0  0  0  0
    3.7930   -8.3060    5.2540 O   0  0  0  0  0  0  0  0  0  0  0  0
    3.6830   -7.2060    6.1560 C   0  0  0  0  0  0  0  0  0  0  0  0
    4.2800   -9.6770    7.7560 N   0  0  0  0  0  0  0  0  0  0  0  0
    4.7120   -8.9410    8.8610 C   0  0  0  0  0  0  0  0  0  0  0  0
    5.9780   -8.4840    9.2800 C   0  0  0  0  0  0  0  0  0  0  0  0
    6.0850   -7.7370   10.4590 C   0  0  0  0  0  0  0  0  0  0  0  0
    4.9660   -7.4300   11.2150 C   0  0  0  0  0  0  0  0  0  0  0  0
    3.7070   -7.8690   10.8060 C   0  0  0  0  0  0  0  0  0  0  0  0
    3.5670   -8.6330    9.6250 C   0  0  0  0  0  0  0  0  0  0  0  0
    2.4360   -9.1810    8.9640 C   0  0  0  0  0  0  0  0  0  0  0  0
    1.0460   -9.2080    9.1610 C   0  0  0  0  0  0  0  0  0  0  0  0
    0.1700   -9.8530    8.2380 C   0  0  0  0  0  0  0  0  0  0  0  0
    0.5760  -10.5210    7.0730 C   0  0  0  0  0  0  0  0  0  0  0  0
   -0.0060  -11.2330    5.9800 C   0  0  0  0  0  0  0  0  0  0  0  0
   -1.3280  -11.5590    5.6060 C   0  0  0  0  0  0  0  0  0  0  0  0
   -1.5670  -12.3070    4.4490 C   0  0  0  0  0  0  0  0  0  0  0  0
   -0.5120  -12.7400    3.6570 C   0  0  0  0  0  0  0  0  0  0  0  0
    0.8070  -12.4350    3.9950 C   0  0  0  0  0  0  0  0  0  0  0  0
    1.0430  -11.6740    5.1550 C   0  0  0  0  0  0  0  0  0  0  0  0
    2.2270  -11.2290    5.7260 N   0  0  0  0  0  0  0  0  0  0  0  0
    1.9440  -10.5300    6.8560 C   0  0  0  0  0  0  0  0  0  0  0  0
    2.9180   -9.8190    7.8410 C   0  0  0  0  0  0  0  0  0  0  0  0
   -1.1930   -9.6940    8.7620 C   0  0  0  0  0  0  0  0  0  0  0  0
   -2.2170  -10.1730    8.3220 O   0  0  0  0  0  0  0  0  0  0  0  0
   -1.1190   -8.9100    9.8950 N   0  0  0  0  0  0  0  0  0  0  0  0
    0.2230   -8.6340   10.2760 C   0  0  2  0  0  0  0  0  0  0  0  0
    0.3410   -7.2380   10.3290 O   0  0  0  0  0  0  0  0  0  0  0  0
    3.0656   -9.3960    2.3439 H   0  0  0  0  0  0  0  0  0  0  0  0
    3.8921   -8.2442    1.2408 H   0  0  0  0  0  0  0  0  0  0  0  0
    4.3578   -9.9791    1.2408 H   0  0  0  0  0  0  0  0  0  0  0  0
    5.9850   -8.8710    2.4870 H   0  0  0  0  0  0  0  0  0  0  0  0
    4.9040   -7.9070    3.2620 H   0  0  0  0  0  0  0  0  0  0  0  0
    6.0400  -10.4221    4.0954 H   0  0  0  0  0  0  0  0  0  0  0  0
    3.0357  -10.1982    3.5920 H   0  0  0  0  0  0  0  0  0  0  0  0
    4.1819  -11.5435    3.1562 H   0  0  0  0  0  0  0  0  0  0  0  0
    3.5070  -12.5882    4.8938 H   0  0  0  0  0  0  0  0  0  0  0  0
    6.6686  -10.4966    7.9686 H   0  0  0  0  0  0  0  0  0  0  0  0
    6.7612  -11.4399    6.4428 H   0  0  0  0  0  0  0  0  0  0  0  0
    7.1664   -9.6899    6.4428 H   0  0  0  0  0  0  0  0  0  0  0  0
    5.8286   -8.3829    5.6400 H   0  0  0  0  0  0  0  0  0  0  0  0
    3.7200   -7.5757    7.1914 H   0  0  0  0  0  0  0  0  0  0  0  0
    4.5158   -6.5077    5.9860 H   0  0  0  0  0  0  0  0  0  0  0  0
    2.7284   -6.6865    5.9860 H   0  0  0  0  0  0  0  0  0  0  0  0
    6.8747   -8.7126    8.6852 H   0  0  0  0  0  0  0  0  0  0  0  0
    7.0741   -7.3881   10.7904 H   0  0  0  0  0  0  0  0  0  0  0  0
    5.0702   -6.8402   12.1376 H   0  0  0  0  0  0  0  0  0  0  0  0
    2.8189   -7.6196   11.4052 H   0  0  0  0  0  0  0  0  0  0  0  0
   -2.1721  -11.2236    6.2265 H   0  0  0  0  0  0  0  0  0  0  0  0
   -2.6001  -12.5546    4.1637 H   0  0  0  0  0  0  0  0  0  0  0  0
   -0.7185  -13.3306    2.7522 H   0  0  0  0  0  0  0  0  0  0  0  0
    1.6428  -12.7813    3.3693 H   0  0  0  0  0  0  0  0  0  0  0  0
   -1.9080   -8.8970   10.5270 H   0  0  0  0  0  0  0  0  0  0  0  0
    0.5326   -9.0513   11.2455 H   0  0  0  0  0  0  0  0  0  0  0  0
    0.3140   -7.0340   11.2780 H   0  0  0  0  0  0  0  0  0  0  0  0
  1  2  1  0
  2  3  1  0
  3  4  1  0
  4  5  1  0
  5  6  1  0
  6  7  1  0
  7  8  1  1
  7  9  1  0
  9 10  1  0
 10 11  1  0
  7 12  1  0
 12 13  1  0
 13 14  2  0
 14 15  1  0
 15 16  2  0
 16 17  1  0
 17 18  2  0
 18 19  1  0
 19 20  2  0
 20 21  1  0
 21 22  2  0
 22 23  1  0
 23 24  2  0
 24 25  1  0
 25 26  2  0
 26 27  1  0
 27 28  2  0
 28 29  1  0
 29 30  1  0
 30 31  2  0
 21 32  1  0
 32 33  2  0
 32 34  1  0
 34 35  1  0
 35 36  1  0
  9  3  1  0
 31 12  1  0
 29  5  1  0
 18 13  1  0
 31 19  1  0
 35 20  1  0
 30 22  1  0
 28 23  1  0
  1 37  1  0
  1 38  1  0
  1 39  1  0
  2 40  1  0
  2 41  1  0
  3 42  1  1
  4 43  1  0
  4 44  1  0
  5 45  1  6
  8 46  1  0
  8 47  1  0
  8 48  1  0
  9 49  1  1
 11 50  1  0
 11 51  1  0
 11 52  1  0
 14 53  1  0
 15 54  1  0
 16 55  1  0
 17 56  1  0
 24 57  1  0
 25 58  1  0
 26 59  1  0
 27 60  1  0
 34 61  1  0
 35 62  1  1
 36 63  1  0
M  CHG  1   2   1
M  END
>  <meeko>  (6) 
{"is_sidechain": [false], "free_energy": -5.639, "intermolecular_energy": -7.086, "internal_energy": 0.432}

$$$$
1nvq_ligand
     RDKit          3D

 63 70  0  0  0  0  0  0  0  0999 V2000
    9.5470   -6.1110   10.1910 C   0  0  0  0  0  0  0  0  0  0  0  0
   10.8030   -6.6170    9.5810 N   0  0  0  0  0  0  0  0  0  0  0  0
   10.6520   -7.5450    8.3780 C   0  0  2  0  0  0  0  0  0  0  0  0
    9.7630   -8.7000    8.8370 C   0  0  0  0  0  0  0  0  0  0  0  0
    9.8760   -9.9270    7.9310 C   0  0  1  0  0  0  0  0  0  0  0  0
   10.5400   -9.6540    6.7060 O   0  0  0  0  0  0  0  0  0  0  0  0
   11.8460   -9.0300    6.7360 C   0  0  1  0  0  0  0  0  0  0  0  0
   11.7570   -8.1820    5.4470 C   0  0  0  0  0  0  0  0  0  0  0  0
   12.0410   -8.0530    7.9530 C   0  0  2  0  0  0  0  0  0  0  0  0
   12.5700   -8.6290    9.1670 O   0  0  0  0  0  0  0  0  0  0  0  0
   13.9170   -8.2530    9.4520 C   0  0  0  0  0  0  0  0  0  0  0  0
   12.8640  -10.0850    6.6820 N   0  0  0  0  0  0  0  0  0  0  0  0
   14.1030  -10.0870    6.0380 C   0  0  0  0  0  0  0  0  0  0  0  0
   14.7360   -9.1810    5.1640 C   0  0  0  0  0  0  0  0  0  0  0  0
   16.0200   -9.4670    4.6880 C   0  0  0  0  0  0  0  0  0  0  0  0
   16.6840  -10.6210    5.0700 C   0  0  0  0  0  0  0  0  0  0  0  0
   16.0710  -11.5210    5.9410 C   0  0  0  0  0  0  0  0  0  0  0  0
   14.7720  -11.2640    6.4330 C   0  0  0  0  0  0  0  0  0  0  0  0
   13.9280  -11.9700    7.3320 C   0  0  0  0  0  0  0  0  0  0  0  0
   13.9960  -13.1490    8.0900 C   0  0  0  0  0  0  0  0  0  0  0  0
   12.9280  -13.5530    8.9460 C   0  0  0  0  0  0  0  0  0  0  0  0
   11.7240  -12.8540    9.1190 C   0  0  0  0  0  0  0  0  0  0  0  0
   10.5100  -12.9650    9.8630 C   0  0  0  0  0  0  0  0  0  0  0  0
   10.0090  -13.8910   10.8020 C   0  0  0  0  0  0  0  0  0  0  0  0
    8.7350  -13.7190   11.3500 C   0  0  0  0  0  0  0  0  0  0  0  0
    7.9450  -12.6400   10.9760 C   0  0  0  0  0  0  0  0  0  0  0  0
    8.4090  -11.7030   10.0500 C   0  0  0  0  0  0  0  0  0  0  0  0
    9.6960  -11.8750    9.5090 C   0  0  0  0  0  0  0  0  0  0  0  0
   10.4040  -11.1180    8.5870 N   0  0  0  0  0  0  0  0  0  0  0  0
   11.6150  -11.6930    8.3710 C   0  0  0  0  0  0  0  0  0  0  0  0
   12.7740  -11.2240    7.4420 C   0  0  0  0  0  0  0  0  0  0  0  0
   13.3360  -14.8210    9.5650 C   0  0  0  0  0  0  0  0  0  0  0  0
   12.6760  -15.5400   10.2870 O   0  0  0  0  0  0  0  0  0  0  0  0
   14.6240  -15.0950    9.1550 N   0  0  0  0  0  0  0  0  0  0  0  0
   15.0880  -14.1750    8.1750 C   0  0  2  0  0  0  0  0  0  0  0  0
   16.2700  -13.6180    8.6830 O   0  0  0  0  0  0  0  0  0  0  0  0
    9.6320   -6.1453   11.2872 H   0  0  0  0  0  0  0  0  0  0  0  0
    9.3750   -5.0734    9.8688 H   0  0  0  0  0  0  0  0  0  0  0  0
    8.7037   -6.7396    9.8688 H   0  0  0  0  0  0  0  0  0  0  0  0
   11.3750   -5.8160    9.2530 H   0  0  0  0  0  0  0  0  0  0  0  0
   11.3650   -7.0690   10.3140 H   0  0  0  0  0  0  0  0  0  0  0  0
   10.2044   -7.0352    7.5121 H   0  0  0  0  0  0  0  0  0  0  0  0
   10.0578   -8.9873    9.8571 H   0  0  0  0  0  0  0  0  0  0  0  0
    8.7200   -8.3527    8.7979 H   0  0  0  0  0  0  0  0  0  0  0  0
    8.8328  -10.1727    7.6834 H   0  0  0  0  0  0  0  0  0  0  0  0
   11.6456   -7.1206    5.7134 H   0  0  0  0  0  0  0  0  0  0  0  0
   12.6743   -8.3172    4.8551 H   0  0  0  0  0  0  0  0  0  0  0  0
   10.8878   -8.5047    4.8551 H   0  0  0  0  0  0  0  0  0  0  0  0
   12.7568   -7.3051    7.5811 H   0  0  0  0  0  0  0  0  0  0  0  0
   14.0636   -8.2121   10.5414 H   0  0  0  0  0  0  0  0  0  0  0  0
   14.6043   -8.9936    9.0171 H   0  0  0  0  0  0  0  0  0  0  0  0
   14.1213   -7.2635    9.0171 H   0  0  0  0  0  0  0  0  0  0  0  0
   14.2247   -8.2563    4.8584 H   0  0  0  0  0  0  0  0  0  0  0  0
   16.5105   -8.7637    3.9989 H   0  0  0  0  0  0  0  0  0  0  0  0
   17.6941  -10.8273    4.6866 H   0  0  0  0  0  0  0  0  0  0  0  0
   16.6013  -12.4351    6.2463 H   0  0  0  0  0  0  0  0  0  0  0  0
   10.6236  -14.7518   11.1040 H   0  0  0  0  0  0  0  0  0  0  0  0
    8.3547  -14.4447   12.0840 H   0  0  0  0  0  0  0  0  0  0  0  0
    6.9428  -12.5219   11.4138 H   0  0  0  0  0  0  0  0  0  0  0  0
    7.7823  -10.8500    9.7506 H   0  0  0  0  0  0  0  0  0  0  0  0
   14.9800  -16.0340    9.2730 H   0  0  0  0  0  0  0  0  0  0  0  0
   15.2977  -14.6067    7.1852 H   0  0  0  0  0  0  0  0  0  0  0  0
   16.1420  -12.6600    8.5850 H   0  0  0  0  0  0  0  0  0  0  0  0
  1  2  1  0
  2  3  1  0
  3  4  1  0
  4  5  1  0
  5  6  1  0
  6  7  1  0
  7  8  1  6
  7  9  1  0
  9 10  1  0
 10 11  1  0
  7 12  1  0
 12 13  1  0
 13 14  2  0
 14 15  1  0
 15 16  2  0
 16 17  1  0
 17 18  2  0
 18 19  1  0
 19 20  2  0
 20 21  1  0
 21 22  2  0
 22 23  1  0
 23 24  2  0
 24 25  1  0
 25 26  2  0
 26 27  1  0
 27 28  2  0
 28 29  1  0
 29 30  1  0
 30 31  2  0
 21 32  1  0
 32 33  2  0
 32 34  1  0
 34 35  1  0
 35 36  1  0
  9  3  1  0
 31 12  1  0
 29  5  1  0
 18 13  1  0
 31 19  1  0
 35 20  1  0
 30 22  1  0
 28 23  1  0
  1 37  1  0
  1 38  1  0
  1 39  1  0
  2 40  1  0
  2 41  1  0
  3 42  1  6
  4 43  1  0
  4 44  1  0
  5 45  1  6
  8 46  1  0
  8 47  1  0
  8 48  1  0
  9 49  1  6
 11 50  1  0
 11 51  1  0
 11 52  1  0
 14 53  1  0
 15 54  1  0
 16 55  1  0
 17 56  1  0
 24 57  1  0
 25 58  1  0
 26 59  1  0
 27 60  1  0
 34 61  1  0
 35 62  1  6
 36 63  1  0
M  CHG  1   2   1
M  END
>  <meeko>  (7) 
{"is_sidechain": [false], "free_energy": -5.538, "intermolecular_energy": -6.224, "internal_energy": -0.314}

$$$$
1nvq_ligand
     RDKit          3D

 63 70  0  0  0  0  0  0  0  0999 V2000
   11.9700  -10.4620    1.4610 C   0  0  0  0  0  0  0  0  0  0  0  0
   12.4270  -10.8220    2.8270 N   0  0  0  0  0  0  0  0  0  0  0  0
   13.9140  -10.6320    3.1200 C   0  0  2  0  0  0  0  0  0  0  0  0
   14.2530  -11.5940    4.2580 C   0  0  0  0  0  0  0  0  0  0  0  0
   15.5530  -11.2250    4.9740 C   0  0  1  0  0  0  0  0  0  0  0  0
   16.3210  -10.2610    4.2700 O   0  0  0  0  0  0  0  0  0  0  0  0
   15.6960   -9.0210    3.8640 C   0  0  1  0  0  0  0  0  0  0  0  0
   16.4480   -8.7740    2.5360 C   0  0  0  0  0  0  0  0  0  0  0  0
   14.1650   -9.1730    3.5390 C   0  0  2  0  0  0  0  0  0  0  0  0
   13.2480   -8.9800    4.6370 O   0  0  0  0  0  0  0  0  0  0  0  0
   12.4240   -7.8210    4.5120 C   0  0  0  0  0  0  0  0  0  0  0  0
   15.9630   -8.0100    4.8930 N   0  0  0  0  0  0  0  0  0  0  0  0
   16.2130   -6.6440    4.7480 C   0  0  0  0  0  0  0  0  0  0  0  0
   16.4050   -5.8130    3.6260 C   0  0  0  0  0  0  0  0  0  0  0  0
   16.6270   -4.4440    3.8120 C   0  0  0  0  0  0  0  0  0  0  0  0
   16.6500   -3.8900    5.0810 C   0  0  0  0  0  0  0  0  0  0  0  0
   16.4530   -4.7000    6.1990 C   0  0  0  0  0  0  0  0  0  0  0  0
   16.2350   -6.0870    6.0440 C   0  0  0  0  0  0  0  0  0  0  0  0
   15.9840   -7.1310    6.9750 C   0  0  0  0  0  0  0  0  0  0  0  0
   15.8410   -7.2510    8.3660 C   0  0  0  0  0  0  0  0  0  0  0  0
   15.5470   -8.5030    8.9850 C   0  0  0  0  0  0  0  0  0  0  0  0
   15.3830   -9.7190    8.3050 C   0  0  0  0  0  0  0  0  0  0  0  0
   15.0910  -11.0870    8.5980 C   0  0  0  0  0  0  0  0  0  0  0  0
   14.8200  -11.8070    9.7810 C   0  0  0  0  0  0  0  0  0  0  0  0
   14.5850  -13.1840    9.7280 C   0  0  0  0  0  0  0  0  0  0  0  0
   14.6190  -13.8600    8.5160 C   0  0  0  0  0  0  0  0  0  0  0  0
   14.8830  -13.1800    7.3250 C   0  0  0  0  0  0  0  0  0  0  0  0
   15.1090  -11.7920    7.3830 C   0  0  0  0  0  0  0  0  0  0  0  0
   15.3900  -10.8750    6.3800 N   0  0  0  0  0  0  0  0  0  0  0  0
   15.5350   -9.6410    6.9310 C   0  0  0  0  0  0  0  0  0  0  0  0
   15.8400   -8.2830    6.2320 C   0  0  0  0  0  0  0  0  0  0  0  0
   15.4810   -8.2570   10.4310 C   0  0  0  0  0  0  0  0  0  0  0  0
   15.3430   -9.0760   11.3170 O   0  0  0  0  0  0  0  0  0  0  0  0
   15.6390   -6.9020   10.6360 N   0  0  0  0  0  0  0  0  0  0  0  0
   15.9570   -6.2070    9.4370 C   0  0  2  0  0  0  0  0  0  0  0  0
   14.9810   -5.2120    9.2860 O   0  0  0  0  0  0  0  0  0  0  0  0
   11.1076   -9.7827    1.5300 H   0  0  0  0  0  0  0  0  0  0  0  0
   12.7877   -9.9628    0.9205 H   0  0  0  0  0  0  0  0  0  0  0  0
   11.6761  -11.3738    0.9205 H   0  0  0  0  0  0  0  0  0  0  0  0
   11.9230  -10.2440    3.5240 H   0  0  0  0  0  0  0  0  0  0  0  0
   12.1440  -11.7920    3.0220 H   0  0  0  0  0  0  0  0  0  0  0  0
   14.5413  -10.8392    2.2405 H   0  0  0  0  0  0  0  0  0  0  0  0
   13.4314  -11.5778    4.9893 H   0  0  0  0  0  0  0  0  0  0  0  0
   14.3870  -12.5939    3.8195 H   0  0  0  0  0  0  0  0  0  0  0  0
   16.1331  -12.1596    4.9738 H   0  0  0  0  0  0  0  0  0  0  0  0
   17.4727   -8.4374    2.7520 H   0  0  0  0  0  0  0  0  0  0  0  0
   16.4834   -9.7077    1.9555 H   0  0  0  0  0  0  0  0  0  0  0  0
   15.9229   -8.0011    1.9555 H   0  0  0  0  0  0  0  0  0  0  0  0
   13.9750   -8.3946    2.7854 H   0  0  0  0  0  0  0  0  0  0  0  0
   12.1597   -7.4493    5.5130 H   0  0  0  0  0  0  0  0  0  0  0  0
   12.9707   -7.0399    3.9633 H   0  0  0  0  0  0  0  0  0  0  0  0
   11.5067   -8.0807    3.9633 H   0  0  0  0  0  0  0  0  0  0  0  0
   16.3805   -6.2375    2.6115 H   0  0  0  0  0  0  0  0  0  0  0  0
   16.7858   -3.7976    2.9363 H   0  0  0  0  0  0  0  0  0  0  0  0
   16.8236   -2.8111    5.2071 H   0  0  0  0  0  0  0  0  0  0  0  0
   16.4674   -4.2570    7.2057 H   0  0  0  0  0  0  0  0  0  0  0  0
   14.7936  -11.2831   10.7479 H   0  0  0  0  0  0  0  0  0  0  0  0
   14.3713  -13.7367   10.6547 H   0  0  0  0  0  0  0  0  0  0  0  0
   14.4358  -14.9444    8.4934 H   0  0  0  0  0  0  0  0  0  0  0  0
   14.9136  -13.7162    6.3650 H   0  0  0  0  0  0  0  0  0  0  0  0
   15.8690   -6.5770   11.5650 H   0  0  0  0  0  0  0  0  0  0  0  0
   16.9499   -5.7340    9.4155 H   0  0  0  0  0  0  0  0  0  0  0  0
   15.4020   -4.5530    8.7090 H   0  0  0  0  0  0  0  0  0  0  0  0
  1  2  1  0
  2  3  1  0
  3  4  1  0
  4  5  1  0
  5  6  1  0
  6  7  1  0
  7  8  1  6
  7  9  1  0
  9 10  1  0
 10 11  1  0
  7 12  1  0
 12 13  1  0
 13 14  2  0
 14 15  1  0
 15 16  2  0
 16 17  1  0
 17 18  2  0
 18 19  1  0
 19 20  2  0
 20 21  1  0
 21 22  2  0
 22 23  1  0
 23 24  2  0
 24 25  1  0
 25 26  2  0
 26 27  1  0
 27 28  2  0
 28 29  1  0
 29 30  1  0
 30 31  2  0
 21 32  1  0
 32 33  2  0
 32 34  1  0
 34 35  1  0
 35 36  1  0
  9  3  1  0
 31 12  1  0
 29  5  1  0
 18 13  1  0
 31 19  1  0
 35 20  1  0
 30 22  1  0
 28 23  1  0
  1 37  1  0
  1 38  1  0
  1 39  1  0
  2 40  1  0
  2 41  1  0
  3 42  1  6
  4 43  1  0
  4 44  1  0
  5 45  1  1
  8 46  1  0
  8 47  1  0
  8 48  1  0
  9 49  1  6
 11 50  1  0
 11 51  1  0
 11 52  1  0
 14 53  1  0
 15 54  1  0
 16 55  1  0
 17 56  1  0
 24 57  1  0
 25 58  1  0
 26 59  1  0
 27 60  1  0
 34 61  1  0
 35 62  1  1
 36 63  1  0
M  CHG  1   2   1
M  END
>  <meeko>  (8) 
{"is_sidechain": [false], "free_energy": -5.452, "intermolecular_energy": -6.11, "internal_energy": -0.329}

$$$$
1nvq_ligand
     RDKit          3D

 63 70  0  0  0  0  0  0  0  0999 V2000
    5.4390   -5.3020   11.3630 C   0  0  0  0  0  0  0  0  0  0  0  0
    4.0270   -5.7640   11.3370 N   0  0  0  0  0  0  0  0  0  0  0  0
    3.8040   -7.2740   11.3630 C   0  0  2  0  0  0  0  0  0  0  0  0
    5.1730   -7.9140   11.1390 C   0  0  0  0  0  0  0  0  0  0  0  0
    5.0750   -9.3720   10.6880 C   0  0  1  0  0  0  0  0  0  0  0  0
    3.7740   -9.9180   10.8490 O   0  0  0  0  0  0  0  0  0  0  0  0
    2.6420   -9.2210   10.2760 C   0  0  1  0  0  0  0  0  0  0  0  0
    1.5680   -9.5580   11.3360 C   0  0  0  0  0  0  0  0  0  0  0  0
    2.8250   -7.6600   10.2410 C   0  0  2  0  0  0  0  0  0  0  0  0
    3.4380   -7.1060    9.0580 O   0  0  0  0  0  0  0  0  0  0  0  0
    2.5080   -6.6390    8.0810 C   0  0  0  0  0  0  0  0  0  0  0  0
    2.3680   -9.7930    8.9530 N   0  0  0  0  0  0  0  0  0  0  0  0
    1.1440  -10.0130    8.3200 C   0  0  0  0  0  0  0  0  0  0  0  0
   -0.1950   -9.8830    8.7390 C   0  0  0  0  0  0  0  0  0  0  0  0
   -1.2300  -10.1720    7.8420 C   0  0  0  0  0  0  0  0  0  0  0  0
   -0.9590  -10.5730    6.5440 C   0  0  0  0  0  0  0  0  0  0  0  0
    0.3620  -10.6960    6.1150 C   0  0  0  0  0  0  0  0  0  0  0  0
    1.4280  -10.4200    6.9990 C   0  0  0  0  0  0  0  0  0  0  0  0
    2.8390  -10.4350    6.8370 C   0  0  0  0  0  0  0  0  0  0  0  0
    3.7500  -10.7020    5.8030 C   0  0  0  0  0  0  0  0  0  0  0  0
    5.1590  -10.5810    5.9940 C   0  0  0  0  0  0  0  0  0  0  0  0
    5.7810  -10.2050    7.1950 C   0  0  0  0  0  0  0  0  0  0  0  0
    7.0970   -9.9890    7.7050 C   0  0  0  0  0  0  0  0  0  0  0  0
    8.3940  -10.0620    7.1540 C   0  0  0  0  0  0  0  0  0  0  0  0
    9.5130   -9.8000    7.9500 C   0  0  0  0  0  0  0  0  0  0  0  0
    9.3640   -9.4680    9.2900 C   0  0  0  0  0  0  0  0  0  0  0  0
    8.0960   -9.3850    9.8690 C   0  0  0  0  0  0  0  0  0  0  0  0
    6.9720   -9.6400    9.0610 C   0  0  0  0  0  0  0  0  0  0  0  0
    5.6180   -9.6320    9.3590 N   0  0  0  0  0  0  0  0  0  0  0  0
    4.9120   -9.9510    8.2430 C   0  0  0  0  0  0  0  0  0  0  0  0
    3.3700  -10.0610    8.0540 C   0  0  0  0  0  0  0  0  0  0  0  0
    5.7940  -10.9430    4.7200 C   0  0  0  0  0  0  0  0  0  0  0  0
    6.9800  -11.0560    4.4880 O   0  0  0  0  0  0  0  0  0  0  0  0
    4.7920  -11.1760    3.8010 N   0  0  0  0  0  0  0  0  0  0  0  0
    3.4980  -11.1420    4.3910 C   0  0  2  0  0  0  0  0  0  0  0  0
    2.7640  -10.1810    3.6820 O   0  0  0  0  0  0  0  0  0  0  0  0
    5.7702   -5.1936   12.4063 H   0  0  0  0  0  0  0  0  0  0  0  0
    6.0754   -6.0388   10.8509 H   0  0  0  0  0  0  0  0  0  0  0  0
    5.5168   -4.3316   10.8509 H   0  0  0  0  0  0  0  0  0  0  0  0
    3.5260   -5.3870   12.1630 H   0  0  0  0  0  0  0  0  0  0  0  0
    3.5600   -5.3460   10.5210 H   0  0  0  0  0  0  0  0  0  0  0  0
    3.3713   -7.6145   12.3153 H   0  0  0  0  0  0  0  0  0  0  0  0
    5.7071   -7.3416   10.3663 H   0  0  0  0  0  0  0  0  0  0  0  0
    5.7089   -7.8981   12.0995 H   0  0  0  0  0  0  0  0  0  0  0  0
    5.7372   -9.9111   11.3815 H   0  0  0  0  0  0  0  0  0  0  0  0
    1.9917   -9.4251   12.3424 H   0  0  0  0  0  0  0  0  0  0  0  0
    0.7052   -8.8874   11.2099 H   0  0  0  0  0  0  0  0  0  0  0  0
    1.2430  -10.6013   11.2099 H   0  0  0  0  0  0  0  0  0  0  0  0
    1.7987   -7.2710   10.3151 H   0  0  0  0  0  0  0  0  0  0  0  0
    1.6348   -6.2005    8.5861 H   0  0  0  0  0  0  0  0  0  0  0  0
    2.9893   -5.8757    7.4520 H   0  0  0  0  0  0  0  0  0  0  0  0
    2.1832   -7.4809    7.4520 H   0  0  0  0  0  0  0  0  0  0  0  0
   -0.4254   -9.5567    9.7639 H   0  0  0  0  0  0  0  0  0  0  0  0
   -2.2749  -10.0792    8.1730 H   0  0  0  0  0  0  0  0  0  0  0  0
   -1.7852  -10.7942    5.8523 H   0  0  0  0  0  0  0  0  0  0  0  0
    0.5749  -11.0097    5.0824 H   0  0  0  0  0  0  0  0  0  0  0  0
    8.5251  -10.3260    6.0942 H   0  0  0  0  0  0  0  0  0  0  0  0
   10.5200   -9.8573    7.5111 H   0  0  0  0  0  0  0  0  0  0  0  0
   10.2554   -9.2680    9.9027 H   0  0  0  0  0  0  0  0  0  0  0  0
    7.9783   -9.1264   10.9317 H   0  0  0  0  0  0  0  0  0  0  0  0
    5.0200  -11.6720    2.9510 H   0  0  0  0  0  0  0  0  0  0  0  0
    2.9461  -12.0933    4.3705 H   0  0  0  0  0  0  0  0  0  0  0  0
    2.5900   -9.4850    4.3370 H   0  0  0  0  0  0  0  0  0  0  0  0
  1  2  1  0
  2  3  1  0
  3  4  1  0
  4  5  1  0
  5  6  1  0
  6  7  1  0
  7  8  1  1
  7  9  1  0
  9 10  1  0
 10 11  1  0
  7 12  1  0
 12 13  1  0
 13 14  2  0
 14 15  1  0
 15 16  2  0
 16 17  1  0
 17 18  2  0
 18 19  1  0
 19 20  2  0
 20 21  1  0
 21 22  2  0
 22 23  1  0
 23 24  2  0
 24 25  1  0
 25 26  2  0
 26 27  1  0
 27 28  2  0
 28 29  1  0
 29 30  1  0
 30 31  2  0
 21 32  1  0
 32 33  2  0
 32 34  1  0
 34 35  1  0
 35 36  1  0
  9  3  1  0
 31 12  1  0
 29  5  1  0
 18 13  1  0
 31 19  1  0
 35 20  1  0
 30 22  1  0
 28 23  1  0
  1 37  1  0
  1 38  1  0
  1 39  1  0
  2 40  1  0
  2 41  1  0
  3 42  1  1
  4 43  1  0
  4 44  1  0
  5 45  1  1
  8 46  1  0
  8 47  1  0
  8 48  1  0
  9 49  1  1
 11 50  1  0
 11 51  1  0
 11 52  1  0
 14 53  1  0
 15 54  1  0
 16 55  1  0
 17 56  1  0
 24 57  1  0
 25 58  1  0
 26 59  1  0
 27 60  1  0
 34 61  1  0
 35 62  1  1
 36 63  1  0
M  CHG  1   2   1
M  END
>  <meeko>  (9) 
{"is_sidechain": [false], "free_energy": -5.417, "intermolecular_energy": -6.177, "internal_energy": -0.222}

$$$$
