4mgd_ligand
     RDKit          3D

 30 31  0  0  0  0  0  0  0  0999 V2000
   14.9640   12.7290    6.8500 O   0  0  0  0  0  0  0  0  0  0  0  0
   13.7580   13.1270    6.3560 C   0  0  0  0  0  0  0  0  0  0  0  0
   12.5830   12.4640    6.6870 C   0  0  0  0  0  0  0  0  0  0  0  0
   11.3690   12.9070    6.1560 C   0  0  0  0  0  0  0  0  0  0  0  0
   11.3200   14.0200    5.2960 C   0  0  0  0  0  0  0  0  0  0  0  0
    9.9700   14.4930    4.7310 C   0  0  0  0  0  0  0  0  0  0  0  0
    9.2370   15.3930    5.7430 C   0  0  0  0  0  0  0  0  0  0  0  0
    7.8420   15.4340    5.8910 C   0  0  0  0  0  0  0  0  0  0  0  0
    7.2470   16.2650    6.8450 C   0  0  0  0  0  0  0  0  0  0  0  0
    8.0360   17.0560    7.6670 C   0  0  0  0  0  0  0  0  0  0  0  0
    7.4080   17.8460    8.5820 O   0  0  0  0  0  0  0  0  0  0  0  0
    9.4190   17.0300    7.5560 C   0  0  0  0  0  0  0  0  0  0  0  0
   10.0130   16.2020    6.6020 C   0  0  0  0  0  0  0  0  0  0  0  0
    9.1610   13.3700    3.9840 C   0  0  0  0  0  0  0  0  0  0  0  0
    8.1130   12.3620    5.0410 Cl  0  0  0  0  0  0  0  0  0  0  0  0
    8.1270   14.0680    2.6720 Cl  0  0  0  0  0  0  0  0  0  0  0  0
   10.2940   12.2250    3.1380 Cl  0  0  0  0  0  0  0  0  0  0  0  0
   12.5240   14.6680    4.9740 C   0  0  0  0  0  0  0  0  0  0  0  0
   13.7380   14.2220    5.5040 C   0  0  0  0  0  0  0  0  0  0  0  0
   14.8450   11.8860    7.3180 H   0  0  0  0  0  0  0  0  0  0  0  0
   12.6082   11.5962    7.3625 H   0  0  0  0  0  0  0  0  0  0  0  0
   10.4391   12.3788    6.4135 H   0  0  0  0  0  0  0  0  0  0  0  0
   10.1442   15.1691    3.8810 H   0  0  0  0  0  0  0  0  0  0  0  0
    7.2089   14.8045    5.2484 H   0  0  0  0  0  0  0  0  0  0  0  0
    6.1518   16.2915    6.9438 H   0  0  0  0  0  0  0  0  0  0  0  0
    7.9410   18.6470    8.7180 H   0  0  0  0  0  0  0  0  0  0  0  0
   10.0409   17.6556    8.2132 H   0  0  0  0  0  0  0  0  0  0  0  0
   11.1095   16.1791    6.5174 H   0  0  0  0  0  0  0  0  0  0  0  0
   12.5113   15.5355    4.2977 H   0  0  0  0  0  0  0  0  0  0  0  0
   14.6749   14.7376    5.2464 H   0  0  0  0  0  0  0  0  0  0  0  0
  1  2  1  0
  2  3  2  0
  3  4  1  0
  4  5  2  0
  5  6  1  0
  6  7  1  0
  7  8  2  0
  8  9  1  0
  9 10  2  0
 10 11  1  0
 10 12  1  0
 12 13  2  0
  6 14  1  0
 14 15  1  0
 14 16  1  0
 14 17  1  0
  5 18  1  0
 18 19  2  0
 19  2  1  0
 13  7  1  0
  1 20  1  0
  3 21  1  0
  4 22  1  0
  6 23  1  0
  8 24  1  0
  9 25  1  0
 11 26  1  0
 12 27  1  0
 13 28  1  0
 18 29  1  0
 19 30  1  0
M  END
>  <meeko>  (1) 
{"is_sidechain": [false], "free_energy": -7.83, "intermolecular_energy": -9.661, "internal_energy": -0.563}

$$$$
4mgd_ligand
     RDKit          3D

 30 31  0  0  0  0  0  0  0  0999 V2000
    7.3740   17.9210    8.3280 O   0  0  0  0  0  0  0  0  0  0  0  0
    7.9260   16.9160    7.5910 C   0  0  0  0  0  0  0  0  0  0  0  0
    7.1370   16.0330    6.8640 C   0  0  0  0  0  0  0  0  0  0  0  0
    7.7450   15.0160    6.1230 C   0  0  0  0  0  0  0  0  0  0  0  0
    9.1460   14.8800    6.0980 C   0  0  0  0  0  0  0  0  0  0  0  0
    9.7930   13.7570    5.2680 C   0  0  0  0  0  0  0  0  0  0  0  0
   11.2210   13.4610    5.7640 C   0  0  0  0  0  0  0  0  0  0  0  0
   11.5730   12.3270    6.5110 C   0  0  0  0  0  0  0  0  0  0  0  0
   12.8950   12.1150    6.9120 C   0  0  0  0  0  0  0  0  0  0  0  0
   13.8810   13.0270    6.5640 C   0  0  0  0  0  0  0  0  0  0  0  0
   15.1550   12.7750    6.9770 O   0  0  0  0  0  0  0  0  0  0  0  0
   13.5700   14.1520    5.8150 C   0  0  0  0  0  0  0  0  0  0  0  0
   12.2480   14.3640    5.4150 C   0  0  0  0  0  0  0  0  0  0  0  0
    9.5310   13.8740    3.7220 C   0  0  0  0  0  0  0  0  0  0  0  0
    7.8030   13.7650    3.2370 Cl  0  0  0  0  0  0  0  0  0  0  0  0
   10.2030   15.4180    3.0570 Cl  0  0  0  0  0  0  0  0  0  0  0  0
   10.4020   12.5510    2.8270 Cl  0  0  0  0  0  0  0  0  0  0  0  0
    9.9180   15.7830    6.8470 C   0  0  0  0  0  0  0  0  0  0  0  0
    9.3080   16.7970    7.5900 C   0  0  0  0  0  0  0  0  0  0  0  0
    8.0690   18.3240    8.8730 H   0  0  0  0  0  0  0  0  0  0  0  0
    6.0417   16.1338    6.8717 H   0  0  0  0  0  0  0  0  0  0  0  0
    7.1209   14.3128    5.5520 H   0  0  0  0  0  0  0  0  0  0  0  0
    9.2666   12.8097    5.4567 H   0  0  0  0  0  0  0  0  0  0  0  0
   10.7986   11.5953    6.7847 H   0  0  0  0  0  0  0  0  0  0  0  0
   13.1539   11.2246    7.5038 H   0  0  0  0  0  0  0  0  0  0  0  0
   15.3540   13.3470    7.7360 H   0  0  0  0  0  0  0  0  0  0  0  0
   14.3560   14.8702    5.5386 H   0  0  0  0  0  0  0  0  0  0  0  0
   12.0027   15.2532    4.8157 H   0  0  0  0  0  0  0  0  0  0  0  0
   11.0141   15.6910    6.8487 H   0  0  0  0  0  0  0  0  0  0  0  0
    9.9222   17.4992    8.1727 H   0  0  0  0  0  0  0  0  0  0  0  0
  1  2  1  0
  2  3  2  0
  3  4  1  0
  4  5  2  0
  5  6  1  0
  6  7  1  0
  7  8  2  0
  8  9  1  0
  9 10  2  0
 10 11  1  0
 10 12  1  0
 12 13  2  0
  6 14  1  0
 14 15  1  0
 14 16  1  0
 14 17  1  0
  5 18  1  0
 18 19  2  0
 19  2  1  0
 13  7  1  0
  1 20  1  0
  3 21  1  0
  4 22  1  0
  6 23  1  0
  8 24  1  0
  9 25  1  0
 11 26  1  0
 12 27  1  0
 13 28  1  0
 18 29  1  0
 19 30  1  0
M  END
>  <meeko>  (2) 
{"is_sidechain": [false], "free_energy": -7.675, "intermolecular_energy": -9.657, "internal_energy": -0.376}

$$$$
4mgd_ligand
     RDKit          3D

 30 31  0  0  0  0  0  0  0  0999 V2000
    7.3850   17.7580    8.3000 O   0  0  0  0  0  0  0  0  0  0  0  0
    7.9690   16.7850    7.5450 C   0  0  0  0  0  0  0  0  0  0  0  0
    7.2140   15.8010    6.9200 C   0  0  0  0  0  0  0  0  0  0  0  0
    7.8560   14.8220    6.1570 C   0  0  0  0  0  0  0  0  0  0  0  0
    9.2560   14.8240    6.0080 C   0  0  0  0  0  0  0  0  0  0  0  0
    9.9370   13.7400    5.1560 C   0  0  0  0  0  0  0  0  0  0  0  0
   11.3490   13.4310    5.6890 C   0  0  0  0  0  0  0  0  0  0  0  0
   11.6610   12.3200    6.4880 C   0  0  0  0  0  0  0  0  0  0  0  0
   12.9710   12.0940    6.9210 C   0  0  0  0  0  0  0  0  0  0  0  0
   13.9840   12.9670    6.5540 C   0  0  0  0  0  0  0  0  0  0  0  0
   15.2440   12.7010    6.9990 O   0  0  0  0  0  0  0  0  0  0  0  0
   13.7130   14.0680    5.7540 C   0  0  0  0  0  0  0  0  0  0  0  0
   12.4040   14.2940    5.3230 C   0  0  0  0  0  0  0  0  0  0  0  0
    9.7290   13.9190    3.6070 C   0  0  0  0  0  0  0  0  0  0  0  0
   10.3170   15.4820    2.9410 Cl  0  0  0  0  0  0  0  0  0  0  0  0
   10.5200   12.5810    2.6790 Cl  0  0  0  0  0  0  0  0  0  0  0  0
    7.9620   13.8120    3.1860 Cl  0  0  0  0  0  0  0  0  0  0  0  0
    9.9940   15.8280    6.6560 C   0  0  0  0  0  0  0  0  0  0  0  0
    9.3520   16.8040    7.4210 C   0  0  0  0  0  0  0  0  0  0  0  0
    7.2180   17.4050    9.1880 H   0  0  0  0  0  0  0  0  0  0  0  0
    6.1190   15.7924    7.0248 H   0  0  0  0  0  0  0  0  0  0  0  0
    7.2594   14.0391    5.6661 H   0  0  0  0  0  0  0  0  0  0  0  0
    9.4089   12.7840    5.2869 H   0  0  0  0  0  0  0  0  0  0  0  0
   10.8648   11.6183    6.7771 H   0  0  0  0  0  0  0  0  0  0  0  0
   13.1983   11.2230    7.5533 H   0  0  0  0  0  0  0  0  0  0  0  0
   15.8720   13.2460    6.4970 H   0  0  0  0  0  0  0  0  0  0  0  0
   14.5207   14.7555    5.4624 H   0  0  0  0  0  0  0  0  0  0  0  0
   12.1906   15.1637    4.6842 H   0  0  0  0  0  0  0  0  0  0  0  0
   11.0896   15.8457    6.5599 H   0  0  0  0  0  0  0  0  0  0  0  0
    9.9401   17.5857    7.9240 H   0  0  0  0  0  0  0  0  0  0  0  0
  1  2  1  0
  2  3  2  0
  3  4  1  0
  4  5  2  0
  5  6  1  0
  6  7  1  0
  7  8  2  0
  8  9  1  0
  9 10  2  0
 10 11  1  0
 10 12  1  0
 12 13  2  0
  6 14  1  0
 14 15  1  0
 14 16  1  0
 14 17  1  0
  5 18  1  0
 18 19  2  0
 19  2  1  0
 13  7  1  0
  1 20  1  0
  3 21  1  0
  4 22  1  0
  6 23  1  0
  8 24  1  0
  9 25  1  0
 11 26  1  0
 12 27  1  0
 13 28  1  0
 18 29  1  0
 19 30  1  0
M  END
>  <meeko>  (3) 
{"is_sidechain": [false], "free_energy": -7.624, "intermolecular_energy": -9.486, "internal_energy": -0.484}

$$$$
4mgd_ligand
     RDKit          3D

 30 31  0  0  0  0  0  0  0  0999 V2000
   15.1400   12.5840    7.2100 O   0  0  0  0  0  0  0  0  0  0  0  0
   14.0770   13.0180    6.4760 C   0  0  0  0  0  0  0  0  0  0  0  0
   12.8560   12.3560    6.5060 C   0  0  0  0  0  0  0  0  0  0  0  0
   11.7940   12.8360    5.7360 C   0  0  0  0  0  0  0  0  0  0  0  0
   11.9420   13.9840    4.9350 C   0  0  0  0  0  0  0  0  0  0  0  0
   10.7550   14.4970    4.1020 C   0  0  0  0  0  0  0  0  0  0  0  0
    9.5130   14.7040    4.9880 C   0  0  0  0  0  0  0  0  0  0  0  0
    8.2840   14.0590    4.7800 C   0  0  0  0  0  0  0  0  0  0  0  0
    7.2030   14.2830    5.6380 C   0  0  0  0  0  0  0  0  0  0  0  0
    7.3380   15.1440    6.7160 C   0  0  0  0  0  0  0  0  0  0  0  0
    6.2560   15.3270    7.5240 O   0  0  0  0  0  0  0  0  0  0  0  0
    8.5430   15.7880    6.9590 C   0  0  0  0  0  0  0  0  0  0  0  0
    9.6220   15.5660    6.1010 C   0  0  0  0  0  0  0  0  0  0  0  0
   10.5900   13.7770    2.7130 C   0  0  0  0  0  0  0  0  0  0  0  0
   10.3250   12.0020    2.8090 Cl  0  0  0  0  0  0  0  0  0  0  0  0
    9.2300   14.4970    1.7590 Cl  0  0  0  0  0  0  0  0  0  0  0  0
   12.0740   14.0220    1.6890 Cl  0  0  0  0  0  0  0  0  0  0  0  0
   13.1900   14.6290    4.9190 C   0  0  0  0  0  0  0  0  0  0  0  0
   14.2520   14.1470    5.6880 C   0  0  0  0  0  0  0  0  0  0  0  0
   15.7800   13.3100    7.2900 H   0  0  0  0  0  0  0  0  0  0  0  0
   12.7265   11.4605    7.1315 H   0  0  0  0  0  0  0  0  0  0  0  0
   10.8284   12.3095    5.7559 H   0  0  0  0  0  0  0  0  0  0  0  0
   10.9714   15.5129    3.7399 H   0  0  0  0  0  0  0  0  0  0  0  0
    8.1698   13.3686    3.9313 H   0  0  0  0  0  0  0  0  0  0  0  0
    6.2440   13.7753    5.4573 H   0  0  0  0  0  0  0  0  0  0  0  0
    5.9900   16.2610    7.4800 H   0  0  0  0  0  0  0  0  0  0  0  0
    8.6471   16.4664    7.8187 H   0  0  0  0  0  0  0  0  0  0  0  0
   10.5780   16.0738    6.2965 H   0  0  0  0  0  0  0  0  0  0  0  0
   13.3324   15.5231    4.2943 H   0  0  0  0  0  0  0  0  0  0  0  0
   15.2244   14.6609    5.6690 H   0  0  0  0  0  0  0  0  0  0  0  0
  1  2  1  0
  2  3  2  0
  3  4  1  0
  4  5  2  0
  5  6  1  0
  6  7  1  0
  7  8  2  0
  8  9  1  0
  9 10  2  0
 10 11  1  0
 10 12  1  0
 12 13  2  0
  6 14  1  0
 14 15  1  0
 14 16  1  0
 14 17  1  0
  5 18  1  0
 18 19  2  0
 19  2  1  0
 13  7  1  0
  1 20  1  0
  3 21  1  0
  4 22  1  0
  6 23  1  0
  8 24  1  0
  9 25  1  0
 11 26  1  0
 12 27  1  0
 13 28  1  0
 18 29  1  0
 19 30  1  0
M  END
>  <meeko>  (4) 
{"is_sidechain": [false], "free_energy": -7.517, "intermolecular_energy": -9.11, "internal_energy": -0.728}

$$$$
4mgd_ligand
     RDKit          3D

 30 31  0  0  0  0  0  0  0  0999 V2000
    8.9250   15.3520   -1.1760 O   0  0  0  0  0  0  0  0  0  0  0  0
    9.2800   14.8520    0.0410 C   0  0  0  0  0  0  0  0  0  0  0  0
   10.2680   13.8850    0.1680 C   0  0  0  0  0  0  0  0  0  0  0  0
   10.5990   13.4000    1.4350 C   0  0  0  0  0  0  0  0  0  0  0  0
    9.9480   13.8830    2.5860 C   0  0  0  0  0  0  0  0  0  0  0  0
   10.3350   13.3380    3.9720 C   0  0  0  0  0  0  0  0  0  0  0  0
    9.8750   14.2970    5.0860 C   0  0  0  0  0  0  0  0  0  0  0  0
    8.6850   14.1400    5.8140 C   0  0  0  0  0  0  0  0  0  0  0  0
    8.3400   15.0420    6.8250 C   0  0  0  0  0  0  0  0  0  0  0  0
    9.1810   16.1020    7.1270 C   0  0  0  0  0  0  0  0  0  0  0  0
    8.8010   16.9520    8.1220 O   0  0  0  0  0  0  0  0  0  0  0  0
   10.3710   16.2790    6.4360 C   0  0  0  0  0  0  0  0  0  0  0  0
   10.7150   15.3800    5.4240 C   0  0  0  0  0  0  0  0  0  0  0  0
   11.7850   12.7330    4.0380 C   0  0  0  0  0  0  0  0  0  0  0  0
   13.0830   13.8080    3.4130 Cl  0  0  0  0  0  0  0  0  0  0  0  0
   12.2210   12.2540    5.7290 Cl  0  0  0  0  0  0  0  0  0  0  0  0
   11.8780   11.1950    3.0690 Cl  0  0  0  0  0  0  0  0  0  0  0  0
    8.9480   14.8560    2.4280 C   0  0  0  0  0  0  0  0  0  0  0  0
    8.6170   15.3390    1.1590 C   0  0  0  0  0  0  0  0  0  0  0  0
    8.1120   15.8730   -1.0740 H   0  0  0  0  0  0  0  0  0  0  0  0
   10.7868   13.5033   -0.7237 H   0  0  0  0  0  0  0  0  0  0  0  0
   11.3786   12.6305    1.5350 H   0  0  0  0  0  0  0  0  0  0  0  0
    9.7606   12.4235    4.1812 H   0  0  0  0  0  0  0  0  0  0  0  0
    8.0159   13.2971    5.5863 H   0  0  0  0  0  0  0  0  0  0  0  0
    7.4003   14.9105    7.3814 H   0  0  0  0  0  0  0  0  0  0  0  0
    8.1660   16.4930    8.6970 H   0  0  0  0  0  0  0  0  0  0  0  0
   11.0369   17.1190    6.6827 H   0  0  0  0  0  0  0  0  0  0  0  0
   11.6603   15.5188    4.8789 H   0  0  0  0  0  0  0  0  0  0  0  0
    8.4197   15.2421    3.3122 H   0  0  0  0  0  0  0  0  0  0  0  0
    7.8334   16.1028    1.0465 H   0  0  0  0  0  0  0  0  0  0  0  0
  1  2  1  0
  2  3  2  0
  3  4  1  0
  4  5  2  0
  5  6  1  0
  6  7  1  0
  7  8  2  0
  8  9  1  0
  9 10  2  0
 10 11  1  0
 10 12  1  0
 12 13  2  0
  6 14  1  0
 14 15  1  0
 14 16  1  0
 14 17  1  0
  5 18  1  0
 18 19  2  0
 19  2  1  0
 13  7  1  0
  1 20  1  0
  3 21  1  0
  4 22  1  0
  6 23  1  0
  8 24  1  0
  9 25  1  0
 11 26  1  0
 12 27  1  0
 13 28  1  0
 18 29  1  0
 19 30  1  0
M  END
>  <meeko>  (5) 
{"is_sidechain": [false], "free_energy": -6.682, "intermolecular_energy": -8.463, "internal_energy": -0.345}

$$$$
4mgd_ligand
     RDKit          3D

 30 31  0  0  0  0  0  0  0  0999 V2000
   10.1590   16.5570    8.5110 O   0  0  0  0  0  0  0  0  0  0  0  0
   10.0630   15.8490    7.3500 C   0  0  0  0  0  0  0  0  0  0  0  0
   10.6610   16.2940    6.1780 C   0  0  0  0  0  0  0  0  0  0  0  0
   10.5360   15.5360    5.0110 C   0  0  0  0  0  0  0  0  0  0  0  0
    9.8160   14.3260    5.0090 C   0  0  0  0  0  0  0  0  0  0  0  0
    9.6990   13.5060    3.7120 C   0  0  0  0  0  0  0  0  0  0  0  0
   11.0780   13.3300    3.0490 C   0  0  0  0  0  0  0  0  0  0  0  0
   12.0810   14.3110    3.0500 C   0  0  0  0  0  0  0  0  0  0  0  0
   13.3170   14.0740    2.4410 C   0  0  0  0  0  0  0  0  0  0  0  0
   13.5690   12.8520    1.8340 C   0  0  0  0  0  0  0  0  0  0  0  0
   14.7890   12.6690    1.2560 O   0  0  0  0  0  0  0  0  0  0  0  0
   12.6040   11.8550    1.8260 C   0  0  0  0  0  0  0  0  0  0  0  0
   11.3680   12.0930    2.4320 C   0  0  0  0  0  0  0  0  0  0  0  0
    8.4660   13.8980    2.8180 C   0  0  0  0  0  0  0  0  0  0  0  0
    8.1080   12.7510    1.4810 Cl  0  0  0  0  0  0  0  0  0  0  0  0
    6.9660   14.0850    3.8130 Cl  0  0  0  0  0  0  0  0  0  0  0  0
    8.7320   15.5240    2.0450 Cl  0  0  0  0  0  0  0  0  0  0  0  0
    9.2170   13.9040    6.2070 C   0  0  0  0  0  0  0  0  0  0  0  0
    9.3410   14.6640    7.3730 C   0  0  0  0  0  0  0  0  0  0  0  0
   10.0380   15.9490    9.2570 H   0  0  0  0  0  0  0  0  0  0  0  0
   11.2287   17.2361    6.1687 H   0  0  0  0  0  0  0  0  0  0  0  0
   11.0063   15.8892    4.0815 H   0  0  0  0  0  0  0  0  0  0  0  0
    9.4092   12.4727    3.9536 H   0  0  0  0  0  0  0  0  0  0  0  0
   11.8924   15.2794    3.5364 H   0  0  0  0  0  0  0  0  0  0  0  0
   14.0900   14.8566    2.4431 H   0  0  0  0  0  0  0  0  0  0  0  0
   14.9230   11.7180    1.1090 H   0  0  0  0  0  0  0  0  0  0  0  0
   12.8103   10.8865    1.3471 H   0  0  0  0  0  0  0  0  0  0  0  0
   10.6049   11.3007    2.4286 H   0  0  0  0  0  0  0  0  0  0  0  0
    8.6441   12.9652    6.2277 H   0  0  0  0  0  0  0  0  0  0  0  0
    8.8679   14.3241    8.3061 H   0  0  0  0  0  0  0  0  0  0  0  0
  1  2  1  0
  2  3  2  0
  3  4  1  0
  4  5  2  0
  5  6  1  0
  6  7  1  0
  7  8  2  0
  8  9  1  0
  9 10  2  0
 10 11  1  0
 10 12  1  0
 12 13  2  0
  6 14  1  0
 14 15  1  0
 14 16  1  0
 14 17  1  0
  5 18  1  0
 18 19  2  0
 19  2  1  0
 13  7  1  0
  1 20  1  0
  3 21  1  0
  4 22  1  0
  6 23  1  0
  8 24  1  0
  9 25  1  0
 11 26  1  0
 12 27  1  0
 13 28  1  0
 18 29  1  0
 19 30  1  0
M  END
>  <meeko>  (6) 
{"is_sidechain": [false], "free_energy": -6.394, "intermolecular_energy": -8.363, "internal_energy": -0.089}

$$$$
4mgd_ligand
     RDKit          3D

 30 31  0  0  0  0  0  0  0  0999 V2000
   10.9980   13.5290   -0.7130 O   0  0  0  0  0  0  0  0  0  0  0  0
   11.0000   13.3790    0.6410 C   0  0  0  0  0  0  0  0  0  0  0  0
   11.1170   12.1270    1.2320 C   0  0  0  0  0  0  0  0  0  0  0  0
   11.1130   12.0200    2.6250 C   0  0  0  0  0  0  0  0  0  0  0  0
   10.9990   13.1640    3.4380 C   0  0  0  0  0  0  0  0  0  0  0  0
   11.0050   13.0200    4.9690 C   0  0  0  0  0  0  0  0  0  0  0  0
    9.7400   13.6480    5.5840 C   0  0  0  0  0  0  0  0  0  0  0  0
    9.7250   14.3580    6.7950 C   0  0  0  0  0  0  0  0  0  0  0  0
    8.5410   14.9160    7.2840 C   0  0  0  0  0  0  0  0  0  0  0  0
    7.3610   14.7820    6.5660 C   0  0  0  0  0  0  0  0  0  0  0  0
    6.2340   15.3460    7.0830 O   0  0  0  0  0  0  0  0  0  0  0  0
    7.3430   14.0980    5.3590 C   0  0  0  0  0  0  0  0  0  0  0  0
    8.5260   13.5390    4.8710 C   0  0  0  0  0  0  0  0  0  0  0  0
   12.4010   13.3110    5.6330 C   0  0  0  0  0  0  0  0  0  0  0  0
   12.9220   12.1030    6.8580 Cl  0  0  0  0  0  0  0  0  0  0  0  0
   13.7060   13.4430    4.3850 Cl  0  0  0  0  0  0  0  0  0  0  0  0
   12.3820   14.9240    6.4750 Cl  0  0  0  0  0  0  0  0  0  0  0  0
   10.8760   14.4160    2.8130 C   0  0  0  0  0  0  0  0  0  0  0  0
   10.8780   14.5210    1.4200 C   0  0  0  0  0  0  0  0  0  0  0  0
   10.3600   14.2210   -0.9480 H   0  0  0  0  0  0  0  0  0  0  0  0
   11.2121   11.2264    0.6076 H   0  0  0  0  0  0  0  0  0  0  0  0
   11.2001   11.0284    3.0931 H   0  0  0  0  0  0  0  0  0  0  0  0
   10.9085   11.9579    5.2386 H   0  0  0  0  0  0  0  0  0  0  0  0
   10.6575   14.4766    7.3663 H   0  0  0  0  0  0  0  0  0  0  0  0
    8.5442   15.4620    8.2389 H   0  0  0  0  0  0  0  0  0  0  0  0
    5.4640   14.8410    6.7750 H   0  0  0  0  0  0  0  0  0  0  0  0
    6.4059   13.9970    4.7919 H   0  0  0  0  0  0  0  0  0  0  0  0
    8.5119   13.0024    3.9109 H   0  0  0  0  0  0  0  0  0  0  0  0
   10.7771   15.3233    3.4270 H   0  0  0  0  0  0  0  0  0  0  0  0
   10.7831   15.5069    0.9415 H   0  0  0  0  0  0  0  0  0  0  0  0
  1  2  1  0
  2  3  2  0
  3  4  1  0
  4  5  2  0
  5  6  1  0
  6  7  1  0
  7  8  2  0
  8  9  1  0
  9 10  2  0
 10 11  1  0
 10 12  1  0
 12 13  2  0
  6 14  1  0
 14 15  1  0
 14 16  1  0
 14 17  1  0
  5 18  1  0
 18 19  2  0
 19  2  1  0
 13  7  1  0
  1 20  1  0
  3 21  1  0
  4 22  1  0
  6 23  1  0
  8 24  1  0
  9 25  1  0
 11 26  1  0
 12 27  1  0
 13 28  1  0
 18 29  1  0
 19 30  1  0
M  END
>  <meeko>  (7) 
{"is_sidechain": [false], "free_energy": -6.224, "intermolecular_energy": -8.202, "internal_energy": -0.041}

$$$$
4mgd_ligand
     RDKit          3D

 30 31  0  0  0  0  0  0  0  0999 V2000
    6.6610   15.1200    7.8740 O   0  0  0  0  0  0  0  0  0  0  0  0
    7.6850   14.9530    6.9900 C   0  0  0  0  0  0  0  0  0  0  0  0
    8.8380   15.7240    7.0600 C   0  0  0  0  0  0  0  0  0  0  0  0
    9.8620   15.5190    6.1320 C   0  0  0  0  0  0  0  0  0  0  0  0
    9.7430   14.5370    5.1310 C   0  0  0  0  0  0  0  0  0  0  0  0
   10.8880   14.3240    4.1250 C   0  0  0  0  0  0  0  0  0  0  0  0
   10.3770   14.4550    2.6780 C   0  0  0  0  0  0  0  0  0  0  0  0
    9.1830   15.1010    2.3220 C   0  0  0  0  0  0  0  0  0  0  0  0
    8.7920   15.1960    0.9830 C   0  0  0  0  0  0  0  0  0  0  0  0
    9.5910   14.6570   -0.0150 C   0  0  0  0  0  0  0  0  0  0  0  0
    9.1670   14.7780   -1.3040 O   0  0  0  0  0  0  0  0  0  0  0  0
   10.7840   14.0240    0.3010 C   0  0  0  0  0  0  0  0  0  0  0  0
   11.1740   13.9270    1.6390 C   0  0  0  0  0  0  0  0  0  0  0  0
   11.8470   13.1330    4.4910 C   0  0  0  0  0  0  0  0  0  0  0  0
   11.7940   12.6210    6.2130 Cl  0  0  0  0  0  0  0  0  0  0  0  0
   11.5100   11.6800    3.4640 Cl  0  0  0  0  0  0  0  0  0  0  0  0
   13.5760   13.5760    4.1380 Cl  0  0  0  0  0  0  0  0  0  0  0  0
    8.5630   13.7750    5.0790 C   0  0  0  0  0  0  0  0  0  0  0  0
    7.5390   13.9840    6.0070 C   0  0  0  0  0  0  0  0  0  0  0  0
    5.8420   14.7940    7.4670 H   0  0  0  0  0  0  0  0  0  0  0  0
    8.9443   16.4912    7.8411 H   0  0  0  0  0  0  0  0  0  0  0  0
   10.7731   16.1331    6.1844 H   0  0  0  0  0  0  0  0  0  0  0  0
   11.6091   15.1506    4.2071 H   0  0  0  0  0  0  0  0  0  0  0  0
    8.5470   15.5379    3.1060 H   0  0  0  0  0  0  0  0  0  0  0  0
    7.8495   15.6988    0.7204 H   0  0  0  0  0  0  0  0  0  0  0  0
    8.2230   15.0090   -1.3000 H   0  0  0  0  0  0  0  0  0  0  0  0
   11.4168   13.6026   -0.4940 H   0  0  0  0  0  0  0  0  0  0  0  0
   12.1224   13.4286    1.8884 H   0  0  0  0  0  0  0  0  0  0  0  0
    8.4444   13.0069    4.3006 H   0  0  0  0  0  0  0  0  0  0  0  0
    6.6196   13.3820    5.9585 H   0  0  0  0  0  0  0  0  0  0  0  0
  1  2  1  0
  2  3  2  0
  3  4  1  0
  4  5  2  0
  5  6  1  0
  6  7  1  0
  7  8  2  0
  8  9  1  0
  9 10  2  0
 10 11  1  0
 10 12  1  0
 12 13  2  0
  6 14  1  0
 14 15  1  0
 14 16  1  0
 14 17  1  0
  5 18  1  0
 18 19  2  0
 19  2  1  0
 13  7  1  0
  1 20  1  0
  3 21  1  0
  4 22  1  0
  6 23  1  0
  8 24  1  0
  9 25  1  0
 11 26  1  0
 12 27  1  0
 13 28  1  0
 18 29  1  0
 19 30  1  0
M  END
>  <meeko>  (8) 
{"is_sidechain": [false], "free_energy": -5.948, "intermolecular_energy": -7.686, "internal_energy": -0.217}

$$$$
4mgd_ligand
     RDKit          3D

 30 31  0  0  0  0  0  0  0  0999 V2000
   15.3930   12.6530    6.9960 O   0  0  0  0  0  0  0  0  0  0  0  0
   14.1060   12.9000    6.6230 C   0  0  0  0  0  0  0  0  0  0  0  0
   13.0830   12.0060    6.9120 C   0  0  0  0  0  0  0  0  0  0  0  0
   11.7770   12.3000    6.5100 C   0  0  0  0  0  0  0  0  0  0  0  0
   11.4850   13.4920    5.8210 C   0  0  0  0  0  0  0  0  0  0  0  0
   10.0380   13.7970    5.3960 C   0  0  0  0  0  0  0  0  0  0  0  0
    9.9250   13.8860    3.8630 C   0  0  0  0  0  0  0  0  0  0  0  0
   10.5910   13.0270    2.9750 C   0  0  0  0  0  0  0  0  0  0  0  0
   10.4260   13.1570    1.5930 C   0  0  0  0  0  0  0  0  0  0  0  0
    9.5890   14.1380    1.0820 C   0  0  0  0  0  0  0  0  0  0  0  0
    9.4600   14.2230   -0.2720 O   0  0  0  0  0  0  0  0  0  0  0  0
    8.9050   14.9960    1.9320 C   0  0  0  0  0  0  0  0  0  0  0  0
    9.0710   14.8670    3.3130 C   0  0  0  0  0  0  0  0  0  0  0  0
    9.3290   14.8890    6.2780 C   0  0  0  0  0  0  0  0  0  0  0  0
    9.2120   14.4890    8.0270 Cl  0  0  0  0  0  0  0  0  0  0  0  0
   10.1520   16.4940    6.1240 Cl  0  0  0  0  0  0  0  0  0  0  0  0
    7.6270   15.1690    5.6990 Cl  0  0  0  0  0  0  0  0  0  0  0  0
   12.5400   14.3750    5.5380 C   0  0  0  0  0  0  0  0  0  0  0  0
   13.8450   14.0790    5.9390 C   0  0  0  0  0  0  0  0  0  0  0  0
   15.9380   12.5710    6.1970 H   0  0  0  0  0  0  0  0  0  0  0  0
   13.2991   11.0732    7.4534 H   0  0  0  0  0  0  0  0  0  0  0  0
   10.9670   11.5906    6.7350 H   0  0  0  0  0  0  0  0  0  0  0  0
    9.3939   12.9397    5.6414 H   0  0  0  0  0  0  0  0  0  0  0  0
   11.2511   12.2416    3.3716 H   0  0  0  0  0  0  0  0  0  0  0  0
   10.9606   12.4805    0.9099 H   0  0  0  0  0  0  0  0  0  0  0  0
    8.9640   15.0300   -0.4860 H   0  0  0  0  0  0  0  0  0  0  0  0
    8.2390   15.7697    1.5223 H   0  0  0  0  0  0  0  0  0  0  0  0
    8.5249   15.5440    3.9864 H   0  0  0  0  0  0  0  0  0  0  0  0
   12.3365   15.3096    4.9948 H   0  0  0  0  0  0  0  0  0  0  0  0
   14.6634   14.7784    5.7132 H   0  0  0  0  0  0  0  0  0  0  0  0
  1  2  1  0
  2  3  2  0
  3  4  1  0
  4  5  2  0
  5  6  1  0
  6  7  1  0
  7  8  2  0
  8  9  1  0
  9 10  2  0
 10 11  1  0
 10 12  1  0
 12 13  2  0
  6 14  1  0
 14 15  1  0
 14 16  1  0
 14 17  1  0
  5 18  1  0
 18 19  2  0
 19  2  1  0
 13  7  1  0
  1 20  1  0
  3 21  1  0
  4 22  1  0
  6 23  1  0
  8 24  1  0
  9 25  1  0
 11 26  1  0
 12 27  1  0
 13 28  1  0
 18 29  1  0
 19 30  1  0
M  END
>  <meeko>  (9) 
{"is_sidechain": [false], "free_energy": -5.89, "intermolecular_energy": -7.652, "internal_energy": -0.178}

$$$$
