
     RDKit          3D

 17 17  0  0  0  0  0  0  0  0999 V2000
    3.0370   -8.5590   -3.0040 C   0  0  0  0  0  0  0  0  0  0  0  0
    3.1330   -7.8560   -1.7720 O   0  0  0  0  0  0  0  0  0  0  0  0
    3.1410   -8.5270   -0.5920 C   0  0  0  0  0  0  0  0  0  0  0  0
    3.2660   -7.7830    0.5800 C   0  0  0  0  0  0  0  0  0  0  0  0
    3.3020   -8.4250    1.8150 C   0  0  0  0  0  0  0  0  0  0  0  0
    3.1900   -9.8020    1.8710 C   0  0  0  0  0  0  0  0  0  0  0  0
    3.2960  -10.6100    3.4070 S   0  0  1  0  0  0  0  0  0  0  0  0
    3.9650  -11.8780    3.2150 O   0  0  0  0  0  0  0  0  0  0  0  0
    3.9290   -9.7120    4.3670 O   0  0  0  0  0  0  0  0  0  0  0  0
    1.7600  -10.9560    3.9100 N   0  0  0  0  0  0  0  0  0  0  0  0
    0.9780   -9.8350    4.4450 C   0  0  2  0  0  0  0  0  0  0  0  0
    0.2070  -10.3110    5.6840 C   0  0  0  0  0  0  0  0  0  0  0  0
    0.0140   -9.3420    3.3920 C   0  0  0  0  0  0  0  0  0  0  0  0
   -0.2560   -8.1300    3.3340 O   0  0  0  0  0  0  0  0  0  0  0  0
   -0.5230  -10.1900    2.6430 O   0  0  0  0  0  0  0  0  0  0  0  0
    3.0490  -10.5460    0.7200 C   0  0  0  0  0  0  0  0  0  0  0  0
    3.0090   -9.9080   -0.5230 C   0  0  0  0  0  0  0  0  0  0  0  0
  2  1  1  0
  3  2  1  0
  4  3  2  0
  5  4  1  0
  6  5  2  0
  7  6  1  0
  8  7  2  0
  9  7  2  0
  7 10  1  1
 11 10  1  0
 11 12  1  1
 13 11  1  0
 14 13  2  0
 15 13  1  0
 16  6  1  0
 17 16  2  0
 17  3  1  0
M  CHG  1  15  -1
M  END
$$$$
