2w66_ligand
     RDKit          3D

 35 35  0  0  0  0  0  0  0  0999 V2000
  -14.4870    3.5410    4.4640 C   0  0  0  0  0  0  0  0  0  0  0  0
  -14.5430    2.6370    3.2650 C   0  0  0  0  0  0  0  0  0  0  0  0
  -14.8920    3.0160    2.1520 O   0  0  0  0  0  0  0  0  0  0  0  0
  -14.1290    1.3400    3.4940 N   0  0  0  0  0  0  0  0  0  0  0  0
  -14.0780    0.3440    2.3920 C   0  0  2  0  0  0  0  0  0  0  0  0
  -15.0310   -0.8200    2.7400 C   0  0  1  0  0  0  0  0  0  0  0  0
  -16.3800   -0.3270    2.6140 O   0  0  0  0  0  0  0  0  0  0  0  0
  -14.9860   -2.1210    1.9000 C   0  0  2  0  0  0  0  0  0  0  0  0
  -16.1800   -2.8810    2.1640 O   0  0  0  0  0  0  0  0  0  0  0  0
  -13.7750   -3.0570    2.0640 C   0  0  1  0  0  0  0  0  0  0  0  0
  -13.9020   -4.4110    1.3400 C   0  0  0  0  0  0  0  0  0  0  0  0
  -14.6680   -5.2890    2.1710 O   0  0  0  0  0  0  0  0  0  0  0  0
  -12.4420   -2.4340    1.7190 N   0  0  0  0  0  0  0  0  0  0  0  0
  -12.3760   -1.1160    1.0390 C   0  0  0  0  0  0  0  0  0  0  0  0
  -12.6090   -0.0040    2.0470 C   0  0  1  0  0  0  0  0  0  0  0  0
  -11.9860    1.1590    1.4630 O   0  0  0  0  0  0  0  0  0  0  0  0
  -14.5245    2.9356    5.3817 H   0  0  0  0  0  0  0  0  0  0  0  0
  -13.5513    4.1190    4.4440 H   0  0  0  0  0  0  0  0  0  0  0  0
  -15.3442    4.2301    4.4440 H   0  0  0  0  0  0  0  0  0  0  0  0
  -13.5710    1.1860    4.3290 H   0  0  0  0  0  0  0  0  0  0  0  0
  -14.4587    0.7392    1.4386 H   0  0  0  0  0  0  0  0  0  0  0  0
  -14.6917   -1.1202    3.7424 H   0  0  0  0  0  0  0  0  0  0  0  0
  -16.9870   -1.0930    2.6160 H   0  0  0  0  0  0  0  0  0  0  0  0
  -14.8971   -1.7533    0.8671 H   0  0  0  0  0  0  0  0  0  0  0  0
  -16.9450   -2.3320    1.8950 H   0  0  0  0  0  0  0  0  0  0  0  0
  -13.7923   -3.2474    3.1473 H   0  0  0  0  0  0  0  0  0  0  0  0
  -14.4117   -4.2716    0.3752 H   0  0  0  0  0  0  0  0  0  0  0  0
  -12.9057   -4.8374    1.1513 H   0  0  0  0  0  0  0  0  0  0  0  0
  -14.8630   -4.8080    3.0020 H   0  0  0  0  0  0  0  0  0  0  0  0
  -11.8770   -2.3940    2.5750 H   0  0  0  0  0  0  0  0  0  0  0  0
  -11.9310   -3.1330    1.1330 H   0  0  0  0  0  0  0  0  0  0  0  0
  -11.3840   -0.9911    0.5804 H   0  0  0  0  0  0  0  0  0  0  0  0
  -13.1526   -1.0695    0.2614 H   0  0  0  0  0  0  0  0  0  0  0  0
  -12.1959   -0.3435    3.0083 H   0  0  0  0  0  0  0  0  0  0  0  0
  -12.6560    1.6070    0.8900 H   0  0  0  0  0  0  0  0  0  0  0  0
  1  2  1  0
  2  3  2  0
  2  4  1  0
  4  5  1  0
  5  6  1  0
  6  7  1  0
  6  8  1  0
  8  9  1  0
  8 10  1  0
 10 11  1  0
 11 12  1  0
 10 13  1  0
 13 14  1  0
 14 15  1  0
 15 16  1  0
 15  5  1  0
  1 17  1  0
  1 18  1  0
  1 19  1  0
  4 20  1  0
  5 21  1  6
  6 22  1  1
  7 23  1  0
  8 24  1  6
  9 25  1  0
 10 26  1  1
 11 27  1  0
 11 28  1  0
 12 29  1  0
 13 30  1  0
 13 31  1  0
 14 32  1  0
 14 33  1  0
 15 34  1  1
 16 35  1  0
M  CHG  1  13   1
M  END
>  <meeko>  (1) 
{"is_sidechain": [false], "free_energy": -5.351, "intermolecular_energy": -8.479, "internal_energy": -0.023}

$$$$
2w66_ligand
     RDKit          3D

 35 35  0  0  0  0  0  0  0  0999 V2000
  -14.6500   -4.6260    1.7890 C   0  0  0  0  0  0  0  0  0  0  0  0
  -14.1740   -3.3490    2.4230 C   0  0  0  0  0  0  0  0  0  0  0  0
  -13.4020   -3.3180    3.3760 O   0  0  0  0  0  0  0  0  0  0  0  0
  -14.6380   -2.1940    1.8250 N   0  0  0  0  0  0  0  0  0  0  0  0
  -14.2110   -0.8550    2.3070 C   0  0  2  0  0  0  0  0  0  0  0  0
  -15.4410    0.0780    2.3140 C   0  0  1  0  0  0  0  0  0  0  0  0
  -16.5320   -0.6500    2.9120 O   0  0  0  0  0  0  0  0  0  0  0  0
  -15.3740    1.4250    3.0760 C   0  0  2  0  0  0  0  0  0  0  0  0
  -16.3640    2.3150    2.5270 O   0  0  0  0  0  0  0  0  0  0  0  0
  -14.0300    2.1740    3.1230 C   0  0  1  0  0  0  0  0  0  0  0  0
  -13.9840    3.3610    4.1050 C   0  0  0  0  0  0  0  0  0  0  0  0
  -13.0580    3.0380    5.1480 O   0  0  0  0  0  0  0  0  0  0  0  0
  -12.8230    1.2930    3.3530 N   0  0  0  0  0  0  0  0  0  0  0  0
  -12.0920    0.6960    2.2070 C   0  0  0  0  0  0  0  0  0  0  0  0
  -12.9510   -0.3830    1.5400 C   0  0  1  0  0  0  0  0  0  0  0  0
  -12.0630   -1.5080    1.3800 O   0  0  0  0  0  0  0  0  0  0  0  0
  -14.9189   -5.3474    2.5747 H   0  0  0  0  0  0  0  0  0  0  0  0
  -15.5313   -4.4189    1.1642 H   0  0  0  0  0  0  0  0  0  0  0  0
  -13.8481   -5.0463    1.1642 H   0  0  0  0  0  0  0  0  0  0  0  0
  -15.0000   -2.2900    0.8800 H   0  0  0  0  0  0  0  0  0  0  0  0
  -13.8645   -0.8651    3.3509 H   0  0  0  0  0  0  0  0  0  0  0  0
  -15.5385    0.3594    1.2551 H   0  0  0  0  0  0  0  0  0  0  0  0
  -16.4610   -1.5860    2.6390 H   0  0  0  0  0  0  0  0  0  0  0  0
  -15.5507    1.1333    4.1218 H   0  0  0  0  0  0  0  0  0  0  0  0
  -16.7330    1.8870    1.7260 H   0  0  0  0  0  0  0  0  0  0  0  0
  -13.9695    2.5768    2.1012 H   0  0  0  0  0  0  0  0  0  0  0  0
  -13.6517    4.2680    3.5787 H   0  0  0  0  0  0  0  0  0  0  0  0
  -14.9831    3.5472    4.5258 H   0  0  0  0  0  0  0  0  0  0  0  0
  -13.3120    2.1610    5.5030 H   0  0  0  0  0  0  0  0  0  0  0  0
  -12.1560    1.8110    3.9380 H   0  0  0  0  0  0  0  0  0  0  0  0
  -13.1360    0.5200    3.9830 H   0  0  0  0  0  0  0  0  0  0  0  0
  -11.8609    1.4823    1.4733 H   0  0  0  0  0  0  0  0  0  0  0  0
  -11.1601    0.2398    2.5723 H   0  0  0  0  0  0  0  0  0  0  0  0
  -13.3609    0.0468    0.6141 H   0  0  0  0  0  0  0  0  0  0  0  0
  -12.3040   -1.9690    0.5390 H   0  0  0  0  0  0  0  0  0  0  0  0
  1  2  1  0
  2  3  2  0
  2  4  1  0
  4  5  1  0
  5  6  1  0
  6  7  1  0
  6  8  1  0
  8  9  1  0
  8 10  1  0
 10 11  1  0
 11 12  1  0
 10 13  1  0
 13 14  1  0
 14 15  1  0
 15 16  1  0
 15  5  1  0
  1 17  1  0
  1 18  1  0
  1 19  1  0
  4 20  1  0
  5 21  1  1
  6 22  1  6
  7 23  1  0
  8 24  1  1
  9 25  1  0
 10 26  1  6
 11 27  1  0
 11 28  1  0
 12 29  1  0
 13 30  1  0
 13 31  1  0
 14 32  1  0
 14 33  1  0
 15 34  1  6
 16 35  1  0
M  CHG  1  13   1
M  END
>  <meeko>  (2) 
{"is_sidechain": [false], "free_energy": -5.252, "intermolecular_energy": -8.51, "internal_energy": 0.165}

$$$$
2w66_ligand
     RDKit          3D

 35 35  0  0  0  0  0  0  0  0999 V2000
  -16.9850    3.9790    5.5380 C   0  0  0  0  0  0  0  0  0  0  0  0
  -16.4460    3.3740    4.2710 C   0  0  0  0  0  0  0  0  0  0  0  0
  -16.5150    3.9280    3.1790 O   0  0  0  0  0  0  0  0  0  0  0  0
  -15.8220    2.1530    4.4290 N   0  0  0  0  0  0  0  0  0  0  0  0
  -15.1920    1.4580    3.2760 C   0  0  2  0  0  0  0  0  0  0  0  0
  -15.6300   -0.0230    3.3000 C   0  0  1  0  0  0  0  0  0  0  0  0
  -17.0710   -0.0470    3.3280 O   0  0  0  0  0  0  0  0  0  0  0  0
  -15.2220   -0.9580    2.1340 C   0  0  2  0  0  0  0  0  0  0  0  0
  -16.0640   -2.1260    2.1640 O   0  0  0  0  0  0  0  0  0  0  0  0
  -13.7580   -1.4250    2.0470 C   0  0  1  0  0  0  0  0  0  0  0  0
  -13.3230   -1.9370    0.6600 C   0  0  0  0  0  0  0  0  0  0  0  0
  -14.2690   -2.9240    0.2350 O   0  0  0  0  0  0  0  0  0  0  0  0
  -12.7430   -0.4210    2.5450 N   0  0  0  0  0  0  0  0  0  0  0  0
  -12.8500    1.0120    2.1720 C   0  0  0  0  0  0  0  0  0  0  0  0
  -13.6740    1.7620    3.2270 C   0  0  1  0  0  0  0  0  0  0  0  0
  -13.4960    3.1560    2.9060 O   0  0  0  0  0  0  0  0  0  0  0  0
  -16.5352    3.4741    6.4056 H   0  0  0  0  0  0  0  0  0  0  0  0
  -16.7364    5.0501    5.5675 H   0  0  0  0  0  0  0  0  0  0  0  0
  -18.0776    3.8552    5.5675 H   0  0  0  0  0  0  0  0  0  0  0  0
  -15.5290    1.9150    5.3730 H   0  0  0  0  0  0  0  0  0  0  0  0
  -15.5410    1.8356    2.3036 H   0  0  0  0  0  0  0  0  0  0  0  0
  -15.0992   -0.4201    4.1778 H   0  0  0  0  0  0  0  0  0  0  0  0
  -17.3530   -0.4510    4.1730 H   0  0  0  0  0  0  0  0  0  0  0  0
  -15.3500   -0.3239    1.2443 H   0  0  0  0  0  0  0  0  0  0  0  0
  -16.7970   -1.9770    1.5310 H   0  0  0  0  0  0  0  0  0  0  0  0
  -13.7612   -2.2800    2.7390 H   0  0  0  0  0  0  0  0  0  0  0  0
  -13.3062   -1.1031   -0.0571 H   0  0  0  0  0  0  0  0  0  0  0  0
  -12.3144   -2.3729    0.7131 H   0  0  0  0  0  0  0  0  0  0  0  0
  -14.3290   -3.5960    0.9450 H   0  0  0  0  0  0  0  0  0  0  0  0
  -12.6960   -0.4950    3.5680 H   0  0  0  0  0  0  0  0  0  0  0  0
  -11.8060   -0.7720    2.2420 H   0  0  0  0  0  0  0  0  0  0  0  0
  -11.8430    1.4510    2.1149 H   0  0  0  0  0  0  0  0  0  0  0  0
  -13.3467    1.0973    1.1942 H   0  0  0  0  0  0  0  0  0  0  0  0
  -13.3140    1.4443    4.2167 H   0  0  0  0  0  0  0  0  0  0  0  0
  -13.8830    3.6900    3.6420 H   0  0  0  0  0  0  0  0  0  0  0  0
  1  2  1  0
  2  3  2  0
  2  4  1  0
  4  5  1  0
  5  6  1  0
  6  7  1  0
  6  8  1  0
  8  9  1  0
  8 10  1  0
 10 11  1  0
 11 12  1  0
 10 13  1  0
 13 14  1  0
 14 15  1  0
 15 16  1  0
 15  5  1  0
  1 17  1  0
  1 18  1  0
  1 19  1  0
  4 20  1  0
  5 21  1  6
  6 22  1  1
  7 23  1  0
  8 24  1  6
  9 25  1  0
 10 26  1  1
 11 27  1  0
 11 28  1  0
 12 29  1  0
 13 30  1  0
 13 31  1  0
 14 32  1  0
 14 33  1  0
 15 34  1  1
 16 35  1  0
M  CHG  1  13   1
M  END
>  <meeko>  (3) 
{"is_sidechain": [false], "free_energy": -5.002, "intermolecular_energy": -7.771, "internal_energy": -0.178}

$$$$
2w66_ligand
     RDKit          3D

 35 35  0  0  0  0  0  0  0  0999 V2000
  -15.0270    5.9600    2.0290 C   0  0  0  0  0  0  0  0  0  0  0  0
  -14.8920    4.7210    2.8680 C   0  0  0  0  0  0  0  0  0  0  0  0
  -14.8330    4.7410    4.0930 O   0  0  0  0  0  0  0  0  0  0  0  0
  -14.8820    3.5360    2.1590 N   0  0  0  0  0  0  0  0  0  0  0  0
  -14.8090    2.2250    2.8560 C   0  0  2  0  0  0  0  0  0  0  0  0
  -13.7250    1.3660    2.1690 C   0  0  1  0  0  0  0  0  0  0  0  0
  -12.4430    1.8980    2.5560 O   0  0  0  0  0  0  0  0  0  0  0  0
  -13.6520   -0.1530    2.4680 C   0  0  2  0  0  0  0  0  0  0  0  0
  -12.4000   -0.6600    1.9700 O   0  0  0  0  0  0  0  0  0  0  0  0
  -14.7800   -1.0580    1.9420 C   0  0  1  0  0  0  0  0  0  0  0  0
  -14.4760   -2.5680    1.9990 C   0  0  0  0  0  0  0  0  0  0  0  0
  -13.9160   -2.8600    3.2840 O   0  0  0  0  0  0  0  0  0  0  0  0
  -16.1360   -0.8020    2.5580 N   0  0  0  0  0  0  0  0  0  0  0  0
  -16.3050    0.2260    3.6160 C   0  0  0  0  0  0  0  0  0  0  0  0
  -16.2250    1.6160    3.0080 C   0  0  1  0  0  0  0  0  0  0  0  0
  -16.9950    2.4590    3.8900 O   0  0  0  0  0  0  0  0  0  0  0  0
  -15.1227    6.8381    2.6846 H   0  0  0  0  0  0  0  0  0  0  0  0
  -14.1357    6.0718    1.3941 H   0  0  0  0  0  0  0  0  0  0  0  0
  -15.9214    5.8772    1.3941 H   0  0  0  0  0  0  0  0  0  0  0  0
  -15.2440    3.5750    1.2110 H   0  0  0  0  0  0  0  0  0  0  0  0
  -14.4743    2.3114    3.9003 H   0  0  0  0  0  0  0  0  0  0  0  0
  -14.0005    1.4301    1.1060 H   0  0  0  0  0  0  0  0  0  0  0  0
  -12.4430    2.0210    3.5260 H   0  0  0  0  0  0  0  0  0  0  0  0
  -13.7632   -0.2024    3.5613 H   0  0  0  0  0  0  0  0  0  0  0  0
  -11.7420   -0.5840    2.6930 H   0  0  0  0  0  0  0  0  0  0  0  0
  -14.8243   -0.7592    0.8843 H   0  0  0  0  0  0  0  0  0  0  0  0
  -15.4043   -3.1410    1.8577 H   0  0  0  0  0  0  0  0  0  0  0  0
  -13.7692   -2.8451    1.2030 H   0  0  0  0  0  0  0  0  0  0  0  0
  -13.0450   -3.2820    3.1330 H   0  0  0  0  0  0  0  0  0  0  0  0
  -16.8000   -0.6100    1.7990 H   0  0  0  0  0  0  0  0  0  0  0  0
  -16.4690   -1.7190    2.9340 H   0  0  0  0  0  0  0  0  0  0  0  0
  -17.2852    0.0951    4.0978 H   0  0  0  0  0  0  0  0  0  0  0  0
  -15.5044    0.1116    4.3616 H   0  0  0  0  0  0  0  0  0  0  0  0
  -16.5958    1.5452    1.9748 H   0  0  0  0  0  0  0  0  0  0  0  0
  -17.9020    2.5500    3.5080 H   0  0  0  0  0  0  0  0  0  0  0  0
  1  2  1  0
  2  3  2  0
  2  4  1  0
  4  5  1  0
  5  6  1  0
  6  7  1  0
  6  8  1  0
  8  9  1  0
  8 10  1  0
 10 11  1  0
 11 12  1  0
 10 13  1  0
 13 14  1  0
 14 15  1  0
 15 16  1  0
 15  5  1  0
  1 17  1  0
  1 18  1  0
  1 19  1  0
  4 20  1  0
  5 21  1  1
  6 22  1  6
  7 23  1  0
  8 24  1  1
  9 25  1  0
 10 26  1  6
 11 27  1  0
 11 28  1  0
 12 29  1  0
 13 30  1  0
 13 31  1  0
 14 32  1  0
 14 33  1  0
 15 34  1  6
 16 35  1  0
M  CHG  1  13   1
M  END
>  <meeko>  (4) 
{"is_sidechain": [false], "free_energy": -4.85, "intermolecular_energy": -7.652, "internal_energy": -0.057}

$$$$
2w66_ligand
     RDKit          3D

 35 35  0  0  0  0  0  0  0  0999 V2000
  -18.4930    4.6930    3.3200 C   0  0  0  0  0  0  0  0  0  0  0  0
  -17.2660    4.0340    2.7550 C   0  0  0  0  0  0  0  0  0  0  0  0
  -16.7140    4.4090    1.7260 O   0  0  0  0  0  0  0  0  0  0  0  0
  -16.7700    2.9860    3.5050 N   0  0  0  0  0  0  0  0  0  0  0  0
  -15.5310    2.2720    3.1010 C   0  0  2  0  0  0  0  0  0  0  0  0
  -15.7650    0.7540    3.2680 C   0  0  1  0  0  0  0  0  0  0  0  0
  -17.1420    0.4900    2.9350 O   0  0  0  0  0  0  0  0  0  0  0  0
  -14.9340   -0.2430    2.4230 C   0  0  2  0  0  0  0  0  0  0  0  0
  -15.1540   -1.5720    2.9330 O   0  0  0  0  0  0  0  0  0  0  0  0
  -13.4160   -0.0190    2.3080 C   0  0  1  0  0  0  0  0  0  0  0  0
  -12.7440   -0.7380    1.1210 C   0  0  0  0  0  0  0  0  0  0  0  0
  -12.3980   -2.0610    1.5420 O   0  0  0  0  0  0  0  0  0  0  0  0
  -12.9880    1.4310    2.3160 N   0  0  0  0  0  0  0  0  0  0  0  0
  -12.9580    2.2040    3.5830 C   0  0  0  0  0  0  0  0  0  0  0  0
  -14.2980    2.8940    3.8020 C   0  0  1  0  0  0  0  0  0  0  0  0
  -14.1000    4.2260    3.2850 O   0  0  0  0  0  0  0  0  0  0  0  0
  -18.4489    4.6693    4.4189 H   0  0  0  0  0  0  0  0  0  0  0  0
  -18.5391    5.7372    2.9773 H   0  0  0  0  0  0  0  0  0  0  0  0
  -19.3890    4.1548    2.9773 H   0  0  0  0  0  0  0  0  0  0  0  0
  -17.0780    2.9400    4.4730 H   0  0  0  0  0  0  0  0  0  0  0  0
  -15.2890    2.4005    2.0357 H   0  0  0  0  0  0  0  0  0  0  0  0
  -15.4511    0.5714    4.3063 H   0  0  0  0  0  0  0  0  0  0  0  0
  -17.4360   -0.2900    3.4460 H   0  0  0  0  0  0  0  0  0  0  0  0
  -15.3026   -0.0776    1.3999 H   0  0  0  0  0  0  0  0  0  0  0  0
  -15.0920   -1.5280    3.9100 H   0  0  0  0  0  0  0  0  0  0  0  0
  -13.0558   -0.4863    3.2364 H   0  0  0  0  0  0  0  0  0  0  0  0
  -13.4412   -0.7872    0.2716 H   0  0  0  0  0  0  0  0  0  0  0  0
  -11.8439   -0.1910    0.8037 H   0  0  0  0  0  0  0  0  0  0  0  0
  -11.7750   -2.4250    0.8800 H   0  0  0  0  0  0  0  0  0  0  0  0
  -12.0670    1.4940    1.8660 H   0  0  0  0  0  0  0  0  0  0  0  0
  -13.6130    1.9280    1.6410 H   0  0  0  0  0  0  0  0  0  0  0  0
  -12.7580    1.5213    4.4220 H   0  0  0  0  0  0  0  0  0  0  0  0
  -12.1650    2.9640    3.5245 H   0  0  0  0  0  0  0  0  0  0  0  0
  -14.5454    2.8170    4.8711 H   0  0  0  0  0  0  0  0  0  0  0  0
  -13.3240    4.6220    3.7530 H   0  0  0  0  0  0  0  0  0  0  0  0
  1  2  1  0
  2  3  2  0
  2  4  1  0
  4  5  1  0
  5  6  1  0
  6  7  1  0
  6  8  1  0
  8  9  1  0
  8 10  1  0
 10 11  1  0
 11 12  1  0
 10 13  1  0
 13 14  1  0
 14 15  1  0
 15 16  1  0
 15  5  1  0
  1 17  1  0
  1 18  1  0
  1 19  1  0
  4 20  1  0
  5 21  1  6
  6 22  1  1
  7 23  1  0
  8 24  1  6
  9 25  1  0
 10 26  1  1
 11 27  1  0
 11 28  1  0
 12 29  1  0
 13 30  1  0
 13 31  1  0
 14 32  1  0
 14 33  1  0
 15 34  1  1
 16 35  1  0
M  CHG  1  13   1
M  END
>  <meeko>  (5) 
{"is_sidechain": [false], "free_energy": -4.663, "intermolecular_energy": -7.262, "internal_energy": -0.15}

$$$$
2w66_ligand
     RDKit          3D

 35 35  0  0  0  0  0  0  0  0999 V2000
  -13.6810   -3.3800    1.3540 C   0  0  0  0  0  0  0  0  0  0  0  0
  -13.9130   -2.2970    2.3710 C   0  0  0  0  0  0  0  0  0  0  0  0
  -13.8540   -2.4870    3.5810 O   0  0  0  0  0  0  0  0  0  0  0  0
  -14.1590   -1.0460    1.8420 N   0  0  0  0  0  0  0  0  0  0  0  0
  -14.3540    0.1350    2.7240 C   0  0  2  0  0  0  0  0  0  0  0  0
  -15.8030    0.6410    2.5500 C   0  0  1  0  0  0  0  0  0  0  0  0
  -16.6840   -0.4190    2.9710 O   0  0  0  0  0  0  0  0  0  0  0  0
  -16.2690    1.9000    3.3230 C   0  0  2  0  0  0  0  0  0  0  0  0
  -17.7090    1.9160    3.3510 O   0  0  0  0  0  0  0  0  0  0  0  0
  -15.7840    3.2780    2.8400 C   0  0  1  0  0  0  0  0  0  0  0  0
  -16.1750    4.4580    3.7510 C   0  0  0  0  0  0  0  0  0  0  0  0
  -16.5270    3.9300    5.0340 O   0  0  0  0  0  0  0  0  0  0  0  0
  -14.3050    3.3570    2.5350 N   0  0  0  0  0  0  0  0  0  0  0  0
  -13.3370    2.4900    3.2540 C   0  0  0  0  0  0  0  0  0  0  0  0
  -13.2040    1.1530    2.5230 C   0  0  1  0  0  0  0  0  0  0  0  0
  -11.9860    0.5760    3.0360 O   0  0  0  0  0  0  0  0  0  0  0  0
  -13.4775   -4.3300    1.8699 H   0  0  0  0  0  0  0  0  0  0  0  0
  -14.5761   -3.4893    0.7241 H   0  0  0  0  0  0  0  0  0  0  0  0
  -12.8197   -3.1130    0.7241 H   0  0  0  0  0  0  0  0  0  0  0  0
  -13.8850   -0.9030    0.8740 H   0  0  0  0  0  0  0  0  0  0  0  0
  -14.2715   -0.1088    3.7935 H   0  0  0  0  0  0  0  0  0  0  0  0
  -15.8334    0.9346    1.4903 H   0  0  0  0  0  0  0  0  0  0  0  0
  -16.5360   -1.1890    2.3870 H   0  0  0  0  0  0  0  0  0  0  0  0
  -15.7928    1.7834    4.3077 H   0  0  0  0  0  0  0  0  0  0  0  0
  -18.0220    1.1050    2.8990 H   0  0  0  0  0  0  0  0  0  0  0  0
  -16.3346    3.3826    1.8935 H   0  0  0  0  0  0  0  0  0  0  0  0
  -15.3249    5.1488    3.8523 H   0  0  0  0  0  0  0  0  0  0  0  0
  -17.0236    5.0087    3.3191 H   0  0  0  0  0  0  0  0  0  0  0  0
  -17.3570    4.3690    5.3130 H   0  0  0  0  0  0  0  0  0  0  0  0
  -14.1790    3.2280    1.5250 H   0  0  0  0  0  0  0  0  0  0  0  0
  -14.0250    4.3540    2.6810 H   0  0  0  0  0  0  0  0  0  0  0  0
  -12.3563    2.9871    3.2892 H   0  0  0  0  0  0  0  0  0  0  0  0
  -13.6967    2.3121    4.2782 H   0  0  0  0  0  0  0  0  0  0  0  0
  -13.2211    1.3585    1.4425 H   0  0  0  0  0  0  0  0  0  0  0  0
  -12.2290   -0.0680    3.7450 H   0  0  0  0  0  0  0  0  0  0  0  0
  1  2  1  0
  2  3  2  0
  2  4  1  0
  4  5  1  0
  5  6  1  0
  6  7  1  0
  6  8  1  0
  8  9  1  0
  8 10  1  0
 10 11  1  0
 11 12  1  0
 10 13  1  0
 13 14  1  0
 14 15  1  0
 15 16  1  0
 15  5  1  0
  1 17  1  0
  1 18  1  0
  1 19  1  0
  4 20  1  0
  5 21  1  1
  6 22  1  6
  7 23  1  0
  8 24  1  1
  9 25  1  0
 10 26  1  6
 11 27  1  0
 11 28  1  0
 12 29  1  0
 13 30  1  0
 13 31  1  0
 14 32  1  0
 14 33  1  0
 15 34  1  6
 16 35  1  0
M  CHG  1  13   1
M  END
>  <meeko>  (6) 
{"is_sidechain": [false], "free_energy": -4.582, "intermolecular_energy": -7.169, "internal_energy": -0.114}

$$$$
2w66_ligand
     RDKit          3D

 35 35  0  0  0  0  0  0  0  0999 V2000
  -17.2960    4.7980    4.0200 C   0  0  0  0  0  0  0  0  0  0  0  0
  -16.5770    3.5070    4.2940 C   0  0  0  0  0  0  0  0  0  0  0  0
  -16.5780    2.9560    5.3900 O   0  0  0  0  0  0  0  0  0  0  0  0
  -15.9400    2.9530    3.2020 N   0  0  0  0  0  0  0  0  0  0  0  0
  -15.2320    1.6500    3.3050 C   0  0  2  0  0  0  0  0  0  0  0  0
  -13.8270    1.8060    2.6840 C   0  0  1  0  0  0  0  0  0  0  0  0
  -13.0330    2.5860    3.5990 O   0  0  0  0  0  0  0  0  0  0  0  0
  -12.9840    0.5430    2.3760 C   0  0  2  0  0  0  0  0  0  0  0  0
  -11.6230    0.9460    2.1330 O   0  0  0  0  0  0  0  0  0  0  0  0
  -13.4270   -0.3700    1.2190 C   0  0  1  0  0  0  0  0  0  0  0  0
  -12.4040   -1.4510    0.8190 C   0  0  0  0  0  0  0  0  0  0  0  0
  -12.4680   -2.5030    1.7890 O   0  0  0  0  0  0  0  0  0  0  0  0
  -14.7820   -1.0160    1.4070 N   0  0  0  0  0  0  0  0  0  0  0  0
  -15.5110   -0.8840    2.6930 C   0  0  0  0  0  0  0  0  0  0  0  0
  -16.1320    0.5050    2.7790 C   0  0  1  0  0  0  0  0  0  0  0  0
  -17.2450    0.3440    3.6820 O   0  0  0  0  0  0  0  0  0  0  0  0
  -17.5634    5.2782    4.9729 H   0  0  0  0  0  0  0  0  0  0  0  0
  -16.6408    5.4674    3.4433 H   0  0  0  0  0  0  0  0  0  0  0  0
  -18.2101    4.5934    3.4433 H   0  0  0  0  0  0  0  0  0  0  0  0
  -16.2390    3.2850    2.2890 H   0  0  0  0  0  0  0  0  0  0  0  0
  -15.0429    1.3448    4.3447 H   0  0  0  0  0  0  0  0  0  0  0  0
  -14.0444    2.2461    1.6996 H   0  0  0  0  0  0  0  0  0  0  0  0
  -12.1160    2.2470    3.5740 H   0  0  0  0  0  0  0  0  0  0  0  0
  -13.1245   -0.0797    3.2718 H   0  0  0  0  0  0  0  0  0  0  0  0
  -11.5810    1.3100    1.2240 H   0  0  0  0  0  0  0  0  0  0  0  0
  -13.5023    0.3494    0.3903 H   0  0  0  0  0  0  0  0  0  0  0  0
  -12.6498   -1.8468   -0.1774 H   0  0  0  0  0  0  0  0  0  0  0  0
  -11.3908   -1.0239    0.7854 H   0  0  0  0  0  0  0  0  0  0  0  0
  -13.0350   -3.2090    1.4160 H   0  0  0  0  0  0  0  0  0  0  0  0
  -15.3930   -0.7010    0.6440 H   0  0  0  0  0  0  0  0  0  0  0  0
  -14.6560   -2.0330    1.2010 H   0  0  0  0  0  0  0  0  0  0  0  0
  -16.3036   -1.6449    2.7460 H   0  0  0  0  0  0  0  0  0  0  0  0
  -14.8116   -1.0276    3.5298 H   0  0  0  0  0  0  0  0  0  0  0  0
  -16.3763    0.8244    1.7551 H   0  0  0  0  0  0  0  0  0  0  0  0
  -16.8820    0.1610    4.5830 H   0  0  0  0  0  0  0  0  0  0  0  0
  1  2  1  0
  2  3  2  0
  2  4  1  0
  4  5  1  0
  5  6  1  0
  6  7  1  0
  6  8  1  0
  8  9  1  0
  8 10  1  0
 10 11  1  0
 11 12  1  0
 10 13  1  0
 13 14  1  0
 14 15  1  0
 15 16  1  0
 15  5  1  0
  1 17  1  0
  1 18  1  0
  1 19  1  0
  4 20  1  0
  5 21  1  1
  6 22  1  6
  7 23  1  0
  8 24  1  1
  9 25  1  0
 10 26  1  6
 11 27  1  0
 11 28  1  0
 12 29  1  0
 13 30  1  0
 13 31  1  0
 14 32  1  0
 14 33  1  0
 15 34  1  6
 16 35  1  0
M  CHG  1  13   1
M  END
>  <meeko>  (7) 
{"is_sidechain": [false], "free_energy": -4.418, "intermolecular_energy": -7.115, "internal_energy": 0.091}

$$$$
2w66_ligand
     RDKit          3D

 35 35  0  0  0  0  0  0  0  0999 V2000
  -14.3080   -5.7380    1.7590 C   0  0  0  0  0  0  0  0  0  0  0  0
  -13.7520   -4.3590    1.9820 C   0  0  0  0  0  0  0  0  0  0  0  0
  -12.6920   -4.1470    2.5620 O   0  0  0  0  0  0  0  0  0  0  0  0
  -14.5050   -3.3340    1.4470 N   0  0  0  0  0  0  0  0  0  0  0  0
  -14.0550   -1.9200    1.5410 C   0  0  2  0  0  0  0  0  0  0  0  0
  -14.6850   -1.2890    2.8020 C   0  0  1  0  0  0  0  0  0  0  0  0
  -13.7790   -1.5180    3.8980 O   0  0  0  0  0  0  0  0  0  0  0  0
  -14.9900    0.2290    2.8240 C   0  0  2  0  0  0  0  0  0  0  0  0
  -16.2330    0.4590    2.1350 O   0  0  0  0  0  0  0  0  0  0  0  0
  -13.9380    1.1960    2.2530 C   0  0  1  0  0  0  0  0  0  0  0  0
  -13.1530    1.9970    3.3090 C   0  0  0  0  0  0  0  0  0  0  0  0
  -11.7730    1.9990    2.9290 O   0  0  0  0  0  0  0  0  0  0  0  0
  -12.9640    0.5690    1.2810 N   0  0  0  0  0  0  0  0  0  0  0  0
  -13.4320    0.0410   -0.0250 C   0  0  0  0  0  0  0  0  0  0  0  0
  -14.2670   -1.1970    0.1880 C   0  0  1  0  0  0  0  0  0  0  0  0
  -13.9020   -2.0980   -0.8770 O   0  0  0  0  0  0  0  0  0  0  0  0
  -14.5011   -6.2170    2.7302 H   0  0  0  0  0  0  0  0  0  0  0  0
  -15.2478   -5.6671    1.1918 H   0  0  0  0  0  0  0  0  0  0  0  0
  -13.5818   -6.3388    1.1918 H   0  0  0  0  0  0  0  0  0  0  0  0
  -15.1770   -3.5950    0.7310 H   0  0  0  0  0  0  0  0  0  0  0  0
  -12.9702   -1.8233    1.6951 H   0  0  0  0  0  0  0  0  0  0  0  0
  -15.6713   -1.7736    2.8505 H   0  0  0  0  0  0  0  0  0  0  0  0
  -14.2590   -2.0070    4.5960 H   0  0  0  0  0  0  0  0  0  0  0  0
  -15.0114    0.4678    3.8976 H   0  0  0  0  0  0  0  0  0  0  0  0
  -16.9010    0.7090    2.8060 H   0  0  0  0  0  0  0  0  0  0  0  0
  -14.5717    1.9012    1.6952 H   0  0  0  0  0  0  0  0  0  0  0  0
  -13.5300    3.0295    3.3502 H   0  0  0  0  0  0  0  0  0  0  0  0
  -13.2745    1.5402    4.3023 H   0  0  0  0  0  0  0  0  0  0  0  0
  -11.3940    1.1380    3.2010 H   0  0  0  0  0  0  0  0  0  0  0  0
  -12.2030    1.2380    1.1150 H   0  0  0  0  0  0  0  0  0  0  0  0
  -12.4870   -0.2050    1.7980 H   0  0  0  0  0  0  0  0  0  0  0  0
  -14.0383    0.8066   -0.5312 H   0  0  0  0  0  0  0  0  0  0  0  0
  -12.5597   -0.2142   -0.6447 H   0  0  0  0  0  0  0  0  0  0  0  0
  -15.3243   -0.8934    0.1949 H   0  0  0  0  0  0  0  0  0  0  0  0
  -14.5930   -2.0330   -1.5810 H   0  0  0  0  0  0  0  0  0  0  0  0
  1  2  1  0
  2  3  2  0
  2  4  1  0
  4  5  1  0
  5  6  1  0
  6  7  1  0
  6  8  1  0
  8  9  1  0
  8 10  1  0
 10 11  1  0
 11 12  1  0
 10 13  1  0
 13 14  1  0
 14 15  1  0
 15 16  1  0
 15  5  1  0
  1 17  1  0
  1 18  1  0
  1 19  1  0
  4 20  1  0
  5 21  1  1
  6 22  1  1
  7 23  1  0
  8 24  1  1
  9 25  1  0
 10 26  1  6
 11 27  1  0
 11 28  1  0
 12 29  1  0
 13 30  1  0
 13 31  1  0
 14 32  1  0
 14 33  1  0
 15 34  1  6
 16 35  1  0
M  CHG  1  13   1
M  END
>  <meeko>  (8) 
{"is_sidechain": [false], "free_energy": -4.288, "intermolecular_energy": -6.712, "internal_energy": -0.106}

$$$$
2w66_ligand
     RDKit          3D

 35 35  0  0  0  0  0  0  0  0999 V2000
  -19.8810    1.6500    3.3130 C   0  0  0  0  0  0  0  0  0  0  0  0
  -18.4800    1.8220    2.7960 C   0  0  0  0  0  0  0  0  0  0  0  0
  -18.2100    2.4610    1.7850 O   0  0  0  0  0  0  0  0  0  0  0  0
  -17.4980    1.2400    3.5720 N   0  0  0  0  0  0  0  0  0  0  0  0
  -16.0610    1.3720    3.2180 C   0  0  2  0  0  0  0  0  0  0  0  0
  -15.4090   -0.0270    3.2880 C   0  0  1  0  0  0  0  0  0  0  0  0
  -16.3970   -0.9850    2.8610 O   0  0  0  0  0  0  0  0  0  0  0  0
  -14.1480   -0.3240    2.4400 C   0  0  2  0  0  0  0  0  0  0  0  0
  -13.5560   -1.5500    2.9100 O   0  0  0  0  0  0  0  0  0  0  0  0
  -13.0430    0.7450    2.3690 C   0  0  1  0  0  0  0  0  0  0  0  0
  -12.1000    0.6210    1.1570 C   0  0  0  0  0  0  0  0  0  0  0  0
  -12.6350   -0.3740    0.2780 O   0  0  0  0  0  0  0  0  0  0  0  0
  -13.5360    2.1710    2.4710 N   0  0  0  0  0  0  0  0  0  0  0  0
  -13.9090    2.7510    3.7850 C   0  0  0  0  0  0  0  0  0  0  0  0
  -15.4080    2.5150    4.0340 C   0  0  1  0  0  0  0  0  0  0  0  0
  -16.0570    3.7550    3.6870 O   0  0  0  0  0  0  0  0  0  0  0  0
  -19.8687    1.6515    4.4129 H   0  0  0  0  0  0  0  0  0  0  0  0
  -20.5092    2.4778    2.9522 H   0  0  0  0  0  0  0  0  0  0  0  0
  -20.2903    0.6949    2.9522 H   0  0  0  0  0  0  0  0  0  0  0  0
  -17.7550    1.0120    4.5290 H   0  0  0  0  0  0  0  0  0  0  0  0
  -15.9028    1.7002    2.1801 H   0  0  0  0  0  0  0  0  0  0  0  0
  -15.0650   -0.0842    4.3313 H   0  0  0  0  0  0  0  0  0  0  0  0
  -16.2050   -1.2290    1.9330 H   0  0  0  0  0  0  0  0  0  0  0  0
  -14.5384   -0.3676    1.4125 H   0  0  0  0  0  0  0  0  0  0  0  0
  -12.5980   -1.5120    2.7060 H   0  0  0  0  0  0  0  0  0  0  0  0
  -12.4617    0.5190    3.2751 H   0  0  0  0  0  0  0  0  0  0  0  0
  -12.0369    1.5863    0.6333 H   0  0  0  0  0  0  0  0  0  0  0  0
  -11.0904    0.3352    1.4871 H   0  0  0  0  0  0  0  0  0  0  0  0
  -11.8770   -0.8320   -0.1400 H   0  0  0  0  0  0  0  0  0  0  0  0
  -12.8410    2.7810    2.0240 H   0  0  0  0  0  0  0  0  0  0  0  0
  -14.3590    2.2460    1.8310 H   0  0  0  0  0  0  0  0  0  0  0  0
  -13.3232    2.2672    4.5805 H   0  0  0  0  0  0  0  0  0  0  0  0
  -13.6996    3.8309    3.7854 H   0  0  0  0  0  0  0  0  0  0  0  0
  -15.5243    2.2042    5.0828 H   0  0  0  0  0  0  0  0  0  0  0  0
  -16.9780    3.5460    3.3950 H   0  0  0  0  0  0  0  0  0  0  0  0
  1  2  1  0
  2  3  2  0
  2  4  1  0
  4  5  1  0
  5  6  1  0
  6  7  1  0
  6  8  1  0
  8  9  1  0
  8 10  1  0
 10 11  1  0
 11 12  1  0
 10 13  1  0
 13 14  1  0
 14 15  1  0
 15 16  1  0
 15  5  1  0
  1 17  1  0
  1 18  1  0
  1 19  1  0
  4 20  1  0
  5 21  1  6
  6 22  1  1
  7 23  1  0
  8 24  1  6
  9 25  1  0
 10 26  1  1
 11 27  1  0
 11 28  1  0
 12 29  1  0
 13 30  1  0
 13 31  1  0
 14 32  1  0
 14 33  1  0
 15 34  1  1
 16 35  1  0
M  CHG  1  13   1
M  END
>  <meeko>  (9) 
{"is_sidechain": [false], "free_energy": -4.258, "intermolecular_energy": -6.582, "internal_energy": -0.187}

$$$$
