3tsk_ligand
     RDKit          3D

 71 73  0  0  0  0  0  0  0  0999 V2000
    1.7010   -4.2380   13.7590 N   0  0  0  0  0  0  0  0  0  0  0  0
    2.2150   -4.6600   12.5690 C   0  0  0  0  0  0  0  0  0  0  0  0
    1.5800   -5.3990   11.8220 O   0  0  0  0  0  0  0  0  0  0  0  0
    3.5720   -4.0820   12.2300 C   0  0  0  0  0  0  0  0  0  0  0  0
    3.6440   -3.6330   10.7710 C   0  0  0  0  0  0  0  0  0  0  0  0
    4.6930   -4.4030    9.9590 C   0  0  2  0  0  0  0  0  0  0  0  0
    5.4720   -3.4710    9.1400 N   0  0  0  0  0  0  0  0  0  0  0  0
    6.7700   -3.1500    9.4750 C   0  0  0  0  0  0  0  0  0  0  0  0
    7.2690   -3.3940   10.5680 O   0  0  0  0  0  0  0  0  0  0  0  0
    7.5200   -2.4930    8.3300 C   0  0  0  0  0  0  0  0  0  0  0  0
    6.6320   -2.1610    7.1330 C   0  0  0  0  0  0  0  0  0  0  0  0
    7.3280   -2.3850    5.8100 C   0  0  0  0  0  0  0  0  0  0  0  0
    8.0850   -3.5420    5.5900 C   0  0  0  0  0  0  0  0  0  0  0  0
    8.7400   -3.7420    4.3710 C   0  0  0  0  0  0  0  0  0  0  0  0
    8.6560   -2.7900    3.3460 C   0  0  0  0  0  0  0  0  0  0  0  0
    9.3210   -2.9890    2.0510 C   0  0  0  0  0  0  0  0  0  0  0  0
   10.2600   -3.9430    1.7010 C   0  0  0  0  0  0  0  0  0  0  0  0
   10.6860   -3.8500    0.3360 C   0  0  0  0  0  0  0  0  0  0  0  0
   11.6550   -4.7030   -0.3440 C   0  0  0  0  0  0  0  0  0  0  0  0
   11.6400   -4.8410   -1.7390 C   0  0  0  0  0  0  0  0  0  0  0  0
   12.5770   -5.6550   -2.3800 C   0  0  0  0  0  0  0  0  0  0  0  0
   13.5380   -6.3360   -1.6340 C   0  0  0  0  0  0  0  0  0  0  0  0
   13.5640   -6.2020   -0.2460 C   0  0  0  0  0  0  0  0  0  0  0  0
   12.6280   -5.3870    0.3960 C   0  0  0  0  0  0  0  0  0  0  0  0
   10.0270   -2.8250   -0.3130 C   0  0  0  0  0  0  0  0  0  0  0  0
    8.9380   -1.9930    0.7080 S   0  0  0  0  0  0  0  0  0  0  0  0
    7.8960   -1.6330    3.5710 C   0  0  0  0  0  0  0  0  0  0  0  0
    7.2440   -1.4300    4.7910 C   0  0  0  0  0  0  0  0  0  0  0  0
    4.0080   -5.3640    8.9570 C   0  0  0  0  0  0  0  0  0  0  0  0
    4.0390   -5.1550    7.7430 O   0  0  0  0  0  0  0  0  0  0  0  0
    3.3180   -6.3950    9.5440 N   0  0  0  0  0  0  0  0  0  0  0  0
    2.4760   -7.3470    8.8240 C   0  0  1  0  0  0  0  0  0  0  0  0
    2.3700   -8.7270    9.5040 C   0  0  0  0  0  0  0  0  0  0  0  0
    2.4140   -9.9040    8.5280 C   0  0  0  0  0  0  0  0  0  0  0  0
    1.2670  -10.8910    8.7320 C   0  0  0  0  0  0  0  0  0  0  0  0
    0.2330  -10.3940    9.2650 O   0  0  0  0  0  0  0  0  0  0  0  0
    1.4980  -12.0810    8.3820 O   0  0  0  0  0  0  0  0  0  0  0  0
    1.0970   -6.7480    8.4630 C   0  0  0  0  0  0  0  0  0  0  0  0
    0.9210   -5.4350    8.8190 N   0  0  0  0  0  0  0  0  0  0  0  0
    0.1620   -7.3700    7.9650 O   0  0  0  0  0  0  0  0  0  0  0  0
    2.3670   -4.0370   14.5300 H   0  0  0  0  0  0  0  0  0  0  0  0
    0.8790   -4.7260   14.0810 H   0  0  0  0  0  0  0  0  0  0  0  0
    3.7633   -3.2154   12.8800 H   0  0  0  0  0  0  0  0  0  0  0  0
    4.3283   -4.8653   12.3865 H   0  0  0  0  0  0  0  0  0  0  0  0
    2.6586   -3.7879   10.3074 H   0  0  0  0  0  0  0  0  0  0  0  0
    3.9372   -2.5728   10.7667 H   0  0  0  0  0  0  0  0  0  0  0  0
    5.3225   -4.9508   10.6756 H   0  0  0  0  0  0  0  0  0  0  0  0
    5.2670   -3.5380    8.1480 H   0  0  0  0  0  0  0  0  0  0  0  0
    7.9709   -1.5599    8.6988 H   0  0  0  0  0  0  0  0  0  0  0  0
    8.2764   -3.2123    7.9829 H   0  0  0  0  0  0  0  0  0  0  0  0
    5.7364   -2.7985    7.1718 H   0  0  0  0  0  0  0  0  0  0  0  0
    6.3747   -1.0934    7.1963 H   0  0  0  0  0  0  0  0  0  0  0  0
    8.1652   -4.3002    6.3829 H   0  0  0  0  0  0  0  0  0  0  0  0
    9.3286   -4.6580    4.2146 H   0  0  0  0  0  0  0  0  0  0  0  0
   10.6423   -4.6993    2.4023 H   0  0  0  0  0  0  0  0  0  0  0  0
   10.8853   -4.3047   -2.3329 H   0  0  0  0  0  0  0  0  0  0  0  0
   12.5566   -5.7588   -3.4749 H   0  0  0  0  0  0  0  0  0  0  0  0
   14.2745   -6.9780   -2.1393 H   0  0  0  0  0  0  0  0  0  0  0  0
   14.3220   -6.7383    0.3438 H   0  0  0  0  0  0  0  0  0  0  0  0
   12.6554   -5.2818    1.4906 H   0  0  0  0  0  0  0  0  0  0  0  0
   10.1856   -2.5716   -1.3716 H   0  0  0  0  0  0  0  0  0  0  0  0
    7.8118   -0.8757    2.7776 H   0  0  0  0  0  0  0  0  0  0  0  0
    6.6600   -0.5117    4.9511 H   0  0  0  0  0  0  0  0  0  0  0  0
    3.4560   -6.5820   10.5280 H   0  0  0  0  0  0  0  0  0  0  0  0
    2.9966   -7.5425    7.8749 H   0  0  0  0  0  0  0  0  0  0  0  0
    3.2075   -8.8307   10.2096 H   0  0  0  0  0  0  0  0  0  0  0  0
    1.3904   -8.7626   10.0031 H   0  0  0  0  0  0  0  0  0  0  0  0
    2.3600   -9.5109    7.5021 H   0  0  0  0  0  0  0  0  0  0  0  0
    3.3526  -10.4479    8.7103 H   0  0  0  0  0  0  0  0  0  0  0  0
   -0.0150   -5.0690    8.7240 H   0  0  0  0  0  0  0  0  0  0  0  0
    1.5350   -5.0150    9.5070 H   0  0  0  0  0  0  0  0  0  0  0  0
  1  2  1  0
  2  3  2  0
  2  4  1  0
  4  5  1  0
  5  6  1  0
  6  7  1  0
  7  8  1  0
  8  9  2  0
  8 10  1  0
 10 11  1  0
 11 12  1  0
 12 13  2  0
 13 14  1  0
 14 15  2  0
 15 16  1  0
 16 17  2  0
 17 18  1  0
 18 19  1  0
 19 20  2  0
 20 21  1  0
 21 22  2  0
 22 23  1  0
 23 24  2  0
 18 25  2  0
 25 26  1  0
 15 27  1  0
 27 28  2  0
  6 29  1  0
 29 30  2  0
 29 31  1  0
 31 32  1  0
 32 33  1  0
 33 34  1  0
 34 35  1  0
 35 36  2  0
 35 37  1  0
 32 38  1  0
 38 39  1  0
 38 40  2  0
 28 12  1  0
 26 16  1  0
 24 19  1  0
  1 41  1  0
  1 42  1  0
  4 43  1  0
  4 44  1  0
  5 45  1  0
  5 46  1  0
  6 47  1  1
  7 48  1  0
 10 49  1  0
 10 50  1  0
 11 51  1  0
 11 52  1  0
 13 53  1  0
 14 54  1  0
 17 55  1  0
 20 56  1  0
 21 57  1  0
 22 58  1  0
 23 59  1  0
 24 60  1  0
 25 61  1  0
 27 62  1  0
 28 63  1  0
 31 64  1  0
 32 65  1  6
 33 66  1  0
 33 67  1  0
 34 68  1  0
 34 69  1  0
 39 70  1  0
 39 71  1  0
M  CHG  1  37  -1
M  END
>  <meeko>  (1) 
{"is_sidechain": [false], "free_energy": -9.615, "intermolecular_energy": -18.046, "internal_energy": -2.113}

$$$$
3tsk_ligand
     RDKit          3D

 71 73  0  0  0  0  0  0  0  0999 V2000
    6.5710   -6.5390   13.1930 N   0  0  0  0  0  0  0  0  0  0  0  0
    5.5660   -5.9500   12.4850 C   0  0  0  0  0  0  0  0  0  0  0  0
    4.5370   -6.5580   12.2050 O   0  0  0  0  0  0  0  0  0  0  0  0
    5.7990   -4.4900   12.1580 C   0  0  0  0  0  0  0  0  0  0  0  0
    4.9750   -4.0450   10.9500 C   0  0  0  0  0  0  0  0  0  0  0  0
    5.5580   -4.5290    9.6170 C   0  0  2  0  0  0  0  0  0  0  0  0
    6.0850   -3.3910    8.8610 N   0  0  0  0  0  0  0  0  0  0  0  0
    7.4350   -3.1180    8.8420 C   0  0  0  0  0  0  0  0  0  0  0  0
    8.2390   -3.6140    9.6240 O   0  0  0  0  0  0  0  0  0  0  0  0
    7.8200   -2.1620    7.7270 C   0  0  0  0  0  0  0  0  0  0  0  0
    6.8700   -2.2070    6.5330 C   0  0  0  0  0  0  0  0  0  0  0  0
    7.5890   -2.4140    5.2200 C   0  0  0  0  0  0  0  0  0  0  0  0
    7.4900   -1.4670    4.1950 C   0  0  0  0  0  0  0  0  0  0  0  0
    8.1440   -1.6670    2.9750 C   0  0  0  0  0  0  0  0  0  0  0  0
    8.9090   -2.8200    2.7510 C   0  0  0  0  0  0  0  0  0  0  0  0
    9.6200   -3.0410    1.4850 C   0  0  0  0  0  0  0  0  0  0  0  0
   10.5630   -4.0070    1.1830 C   0  0  0  0  0  0  0  0  0  0  0  0
   11.0410   -3.9340   -0.1660 C   0  0  0  0  0  0  0  0  0  0  0  0
   12.0280   -4.8040   -0.7990 C   0  0  0  0  0  0  0  0  0  0  0  0
   13.0290   -5.4280   -0.0430 C   0  0  0  0  0  0  0  0  0  0  0  0
   13.9640   -6.2640   -0.6590 C   0  0  0  0  0  0  0  0  0  0  0  0
   13.9060   -6.4830   -2.0350 C   0  0  0  0  0  0  0  0  0  0  0  0
   12.9110   -5.8700   -2.7950 C   0  0  0  0  0  0  0  0  0  0  0  0
   11.9740   -5.0350   -2.1800 C   0  0  0  0  0  0  0  0  0  0  0  0
   10.4160   -2.9130   -0.8520 C   0  0  0  0  0  0  0  0  0  0  0  0
    9.2970   -2.0580    0.1170 S   0  0  0  0  0  0  0  0  0  0  0  0
    9.0060   -3.7660    3.7820 C   0  0  0  0  0  0  0  0  0  0  0  0
    8.3480   -3.5690    5.0010 C   0  0  0  0  0  0  0  0  0  0  0  0
    4.4490   -5.1420    8.7270 C   0  0  0  0  0  0  0  0  0  0  0  0
    4.1600   -4.6530    7.6340 O   0  0  0  0  0  0  0  0  0  0  0  0
    3.7890   -6.2020    9.2960 N   0  0  0  0  0  0  0  0  0  0  0  0
    2.6160   -6.8560    8.7210 C   0  0  1  0  0  0  0  0  0  0  0  0
    2.4400   -8.3240    9.1600 C   0  0  0  0  0  0  0  0  0  0  0  0
    1.2060   -9.0040    8.5650 C   0  0  0  0  0  0  0  0  0  0  0  0
    1.5140  -10.3710    7.9580 C   0  0  0  0  0  0  0  0  0  0  0  0
    0.4980  -11.0120    7.5580 O   0  0  0  0  0  0  0  0  0  0  0  0
    2.7290  -10.7110    7.9590 O   0  0  0  0  0  0  0  0  0  0  0  0
    1.3320   -6.0160    8.9060 C   0  0  0  0  0  0  0  0  0  0  0  0
    1.0170   -5.1920    7.8560 N   0  0  0  0  0  0  0  0  0  0  0  0
    0.6430   -5.9870    9.9230 O   0  0  0  0  0  0  0  0  0  0  0  0
    7.5420   -6.2130   13.0180 H   0  0  0  0  0  0  0  0  0  0  0  0
    6.5140   -7.5420   13.2860 H   0  0  0  0  0  0  0  0  0  0  0  0
    5.5151   -3.8797   13.0280 H   0  0  0  0  0  0  0  0  0  0  0  0
    6.8637   -4.3576   11.9155 H   0  0  0  0  0  0  0  0  0  0  0  0
    3.9561   -4.4464   11.0535 H   0  0  0  0  0  0  0  0  0  0  0  0
    4.9829   -2.9452   10.9330 H   0  0  0  0  0  0  0  0  0  0  0  0
    6.3386   -5.2676    9.8519 H   0  0  0  0  0  0  0  0  0  0  0  0
    5.5780   -3.2100    7.9990 H   0  0  0  0  0  0  0  0  0  0  0  0
    7.8236   -1.1389    8.1310 H   0  0  0  0  0  0  0  0  0  0  0  0
    8.8117   -2.4700    7.3640 H   0  0  0  0  0  0  0  0  0  0  0  0
    6.1604   -3.0347    6.6794 H   0  0  0  0  0  0  0  0  0  0  0  0
    6.3579   -1.2349    6.4805 H   0  0  0  0  0  0  0  0  0  0  0  0
    6.8923   -0.5567    4.3500 H   0  0  0  0  0  0  0  0  0  0  0  0
    8.0570   -0.9102    2.1815 H   0  0  0  0  0  0  0  0  0  0  0  0
   10.9118   -4.7577    1.9074 H   0  0  0  0  0  0  0  0  0  0  0  0
   13.0792   -5.2587    1.0427 H   0  0  0  0  0  0  0  0  0  0  0  0
   14.7467   -6.7499   -0.0579 H   0  0  0  0  0  0  0  0  0  0  0  0
   14.6443   -7.1385   -2.5200 H   0  0  0  0  0  0  0  0  0  0  0  0
   12.8633   -6.0437   -3.8801 H   0  0  0  0  0  0  0  0  0  0  0  0
   11.1892   -4.5561   -2.7839 H   0  0  0  0  0  0  0  0  0  0  0  0
   10.6159   -2.6752   -1.9072 H   0  0  0  0  0  0  0  0  0  0  0  0
    9.6072   -4.6746    3.6303 H   0  0  0  0  0  0  0  0  0  0  0  0
    8.4280   -4.3279    5.7933 H   0  0  0  0  0  0  0  0  0  0  0  0
    4.1740   -6.6330   10.1260 H   0  0  0  0  0  0  0  0  0  0  0  0
    2.8085   -6.9094    7.6393 H   0  0  0  0  0  0  0  0  0  0  0  0
    3.3311   -8.8883    8.8477 H   0  0  0  0  0  0  0  0  0  0  0  0
    2.3062   -8.3174   10.2518 H   0  0  0  0  0  0  0  0  0  0  0  0
    0.4589   -9.1343    9.3618 H   0  0  0  0  0  0  0  0  0  0  0  0
    0.8333   -8.3600    7.7548 H   0  0  0  0  0  0  0  0  0  0  0  0
    0.2690   -4.5330    8.0130 H   0  0  0  0  0  0  0  0  0  0  0  0
    1.7280   -4.9580    7.1710 H   0  0  0  0  0  0  0  0  0  0  0  0
  1  2  1  0
  2  3  2  0
  2  4  1  0
  4  5  1  0
  5  6  1  0
  6  7  1  0
  7  8  1  0
  8  9  2  0
  8 10  1  0
 10 11  1  0
 11 12  1  0
 12 13  2  0
 13 14  1  0
 14 15  2  0
 15 16  1  0
 16 17  2  0
 17 18  1  0
 18 19  1  0
 19 20  2  0
 20 21  1  0
 21 22  2  0
 22 23  1  0
 23 24  2  0
 18 25  2  0
 25 26  1  0
 15 27  1  0
 27 28  2  0
  6 29  1  0
 29 30  2  0
 29 31  1  0
 31 32  1  0
 32 33  1  0
 33 34  1  0
 34 35  1  0
 35 36  2  0
 35 37  1  0
 32 38  1  0
 38 39  1  0
 38 40  2  0
 28 12  1  0
 26 16  1  0
 24 19  1  0
  1 41  1  0
  1 42  1  0
  4 43  1  0
  4 44  1  0
  5 45  1  0
  5 46  1  0
  6 47  1  1
  7 48  1  0
 10 49  1  0
 10 50  1  0
 11 51  1  0
 11 52  1  0
 13 53  1  0
 14 54  1  0
 17 55  1  0
 20 56  1  0
 21 57  1  0
 22 58  1  0
 23 59  1  0
 24 60  1  0
 25 61  1  0
 27 62  1  0
 28 63  1  0
 31 64  1  0
 32 65  1  6
 33 66  1  0
 33 67  1  0
 34 68  1  0
 34 69  1  0
 39 70  1  0
 39 71  1  0
M  CHG  1  37  -1
M  END
>  <meeko>  (2) 
{"is_sidechain": [false], "free_energy": -9.462, "intermolecular_energy": -17.775, "internal_energy": -2.098}

$$$$
3tsk_ligand
     RDKit          3D

 71 73  0  0  0  0  0  0  0  0999 V2000
   11.4990   -1.4800   11.2660 N   0  0  0  0  0  0  0  0  0  0  0  0
   10.6670   -2.2410   12.0320 C   0  0  0  0  0  0  0  0  0  0  0  0
   10.1420   -1.7950   13.0470 O   0  0  0  0  0  0  0  0  0  0  0  0
   10.3970   -3.6260   11.4810 C   0  0  0  0  0  0  0  0  0  0  0  0
    8.9100   -3.9730   11.5350 C   0  0  0  0  0  0  0  0  0  0  0  0
    8.3280   -4.3300   10.1620 C   0  0  2  0  0  0  0  0  0  0  0  0
    7.7800   -3.1300    9.5260 N   0  0  0  0  0  0  0  0  0  0  0  0
    8.4900   -2.4560    8.5560 C   0  0  0  0  0  0  0  0  0  0  0  0
    9.6840   -2.6350    8.3400 O   0  0  0  0  0  0  0  0  0  0  0  0
    7.6230   -1.4940    7.7630 C   0  0  0  0  0  0  0  0  0  0  0  0
    6.7490   -2.1830    6.7170 C   0  0  0  0  0  0  0  0  0  0  0  0
    7.4710   -2.4050    5.4080 C   0  0  0  0  0  0  0  0  0  0  0  0
    8.2300   -3.5620    5.2000 C   0  0  0  0  0  0  0  0  0  0  0  0
    8.9090   -3.7600    3.9930 C   0  0  0  0  0  0  0  0  0  0  0  0
    8.8490   -2.8040    2.9700 C   0  0  0  0  0  0  0  0  0  0  0  0
    9.5390   -3.0010    1.6890 C   0  0  0  0  0  0  0  0  0  0  0  0
   10.4410   -3.9900    1.3370 C   0  0  0  0  0  0  0  0  0  0  0  0
   10.9090   -3.8800   -0.0130 C   0  0  0  0  0  0  0  0  0  0  0  0
   11.8550   -4.7610   -0.6910 C   0  0  0  0  0  0  0  0  0  0  0  0
   11.7920   -4.9570   -2.0770 C   0  0  0  0  0  0  0  0  0  0  0  0
   12.7070   -5.7970   -2.7160 C   0  0  0  0  0  0  0  0  0  0  0  0
   13.6940   -6.4460   -1.9760 C   0  0  0  0  0  0  0  0  0  0  0  0
   13.7680   -6.2550   -0.5970 C   0  0  0  0  0  0  0  0  0  0  0  0
   12.8540   -5.4130    0.0430 C   0  0  0  0  0  0  0  0  0  0  0  0
   10.3180   -2.8080   -0.6500 C   0  0  0  0  0  0  0  0  0  0  0  0
    9.2420   -1.9520    0.3640 S   0  0  0  0  0  0  0  0  0  0  0  0
    8.0870   -1.6460    3.1840 C   0  0  0  0  0  0  0  0  0  0  0  0
    7.4110   -1.4450    4.3920 C   0  0  0  0  0  0  0  0  0  0  0  0
    7.1340   -5.3040   10.3110 C   0  0  0  0  0  0  0  0  0  0  0  0
    7.3030   -6.4810   10.6340 O   0  0  0  0  0  0  0  0  0  0  0  0
    5.9180   -4.7620    9.9820 N   0  0  0  0  0  0  0  0  0  0  0  0
    4.6670   -5.5130    9.9050 C   0  0  1  0  0  0  0  0  0  0  0  0
    3.7480   -5.3250   11.1290 C   0  0  0  0  0  0  0  0  0  0  0  0
    3.5410   -3.8640   11.5290 C   0  0  0  0  0  0  0  0  0  0  0  0
    3.0110   -3.7040   12.9520 C   0  0  0  0  0  0  0  0  0  0  0  0
    3.0070   -4.7700   13.6350 O   0  0  0  0  0  0  0  0  0  0  0  0
    2.6100   -2.5490   13.2630 O   0  0  0  0  0  0  0  0  0  0  0  0
    3.9330   -5.2860    8.5630 C   0  0  0  0  0  0  0  0  0  0  0  0
    4.7020   -5.4580    7.4410 N   0  0  0  0  0  0  0  0  0  0  0  0
    2.7710   -4.9050    8.4460 O   0  0  0  0  0  0  0  0  0  0  0  0
   12.2510   -1.9660   10.7380 H   0  0  0  0  0  0  0  0  0  0  0  0
   11.8200   -0.6210   11.6860 H   0  0  0  0  0  0  0  0  0  0  0  0
   10.7352   -3.6662   10.4350 H   0  0  0  0  0  0  0  0  0  0  0  0
   10.9428   -4.3544   12.0987 H   0  0  0  0  0  0  0  0  0  0  0  0
    8.7749   -4.8330   12.2074 H   0  0  0  0  0  0  0  0  0  0  0  0
    8.3769   -3.0814   11.8967 H   0  0  0  0  0  0  0  0  0  0  0  0
    9.1401   -4.7785    9.5710 H   0  0  0  0  0  0  0  0  0  0  0  0
    6.7720   -3.1640    9.4030 H   0  0  0  0  0  0  0  0  0  0  0  0
    6.9682   -0.9562    8.4644 H   0  0  0  0  0  0  0  0  0  0  0  0
    8.3012   -0.8168    7.2230 H   0  0  0  0  0  0  0  0  0  0  0  0
    6.4297   -3.1585    7.1126 H   0  0  0  0  0  0  0  0  0  0  0  0
    5.8909   -1.5249    6.5156 H   0  0  0  0  0  0  0  0  0  0  0  0
    8.2933   -4.3224    5.9923 H   0  0  0  0  0  0  0  0  0  0  0  0
    9.4974   -4.6776    3.8450 H   0  0  0  0  0  0  0  0  0  0  0  0
   10.7668   -4.7830    2.0262 H   0  0  0  0  0  0  0  0  0  0  0  0
   11.0164   -4.4457   -2.6661 H   0  0  0  0  0  0  0  0  0  0  0  0
   12.6486   -5.9465   -3.8042 H   0  0  0  0  0  0  0  0  0  0  0  0
   14.4137   -7.1081   -2.4795 H   0  0  0  0  0  0  0  0  0  0  0  0
   14.5462   -6.7672   -0.0122 H   0  0  0  0  0  0  0  0  0  0  0  0
   12.9198   -5.2614    1.1305 H   0  0  0  0  0  0  0  0  0  0  0  0
   10.5179   -2.5345   -1.6965 H   0  0  0  0  0  0  0  0  0  0  0  0
    8.0201   -0.8860    2.3916 H   0  0  0  0  0  0  0  0  0  0  0  0
    6.8277   -0.5249    4.5443 H   0  0  0  0  0  0  0  0  0  0  0  0
    5.8410   -3.7610    9.8660 H   0  0  0  0  0  0  0  0  0  0  0  0
    4.9575   -6.5735    9.9340 H   0  0  0  0  0  0  0  0  0  0  0  0
    2.7662   -5.7627   10.8956 H   0  0  0  0  0  0  0  0  0  0  0  0
    4.2406   -5.8219   11.9778 H   0  0  0  0  0  0  0  0  0  0  0  0
    4.5051   -3.3399   11.4531 H   0  0  0  0  0  0  0  0  0  0  0  0
    2.7882   -3.4401   10.8481 H   0  0  0  0  0  0  0  0  0  0  0  0
    4.2850   -5.1760    6.5650 H   0  0  0  0  0  0  0  0  0  0  0  0
    5.7130   -5.4450    7.5190 H   0  0  0  0  0  0  0  0  0  0  0  0
  1  2  1  0
  2  3  2  0
  2  4  1  0
  4  5  1  0
  5  6  1  0
  6  7  1  0
  7  8  1  0
  8  9  2  0
  8 10  1  0
 10 11  1  0
 11 12  1  0
 12 13  2  0
 13 14  1  0
 14 15  2  0
 15 16  1  0
 16 17  2  0
 17 18  1  0
 18 19  1  0
 19 20  2  0
 20 21  1  0
 21 22  2  0
 22 23  1  0
 23 24  2  0
 18 25  2  0
 25 26  1  0
 15 27  1  0
 27 28  2  0
  6 29  1  0
 29 30  2  0
 29 31  1  0
 31 32  1  0
 32 33  1  0
 33 34  1  0
 34 35  1  0
 35 36  2  0
 35 37  1  0
 32 38  1  0
 38 39  1  0
 38 40  2  0
 28 12  1  0
 26 16  1  0
 24 19  1  0
  1 41  1  0
  1 42  1  0
  4 43  1  0
  4 44  1  0
  5 45  1  0
  5 46  1  0
  6 47  1  6
  7 48  1  0
 10 49  1  0
 10 50  1  0
 11 51  1  0
 11 52  1  0
 13 53  1  0
 14 54  1  0
 17 55  1  0
 20 56  1  0
 21 57  1  0
 22 58  1  0
 23 59  1  0
 24 60  1  0
 25 61  1  0
 27 62  1  0
 28 63  1  0
 31 64  1  0
 32 65  1  6
 33 66  1  0
 33 67  1  0
 34 68  1  0
 34 69  1  0
 39 70  1  0
 39 71  1  0
M  CHG  1  37  -1
M  END
>  <meeko>  (3) 
{"is_sidechain": [false], "free_energy": -9.305, "intermolecular_energy": -17.785, "internal_energy": -1.794}

$$$$
3tsk_ligand
     RDKit          3D

 71 73  0  0  0  0  0  0  0  0999 V2000
   11.4460   -6.7490    9.8220 N   0  0  0  0  0  0  0  0  0  0  0  0
   10.3030   -6.8680   10.5540 C   0  0  0  0  0  0  0  0  0  0  0  0
    9.9750   -7.9360   11.0630 O   0  0  0  0  0  0  0  0  0  0  0  0
    9.5400   -5.5730   10.7430 C   0  0  0  0  0  0  0  0  0  0  0  0
   10.4650   -4.3590   10.6690 C   0  0  0  0  0  0  0  0  0  0  0  0
    9.8190   -3.1570    9.9680 C   0  0  2  0  0  0  0  0  0  0  0  0
    8.8790   -3.6220    8.9460 N   0  0  0  0  0  0  0  0  0  0  0  0
    7.5400   -3.3080    9.0200 C   0  0  0  0  0  0  0  0  0  0  0  0
    7.0020   -2.8630   10.0290 O   0  0  0  0  0  0  0  0  0  0  0  0
    6.8130   -3.5430    7.7080 C   0  0  0  0  0  0  0  0  0  0  0  0
    6.7460   -2.3030    6.8200 C   0  0  0  0  0  0  0  0  0  0  0  0
    7.4620   -2.4880    5.5020 C   0  0  0  0  0  0  0  0  0  0  0  0
    7.3080   -1.5560    4.4700 C   0  0  0  0  0  0  0  0  0  0  0  0
    7.9600   -1.7350    3.2460 C   0  0  0  0  0  0  0  0  0  0  0  0
    8.7760   -2.8520    3.0240 C   0  0  0  0  0  0  0  0  0  0  0  0
    9.4840   -3.0510    1.7530 C   0  0  0  0  0  0  0  0  0  0  0  0
   10.4200   -4.0180    1.4280 C   0  0  0  0  0  0  0  0  0  0  0  0
   10.8970   -3.9190    0.0810 C   0  0  0  0  0  0  0  0  0  0  0  0
   11.8760   -4.7820   -0.5720 C   0  0  0  0  0  0  0  0  0  0  0  0
   12.7760   -5.5510    0.1800 C   0  0  0  0  0  0  0  0  0  0  0  0
   13.7040   -6.3780   -0.4560 C   0  0  0  0  0  0  0  0  0  0  0  0
   13.7410   -6.4460   -1.8480 C   0  0  0  0  0  0  0  0  0  0  0  0
   12.8490   -5.6890   -2.6060 C   0  0  0  0  0  0  0  0  0  0  0  0
   11.9180   -4.8620   -1.9700 C   0  0  0  0  0  0  0  0  0  0  0  0
   10.2800   -2.8780   -0.5820 C   0  0  0  0  0  0  0  0  0  0  0  0
    9.1690   -2.0360    0.4060 S   0  0  0  0  0  0  0  0  0  0  0  0
    8.9270   -3.7840    4.0610 C   0  0  0  0  0  0  0  0  0  0  0  0
    8.2730   -3.6080    5.2850 C   0  0  0  0  0  0  0  0  0  0  0  0
   10.8850   -2.3310    9.2080 C   0  0  0  0  0  0  0  0  0  0  0  0
   11.1470   -2.5540    8.0250 O   0  0  0  0  0  0  0  0  0  0  0  0
   11.5440   -1.4090    9.9830 N   0  0  0  0  0  0  0  0  0  0  0  0
   12.6830   -0.6120    9.5360 C   0  0  1  0  0  0  0  0  0  0  0  0
   12.3000    0.5660    8.6170 C   0  0  0  0  0  0  0  0  0  0  0  0
   13.2610    0.7740    7.4450 C   0  0  0  0  0  0  0  0  0  0  0  0
   13.8920    2.1650    7.4310 C   0  0  0  0  0  0  0  0  0  0  0  0
   15.0270    2.2340    7.9860 O   0  0  0  0  0  0  0  0  0  0  0  0
   13.1970    3.0770    6.9040 O   0  0  0  0  0  0  0  0  0  0  0  0
   13.5910   -0.1840   10.7120 C   0  0  0  0  0  0  0  0  0  0  0  0
   12.9580   -0.0620   11.9230 N   0  0  0  0  0  0  0  0  0  0  0  0
   14.7800    0.1130   10.6200 O   0  0  0  0  0  0  0  0  0  0  0  0
   11.4630   -6.0410    9.0610 H   0  0  0  0  0  0  0  0  0  0  0  0
   11.8850   -7.6150    9.5480 H   0  0  0  0  0  0  0  0  0  0  0  0
    8.7777   -5.4895    9.9544 H   0  0  0  0  0  0  0  0  0  0  0  0
    9.0743   -5.5904   11.7394 H   0  0  0  0  0  0  0  0  0  0  0  0
   10.7380   -4.0630   11.6927 H   0  0  0  0  0  0  0  0  0  0  0  0
   11.3457   -4.6511   10.0782 H   0  0  0  0  0  0  0  0  0  0  0  0
    9.3231   -2.5554   10.7440 H   0  0  0  0  0  0  0  0  0  0  0  0
    9.2820   -3.6550    8.0140 H   0  0  0  0  0  0  0  0  0  0  0  0
    7.3366   -4.3382    7.1571 H   0  0  0  0  0  0  0  0  0  0  0  0
    5.7779   -3.8204    7.9561 H   0  0  0  0  0  0  0  0  0  0  0  0
    5.6897   -2.0726    6.6170 H   0  0  0  0  0  0  0  0  0  0  0  0
    7.2462   -1.4834    7.3568 H   0  0  0  0  0  0  0  0  0  0  0  0
    6.6682   -0.6744    4.6229 H   0  0  0  0  0  0  0  0  0  0  0  0
    7.8306   -0.9895    2.4475 H   0  0  0  0  0  0  0  0  0  0  0  0
   10.7638   -4.7872    2.1352 H   0  0  0  0  0  0  0  0  0  0  0  0
   12.7506   -5.5023    1.2786 H   0  0  0  0  0  0  0  0  0  0  0  0
   14.4068   -6.9767    0.1420 H   0  0  0  0  0  0  0  0  0  0  0  0
   14.4737   -7.0966   -2.3479 H   0  0  0  0  0  0  0  0  0  0  0  0
   12.8775   -5.7422   -3.7043 H   0  0  0  0  0  0  0  0  0  0  0  0
   11.2132   -4.2697   -2.5720 H   0  0  0  0  0  0  0  0  0  0  0  0
   10.4814   -2.6186   -1.6318 H   0  0  0  0  0  0  0  0  0  0  0  0
    9.5681   -4.6650    3.9099 H   0  0  0  0  0  0  0  0  0  0  0  0
    8.3970   -4.3552    6.0827 H   0  0  0  0  0  0  0  0  0  0  0  0
   11.1790   -1.1860   10.8990 H   0  0  0  0  0  0  0  0  0  0  0  0
   13.2797   -1.2814    8.8989 H   0  0  0  0  0  0  0  0  0  0  0  0
   11.2950    0.3769    8.2118 H   0  0  0  0  0  0  0  0  0  0  0  0
   12.3424    1.4777    9.2311 H   0  0  0  0  0  0  0  0  0  0  0  0
   14.0641    0.0253    7.5129 H   0  0  0  0  0  0  0  0  0  0  0  0
   12.6781    0.6675    6.5183 H   0  0  0  0  0  0  0  0  0  0  0  0
   13.4970    0.3530   12.6690 H   0  0  0  0  0  0  0  0  0  0  0  0
   11.9480    0.0210   11.9550 H   0  0  0  0  0  0  0  0  0  0  0  0
  1  2  1  0
  2  3  2  0
  2  4  1  0
  4  5  1  0
  5  6  1  0
  6  7  1  0
  7  8  1  0
  8  9  2  0
  8 10  1  0
 10 11  1  0
 11 12  1  0
 12 13  2  0
 13 14  1  0
 14 15  2  0
 15 16  1  0
 16 17  2  0
 17 18  1  0
 18 19  1  0
 19 20  2  0
 20 21  1  0
 21 22  2  0
 22 23  1  0
 23 24  2  0
 18 25  2  0
 25 26  1  0
 15 27  1  0
 27 28  2  0
  6 29  1  0
 29 30  2  0
 29 31  1  0
 31 32  1  0
 32 33  1  0
 33 34  1  0
 34 35  1  0
 35 36  2  0
 35 37  1  0
 32 38  1  0
 38 39  1  0
 38 40  2  0
 28 12  1  0
 26 16  1  0
 24 19  1  0
  1 41  1  0
  1 42  1  0
  4 43  1  0
  4 44  1  0
  5 45  1  0
  5 46  1  0
  6 47  1  1
  7 48  1  0
 10 49  1  0
 10 50  1  0
 11 51  1  0
 11 52  1  0
 13 53  1  0
 14 54  1  0
 17 55  1  0
 20 56  1  0
 21 57  1  0
 22 58  1  0
 23 59  1  0
 24 60  1  0
 25 61  1  0
 27 62  1  0
 28 63  1  0
 31 64  1  0
 32 65  1  6
 33 66  1  0
 33 67  1  0
 34 68  1  0
 34 69  1  0
 39 70  1  0
 39 71  1  0
M  CHG  1  37  -1
M  END
>  <meeko>  (4) 
{"is_sidechain": [false], "free_energy": -9.102, "intermolecular_energy": -17.428, "internal_energy": -1.768}

$$$$
3tsk_ligand
     RDKit          3D

 71 73  0  0  0  0  0  0  0  0999 V2000
    1.7990   -3.9620   14.1440 N   0  0  0  0  0  0  0  0  0  0  0  0
    2.5810   -3.0180   13.5490 C   0  0  0  0  0  0  0  0  0  0  0  0
    2.3920   -1.8190   13.7320 O   0  0  0  0  0  0  0  0  0  0  0  0
    3.7250   -3.5760   12.7290 C   0  0  0  0  0  0  0  0  0  0  0  0
    3.2700   -3.9710   11.3240 C   0  0  0  0  0  0  0  0  0  0  0  0
    4.2850   -4.8600   10.5950 C   0  0  2  0  0  0  0  0  0  0  0  0
    4.5380   -4.3300    9.2530 N   0  0  0  0  0  0  0  0  0  0  0  0
    5.7800   -3.8410    8.9080 C   0  0  0  0  0  0  0  0  0  0  0  0
    6.6560   -3.5770    9.7240 O   0  0  0  0  0  0  0  0  0  0  0  0
    5.9510   -3.6990    7.4060 C   0  0  0  0  0  0  0  0  0  0  0  0
    6.7180   -2.4430    6.9980 C   0  0  0  0  0  0  0  0  0  0  0  0
    7.4210   -2.5930    5.6690 C   0  0  0  0  0  0  0  0  0  0  0  0
    8.2440   -3.6970    5.4190 C   0  0  0  0  0  0  0  0  0  0  0  0
    8.9060   -3.8280    4.1940 C   0  0  0  0  0  0  0  0  0  0  0  0
    8.7640   -2.8570    3.1930 C   0  0  0  0  0  0  0  0  0  0  0  0
    9.4350   -2.9840    1.8930 C   0  0  0  0  0  0  0  0  0  0  0  0
   10.3190   -3.9610    1.4710 C   0  0  0  0  0  0  0  0  0  0  0  0
   10.7710   -3.7760    0.1240 C   0  0  0  0  0  0  0  0  0  0  0  0
   11.6970   -4.6260   -0.6190 C   0  0  0  0  0  0  0  0  0  0  0  0
   12.7270   -5.3150    0.0360 C   0  0  0  0  0  0  0  0  0  0  0  0
   13.6030   -6.1310   -0.6850 C   0  0  0  0  0  0  0  0  0  0  0  0
   13.4570   -6.2650   -2.0650 C   0  0  0  0  0  0  0  0  0  0  0  0
   12.4340   -5.5870   -2.7250 C   0  0  0  0  0  0  0  0  0  0  0  0
   11.5550   -4.7720   -2.0050 C   0  0  0  0  0  0  0  0  0  0  0  0
   10.1870   -2.6610   -0.4400 C   0  0  0  0  0  0  0  0  0  0  0  0
    9.1350   -1.8530    0.6390 S   0  0  0  0  0  0  0  0  0  0  0  0
    7.9390   -1.7520    3.4490 C   0  0  0  0  0  0  0  0  0  0  0  0
    7.2790   -1.6180    4.6750 C   0  0  0  0  0  0  0  0  0  0  0  0
    3.7100   -6.2810   10.3790 C   0  0  0  0  0  0  0  0  0  0  0  0
    4.4030   -7.2850   10.5430 O   0  0  0  0  0  0  0  0  0  0  0  0
    2.4150   -6.3030    9.9250 N   0  0  0  0  0  0  0  0  0  0  0  0
    1.7000   -7.5090    9.5130 C   0  0  1  0  0  0  0  0  0  0  0  0
    1.1460   -8.3400   10.6890 C   0  0  0  0  0  0  0  0  0  0  0  0
    0.0140   -7.6510   11.4540 C   0  0  0  0  0  0  0  0  0  0  0  0
    0.3890   -7.3150   12.8960 C   0  0  0  0  0  0  0  0  0  0  0  0
    1.3890   -6.5490   13.0150 O   0  0  0  0  0  0  0  0  0  0  0  0
   -0.3150   -7.8630   13.7880 O   0  0  0  0  0  0  0  0  0  0  0  0
    0.6350   -7.2140    8.4320 C   0  0  0  0  0  0  0  0  0  0  0  0
    0.5940   -5.9150    7.9930 N   0  0  0  0  0  0  0  0  0  0  0  0
   -0.1920   -8.0190    8.0120 O   0  0  0  0  0  0  0  0  0  0  0  0
    1.6660   -4.8650   13.6470 H   0  0  0  0  0  0  0  0  0  0  0  0
    0.9440   -3.6260   14.5610 H   0  0  0  0  0  0  0  0  0  0  0  0
    4.5120   -2.8118   12.6477 H   0  0  0  0  0  0  0  0  0  0  0  0
    4.1031   -4.4770   13.2342 H   0  0  0  0  0  0  0  0  0  0  0  0
    2.3187   -4.5175   11.4040 H   0  0  0  0  0  0  0  0  0  0  0  0
    3.1629   -3.0452   10.7396 H   0  0  0  0  0  0  0  0  0  0  0  0
    5.1968   -4.8850   11.2098 H   0  0  0  0  0  0  0  0  0  0  0  0
    4.0300   -4.8200    8.5240 H   0  0  0  0  0  0  0  0  0  0  0  0
    6.4975   -4.5777    7.0329 H   0  0  0  0  0  0  0  0  0  0  0  0
    4.9438   -3.6196    6.9710 H   0  0  0  0  0  0  0  0  0  0  0  0
    6.0087   -1.6051    6.9280 H   0  0  0  0  0  0  0  0  0  0  0  0
    7.4884   -2.2622    7.7620 H   0  0  0  0  0  0  0  0  0  0  0  0
    8.3713   -4.4684    6.1927 H   0  0  0  0  0  0  0  0  0  0  0  0
    9.5462   -4.7041    4.0137 H   0  0  0  0  0  0  0  0  0  0  0  0
   10.6431   -4.7978    2.1072 H   0  0  0  0  0  0  0  0  0  0  0  0
   12.8466   -5.2128    1.1247 H   0  0  0  0  0  0  0  0  0  0  0  0
   14.4086   -6.6682   -0.1631 H   0  0  0  0  0  0  0  0  0  0  0  0
   14.1486   -6.9052   -2.6322 H   0  0  0  0  0  0  0  0  0  0  0  0
   12.3178   -5.6931   -3.8137 H   0  0  0  0  0  0  0  0  0  0  0  0
   10.7468   -4.2421   -2.5303 H   0  0  0  0  0  0  0  0  0  0  0  0
   10.3772   -2.3280   -1.4710 H   0  0  0  0  0  0  0  0  0  0  0  0
    7.8093   -0.9807    2.6756 H   0  0  0  0  0  0  0  0  0  0  0  0
    6.6434   -0.7394    4.8593 H   0  0  0  0  0  0  0  0  0  0  0  0
    1.8700   -5.4530    9.9520 H   0  0  0  0  0  0  0  0  0  0  0  0
    2.4570   -8.1560    9.0457 H   0  0  0  0  0  0  0  0  0  0  0  0
    0.7661   -9.2927   10.2916 H   0  0  0  0  0  0  0  0  0  0  0  0
    1.9737   -8.4799   11.3998 H   0  0  0  0  0  0  0  0  0  0  0  0
   -0.2450   -6.7179   10.9322 H   0  0  0  0  0  0  0  0  0  0  0  0
   -0.8345   -8.3502   11.4881 H   0  0  0  0  0  0  0  0  0  0  0  0
   -0.1830   -5.6690    7.3970 H   0  0  0  0  0  0  0  0  0  0  0  0
    1.0260   -5.1840    8.5470 H   0  0  0  0  0  0  0  0  0  0  0  0
  1  2  1  0
  2  3  2  0
  2  4  1  0
  4  5  1  0
  5  6  1  0
  6  7  1  0
  7  8  1  0
  8  9  2  0
  8 10  1  0
 10 11  1  0
 11 12  1  0
 12 13  2  0
 13 14  1  0
 14 15  2  0
 15 16  1  0
 16 17  2  0
 17 18  1  0
 18 19  1  0
 19 20  2  0
 20 21  1  0
 21 22  2  0
 22 23  1  0
 23 24  2  0
 18 25  2  0
 25 26  1  0
 15 27  1  0
 27 28  2  0
  6 29  1  0
 29 30  2  0
 29 31  1  0
 31 32  1  0
 32 33  1  0
 33 34  1  0
 34 35  1  0
 35 36  2  0
 35 37  1  0
 32 38  1  0
 38 39  1  0
 38 40  2  0
 28 12  1  0
 26 16  1  0
 24 19  1  0
  1 41  1  0
  1 42  1  0
  4 43  1  0
  4 44  1  0
  5 45  1  0
  5 46  1  0
  6 47  1  1
  7 48  1  0
 10 49  1  0
 10 50  1  0
 11 51  1  0
 11 52  1  0
 13 53  1  0
 14 54  1  0
 17 55  1  0
 20 56  1  0
 21 57  1  0
 22 58  1  0
 23 59  1  0
 24 60  1  0
 25 61  1  0
 27 62  1  0
 28 63  1  0
 31 64  1  0
 32 65  1  6
 33 66  1  0
 33 67  1  0
 34 68  1  0
 34 69  1  0
 39 70  1  0
 39 71  1  0
M  CHG  1  37  -1
M  END
>  <meeko>  (5) 
{"is_sidechain": [false], "free_energy": -9.047, "intermolecular_energy": -17.014, "internal_energy": -2.08}

$$$$
3tsk_ligand
     RDKit          3D

 71 73  0  0  0  0  0  0  0  0999 V2000
    2.3210   -2.4800   13.2410 N   0  0  0  0  0  0  0  0  0  0  0  0
    2.8410   -3.6870   12.8800 C   0  0  0  0  0  0  0  0  0  0  0  0
    2.5420   -4.7190   13.4750 O   0  0  0  0  0  0  0  0  0  0  0  0
    3.7330   -3.6470   11.6580 C   0  0  0  0  0  0  0  0  0  0  0  0
    4.2300   -5.0410   11.2770 C   0  0  0  0  0  0  0  0  0  0  0  0
    3.9440   -5.3990    9.8130 C   0  0  2  0  0  0  0  0  0  0  0  0
    4.3350   -4.2880    8.9430 N   0  0  0  0  0  0  0  0  0  0  0  0
    5.5410   -4.3020    8.2760 C   0  0  0  0  0  0  0  0  0  0  0  0
    6.4560   -5.0740    8.5440 O   0  0  0  0  0  0  0  0  0  0  0  0
    5.5980   -3.2800    7.1550 C   0  0  0  0  0  0  0  0  0  0  0  0
    6.9290   -2.5350    7.0790 C   0  0  0  0  0  0  0  0  0  0  0  0
    7.5940   -2.6650    5.7280 C   0  0  0  0  0  0  0  0  0  0  0  0
    7.4660   -1.6540    4.7690 C   0  0  0  0  0  0  0  0  0  0  0  0
    8.0710   -1.7810    3.5150 C   0  0  0  0  0  0  0  0  0  0  0  0
    8.8130   -2.9240    3.1890 C   0  0  0  0  0  0  0  0  0  0  0  0
    9.4710   -3.0710    1.8840 C   0  0  0  0  0  0  0  0  0  0  0  0
   10.3970   -4.0200    1.4870 C   0  0  0  0  0  0  0  0  0  0  0  0
   10.8210   -3.8670    0.1270 C   0  0  0  0  0  0  0  0  0  0  0  0
   11.7780   -4.7000   -0.5960 C   0  0  0  0  0  0  0  0  0  0  0  0
   12.7860   -5.3970    0.0830 C   0  0  0  0  0  0  0  0  0  0  0  0
   13.6920   -6.1960   -0.6190 C   0  0  0  0  0  0  0  0  0  0  0  0
   13.5970   -6.3060   -2.0050 C   0  0  0  0  0  0  0  0  0  0  0  0
   12.5960   -5.6200   -2.6910 C   0  0  0  0  0  0  0  0  0  0  0  0
   11.6880   -4.8210   -1.9890 C   0  0  0  0  0  0  0  0  0  0  0  0
   10.1740   -2.8050   -0.4720 C   0  0  0  0  0  0  0  0  0  0  0  0
    9.0990   -2.0070    0.5910 S   0  0  0  0  0  0  0  0  0  0  0  0
    8.9380   -3.9350    4.1520 C   0  0  0  0  0  0  0  0  0  0  0  0
    8.3310   -3.8100    5.4060 C   0  0  0  0  0  0  0  0  0  0  0  0
    2.4240   -5.5910    9.5860 C   0  0  0  0  0  0  0  0  0  0  0  0
    1.8370   -5.0240    8.6640 O   0  0  0  0  0  0  0  0  0  0  0  0
    1.8050   -6.3670   10.5330 N   0  0  0  0  0  0  0  0  0  0  0  0
    0.3620   -6.5780   10.6190 C   0  0  1  0  0  0  0  0  0  0  0  0
   -0.0610   -8.0580   10.5120 C   0  0  0  0  0  0  0  0  0  0  0  0
   -1.1250   -8.3220    9.4470 C   0  0  0  0  0  0  0  0  0  0  0  0
   -0.5490   -8.9140    8.1620 C   0  0  0  0  0  0  0  0  0  0  0  0
    0.6090   -9.4100    8.2850 O   0  0  0  0  0  0  0  0  0  0  0  0
   -1.2730   -8.8070    7.1350 O   0  0  0  0  0  0  0  0  0  0  0  0
   -0.2600   -5.8640   11.8410 C   0  0  0  0  0  0  0  0  0  0  0  0
   -0.7950   -6.6940   12.7920 N   0  0  0  0  0  0  0  0  0  0  0  0
   -0.3650   -4.6460   11.9730 O   0  0  0  0  0  0  0  0  0  0  0  0
    2.8980   -1.6330   13.0700 H   0  0  0  0  0  0  0  0  0  0  0  0
    1.8570   -2.4520   14.1360 H   0  0  0  0  0  0  0  0  0  0  0  0
    3.1643   -3.2282   10.8147 H   0  0  0  0  0  0  0  0  0  0  0  0
    4.6078   -3.0223   11.8915 H   0  0  0  0  0  0  0  0  0  0  0  0
    5.3167   -5.0833   11.4425 H   0  0  0  0  0  0  0  0  0  0  0  0
    3.6910   -5.7659   11.9047 H   0  0  0  0  0  0  0  0  0  0  0  0
    4.5033   -6.3187    9.5867 H   0  0  0  0  0  0  0  0  0  0  0  0
    3.5530   -3.8700    8.4480 H   0  0  0  0  0  0  0  0  0  0  0  0
    5.4352   -3.8009    6.1999 H   0  0  0  0  0  0  0  0  0  0  0  0
    4.8185   -2.5312    7.3590 H   0  0  0  0  0  0  0  0  0  0  0  0
    6.7476   -1.4690    7.2808 H   0  0  0  0  0  0  0  0  0  0  0  0
    7.6027   -2.9815    7.8252 H   0  0  0  0  0  0  0  0  0  0  0  0
    6.8838   -0.7508    5.0040 H   0  0  0  0  0  0  0  0  0  0  0  0
    7.9632   -0.9739    2.7754 H   0  0  0  0  0  0  0  0  0  0  0  0
   10.7707   -4.8138    2.1505 H   0  0  0  0  0  0  0  0  0  0  0  0
   12.8647   -5.3145    1.1771 H   0  0  0  0  0  0  0  0  0  0  0  0
   14.4808   -6.7386   -0.0773 H   0  0  0  0  0  0  0  0  0  0  0  0
   14.3116   -6.9339   -2.5574 H   0  0  0  0  0  0  0  0  0  0  0  0
   12.5203   -5.7072   -3.7849 H   0  0  0  0  0  0  0  0  0  0  0  0
   10.8978   -4.2839   -2.5341 H   0  0  0  0  0  0  0  0  0  0  0  0
   10.3327   -2.5051   -1.5184 H   0  0  0  0  0  0  0  0  0  0  0  0
    9.5209   -4.8382    3.9185 H   0  0  0  0  0  0  0  0  0  0  0  0
    8.4339   -4.6183    6.1449 H   0  0  0  0  0  0  0  0  0  0  0  0
    2.3710   -6.9090   11.1710 H   0  0  0  0  0  0  0  0  0  0  0  0
   -0.0595   -6.1002    9.7223 H   0  0  0  0  0  0  0  0  0  0  0  0
    0.8294   -8.6560   10.2679 H   0  0  0  0  0  0  0  0  0  0  0  0
   -0.5028   -8.3349   11.4806 H   0  0  0  0  0  0  0  0  0  0  0  0
   -1.8641   -9.0261    9.8568 H   0  0  0  0  0  0  0  0  0  0  0  0
   -1.5794   -7.3541    9.1887 H   0  0  0  0  0  0  0  0  0  0  0  0
   -1.3310   -6.2490   13.5230 H   0  0  0  0  0  0  0  0  0  0  0  0
   -1.0120   -7.6550   12.5540 H   0  0  0  0  0  0  0  0  0  0  0  0
  1  2  1  0
  2  3  2  0
  2  4  1  0
  4  5  1  0
  5  6  1  0
  6  7  1  0
  7  8  1  0
  8  9  2  0
  8 10  1  0
 10 11  1  0
 11 12  1  0
 12 13  2  0
 13 14  1  0
 14 15  2  0
 15 16  1  0
 16 17  2  0
 17 18  1  0
 18 19  1  0
 19 20  2  0
 20 21  1  0
 21 22  2  0
 22 23  1  0
 23 24  2  0
 18 25  2  0
 25 26  1  0
 15 27  1  0
 27 28  2  0
  6 29  1  0
 29 30  2  0
 29 31  1  0
 31 32  1  0
 32 33  1  0
 33 34  1  0
 34 35  1  0
 35 36  2  0
 35 37  1  0
 32 38  1  0
 38 39  1  0
 38 40  2  0
 28 12  1  0
 26 16  1  0
 24 19  1  0
  1 41  1  0
  1 42  1  0
  4 43  1  0
  4 44  1  0
  5 45  1  0
  5 46  1  0
  6 47  1  6
  7 48  1  0
 10 49  1  0
 10 50  1  0
 11 51  1  0
 11 52  1  0
 13 53  1  0
 14 54  1  0
 17 55  1  0
 20 56  1  0
 21 57  1  0
 22 58  1  0
 23 59  1  0
 24 60  1  0
 25 61  1  0
 27 62  1  0
 28 63  1  0
 31 64  1  0
 32 65  1  6
 33 66  1  0
 33 67  1  0
 34 68  1  0
 34 69  1  0
 39 70  1  0
 39 71  1  0
M  CHG  1  37  -1
M  END
>  <meeko>  (6) 
{"is_sidechain": [false], "free_energy": -9.038, "intermolecular_energy": -17.198, "internal_energy": -1.879}

$$$$
3tsk_ligand
     RDKit          3D

 71 73  0  0  0  0  0  0  0  0999 V2000
    9.1260   -4.1700    9.7540 N   0  0  0  0  0  0  0  0  0  0  0  0
    8.7500   -3.9070   11.0370 C   0  0  0  0  0  0  0  0  0  0  0  0
    9.2020   -2.9470   11.6540 O   0  0  0  0  0  0  0  0  0  0  0  0
    7.6910   -4.8380   11.5860 C   0  0  0  0  0  0  0  0  0  0  0  0
    6.3280   -4.1520   11.6740 C   0  0  0  0  0  0  0  0  0  0  0  0
    5.3630   -4.5920   10.5670 C   0  0  2  0  0  0  0  0  0  0  0  0
    5.5100   -3.7170    9.4010 N   0  0  0  0  0  0  0  0  0  0  0  0
    6.0720   -4.1840    8.2330 C   0  0  0  0  0  0  0  0  0  0  0  0
    6.7040   -5.2320    8.1550 O   0  0  0  0  0  0  0  0  0  0  0  0
    5.7940   -3.2740    7.0490 C   0  0  0  0  0  0  0  0  0  0  0  0
    6.9090   -2.2660    6.7820 C   0  0  0  0  0  0  0  0  0  0  0  0
    7.5920   -2.4890    5.4530 C   0  0  0  0  0  0  0  0  0  0  0  0
    8.3180   -3.6610    5.2120 C   0  0  0  0  0  0  0  0  0  0  0  0
    8.9620   -3.8610    3.9870 C   0  0  0  0  0  0  0  0  0  0  0  0
    8.8990   -2.8920    2.9770 C   0  0  0  0  0  0  0  0  0  0  0  0
    9.5530   -3.0890    1.6760 C   0  0  0  0  0  0  0  0  0  0  0  0
   10.5060   -4.0280    1.3230 C   0  0  0  0  0  0  0  0  0  0  0  0
   10.9140   -3.9370   -0.0470 C   0  0  0  0  0  0  0  0  0  0  0  0
   11.8920   -4.7780   -0.7320 C   0  0  0  0  0  0  0  0  0  0  0  0
   12.8920   -5.4500   -0.0170 C   0  0  0  0  0  0  0  0  0  0  0  0
   13.8180   -6.2570   -0.6830 C   0  0  0  0  0  0  0  0  0  0  0  0
   13.7510   -6.4000   -2.0680 C   0  0  0  0  0  0  0  0  0  0  0  0
   12.7580   -5.7380   -2.7890 C   0  0  0  0  0  0  0  0  0  0  0  0
   11.8300   -4.9320   -2.1230 C   0  0  0  0  0  0  0  0  0  0  0  0
   10.2290   -2.9310   -0.6970 C   0  0  0  0  0  0  0  0  0  0  0  0
    9.1370   -2.1100    0.3300 S   0  0  0  0  0  0  0  0  0  0  0  0
    8.1710   -1.7190    3.2230 C   0  0  0  0  0  0  0  0  0  0  0  0
    7.5300   -1.5160    4.4490 C   0  0  0  0  0  0  0  0  0  0  0  0
    3.8940   -4.4280   11.0270 C   0  0  0  0  0  0  0  0  0  0  0  0
    3.5650   -3.5490   11.8240 O   0  0  0  0  0  0  0  0  0  0  0  0
    3.0380   -5.3810   10.5340 N   0  0  0  0  0  0  0  0  0  0  0  0
    1.6390   -5.5260   10.9310 C   0  0  1  0  0  0  0  0  0  0  0  0
    0.7410   -6.1470    9.8420 C   0  0  0  0  0  0  0  0  0  0  0  0
    1.4910   -7.0470    8.8600 C   0  0  0  0  0  0  0  0  0  0  0  0
    0.6450   -8.2140    8.3560 C   0  0  0  0  0  0  0  0  0  0  0  0
   -0.5460   -7.9090    8.0520 O   0  0  0  0  0  0  0  0  0  0  0  0
    1.2160   -9.3390    8.3360 O   0  0  0  0  0  0  0  0  0  0  0  0
    1.4930   -6.2280   12.3010 C   0  0  0  0  0  0  0  0  0  0  0  0
    0.5560   -5.6820   13.1400 N   0  0  0  0  0  0  0  0  0  0  0  0
    2.1870   -7.1620   12.6980 O   0  0  0  0  0  0  0  0  0  0  0  0
    9.1190   -5.1610    9.4410 H   0  0  0  0  0  0  0  0  0  0  0  0
    9.9370   -3.6700    9.4220 H   0  0  0  0  0  0  0  0  0  0  0  0
    7.6079   -5.7132   10.9248 H   0  0  0  0  0  0  0  0  0  0  0  0
    7.9905   -5.1386   12.6009 H   0  0  0  0  0  0  0  0  0  0  0  0
    5.8769   -4.3923   12.6481 H   0  0  0  0  0  0  0  0  0  0  0  0
    6.4953   -3.0714   11.5541 H   0  0  0  0  0  0  0  0  0  0  0  0
    5.5951   -5.6409   10.3303 H   0  0  0  0  0  0  0  0  0  0  0  0
    4.7500   -3.0510    9.2990 H   0  0  0  0  0  0  0  0  0  0  0  0
    5.6666   -3.8982    6.1523 H   0  0  0  0  0  0  0  0  0  0  0  0
    4.8876   -2.6986    7.2884 H   0  0  0  0  0  0  0  0  0  0  0  0
    6.4778   -1.2541    6.7904 H   0  0  0  0  0  0  0  0  0  0  0  0
    7.6664   -2.3926    7.5697 H   0  0  0  0  0  0  0  0  0  0  0  0
    8.3826   -4.4322    5.9937 H   0  0  0  0  0  0  0  0  0  0  0  0
    9.5248   -4.7902    3.8143 H   0  0  0  0  0  0  0  0  0  0  0  0
   10.9106   -4.7714    2.0256 H   0  0  0  0  0  0  0  0  0  0  0  0
   12.9485   -5.3416    1.0762 H   0  0  0  0  0  0  0  0  0  0  0  0
   14.6006   -6.7800   -0.1138 H   0  0  0  0  0  0  0  0  0  0  0  0
   14.4810   -7.0347   -2.5917 H   0  0  0  0  0  0  0  0  0  0  0  0
   12.7048   -5.8500   -3.8820 H   0  0  0  0  0  0  0  0  0  0  0  0
   11.0456   -4.4151   -2.6953 H   0  0  0  0  0  0  0  0  0  0  0  0
   10.3702   -2.6844   -1.7597 H   0  0  0  0  0  0  0  0  0  0  0  0
    8.1033   -0.9483    2.4411 H   0  0  0  0  0  0  0  0  0  0  0  0
    6.9727   -0.5843    4.6257 H   0  0  0  0  0  0  0  0  0  0  0  0
    3.3480   -5.9780    9.7800 H   0  0  0  0  0  0  0  0  0  0  0  0
    1.2594   -4.5011   11.0553 H   0  0  0  0  0  0  0  0  0  0  0  0
   -0.0380   -6.7465   10.3357 H   0  0  0  0  0  0  0  0  0  0  0  0
    0.3250   -5.3133    9.2574 H   0  0  0  0  0  0  0  0  0  0  0  0
    1.8024   -6.4409    7.9965 H   0  0  0  0  0  0  0  0  0  0  0  0
    2.3530   -7.4720    9.3951 H   0  0  0  0  0  0  0  0  0  0  0  0
    0.5450   -6.0320   14.0870 H   0  0  0  0  0  0  0  0  0  0  0  0
    0.2200   -4.7400   12.9710 H   0  0  0  0  0  0  0  0  0  0  0  0
  1  2  1  0
  2  3  2  0
  2  4  1  0
  4  5  1  0
  5  6  1  0
  6  7  1  0
  7  8  1  0
  8  9  2  0
  8 10  1  0
 10 11  1  0
 11 12  1  0
 12 13  2  0
 13 14  1  0
 14 15  2  0
 15 16  1  0
 16 17  2  0
 17 18  1  0
 18 19  1  0
 19 20  2  0
 20 21  1  0
 21 22  2  0
 22 23  1  0
 23 24  2  0
 18 25  2  0
 25 26  1  0
 15 27  1  0
 27 28  2  0
  6 29  1  0
 29 30  2  0
 29 31  1  0
 31 32  1  0
 32 33  1  0
 33 34  1  0
 34 35  1  0
 35 36  2  0
 35 37  1  0
 32 38  1  0
 38 39  1  0
 38 40  2  0
 28 12  1  0
 26 16  1  0
 24 19  1  0
  1 41  1  0
  1 42  1  0
  4 43  1  0
  4 44  1  0
  5 45  1  0
  5 46  1  0
  6 47  1  6
  7 48  1  0
 10 49  1  0
 10 50  1  0
 11 51  1  0
 11 52  1  0
 13 53  1  0
 14 54  1  0
 17 55  1  0
 20 56  1  0
 21 57  1  0
 22 58  1  0
 23 59  1  0
 24 60  1  0
 25 61  1  0
 27 62  1  0
 28 63  1  0
 31 64  1  0
 32 65  1  1
 33 66  1  0
 33 67  1  0
 34 68  1  0
 34 69  1  0
 39 70  1  0
 39 71  1  0
M  CHG  1  37  -1
M  END
>  <meeko>  (7) 
{"is_sidechain": [false], "free_energy": -8.871, "intermolecular_energy": -16.859, "internal_energy": -1.905}

$$$$
3tsk_ligand
     RDKit          3D

 71 73  0  0  0  0  0  0  0  0999 V2000
    8.0360   -7.1610   10.7120 N   0  0  0  0  0  0  0  0  0  0  0  0
    7.0650   -6.7240   11.5620 C   0  0  0  0  0  0  0  0  0  0  0  0
    6.0330   -7.3640   11.7410 O   0  0  0  0  0  0  0  0  0  0  0  0
    7.4070   -5.4500   12.3050 C   0  0  0  0  0  0  0  0  0  0  0  0
    6.5080   -4.2900   11.8790 C   0  0  0  0  0  0  0  0  0  0  0  0
    6.0830   -4.3730   10.4070 C   0  0  2  0  0  0  0  0  0  0  0  0
    6.4600   -3.1410    9.7100 N   0  0  0  0  0  0  0  0  0  0  0  0
    7.6930   -3.0200    9.1050 C   0  0  0  0  0  0  0  0  0  0  0  0
    8.6290   -3.7840    9.3120 O   0  0  0  0  0  0  0  0  0  0  0  0
    7.7510   -1.8560    8.1320 C   0  0  0  0  0  0  0  0  0  0  0  0
    6.7620   -1.9800    6.9760 C   0  0  0  0  0  0  0  0  0  0  0  0
    7.4430   -2.2150    5.6470 C   0  0  0  0  0  0  0  0  0  0  0  0
    7.3190   -1.2850    4.6080 C   0  0  0  0  0  0  0  0  0  0  0  0
    7.9380   -1.5100    3.3750 C   0  0  0  0  0  0  0  0  0  0  0  0
    8.6890   -2.6710    3.1490 C   0  0  0  0  0  0  0  0  0  0  0  0
    9.3620   -2.9180    1.8670 C   0  0  0  0  0  0  0  0  0  0  0  0
   10.3420   -3.8500    1.5730 C   0  0  0  0  0  0  0  0  0  0  0  0
   10.7650   -3.8200    0.2040 C   0  0  0  0  0  0  0  0  0  0  0  0
   11.7700   -4.6690   -0.4260 C   0  0  0  0  0  0  0  0  0  0  0  0
   12.6360   -5.4570    0.3450 C   0  0  0  0  0  0  0  0  0  0  0  0
   13.5900   -6.2710   -0.2690 C   0  0  0  0  0  0  0  0  0  0  0  0
   13.6870   -6.3060   -1.6600 C   0  0  0  0  0  0  0  0  0  0  0  0
   12.8280   -5.5300   -2.4360 C   0  0  0  0  0  0  0  0  0  0  0  0
   11.8720   -4.7160   -1.8220 C   0  0  0  0  0  0  0  0  0  0  0  0
   10.0630   -2.8660   -0.5040 C   0  0  0  0  0  0  0  0  0  0  0  0
    8.9380   -2.0210    0.4680 S   0  0  0  0  0  0  0  0  0  0  0  0
    8.8100   -3.6000    4.1930 C   0  0  0  0  0  0  0  0  0  0  0  0
    8.1880   -3.3780    5.4260 C   0  0  0  0  0  0  0  0  0  0  0  0
    4.5420   -4.4620   10.2890 C   0  0  0  0  0  0  0  0  0  0  0  0
    3.9560   -4.1120    9.2630 O   0  0  0  0  0  0  0  0  0  0  0  0
    3.9100   -4.8830   11.4320 N   0  0  0  0  0  0  0  0  0  0  0  0
    2.4620   -4.9140   11.6170 C   0  0  1  0  0  0  0  0  0  0  0  0
    1.8280   -6.2970   11.3650 C   0  0  0  0  0  0  0  0  0  0  0  0
    0.8290   -6.3180   10.2070 C   0  0  0  0  0  0  0  0  0  0  0  0
    1.5030   -6.4370    8.8410 C   0  0  0  0  0  0  0  0  0  0  0  0
    2.4560   -7.2680    8.7940 O   0  0  0  0  0  0  0  0  0  0  0  0
    1.0570   -5.6740    7.9410 O   0  0  0  0  0  0  0  0  0  0  0  0
    2.0340   -4.2960   12.9690 C   0  0  0  0  0  0  0  0  0  0  0  0
    1.7290   -5.2010   13.9530 N   0  0  0  0  0  0  0  0  0  0  0  0
    1.8860   -3.0950   13.1850 O   0  0  0  0  0  0  0  0  0  0  0  0
    8.6240   -6.4460   10.2380 H   0  0  0  0  0  0  0  0  0  0  0  0
    7.7730   -7.9110   10.0920 H   0  0  0  0  0  0  0  0  0  0  0  0
    7.2806   -5.6216   13.3842 H   0  0  0  0  0  0  0  0  0  0  0  0
    8.4475   -5.1830   12.0681 H   0  0  0  0  0  0  0  0  0  0  0  0
    5.6043   -4.2977   12.5061 H   0  0  0  0  0  0  0  0  0  0  0  0
    7.0853   -3.3620   12.0040 H   0  0  0  0  0  0  0  0  0  0  0  0
    6.5710   -5.2596    9.9759 H   0  0  0  0  0  0  0  0  0  0  0  0
    5.6820   -2.6910    9.2380 H   0  0  0  0  0  0  0  0  0  0  0  0
    7.5287   -0.9302    8.6828 H   0  0  0  0  0  0  0  0  0  0  0  0
    8.7605   -1.8489    7.6952 H   0  0  0  0  0  0  0  0  0  0  0  0
    6.0871   -2.8244    7.1796 H   0  0  0  0  0  0  0  0  0  0  0  0
    6.2142   -1.0288    6.9045 H   0  0  0  0  0  0  0  0  0  0  0  0
    6.7294   -0.3694    4.7632 H   0  0  0  0  0  0  0  0  0  0  0  0
    7.8341   -0.7658    2.5717 H   0  0  0  0  0  0  0  0  0  0  0  0
   10.7559   -4.5460    2.3175 H   0  0  0  0  0  0  0  0  0  0  0  0
   12.5634   -5.4339    1.4424 H   0  0  0  0  0  0  0  0  0  0  0  0
   14.2655   -6.8851    0.3447 H   0  0  0  0  0  0  0  0  0  0  0  0
   14.4403   -6.9451   -2.1437 H   0  0  0  0  0  0  0  0  0  0  0  0
   12.9025   -5.5582   -3.5331 H   0  0  0  0  0  0  0  0  0  0  0  0
   11.1948   -4.1079   -2.4397 H   0  0  0  0  0  0  0  0  0  0  0  0
   10.2109   -2.6704   -1.5763 H   0  0  0  0  0  0  0  0  0  0  0  0
    9.4016   -4.5147    4.0401 H   0  0  0  0  0  0  0  0  0  0  0  0
    8.2855   -4.1241    6.2284 H   0  0  0  0  0  0  0  0  0  0  0  0
    4.4610   -5.2850   12.1780 H   0  0  0  0  0  0  0  0  0  0  0  0
    2.0505   -4.2693   10.8264 H   0  0  0  0  0  0  0  0  0  0  0  0
    2.6335   -7.0118   11.1408 H   0  0  0  0  0  0  0  0  0  0  0  0
    1.2691   -6.5630   12.2743 H   0  0  0  0  0  0  0  0  0  0  0  0
    0.1544   -7.1764   10.3413 H   0  0  0  0  0  0  0  0  0  0  0  0
    0.2847   -5.3623   10.2239 H   0  0  0  0  0  0  0  0  0  0  0  0
    1.3110   -4.8240   14.7920 H   0  0  0  0  0  0  0  0  0  0  0  0
    1.5270   -6.1630   13.7050 H   0  0  0  0  0  0  0  0  0  0  0  0
  1  2  1  0
  2  3  2  0
  2  4  1  0
  4  5  1  0
  5  6  1  0
  6  7  1  0
  7  8  1  0
  8  9  2  0
  8 10  1  0
 10 11  1  0
 11 12  1  0
 12 13  2  0
 13 14  1  0
 14 15  2  0
 15 16  1  0
 16 17  2  0
 17 18  1  0
 18 19  1  0
 19 20  2  0
 20 21  1  0
 21 22  2  0
 22 23  1  0
 23 24  2  0
 18 25  2  0
 25 26  1  0
 15 27  1  0
 27 28  2  0
  6 29  1  0
 29 30  2  0
 29 31  1  0
 31 32  1  0
 32 33  1  0
 33 34  1  0
 34 35  1  0
 35 36  2  0
 35 37  1  0
 32 38  1  0
 38 39  1  0
 38 40  2  0
 28 12  1  0
 26 16  1  0
 24 19  1  0
  1 41  1  0
  1 42  1  0
  4 43  1  0
  4 44  1  0
  5 45  1  0
  5 46  1  0
  6 47  1  6
  7 48  1  0
 10 49  1  0
 10 50  1  0
 11 51  1  0
 11 52  1  0
 13 53  1  0
 14 54  1  0
 17 55  1  0
 20 56  1  0
 21 57  1  0
 22 58  1  0
 23 59  1  0
 24 60  1  0
 25 61  1  0
 27 62  1  0
 28 63  1  0
 31 64  1  0
 32 65  1  6
 33 66  1  0
 33 67  1  0
 34 68  1  0
 34 69  1  0
 39 70  1  0
 39 71  1  0
M  CHG  1  37  -1
M  END
>  <meeko>  (8) 
{"is_sidechain": [false], "free_energy": -8.847, "intermolecular_energy": -16.648, "internal_energy": -2.071}

$$$$
3tsk_ligand
     RDKit          3D

 71 73  0  0  0  0  0  0  0  0999 V2000
    8.9040   -3.7290   11.1000 N   0  0  0  0  0  0  0  0  0  0  0  0
    8.6650   -4.0900   12.3920 C   0  0  0  0  0  0  0  0  0  0  0  0
    9.2730   -3.5740   13.3260 O   0  0  0  0  0  0  0  0  0  0  0  0
    7.5510   -5.1010   12.5660 C   0  0  0  0  0  0  0  0  0  0  0  0
    6.2240   -4.5760   12.0190 C   0  0  0  0  0  0  0  0  0  0  0  0
    5.7230   -5.3680   10.8050 C   0  0  2  0  0  0  0  0  0  0  0  0
    5.5440   -4.4690    9.6630 N   0  0  0  0  0  0  0  0  0  0  0  0
    6.4260   -4.4850    8.6040 C   0  0  0  0  0  0  0  0  0  0  0  0
    7.5230   -5.0320    8.6430 O   0  0  0  0  0  0  0  0  0  0  0  0
    5.8760   -3.7800    7.3770 C   0  0  0  0  0  0  0  0  0  0  0  0
    6.6470   -2.5150    7.0060 C   0  0  0  0  0  0  0  0  0  0  0  0
    7.3620   -2.6340    5.6800 C   0  0  0  0  0  0  0  0  0  0  0  0
    7.1100   -1.7200    4.6500 C   0  0  0  0  0  0  0  0  0  0  0  0
    7.7600   -1.8390    3.4180 C   0  0  0  0  0  0  0  0  0  0  0  0
    8.6740   -2.8770    3.1860 C   0  0  0  0  0  0  0  0  0  0  0  0
    9.3820   -3.0090    1.9060 C   0  0  0  0  0  0  0  0  0  0  0  0
   10.2820   -3.9850    1.5150 C   0  0  0  0  0  0  0  0  0  0  0  0
   10.7720   -3.8070    0.1810 C   0  0  0  0  0  0  0  0  0  0  0  0
   11.7220   -4.6580   -0.5300 C   0  0  0  0  0  0  0  0  0  0  0  0
   12.7120   -5.3680    0.1620 C   0  0  0  0  0  0  0  0  0  0  0  0
   13.6120   -6.1840   -0.5280 C   0  0  0  0  0  0  0  0  0  0  0  0
   13.5280   -6.2980   -1.9140 C   0  0  0  0  0  0  0  0  0  0  0  0
   12.5450   -5.5990   -2.6120 C   0  0  0  0  0  0  0  0  0  0  0  0
   11.6430   -4.7840   -1.9230 C   0  0  0  0  0  0  0  0  0  0  0  0
   10.1990   -2.6980   -0.4070 C   0  0  0  0  0  0  0  0  0  0  0  0
    9.1140   -1.8880    0.6360 S   0  0  0  0  0  0  0  0  0  0  0  0
    8.9230   -3.7890    4.2200 C   0  0  0  0  0  0  0  0  0  0  0  0
    8.2690   -3.6740    5.4520 C   0  0  0  0  0  0  0  0  0  0  0  0
    4.3240   -5.9690   11.0850 C   0  0  0  0  0  0  0  0  0  0  0  0
    4.1580   -6.8340   11.9460 O   0  0  0  0  0  0  0  0  0  0  0  0
    3.3350   -5.5110   10.2510 N   0  0  0  0  0  0  0  0  0  0  0  0
    1.9690   -6.0280   10.2210 C   0  0  1  0  0  0  0  0  0  0  0  0
    0.9750   -5.2190   11.0790 C   0  0  0  0  0  0  0  0  0  0  0  0
    0.0320   -6.0840   11.9160 C   0  0  0  0  0  0  0  0  0  0  0  0
    0.7100   -6.6880   13.1450 C   0  0  0  0  0  0  0  0  0  0  0  0
    1.5430   -5.9240   13.7150 O   0  0  0  0  0  0  0  0  0  0  0  0
    0.3890   -7.8760   13.4200 O   0  0  0  0  0  0  0  0  0  0  0  0
    1.4650   -6.2590    8.7780 C   0  0  0  0  0  0  0  0  0  0  0  0
    1.1120   -5.1240    8.0950 N   0  0  0  0  0  0  0  0  0  0  0  0
    1.2980   -7.3570    8.2510 O   0  0  0  0  0  0  0  0  0  0  0  0
    8.7570   -4.4450   10.3610 H   0  0  0  0  0  0  0  0  0  0  0  0
    9.7380   -3.1830   10.9430 H   0  0  0  0  0  0  0  0  0  0  0  0
    7.8187   -6.0230   12.0291 H   0  0  0  0  0  0  0  0  0  0  0  0
    7.4271   -5.2946   13.6417 H   0  0  0  0  0  0  0  0  0  0  0  0
    5.4673   -4.6380   12.8150 H   0  0  0  0  0  0  0  0  0  0  0  0
    6.3896   -3.5392   11.6909 H   0  0  0  0  0  0  0  0  0  0  0  0
    6.4642   -6.1547   10.6008 H   0  0  0  0  0  0  0  0  0  0  0  0
    4.5700   -4.2990    9.4320 H   0  0  0  0  0  0  0  0  0  0  0  0
    5.9191   -4.4763    6.5265 H   0  0  0  0  0  0  0  0  0  0  0  0
    4.8461   -3.4743    7.6133 H   0  0  0  0  0  0  0  0  0  0  0  0
    5.9387   -1.6753    6.9495 H   0  0  0  0  0  0  0  0  0  0  0  0
    7.4105   -2.3526    7.7811 H   0  0  0  0  0  0  0  0  0  0  0  0
    6.3940   -0.9007    4.8115 H   0  0  0  0  0  0  0  0  0  0  0  0
    7.5520   -1.1098    2.6211 H   0  0  0  0  0  0  0  0  0  0  0  0
   10.5909   -4.8165    2.1655 H   0  0  0  0  0  0  0  0  0  0  0  0
   12.7812   -5.2823    1.2565 H   0  0  0  0  0  0  0  0  0  0  0  0
   14.3871   -6.7366    0.0232 H   0  0  0  0  0  0  0  0  0  0  0  0
   14.2374   -6.9396   -2.4572 H   0  0  0  0  0  0  0  0  0  0  0  0
   12.4791   -5.6889   -3.7063 H   0  0  0  0  0  0  0  0  0  0  0  0
   10.8660   -4.2379   -2.4779 H   0  0  0  0  0  0  0  0  0  0  0  0
   10.4167   -2.3710   -1.4345 H   0  0  0  0  0  0  0  0  0  0  0  0
    9.6420   -4.6062    4.0614 H   0  0  0  0  0  0  0  0  0  0  0  0
    8.4698   -4.4072    6.2471 H   0  0  0  0  0  0  0  0  0  0  0  0
    3.5160   -4.7040    9.6700 H   0  0  0  0  0  0  0  0  0  0  0  0
    2.0170   -7.0152   10.7039 H   0  0  0  0  0  0  0  0  0  0  0  0
    1.5501   -4.5746   11.7602 H   0  0  0  0  0  0  0  0  0  0  0  0
    0.3470   -4.6437   10.3829 H   0  0  0  0  0  0  0  0  0  0  0  0
   -0.8106   -5.4612   12.2509 H   0  0  0  0  0  0  0  0  0  0  0  0
   -0.3013   -6.9178   11.2806 H   0  0  0  0  0  0  0  0  0  0  0  0
    0.6470   -5.2610    7.2090 H   0  0  0  0  0  0  0  0  0  0  0  0
    0.9300   -4.2670    8.6050 H   0  0  0  0  0  0  0  0  0  0  0  0
  1  2  1  0
  2  3  2  0
  2  4  1  0
  4  5  1  0
  5  6  1  0
  6  7  1  0
  7  8  1  0
  8  9  2  0
  8 10  1  0
 10 11  1  0
 11 12  1  0
 12 13  2  0
 13 14  1  0
 14 15  2  0
 15 16  1  0
 16 17  2  0
 17 18  1  0
 18 19  1  0
 19 20  2  0
 20 21  1  0
 21 22  2  0
 22 23  1  0
 23 24  2  0
 18 25  2  0
 25 26  1  0
 15 27  1  0
 27 28  2  0
  6 29  1  0
 29 30  2  0
 29 31  1  0
 31 32  1  0
 32 33  1  0
 33 34  1  0
 34 35  1  0
 35 36  2  0
 35 37  1  0
 32 38  1  0
 38 39  1  0
 38 40  2  0
 28 12  1  0
 26 16  1  0
 24 19  1  0
  1 41  1  0
  1 42  1  0
  4 43  1  0
  4 44  1  0
  5 45  1  0
  5 46  1  0
  6 47  1  6
  7 48  1  0
 10 49  1  0
 10 50  1  0
 11 51  1  0
 11 52  1  0
 13 53  1  0
 14 54  1  0
 17 55  1  0
 20 56  1  0
 21 57  1  0
 22 58  1  0
 23 59  1  0
 24 60  1  0
 25 61  1  0
 27 62  1  0
 28 63  1  0
 31 64  1  0
 32 65  1  1
 33 66  1  0
 33 67  1  0
 34 68  1  0
 34 69  1  0
 39 70  1  0
 39 71  1  0
M  CHG  1  37  -1
M  END
>  <meeko>  (9) 
{"is_sidechain": [false], "free_energy": -8.761, "intermolecular_energy": -16.501, "internal_energy": -2.055}

$$$$
