4twp_ligand
     RDKit          3D

 46 49  0  0  0  0  0  0  0  0999 V2000
    3.4820    3.7120   12.1940 C   0  0  0  0  0  0  0  0  0  0  0  0
    3.1760    2.4670   11.5380 N   0  0  0  0  0  0  0  0  0  0  0  0
    2.0290    1.7670   11.8350 C   0  0  0  0  0  0  0  0  0  0  0  0
    1.1420    2.1860   12.5720 O   0  0  0  0  0  0  0  0  0  0  0  0
    1.8770    0.4440   11.1790 C   0  0  0  0  0  0  0  0  0  0  0  0
    2.1620   -0.6760   11.9790 C   0  0  0  0  0  0  0  0  0  0  0  0
    2.0450   -1.9640   11.4600 C   0  0  0  0  0  0  0  0  0  0  0  0
    1.6520   -2.1440   10.1380 C   0  0  0  0  0  0  0  0  0  0  0  0
    1.3860   -1.0360    9.3300 C   0  0  0  0  0  0  0  0  0  0  0  0
    1.5050    0.2700    9.8350 C   0  0  0  0  0  0  0  0  0  0  0  0
    1.2040    1.6180    8.6910 S   0  0  0  0  0  0  0  0  0  0  0  0
   -0.3810    2.1910    9.2880 C   0  0  0  0  0  0  0  0  0  0  0  0
   -1.2940    1.2630    9.7970 C   0  0  0  0  0  0  0  0  0  0  0  0
   -2.5490    1.6700   10.2750 C   0  0  0  0  0  0  0  0  0  0  0  0
   -2.8950    3.0380   10.2350 C   0  0  0  0  0  0  0  0  0  0  0  0
   -4.0170    3.8460   10.5990 C   0  0  0  0  0  0  0  0  0  0  0  0
   -5.2670    3.4180   11.1540 C   0  0  0  0  0  0  0  0  0  0  0  0
   -5.4340    2.6150   12.2190 C   0  0  0  0  0  0  0  0  0  0  0  0
   -6.7230    2.1860   12.7680 C   0  0  0  0  0  0  0  0  0  0  0  0
   -7.9250    2.8400   12.5090 C   0  0  0  0  0  0  0  0  0  0  0  0
   -9.1000    2.3310   13.0580 C   0  0  0  0  0  0  0  0  0  0  0  0
   -9.0470    1.1850   13.8400 C   0  0  0  0  0  0  0  0  0  0  0  0
   -7.8130    0.5880   14.0350 C   0  0  0  0  0  0  0  0  0  0  0  0
   -6.6580    1.0570   13.5130 N   0  0  0  0  0  0  0  0  0  0  0  0
   -3.7700    5.1470   10.3900 N   0  0  0  0  0  0  0  0  0  0  0  0
   -2.5400    5.1670    9.8530 N   0  0  0  0  0  0  0  0  0  0  0  0
   -1.9540    3.9370    9.7450 C   0  0  0  0  0  0  0  0  0  0  0  0
   -0.6940    3.5560    9.2680 C   0  0  0  0  0  0  0  0  0  0  0  0
    3.4472    3.5702   13.2843 H   0  0  0  0  0  0  0  0  0  0  0  0
    4.4885    4.0440   11.8994 H   0  0  0  0  0  0  0  0  0  0  0  0
    2.7441    4.4727   11.8994 H   0  0  0  0  0  0  0  0  0  0  0  0
    3.9220    1.9850   11.0510 H   0  0  0  0  0  0  0  0  0  0  0  0
    2.4798   -0.5348   13.0226 H   0  0  0  0  0  0  0  0  0  0  0  0
    2.2629   -2.8360   12.0942 H   0  0  0  0  0  0  0  0  0  0  0  0
    1.5506   -3.1598    9.7284 H   0  0  0  0  0  0  0  0  0  0  0  0
    1.0793   -1.1878    8.2846 H   0  0  0  0  0  0  0  0  0  0  0  0
   -1.0245    0.1969    9.8233 H   0  0  0  0  0  0  0  0  0  0  0  0
   -3.2566    0.9300   10.6771 H   0  0  0  0  0  0  0  0  0  0  0  0
   -6.1797    3.7825   10.6598 H   0  0  0  0  0  0  0  0  0  0  0  0
   -4.5261    2.2490   12.7208 H   0  0  0  0  0  0  0  0  0  0  0  0
   -7.9463    3.7432   11.8815 H   0  0  0  0  0  0  0  0  0  0  0  0
  -10.0614    2.8327   12.8735 H   0  0  0  0  0  0  0  0  0  0  0  0
   -9.9577    0.7641   14.2910 H   0  0  0  0  0  0  0  0  0  0  0  0
   -7.7702   -0.3221   14.6514 H   0  0  0  0  0  0  0  0  0  0  0  0
   -2.1460    6.0620    9.5870 H   0  0  0  0  0  0  0  0  0  0  0  0
    0.0230    4.3006    8.8918 H   0  0  0  0  0  0  0  0  0  0  0  0
  1  2  1  0
  2  3  1  0
  3  4  2  0
  3  5  1  0
  5  6  2  0
  6  7  1  0
  7  8  2  0
  8  9  1  0
  9 10  2  0
 10 11  1  0
 11 12  1  0
 12 13  2  0
 13 14  1  0
 14 15  2  0
 15 16  1  0
 16 17  1  0
 17 18  2  0
 18 19  1  0
 19 20  2  0
 20 21  1  0
 21 22  2  0
 22 23  1  0
 23 24  2  0
 16 25  2  0
 25 26  1  0
 26 27  1  0
 27 28  2  0
 10  5  1  0
 28 12  1  0
 27 15  1  0
 24 19  1  0
  1 29  1  0
  1 30  1  0
  1 31  1  0
  2 32  1  0
  6 33  1  0
  7 34  1  0
  8 35  1  0
  9 36  1  0
 13 37  1  0
 14 38  1  0
 17 39  1  0
 18 40  1  0
 20 41  1  0
 21 42  1  0
 22 43  1  0
 23 44  1  0
 26 45  1  0
 28 46  1  0
M  END
>  <meeko>  (1) 
{"is_sidechain": [false], "free_energy": -8.747, "intermolecular_energy": -11.304, "internal_energy": -0.986}

$$$$
4twp_ligand
     RDKit          3D

 46 49  0  0  0  0  0  0  0  0999 V2000
   -6.4080   -0.4000   18.4180 C   0  0  0  0  0  0  0  0  0  0  0  0
   -6.7260   -0.8250   17.0780 N   0  0  0  0  0  0  0  0  0  0  0  0
   -7.9150   -1.4550   16.7920 C   0  0  0  0  0  0  0  0  0  0  0  0
   -8.8260   -1.6000   17.6020 O   0  0  0  0  0  0  0  0  0  0  0  0
   -8.0820   -1.9470   15.4010 C   0  0  0  0  0  0  0  0  0  0  0  0
   -7.5880   -3.2360   15.1420 C   0  0  0  0  0  0  0  0  0  0  0  0
   -7.7000   -3.7940   13.8690 C   0  0  0  0  0  0  0  0  0  0  0  0
   -8.2970   -3.0650   12.8450 C   0  0  0  0  0  0  0  0  0  0  0  0
   -8.7730   -1.7740   13.0900 C   0  0  0  0  0  0  0  0  0  0  0  0
   -8.6620   -1.1950   14.3650 C   0  0  0  0  0  0  0  0  0  0  0  0
   -9.2470    0.4910   14.5490 S   0  0  0  0  0  0  0  0  0  0  0  0
   -8.0160    1.3590   13.5860 C   0  0  0  0  0  0  0  0  0  0  0  0
   -6.6950    0.9040   13.5970 C   0  0  0  0  0  0  0  0  0  0  0  0
   -5.6980    1.5560   12.8560 C   0  0  0  0  0  0  0  0  0  0  0  0
   -6.0360    2.6930   12.0920 C   0  0  0  0  0  0  0  0  0  0  0  0
   -5.3620    3.6170   11.2330 C   0  0  0  0  0  0  0  0  0  0  0  0
   -3.9690    3.6500   10.8960 C   0  0  0  0  0  0  0  0  0  0  0  0
   -3.3290    4.6380   10.2490 C   0  0  0  0  0  0  0  0  0  0  0  0
   -1.9030    4.6500    9.9100 C   0  0  0  0  0  0  0  0  0  0  0  0
   -1.2170    5.7950    9.5140 C   0  0  0  0  0  0  0  0  0  0  0  0
    0.1470    5.7020    9.2430 C   0  0  0  0  0  0  0  0  0  0  0  0
    0.7880    4.4780    9.3810 C   0  0  0  0  0  0  0  0  0  0  0  0
    0.0340    3.3930    9.7930 C   0  0  0  0  0  0  0  0  0  0  0  0
   -1.2880    3.4540   10.0670 N   0  0  0  0  0  0  0  0  0  0  0  0
   -6.2170    4.5030   10.7020 N   0  0  0  0  0  0  0  0  0  0  0  0
   -7.4010    4.1880   11.2500 N   0  0  0  0  0  0  0  0  0  0  0  0
   -7.3640    3.1050   12.0830 C   0  0  0  0  0  0  0  0  0  0  0  0
   -8.3770    2.4670   12.8090 C   0  0  0  0  0  0  0  0  0  0  0  0
   -6.9047   -1.0639   19.1408 H   0  0  0  0  0  0  0  0  0  0  0  0
   -5.3192   -0.4439   18.5679 H   0  0  0  0  0  0  0  0  0  0  0  0
   -6.7574    0.6322   18.5679 H   0  0  0  0  0  0  0  0  0  0  0  0
   -5.9730   -0.8880   16.4030 H   0  0  0  0  0  0  0  0  0  0  0  0
   -7.1092   -3.8096   15.9493 H   0  0  0  0  0  0  0  0  0  0  0  0
   -7.3177   -4.8070   13.6749 H   0  0  0  0  0  0  0  0  0  0  0  0
   -8.3944   -3.5053   11.8417 H   0  0  0  0  0  0  0  0  0  0  0  0
   -9.2407   -1.2039   12.2738 H   0  0  0  0  0  0  0  0  0  0  0  0
   -6.4324    0.0200   14.1966 H   0  0  0  0  0  0  0  0  0  0  0  0
   -4.6628    1.1844   12.8705 H   0  0  0  0  0  0  0  0  0  0  0  0
   -3.3651    2.7812   11.1967 H   0  0  0  0  0  0  0  0  0  0  0  0
   -3.9254    5.5119    9.9481 H   0  0  0  0  0  0  0  0  0  0  0  0
   -1.7425    6.7565    9.4167 H   0  0  0  0  0  0  0  0  0  0  0  0
    0.7108    6.5905    8.9226 H   0  0  0  0  0  0  0  0  0  0  0  0
    1.8624    4.3739    9.1693 H   0  0  0  0  0  0  0  0  0  0  0  0
    0.5410    2.4231    9.9041 H   0  0  0  0  0  0  0  0  0  0  0  0
   -8.2080    4.7510   11.0070 H   0  0  0  0  0  0  0  0  0  0  0  0
   -9.4172    2.8226   12.7706 H   0  0  0  0  0  0  0  0  0  0  0  0
  1  2  1  0
  2  3  1  0
  3  4  2  0
  3  5  1  0
  5  6  2  0
  6  7  1  0
  7  8  2  0
  8  9  1  0
  9 10  2  0
 10 11  1  0
 11 12  1  0
 12 13  2  0
 13 14  1  0
 14 15  2  0
 15 16  1  0
 16 17  1  0
 17 18  2  0
 18 19  1  0
 19 20  2  0
 20 21  1  0
 21 22  2  0
 22 23  1  0
 23 24  2  0
 16 25  2  0
 25 26  1  0
 26 27  1  0
 27 28  2  0
 10  5  1  0
 28 12  1  0
 27 15  1  0
 24 19  1  0
  1 29  1  0
  1 30  1  0
  1 31  1  0
  2 32  1  0
  6 33  1  0
  7 34  1  0
  8 35  1  0
  9 36  1  0
 13 37  1  0
 14 38  1  0
 17 39  1  0
 18 40  1  0
 20 41  1  0
 21 42  1  0
 22 43  1  0
 23 44  1  0
 26 45  1  0
 28 46  1  0
M  END
>  <meeko>  (2) 
{"is_sidechain": [false], "free_energy": -8.566, "intermolecular_energy": -11.14, "internal_energy": -0.915}

$$$$
4twp_ligand
     RDKit          3D

 46 49  0  0  0  0  0  0  0  0999 V2000
   -0.3030   -2.0950   10.5380 C   0  0  0  0  0  0  0  0  0  0  0  0
    0.2050   -0.7510   10.6450 N   0  0  0  0  0  0  0  0  0  0  0  0
    1.3310   -0.3560    9.9600 C   0  0  0  0  0  0  0  0  0  0  0  0
    1.9110   -1.0550    9.1360 O   0  0  0  0  0  0  0  0  0  0  0  0
    1.8230    1.0170   10.2380 C   0  0  0  0  0  0  0  0  0  0  0  0
    2.6810    1.1510   11.3420 C   0  0  0  0  0  0  0  0  0  0  0  0
    3.2030    2.3980   11.6850 C   0  0  0  0  0  0  0  0  0  0  0  0
    2.8650    3.5190   10.9340 C   0  0  0  0  0  0  0  0  0  0  0  0
    1.9960    3.3980    9.8470 C   0  0  0  0  0  0  0  0  0  0  0  0
    1.4560    2.1500    9.4910 C   0  0  0  0  0  0  0  0  0  0  0  0
    0.3010    2.1220    8.1200 S   0  0  0  0  0  0  0  0  0  0  0  0
   -1.1980    2.6170    8.9590 C   0  0  0  0  0  0  0  0  0  0  0  0
   -1.9880    1.6430    9.5760 C   0  0  0  0  0  0  0  0  0  0  0  0
   -3.1720    1.9870   10.2450 C   0  0  0  0  0  0  0  0  0  0  0  0
   -3.5740    3.3390   10.2890 C   0  0  0  0  0  0  0  0  0  0  0  0
   -4.6600    4.0920   10.8350 C   0  0  0  0  0  0  0  0  0  0  0  0
   -5.7960    3.6010   11.5590 C   0  0  0  0  0  0  0  0  0  0  0  0
   -5.8590    2.4580   12.2620 C   0  0  0  0  0  0  0  0  0  0  0  0
   -7.0330    1.9730   12.9930 C   0  0  0  0  0  0  0  0  0  0  0  0
   -8.3060    2.5210   12.8530 C   0  0  0  0  0  0  0  0  0  0  0  0
   -9.3600    1.9640   13.5740 C   0  0  0  0  0  0  0  0  0  0  0  0
   -9.1210    0.8760   14.4030 C   0  0  0  0  0  0  0  0  0  0  0  0
   -7.8290    0.3850   14.4730 C   0  0  0  0  0  0  0  0  0  0  0  0
   -6.7880    0.9020   13.7840 N   0  0  0  0  0  0  0  0  0  0  0  0
   -4.4990    5.4070   10.6220 N   0  0  0  0  0  0  0  0  0  0  0  0
   -3.3640    5.4880    9.9090 N   0  0  0  0  0  0  0  0  0  0  0  0
   -2.7530    4.2860    9.6850 C   0  0  0  0  0  0  0  0  0  0  0  0
   -1.5650    3.9680    9.0180 C   0  0  0  0  0  0  0  0  0  0  0  0
   -0.4595   -2.5091   11.5450 H   0  0  0  0  0  0  0  0  0  0  0  0
   -1.2588   -2.0835    9.9937 H   0  0  0  0  0  0  0  0  0  0  0  0
    0.4215   -2.7186    9.9937 H   0  0  0  0  0  0  0  0  0  0  0  0
   -0.1160   -0.1770   11.4160 H   0  0  0  0  0  0  0  0  0  0  0  0
    2.9431    0.2660   11.9404 H   0  0  0  0  0  0  0  0  0  0  0  0
    3.8799    2.4947   12.5467 H   0  0  0  0  0  0  0  0  0  0  0  0
    3.2826    4.5022   11.1965 H   0  0  0  0  0  0  0  0  0  0  0  0
    1.7308    4.2910    9.2620 H   0  0  0  0  0  0  0  0  0  0  0  0
   -1.6760    0.5889    9.5363 H   0  0  0  0  0  0  0  0  0  0  0  0
   -3.7812    1.2104   10.7306 H   0  0  0  0  0  0  0  0  0  0  0  0
   -6.7046    4.2207   11.5366 H   0  0  0  0  0  0  0  0  0  0  0  0
   -4.9537    1.8339   12.2914 H   0  0  0  0  0  0  0  0  0  0  0  0
   -8.4760    3.3783   12.1851 H   0  0  0  0  0  0  0  0  0  0  0  0
  -10.3735    2.3828   13.4872 H   0  0  0  0  0  0  0  0  0  0  0  0
   -9.9337    0.4184   14.9862 H   0  0  0  0  0  0  0  0  0  0  0  0
   -7.6382   -0.4775   15.1286 H   0  0  0  0  0  0  0  0  0  0  0  0
   -3.0510    6.4040    9.6090 H   0  0  0  0  0  0  0  0  0  0  0  0
   -0.9425    4.7491    8.5572 H   0  0  0  0  0  0  0  0  0  0  0  0
  1  2  1  0
  2  3  1  0
  3  4  2  0
  3  5  1  0
  5  6  2  0
  6  7  1  0
  7  8  2  0
  8  9  1  0
  9 10  2  0
 10 11  1  0
 11 12  1  0
 12 13  2  0
 13 14  1  0
 14 15  2  0
 15 16  1  0
 16 17  1  0
 17 18  2  0
 18 19  1  0
 19 20  2  0
 20 21  1  0
 21 22  2  0
 22 23  1  0
 23 24  2  0
 16 25  2  0
 25 26  1  0
 26 27  1  0
 27 28  2  0
 10  5  1  0
 28 12  1  0
 27 15  1  0
 24 19  1  0
  1 29  1  0
  1 30  1  0
  1 31  1  0
  2 32  1  0
  6 33  1  0
  7 34  1  0
  8 35  1  0
  9 36  1  0
 13 37  1  0
 14 38  1  0
 17 39  1  0
 18 40  1  0
 20 41  1  0
 21 42  1  0
 22 43  1  0
 23 44  1  0
 26 45  1  0
 28 46  1  0
M  END
>  <meeko>  (3) 
{"is_sidechain": [false], "free_energy": -8.553, "intermolecular_energy": -11.121, "internal_energy": -0.917}

$$$$
4twp_ligand
     RDKit          3D

 46 49  0  0  0  0  0  0  0  0999 V2000
    3.0840    3.6310   11.9140 C   0  0  0  0  0  0  0  0  0  0  0  0
    2.2940    3.5670   10.7120 N   0  0  0  0  0  0  0  0  0  0  0  0
    1.0910    2.8980   10.6810 C   0  0  0  0  0  0  0  0  0  0  0  0
    0.5520    2.4150   11.6720 O   0  0  0  0  0  0  0  0  0  0  0  0
    0.4230    2.8040    9.3590 C   0  0  0  0  0  0  0  0  0  0  0  0
    0.8130    1.7260    8.5480 C   0  0  0  0  0  0  0  0  0  0  0  0
    0.2420    1.5430    7.2890 C   0  0  0  0  0  0  0  0  0  0  0  0
   -0.7160    2.4410    6.8290 C   0  0  0  0  0  0  0  0  0  0  0  0
   -1.0960    3.5270    7.6210 C   0  0  0  0  0  0  0  0  0  0  0  0
   -0.5250    3.7290    8.8890 C   0  0  0  0  0  0  0  0  0  0  0  0
   -1.0380    5.1920    9.7910 S   0  0  0  0  0  0  0  0  0  0  0  0
   -2.6400    4.6570   10.3770 C   0  0  0  0  0  0  0  0  0  0  0  0
   -2.7280    3.5140   11.1770 C   0  0  0  0  0  0  0  0  0  0  0  0
   -3.9650    3.0590   11.6570 C   0  0  0  0  0  0  0  0  0  0  0  0
   -5.1400    3.7650   11.3200 C   0  0  0  0  0  0  0  0  0  0  0  0
   -6.5410    3.6520   11.5810 C   0  0  0  0  0  0  0  0  0  0  0  0
   -7.2170    2.6390   12.3360 C   0  0  0  0  0  0  0  0  0  0  0  0
   -8.4980    2.6670   12.7420 C   0  0  0  0  0  0  0  0  0  0  0  0
   -9.1690    1.6200   13.5170 C   0  0  0  0  0  0  0  0  0  0  0  0
   -8.6920    0.3160   13.6220 C   0  0  0  0  0  0  0  0  0  0  0  0
   -9.3920   -0.5950   14.4100 C   0  0  0  0  0  0  0  0  0  0  0  0
  -10.5380   -0.1810   15.0770 C   0  0  0  0  0  0  0  0  0  0  0  0
  -10.9340    1.1370   14.9300 C   0  0  0  0  0  0  0  0  0  0  0  0
  -10.2740    2.0430   14.1760 N   0  0  0  0  0  0  0  0  0  0  0  0
   -7.2220    4.6740   11.0420 N   0  0  0  0  0  0  0  0  0  0  0  0
   -6.2860    5.3950   10.4060 N   0  0  0  0  0  0  0  0  0  0  0  0
   -5.0150    4.9120   10.5430 C   0  0  0  0  0  0  0  0  0  0  0  0
   -3.7920    5.3880   10.0570 C   0  0  0  0  0  0  0  0  0  0  0  0
    2.4222    3.5774   12.7910 H   0  0  0  0  0  0  0  0  0  0  0  0
    3.7892    2.7870   11.9347 H   0  0  0  0  0  0  0  0  0  0  0  0
    3.6442    4.5775   11.9347 H   0  0  0  0  0  0  0  0  0  0  0  0
    2.7400    3.7940    9.8310 H   0  0  0  0  0  0  0  0  0  0  0  0
    1.5754    1.0199    8.9089 H   0  0  0  0  0  0  0  0  0  0  0  0
    0.5477    0.6923    6.6622 H   0  0  0  0  0  0  0  0  0  0  0  0
   -1.1749    2.2955    5.8400 H   0  0  0  0  0  0  0  0  0  0  0  0
   -1.8520    4.2333    7.2473 H   0  0  0  0  0  0  0  0  0  0  0  0
   -1.8119    2.9622   11.4344 H   0  0  0  0  0  0  0  0  0  0  0  0
   -4.0189    2.1609   12.2898 H   0  0  0  0  0  0  0  0  0  0  0  0
   -6.6294    1.7505   12.6105 H   0  0  0  0  0  0  0  0  0  0  0  0
   -9.0932    3.5510   12.4693 H   0  0  0  0  0  0  0  0  0  0  0  0
   -7.7780    0.0104   13.0917 H   0  0  0  0  0  0  0  0  0  0  0  0
   -9.0403   -1.6331   14.5032 H   0  0  0  0  0  0  0  0  0  0  0  0
  -11.1131   -0.8793   15.7028 H   0  0  0  0  0  0  0  0  0  0  0  0
  -11.8405    1.4665   15.4588 H   0  0  0  0  0  0  0  0  0  0  0  0
   -6.5790    6.2200    9.8960 H   0  0  0  0  0  0  0  0  0  0  0  0
   -3.7370    6.3016    9.4468 H   0  0  0  0  0  0  0  0  0  0  0  0
  1  2  1  0
  2  3  1  0
  3  4  2  0
  3  5  1  0
  5  6  2  0
  6  7  1  0
  7  8  2  0
  8  9  1  0
  9 10  2  0
 10 11  1  0
 11 12  1  0
 12 13  2  0
 13 14  1  0
 14 15  2  0
 15 16  1  0
 16 17  1  0
 17 18  2  0
 18 19  1  0
 19 20  2  0
 20 21  1  0
 21 22  2  0
 22 23  1  0
 23 24  2  0
 16 25  2  0
 25 26  1  0
 26 27  1  0
 27 28  2  0
 10  5  1  0
 28 12  1  0
 27 15  1  0
 24 19  1  0
  1 29  1  0
  1 30  1  0
  1 31  1  0
  2 32  1  0
  6 33  1  0
  7 34  1  0
  8 35  1  0
  9 36  1  0
 13 37  1  0
 14 38  1  0
 17 39  1  0
 18 40  1  0
 20 41  1  0
 21 42  1  0
 22 43  1  0
 23 44  1  0
 26 45  1  0
 28 46  1  0
M  END
>  <meeko>  (4) 
{"is_sidechain": [false], "free_energy": -8.548, "intermolecular_energy": -11.034, "internal_energy": -0.998}

$$$$
4twp_ligand
     RDKit          3D

 46 49  0  0  0  0  0  0  0  0999 V2000
   -7.4450   -2.9760   12.0290 C   0  0  0  0  0  0  0  0  0  0  0  0
   -7.1920   -2.3090   13.2800 N   0  0  0  0  0  0  0  0  0  0  0  0
   -8.1170   -2.3260   14.2990 C   0  0  0  0  0  0  0  0  0  0  0  0
   -9.1500   -2.9870   14.2750 O   0  0  0  0  0  0  0  0  0  0  0  0
   -7.7940   -1.5090   15.4960 C   0  0  0  0  0  0  0  0  0  0  0  0
   -7.0290   -2.1460   16.4870 C   0  0  0  0  0  0  0  0  0  0  0  0
   -6.6660   -1.4650   17.6480 C   0  0  0  0  0  0  0  0  0  0  0  0
   -7.0730   -0.1480   17.8320 C   0  0  0  0  0  0  0  0  0  0  0  0
   -7.8520    0.4860   16.8610 C   0  0  0  0  0  0  0  0  0  0  0  0
   -8.2310   -0.1870   15.6880 C   0  0  0  0  0  0  0  0  0  0  0  0
   -9.2860    0.7020   14.5410 S   0  0  0  0  0  0  0  0  0  0  0  0
   -8.0490    1.5300   13.5520 C   0  0  0  0  0  0  0  0  0  0  0  0
   -6.7390    1.0440   13.5480 C   0  0  0  0  0  0  0  0  0  0  0  0
   -5.7370    1.6650   12.7870 C   0  0  0  0  0  0  0  0  0  0  0  0
   -6.0590    2.8020   12.0160 C   0  0  0  0  0  0  0  0  0  0  0  0
   -5.3760    3.7010   11.1390 C   0  0  0  0  0  0  0  0  0  0  0  0
   -3.9880    3.6970   10.7810 C   0  0  0  0  0  0  0  0  0  0  0  0
   -3.3050    4.7120   10.2240 C   0  0  0  0  0  0  0  0  0  0  0  0
   -1.8850    4.6850    9.8620 C   0  0  0  0  0  0  0  0  0  0  0  0
   -1.1810    5.8070    9.4310 C   0  0  0  0  0  0  0  0  0  0  0  0
    0.1750    5.6780    9.1400 C   0  0  0  0  0  0  0  0  0  0  0  0
    0.7920    4.4440    9.2940 C   0  0  0  0  0  0  0  0  0  0  0  0
    0.0220    3.3840    9.7410 C   0  0  0  0  0  0  0  0  0  0  0  0
   -1.2940    3.4800   10.0340 N   0  0  0  0  0  0  0  0  0  0  0  0
   -6.2170    4.6020   10.6110 N   0  0  0  0  0  0  0  0  0  0  0  0
   -7.4000    4.3210   11.1790 N   0  0  0  0  0  0  0  0  0  0  0  0
   -7.3770    3.2460   12.0220 C   0  0  0  0  0  0  0  0  0  0  0  0
   -8.3950    2.6400   12.7690 C   0  0  0  0  0  0  0  0  0  0  0  0
   -7.8289   -3.9882   12.2242 H   0  0  0  0  0  0  0  0  0  0  0  0
   -8.1894   -2.4061   11.4536 H   0  0  0  0  0  0  0  0  0  0  0  0
   -6.5099   -3.0432   11.4536 H   0  0  0  0  0  0  0  0  0  0  0  0
   -6.4510   -1.6190   13.3150 H   0  0  0  0  0  0  0  0  0  0  0  0
   -6.7139   -3.1904   16.3459 H   0  0  0  0  0  0  0  0  0  0  0  0
   -6.0597   -1.9677   18.4159 H   0  0  0  0  0  0  0  0  0  0  0  0
   -6.7813    0.3951   18.7430 H   0  0  0  0  0  0  0  0  0  0  0  0
   -8.1729    1.5265   17.0173 H   0  0  0  0  0  0  0  0  0  0  0  0
   -6.4889    0.1593   14.1519 H   0  0  0  0  0  0  0  0  0  0  0  0
   -4.7106    1.2694   12.7914 H   0  0  0  0  0  0  0  0  0  0  0  0
   -3.4266    2.7726   10.9818 H   0  0  0  0  0  0  0  0  0  0  0  0
   -3.8584    5.6411   10.0229 H   0  0  0  0  0  0  0  0  0  0  0  0
   -1.6870    6.7777    9.3224 H   0  0  0  0  0  0  0  0  0  0  0  0
    0.7523    6.5469    8.7910 H   0  0  0  0  0  0  0  0  0  0  0  0
    1.8604    4.3125    9.0677 H   0  0  0  0  0  0  0  0  0  0  0  0
    0.5099    2.4060    9.8651 H   0  0  0  0  0  0  0  0  0  0  0  0
   -8.1970    4.9010   10.9420 H   0  0  0  0  0  0  0  0  0  0  0  0
   -9.4267    3.0206   12.7423 H   0  0  0  0  0  0  0  0  0  0  0  0
  1  2  1  0
  2  3  1  0
  3  4  2  0
  3  5  1  0
  5  6  2  0
  6  7  1  0
  7  8  2  0
  8  9  1  0
  9 10  2  0
 10 11  1  0
 11 12  1  0
 12 13  2  0
 13 14  1  0
 14 15  2  0
 15 16  1  0
 16 17  1  0
 17 18  2  0
 18 19  1  0
 19 20  2  0
 20 21  1  0
 21 22  2  0
 22 23  1  0
 23 24  2  0
 16 25  2  0
 25 26  1  0
 26 27  1  0
 27 28  2  0
 10  5  1  0
 28 12  1  0
 27 15  1  0
 24 19  1  0
  1 29  1  0
  1 30  1  0
  1 31  1  0
  2 32  1  0
  6 33  1  0
  7 34  1  0
  8 35  1  0
  9 36  1  0
 13 37  1  0
 14 38  1  0
 17 39  1  0
 18 40  1  0
 20 41  1  0
 21 42  1  0
 22 43  1  0
 23 44  1  0
 26 45  1  0
 28 46  1  0
M  END
>  <meeko>  (5) 
{"is_sidechain": [false], "free_energy": -8.515, "intermolecular_energy": -11.166, "internal_energy": -0.823}

$$$$
4twp_ligand
     RDKit          3D

 46 49  0  0  0  0  0  0  0  0999 V2000
  -12.0640    0.4270   14.6980 C   0  0  0  0  0  0  0  0  0  0  0  0
  -11.0220   -0.2190   13.9420 N   0  0  0  0  0  0  0  0  0  0  0  0
  -10.2940   -1.2600   14.4730 C   0  0  0  0  0  0  0  0  0  0  0  0
  -10.5400   -1.7860   15.5530 O   0  0  0  0  0  0  0  0  0  0  0  0
   -9.1730   -1.7700   13.6440 C   0  0  0  0  0  0  0  0  0  0  0  0
   -9.4740   -2.8530   12.8020 C   0  0  0  0  0  0  0  0  0  0  0  0
   -8.4930   -3.4030   11.9790 C   0  0  0  0  0  0  0  0  0  0  0  0
   -7.2030   -2.8820   11.9970 C   0  0  0  0  0  0  0  0  0  0  0  0
   -6.8910   -1.8180   12.8450 C   0  0  0  0  0  0  0  0  0  0  0  0
   -7.8660   -1.2550   13.6870 C   0  0  0  0  0  0  0  0  0  0  0  0
   -7.3370    0.0620   14.7820 S   0  0  0  0  0  0  0  0  0  0  0  0
   -6.7080    1.2340   13.5870 C   0  0  0  0  0  0  0  0  0  0  0  0
   -5.3530    1.2010   13.2470 C   0  0  0  0  0  0  0  0  0  0  0  0
   -4.8180    2.1030   12.3140 C   0  0  0  0  0  0  0  0  0  0  0  0
   -5.6630    3.0610   11.7150 C   0  0  0  0  0  0  0  0  0  0  0  0
   -5.5370    4.1190   10.7620 C   0  0  0  0  0  0  0  0  0  0  0  0
   -4.3510    4.5630   10.0910 C   0  0  0  0  0  0  0  0  0  0  0  0
   -3.1450    3.9700   10.1270 C   0  0  0  0  0  0  0  0  0  0  0  0
   -1.9430    4.4440    9.4350 C   0  0  0  0  0  0  0  0  0  0  0  0
   -1.3370    5.6700    9.7000 C   0  0  0  0  0  0  0  0  0  0  0  0
   -0.1790    6.0110    9.0050 C   0  0  0  0  0  0  0  0  0  0  0  0
    0.3480    5.1210    8.0780 C   0  0  0  0  0  0  0  0  0  0  0  0
   -0.3090    3.9180    7.8870 C   0  0  0  0  0  0  0  0  0  0  0  0
   -1.4320    3.5590    8.5470 N   0  0  0  0  0  0  0  0  0  0  0  0
   -6.7240    4.6880   10.5040 N   0  0  0  0  0  0  0  0  0  0  0  0
   -7.5800    4.0460   11.3130 N   0  0  0  0  0  0  0  0  0  0  0  0
   -7.0120    3.0500   12.0570 C   0  0  0  0  0  0  0  0  0  0  0  0
   -7.5690    2.1570   12.9800 C   0  0  0  0  0  0  0  0  0  0  0  0
  -11.8666    0.3046   15.7732 H   0  0  0  0  0  0  0  0  0  0  0  0
  -12.0873    1.4982   14.4491 H   0  0  0  0  0  0  0  0  0  0  0  0
  -13.0338   -0.0285   14.4491 H   0  0  0  0  0  0  0  0  0  0  0  0
  -10.6570    0.2560   13.1250 H   0  0  0  0  0  0  0  0  0  0  0  0
  -10.4917   -3.2703   12.7920 H   0  0  0  0  0  0  0  0  0  0  0  0
   -8.7379   -4.2467   11.3170 H   0  0  0  0  0  0  0  0  0  0  0  0
   -6.4286   -3.3088   11.3427 H   0  0  0  0  0  0  0  0  0  0  0  0
   -5.8678   -1.4143   12.8546 H   0  0  0  0  0  0  0  0  0  0  0  0
   -4.6949    0.4561   13.7182 H   0  0  0  0  0  0  0  0  0  0  0  0
   -3.7503    2.0633   12.0524 H   0  0  0  0  0  0  0  0  0  0  0  0
   -4.4358    5.4787    9.4874 H   0  0  0  0  0  0  0  0  0  0  0  0
   -3.0526    3.0521   10.7260 H   0  0  0  0  0  0  0  0  0  0  0  0
   -1.7654    6.3567   10.4449 H   0  0  0  0  0  0  0  0  0  0  0  0
    0.3140    6.9770    9.1888 H   0  0  0  0  0  0  0  0  0  0  0  0
    1.2597    5.3649    7.5129 H   0  0  0  0  0  0  0  0  0  0  0  0
    0.1080    3.2118    7.1540 H   0  0  0  0  0  0  0  0  0  0  0  0
   -8.5530    4.3300   11.3060 H   0  0  0  0  0  0  0  0  0  0  0  0
   -8.6424    2.1793   13.2195 H   0  0  0  0  0  0  0  0  0  0  0  0
  1  2  1  0
  2  3  1  0
  3  4  2  0
  3  5  1  0
  5  6  2  0
  6  7  1  0
  7  8  2  0
  8  9  1  0
  9 10  2  0
 10 11  1  0
 11 12  1  0
 12 13  2  0
 13 14  1  0
 14 15  2  0
 15 16  1  0
 16 17  1  0
 17 18  2  0
 18 19  1  0
 19 20  2  0
 20 21  1  0
 21 22  2  0
 22 23  1  0
 23 24  2  0
 16 25  2  0
 25 26  1  0
 26 27  1  0
 27 28  2  0
 10  5  1  0
 28 12  1  0
 27 15  1  0
 24 19  1  0
  1 29  1  0
  1 30  1  0
  1 31  1  0
  2 32  1  0
  6 33  1  0
  7 34  1  0
  8 35  1  0
  9 36  1  0
 13 37  1  0
 14 38  1  0
 17 39  1  0
 18 40  1  0
 20 41  1  0
 21 42  1  0
 22 43  1  0
 23 44  1  0
 26 45  1  0
 28 46  1  0
M  END
>  <meeko>  (6) 
{"is_sidechain": [false], "free_energy": -8.359, "intermolecular_energy": -11.082, "internal_energy": -0.706}

$$$$
4twp_ligand
     RDKit          3D

 46 49  0  0  0  0  0  0  0  0999 V2000
   -7.4070   -2.9470   11.9790 C   0  0  0  0  0  0  0  0  0  0  0  0
   -8.6190   -2.3030   12.4130 N   0  0  0  0  0  0  0  0  0  0  0  0
   -9.4390   -2.8840   13.3540 C   0  0  0  0  0  0  0  0  0  0  0  0
   -9.1580   -3.9070   13.9690 O   0  0  0  0  0  0  0  0  0  0  0  0
  -10.7160   -2.1820   13.6380 C   0  0  0  0  0  0  0  0  0  0  0  0
  -11.7710   -2.4390   12.7470 C   0  0  0  0  0  0  0  0  0  0  0  0
  -13.0140   -1.8330   12.9270 C   0  0  0  0  0  0  0  0  0  0  0  0
  -13.2090   -0.9610   13.9940 C   0  0  0  0  0  0  0  0  0  0  0  0
  -12.1600   -0.6850   14.8730 C   0  0  0  0  0  0  0  0  0  0  0  0
  -10.8990   -1.2810   14.7020 C   0  0  0  0  0  0  0  0  0  0  0  0
   -9.6070   -0.8030   15.8510 S   0  0  0  0  0  0  0  0  0  0  0  0
   -8.5800    0.1890   14.7760 C   0  0  0  0  0  0  0  0  0  0  0  0
   -7.2190   -0.1090   14.6670 C   0  0  0  0  0  0  0  0  0  0  0  0
   -6.3760    0.6450   13.8360 C   0  0  0  0  0  0  0  0  0  0  0  0
   -6.9130    1.7250   13.1030 C   0  0  0  0  0  0  0  0  0  0  0  0
   -6.4330    2.7090   12.1830 C   0  0  0  0  0  0  0  0  0  0  0  0
   -5.0900    2.8990   11.7200 C   0  0  0  0  0  0  0  0  0  0  0  0
   -4.6410    3.9250   10.9770 C   0  0  0  0  0  0  0  0  0  0  0  0
   -3.2620    4.0990   10.5100 C   0  0  0  0  0  0  0  0  0  0  0  0
   -2.2720    3.1320   10.6640 C   0  0  0  0  0  0  0  0  0  0  0  0
   -0.9990    3.3870   10.1570 C   0  0  0  0  0  0  0  0  0  0  0  0
   -0.7530    4.5870    9.5040 C   0  0  0  0  0  0  0  0  0  0  0  0
   -1.7980    5.4860    9.3810 C   0  0  0  0  0  0  0  0  0  0  0  0
   -3.0420    5.2660    9.8600 N   0  0  0  0  0  0  0  0  0  0  0  0
   -7.4310    3.4820   11.7300 N   0  0  0  0  0  0  0  0  0  0  0  0
   -8.5140    3.0390   12.3860 N   0  0  0  0  0  0  0  0  0  0  0  0
   -8.2760    1.9790   13.2150 C   0  0  0  0  0  0  0  0  0  0  0  0
   -9.1370    1.2380   14.0330 C   0  0  0  0  0  0  0  0  0  0  0  0
   -6.8221   -3.2578   12.8573 H   0  0  0  0  0  0  0  0  0  0  0  0
   -7.6578   -3.8308   11.3740 H   0  0  0  0  0  0  0  0  0  0  0  0
   -6.8149   -2.2446   11.3740 H   0  0  0  0  0  0  0  0  0  0  0  0
   -8.9950   -1.5530   11.8450 H   0  0  0  0  0  0  0  0  0  0  0  0
  -11.6155   -3.1238   11.9004 H   0  0  0  0  0  0  0  0  0  0  0  0
  -13.8372   -2.0434   12.2283 H   0  0  0  0  0  0  0  0  0  0  0  0
  -14.1909   -0.4886   14.1450 H   0  0  0  0  0  0  0  0  0  0  0  0
  -12.3229    0.0086   15.7110 H   0  0  0  0  0  0  0  0  0  0  0  0
   -6.8015   -0.9486   15.2421 H   0  0  0  0  0  0  0  0  0  0  0  0
   -5.3073    0.3967   13.7567 H   0  0  0  0  0  0  0  0  0  0  0  0
   -4.3550    2.1300   12.0001 H   0  0  0  0  0  0  0  0  0  0  0  0
   -5.3695    4.6996   10.6955 H   0  0  0  0  0  0  0  0  0  0  0  0
   -2.4907    2.1837   11.1767 H   0  0  0  0  0  0  0  0  0  0  0  0
   -0.1963    2.6439   10.2733 H   0  0  0  0  0  0  0  0  0  0  0  0
    0.2426    4.8165    9.0965 H   0  0  0  0  0  0  0  0  0  0  0  0
   -1.6042    6.4364    8.8623 H   0  0  0  0  0  0  0  0  0  0  0  0
   -9.4000    3.5010   12.2160 H   0  0  0  0  0  0  0  0  0  0  0  0
  -10.2106    1.4706   14.0903 H   0  0  0  0  0  0  0  0  0  0  0  0
  1  2  1  0
  2  3  1  0
  3  4  2  0
  3  5  1  0
  5  6  2  0
  6  7  1  0
  7  8  2  0
  8  9  1  0
  9 10  2  0
 10 11  1  0
 11 12  1  0
 12 13  2  0
 13 14  1  0
 14 15  2  0
 15 16  1  0
 16 17  1  0
 17 18  2  0
 18 19  1  0
 19 20  2  0
 20 21  1  0
 21 22  2  0
 22 23  1  0
 23 24  2  0
 16 25  2  0
 25 26  1  0
 26 27  1  0
 27 28  2  0
 10  5  1  0
 28 12  1  0
 27 15  1  0
 24 19  1  0
  1 29  1  0
  1 30  1  0
  1 31  1  0
  2 32  1  0
  6 33  1  0
  7 34  1  0
  8 35  1  0
  9 36  1  0
 13 37  1  0
 14 38  1  0
 17 39  1  0
 18 40  1  0
 20 41  1  0
 21 42  1  0
 22 43  1  0
 23 44  1  0
 26 45  1  0
 28 46  1  0
M  END
>  <meeko>  (7) 
{"is_sidechain": [false], "free_energy": -8.339, "intermolecular_energy": -10.737, "internal_energy": -1.025}

$$$$
4twp_ligand
     RDKit          3D

 46 49  0  0  0  0  0  0  0  0999 V2000
    7.1390   -1.2280    9.9530 C   0  0  0  0  0  0  0  0  0  0  0  0
    6.2850   -0.2040   10.4980 N   0  0  0  0  0  0  0  0  0  0  0  0
    5.5570    0.6300    9.6800 C   0  0  0  0  0  0  0  0  0  0  0  0
    5.4840    0.5000    8.4620 O   0  0  0  0  0  0  0  0  0  0  0  0
    4.8040    1.7180   10.3510 C   0  0  0  0  0  0  0  0  0  0  0  0
    5.5790    2.6830   11.0170 C   0  0  0  0  0  0  0  0  0  0  0  0
    4.9690    3.7500   11.6750 C   0  0  0  0  0  0  0  0  0  0  0  0
    3.5810    3.8560   11.6800 C   0  0  0  0  0  0  0  0  0  0  0  0
    2.8030    2.8910   11.0370 C   0  0  0  0  0  0  0  0  0  0  0  0
    3.4010    1.8060   10.3750 C   0  0  0  0  0  0  0  0  0  0  0  0
    2.3040    0.5920    9.6410 S   0  0  0  0  0  0  0  0  0  0  0  0
    0.7280    1.3970    9.8920 C   0  0  0  0  0  0  0  0  0  0  0  0
   -0.2360    0.7780   10.6930 C   0  0  0  0  0  0  0  0  0  0  0  0
   -1.4860    1.3750   10.9150 C   0  0  0  0  0  0  0  0  0  0  0  0
   -1.7750    2.6190   10.3150 C   0  0  0  0  0  0  0  0  0  0  0  0
   -2.8720    3.5350   10.2780 C   0  0  0  0  0  0  0  0  0  0  0  0
   -4.1540    3.3990   10.9060 C   0  0  0  0  0  0  0  0  0  0  0  0
   -4.5850    2.3440   11.6190 C   0  0  0  0  0  0  0  0  0  0  0  0
   -5.9020    2.2230   12.2500 C   0  0  0  0  0  0  0  0  0  0  0  0
   -6.9630    3.0850   11.9820 C   0  0  0  0  0  0  0  0  0  0  0  0
   -8.1840    2.8640   12.6160 C   0  0  0  0  0  0  0  0  0  0  0  0
   -8.3170    1.7900   13.4860 C   0  0  0  0  0  0  0  0  0  0  0  0
   -7.2160    0.9750   13.6840 C   0  0  0  0  0  0  0  0  0  0  0  0
   -6.0210    1.1620   13.0820 N   0  0  0  0  0  0  0  0  0  0  0  0
   -2.5670    4.6350    9.5750 N   0  0  0  0  0  0  0  0  0  0  0  0
   -1.3230    4.4050    9.1270 N   0  0  0  0  0  0  0  0  0  0  0  0
   -0.7850    3.2210    9.5450 C   0  0  0  0  0  0  0  0  0  0  0  0
    0.4710    2.6470    9.3140 C   0  0  0  0  0  0  0  0  0  0  0  0
    7.6077   -1.7900   10.7743 H   0  0  0  0  0  0  0  0  0  0  0  0
    6.5410   -1.9132    9.3343 H   0  0  0  0  0  0  0  0  0  0  0  0
    7.9205   -0.7627    9.3343 H   0  0  0  0  0  0  0  0  0  0  0  0
    6.4180    0.0670   11.4660 H   0  0  0  0  0  0  0  0  0  0  0  0
    6.6755    2.5957   11.0191 H   0  0  0  0  0  0  0  0  0  0  0  0
    5.5822    4.5053   12.1883 H   0  0  0  0  0  0  0  0  0  0  0  0
    3.0965    4.7010   12.1911 H   0  0  0  0  0  0  0  0  0  0  0  0
    1.7068    2.9818   11.0491 H   0  0  0  0  0  0  0  0  0  0  0  0
   -0.0107   -0.1935   11.1571 H   0  0  0  0  0  0  0  0  0  0  0  0
   -2.2336    0.8781   11.5507 H   0  0  0  0  0  0  0  0  0  0  0  0
   -4.8534    4.2405   10.7932 H   0  0  0  0  0  0  0  0  0  0  0  0
   -3.8900    1.4998   11.7389 H   0  0  0  0  0  0  0  0  0  0  0  0
   -6.8392    3.9249   11.2826 H   0  0  0  0  0  0  0  0  0  0  0  0
   -9.0355    3.5348   12.4288 H   0  0  0  0  0  0  0  0  0  0  0  0
   -9.2683    1.5930   14.0020 H   0  0  0  0  0  0  0  0  0  0  0  0
   -7.3202    0.1238   14.3729 H   0  0  0  0  0  0  0  0  0  0  0  0
   -0.8860    5.1070    8.5410 H   0  0  0  0  0  0  0  0  0  0  0  0
    1.2279    3.1586    8.7014 H   0  0  0  0  0  0  0  0  0  0  0  0
  1  2  1  0
  2  3  1  0
  3  4  2  0
  3  5  1  0
  5  6  2  0
  6  7  1  0
  7  8  2  0
  8  9  1  0
  9 10  2  0
 10 11  1  0
 11 12  1  0
 12 13  2  0
 13 14  1  0
 14 15  2  0
 15 16  1  0
 16 17  1  0
 17 18  2  0
 18 19  1  0
 19 20  2  0
 20 21  1  0
 21 22  2  0
 22 23  1  0
 23 24  2  0
 16 25  2  0
 25 26  1  0
 26 27  1  0
 27 28  2  0
 10  5  1  0
 28 12  1  0
 27 15  1  0
 24 19  1  0
  1 29  1  0
  1 30  1  0
  1 31  1  0
  2 32  1  0
  6 33  1  0
  7 34  1  0
  8 35  1  0
  9 36  1  0
 13 37  1  0
 14 38  1  0
 17 39  1  0
 18 40  1  0
 20 41  1  0
 21 42  1  0
 22 43  1  0
 23 44  1  0
 26 45  1  0
 28 46  1  0
M  END
>  <meeko>  (8) 
{"is_sidechain": [false], "free_energy": -8.04, "intermolecular_energy": -11.292, "internal_energy": -0.083}

$$$$
4twp_ligand
     RDKit          3D

 46 49  0  0  0  0  0  0  0  0999 V2000
    7.9630   -1.4030    9.9640 C   0  0  0  0  0  0  0  0  0  0  0  0
    6.9350   -0.5090   10.4340 N   0  0  0  0  0  0  0  0  0  0  0  0
    6.1570    0.2100    9.5550 C   0  0  0  0  0  0  0  0  0  0  0  0
    6.1920    0.0680    8.3370 O   0  0  0  0  0  0  0  0  0  0  0  0
    5.2090    1.1810   10.1560 C   0  0  0  0  0  0  0  0  0  0  0  0
    5.7750    2.3690   10.6460 C   0  0  0  0  0  0  0  0  0  0  0  0
    4.9710    3.3500   11.2250 C   0  0  0  0  0  0  0  0  0  0  0  0
    3.5980    3.1460   11.3280 C   0  0  0  0  0  0  0  0  0  0  0  0
    3.0300    1.9590   10.8610 C   0  0  0  0  0  0  0  0  0  0  0  0
    3.8270    0.9570   10.2800 C   0  0  0  0  0  0  0  0  0  0  0  0
    3.0020   -0.5530    9.7770 S   0  0  0  0  0  0  0  0  0  0  0  0
    1.3220   -0.1680   10.2510 C   0  0  0  0  0  0  0  0  0  0  0  0
    0.6000    0.7700    9.5070 C   0  0  0  0  0  0  0  0  0  0  0  0
   -0.7210    1.1010    9.8460 C   0  0  0  0  0  0  0  0  0  0  0  0
   -1.3270    0.4800   10.9590 C   0  0  0  0  0  0  0  0  0  0  0  0
   -2.5920    0.5250   11.6240 C   0  0  0  0  0  0  0  0  0  0  0  0
   -3.7250    1.3440   11.3060 C   0  0  0  0  0  0  0  0  0  0  0  0
   -3.8330    2.6680   11.5100 C   0  0  0  0  0  0  0  0  0  0  0  0
   -5.0040    3.4870   11.1810 C   0  0  0  0  0  0  0  0  0  0  0  0
   -6.2890    3.2090   11.6400 C   0  0  0  0  0  0  0  0  0  0  0  0
   -7.3280    4.0690   11.2920 C   0  0  0  0  0  0  0  0  0  0  0  0
   -7.0580    5.1830   10.5070 C   0  0  0  0  0  0  0  0  0  0  0  0
   -5.7500    5.3920   10.1070 C   0  0  0  0  0  0  0  0  0  0  0  0
   -4.7220    4.5780   10.4310 N   0  0  0  0  0  0  0  0  0  0  0  0
   -2.6450   -0.3570   12.6330 N   0  0  0  0  0  0  0  0  0  0  0  0
   -1.4250   -0.9150   12.6470 N   0  0  0  0  0  0  0  0  0  0  0  0
   -0.5900   -0.4670   11.6620 C   0  0  0  0  0  0  0  0  0  0  0  0
    0.7270   -0.8180   11.3400 C   0  0  0  0  0  0  0  0  0  0  0  0
    8.4798   -1.8524   10.8248 H   0  0  0  0  0  0  0  0  0  0  0  0
    7.5076   -2.1972    9.3542 H   0  0  0  0  0  0  0  0  0  0  0  0
    8.6863   -0.8418    9.3542 H   0  0  0  0  0  0  0  0  0  0  0  0
    6.9560   -0.2200   11.4050 H   0  0  0  0  0  0  0  0  0  0  0  0
    6.8611    2.5269   10.5725 H   0  0  0  0  0  0  0  0  0  0  0  0
    5.4202    4.2818   11.5991 H   0  0  0  0  0  0  0  0  0  0  0  0
    2.9597    3.9207   11.7778 H   0  0  0  0  0  0  0  0  0  0  0  0
    1.9443    1.8058   10.9489 H   0  0  0  0  0  0  0  0  0  0  0  0
    1.0749    1.2563    8.6422 H   0  0  0  0  0  0  0  0  0  0  0  0
   -1.2790    1.8378    9.2496 H   0  0  0  0  0  0  0  0  0  0  0  0
   -4.5901    0.8396   10.8507 H   0  0  0  0  0  0  0  0  0  0  0  0
   -2.9707    3.1802   11.9616 H   0  0  0  0  0  0  0  0  0  0  0  0
   -6.4803    2.3254   12.2666 H   0  0  0  0  0  0  0  0  0  0  0  0
   -8.3534    3.8679   11.6357 H   0  0  0  0  0  0  0  0  0  0  0  0
   -7.8590    5.8771   10.2127 H   0  0  0  0  0  0  0  0  0  0  0  0
   -5.5342    6.2749    9.4874 H   0  0  0  0  0  0  0  0  0  0  0  0
   -1.2230   -1.6100   13.3570 H   0  0  0  0  0  0  0  0  0  0  0  0
    1.2737   -1.5757   11.9205 H   0  0  0  0  0  0  0  0  0  0  0  0
  1  2  1  0
  2  3  1  0
  3  4  2  0
  3  5  1  0
  5  6  2  0
  6  7  1  0
  7  8  2  0
  8  9  1  0
  9 10  2  0
 10 11  1  0
 11 12  1  0
 12 13  2  0
 13 14  1  0
 14 15  2  0
 15 16  1  0
 16 17  1  0
 17 18  2  0
 18 19  1  0
 19 20  2  0
 20 21  1  0
 21 22  2  0
 22 23  1  0
 23 24  2  0
 16 25  2  0
 25 26  1  0
 26 27  1  0
 27 28  2  0
 10  5  1  0
 28 12  1  0
 27 15  1  0
 24 19  1  0
  1 29  1  0
  1 30  1  0
  1 31  1  0
  2 32  1  0
  6 33  1  0
  7 34  1  0
  8 35  1  0
  9 36  1  0
 13 37  1  0
 14 38  1  0
 17 39  1  0
 18 40  1  0
 20 41  1  0
 21 42  1  0
 22 43  1  0
 23 44  1  0
 26 45  1  0
 28 46  1  0
M  END
>  <meeko>  (9) 
{"is_sidechain": [false], "free_energy": -7.94, "intermolecular_energy": -10.767, "internal_energy": -0.479}

$$$$
