
     RDKit          3D

 26 26  0  0  0  0  0  0  0  0999 V2000
    9.3960   -3.9000   -9.4050 C   0  0  0  0  0  0  0  0  0  0  0  0
    8.7830   -2.7690   -8.6010 C   0  0  0  0  0  0  0  0  0  0  0  0
    7.6090   -2.1370   -9.3000 C   0  0  0  0  0  0  0  0  0  0  0  0
    6.9710   -1.0240   -8.4940 C   0  0  0  0  0  0  0  0  0  0  0  0
    5.9320   -1.5480   -7.4960 C   0  0  0  0  0  0  0  0  0  0  0  0
    5.0050   -0.4130   -7.0930 C   0  0  1  0  0  0  0  0  0  0  0  0
    3.4480   -0.6910   -7.8400 S   0  0  0  0  0  0  0  0  0  0  0  0
    4.8310   -0.2230   -5.5590 C   0  0  0  0  0  0  0  0  0  0  0  0
    3.7400   -0.2640   -5.0400 O   0  0  0  0  0  0  0  0  0  0  0  0
    5.9440    0.0410   -4.8780 N   0  0  0  0  0  0  0  0  0  0  0  0
    5.9090    0.6000   -3.5410 C   0  0  1  0  0  0  0  0  0  0  0  0
    6.1740   -0.4710   -2.4750 C   0  0  0  0  0  0  0  0  0  0  0  0
    6.1940    0.1250   -1.1000 C   0  0  0  0  0  0  0  0  0  0  0  0
    5.0380    0.7320   -0.5610 C   0  0  0  0  0  0  0  0  0  0  0  0
    5.0810    1.2920    0.7070 C   0  0  0  0  0  0  0  0  0  0  0  0
    6.2650    1.2500    1.4630 C   0  0  0  0  0  0  0  0  0  0  0  0
    7.4070    0.6380    0.9320 C   0  0  0  0  0  0  0  0  0  0  0  0
    7.3860    0.0720   -0.3440 C   0  0  0  0  0  0  0  0  0  0  0  0
    6.8890    1.7340   -3.5020 C   0  0  0  0  0  0  0  0  0  0  0  0
    6.5330    2.8250   -3.0850 O   0  0  0  0  0  0  0  0  0  0  0  0
    8.1080    1.4290   -3.9640 N   0  0  0  0  0  0  0  0  0  0  0  0
    9.1530    2.4320   -4.0750 C   0  0  1  0  0  0  0  0  0  0  0  0
   10.3440    2.0420   -3.1670 C   0  0  0  0  0  0  0  0  0  0  0  0
    9.5980    2.5860   -5.5400 C   0  0  0  0  0  0  0  0  0  0  0  0
   10.4120    3.4840   -5.8130 O   0  0  0  0  0  0  0  0  0  0  0  0
    9.1140    1.8190   -6.3740 O   0  0  0  0  0  0  0  0  0  0  0  0
  2  1  1  0
  3  2  1  0
  4  3  1  0
  5  4  1  0
  6  5  1  0
  6  7  1  6
  8  6  1  0
  9  8  2  0
 10  8  1  0
 11 10  1  0
 11 12  1  1
 13 12  1  0
 14 13  2  0
 15 14  1  0
 16 15  2  0
 17 16  1  0
 18 17  2  0
 18 13  1  0
 19 11  1  0
 20 19  2  0
 21 19  1  0
 22 21  1  0
 22 23  1  1
 24 22  1  0
 25 24  2  0
 26 24  1  0
M  CHG  1  26  -1
M  END
$$$$
