
     RDKit          3D

 18 19  0  0  0  0  0  0  0  0999 V2000
   -5.4470    5.2270    5.6280 O   0  0  0  0  0  0  0  0  0  0  0  0
   -5.4880    5.7100    4.4970 C   0  0  0  0  0  0  0  0  0  0  0  0
   -5.1950    6.9970    4.2620 N   0  0  0  0  0  0  0  0  0  0  0  0
   -4.6900    7.9360    5.1480 C   0  0  0  0  0  0  0  0  0  0  0  0
   -4.3240    7.6400    6.4800 C   0  0  0  0  0  0  0  0  0  0  0  0
   -3.7990    8.5990    7.2900 C   0  0  0  0  0  0  0  0  0  0  0  0
   -3.6150    9.8680    6.8170 N   0  0  0  0  0  0  0  0  0  0  0  0
   -3.9460   10.1960    5.5470 C   0  0  0  0  0  0  0  0  0  0  0  0
   -3.7450   11.3720    5.1520 O   0  0  0  0  0  0  0  0  0  0  0  0
   -4.4980    9.2310    4.6980 C   0  0  0  0  0  0  0  0  0  0  0  0
   -5.8550    4.8500    3.3510 C   0  0  0  0  0  0  0  0  0  0  0  0
   -5.0190    3.7970    3.0110 C   0  0  0  0  0  0  0  0  0  0  0  0
   -3.5000    3.5640    3.8810 Cl  0  0  0  0  0  0  0  0  0  0  0  0
   -5.3550    2.9240    1.9790 C   0  0  0  0  0  0  0  0  0  0  0  0
   -6.5180    3.1310    1.2560 C   0  0  0  0  0  0  0  0  0  0  0  0
   -7.3310    4.2060    1.5440 C   0  0  0  0  0  0  0  0  0  0  0  0
   -6.9930    5.0650    2.5820 C   0  0  0  0  0  0  0  0  0  0  0  0
   -8.0310    6.4390    2.8810 Cl  0  0  0  0  0  0  0  0  0  0  0  0
  2  1  2  0
  3  2  1  0
  4  3  1  0
  5  4  1  0
  6  5  2  0
  7  6  1  0
  8  7  1  0
  9  8  2  0
 10  4  2  0
 10  8  1  0
 11  2  1  0
 12 11  2  0
 13 12  1  0
 14 12  1  0
 15 14  2  0
 16 15  1  0
 17 16  2  0
 17 11  1  0
 18 17  1  0
M  END
$$$$
