3ryj_ligand
     RDKit          3D

 27 27  0  0  0  0  0  0  0  0999 V2000
   13.8340   -8.9700   -1.1900 N   0  0  0  0  0  0  0  0  0  0  0  0
   14.3170   -7.4280   -1.6630 S   0  0  0  0  0  0  0  0  0  0  0  0
   14.8820   -7.5240   -2.9870 O   0  0  0  0  0  0  0  0  0  0  0  0
   15.0460   -6.8810   -0.5420 O   0  0  0  0  0  0  0  0  0  0  0  0
   12.7570   -6.5890   -1.7810 C   0  0  0  0  0  0  0  0  0  0  0  0
   12.5510   -5.4180   -1.0450 C   0  0  0  0  0  0  0  0  0  0  0  0
   11.3220   -4.7590   -1.1260 C   0  0  0  0  0  0  0  0  0  0  0  0
   10.2990   -5.2790   -1.9320 C   0  0  0  0  0  0  0  0  0  0  0  0
    8.9780   -4.6080   -2.0570 C   0  0  0  0  0  0  0  0  0  0  0  0
    8.6950   -3.9840   -3.0710 O   0  0  0  0  0  0  0  0  0  0  0  0
    8.1080   -4.7540   -0.9960 N   0  0  0  0  0  0  0  0  0  0  0  0
    6.7270   -4.2820   -1.1180 C   0  0  0  0  0  0  0  0  0  0  0  0
    5.7090   -5.3510   -1.5290 C   0  0  0  0  0  0  0  0  0  0  0  0
    4.6810   -5.4600   -0.6660 F   0  0  0  0  0  0  0  0  0  0  0  0
    5.1940   -5.0600   -2.7490 F   0  0  0  0  0  0  0  0  0  0  0  0
    6.3040   -6.5620   -1.6230 F   0  0  0  0  0  0  0  0  0  0  0  0
   10.5190   -6.4530   -2.6680 C   0  0  0  0  0  0  0  0  0  0  0  0
   11.7460   -7.1170   -2.5870 C   0  0  0  0  0  0  0  0  0  0  0  0
   13.4090   -8.9130   -0.2630 H   0  0  0  0  0  0  0  0  0  0  0  0
   13.2220   -9.4310   -1.8620 H   0  0  0  0  0  0  0  0  0  0  0  0
   13.3521   -5.0181   -0.4060 H   0  0  0  0  0  0  0  0  0  0  0  0
   11.1566   -3.8320   -0.5574 H   0  0  0  0  0  0  0  0  0  0  0  0
    8.2920   -5.4820   -0.3170 H   0  0  0  0  0  0  0  0  0  0  0  0
    6.4188   -3.8745   -0.1439 H   0  0  0  0  0  0  0  0  0  0  0  0
    6.7288   -3.5342   -1.9247 H   0  0  0  0  0  0  0  0  0  0  0  0
    9.7218   -6.8528   -3.3119 H   0  0  0  0  0  0  0  0  0  0  0  0
   11.9138   -8.0457   -3.1521 H   0  0  0  0  0  0  0  0  0  0  0  0
  1  2  1  0
  2  3  2  0
  2  4  2  0
  2  5  1  0
  5  6  2  0
  6  7  1  0
  7  8  2  0
  8  9  1  0
  9 10  2  0
  9 11  1  0
 11 12  1  0
 12 13  1  0
 13 14  1  0
 13 15  1  0
 13 16  1  0
  8 17  1  0
 17 18  2  0
 18  5  1  0
  1 19  1  0
  1 20  1  0
  6 21  1  0
  7 22  1  0
 11 23  1  0
 12 24  1  0
 12 25  1  0
 17 26  1  0
 18 27  1  0
M  END
>  <meeko>  (1) 
{"is_sidechain": [false], "free_energy": -6.136, "intermolecular_energy": -7.75, "internal_energy": -0.383}

$$$$
3ryj_ligand
     RDKit          3D

 27 27  0  0  0  0  0  0  0  0999 V2000
   13.8830   -8.9660   -1.1620 N   0  0  0  0  0  0  0  0  0  0  0  0
   14.3220   -7.4280   -1.6840 S   0  0  0  0  0  0  0  0  0  0  0  0
   14.8660   -7.5460   -3.0160 O   0  0  0  0  0  0  0  0  0  0  0  0
   15.0570   -6.8350   -0.5910 O   0  0  0  0  0  0  0  0  0  0  0  0
   12.7420   -6.6270   -1.7960 C   0  0  0  0  0  0  0  0  0  0  0  0
   11.7410   -7.1930   -2.5910 C   0  0  0  0  0  0  0  0  0  0  0  0
   10.4980   -6.5620   -2.6910 C   0  0  0  0  0  0  0  0  0  0  0  0
   10.2660   -5.3600   -2.0060 C   0  0  0  0  0  0  0  0  0  0  0  0
    8.9570   -4.6560   -2.0750 C   0  0  0  0  0  0  0  0  0  0  0  0
    8.6610   -3.9970   -3.0640 O   0  0  0  0  0  0  0  0  0  0  0  0
    8.1130   -4.8130   -0.9950 N   0  0  0  0  0  0  0  0  0  0  0  0
    6.7400   -4.3080   -1.0660 C   0  0  0  0  0  0  0  0  0  0  0  0
    5.6930   -5.3340   -1.5090 C   0  0  0  0  0  0  0  0  0  0  0  0
    4.6500   -5.4240   -0.6610 F   0  0  0  0  0  0  0  0  0  0  0  0
    5.2030   -5.0040   -2.7300 F   0  0  0  0  0  0  0  0  0  0  0  0
    6.2470   -6.5630   -1.6180 F   0  0  0  0  0  0  0  0  0  0  0  0
   11.2780   -4.8030   -1.2100 C   0  0  0  0  0  0  0  0  0  0  0  0
   12.5220   -5.4290   -1.1110 C   0  0  0  0  0  0  0  0  0  0  0  0
   14.1820   -9.0850   -0.1930 H   0  0  0  0  0  0  0  0  0  0  0  0
   12.8920   -9.1710   -1.2820 H   0  0  0  0  0  0  0  0  0  0  0  0
   11.9307   -8.1301   -3.1350 H   0  0  0  0  0  0  0  0  0  0  0  0
    9.7024   -7.0075   -3.3062 H   0  0  0  0  0  0  0  0  0  0  0  0
    8.2990   -5.5650   -0.3420 H   0  0  0  0  0  0  0  0  0  0  0  0
    6.4588   -3.9436   -0.0669 H   0  0  0  0  0  0  0  0  0  0  0  0
    6.7422   -3.5210   -1.8345 H   0  0  0  0  0  0  0  0  0  0  0  0
   11.0905   -3.8684   -0.6611 H   0  0  0  0  0  0  0  0  0  0  0  0
   13.3209   -4.9837   -0.4999 H   0  0  0  0  0  0  0  0  0  0  0  0
  1  2  1  0
  2  3  2  0
  2  4  2  0
  2  5  1  0
  5  6  2  0
  6  7  1  0
  7  8  2  0
  8  9  1  0
  9 10  2  0
  9 11  1  0
 11 12  1  0
 12 13  1  0
 13 14  1  0
 13 15  1  0
 13 16  1  0
  8 17  1  0
 17 18  2  0
 18  5  1  0
  1 19  1  0
  1 20  1  0
  6 21  1  0
  7 22  1  0
 11 23  1  0
 12 24  1  0
 12 25  1  0
 17 26  1  0
 18 27  1  0
M  END
>  <meeko>  (2) 
{"is_sidechain": [false], "free_energy": -6.099, "intermolecular_energy": -7.701, "internal_energy": -0.385}

$$$$
3ryj_ligand
     RDKit          3D

 27 27  0  0  0  0  0  0  0  0999 V2000
   12.4170   -0.0880   -0.4270 N   0  0  0  0  0  0  0  0  0  0  0  0
   11.4030    0.6420   -1.5550 S   0  0  0  0  0  0  0  0  0  0  0  0
   12.0900    0.6650   -2.8240 O   0  0  0  0  0  0  0  0  0  0  0  0
   10.8990    1.8370   -0.9190 O   0  0  0  0  0  0  0  0  0  0  0  0
   10.0810   -0.5390   -1.6580 C   0  0  0  0  0  0  0  0  0  0  0  0
   10.2130   -1.6440   -2.5040 C   0  0  0  0  0  0  0  0  0  0  0  0
    9.1710   -2.5720   -2.5970 C   0  0  0  0  0  0  0  0  0  0  0  0
    7.9970   -2.3820   -1.8540 C   0  0  0  0  0  0  0  0  0  0  0  0
    6.8660   -3.3460   -1.9140 C   0  0  0  0  0  0  0  0  0  0  0  0
    6.3250   -3.5990   -2.9820 O   0  0  0  0  0  0  0  0  0  0  0  0
    6.4950   -3.9390   -0.7240 N   0  0  0  0  0  0  0  0  0  0  0  0
    5.5190   -5.0310   -0.7290 C   0  0  0  0  0  0  0  0  0  0  0  0
    6.1130   -6.4310   -0.9100 C   0  0  0  0  0  0  0  0  0  0  0  0
    6.2210   -6.7960   -2.2020 F   0  0  0  0  0  0  0  0  0  0  0  0
    7.3510   -6.4880   -0.3600 F   0  0  0  0  0  0  0  0  0  0  0  0
    5.3520   -7.3550   -0.2790 F   0  0  0  0  0  0  0  0  0  0  0  0
    7.8780   -1.2700   -1.0070 C   0  0  0  0  0  0  0  0  0  0  0  0
    8.9150   -0.3400   -0.9140 C   0  0  0  0  0  0  0  0  0  0  0  0
   13.3730   -0.0790   -0.7870 H   0  0  0  0  0  0  0  0  0  0  0  0
   12.3580    0.3250    0.5030 H   0  0  0  0  0  0  0  0  0  0  0  0
   11.1314   -1.7828   -3.0933 H   0  0  0  0  0  0  0  0  0  0  0  0
    9.2721   -3.4498   -3.2521 H   0  0  0  0  0  0  0  0  0  0  0  0
    7.1350   -3.8910    0.0590 H   0  0  0  0  0  0  0  0  0  0  0  0
    4.9797   -5.0107    0.2295 H   0  0  0  0  0  0  0  0  0  0  0  0
    4.8698   -4.8582   -1.6000 H   0  0  0  0  0  0  0  0  0  0  0  0
    6.9628   -1.1301   -0.4130 H   0  0  0  0  0  0  0  0  0  0  0  0
    8.8153    0.5402   -0.2619 H   0  0  0  0  0  0  0  0  0  0  0  0
  1  2  1  0
  2  3  2  0
  2  4  2  0
  2  5  1  0
  5  6  2  0
  6  7  1  0
  7  8  2  0
  8  9  1  0
  9 10  2  0
  9 11  1  0
 11 12  1  0
 12 13  1  0
 13 14  1  0
 13 15  1  0
 13 16  1  0
  8 17  1  0
 17 18  2  0
 18  5  1  0
  1 19  1  0
  1 20  1  0
  6 21  1  0
  7 22  1  0
 11 23  1  0
 12 24  1  0
 12 25  1  0
 17 26  1  0
 18 27  1  0
M  END
>  <meeko>  (3) 
{"is_sidechain": [false], "free_energy": -5.871, "intermolecular_energy": -7.409, "internal_energy": -0.389}

$$$$
3ryj_ligand
     RDKit          3D

 27 27  0  0  0  0  0  0  0  0999 V2000
   10.5660   -4.9700   -3.4990 N   0  0  0  0  0  0  0  0  0  0  0  0
   10.2900   -5.1170   -1.8450 S   0  0  0  0  0  0  0  0  0  0  0  0
   11.5650   -5.0470   -1.1720 O   0  0  0  0  0  0  0  0  0  0  0  0
    9.3880   -6.2350   -1.6930 O   0  0  0  0  0  0  0  0  0  0  0  0
    9.3950   -3.6230   -1.5010 C   0  0  0  0  0  0  0  0  0  0  0  0
    8.0290   -3.5600   -1.7920 C   0  0  0  0  0  0  0  0  0  0  0  0
    7.3200   -2.3840   -1.5320 C   0  0  0  0  0  0  0  0  0  0  0  0
    7.9840   -1.2710   -0.9950 C   0  0  0  0  0  0  0  0  0  0  0  0
    7.2710   -0.0010   -0.6940 C   0  0  0  0  0  0  0  0  0  0  0  0
    7.4430    0.9870   -1.3970 O   0  0  0  0  0  0  0  0  0  0  0  0
    6.4070   -0.0170    0.3810 N   0  0  0  0  0  0  0  0  0  0  0  0
    5.5320    1.1310    0.6290 C   0  0  0  0  0  0  0  0  0  0  0  0
    4.8650    1.1550    2.0070 C   0  0  0  0  0  0  0  0  0  0  0  0
    5.3440    2.1250    2.8090 F   0  0  0  0  0  0  0  0  0  0  0  0
    3.5300    1.3510    1.8760 F   0  0  0  0  0  0  0  0  0  0  0  0
    5.0350   -0.0290    2.6390 F   0  0  0  0  0  0  0  0  0  0  0  0
    9.3550   -1.3470   -0.7050 C   0  0  0  0  0  0  0  0  0  0  0  0
   10.0660   -2.5210   -0.9670 C   0  0  0  0  0  0  0  0  0  0  0  0
    9.8950   -4.3050   -3.8880 H   0  0  0  0  0  0  0  0  0  0  0  0
   11.5270   -4.7220   -3.7330 H   0  0  0  0  0  0  0  0  0  0  0  0
    7.5149   -4.4316   -2.2234 H   0  0  0  0  0  0  0  0  0  0  0  0
    6.2427   -2.3312   -1.7481 H   0  0  0  0  0  0  0  0  0  0  0  0
    6.1140   -0.9130    0.7520 H   0  0  0  0  0  0  0  0  0  0  0  0
    6.1335    2.0462    0.5258 H   0  0  0  0  0  0  0  0  0  0  0  0
    4.7157    1.0575   -0.1046 H   0  0  0  0  0  0  0  0  0  0  0  0
    9.8719   -0.4790   -0.2698 H   0  0  0  0  0  0  0  0  0  0  0  0
   11.1439   -2.5766   -0.7546 H   0  0  0  0  0  0  0  0  0  0  0  0
  1  2  1  0
  2  3  2  0
  2  4  2  0
  2  5  1  0
  5  6  2  0
  6  7  1  0
  7  8  2  0
  8  9  1  0
  9 10  2  0
  9 11  1  0
 11 12  1  0
 12 13  1  0
 13 14  1  0
 13 15  1  0
 13 16  1  0
  8 17  1  0
 17 18  2  0
 18  5  1  0
  1 19  1  0
  1 20  1  0
  6 21  1  0
  7 22  1  0
 11 23  1  0
 12 24  1  0
 12 25  1  0
 17 26  1  0
 18 27  1  0
M  END
>  <meeko>  (4) 
{"is_sidechain": [false], "free_energy": -5.734, "intermolecular_energy": -7.375, "internal_energy": -0.249}

$$$$
3ryj_ligand
     RDKit          3D

 27 27  0  0  0  0  0  0  0  0999 V2000
   13.3730   -8.7940   -1.4490 N   0  0  0  0  0  0  0  0  0  0  0  0
   13.7860   -7.2400   -1.9440 S   0  0  0  0  0  0  0  0  0  0  0  0
   14.1300   -7.2940   -3.3440 O   0  0  0  0  0  0  0  0  0  0  0  0
   14.6910   -6.7330   -0.9380 O   0  0  0  0  0  0  0  0  0  0  0  0
   12.2350   -6.3920   -1.7820 C   0  0  0  0  0  0  0  0  0  0  0  0
   12.1440   -5.2860   -0.9320 C   0  0  0  0  0  0  0  0  0  0  0  0
   10.9230   -4.6200   -0.7920 C   0  0  0  0  0  0  0  0  0  0  0  0
    9.7950   -5.0710   -1.4940 C   0  0  0  0  0  0  0  0  0  0  0  0
    8.4770   -4.3900   -1.3840 C   0  0  0  0  0  0  0  0  0  0  0  0
    7.4530   -5.0450   -1.2470 O   0  0  0  0  0  0  0  0  0  0  0  0
    8.4900   -3.0110   -1.4180 N   0  0  0  0  0  0  0  0  0  0  0  0
    7.2620   -2.2660   -1.1320 C   0  0  0  0  0  0  0  0  0  0  0  0
    7.4610   -0.9610   -0.3540 C   0  0  0  0  0  0  0  0  0  0  0  0
    7.1210    0.1330   -1.0620 F   0  0  0  0  0  0  0  0  0  0  0  0
    6.7080   -0.9710    0.7740 F   0  0  0  0  0  0  0  0  0  0  0  0
    8.7510   -0.8260    0.0270 F   0  0  0  0  0  0  0  0  0  0  0  0
    9.9010   -6.1810   -2.3460 C   0  0  0  0  0  0  0  0  0  0  0  0
   11.1180   -6.8500   -2.4850 C   0  0  0  0  0  0  0  0  0  0  0  0
   14.2240   -9.3000   -1.2000 H   0  0  0  0  0  0  0  0  0  0  0  0
   12.6840   -8.8150   -0.6980 H   0  0  0  0  0  0  0  0  0  0  0  0
   13.0286   -4.9416   -0.3762 H   0  0  0  0  0  0  0  0  0  0  0  0
   10.8466   -3.7432   -0.1321 H   0  0  0  0  0  0  0  0  0  0  0  0
    9.3700   -2.5320   -1.2700 H   0  0  0  0  0  0  0  0  0  0  0  0
    6.7804   -2.0216   -2.0903 H   0  0  0  0  0  0  0  0  0  0  0  0
    6.6512   -2.9166   -0.4888 H   0  0  0  0  0  0  0  0  0  0  0  0
    9.0201   -6.5257   -2.9074 H   0  0  0  0  0  0  0  0  0  0  0  0
   11.1969   -7.7291   -3.1415 H   0  0  0  0  0  0  0  0  0  0  0  0
  1  2  1  0
  2  3  2  0
  2  4  2  0
  2  5  1  0
  5  6  2  0
  6  7  1  0
  7  8  2  0
  8  9  1  0
  9 10  2  0
  9 11  1  0
 11 12  1  0
 12 13  1  0
 13 14  1  0
 13 15  1  0
 13 16  1  0
  8 17  1  0
 17 18  2  0
 18  5  1  0
  1 19  1  0
  1 20  1  0
  6 21  1  0
  7 22  1  0
 11 23  1  0
 12 24  1  0
 12 25  1  0
 17 26  1  0
 18 27  1  0
M  END
>  <meeko>  (5) 
{"is_sidechain": [false], "free_energy": -5.509, "intermolecular_energy": -7.052, "internal_energy": -0.289}

$$$$
3ryj_ligand
     RDKit          3D

 27 27  0  0  0  0  0  0  0  0999 V2000
    6.1540   -3.7940   -0.5730 N   0  0  0  0  0  0  0  0  0  0  0  0
    7.0610   -3.0220   -1.7630 S   0  0  0  0  0  0  0  0  0  0  0  0
    7.2010   -1.6360   -1.3870 O   0  0  0  0  0  0  0  0  0  0  0  0
    6.4900   -3.4340   -3.0240 O   0  0  0  0  0  0  0  0  0  0  0  0
    8.6390   -3.8130   -1.5760 C   0  0  0  0  0  0  0  0  0  0  0  0
    9.7730   -3.0320   -1.3350 C   0  0  0  0  0  0  0  0  0  0  0  0
   11.0200   -3.6490   -1.1970 C   0  0  0  0  0  0  0  0  0  0  0  0
   11.1290   -5.0430   -1.3130 C   0  0  0  0  0  0  0  0  0  0  0  0
   12.4320   -5.7440   -1.1650 C   0  0  0  0  0  0  0  0  0  0  0  0
   12.6470   -6.7840   -1.7750 O   0  0  0  0  0  0  0  0  0  0  0  0
   13.3640   -5.1480   -0.3410 N   0  0  0  0  0  0  0  0  0  0  0  0
   14.7300   -5.6740   -0.2890 C   0  0  0  0  0  0  0  0  0  0  0  0
   15.4950   -5.3680    1.0020 C   0  0  0  0  0  0  0  0  0  0  0  0
   14.8780   -5.8340    2.1050 F   0  0  0  0  0  0  0  0  0  0  0  0
   16.7310   -5.9240    0.9550 F   0  0  0  0  0  0  0  0  0  0  0  0
   15.6620   -4.0340    1.1520 F   0  0  0  0  0  0  0  0  0  0  0  0
    9.9820   -5.8150   -1.5530 C   0  0  0  0  0  0  0  0  0  0  0  0
    8.7360   -5.2020   -1.6940 C   0  0  0  0  0  0  0  0  0  0  0  0
    6.7760   -4.0750    0.1860 H   0  0  0  0  0  0  0  0  0  0  0  0
    5.3670   -3.2420   -0.2370 H   0  0  0  0  0  0  0  0  0  0  0  0
    9.6848   -1.9385   -1.2544 H   0  0  0  0  0  0  0  0  0  0  0  0
   11.9153   -3.0418   -0.9976 H   0  0  0  0  0  0  0  0  0  0  0  0
   13.2290   -4.1790   -0.0810 H   0  0  0  0  0  0  0  0  0  0  0  0
   14.6790   -6.7668   -0.4041 H   0  0  0  0  0  0  0  0  0  0  0  0
   15.2821   -5.1737   -1.0983 H   0  0  0  0  0  0  0  0  0  0  0  0
   10.0653   -6.9091   -1.6304 H   0  0  0  0  0  0  0  0  0  0  0  0
    7.8393   -5.8063   -1.8960 H   0  0  0  0  0  0  0  0  0  0  0  0
  1  2  1  0
  2  3  2  0
  2  4  2  0
  2  5  1  0
  5  6  2  0
  6  7  1  0
  7  8  2  0
  8  9  1  0
  9 10  2  0
  9 11  1  0
 11 12  1  0
 12 13  1  0
 13 14  1  0
 13 15  1  0
 13 16  1  0
  8 17  1  0
 17 18  2  0
 18  5  1  0
  1 19  1  0
  1 20  1  0
  6 21  1  0
  7 22  1  0
 11 23  1  0
 12 24  1  0
 12 25  1  0
 17 26  1  0
 18 27  1  0
M  END
>  <meeko>  (6) 
{"is_sidechain": [false], "free_energy": -5.438, "intermolecular_energy": -6.985, "internal_energy": -0.265}

$$$$
3ryj_ligand
     RDKit          3D

 27 27  0  0  0  0  0  0  0  0999 V2000
    5.7440   -4.1180   -0.3560 N   0  0  0  0  0  0  0  0  0  0  0  0
    6.5810   -4.7830   -1.6560 S   0  0  0  0  0  0  0  0  0  0  0  0
    5.9710   -4.3030   -2.8720 O   0  0  0  0  0  0  0  0  0  0  0  0
    6.7220   -6.1890   -1.3570 O   0  0  0  0  0  0  0  0  0  0  0  0
    8.1710   -4.0120   -1.4860 C   0  0  0  0  0  0  0  0  0  0  0  0
    9.2760   -4.7900   -1.1270 C   0  0  0  0  0  0  0  0  0  0  0  0
   10.5280   -4.1860   -0.9820 C   0  0  0  0  0  0  0  0  0  0  0  0
   10.6670   -2.8050   -1.1830 C   0  0  0  0  0  0  0  0  0  0  0  0
   11.9810   -2.1200   -1.0490 C   0  0  0  0  0  0  0  0  0  0  0  0
   13.0200   -2.7280   -1.2720 O   0  0  0  0  0  0  0  0  0  0  0  0
   11.9490   -0.7880   -0.6920 N   0  0  0  0  0  0  0  0  0  0  0  0
   13.1830    0.0010   -0.7200 C   0  0  0  0  0  0  0  0  0  0  0  0
   12.9890    1.5150   -0.6020 C   0  0  0  0  0  0  0  0  0  0  0  0
   13.5940    2.2040   -1.5880 F   0  0  0  0  0  0  0  0  0  0  0  0
   11.6680    1.8210   -0.6370 F   0  0  0  0  0  0  0  0  0  0  0  0
   13.4730    1.9670    0.5780 F   0  0  0  0  0  0  0  0  0  0  0  0
    9.5510   -2.0360   -1.5450 C   0  0  0  0  0  0  0  0  0  0  0  0
    8.2980   -2.6350   -1.6880 C   0  0  0  0  0  0  0  0  0  0  0  0
    5.3660   -3.2110   -0.6350 H   0  0  0  0  0  0  0  0  0  0  0  0
    5.0230   -4.7300    0.0220 H   0  0  0  0  0  0  0  0  0  0  0  0
    9.1606   -5.8711   -0.9597 H   0  0  0  0  0  0  0  0  0  0  0  0
   11.4039   -4.7935   -0.7104 H   0  0  0  0  0  0  0  0  0  0  0  0
   11.0750   -0.2860   -0.7780 H   0  0  0  0  0  0  0  0  0  0  0  0
   13.8165   -0.3276    0.1171 H   0  0  0  0  0  0  0  0  0  0  0  0
   13.6358   -0.1737   -1.7072 H   0  0  0  0  0  0  0  0  0  0  0  0
    9.6637   -0.9554   -1.7171 H   0  0  0  0  0  0  0  0  0  0  0  0
    7.4199   -2.0294   -1.9569 H   0  0  0  0  0  0  0  0  0  0  0  0
  1  2  1  0
  2  3  2  0
  2  4  2  0
  2  5  1  0
  5  6  2  0
  6  7  1  0
  7  8  2  0
  8  9  1  0
  9 10  2  0
  9 11  1  0
 11 12  1  0
 12 13  1  0
 13 14  1  0
 13 15  1  0
 13 16  1  0
  8 17  1  0
 17 18  2  0
 18  5  1  0
  1 19  1  0
  1 20  1  0
  6 21  1  0
  7 22  1  0
 11 23  1  0
 12 24  1  0
 12 25  1  0
 17 26  1  0
 18 27  1  0
M  END
>  <meeko>  (7) 
{"is_sidechain": [false], "free_energy": -5.402, "intermolecular_energy": -6.922, "internal_energy": -0.283}

$$$$
3ryj_ligand
     RDKit          3D

 27 27  0  0  0  0  0  0  0  0999 V2000
    8.4110    2.4850  -11.4450 N   0  0  0  0  0  0  0  0  0  0  0  0
   10.0610    2.2190  -11.2490 S   0  0  0  0  0  0  0  0  0  0  0  0
   10.7180    3.5030  -11.2080 O   0  0  0  0  0  0  0  0  0  0  0  0
   10.4120    1.1930  -12.2040 O   0  0  0  0  0  0  0  0  0  0  0  0
   10.1160    1.5120   -9.6210 C   0  0  0  0  0  0  0  0  0  0  0  0
    8.9410    1.0130   -9.0510 C   0  0  0  0  0  0  0  0  0  0  0  0
    8.9750    0.4640   -7.7660 C   0  0  0  0  0  0  0  0  0  0  0  0
   10.1820    0.4290   -7.0520 C   0  0  0  0  0  0  0  0  0  0  0  0
   10.2690   -0.1530   -5.6860 C   0  0  0  0  0  0  0  0  0  0  0  0
   10.1800   -1.3630   -5.5220 O   0  0  0  0  0  0  0  0  0  0  0  0
   10.4780    0.7330   -4.6490 N   0  0  0  0  0  0  0  0  0  0  0  0
   10.7590    0.2240   -3.3040 C   0  0  0  0  0  0  0  0  0  0  0  0
   10.0100    0.9320   -2.1720 C   0  0  0  0  0  0  0  0  0  0  0  0
    9.0860    1.8060   -2.6160 F   0  0  0  0  0  0  0  0  0  0  0  0
    9.3750    0.0230   -1.3920 F   0  0  0  0  0  0  0  0  0  0  0  0
   10.8730    1.6070   -1.3790 F   0  0  0  0  0  0  0  0  0  0  0  0
   11.3550    0.9300   -7.6360 C   0  0  0  0  0  0  0  0  0  0  0  0
   11.3230    1.4820   -8.9190 C   0  0  0  0  0  0  0  0  0  0  0  0
    8.2490    2.8960  -12.3660 H   0  0  0  0  0  0  0  0  0  0  0  0
    7.8420    1.6530  -11.2940 H   0  0  0  0  0  0  0  0  0  0  0  0
    7.9949    1.0522   -9.6107 H   0  0  0  0  0  0  0  0  0  0  0  0
    8.0565    0.0600   -7.3152 H   0  0  0  0  0  0  0  0  0  0  0  0
   10.8000    1.6670   -4.8690 H   0  0  0  0  0  0  0  0  0  0  0  0
   10.4863   -0.8414   -3.2790 H   0  0  0  0  0  0  0  0  0  0  0  0
   11.8288    0.4067   -3.1247 H   0  0  0  0  0  0  0  0  0  0  0  0
   12.3040    0.8880   -7.0814 H   0  0  0  0  0  0  0  0  0  0  0  0
   12.2392    1.8889   -9.3717 H   0  0  0  0  0  0  0  0  0  0  0  0
  1  2  1  0
  2  3  2  0
  2  4  2  0
  2  5  1  0
  5  6  2  0
  6  7  1  0
  7  8  2  0
  8  9  1  0
  9 10  2  0
  9 11  1  0
 11 12  1  0
 12 13  1  0
 13 14  1  0
 13 15  1  0
 13 16  1  0
  8 17  1  0
 17 18  2  0
 18  5  1  0
  1 19  1  0
  1 20  1  0
  6 21  1  0
  7 22  1  0
 11 23  1  0
 12 24  1  0
 12 25  1  0
 17 26  1  0
 18 27  1  0
M  END
>  <meeko>  (8) 
{"is_sidechain": [false], "free_energy": -5.383, "intermolecular_energy": -6.905, "internal_energy": -0.277}

$$$$
3ryj_ligand
     RDKit          3D

 27 27  0  0  0  0  0  0  0  0999 V2000
   14.6230   -0.5200   -0.8770 N   0  0  0  0  0  0  0  0  0  0  0  0
   13.7320    0.8980   -0.7160 S   0  0  0  0  0  0  0  0  0  0  0  0
   13.9260    1.6860   -1.9100 O   0  0  0  0  0  0  0  0  0  0  0  0
   14.0250    1.4010    0.6060 O   0  0  0  0  0  0  0  0  0  0  0  0
   12.0690    0.2750   -0.7220 C   0  0  0  0  0  0  0  0  0  0  0  0
   11.8080   -0.9870   -0.1810 C   0  0  0  0  0  0  0  0  0  0  0  0
   10.5030   -1.4880   -0.1920 C   0  0  0  0  0  0  0  0  0  0  0  0
    9.4670   -0.7290   -0.7570 C   0  0  0  0  0  0  0  0  0  0  0  0
    8.0620   -1.2160   -0.7840 C   0  0  0  0  0  0  0  0  0  0  0  0
    7.1320   -0.4240   -0.7030 O   0  0  0  0  0  0  0  0  0  0  0  0
    7.8820   -2.5760   -0.9280 N   0  0  0  0  0  0  0  0  0  0  0  0
    6.5370   -3.1120   -1.1490 C   0  0  0  0  0  0  0  0  0  0  0  0
    6.4430   -4.6400   -1.1780 C   0  0  0  0  0  0  0  0  0  0  0  0
    6.1960   -5.1310   -2.4070 F   0  0  0  0  0  0  0  0  0  0  0  0
    7.6040   -5.1870   -0.7400 F   0  0  0  0  0  0  0  0  0  0  0  0
    5.4610   -5.0720   -0.3530 F   0  0  0  0  0  0  0  0  0  0  0  0
    9.7420    0.5370   -1.2950 C   0  0  0  0  0  0  0  0  0  0  0  0
   11.0450    1.0390   -1.2880 C   0  0  0  0  0  0  0  0  0  0  0  0
   15.2080   -0.4500   -1.7120 H   0  0  0  0  0  0  0  0  0  0  0  0
   15.1680   -0.7570   -0.0490 H   0  0  0  0  0  0  0  0  0  0  0  0
   12.6253   -1.5830    0.2512 H   0  0  0  0  0  0  0  0  0  0  0  0
   10.2886   -2.4759    0.2417 H   0  0  0  0  0  0  0  0  0  0  0  0
    8.6630   -3.1350   -1.2480 H   0  0  0  0  0  0  0  0  0  0  0  0
    5.8873   -2.7460   -0.3404 H   0  0  0  0  0  0  0  0  0  0  0  0
    6.2303   -2.7674   -2.1476 H   0  0  0  0  0  0  0  0  0  0  0  0
    8.9267    1.1376   -1.7247 H   0  0  0  0  0  0  0  0  0  0  0  0
   11.2630    2.0254   -1.7234 H   0  0  0  0  0  0  0  0  0  0  0  0
  1  2  1  0
  2  3  2  0
  2  4  2  0
  2  5  1  0
  5  6  2  0
  6  7  1  0
  7  8  2  0
  8  9  1  0
  9 10  2  0
  9 11  1  0
 11 12  1  0
 12 13  1  0
 13 14  1  0
 13 15  1  0
 13 16  1  0
  8 17  1  0
 17 18  2  0
 18  5  1  0
  1 19  1  0
  1 20  1  0
  6 21  1  0
  7 22  1  0
 11 23  1  0
 12 24  1  0
 12 25  1  0
 17 26  1  0
 18 27  1  0
M  END
>  <meeko>  (9) 
{"is_sidechain": [false], "free_energy": -5.378, "intermolecular_energy": -6.906, "internal_energy": -0.269}

$$$$
