
     RDKit          3D

 17 18  0  0  0  0  0  0  0  0999 V2000
   13.8750   -3.9080    6.2470 C   0  0  0  0  0  0  0  0  0  0  0  0
   13.6540   -3.2290    5.0110 O   0  0  0  0  0  0  0  0  0  0  0  0
   12.7930   -2.1640    4.9990 C   0  0  0  0  0  0  0  0  0  0  0  0
   12.4120   -1.5060    6.1520 C   0  0  0  0  0  0  0  0  0  0  0  0
   11.5140   -0.4330    6.0810 C   0  0  0  0  0  0  0  0  0  0  0  0
   11.0060   -0.0340    4.8620 C   0  0  0  0  0  0  0  0  0  0  0  0
   10.0370    1.0970    4.8190 C   0  0  1  0  0  0  0  0  0  0  0  0
   10.3650    2.1370    3.7670 C   0  0  2  0  0  0  0  0  0  0  0  0
   11.2130    3.1540    4.2950 O   0  0  0  0  0  0  0  0  0  0  0  0
    9.0110    2.6540    3.4060 C   0  0  2  0  0  0  0  0  0  0  0  0
    8.4880    3.4440    4.4740 O   0  0  0  0  0  0  0  0  0  0  0  0
    8.2820    1.3340    3.2750 C   0  0  2  0  0  0  0  0  0  0  0  0
    6.7830    1.4920    3.0690 C   0  0  0  0  0  0  0  0  0  0  0  0
    8.6030    0.6890    4.5490 N   0  0  0  0  0  0  0  0  0  0  0  0
    8.2940   -0.7470    4.5240 C   0  0  0  0  0  0  0  0  0  0  0  0
   11.3950   -0.6780    3.7000 C   0  0  0  0  0  0  0  0  0  0  0  0
   12.2990   -1.7590    3.7720 C   0  0  0  0  0  0  0  0  0  0  0  0
  2  1  1  0
  3  2  1  0
  4  3  2  0
  5  4  1  0
  6  5  2  0
  7  6  1  6
  8  7  1  0
  8  9  1  1
 10  8  1  0
 10 11  1  1
 12 10  1  0
 12 13  1  1
 14 12  1  0
 14  7  1  0
 15 14  1  0
 16  6  1  0
 17 16  2  0
 17  3  1  0
M  CHG  1  14   1
M  END
$$$$
