2v00_ligand
     RDKit          3D

 29 30  0  0  0  0  0  0  0  0999 V2000
    2.8400   -0.9130    5.2320 N   0  0  0  0  0  0  0  0  0  0  0  0
    4.1210   -1.3540    5.2710 C   0  0  0  0  0  0  0  0  0  0  0  0
    5.0930   -0.5720    4.9230 N   0  0  0  0  0  0  0  0  0  0  0  0
    6.3740   -1.0700    4.9870 C   0  0  0  0  0  0  0  0  0  0  0  0
    7.4680   -0.1060    4.5920 C   0  0  0  0  0  0  0  0  0  0  0  0
    6.9070    1.2550    4.1670 C   0  0  0  0  0  0  0  0  0  0  0  0
    7.6980    1.8520    3.0290 C   0  0  0  0  0  0  0  0  0  0  0  0
    8.9110    1.2750    2.6300 C   0  0  0  0  0  0  0  0  0  0  0  0
    9.6330    1.8140    1.5640 C   0  0  0  0  0  0  0  0  0  0  0  0
    9.1490    2.9310    0.8860 C   0  0  0  0  0  0  0  0  0  0  0  0
    7.9410    3.5100    1.2720 C   0  0  0  0  0  0  0  0  0  0  0  0
    7.2160    2.9720    2.3380 C   0  0  0  0  0  0  0  0  0  0  0  0
    6.6650   -2.3170    5.3870 C   0  0  0  0  0  0  0  0  0  0  0  0
    5.5520   -3.1980    5.7600 C   0  0  0  0  0  0  0  0  0  0  0  0
    5.7400   -4.3610    6.0980 O   0  0  0  0  0  0  0  0  0  0  0  0
    4.3170   -2.6300    5.6960 N   0  0  0  0  0  0  0  0  0  0  0  0
    2.6010   -0.1900    5.8960 H   0  0  0  0  0  0  0  0  0  0  0  0
    2.5650   -0.6720    4.2850 H   0  0  0  0  0  0  0  0  0  0  0  0
    8.1405    0.0393    5.4503 H   0  0  0  0  0  0  0  0  0  0  0  0
    8.0058   -0.5351    3.7337 H   0  0  0  0  0  0  0  0  0  0  0  0
    5.8626    1.1262    3.8466 H   0  0  0  0  0  0  0  0  0  0  0  0
    6.9732    1.9377    5.0269 H   0  0  0  0  0  0  0  0  0  0  0  0
    9.2966    0.3917    3.1602 H   0  0  0  0  0  0  0  0  0  0  0  0
   10.5855    1.3563    1.2587 H   0  0  0  0  0  0  0  0  0  0  0  0
    9.7196    3.3556    0.0469 H   0  0  0  0  0  0  0  0  0  0  0  0
    7.5583    4.3914    0.7366 H   0  0  0  0  0  0  0  0  0  0  0  0
    6.2615    3.4300    2.6367 H   0  0  0  0  0  0  0  0  0  0  0  0
    7.7063   -2.6685    5.4340 H   0  0  0  0  0  0  0  0  0  0  0  0
    3.5350   -3.2280    5.9040 H   0  0  0  0  0  0  0  0  0  0  0  0
  1  2  1  0
  2  3  2  0
  3  4  1  0
  4  5  1  0
  5  6  1  0
  6  7  1  0
  7  8  2  0
  8  9  1  0
  9 10  2  0
 10 11  1  0
 11 12  2  0
  4 13  2  0
 13 14  1  0
 14 15  2  0
 14 16  1  0
 16  2  1  0
 12  7  1  0
  1 17  1  0
  1 18  1  0
  5 19  1  0
  5 20  1  0
  6 21  1  0
  6 22  1  0
  8 23  1  0
  9 24  1  0
 10 25  1  0
 11 26  1  0
 12 27  1  0
 13 28  1  0
 16 29  1  0
M  END
>  <meeko>  (1) 
{"is_sidechain": [false], "free_energy": -7.392, "intermolecular_energy": -8.904, "internal_energy": -0.338}

$$$$
2v00_ligand
     RDKit          3D

 29 30  0  0  0  0  0  0  0  0999 V2000
    2.9610   -0.7970    4.9210 N   0  0  0  0  0  0  0  0  0  0  0  0
    3.3950   -1.4540    6.0240 C   0  0  0  0  0  0  0  0  0  0  0  0
    3.2350   -0.9370    7.2000 N   0  0  0  0  0  0  0  0  0  0  0  0
    3.6910   -1.6500    8.2850 C   0  0  0  0  0  0  0  0  0  0  0  0
    3.4560   -1.0090    9.6330 C   0  0  0  0  0  0  0  0  0  0  0  0
    2.4120   -1.7720   10.4550 C   0  0  0  0  0  0  0  0  0  0  0  0
    1.9050   -0.9460   11.6130 C   0  0  0  0  0  0  0  0  0  0  0  0
    1.8210    0.4490   11.5050 C   0  0  0  0  0  0  0  0  0  0  0  0
    1.3330    1.2110   12.5670 C   0  0  0  0  0  0  0  0  0  0  0  0
    0.9210    0.5890   13.7430 C   0  0  0  0  0  0  0  0  0  0  0  0
    0.9960   -0.7990   13.8590 C   0  0  0  0  0  0  0  0  0  0  0  0
    1.4830   -1.5640   12.7980 C   0  0  0  0  0  0  0  0  0  0  0  0
    4.2910   -2.8450    8.1860 C   0  0  0  0  0  0  0  0  0  0  0  0
    4.4840   -3.4110    6.8460 C   0  0  0  0  0  0  0  0  0  0  0  0
    5.0580   -4.4800    6.6760 O   0  0  0  0  0  0  0  0  0  0  0  0
    3.9860   -2.6620    5.8240 N   0  0  0  0  0  0  0  0  0  0  0  0
    3.4360    0.0690    4.7080 H   0  0  0  0  0  0  0  0  0  0  0  0
    2.9150   -1.4190    4.1200 H   0  0  0  0  0  0  0  0  0  0  0  0
    4.4047   -0.9936   10.1896 H   0  0  0  0  0  0  0  0  0  0  0  0
    3.0782    0.0102    9.4643 H   0  0  0  0  0  0  0  0  0  0  0  0
    1.5646   -2.0315    9.8034 H   0  0  0  0  0  0  0  0  0  0  0  0
    2.8874   -2.6775   10.8601 H   0  0  0  0  0  0  0  0  0  0  0  0
    2.1417    0.9459   10.5775 H   0  0  0  0  0  0  0  0  0  0  0  0
    1.2735    2.3056   12.4752 H   0  0  0  0  0  0  0  0  0  0  0  0
    0.5369    1.1916   14.5793 H   0  0  0  0  0  0  0  0  0  0  0  0
    0.6710   -1.2912   14.7875 H   0  0  0  0  0  0  0  0  0  0  0  0
    1.5359   -2.6587   12.8925 H   0  0  0  0  0  0  0  0  0  0  0  0
    4.6286   -3.3851    9.0828 H   0  0  0  0  0  0  0  0  0  0  0  0
    4.1460   -3.0070    4.8930 H   0  0  0  0  0  0  0  0  0  0  0  0
  1  2  1  0
  2  3  2  0
  3  4  1  0
  4  5  1  0
  5  6  1  0
  6  7  1  0
  7  8  2  0
  8  9  1  0
  9 10  2  0
 10 11  1  0
 11 12  2  0
  4 13  2  0
 13 14  1  0
 14 15  2  0
 14 16  1  0
 16  2  1  0
 12  7  1  0
  1 17  1  0
  1 18  1  0
  5 19  1  0
  5 20  1  0
  6 21  1  0
  6 22  1  0
  8 23  1  0
  9 24  1  0
 10 25  1  0
 11 26  1  0
 12 27  1  0
 13 28  1  0
 16 29  1  0
M  END
>  <meeko>  (2) 
{"is_sidechain": [false], "free_energy": -6.825, "intermolecular_energy": -8.28, "internal_energy": -0.279}

$$$$
2v00_ligand
     RDKit          3D

 29 30  0  0  0  0  0  0  0  0999 V2000
    5.5790   -4.7540    6.4490 N   0  0  0  0  0  0  0  0  0  0  0  0
    5.5640   -3.5030    5.9270 C   0  0  0  0  0  0  0  0  0  0  0  0
    6.6280   -3.0100    5.3780 N   0  0  0  0  0  0  0  0  0  0  0  0
    6.5550   -1.7380    4.8600 C   0  0  0  0  0  0  0  0  0  0  0  0
    7.8200   -1.2240    4.2120 C   0  0  0  0  0  0  0  0  0  0  0  0
    8.1650    0.1950    4.6770 C   0  0  0  0  0  0  0  0  0  0  0  0
    8.2060    1.1640    3.5200 C   0  0  0  0  0  0  0  0  0  0  0  0
    9.3010    1.1780    2.6450 C   0  0  0  0  0  0  0  0  0  0  0  0
    9.3290    2.0600    1.5640 C   0  0  0  0  0  0  0  0  0  0  0  0
    8.2650    2.9320    1.3450 C   0  0  0  0  0  0  0  0  0  0  0  0
    7.1690    2.9220    2.2060 C   0  0  0  0  0  0  0  0  0  0  0  0
    7.1370    2.0410    3.2880 C   0  0  0  0  0  0  0  0  0  0  0  0
    5.4450   -0.9860    4.8960 C   0  0  0  0  0  0  0  0  0  0  0  0
    4.2520   -1.5500    5.5380 C   0  0  0  0  0  0  0  0  0  0  0  0
    3.2140   -0.9070    5.6420 O   0  0  0  0  0  0  0  0  0  0  0  0
    4.3910   -2.8210    6.0050 N   0  0  0  0  0  0  0  0  0  0  0  0
    4.6960   -5.0950    6.8020 H   0  0  0  0  0  0  0  0  0  0  0  0
    6.0180   -5.4110    5.8110 H   0  0  0  0  0  0  0  0  0  0  0  0
    8.6513   -1.8956    4.4728 H   0  0  0  0  0  0  0  0  0  0  0  0
    7.6586   -1.1963    3.1243 H   0  0  0  0  0  0  0  0  0  0  0  0
    7.4034    0.5300    5.3965 H   0  0  0  0  0  0  0  0  0  0  0  0
    9.1615    0.1720    5.1422 H   0  0  0  0  0  0  0  0  0  0  0  0
   10.1429    0.4899    2.8114 H   0  0  0  0  0  0  0  0  0  0  0  0
   10.1931    2.0667    0.8834 H   0  0  0  0  0  0  0  0  0  0  0  0
    8.2898    3.6278    0.4934 H   0  0  0  0  0  0  0  0  0  0  0  0
    6.3280    3.6095    2.0325 H   0  0  0  0  0  0  0  0  0  0  0  0
    6.2681    2.0347    3.9626 H   0  0  0  0  0  0  0  0  0  0  0  0
    5.4294    0.0228    4.4577 H   0  0  0  0  0  0  0  0  0  0  0  0
    3.6010   -3.2120    6.4890 H   0  0  0  0  0  0  0  0  0  0  0  0
  1  2  1  0
  2  3  2  0
  3  4  1  0
  4  5  1  0
  5  6  1  0
  6  7  1  0
  7  8  2  0
  8  9  1  0
  9 10  2  0
 10 11  1  0
 11 12  2  0
  4 13  2  0
 13 14  1  0
 14 15  2  0
 14 16  1  0
 16  2  1  0
 12  7  1  0
  1 17  1  0
  1 18  1  0
  5 19  1  0
  5 20  1  0
  6 21  1  0
  6 22  1  0
  8 23  1  0
  9 24  1  0
 10 25  1  0
 11 26  1  0
 12 27  1  0
 13 28  1  0
 16 29  1  0
M  END
>  <meeko>  (3) 
{"is_sidechain": [false], "free_energy": -6.777, "intermolecular_energy": -8.065, "internal_energy": -0.436}

$$$$
2v00_ligand
     RDKit          3D

 29 30  0  0  0  0  0  0  0  0999 V2000
    5.1060   -4.5480    6.0130 N   0  0  0  0  0  0  0  0  0  0  0  0
    4.4720   -3.3980    6.3500 C   0  0  0  0  0  0  0  0  0  0  0  0
    4.0120   -3.2320    7.5490 N   0  0  0  0  0  0  0  0  0  0  0  0
    3.3820   -2.0430    7.8370 C   0  0  0  0  0  0  0  0  0  0  0  0
    2.8860   -1.8960    9.2570 C   0  0  0  0  0  0  0  0  0  0  0  0
    3.0970   -0.4760    9.7930 C   0  0  0  0  0  0  0  0  0  0  0  0
    2.3020   -0.2340   11.0530 C   0  0  0  0  0  0  0  0  0  0  0  0
    1.6890   -1.3020   11.7200 C   0  0  0  0  0  0  0  0  0  0  0  0
    0.9700   -1.0820   12.8960 C   0  0  0  0  0  0  0  0  0  0  0  0
    0.8620    0.2050   13.4180 C   0  0  0  0  0  0  0  0  0  0  0  0
    1.4730    1.2750   12.7650 C   0  0  0  0  0  0  0  0  0  0  0  0
    2.1920    1.0570   11.5880 C   0  0  0  0  0  0  0  0  0  0  0  0
    3.2210   -1.0550    6.9450 C   0  0  0  0  0  0  0  0  0  0  0  0
    3.7300   -1.2640    5.5850 C   0  0  0  0  0  0  0  0  0  0  0  0
    3.5850   -0.4210    4.7080 O   0  0  0  0  0  0  0  0  0  0  0  0
    4.3630   -2.4520    5.3800 N   0  0  0  0  0  0  0  0  0  0  0  0
    5.8240   -4.8600    6.6510 H   0  0  0  0  0  0  0  0  0  0  0  0
    4.4380   -5.2810    5.7940 H   0  0  0  0  0  0  0  0  0  0  0  0
    1.8116   -2.1302    9.2842 H   0  0  0  0  0  0  0  0  0  0  0  0
    3.4594   -2.5880    9.8913 H   0  0  0  0  0  0  0  0  0  0  0  0
    4.1654   -0.3321   10.0118 H   0  0  0  0  0  0  0  0  0  0  0  0
    2.7535    0.2353    9.0275 H   0  0  0  0  0  0  0  0  0  0  0  0
    1.7747   -2.3209   11.3145 H   0  0  0  0  0  0  0  0  0  0  0  0
    0.4881   -1.9260   13.4112 H   0  0  0  0  0  0  0  0  0  0  0  0
    0.2951    0.3772   14.3448 H   0  0  0  0  0  0  0  0  0  0  0  0
    1.3885    2.2913   13.1773 H   0  0  0  0  0  0  0  0  0  0  0  0
    2.6749    1.9033   11.0776 H   0  0  0  0  0  0  0  0  0  0  0  0
    2.7220   -0.1154    7.2247 H   0  0  0  0  0  0  0  0  0  0  0  0
    4.6810   -2.6370    4.4440 H   0  0  0  0  0  0  0  0  0  0  0  0
  1  2  1  0
  2  3  2  0
  3  4  1  0
  4  5  1  0
  5  6  1  0
  6  7  1  0
  7  8  2  0
  8  9  1  0
  9 10  2  0
 10 11  1  0
 11 12  2  0
  4 13  2  0
 13 14  1  0
 14 15  2  0
 14 16  1  0
 16  2  1  0
 12  7  1  0
  1 17  1  0
  1 18  1  0
  5 19  1  0
  5 20  1  0
  6 21  1  0
  6 22  1  0
  8 23  1  0
  9 24  1  0
 10 25  1  0
 11 26  1  0
 12 27  1  0
 13 28  1  0
 16 29  1  0
M  END
>  <meeko>  (4) 
{"is_sidechain": [false], "free_energy": -6.584, "intermolecular_energy": -7.947, "internal_energy": -0.322}

$$$$
2v00_ligand
     RDKit          3D

 29 30  0  0  0  0  0  0  0  0999 V2000
    7.8570    0.5910   -0.4370 N   0  0  0  0  0  0  0  0  0  0  0  0
    7.6890    1.3740    0.6560 C   0  0  0  0  0  0  0  0  0  0  0  0
    7.6200    0.8460    1.8360 N   0  0  0  0  0  0  0  0  0  0  0  0
    7.4540    1.6890    2.9100 C   0  0  0  0  0  0  0  0  0  0  0  0
    7.4030    1.0180    4.2630 C   0  0  0  0  0  0  0  0  0  0  0  0
    7.3420   -0.5080    4.1440 C   0  0  0  0  0  0  0  0  0  0  0  0
    6.1910   -1.0820    4.9350 C   0  0  0  0  0  0  0  0  0  0  0  0
    4.9460   -0.4380    4.9440 C   0  0  0  0  0  0  0  0  0  0  0  0
    3.8770   -0.9780    5.6590 C   0  0  0  0  0  0  0  0  0  0  0  0
    4.0390   -2.1660    6.3680 C   0  0  0  0  0  0  0  0  0  0  0  0
    5.2720   -2.8180    6.3620 C   0  0  0  0  0  0  0  0  0  0  0  0
    6.3440   -2.2790    5.6470 C   0  0  0  0  0  0  0  0  0  0  0  0
    7.3580    3.0220    2.7980 C   0  0  0  0  0  0  0  0  0  0  0  0
    7.4180    3.6060    1.4530 C   0  0  0  0  0  0  0  0  0  0  0  0
    7.3000    4.8120    1.2710 O   0  0  0  0  0  0  0  0  0  0  0  0
    7.6090    2.7150    0.4420 N   0  0  0  0  0  0  0  0  0  0  0  0
    7.7590   -0.4030   -0.2870 H   0  0  0  0  0  0  0  0  0  0  0  0
    7.2920    0.9210   -1.2130 H   0  0  0  0  0  0  0  0  0  0  0  0
    8.3037    1.2943    4.8308 H   0  0  0  0  0  0  0  0  0  0  0  0
    6.4905    1.3559    4.7760 H   0  0  0  0  0  0  0  0  0  0  0  0
    7.2175   -0.7787    3.0851 H   0  0  0  0  0  0  0  0  0  0  0  0
    8.2775   -0.9221    4.5482 H   0  0  0  0  0  0  0  0  0  0  0  0
    4.8112    0.4990    4.3838 H   0  0  0  0  0  0  0  0  0  0  0  0
    2.9041   -0.4647    5.6630 H   0  0  0  0  0  0  0  0  0  0  0  0
    3.1951   -2.5897    6.9322 H   0  0  0  0  0  0  0  0  0  0  0  0
    5.4002   -3.7569    6.9205 H   0  0  0  0  0  0  0  0  0  0  0  0
    7.3142   -2.7974    5.6429 H   0  0  0  0  0  0  0  0  0  0  0  0
    7.2379    3.6582    3.6873 H   0  0  0  0  0  0  0  0  0  0  0  0
    7.6090    3.0870   -0.4920 H   0  0  0  0  0  0  0  0  0  0  0  0
  1  2  1  0
  2  3  2  0
  3  4  1  0
  4  5  1  0
  5  6  1  0
  6  7  1  0
  7  8  2  0
  8  9  1  0
  9 10  2  0
 10 11  1  0
 11 12  2  0
  4 13  2  0
 13 14  1  0
 14 15  2  0
 14 16  1  0
 16  2  1  0
 12  7  1  0
  1 17  1  0
  1 18  1  0
  5 19  1  0
  5 20  1  0
  6 21  1  0
  6 22  1  0
  8 23  1  0
  9 24  1  0
 10 25  1  0
 11 26  1  0
 12 27  1  0
 13 28  1  0
 16 29  1  0
M  END
>  <meeko>  (5) 
{"is_sidechain": [false], "free_energy": -6.393, "intermolecular_energy": -7.657, "internal_energy": -0.382}

$$$$
2v00_ligand
     RDKit          3D

 29 30  0  0  0  0  0  0  0  0999 V2000
    9.3010   -3.9870    0.4080 N   0  0  0  0  0  0  0  0  0  0  0  0
   10.0340   -3.8850   -0.7270 C   0  0  0  0  0  0  0  0  0  0  0  0
   10.4290   -4.9500   -1.3490 N   0  0  0  0  0  0  0  0  0  0  0  0
   11.1660   -4.7870   -2.5000 C   0  0  0  0  0  0  0  0  0  0  0  0
   11.5790   -6.0630   -3.1950 C   0  0  0  0  0  0  0  0  0  0  0  0
   12.8820   -6.6320   -2.6210 C   0  0  0  0  0  0  0  0  0  0  0  0
   13.9400   -6.7820   -3.6880 C   0  0  0  0  0  0  0  0  0  0  0  0
   13.6780   -6.3850   -5.0060 C   0  0  0  0  0  0  0  0  0  0  0  0
   14.6630   -6.5050   -5.9880 C   0  0  0  0  0  0  0  0  0  0  0  0
   15.9160   -7.0180   -5.6620 C   0  0  0  0  0  0  0  0  0  0  0  0
   16.1880   -7.4110   -4.3520 C   0  0  0  0  0  0  0  0  0  0  0  0
   15.2050   -7.2920   -3.3670 C   0  0  0  0  0  0  0  0  0  0  0  0
   11.4960   -3.5890   -3.0050 C   0  0  0  0  0  0  0  0  0  0  0  0
   11.0580   -2.3910   -2.2800 C   0  0  0  0  0  0  0  0  0  0  0  0
   11.3550   -1.2650   -2.6610 O   0  0  0  0  0  0  0  0  0  0  0  0
   10.3130   -2.6280   -1.1650 N   0  0  0  0  0  0  0  0  0  0  0  0
    8.5290   -3.3400    0.4940 H   0  0  0  0  0  0  0  0  0  0  0  0
    9.0200   -4.9480    0.5770 H   0  0  0  0  0  0  0  0  0  0  0  0
   10.7805   -6.8094   -3.0717 H   0  0  0  0  0  0  0  0  0  0  0  0
   11.7469   -5.8330   -4.2575 H   0  0  0  0  0  0  0  0  0  0  0  0
   13.2554   -5.9522   -1.8409 H   0  0  0  0  0  0  0  0  0  0  0  0
   12.6690   -7.6277   -2.2049 H   0  0  0  0  0  0  0  0  0  0  0  0
   12.6909   -5.9766   -5.2683 H   0  0  0  0  0  0  0  0  0  0  0  0
   14.4490   -6.1938   -7.0211 H   0  0  0  0  0  0  0  0  0  0  0  0
   16.6905   -7.1131   -6.4373 H   0  0  0  0  0  0  0  0  0  0  0  0
   17.1780   -7.8152   -4.0941 H   0  0  0  0  0  0  0  0  0  0  0  0
   15.4249   -7.6001   -2.3342 H   0  0  0  0  0  0  0  0  0  0  0  0
   12.0777   -3.5071   -3.9350 H   0  0  0  0  0  0  0  0  0  0  0  0
   10.0390   -1.8240   -0.6260 H   0  0  0  0  0  0  0  0  0  0  0  0
  1  2  1  0
  2  3  2  0
  3  4  1  0
  4  5  1  0
  5  6  1  0
  6  7  1  0
  7  8  2  0
  8  9  1  0
  9 10  2  0
 10 11  1  0
 11 12  2  0
  4 13  2  0
 13 14  1  0
 14 15  2  0
 14 16  1  0
 16  2  1  0
 12  7  1  0
  1 17  1  0
  1 18  1  0
  5 19  1  0
  5 20  1  0
  6 21  1  0
  6 22  1  0
  8 23  1  0
  9 24  1  0
 10 25  1  0
 11 26  1  0
 12 27  1  0
 13 28  1  0
 16 29  1  0
M  END
>  <meeko>  (6) 
{"is_sidechain": [false], "free_energy": -6.337, "intermolecular_energy": -7.544, "internal_energy": -0.427}

$$$$
2v00_ligand
     RDKit          3D

 29 30  0  0  0  0  0  0  0  0999 V2000
    8.2980   -5.2830    5.2970 N   0  0  0  0  0  0  0  0  0  0  0  0
    7.9910   -4.2710    4.4500 C   0  0  0  0  0  0  0  0  0  0  0  0
    7.6810   -3.1020    4.9120 N   0  0  0  0  0  0  0  0  0  0  0  0
    7.3840   -2.1100    4.0060 C   0  0  0  0  0  0  0  0  0  0  0  0
    7.0530   -0.7610    4.6020 C   0  0  0  0  0  0  0  0  0  0  0  0
    8.2680    0.1720    4.6170 C   0  0  0  0  0  0  0  0  0  0  0  0
    8.2330    1.1490    3.4670 C   0  0  0  0  0  0  0  0  0  0  0  0
    7.1560    2.0340    3.3210 C   0  0  0  0  0  0  0  0  0  0  0  0
    7.1330    2.9510    2.2700 C   0  0  0  0  0  0  0  0  0  0  0  0
    8.1850    2.9960    1.3580 C   0  0  0  0  0  0  0  0  0  0  0  0
    9.2640    2.1240    1.4970 C   0  0  0  0  0  0  0  0  0  0  0  0
    9.2900    1.2050    2.5480 C   0  0  0  0  0  0  0  0  0  0  0  0
    7.3970   -2.2920    2.6770 C   0  0  0  0  0  0  0  0  0  0  0  0
    7.7310   -3.6270    2.1680 C   0  0  0  0  0  0  0  0  0  0  0  0
    7.7250   -3.8760    0.9680 O   0  0  0  0  0  0  0  0  0  0  0  0
    8.0380   -4.5500    3.1200 N   0  0  0  0  0  0  0  0  0  0  0  0
    9.1540   -5.1750    5.8230 H   0  0  0  0  0  0  0  0  0  0  0  0
    7.5070   -5.5150    5.8910 H   0  0  0  0  0  0  0  0  0  0  0  0
    6.2546   -0.2952    4.0057 H   0  0  0  0  0  0  0  0  0  0  0  0
    6.7316   -0.9181    5.6422 H   0  0  0  0  0  0  0  0  0  0  0  0
    8.2748    0.7339    5.5626 H   0  0  0  0  0  0  0  0  0  0  0  0
    9.1749   -0.4427    4.5185 H   0  0  0  0  0  0  0  0  0  0  0  0
    6.3237    2.0053    4.0396 H   0  0  0  0  0  0  0  0  0  0  0  0
    6.2824    3.6400    2.1612 H   0  0  0  0  0  0  0  0  0  0  0  0
    8.1645    3.7188    0.5290 H   0  0  0  0  0  0  0  0  0  0  0  0
   10.0957    2.1600    0.7780 H   0  0  0  0  0  0  0  0  0  0  0  0
   10.1448    0.5211    2.6554 H   0  0  0  0  0  0  0  0  0  0  0  0
    7.1643   -1.4654    1.9896 H   0  0  0  0  0  0  0  0  0  0  0  0
    8.2260   -5.4840    2.7980 H   0  0  0  0  0  0  0  0  0  0  0  0
  1  2  1  0
  2  3  2  0
  3  4  1  0
  4  5  1  0
  5  6  1  0
  6  7  1  0
  7  8  2  0
  8  9  1  0
  9 10  2  0
 10 11  1  0
 11 12  2  0
  4 13  2  0
 13 14  1  0
 14 15  2  0
 14 16  1  0
 16  2  1  0
 12  7  1  0
  1 17  1  0
  1 18  1  0
  5 19  1  0
  5 20  1  0
  6 21  1  0
  6 22  1  0
  8 23  1  0
  9 24  1  0
 10 25  1  0
 11 26  1  0
 12 27  1  0
 13 28  1  0
 16 29  1  0
M  END
>  <meeko>  (7) 
{"is_sidechain": [false], "free_energy": -6.335, "intermolecular_energy": -7.498, "internal_energy": -0.47}

$$$$
2v00_ligand
     RDKit          3D

 29 30  0  0  0  0  0  0  0  0999 V2000
    7.9320   -4.6410    2.6090 N   0  0  0  0  0  0  0  0  0  0  0  0
    7.5430   -3.7940    3.5940 C   0  0  0  0  0  0  0  0  0  0  0  0
    8.0020   -2.5850    3.6360 N   0  0  0  0  0  0  0  0  0  0  0  0
    7.5680   -1.7670    4.6550 C   0  0  0  0  0  0  0  0  0  0  0  0
    8.1190   -0.3600    4.6400 C   0  0  0  0  0  0  0  0  0  0  0  0
    7.0820    0.6560    4.1500 C   0  0  0  0  0  0  0  0  0  0  0  0
    7.6460    1.5470    3.0690 C   0  0  0  0  0  0  0  0  0  0  0  0
    6.9610    2.7060    2.6780 C   0  0  0  0  0  0  0  0  0  0  0  0
    7.4910    3.5410    1.6940 C   0  0  0  0  0  0  0  0  0  0  0  0
    8.7100    3.2290    1.0950 C   0  0  0  0  0  0  0  0  0  0  0  0
    9.4020    2.0820    1.4810 C   0  0  0  0  0  0  0  0  0  0  0  0
    8.8740    1.2450    2.4660 C   0  0  0  0  0  0  0  0  0  0  0  0
    6.7020   -2.1580    5.6000 C   0  0  0  0  0  0  0  0  0  0  0  0
    6.2050   -3.5380    5.5520 C   0  0  0  0  0  0  0  0  0  0  0  0
    5.4410   -3.9760    6.4040 O   0  0  0  0  0  0  0  0  0  0  0  0
    6.6560   -4.2800    4.5040 N   0  0  0  0  0  0  0  0  0  0  0  0
    8.8890   -4.9620    2.6560 H   0  0  0  0  0  0  0  0  0  0  0  0
    7.2730   -5.4070    2.5040 H   0  0  0  0  0  0  0  0  0  0  0  0
    8.4280   -0.0885    5.6602 H   0  0  0  0  0  0  0  0  0  0  0  0
    8.9727   -0.3362    3.9467 H   0  0  0  0  0  0  0  0  0  0  0  0
    6.2129    0.1141    3.7488 H   0  0  0  0  0  0  0  0  0  0  0  0
    6.7909    1.2890    5.0012 H   0  0  0  0  0  0  0  0  0  0  0  0
    6.0000    2.9585    3.1498 H   0  0  0  0  0  0  0  0  0  0  0  0
    6.9459    4.4470    1.3905 H   0  0  0  0  0  0  0  0  0  0  0  0
    9.1259    3.8874    0.3181 H   0  0  0  0  0  0  0  0  0  0  0  0
   10.3648    1.8362    1.0092 H   0  0  0  0  0  0  0  0  0  0  0  0
    9.4254    0.3432    2.7703 H   0  0  0  0  0  0  0  0  0  0  0  0
    6.3734   -1.4650    6.3885 H   0  0  0  0  0  0  0  0  0  0  0  0
    6.3650   -5.2420    4.4730 H   0  0  0  0  0  0  0  0  0  0  0  0
  1  2  1  0
  2  3  2  0
  3  4  1  0
  4  5  1  0
  5  6  1  0
  6  7  1  0
  7  8  2  0
  8  9  1  0
  9 10  2  0
 10 11  1  0
 11 12  2  0
  4 13  2  0
 13 14  1  0
 14 15  2  0
 14 16  1  0
 16  2  1  0
 12  7  1  0
  1 17  1  0
  1 18  1  0
  5 19  1  0
  5 20  1  0
  6 21  1  0
  6 22  1  0
  8 23  1  0
  9 24  1  0
 10 25  1  0
 11 26  1  0
 12 27  1  0
 13 28  1  0
 16 29  1  0
M  END
>  <meeko>  (8) 
{"is_sidechain": [false], "free_energy": -6.304, "intermolecular_energy": -7.577, "internal_energy": -0.355}

$$$$
2v00_ligand
     RDKit          3D

 29 30  0  0  0  0  0  0  0  0999 V2000
   12.5510    3.6860    0.3640 N   0  0  0  0  0  0  0  0  0  0  0  0
   11.6840    2.9600   -0.3840 C   0  0  0  0  0  0  0  0  0  0  0  0
   10.4680    2.7730    0.0210 N   0  0  0  0  0  0  0  0  0  0  0  0
    9.6300    2.0330   -0.7800 C   0  0  0  0  0  0  0  0  0  0  0  0
    8.2180    1.8670   -0.2690 C   0  0  0  0  0  0  0  0  0  0  0  0
    7.9370    2.7680    0.9380 C   0  0  0  0  0  0  0  0  0  0  0  0
    7.7770    1.9650    2.2070 C   0  0  0  0  0  0  0  0  0  0  0  0
    8.7960    1.1020    2.6310 C   0  0  0  0  0  0  0  0  0  0  0  0
    8.6580    0.3740    3.8140 C   0  0  0  0  0  0  0  0  0  0  0  0
    7.5040    0.5040    4.5840 C   0  0  0  0  0  0  0  0  0  0  0  0
    6.4860    1.3640    4.1730 C   0  0  0  0  0  0  0  0  0  0  0  0
    6.6220    2.0930    2.9900 C   0  0  0  0  0  0  0  0  0  0  0  0
   10.0060    1.4970   -1.9510 C   0  0  0  0  0  0  0  0  0  0  0  0
   11.3920    1.7010   -2.3880 C   0  0  0  0  0  0  0  0  0  0  0  0
   11.8160    1.2090   -3.4270 O   0  0  0  0  0  0  0  0  0  0  0  0
   12.1550    2.4630   -1.5580 N   0  0  0  0  0  0  0  0  0  0  0  0
   12.7110    4.6350    0.0570 H   0  0  0  0  0  0  0  0  0  0  0  0
   12.3150    3.6340    1.3500 H   0  0  0  0  0  0  0  0  0  0  0  0
    7.5155    2.1238   -1.0756 H   0  0  0  0  0  0  0  0  0  0  0  0
    8.0916    0.8217    0.0494 H   0  0  0  0  0  0  0  0  0  0  0  0
    8.7754    3.4691    1.0627 H   0  0  0  0  0  0  0  0  0  0  0  0
    6.9969    3.3081    0.7522 H   0  0  0  0  0  0  0  0  0  0  0  0
    9.7101    0.9975    2.0281 H   0  0  0  0  0  0  0  0  0  0  0  0
    9.4615   -0.3034    4.1389 H   0  0  0  0  0  0  0  0  0  0  0  0
    7.3960   -0.0713    5.5153 H   0  0  0  0  0  0  0  0  0  0  0  0
    5.5754    1.4681    4.7812 H   0  0  0  0  0  0  0  0  0  0  0  0
    5.8176    2.7719    2.6707 H   0  0  0  0  0  0  0  0  0  0  0  0
    9.2970    0.9221   -2.5649 H   0  0  0  0  0  0  0  0  0  0  0  0
   13.1210    2.5790   -1.8140 H   0  0  0  0  0  0  0  0  0  0  0  0
  1  2  1  0
  2  3  2  0
  3  4  1  0
  4  5  1  0
  5  6  1  0
  6  7  1  0
  7  8  2  0
  8  9  1  0
  9 10  2  0
 10 11  1  0
 11 12  2  0
  4 13  2  0
 13 14  1  0
 14 15  2  0
 14 16  1  0
 16  2  1  0
 12  7  1  0
  1 17  1  0
  1 18  1  0
  5 19  1  0
  5 20  1  0
  6 21  1  0
  6 22  1  0
  8 23  1  0
  9 24  1  0
 10 25  1  0
 11 26  1  0
 12 27  1  0
 13 28  1  0
 16 29  1  0
M  END
>  <meeko>  (9) 
{"is_sidechain": [false], "free_energy": -6.209, "intermolecular_energy": -7.475, "internal_energy": -0.342}

$$$$
