4f3c_ligand
     RDKit          3D

 49 51  0  0  0  0  0  0  0  0999 V2000
    7.5740    6.5690   16.3200 C   0  0  0  0  0  0  0  0  0  0  0  0
    7.6460    5.1720   15.7220 C   0  0  0  0  0  0  0  0  0  0  0  0
    7.8340    5.1680   14.2020 C   0  0  0  0  0  0  0  0  0  0  0  0
    7.6050    6.5420   13.5740 C   0  0  0  0  0  0  0  0  0  0  0  0
    8.1060    6.5710   11.8150 S   0  0  0  0  0  0  0  0  0  0  0  0
    7.9600    8.3510   11.4490 C   0  0  0  0  0  0  0  0  0  0  0  0
    6.4970    8.8150   11.4310 C   0  0  1  0  0  0  0  0  0  0  0  0
    6.3420   10.2820   10.9970 C   0  0  0  0  0  0  0  0  0  0  0  0
    5.7740   10.2510    9.5960 N   0  0  1  0  0  0  0  0  0  0  0  0
    6.3090   11.2990    8.6730 C   0  0  0  0  0  0  0  0  0  0  0  0
    7.6930   11.7100    9.0110 C   0  0  0  0  0  0  0  0  0  0  0  0
    8.1070   12.5930    9.9940 C   0  0  0  0  0  0  0  0  0  0  0  0
    9.4830   12.6410    9.9770 N   0  0  0  0  0  0  0  0  0  0  0  0
    9.9640   11.8350    8.9770 C   0  0  0  0  0  0  0  0  0  0  0  0
   11.2450   11.5370    8.5470 C   0  0  0  0  0  0  0  0  0  0  0  0
   12.3900   12.0870    9.0890 N   0  0  0  0  0  0  0  0  0  0  0  0
   11.3710   10.6580    7.5410 N   0  0  0  0  0  0  0  0  0  0  0  0
   10.2580   10.1220    7.0080 C   0  0  0  0  0  0  0  0  0  0  0  0
    8.9780   10.3700    7.3430 N   0  0  0  0  0  0  0  0  0  0  0  0
    8.8710   11.2380    8.3720 C   0  0  0  0  0  0  0  0  0  0  0  0
    5.9070    8.8270    9.1050 C   0  0  0  0  0  0  0  0  0  0  0  0
    5.6810    8.0420   10.3950 C   0  0  2  0  0  0  0  0  0  0  0  0
    4.2950    8.1490   10.7420 O   0  0  0  0  0  0  0  0  0  0  0  0
    7.5776    6.4986   17.4177 H   0  0  0  0  0  0  0  0  0  0  0  0
    8.4431    7.1555   15.9873 H   0  0  0  0  0  0  0  0  0  0  0  0
    6.6492    7.0630   15.9873 H   0  0  0  0  0  0  0  0  0  0  0  0
    8.4937    4.6406   16.1792 H   0  0  0  0  0  0  0  0  0  0  0  0
    6.6844    4.6803   15.9308 H   0  0  0  0  0  0  0  0  0  0  0  0
    8.8608    4.8447   13.9756 H   0  0  0  0  0  0  0  0  0  0  0  0
    7.0872    4.4809   13.7775 H   0  0  0  0  0  0  0  0  0  0  0  0
    6.5364    6.7932   13.6449 H   0  0  0  0  0  0  0  0  0  0  0  0
    8.2182    7.2753   14.1183 H   0  0  0  0  0  0  0  0  0  0  0  0
    8.5031    8.9179   12.2194 H   0  0  0  0  0  0  0  0  0  0  0  0
    8.3858    8.5291   10.4505 H   0  0  0  0  0  0  0  0  0  0  0  0
    6.1504    8.6561   12.4628 H   0  0  0  0  0  0  0  0  0  0  0  0
    5.6551   10.8095   11.6751 H   0  0  0  0  0  0  0  0  0  0  0  0
    7.3053   10.8122   11.0268 H   0  0  0  0  0  0  0  0  0  0  0  0
    4.7580   10.4010    9.6870 H   0  0  0  0  0  0  0  0  0  0  0  0
    6.3010   10.9014    7.6474 H   0  0  0  0  0  0  0  0  0  0  0  0
    5.6665   12.1864    8.7716 H   0  0  0  0  0  0  0  0  0  0  0  0
    7.4502   13.1584   10.6714 H   0  0  0  0  0  0  0  0  0  0  0  0
   10.0660   13.1660   10.6180 H   0  0  0  0  0  0  0  0  0  0  0  0
   12.7080   12.9560    8.6880 H   0  0  0  0  0  0  0  0  0  0  0  0
   13.1110   11.3770    9.1890 H   0  0  0  0  0  0  0  0  0  0  0  0
   10.4129    9.3920    6.1998 H   0  0  0  0  0  0  0  0  0  0  0  0
    5.1435    8.5887    8.3498 H   0  0  0  0  0  0  0  0  0  0  0  0
    6.8640    8.6099    8.6080 H   0  0  0  0  0  0  0  0  0  0  0  0
    5.9581    6.9800   10.3222 H   0  0  0  0  0  0  0  0  0  0  0  0
    4.1490    9.0280   11.1450 H   0  0  0  0  0  0  0  0  0  0  0  0
  1  2  1  0
  2  3  1  0
  3  4  1  0
  4  5  1  0
  5  6  1  0
  6  7  1  0
  7  8  1  0
  8  9  1  0
  9 10  1  0
 10 11  1  0
 11 12  2  0
 12 13  1  0
 13 14  1  0
 14 15  2  0
 15 16  1  0
 15 17  1  0
 17 18  2  0
 18 19  1  0
 19 20  2  0
  9 21  1  0
 21 22  1  0
 22 23  1  0
 22  7  1  0
 20 11  1  0
 20 14  1  0
  1 24  1  0
  1 25  1  0
  1 26  1  0
  2 27  1  0
  2 28  1  0
  3 29  1  0
  3 30  1  0
  4 31  1  0
  4 32  1  0
  6 33  1  0
  6 34  1  0
  7 35  1  1
  8 36  1  0
  8 37  1  0
  9 38  1  1
 10 39  1  0
 10 40  1  0
 12 41  1  0
 13 42  1  0
 16 43  1  0
 16 44  1  0
 18 45  1  0
 21 46  1  0
 21 47  1  0
 22 48  1  6
 23 49  1  0
M  CHG  1   9   1
M  END
>  <meeko>  (1) 
{"is_sidechain": [false], "free_energy": -8.089, "intermolecular_energy": -11.872, "internal_energy": -0.332}

$$$$
4f3c_ligand
     RDKit          3D

 49 51  0  0  0  0  0  0  0  0999 V2000
   10.5020    9.9460    6.5900 C   0  0  0  0  0  0  0  0  0  0  0  0
   11.4950   10.6780    7.4810 C   0  0  0  0  0  0  0  0  0  0  0  0
   10.8750   11.8460    8.2530 C   0  0  0  0  0  0  0  0  0  0  0  0
    9.3550   11.7370    8.3710 C   0  0  0  0  0  0  0  0  0  0  0  0
    8.7840   12.1010   10.0710 S   0  0  0  0  0  0  0  0  0  0  0  0
    7.0310   11.6120    9.9530 C   0  0  0  0  0  0  0  0  0  0  0  0
    6.8720   10.1600    9.4800 C   0  0  1  0  0  0  0  0  0  0  0  0
    7.9720    9.2320   10.0230 C   0  0  0  0  0  0  0  0  0  0  0  0
    7.3170    8.3780   11.0850 N   0  0  1  0  0  0  0  0  0  0  0  0
    8.1690    8.0890   12.2790 C   0  0  0  0  0  0  0  0  0  0  0  0
    7.8260    6.8020   12.9320 C   0  0  0  0  0  0  0  0  0  0  0  0
    7.8370    5.5320   12.3790 C   0  0  0  0  0  0  0  0  0  0  0  0
    7.4880    4.6320   13.3610 N   0  0  0  0  0  0  0  0  0  0  0  0
    7.2150    5.3000   14.5280 C   0  0  0  0  0  0  0  0  0  0  0  0
    6.8280    4.8710   15.7850 C   0  0  0  0  0  0  0  0  0  0  0  0
    6.5890    3.5510   16.1130 N   0  0  0  0  0  0  0  0  0  0  0  0
    6.6780    5.8050   16.7380 N   0  0  0  0  0  0  0  0  0  0  0  0
    6.9070    7.0930   16.4230 C   0  0  0  0  0  0  0  0  0  0  0  0
    7.2610    7.6010   15.2280 N   0  0  0  0  0  0  0  0  0  0  0  0
    7.4300    6.6470   14.2880 C   0  0  0  0  0  0  0  0  0  0  0  0
    5.9770    9.0100   11.3850 C   0  0  0  0  0  0  0  0  0  0  0  0
    5.5790    9.5400   10.0100 C   0  0  2  0  0  0  0  0  0  0  0  0
    5.2440    8.4190    9.1830 O   0  0  0  0  0  0  0  0  0  0  0  0
    9.7740    9.4093    7.2161 H   0  0  0  0  0  0  0  0  0  0  0  0
    9.9742   10.6727    5.9549 H   0  0  0  0  0  0  0  0  0  0  0  0
   11.0401    9.2268    5.9549 H   0  0  0  0  0  0  0  0  0  0  0  0
   11.9072    9.9608    8.2060 H   0  0  0  0  0  0  0  0  0  0  0  0
   12.2708   11.0987    6.8244 H   0  0  0  0  0  0  0  0  0  0  0  0
   11.3056   11.8665    9.2650 H   0  0  0  0  0  0  0  0  0  0  0  0
   11.0989   12.7676    7.6958 H   0  0  0  0  0  0  0  0  0  0  0  0
    8.8907   12.4534    7.6773 H   0  0  0  0  0  0  0  0  0  0  0  0
    9.0636   10.7056    8.1234 H   0  0  0  0  0  0  0  0  0  0  0  0
    6.5653   11.7161   10.9441 H   0  0  0  0  0  0  0  0  0  0  0  0
    6.5437   12.2661    9.2150 H   0  0  0  0  0  0  0  0  0  0  0  0
    6.9015   10.2288    8.3825 H   0  0  0  0  0  0  0  0  0  0  0  0
    8.3694    8.5989    9.2161 H   0  0  0  0  0  0  0  0  0  0  0  0
    8.8147    9.8071   10.4344 H   0  0  0  0  0  0  0  0  0  0  0  0
    7.0860    7.4780   10.6380 H   0  0  0  0  0  0  0  0  0  0  0  0
    9.2209    8.0516   11.9594 H   0  0  0  0  0  0  0  0  0  0  0  0
    7.9936    8.8897   13.0126 H   0  0  0  0  0  0  0  0  0  0  0  0
    8.0822    5.2851   11.3355 H   0  0  0  0  0  0  0  0  0  0  0  0
    7.4600    3.6250   13.2590 H   0  0  0  0  0  0  0  0  0  0  0  0
    6.6450    3.3100   17.0910 H   0  0  0  0  0  0  0  0  0  0  0  0
    7.1060    2.9330   15.4930 H   0  0  0  0  0  0  0  0  0  0  0  0
    6.7908    7.8187   17.2414 H   0  0  0  0  0  0  0  0  0  0  0  0
    5.2551    8.2665   11.7539 H   0  0  0  0  0  0  0  0  0  0  0  0
    6.0084    9.7787   12.1712 H   0  0  0  0  0  0  0  0  0  0  0  0
    4.7326   10.2422   10.0324 H   0  0  0  0  0  0  0  0  0  0  0  0
    6.0740    8.0450    8.8250 H   0  0  0  0  0  0  0  0  0  0  0  0
  1  2  1  0
  2  3  1  0
  3  4  1  0
  4  5  1  0
  5  6  1  0
  6  7  1  0
  7  8  1  0
  8  9  1  0
  9 10  1  0
 10 11  1  0
 11 12  2  0
 12 13  1  0
 13 14  1  0
 14 15  2  0
 15 16  1  0
 15 17  1  0
 17 18  2  0
 18 19  1  0
 19 20  2  0
  9 21  1  0
 21 22  1  0
 22 23  1  0
 22  7  1  0
 20 11  1  0
 20 14  1  0
  1 24  1  0
  1 25  1  0
  1 26  1  0
  2 27  1  0
  2 28  1  0
  3 29  1  0
  3 30  1  0
  4 31  1  0
  4 32  1  0
  6 33  1  0
  6 34  1  0
  7 35  1  6
  8 36  1  0
  8 37  1  0
  9 38  1  6
 10 39  1  0
 10 40  1  0
 12 41  1  0
 13 42  1  0
 16 43  1  0
 16 44  1  0
 18 45  1  0
 21 46  1  0
 21 47  1  0
 22 48  1  1
 23 49  1  0
M  CHG  1   9   1
M  END
>  <meeko>  (2) 
{"is_sidechain": [false], "free_energy": -6.661, "intermolecular_energy": -9.686, "internal_energy": -0.423}

$$$$
4f3c_ligand
     RDKit          3D

 49 51  0  0  0  0  0  0  0  0999 V2000
    7.7260    5.3570   12.3500 C   0  0  0  0  0  0  0  0  0  0  0  0
    7.7500    6.0630   13.6980 C   0  0  0  0  0  0  0  0  0  0  0  0
    7.5310    5.1190   14.8840 C   0  0  0  0  0  0  0  0  0  0  0  0
    7.6470    5.8260   16.2340 C   0  0  0  0  0  0  0  0  0  0  0  0
    7.9660    4.6410   17.5900 S   0  0  0  0  0  0  0  0  0  0  0  0
    6.5590    4.9990   18.6930 C   0  0  0  0  0  0  0  0  0  0  0  0
    5.4410    5.7600   17.9660 C   0  0  1  0  0  0  0  0  0  0  0  0
    4.3750    4.8250   17.3700 C   0  0  0  0  0  0  0  0  0  0  0  0
    3.1500    4.9690   18.2450 N   0  0  1  0  0  0  0  0  0  0  0  0
    2.3870    3.7040   18.4790 C   0  0  0  0  0  0  0  0  0  0  0  0
    2.1620    2.9300   17.2350 C   0  0  0  0  0  0  0  0  0  0  0  0
    2.4910    1.6090   16.9780 C   0  0  0  0  0  0  0  0  0  0  0  0
    2.0580    1.2980   15.7080 N   0  0  0  0  0  0  0  0  0  0  0  0
    1.4910    2.4030   15.1260 C   0  0  0  0  0  0  0  0  0  0  0  0
    0.9140    2.6180   13.8870 C   0  0  0  0  0  0  0  0  0  0  0  0
    0.8310    1.6600   12.8950 N   0  0  0  0  0  0  0  0  0  0  0  0
    0.4080    3.8380   13.6440 N   0  0  0  0  0  0  0  0  0  0  0  0
    0.4900    4.7750   14.6060 C   0  0  0  0  0  0  0  0  0  0  0  0
    1.0510    4.6630   15.8240 N   0  0  0  0  0  0  0  0  0  0  0  0
    1.5340    3.4240   16.0600 C   0  0  0  0  0  0  0  0  0  0  0  0
    3.5920    5.6990   19.4930 C   0  0  0  0  0  0  0  0  0  0  0  0
    4.6510    6.6440   18.9310 C   0  0  2  0  0  0  0  0  0  0  0  0
    3.9820    7.6560   18.1690 O   0  0  0  0  0  0  0  0  0  0  0  0
    7.6890    4.2688   12.5066 H   0  0  0  0  0  0  0  0  0  0  0  0
    6.8382    5.6765   11.7845 H   0  0  0  0  0  0  0  0  0  0  0  0
    8.6334    5.6154   11.7845 H   0  0  0  0  0  0  0  0  0  0  0  0
    8.7279    6.5522   13.8179 H   0  0  0  0  0  0  0  0  0  0  0  0
    6.9202    6.7852   13.7007 H   0  0  0  0  0  0  0  0  0  0  0  0
    6.5257    4.6800   14.8026 H   0  0  0  0  0  0  0  0  0  0  0  0
    8.3168    4.3503   14.8445 H   0  0  0  0  0  0  0  0  0  0  0  0
    8.4756    6.5480   16.1887 H   0  0  0  0  0  0  0  0  0  0  0  0
    6.6933    6.3345   16.4389 H   0  0  0  0  0  0  0  0  0  0  0  0
    6.1541    4.0493   19.0727 H   0  0  0  0  0  0  0  0  0  0  0  0
    6.9231    5.6319   19.5157 H   0  0  0  0  0  0  0  0  0  0  0  0
    5.9651    6.3314   17.1857 H   0  0  0  0  0  0  0  0  0  0  0  0
    4.1424    5.1217   16.3366 H   0  0  0  0  0  0  0  0  0  0  0  0
    4.7267    3.7831   17.3414 H   0  0  0  0  0  0  0  0  0  0  0  0
    2.5210    5.6310   17.7660 H   0  0  0  0  0  0  0  0  0  0  0  0
    2.9525    3.0780   19.1849 H   0  0  0  0  0  0  0  0  0  0  0  0
    1.4007    3.9815   18.8792 H   0  0  0  0  0  0  0  0  0  0  0  0
    3.0084    0.9267   17.6685 H   0  0  0  0  0  0  0  0  0  0  0  0
    2.1190    0.3870   15.2680 H   0  0  0  0  0  0  0  0  0  0  0  0
    1.5570    0.9600   12.8800 H   0  0  0  0  0  0  0  0  0  0  0  0
    0.6440    2.0960   11.9970 H   0  0  0  0  0  0  0  0  0  0  0  0
    0.0440    5.7519   14.3678 H   0  0  0  0  0  0  0  0  0  0  0  0
    2.7597    6.2540   19.9504 H   0  0  0  0  0  0  0  0  0  0  0  0
    3.9577    5.0394   20.2937 H   0  0  0  0  0  0  0  0  0  0  0  0
    5.2752    7.1199   19.7017 H   0  0  0  0  0  0  0  0  0  0  0  0
    3.2250    7.2420   17.7090 H   0  0  0  0  0  0  0  0  0  0  0  0
  1  2  1  0
  2  3  1  0
  3  4  1  0
  4  5  1  0
  5  6  1  0
  6  7  1  0
  7  8  1  0
  8  9  1  0
  9 10  1  0
 10 11  1  0
 11 12  2  0
 12 13  1  0
 13 14  1  0
 14 15  2  0
 15 16  1  0
 15 17  1  0
 17 18  2  0
 18 19  1  0
 19 20  2  0
  9 21  1  0
 21 22  1  0
 22 23  1  0
 22  7  1  0
 20 11  1  0
 20 14  1  0
  1 24  1  0
  1 25  1  0
  1 26  1  0
  2 27  1  0
  2 28  1  0
  3 29  1  0
  3 30  1  0
  4 31  1  0
  4 32  1  0
  6 33  1  0
  6 34  1  0
  7 35  1  6
  8 36  1  0
  8 37  1  0
  9 38  1  6
 10 39  1  0
 10 40  1  0
 12 41  1  0
 13 42  1  0
 16 43  1  0
 16 44  1  0
 18 45  1  0
 21 46  1  0
 21 47  1  0
 22 48  1  1
 23 49  1  0
M  CHG  1   9   1
M  END
>  <meeko>  (3) 
{"is_sidechain": [false], "free_energy": -6.288, "intermolecular_energy": -8.648, "internal_energy": -0.912}

$$$$
4f3c_ligand
     RDKit          3D

 49 51  0  0  0  0  0  0  0  0999 V2000
    0.7600    4.8460   17.6430 C   0  0  0  0  0  0  0  0  0  0  0  0
    1.4000    5.9180   16.7730 C   0  0  0  0  0  0  0  0  0  0  0  0
    2.9300    5.8450   16.7440 C   0  0  0  0  0  0  0  0  0  0  0  0
    3.4560    4.4120   16.8100 C   0  0  0  0  0  0  0  0  0  0  0  0
    5.1020    4.3350   17.6050 S   0  0  0  0  0  0  0  0  0  0  0  0
    6.1540    3.9360   16.1710 C   0  0  0  0  0  0  0  0  0  0  0  0
    7.3070    4.9360   16.0100 C   0  0  1  0  0  0  0  0  0  0  0  0
    7.8330    5.0130   14.5670 C   0  0  0  0  0  0  0  0  0  0  0  0
    7.3430    6.3300   14.0090 N   0  0  1  0  0  0  0  0  0  0  0  0
    6.9300    6.2950   12.5720 C   0  0  0  0  0  0  0  0  0  0  0  0
    7.0530    7.6150   11.9060 C   0  0  0  0  0  0  0  0  0  0  0  0
    8.1850    8.4030   11.7720 C   0  0  0  0  0  0  0  0  0  0  0  0
    7.8450    9.5230   11.0470 N   0  0  0  0  0  0  0  0  0  0  0  0
    6.5070    9.4910   10.7420 C   0  0  0  0  0  0  0  0  0  0  0  0
    5.6840   10.3570   10.0440 C   0  0  0  0  0  0  0  0  0  0  0  0
    6.1040   11.5550    9.5020 N   0  0  0  0  0  0  0  0  0  0  0  0
    4.3990   10.0000    9.8920 N   0  0  0  0  0  0  0  0  0  0  0  0
    3.9850    8.8350   10.4210 C   0  0  0  0  0  0  0  0  0  0  0  0
    4.7040    7.9470   11.1310 N   0  0  0  0  0  0  0  0  0  0  0  0
    5.9990    8.3090   11.2550 C   0  0  0  0  0  0  0  0  0  0  0  0
    6.2960    6.8460   14.9700 C   0  0  0  0  0  0  0  0  0  0  0  0
    6.8510    6.3640   16.3070 C   0  0  2  0  0  0  0  0  0  0  0  0
    8.0080    7.1520   16.6160 O   0  0  0  0  0  0  0  0  0  0  0  0
    0.9097    5.0968   18.7035 H   0  0  0  0  0  0  0  0  0  0  0  0
   -0.3173    4.7935   17.4272 H   0  0  0  0  0  0  0  0  0  0  0  0
    1.2250    3.8728   17.4272 H   0  0  0  0  0  0  0  0  0  0  0  0
    1.0259    5.8020   15.7451 H   0  0  0  0  0  0  0  0  0  0  0  0
    1.1296    6.8921   17.2066 H   0  0  0  0  0  0  0  0  0  0  0  0
    3.2863    6.3075   15.8117 H   0  0  0  0  0  0  0  0  0  0  0  0
    3.3037    6.3761   17.6319 H   0  0  0  0  0  0  0  0  0  0  0  0
    2.7504    3.7990   17.3900 H   0  0  0  0  0  0  0  0  0  0  0  0
    3.5523    4.0331   15.7818 H   0  0  0  0  0  0  0  0  0  0  0  0
    6.5738    2.9285   16.3075 H   0  0  0  0  0  0  0  0  0  0  0  0
    5.5302    3.9870   15.2664 H   0  0  0  0  0  0  0  0  0  0  0  0
    8.0777    4.5734   16.7061 H   0  0  0  0  0  0  0  0  0  0  0  0
    8.9325    4.9813   14.5598 H   0  0  0  0  0  0  0  0  0  0  0  0
    7.4760    4.1648   13.9645 H   0  0  0  0  0  0  0  0  0  0  0  0
    8.1250    6.9960   14.0950 H   0  0  0  0  0  0  0  0  0  0  0  0
    7.5671    5.5726   12.0407 H   0  0  0  0  0  0  0  0  0  0  0  0
    5.8694    6.0052   12.5393 H   0  0  0  0  0  0  0  0  0  0  0  0
    9.1824    8.1735   12.1750 H   0  0  0  0  0  0  0  0  0  0  0  0
    8.4810   10.2530   10.7520 H   0  0  0  0  0  0  0  0  0  0  0  0
    5.5680   11.9140    8.7260 H   0  0  0  0  0  0  0  0  0  0  0  0
    7.1090   11.5440    9.3530 H   0  0  0  0  0  0  0  0  0  0  0  0
    2.9292    8.5765   10.2525 H   0  0  0  0  0  0  0  0  0  0  0  0
    6.2245    7.9432   14.9360 H   0  0  0  0  0  0  0  0  0  0  0  0
    5.2758    6.4959   14.7541 H   0  0  0  0  0  0  0  0  0  0  0  0
    6.1315    6.4308   17.1364 H   0  0  0  0  0  0  0  0  0  0  0  0
    8.6580    6.5750   17.0640 H   0  0  0  0  0  0  0  0  0  0  0  0
  1  2  1  0
  2  3  1  0
  3  4  1  0
  4  5  1  0
  5  6  1  0
  6  7  1  0
  7  8  1  0
  8  9  1  0
  9 10  1  0
 10 11  1  0
 11 12  2  0
 12 13  1  0
 13 14  1  0
 14 15  2  0
 15 16  1  0
 15 17  1  0
 17 18  2  0
 18 19  1  0
 19 20  2  0
  9 21  1  0
 21 22  1  0
 22 23  1  0
 22  7  1  0
 20 11  1  0
 20 14  1  0
  1 24  1  0
  1 25  1  0
  1 26  1  0
  2 27  1  0
  2 28  1  0
  3 29  1  0
  3 30  1  0
  4 31  1  0
  4 32  1  0
  6 33  1  0
  6 34  1  0
  7 35  1  1
  8 36  1  0
  8 37  1  0
  9 38  1  6
 10 39  1  0
 10 40  1  0
 12 41  1  0
 13 42  1  0
 16 43  1  0
 16 44  1  0
 18 45  1  0
 21 46  1  0
 21 47  1  0
 22 48  1  1
 23 49  1  0
M  CHG  1   9   1
M  END
>  <meeko>  (4) 
{"is_sidechain": [false], "free_energy": -6.267, "intermolecular_energy": -8.817, "internal_energy": -0.713}

$$$$
4f3c_ligand
     RDKit          3D

 49 51  0  0  0  0  0  0  0  0999 V2000
    7.8030    9.9130   10.3590 C   0  0  0  0  0  0  0  0  0  0  0  0
    7.0350    8.8550   11.1390 C   0  0  0  0  0  0  0  0  0  0  0  0
    7.9180    8.0330   12.0820 C   0  0  0  0  0  0  0  0  0  0  0  0
    7.1090    7.1610   13.0420 C   0  0  0  0  0  0  0  0  0  0  0  0
    7.7040    5.4320   13.0460 S   0  0  0  0  0  0  0  0  0  0  0  0
    7.7990    5.1090   14.8380 C   0  0  0  0  0  0  0  0  0  0  0  0
    7.1260    6.2200   15.6570 C   0  0  1  0  0  0  0  0  0  0  0  0
    5.6190    5.9860   15.8540 C   0  0  0  0  0  0  0  0  0  0  0  0
    5.4410    5.5730   17.2980 N   0  0  1  0  0  0  0  0  0  0  0  0
    4.4050    4.5210   17.5320 C   0  0  0  0  0  0  0  0  0  0  0  0
    3.0480    4.9460   17.1080 C   0  0  0  0  0  0  0  0  0  0  0  0
    2.3640    6.0980   17.4610 C   0  0  0  0  0  0  0  0  0  0  0  0
    1.1550    6.0980   16.8000 N   0  0  0  0  0  0  0  0  0  0  0  0
    1.0310    4.9510   16.0570 C   0  0  0  0  0  0  0  0  0  0  0  0
    0.0300    4.4740   15.2290 C   0  0  0  0  0  0  0  0  0  0  0  0
   -1.1660    5.1270   15.0070 N   0  0  0  0  0  0  0  0  0  0  0  0
    0.2460    3.3040   14.6090 N   0  0  0  0  0  0  0  0  0  0  0  0
    1.4100    2.6630   14.8250 C   0  0  0  0  0  0  0  0  0  0  0  0
    2.4230    3.0370   15.6270 N   0  0  0  0  0  0  0  0  0  0  0  0
    2.1990    4.2270   16.2250 C   0  0  0  0  0  0  0  0  0  0  0  0
    6.8190    5.2540   17.8310 C   0  0  0  0  0  0  0  0  0  0  0  0
    7.6750    6.2720   17.0820 C   0  0  2  0  0  0  0  0  0  0  0  0
    7.3970    7.5690   17.6250 O   0  0  0  0  0  0  0  0  0  0  0  0
    8.3001   10.5978   11.0618 H   0  0  0  0  0  0  0  0  0  0  0  0
    8.5587    9.4252    9.7258 H   0  0  0  0  0  0  0  0  0  0  0  0
    7.1051   10.4804    9.7258 H   0  0  0  0  0  0  0  0  0  0  0  0
    6.2597    9.3568   11.7365 H   0  0  0  0  0  0  0  0  0  0  0  0
    6.6074    8.1569   10.4042 H   0  0  0  0  0  0  0  0  0  0  0  0
    8.5666    7.3818   11.4776 H   0  0  0  0  0  0  0  0  0  0  0  0
    8.5017    8.7403   12.6894 H   0  0  0  0  0  0  0  0  0  0  0  0
    7.1986    7.5716   14.0586 H   0  0  0  0  0  0  0  0  0  0  0  0
    6.0609    7.1631   12.7080 H   0  0  0  0  0  0  0  0  0  0  0  0
    7.2973    4.1543   15.0543 H   0  0  0  0  0  0  0  0  0  0  0  0
    8.8611    5.0723   15.1218 H   0  0  0  0  0  0  0  0  0  0  0  0
    7.3247    7.1368   15.0825 H   0  0  0  0  0  0  0  0  0  0  0  0
    5.0597    6.9110   15.6503 H   0  0  0  0  0  0  0  0  0  0  0  0
    5.2401    5.2149   15.1671 H   0  0  0  0  0  0  0  0  0  0  0  0
    5.1530    6.4190   17.8120 H   0  0  0  0  0  0  0  0  0  0  0  0
    4.6843    3.6205   16.9654 H   0  0  0  0  0  0  0  0  0  0  0  0
    4.3683    4.3272   18.6142 H   0  0  0  0  0  0  0  0  0  0  0  0
    2.7236    6.8771   18.1492 H   0  0  0  0  0  0  0  0  0  0  0  0
    0.4660    6.8390   16.8270 H   0  0  0  0  0  0  0  0  0  0  0  0
   -1.1110    6.1050   14.7650 H   0  0  0  0  0  0  0  0  0  0  0  0
   -1.8310    4.9100   15.7450 H   0  0  0  0  0  0  0  0  0  0  0  0
    1.5497    1.7183   14.2791 H   0  0  0  0  0  0  0  0  0  0  0  0
    6.8743    5.4049   18.9192 H   0  0  0  0  0  0  0  0  0  0  0  0
    7.1284    4.2092   17.6808 H   0  0  0  0  0  0  0  0  0  0  0  0
    8.7553    6.0742   17.1432 H   0  0  0  0  0  0  0  0  0  0  0  0
    7.1990    7.4650   18.5770 H   0  0  0  0  0  0  0  0  0  0  0  0
  1  2  1  0
  2  3  1  0
  3  4  1  0
  4  5  1  0
  5  6  1  0
  6  7  1  0
  7  8  1  0
  8  9  1  0
  9 10  1  0
 10 11  1  0
 11 12  2  0
 12 13  1  0
 13 14  1  0
 14 15  2  0
 15 16  1  0
 15 17  1  0
 17 18  2  0
 18 19  1  0
 19 20  2  0
  9 21  1  0
 21 22  1  0
 22 23  1  0
 22  7  1  0
 20 11  1  0
 20 14  1  0
  1 24  1  0
  1 25  1  0
  1 26  1  0
  2 27  1  0
  2 28  1  0
  3 29  1  0
  3 30  1  0
  4 31  1  0
  4 32  1  0
  6 33  1  0
  6 34  1  0
  7 35  1  6
  8 36  1  0
  8 37  1  0
  9 38  1  1
 10 39  1  0
 10 40  1  0
 12 41  1  0
 13 42  1  0
 16 43  1  0
 16 44  1  0
 18 45  1  0
 21 46  1  0
 21 47  1  0
 22 48  1  6
 23 49  1  0
M  CHG  1   9   1
M  END
>  <meeko>  (5) 
{"is_sidechain": [false], "free_energy": -6.264, "intermolecular_energy": -9.07, "internal_energy": -0.456}

$$$$
4f3c_ligand
     RDKit          3D

 49 51  0  0  0  0  0  0  0  0999 V2000
    7.8930    5.4890   11.9700 C   0  0  0  0  0  0  0  0  0  0  0  0
    7.3650    6.6410   12.8120 C   0  0  0  0  0  0  0  0  0  0  0  0
    7.6650    6.4920   14.3060 C   0  0  0  0  0  0  0  0  0  0  0  0
    7.8470    5.0350   14.7310 C   0  0  0  0  0  0  0  0  0  0  0  0
    6.9560    4.6710   16.2860 S   0  0  0  0  0  0  0  0  0  0  0  0
    7.3620    6.1540   17.2660 C   0  0  0  0  0  0  0  0  0  0  0  0
    6.1300    7.0360   17.5090 C   0  0  1  0  0  0  0  0  0  0  0  0
    4.8370    6.4210   16.9450 C   0  0  0  0  0  0  0  0  0  0  0  0
    4.0440    5.9390   18.1390 N   0  0  1  0  0  0  0  0  0  0  0  0
    3.3100    4.6520   17.9330 C   0  0  0  0  0  0  0  0  0  0  0  0
    2.0350    4.8290   17.1960 C   0  0  0  0  0  0  0  0  0  0  0  0
    1.0480    5.7770   17.4100 C   0  0  0  0  0  0  0  0  0  0  0  0
    0.0640    5.5930   16.4640 N   0  0  0  0  0  0  0  0  0  0  0  0
    0.3790    4.5220   15.6670 C   0  0  0  0  0  0  0  0  0  0  0  0
   -0.2620    3.9330   14.5910 C   0  0  0  0  0  0  0  0  0  0  0  0
   -1.4850    4.3450   14.0990 N   0  0  0  0  0  0  0  0  0  0  0  0
    0.3510    2.8960   13.9980 N   0  0  0  0  0  0  0  0  0  0  0  0
    1.5410    2.4900   14.4760 C   0  0  0  0  0  0  0  0  0  0  0  0
    2.2240    2.9840   15.5250 N   0  0  0  0  0  0  0  0  0  0  0  0
    1.6040    4.0400   16.0960 C   0  0  0  0  0  0  0  0  0  0  0  0
    4.9820    5.9660   19.3240 C   0  0  0  0  0  0  0  0  0  0  0  0
    5.8380    7.1870   19.0020 C   0  0  2  0  0  0  0  0  0  0  0  0
    5.0300    8.3560   19.1870 O   0  0  0  0  0  0  0  0  0  0  0  0
    8.2594    4.6896   12.6309 H   0  0  0  0  0  0  0  0  0  0  0  0
    7.0842    5.0980   11.3352 H   0  0  0  0  0  0  0  0  0  0  0  0
    8.7172    5.8465   11.3352 H   0  0  0  0  0  0  0  0  0  0  0  0
    7.8268    7.5735   12.4553 H   0  0  0  0  0  0  0  0  0  0  0  0
    6.2707    6.6487   12.7005 H   0  0  0  0  0  0  0  0  0  0  0  0
    8.5888    7.0432   14.5357 H   0  0  0  0  0  0  0  0  0  0  0  0
    6.8026    6.8930   14.8587 H   0  0  0  0  0  0  0  0  0  0  0  0
    7.4601    4.3803   13.9362 H   0  0  0  0  0  0  0  0  0  0  0  0
    8.9194    4.8571   14.8992 H   0  0  0  0  0  0  0  0  0  0  0  0
    7.7696    5.8374   18.2374 H   0  0  0  0  0  0  0  0  0  0  0  0
    8.0973    6.7449   16.7002 H   0  0  0  0  0  0  0  0  0  0  0  0
    6.3784    7.9883   17.0177 H   0  0  0  0  0  0  0  0  0  0  0  0
    4.2657    7.1784   16.3882 H   0  0  0  0  0  0  0  0  0  0  0  0
    5.0549    5.5973   16.2493 H   0  0  0  0  0  0  0  0  0  0  0  0
    3.3460    6.6690   18.3430 H   0  0  0  0  0  0  0  0  0  0  0  0
    3.9542    3.9676   17.3615 H   0  0  0  0  0  0  0  0  0  0  0  0
    3.0650    4.2478   18.9263 H   0  0  0  0  0  0  0  0  0  0  0  0
    1.0498    6.5438   18.1987 H   0  0  0  0  0  0  0  0  0  0  0  0
   -0.7590    6.1720   16.3450 H   0  0  0  0  0  0  0  0  0  0  0  0
   -1.4860    4.7580   13.1790 H   0  0  0  0  0  0  0  0  0  0  0  0
   -1.9890    4.8760   14.8040 H   0  0  0  0  0  0  0  0  0  0  0  0
    2.0139    1.6512   13.9441 H   0  0  0  0  0  0  0  0  0  0  0  0
    4.4335    6.0968   20.2685 H   0  0  0  0  0  0  0  0  0  0  0  0
    5.5563    5.0384   19.4644 H   0  0  0  0  0  0  0  0  0  0  0  0
    6.7445    7.2680   19.6198 H   0  0  0  0  0  0  0  0  0  0  0  0
    5.3290    9.0370   18.5520 H   0  0  0  0  0  0  0  0  0  0  0  0
  1  2  1  0
  2  3  1  0
  3  4  1  0
  4  5  1  0
  5  6  1  0
  6  7  1  0
  7  8  1  0
  8  9  1  0
  9 10  1  0
 10 11  1  0
 11 12  2  0
 12 13  1  0
 13 14  1  0
 14 15  2  0
 15 16  1  0
 15 17  1  0
 17 18  2  0
 18 19  1  0
 19 20  2  0
  9 21  1  0
 21 22  1  0
 22 23  1  0
 22  7  1  0
 20 11  1  0
 20 14  1  0
  1 24  1  0
  1 25  1  0
  1 26  1  0
  2 27  1  0
  2 28  1  0
  3 29  1  0
  3 30  1  0
  4 31  1  0
  4 32  1  0
  6 33  1  0
  6 34  1  0
  7 35  1  6
  8 36  1  0
  8 37  1  0
  9 38  1  1
 10 39  1  0
 10 40  1  0
 12 41  1  0
 13 42  1  0
 16 43  1  0
 16 44  1  0
 18 45  1  0
 21 46  1  0
 21 47  1  0
 22 48  1  1
 23 49  1  0
M  CHG  1   9   1
M  END
>  <meeko>  (6) 
{"is_sidechain": [false], "free_energy": -6.225, "intermolecular_energy": -8.696, "internal_energy": -0.772}

$$$$
4f3c_ligand
     RDKit          3D

 49 51  0  0  0  0  0  0  0  0999 V2000
    7.8790    5.4600   12.3780 C   0  0  0  0  0  0  0  0  0  0  0  0
    7.6350    5.2270   13.8620 C   0  0  0  0  0  0  0  0  0  0  0  0
    7.7510    6.4990   14.7060 C   0  0  0  0  0  0  0  0  0  0  0  0
    6.6220    6.6380   15.7260 C   0  0  0  0  0  0  0  0  0  0  0  0
    5.9400    5.0080   16.2020 S   0  0  0  0  0  0  0  0  0  0  0  0
    5.2620    5.3920   17.8510 C   0  0  0  0  0  0  0  0  0  0  0  0
    3.8830    6.0590   17.7620 C   0  0  1  0  0  0  0  0  0  0  0  0
    3.1050    5.6540   16.4990 C   0  0  0  0  0  0  0  0  0  0  0  0
    2.0110    4.7170   16.9590 N   0  0  1  0  0  0  0  0  0  0  0  0
    1.7220    3.5780   16.0340 C   0  0  0  0  0  0  0  0  0  0  0  0
    0.3900    3.6840   15.3910 C   0  0  0  0  0  0  0  0  0  0  0  0
   -0.3910    4.8150   15.2230 C   0  0  0  0  0  0  0  0  0  0  0  0
   -1.5290    4.4530   14.5370 N   0  0  0  0  0  0  0  0  0  0  0  0
   -1.5150    3.1040   14.2920 C   0  0  0  0  0  0  0  0  0  0  0  0
   -2.4030    2.2580   13.6500 C   0  0  0  0  0  0  0  0  0  0  0  0
   -3.6090    2.6640   13.1140 N   0  0  0  0  0  0  0  0  0  0  0  0
   -2.0600    0.9640   13.5480 N   0  0  0  0  0  0  0  0  0  0  0  0
   -0.8870    0.5630   14.0710 C   0  0  0  0  0  0  0  0  0  0  0  0
    0.0220    1.3050   14.7300 N   0  0  0  0  0  0  0  0  0  0  0  0
   -0.3270    2.6080   14.8020 C   0  0  0  0  0  0  0  0  0  0  0  0
    2.3440    4.3270   18.3810 C   0  0  0  0  0  0  0  0  0  0  0  0
    2.9740    5.6140   18.9070 C   0  0  2  0  0  0  0  0  0  0  0  0
    1.9330    6.5860   19.0610 O   0  0  0  0  0  0  0  0  0  0  0  0
    8.6692    6.2145   12.2504 H   0  0  0  0  0  0  0  0  0  0  0  0
    8.1924    4.5174   11.9055 H   0  0  0  0  0  0  0  0  0  0  0  0
    6.9518    5.8165   11.9055 H   0  0  0  0  0  0  0  0  0  0  0  0
    6.6224    4.8163   13.9883 H   0  0  0  0  0  0  0  0  0  0  0  0
    8.4129    4.5331   14.2132 H   0  0  0  0  0  0  0  0  0  0  0  0
    8.7101    6.4774   15.2442 H   0  0  0  0  0  0  0  0  0  0  0  0
    7.6863    7.3576   14.0215 H   0  0  0  0  0  0  0  0  0  0  0  0
    7.0124    7.1379   16.6247 H   0  0  0  0  0  0  0  0  0  0  0  0
    5.8148    7.2282   15.2676 H   0  0  0  0  0  0  0  0  0  0  0  0
    5.1686    4.4574   18.4235 H   0  0  0  0  0  0  0  0  0  0  0  0
    5.9487    6.0940   18.3467 H   0  0  0  0  0  0  0  0  0  0  0  0
    4.1031    7.1366   17.7774 H   0  0  0  0  0  0  0  0  0  0  0  0
    2.6690    6.5423   16.0186 H   0  0  0  0  0  0  0  0  0  0  0  0
    3.7624    5.1707   15.7613 H   0  0  0  0  0  0  0  0  0  0  0  0
    1.1530    5.2830   17.0380 H   0  0  0  0  0  0  0  0  0  0  0  0
    2.4913    3.5596   15.2480 H   0  0  0  0  0  0  0  0  0  0  0  0
    1.7284    2.6552   16.6327 H   0  0  0  0  0  0  0  0  0  0  0  0
   -0.1451    5.8273   15.5763 H   0  0  0  0  0  0  0  0  0  0  0  0
   -2.2610    5.0830   14.2290 H   0  0  0  0  0  0  0  0  0  0  0  0
   -3.9210    2.1820   12.2850 H   0  0  0  0  0  0  0  0  0  0  0  0
   -3.6460    3.6780   13.0540 H   0  0  0  0  0  0  0  0  0  0  0  0
   -0.6409   -0.5016   13.9445 H   0  0  0  0  0  0  0  0  0  0  0  0
    1.4394    4.0611   18.9476 H   0  0  0  0  0  0  0  0  0  0  0  0
    2.9924    3.4423   18.4644 H   0  0  0  0  0  0  0  0  0  0  0  0
    3.5024    5.4912   19.8640 H   0  0  0  0  0  0  0  0  0  0  0  0
    1.1060    6.2080   18.7000 H   0  0  0  0  0  0  0  0  0  0  0  0
  1  2  1  0
  2  3  1  0
  3  4  1  0
  4  5  1  0
  5  6  1  0
  6  7  1  0
  7  8  1  0
  8  9  1  0
  9 10  1  0
 10 11  1  0
 11 12  2  0
 12 13  1  0
 13 14  1  0
 14 15  2  0
 15 16  1  0
 15 17  1  0
 17 18  2  0
 18 19  1  0
 19 20  2  0
  9 21  1  0
 21 22  1  0
 22 23  1  0
 22  7  1  0
 20 11  1  0
 20 14  1  0
  1 24  1  0
  1 25  1  0
  1 26  1  0
  2 27  1  0
  2 28  1  0
  3 29  1  0
  3 30  1  0
  4 31  1  0
  4 32  1  0
  6 33  1  0
  6 34  1  0
  7 35  1  6
  8 36  1  0
  8 37  1  0
  9 38  1  1
 10 39  1  0
 10 40  1  0
 12 41  1  0
 13 42  1  0
 16 43  1  0
 16 44  1  0
 18 45  1  0
 21 46  1  0
 21 47  1  0
 22 48  1  1
 23 49  1  0
M  CHG  1   9   1
M  END
>  <meeko>  (7) 
{"is_sidechain": [false], "free_energy": -6.091, "intermolecular_energy": -8.731, "internal_energy": -0.541}

$$$$
4f3c_ligand
     RDKit          3D

 49 51  0  0  0  0  0  0  0  0999 V2000
    7.5070    5.4280   15.9730 C   0  0  0  0  0  0  0  0  0  0  0  0
    6.5990    4.2400   16.2570 C   0  0  0  0  0  0  0  0  0  0  0  0
    5.1140    4.6070   16.3070 C   0  0  0  0  0  0  0  0  0  0  0  0
    4.2360    3.4580   16.8020 C   0  0  0  0  0  0  0  0  0  0  0  0
    2.7490    4.0730   17.6720 S   0  0  0  0  0  0  0  0  0  0  0  0
    1.4610    3.0140   16.9350 C   0  0  0  0  0  0  0  0  0  0  0  0
    1.2230    3.3460   15.4550 C   0  0  1  0  0  0  0  0  0  0  0  0
    0.6120    2.1720   14.6720 C   0  0  0  0  0  0  0  0  0  0  0  0
   -0.8320    2.5410   14.4170 N   0  0  1  0  0  0  0  0  0  0  0  0
   -1.8010    1.4050   14.5070 C   0  0  0  0  0  0  0  0  0  0  0  0
   -2.5120    1.1540   13.2300 C   0  0  0  0  0  0  0  0  0  0  0  0
   -3.6990    1.7150   12.7880 C   0  0  0  0  0  0  0  0  0  0  0  0
   -3.9630    1.2240   11.5280 N   0  0  0  0  0  0  0  0  0  0  0  0
   -2.9890    0.3290   11.1650 C   0  0  0  0  0  0  0  0  0  0  0  0
   -2.7910   -0.4290   10.0240 C   0  0  0  0  0  0  0  0  0  0  0  0
   -3.6530   -0.4440    8.9450 N   0  0  0  0  0  0  0  0  0  0  0  0
   -1.6880   -1.1940    9.9740 N   0  0  0  0  0  0  0  0  0  0  0  0
   -0.8470   -1.1850   11.0240 C   0  0  0  0  0  0  0  0  0  0  0  0
   -0.9710   -0.5020   12.1770 N   0  0  0  0  0  0  0  0  0  0  0  0
   -2.0720    0.2790   12.2010 C   0  0  0  0  0  0  0  0  0  0  0  0
   -1.1410    3.7260   15.3040 C   0  0  0  0  0  0  0  0  0  0  0  0
    0.1940    4.4650   15.2940 C   0  0  2  0  0  0  0  0  0  0  0  0
    0.3660    5.0520   13.9980 O   0  0  0  0  0  0  0  0  0  0  0  0
    7.8433    5.8680   16.9235 H   0  0  0  0  0  0  0  0  0  0  0  0
    8.3806    5.0919   15.3951 H   0  0  0  0  0  0  0  0  0  0  0  0
    6.9534    6.1827   15.3951 H   0  0  0  0  0  0  0  0  0  0  0  0
    6.7465    3.4914   15.4646 H   0  0  0  0  0  0  0  0  0  0  0  0
    6.8713    3.8539   17.2504 H   0  0  0  0  0  0  0  0  0  0  0  0
    4.9864    5.4639   16.9848 H   0  0  0  0  0  0  0  0  0  0  0  0
    4.7976    4.8472   15.2812 H   0  0  0  0  0  0  0  0  0  0  0  0
    3.9202    2.8529   15.9394 H   0  0  0  0  0  0  0  0  0  0  0  0
    4.8244    2.8559   17.5100 H   0  0  0  0  0  0  0  0  0  0  0  0
    1.7749    1.9630   17.0175 H   0  0  0  0  0  0  0  0  0  0  0  0
    0.5217    3.1918   17.4791 H   0  0  0  0  0  0  0  0  0  0  0  0
    2.2193    3.6156   15.0747 H   0  0  0  0  0  0  0  0  0  0  0  0
    1.1436    2.0313   13.7193 H   0  0  0  0  0  0  0  0  0  0  0  0
    0.6917    1.2302   15.2347 H   0  0  0  0  0  0  0  0  0  0  0  0
   -0.8760    2.9160   13.4580 H   0  0  0  0  0  0  0  0  0  0  0  0
   -1.2506    0.4949   14.7877 H   0  0  0  0  0  0  0  0  0  0  0  0
   -2.5568    1.6731   15.2599 H   0  0  0  0  0  0  0  0  0  0  0  0
   -4.3227    2.4287   13.3462 H   0  0  0  0  0  0  0  0  0  0  0  0
   -4.7400    1.4950   10.9370 H   0  0  0  0  0  0  0  0  0  0  0  0
   -3.2310   -0.4590    8.0290 H   0  0  0  0  0  0  0  0  0  0  0  0
   -4.3820    0.2540    9.0650 H   0  0  0  0  0  0  0  0  0  0  0  0
    0.0515   -1.8123   10.9285 H   0  0  0  0  0  0  0  0  0  0  0  0
   -1.9468    4.3449   14.8825 H   0  0  0  0  0  0  0  0  0  0  0  0
   -1.4978    3.4551   16.3086 H   0  0  0  0  0  0  0  0  0  0  0  0
    0.2733    5.2477   16.0629 H   0  0  0  0  0  0  0  0  0  0  0  0
    1.3160    5.0170   13.7710 H   0  0  0  0  0  0  0  0  0  0  0  0
  1  2  1  0
  2  3  1  0
  3  4  1  0
  4  5  1  0
  5  6  1  0
  6  7  1  0
  7  8  1  0
  8  9  1  0
  9 10  1  0
 10 11  1  0
 11 12  2  0
 12 13  1  0
 13 14  1  0
 14 15  2  0
 15 16  1  0
 15 17  1  0
 17 18  2  0
 18 19  1  0
 19 20  2  0
  9 21  1  0
 21 22  1  0
 22 23  1  0
 22  7  1  0
 20 11  1  0
 20 14  1  0
  1 24  1  0
  1 25  1  0
  1 26  1  0
  2 27  1  0
  2 28  1  0
  3 29  1  0
  3 30  1  0
  4 31  1  0
  4 32  1  0
  6 33  1  0
  6 34  1  0
  7 35  1  6
  8 36  1  0
  8 37  1  0
  9 38  1  6
 10 39  1  0
 10 40  1  0
 12 41  1  0
 13 42  1  0
 16 43  1  0
 16 44  1  0
 18 45  1  0
 21 46  1  0
 21 47  1  0
 22 48  1  1
 23 49  1  0
M  CHG  1   9   1
M  END
>  <meeko>  (8) 
{"is_sidechain": [false], "free_energy": -6.09, "intermolecular_energy": -8.729, "internal_energy": -0.541}

$$$$
4f3c_ligand
     RDKit          3D

 49 51  0  0  0  0  0  0  0  0999 V2000
    7.9430    5.1830   12.7890 C   0  0  0  0  0  0  0  0  0  0  0  0
    7.7250    5.1610   14.2950 C   0  0  0  0  0  0  0  0  0  0  0  0
    7.5620    6.5550   14.9070 C   0  0  0  0  0  0  0  0  0  0  0  0
    7.5240    6.5310   16.4350 C   0  0  0  0  0  0  0  0  0  0  0  0
    7.0630    4.8780   17.0710 S   0  0  0  0  0  0  0  0  0  0  0  0
    5.2450    5.0060   17.0630 C   0  0  0  0  0  0  0  0  0  0  0  0
    4.7650    6.3870   17.5290 C   0  0  1  0  0  0  0  0  0  0  0  0
    3.2740    6.6300   17.2380 C   0  0  0  0  0  0  0  0  0  0  0  0
    2.5640    6.5440   18.5700 N   0  0  1  0  0  0  0  0  0  0  0  0
    1.2210    5.8880   18.5310 C   0  0  0  0  0  0  0  0  0  0  0  0
    1.0090    5.0870   17.3010 C   0  0  0  0  0  0  0  0  0  0  0  0
    0.3080    5.4410   16.1590 C   0  0  0  0  0  0  0  0  0  0  0  0
    0.4090    4.4070   15.2550 N   0  0  0  0  0  0  0  0  0  0  0  0
    1.1280    3.3770   15.8060 C   0  0  0  0  0  0  0  0  0  0  0  0
    1.5060    2.1360   15.3240 C   0  0  0  0  0  0  0  0  0  0  0  0
    1.1580    1.6500   14.0800 N   0  0  0  0  0  0  0  0  0  0  0  0
    2.2580    1.3650   16.1260 N   0  0  0  0  0  0  0  0  0  0  0  0
    2.5970    1.8330   17.3410 C   0  0  0  0  0  0  0  0  0  0  0  0
    2.2570    3.0100   17.8980 N   0  0  0  0  0  0  0  0  0  0  0  0
    1.5210    3.7820   17.0700 C   0  0  0  0  0  0  0  0  0  0  0  0
    3.5480    5.9440   19.5490 C   0  0  0  0  0  0  0  0  0  0  0  0
    4.8660    6.5290   19.0480 C   0  0  2  0  0  0  0  0  0  0  0  0
    4.8820    7.9250   19.3700 O   0  0  0  0  0  0  0  0  0  0  0  0
    9.0166    5.2913   12.5755 H   0  0  0  0  0  0  0  0  0  0  0  0
    7.5752    4.2432   12.3515 H   0  0  0  0  0  0  0  0  0  0  0  0
    7.3948    6.0304   12.3515 H   0  0  0  0  0  0  0  0  0  0  0  0
    6.8162    4.5788   14.5071 H   0  0  0  0  0  0  0  0  0  0  0  0
    8.6219    4.7115   14.7461 H   0  0  0  0  0  0  0  0  0  0  0  0
    8.4081    7.1806   14.5864 H   0  0  0  0  0  0  0  0  0  0  0  0
    6.6002    6.9591   14.5583 H   0  0  0  0  0  0  0  0  0  0  0  0
    8.5189    6.7974   16.8211 H   0  0  0  0  0  0  0  0  0  0  0  0
    6.7658    7.2532   16.7719 H   0  0  0  0  0  0  0  0  0  0  0  0
    4.8809    4.8298   16.0401 H   0  0  0  0  0  0  0  0  0  0  0  0
    4.8479    4.2544   17.7611 H   0  0  0  0  0  0  0  0  0  0  0  0
    5.4078    7.0938   16.9838 H   0  0  0  0  0  0  0  0  0  0  0  0
    3.1298    7.6255   16.7928 H   0  0  0  0  0  0  0  0  0  0  0  0
    2.8794    5.8908   16.5253 H   0  0  0  0  0  0  0  0  0  0  0  0
    2.4320    7.5130   18.8960 H   0  0  0  0  0  0  0  0  0  0  0  0
    1.1285    5.2241   19.4032 H   0  0  0  0  0  0  0  0  0  0  0  0
    0.4625    6.6846   18.5427 H   0  0  0  0  0  0  0  0  0  0  0  0
   -0.2351    6.3846   16.0019 H   0  0  0  0  0  0  0  0  0  0  0  0
    0.0360    4.4050   14.3130 H   0  0  0  0  0  0  0  0  0  0  0  0
    0.8470    0.6910   14.0390 H   0  0  0  0  0  0  0  0  0  0  0  0
    1.8660    1.8950   13.3930 H   0  0  0  0  0  0  0  0  0  0  0  0
    3.2290    1.1733   17.9537 H   0  0  0  0  0  0  0  0  0  0  0  0
    3.3334    6.2608   20.5803 H   0  0  0  0  0  0  0  0  0  0  0  0
    3.5299    4.8448   19.5882 H   0  0  0  0  0  0  0  0  0  0  0  0
    5.7569    6.0456   19.4754 H   0  0  0  0  0  0  0  0  0  0  0  0
    3.9570    8.2400   19.4090 H   0  0  0  0  0  0  0  0  0  0  0  0
  1  2  1  0
  2  3  1  0
  3  4  1  0
  4  5  1  0
  5  6  1  0
  6  7  1  0
  7  8  1  0
  8  9  1  0
  9 10  1  0
 10 11  1  0
 11 12  2  0
 12 13  1  0
 13 14  1  0
 14 15  2  0
 15 16  1  0
 15 17  1  0
 17 18  2  0
 18 19  1  0
 19 20  2  0
  9 21  1  0
 21 22  1  0
 22 23  1  0
 22  7  1  0
 20 11  1  0
 20 14  1  0
  1 24  1  0
  1 25  1  0
  1 26  1  0
  2 27  1  0
  2 28  1  0
  3 29  1  0
  3 30  1  0
  4 31  1  0
  4 32  1  0
  6 33  1  0
  6 34  1  0
  7 35  1  6
  8 36  1  0
  8 37  1  0
  9 38  1  1
 10 39  1  0
 10 40  1  0
 12 41  1  0
 13 42  1  0
 16 43  1  0
 16 44  1  0
 18 45  1  0
 21 46  1  0
 21 47  1  0
 22 48  1  1
 23 49  1  0
M  CHG  1   9   1
M  END
>  <meeko>  (9) 
{"is_sidechain": [false], "free_energy": -5.883, "intermolecular_energy": -8.17, "internal_energy": -0.797}

$$$$
