3n7a_ligand
     RDKit          3D

 21 21  0  0  0  0  0  0  0  0999 V2000
   -8.2390   15.0360  -18.3020 O   0  0  0  0  0  0  0  0  0  0  0  0
   -8.4800   15.4070  -19.4880 C   0  0  0  0  0  0  0  0  0  0  0  0
   -7.8120   16.1640  -20.2620 O   0  0  0  0  0  0  0  0  0  0  0  0
   -9.7970   14.8370  -20.1510 C   0  0  2  0  0  0  0  0  0  0  0  0
   -9.4630   13.6010  -20.8310 O   0  0  0  0  0  0  0  0  0  0  0  0
  -10.2630   15.7980  -21.2090 C   0  0  0  0  0  0  0  0  0  0  0  0
  -11.3280   16.6000  -21.0580 C   0  0  0  0  0  0  0  0  0  0  0  0
  -12.1450   16.6690  -19.8060 C   0  0  1  0  0  0  0  0  0  0  0  0
  -13.4880   16.3500  -20.1870 O   0  0  0  0  0  0  0  0  0  0  0  0
  -11.6790   15.7470  -18.6480 C   0  0  2  0  0  0  0  0  0  0  0  0
  -10.9770   16.5020  -17.6550 O   0  0  0  0  0  0  0  0  0  0  0  0
  -10.8780   14.5240  -19.1120 C   0  0  0  0  0  0  0  0  0  0  0  0
   -9.9190   13.7220  -21.7010 H   0  0  0  0  0  0  0  0  0  0  0  0
   -9.7027   15.8461  -22.1544 H   0  0  0  0  0  0  0  0  0  0  0  0
  -11.6170   17.2432  -21.9022 H   0  0  0  0  0  0  0  0  0  0  0  0
  -12.0375   17.6808  -19.3881 H   0  0  0  0  0  0  0  0  0  0  0  0
  -14.0310   16.5190  -19.3990 H   0  0  0  0  0  0  0  0  0  0  0  0
  -12.5908   15.3320  -18.1936 H   0  0  0  0  0  0  0  0  0  0  0  0
  -10.9000   17.4370  -17.9920 H   0  0  0  0  0  0  0  0  0  0  0  0
  -10.3917   14.0766  -18.2326 H   0  0  0  0  0  0  0  0  0  0  0  0
  -11.5936   13.8435  -19.5965 H   0  0  0  0  0  0  0  0  0  0  0  0
  1  2  2  0
  2  3  1  0
  2  4  1  0
  4  5  1  6
  4  6  1  0
  6  7  2  0
  7  8  1  0
  8  9  1  0
  8 10  1  0
 10 11  1  0
 10 12  1  0
 12  4  1  0
  5 13  1  0
  6 14  1  0
  7 15  1  0
  8 16  1  1
  9 17  1  0
 10 18  1  1
 11 19  1  0
 12 20  1  0
 12 21  1  0
M  CHG  1   3  -1
M  END
>  <meeko>  (1) 
{"is_sidechain": [false], "free_energy": -4.841, "intermolecular_energy": -5.548, "internal_energy": -0.279}

$$$$
3n7a_ligand
     RDKit          3D

 21 21  0  0  0  0  0  0  0  0999 V2000
   -1.3090   23.6120  -22.3960 O   0  0  0  0  0  0  0  0  0  0  0  0
   -0.9830   23.6770  -23.6180 C   0  0  0  0  0  0  0  0  0  0  0  0
   -0.0920   24.3790  -24.1920 O   0  0  0  0  0  0  0  0  0  0  0  0
   -1.7710   22.7300  -24.6080 C   0  0  2  0  0  0  0  0  0  0  0  0
   -0.9680   21.5430  -24.8350 O   0  0  0  0  0  0  0  0  0  0  0  0
   -1.9050   23.4200  -25.9370 C   0  0  0  0  0  0  0  0  0  0  0  0
   -3.0550   23.9490  -26.3800 C   0  0  0  0  0  0  0  0  0  0  0  0
   -4.3250   23.9580  -25.5870 C   0  0  1  0  0  0  0  0  0  0  0  0
   -5.3000   23.2780  -26.3860 O   0  0  0  0  0  0  0  0  0  0  0  0
   -4.2410   23.3160  -24.1770 C   0  0  2  0  0  0  0  0  0  0  0  0
   -4.1720   24.3290  -23.1670 O   0  0  0  0  0  0  0  0  0  0  0  0
   -3.1180   22.2820  -24.0310 C   0  0  0  0  0  0  0  0  0  0  0  0
   -0.0990   21.9370  -25.0940 H   0  0  0  0  0  0  0  0  0  0  0  0
   -1.0146   23.4947  -26.5786 H   0  0  0  0  0  0  0  0  0  0  0  0
   -3.0658   24.4018  -27.3824 H   0  0  0  0  0  0  0  0  0  0  0  0
   -4.5847   25.0062  -25.3776 H   0  0  0  0  0  0  0  0  0  0  0  0
   -5.6660   22.5820  -25.8160 H   0  0  0  0  0  0  0  0  0  0  0  0
   -5.1704   22.7442  -24.0384 H   0  0  0  0  0  0  0  0  0  0  0  0
   -3.5760   23.9880  -22.4450 H   0  0  0  0  0  0  0  0  0  0  0  0
   -2.9812   22.0706  -22.9602 H   0  0  0  0  0  0  0  0  0  0  0  0
   -3.4281   21.3962  -24.6048 H   0  0  0  0  0  0  0  0  0  0  0  0
  1  2  2  0
  2  3  1  0
  2  4  1  0
  4  5  1  6
  4  6  1  0
  6  7  2  0
  7  8  1  0
  8  9  1  0
  8 10  1  0
 10 11  1  0
 10 12  1  0
 12  4  1  0
  5 13  1  0
  6 14  1  0
  7 15  1  0
  8 16  1  1
  9 17  1  0
 10 18  1  1
 11 19  1  0
 12 20  1  0
 12 21  1  0
M  CHG  1   3  -1
M  END
>  <meeko>  (2) 
{"is_sidechain": [false], "free_energy": -4.345, "intermolecular_energy": -4.967, "internal_energy": -0.292}

$$$$
3n7a_ligand
     RDKit          3D

 21 21  0  0  0  0  0  0  0  0999 V2000
   -1.5260   23.7580  -26.3390 O   0  0  0  0  0  0  0  0  0  0  0  0
   -1.1640   22.8090  -25.5840 C   0  0  0  0  0  0  0  0  0  0  0  0
   -0.1600   22.0330  -25.6670 O   0  0  0  0  0  0  0  0  0  0  0  0
   -2.0660   22.5340  -24.3150 C   0  0  2  0  0  0  0  0  0  0  0  0
   -1.9640   21.1260  -23.9830 O   0  0  0  0  0  0  0  0  0  0  0  0
   -3.5030   22.7890  -24.6760 C   0  0  0  0  0  0  0  0  0  0  0  0
   -4.1860   23.8670  -24.2620 C   0  0  0  0  0  0  0  0  0  0  0  0
   -3.5880   24.9640  -23.4380 C   0  0  1  0  0  0  0  0  0  0  0  0
   -4.3760   25.0420  -22.2440 O   0  0  0  0  0  0  0  0  0  0  0  0
   -2.0870   24.7950  -23.0820 C   0  0  2  0  0  0  0  0  0  0  0  0
   -1.2760   25.6350  -23.9110 O   0  0  0  0  0  0  0  0  0  0  0  0
   -1.6060   23.3380  -23.0950 C   0  0  0  0  0  0  0  0  0  0  0  0
   -1.5640   21.1630  -23.0800 H   0  0  0  0  0  0  0  0  0  0  0  0
   -4.0203   22.0550  -25.3114 H   0  0  0  0  0  0  0  0  0  0  0  0
   -5.2460   23.9493  -24.5443 H   0  0  0  0  0  0  0  0  0  0  0  0
   -3.6087   25.8859  -24.0377 H   0  0  0  0  0  0  0  0  0  0  0  0
   -4.3720   25.9790  -21.9890 H   0  0  0  0  0  0  0  0  0  0  0  0
   -1.9752   25.1200  -22.0371 H   0  0  0  0  0  0  0  0  0  0  0  0
   -1.8600   25.9890  -24.6360 H   0  0  0  0  0  0  0  0  0  0  0  0
   -0.5061   23.3380  -23.0770 H   0  0  0  0  0  0  0  0  0  0  0  0
   -2.0476   22.8522  -22.2124 H   0  0  0  0  0  0  0  0  0  0  0  0
  1  2  2  0
  2  3  1  0
  2  4  1  0
  4  5  1  1
  4  6  1  0
  6  7  2  0
  7  8  1  0
  8  9  1  0
  8 10  1  0
 10 11  1  0
 10 12  1  0
 12  4  1  0
  5 13  1  0
  6 14  1  0
  7 15  1  0
  8 16  1  6
  9 17  1  0
 10 18  1  1
 11 19  1  0
 12 20  1  0
 12 21  1  0
M  CHG  1   3  -1
M  END
>  <meeko>  (3) 
{"is_sidechain": [false], "free_energy": -4.107, "intermolecular_energy": -4.716, "internal_energy": -0.271}

$$$$
3n7a_ligand
     RDKit          3D

 21 21  0  0  0  0  0  0  0  0999 V2000
   -1.8040   23.5970  -21.5960 O   0  0  0  0  0  0  0  0  0  0  0  0
   -2.0010   22.4470  -22.0870 C   0  0  0  0  0  0  0  0  0  0  0  0
   -2.1310   21.3210  -21.5110 O   0  0  0  0  0  0  0  0  0  0  0  0
   -2.1380   22.3660  -23.6600 C   0  0  2  0  0  0  0  0  0  0  0  0
   -1.7890   21.0210  -24.0770 O   0  0  0  0  0  0  0  0  0  0  0  0
   -1.1260   23.2860  -24.2840 C   0  0  0  0  0  0  0  0  0  0  0  0
   -1.4470   24.4570  -24.8540 C   0  0  0  0  0  0  0  0  0  0  0  0
   -2.8380   25.0080  -24.8920 C   0  0  1  0  0  0  0  0  0  0  0  0
   -3.1540   25.2020  -26.2760 O   0  0  0  0  0  0  0  0  0  0  0  0
   -3.9250   24.1360  -24.2080 C   0  0  2  0  0  0  0  0  0  0  0  0
   -4.2680   24.6730  -22.9260 O   0  0  0  0  0  0  0  0  0  0  0  0
   -3.5680   22.6470  -24.1310 C   0  0  0  0  0  0  0  0  0  0  0  0
   -2.0610   21.0300  -25.0270 H   0  0  0  0  0  0  0  0  0  0  0  0
   -0.0685   22.9835  -24.2726 H   0  0  0  0  0  0  0  0  0  0  0  0
   -0.6427   25.0454  -25.3197 H   0  0  0  0  0  0  0  0  0  0  0  0
   -2.8481   25.9390  -24.3062 H   0  0  0  0  0  0  0  0  0  0  0  0
   -3.4710   26.1170  -26.3470 H   0  0  0  0  0  0  0  0  0  0  0  0
   -4.8135   24.1801  -24.8551 H   0  0  0  0  0  0  0  0  0  0  0  0
   -3.8520   25.5770  -22.8620 H   0  0  0  0  0  0  0  0  0  0  0  0
   -4.2633   22.1617  -23.4302 H   0  0  0  0  0  0  0  0  0  0  0  0
   -3.6466   22.2506  -25.1541 H   0  0  0  0  0  0  0  0  0  0  0  0
  1  2  2  0
  2  3  1  0
  2  4  1  0
  4  5  1  6
  4  6  1  0
  6  7  2  0
  7  8  1  0
  8  9  1  0
  8 10  1  0
 10 11  1  0
 10 12  1  0
 12  4  1  0
  5 13  1  0
  6 14  1  0
  7 15  1  0
  8 16  1  1
  9 17  1  0
 10 18  1  6
 11 19  1  0
 12 20  1  0
 12 21  1  0
M  CHG  1   3  -1
M  END
>  <meeko>  (4) 
{"is_sidechain": [false], "free_energy": -4.085, "intermolecular_energy": -4.689, "internal_energy": -0.271}

$$$$
3n7a_ligand
     RDKit          3D

 21 21  0  0  0  0  0  0  0  0999 V2000
    0.9710   22.6820  -22.4410 O   0  0  0  0  0  0  0  0  0  0  0  0
   -0.2760   22.6870  -22.2220 C   0  0  0  0  0  0  0  0  0  0  0  0
   -1.1130   23.6430  -22.2720 O   0  0  0  0  0  0  0  0  0  0  0  0
   -0.9320   21.2980  -21.8510 C   0  0  2  0  0  0  0  0  0  0  0  0
   -1.5070   20.7320  -23.0560 O   0  0  0  0  0  0  0  0  0  0  0  0
   -2.0720   21.5370  -20.9010 C   0  0  0  0  0  0  0  0  0  0  0  0
   -2.0130   21.2500  -19.5920 C   0  0  0  0  0  0  0  0  0  0  0  0
   -0.7930   20.7070  -18.9150 C   0  0  1  0  0  0  0  0  0  0  0  0
   -1.1870   19.4660  -18.3160 O   0  0  0  0  0  0  0  0  0  0  0  0
    0.4440   20.4950  -19.8280 C   0  0  2  0  0  0  0  0  0  0  0  0
    1.3970   21.5460  -19.6350 O   0  0  0  0  0  0  0  0  0  0  0  0
    0.0970   20.3000  -21.3090 C   0  0  0  0  0  0  0  0  0  0  0  0
   -2.2560   21.3540  -23.2310 H   0  0  0  0  0  0  0  0  0  0  0  0
   -3.0018   21.9692  -21.2994 H   0  0  0  0  0  0  0  0  0  0  0  0
   -2.9115   21.4234  -18.9816 H   0  0  0  0  0  0  0  0  0  0  0  0
   -0.4502   21.4561  -18.1861 H   0  0  0  0  0  0  0  0  0  0  0  0
   -1.3230   18.8500  -19.0540 H   0  0  0  0  0  0  0  0  0  0  0  0
    0.9015   19.5440  -19.5176 H   0  0  0  0  0  0  0  0  0  0  0  0
    1.6670   21.5280  -18.6750 H   0  0  0  0  0  0  0  0  0  0  0  0
    1.0212   20.4046  -21.8963 H   0  0  0  0  0  0  0  0  0  0  0  0
   -0.3548   19.3010  -21.3984 H   0  0  0  0  0  0  0  0  0  0  0  0
  1  2  2  0
  2  3  1  0
  2  4  1  0
  4  5  1  6
  4  6  1  0
  6  7  2  0
  7  8  1  0
  8  9  1  0
  8 10  1  0
 10 11  1  0
 10 12  1  0
 12  4  1  0
  5 13  1  0
  6 14  1  0
  7 15  1  0
  8 16  1  1
  9 17  1  0
 10 18  1  1
 11 19  1  0
 12 20  1  0
 12 21  1  0
M  CHG  1   3  -1
M  END
>  <meeko>  (5) 
{"is_sidechain": [false], "free_energy": -4.062, "intermolecular_energy": -4.642, "internal_energy": -0.292}

$$$$
3n7a_ligand
     RDKit          3D

 21 21  0  0  0  0  0  0  0  0999 V2000
   -4.5860   23.5070  -26.0400 O   0  0  0  0  0  0  0  0  0  0  0  0
   -3.9780   23.3930  -24.9350 C   0  0  0  0  0  0  0  0  0  0  0  0
   -4.3180   22.7880  -23.8700 O   0  0  0  0  0  0  0  0  0  0  0  0
   -2.5570   24.0790  -24.8400 C   0  0  2  0  0  0  0  0  0  0  0  0
   -2.7500   25.4790  -24.5140 O   0  0  0  0  0  0  0  0  0  0  0  0
   -1.9060   24.0380  -26.1950 C   0  0  0  0  0  0  0  0  0  0  0  0
   -0.8930   23.2140  -26.5010 C   0  0  0  0  0  0  0  0  0  0  0  0
   -0.3250   22.2070  -25.5500 C   0  0  1  0  0  0  0  0  0  0  0  0
    1.0680   22.5170  -25.4230 O   0  0  0  0  0  0  0  0  0  0  0  0
   -0.9940   22.1520  -24.1510 C   0  0  2  0  0  0  0  0  0  0  0  0
   -1.8740   21.0260  -24.0580 O   0  0  0  0  0  0  0  0  0  0  0  0
   -1.6870   23.4580  -23.7420 C   0  0  0  0  0  0  0  0  0  0  0  0
   -2.6210   25.4750  -23.5340 H   0  0  0  0  0  0  0  0  0  0  0  0
   -2.2795   24.7182  -26.9746 H   0  0  0  0  0  0  0  0  0  0  0  0
   -0.4548   23.2820  -27.5076 H   0  0  0  0  0  0  0  0  0  0  0  0
   -0.5145   21.2065  -25.9661 H   0  0  0  0  0  0  0  0  0  0  0  0
    1.3920   21.9690  -24.6900 H   0  0  0  0  0  0  0  0  0  0  0  0
   -0.1810   22.0233  -23.4213 H   0  0  0  0  0  0  0  0  0  0  0  0
   -2.7870   21.3430  -24.3000 H   0  0  0  0  0  0  0  0  0  0  0  0
   -2.3264   23.2510  -22.8712 H   0  0  0  0  0  0  0  0  0  0  0  0
   -0.8896   24.1834  -23.5230 H   0  0  0  0  0  0  0  0  0  0  0  0
  1  2  2  0
  2  3  1  0
  2  4  1  0
  4  5  1  1
  4  6  1  0
  6  7  2  0
  7  8  1  0
  8  9  1  0
  8 10  1  0
 10 11  1  0
 10 12  1  0
 12  4  1  0
  5 13  1  0
  6 14  1  0
  7 15  1  0
  8 16  1  6
  9 17  1  0
 10 18  1  1
 11 19  1  0
 12 20  1  0
 12 21  1  0
M  CHG  1   3  -1
M  END
>  <meeko>  (6) 
{"is_sidechain": [false], "free_energy": -4.045, "intermolecular_energy": -4.632, "internal_energy": -0.282}

$$$$
3n7a_ligand
     RDKit          3D

 21 21  0  0  0  0  0  0  0  0999 V2000
   -2.4330   24.0630  -25.7090 O   0  0  0  0  0  0  0  0  0  0  0  0
   -2.2850   24.5390  -24.5450 C   0  0  0  0  0  0  0  0  0  0  0  0
   -1.7030   25.6030  -24.1620 O   0  0  0  0  0  0  0  0  0  0  0  0
   -2.9390   23.7210  -23.3610 C   0  0  2  0  0  0  0  0  0  0  0  0
   -4.2440   24.2890  -23.0840 O   0  0  0  0  0  0  0  0  0  0  0  0
   -2.1120   23.9160  -22.1210 C   0  0  0  0  0  0  0  0  0  0  0  0
   -1.3060   22.9700  -21.6160 C   0  0  0  0  0  0  0  0  0  0  0  0
   -1.0970   21.6310  -22.2520 C   0  0  1  0  0  0  0  0  0  0  0  0
   -1.4690   20.6580  -21.2680 O   0  0  0  0  0  0  0  0  0  0  0  0
   -1.8740   21.3860  -23.5720 C   0  0  2  0  0  0  0  0  0  0  0  0
   -1.0020   21.5180  -24.7010 O   0  0  0  0  0  0  0  0  0  0  0  0
   -3.1360   22.2440  -23.7190 C   0  0  0  0  0  0  0  0  0  0  0  0
   -4.6320   23.6110  -22.4780 H   0  0  0  0  0  0  0  0  0  0  0  0
   -2.1707   24.8837  -21.6012 H   0  0  0  0  0  0  0  0  0  0  0  0
   -0.7684   23.1906  -20.6820 H   0  0  0  0  0  0  0  0  0  0  0  0
   -0.0424   21.5637  -22.5573 H   0  0  0  0  0  0  0  0  0  0  0  0
   -0.6860   20.5430  -20.7040 H   0  0  0  0  0  0  0  0  0  0  0  0
   -2.2405   20.3497  -23.5298 H   0  0  0  0  0  0  0  0  0  0  0  0
   -0.4830   20.6700  -24.7750 H   0  0  0  0  0  0  0  0  0  0  0  0
   -3.4731   22.1848  -24.7644 H   0  0  0  0  0  0  0  0  0  0  0  0
   -3.8742   21.8432  -23.0087 H   0  0  0  0  0  0  0  0  0  0  0  0
  1  2  2  0
  2  3  1  0
  2  4  1  0
  4  5  1  1
  4  6  1  0
  6  7  2  0
  7  8  1  0
  8  9  1  0
  8 10  1  0
 10 11  1  0
 10 12  1  0
 12  4  1  0
  5 13  1  0
  6 14  1  0
  7 15  1  0
  8 16  1  6
  9 17  1  0
 10 18  1  1
 11 19  1  0
 12 20  1  0
 12 21  1  0
M  CHG  1   3  -1
M  END
>  <meeko>  (7) 
{"is_sidechain": [false], "free_energy": -3.887, "intermolecular_energy": -4.442, "internal_energy": -0.292}

$$$$
3n7a_ligand
     RDKit          3D

 21 21  0  0  0  0  0  0  0  0999 V2000
   -3.8000   25.7910  -23.5930 O   0  0  0  0  0  0  0  0  0  0  0  0
   -3.8090   25.5890  -24.8430 C   0  0  0  0  0  0  0  0  0  0  0  0
   -3.7460   26.4160  -25.8070 O   0  0  0  0  0  0  0  0  0  0  0  0
   -3.8840   24.0820  -25.3130 C   0  0  2  0  0  0  0  0  0  0  0  0
   -5.0170   23.9420  -26.2070 O   0  0  0  0  0  0  0  0  0  0  0  0
   -4.1690   23.2140  -24.1180 C   0  0  0  0  0  0  0  0  0  0  0  0
   -3.2470   22.4280  -23.5420 C   0  0  0  0  0  0  0  0  0  0  0  0
   -1.8200   22.3590  -23.9870 C   0  0  1  0  0  0  0  0  0  0  0  0
   -1.5700   20.9870  -24.3190 O   0  0  0  0  0  0  0  0  0  0  0  0
   -1.4410   23.2790  -25.1780 C   0  0  2  0  0  0  0  0  0  0  0  0
   -0.7350   24.4350  -24.7160 O   0  0  0  0  0  0  0  0  0  0  0  0
   -2.6280   23.6510  -26.0760 C   0  0  0  0  0  0  0  0  0  0  0  0
   -4.9970   24.8050  -26.6910 H   0  0  0  0  0  0  0  0  0  0  0  0
   -5.1844   23.2243  -23.6952 H   0  0  0  0  0  0  0  0  0  0  0  0
   -3.5575   21.7988  -22.6948 H   0  0  0  0  0  0  0  0  0  0  0  0
   -1.1925   22.7321  -23.1642 H   0  0  0  0  0  0  0  0  0  0  0  0
   -2.2510   20.4770  -23.8510 H   0  0  0  0  0  0  0  0  0  0  0  0
   -0.7699   22.6939  -25.8239 H   0  0  0  0  0  0  0  0  0  0  0  0
    0.2390   24.2350  -24.7860 H   0  0  0  0  0  0  0  0  0  0  0  0
   -2.3195   24.4809  -26.7287 H   0  0  0  0  0  0  0  0  0  0  0  0
   -2.8957   22.7433  -26.6367 H   0  0  0  0  0  0  0  0  0  0  0  0
  1  2  2  0
  2  3  1  0
  2  4  1  0
  4  5  1  6
  4  6  1  0
  6  7  2  0
  7  8  1  0
  8  9  1  0
  8 10  1  0
 10 11  1  0
 10 12  1  0
 12  4  1  0
  5 13  1  0
  6 14  1  0
  7 15  1  0
  8 16  1  1
  9 17  1  0
 10 18  1  6
 11 19  1  0
 12 20  1  0
 12 21  1  0
M  CHG  1   3  -1
M  END
>  <meeko>  (8) 
{"is_sidechain": [false], "free_energy": -3.832, "intermolecular_energy": -4.527, "internal_energy": -0.145}

$$$$
