3oe5_ligand
     RDKit          3D

 50 52  0  0  0  0  0  0  0  0999 V2000
    4.7740   -1.7890    8.0450 O   0  0  0  0  0  0  0  0  0  0  0  0
    5.3150   -2.8130    8.4480 C   0  0  0  0  0  0  0  0  0  0  0  0
    6.5960   -2.8340    8.9440 N   0  0  0  0  0  0  0  0  0  0  0  0
    7.4350   -1.6680    8.8980 C   0  0  0  0  0  0  0  0  0  0  0  0
    8.0220   -1.5770    7.5260 C   0  0  0  0  0  0  0  0  0  0  0  0
    9.1020   -0.8400    7.2170 C   0  0  0  0  0  0  0  0  0  0  0  0
    9.6830   -0.7370    5.8340 C   0  0  1  0  0  0  0  0  0  0  0  0
   10.0280    0.6520    5.6310 O   0  0  0  0  0  0  0  0  0  0  0  0
   11.4290    0.7190    5.3230 C   0  0  1  0  0  0  0  0  0  0  0  0
   12.2260    2.2080    6.0160 S   0  0  0  0  0  0  0  0  0  0  0  0
   12.7840    3.0110    4.5230 C   0  0  0  0  0  0  0  0  0  0  0  0
   13.7810    3.9840    4.5310 C   0  0  0  0  0  0  0  0  0  0  0  0
   14.1630    4.5440    3.3240 C   0  0  0  0  0  0  0  0  0  0  0  0
   13.6300    4.1980    2.1330 N   0  0  0  0  0  0  0  0  0  0  0  0
   12.6810    3.2390    2.1490 C   0  0  0  0  0  0  0  0  0  0  0  0
   12.2330    2.6200    3.3040 C   0  0  0  0  0  0  0  0  0  0  0  0
   12.0520   -0.5360    5.9380 C   0  0  2  0  0  0  0  0  0  0  0  0
   13.2900   -0.9290    5.3450 O   0  0  0  0  0  0  0  0  0  0  0  0
   10.9670   -1.5580    5.6540 C   0  0  2  0  0  0  0  0  0  0  0  0
   11.0890   -2.0200    4.2990 O   0  0  0  0  0  0  0  0  0  0  0  0
    4.5750   -4.1110    8.4100 C   0  0  0  0  0  0  0  0  0  0  0  0
    5.3430   -5.2900    8.3800 C   0  0  0  0  0  0  0  0  0  0  0  0
    4.7120   -6.5440    8.3430 C   0  0  0  0  0  0  0  0  0  0  0  0
    5.5240   -7.7670    8.3090 N   0  0  0  0  0  0  0  0  0  0  0  0
    5.7280   -8.2860    7.2020 O   0  0  0  0  0  0  0  0  0  0  0  0
    5.9570   -8.2060    9.3820 O   0  0  0  0  0  0  0  0  0  0  0  0
    3.3140   -6.6490    8.3370 C   0  0  0  0  0  0  0  0  0  0  0  0
    2.5640   -5.4810    8.3700 C   0  0  0  0  0  0  0  0  0  0  0  0
    1.1950   -5.5060    8.3690 O   0  0  0  0  0  0  0  0  0  0  0  0
    3.1790   -4.2240    8.4060 C   0  0  0  0  0  0  0  0  0  0  0  0
    2.3570   -3.1250    8.4450 O   0  0  0  0  0  0  0  0  0  0  0  0
    7.0100   -3.7450    9.1330 H   0  0  0  0  0  0  0  0  0  0  0  0
    6.8372   -0.7690    9.1089 H   0  0  0  0  0  0  0  0  0  0  0  0
    8.2329   -1.7406    9.6517 H   0  0  0  0  0  0  0  0  0  0  0  0
    7.5398   -2.1489    6.7196 H   0  0  0  0  0  0  0  0  0  0  0  0
    9.5914   -0.2773    8.0256 H   0  0  0  0  0  0  0  0  0  0  0  0
    8.9401   -1.1224    5.1201 H   0  0  0  0  0  0  0  0  0  0  0  0
   11.5732    0.7750    4.2339 H   0  0  0  0  0  0  0  0  0  0  0  0
   14.2530    4.2995    5.4731 H   0  0  0  0  0  0  0  0  0  0  0  0
   14.9466    5.3159    3.3361 H   0  0  0  0  0  0  0  0  0  0  0  0
   12.2380    2.9314    1.1903 H   0  0  0  0  0  0  0  0  0  0  0  0
   11.4605    1.8381    3.2603 H   0  0  0  0  0  0  0  0  0  0  0  0
   12.3208   -0.4005    6.9960 H   0  0  0  0  0  0  0  0  0  0  0  0
   13.3000   -1.9050    5.3480 H   0  0  0  0  0  0  0  0  0  0  0  0
   11.0039   -2.4502    6.2964 H   0  0  0  0  0  0  0  0  0  0  0  0
   10.6510   -2.8970    4.2910 H   0  0  0  0  0  0  0  0  0  0  0  0
    6.4413   -5.2290    8.3856 H   0  0  0  0  0  0  0  0  0  0  0  0
    2.8231   -7.6329    8.3069 H   0  0  0  0  0  0  0  0  0  0  0  0
    0.8640   -4.8200    7.7600 H   0  0  0  0  0  0  0  0  0  0  0  0
    2.7420   -2.5440    9.1370 H   0  0  0  0  0  0  0  0  0  0  0  0
  1  2  2  0
  2  3  1  0
  3  4  1  0
  4  5  1  0
  5  6  2  0
  6  7  1  0
  7  8  1  0
  8  9  1  0
  9 10  1  0
 10 11  1  0
 11 12  2  0
 12 13  1  0
 13 14  2  0
 14 15  1  0
 15 16  2  0
  9 17  1  0
 17 18  1  0
 17 19  1  0
 19 20  1  0
  2 21  1  0
 21 22  2  0
 22 23  1  0
 23 24  1  0
 24 25  2  0
 24 26  1  0
 23 27  2  0
 27 28  1  0
 28 29  1  0
 28 30  2  0
 30 31  1  0
 19  7  1  0
 30 21  1  0
 16 11  1  0
  3 32  1  0
  4 33  1  0
  4 34  1  0
  5 35  1  0
  6 36  1  0
  7 37  1  6
  9 38  1  6
 12 39  1  0
 13 40  1  0
 15 41  1  0
 16 42  1  0
 17 43  1  1
 18 44  1  0
 19 45  1  1
 20 46  1  0
 22 47  1  0
 27 48  1  0
 29 49  1  0
 31 50  1  0
M  CHG  2  24   1  26  -1
M  END
>  <meeko>  (1) 
{"is_sidechain": [false], "free_energy": -8.646, "intermolecular_energy": -13.196, "internal_energy": -0.897}

$$$$
3oe5_ligand
     RDKit          3D

 50 52  0  0  0  0  0  0  0  0999 V2000
    4.6650   -1.6730    9.0680 O   0  0  0  0  0  0  0  0  0  0  0  0
    5.1640   -2.5780    8.4090 C   0  0  0  0  0  0  0  0  0  0  0  0
    6.3070   -2.4160    7.6650 N   0  0  0  0  0  0  0  0  0  0  0  0
    6.9200   -1.1250    7.5060 C   0  0  0  0  0  0  0  0  0  0  0  0
    8.4020   -1.3090    7.5690 C   0  0  0  0  0  0  0  0  0  0  0  0
    9.2820   -0.2980    7.6750 C   0  0  0  0  0  0  0  0  0  0  0  0
   10.7730   -0.4820    7.7230 C   0  0  1  0  0  0  0  0  0  0  0  0
   11.1560   -1.0970    6.4720 O   0  0  0  0  0  0  0  0  0  0  0  0
   12.1180   -0.2420    5.8350 C   0  0  1  0  0  0  0  0  0  0  0  0
   11.9480   -0.2330    4.0180 S   0  0  0  0  0  0  0  0  0  0  0  0
   10.4110    0.6530    3.8310 C   0  0  0  0  0  0  0  0  0  0  0  0
   10.3570    1.9490    3.3240 C   0  0  0  0  0  0  0  0  0  0  0  0
    9.1190    2.5560    3.2000 C   0  0  0  0  0  0  0  0  0  0  0  0
    7.9540    1.9620    3.5350 N   0  0  0  0  0  0  0  0  0  0  0  0
    8.0310    0.6990    4.0040 C   0  0  0  0  0  0  0  0  0  0  0  0
    9.2200    0.0090    4.1640 C   0  0  0  0  0  0  0  0  0  0  0  0
   11.8580    1.1620    6.3870 C   0  0  2  0  0  0  0  0  0  0  0  0
   12.9750    2.0460    6.2920 O   0  0  0  0  0  0  0  0  0  0  0  0
   11.5420    0.8420    7.8360 C   0  0  2  0  0  0  0  0  0  0  0  0
   12.7680    0.6560    8.5620 O   0  0  0  0  0  0  0  0  0  0  0  0
    4.5250   -3.9290    8.3940 C   0  0  0  0  0  0  0  0  0  0  0  0
    5.3790   -5.0470    8.3910 C   0  0  0  0  0  0  0  0  0  0  0  0
    4.8450   -6.3450    8.3770 C   0  0  0  0  0  0  0  0  0  0  0  0
    5.7470   -7.5040    8.3710 N   0  0  0  0  0  0  0  0  0  0  0  0
    5.6650   -8.2960    9.3210 O   0  0  0  0  0  0  0  0  0  0  0  0
    6.5330   -7.6220    7.4220 O   0  0  0  0  0  0  0  0  0  0  0  0
    3.4590   -6.5550    8.3670 C   0  0  0  0  0  0  0  0  0  0  0  0
    2.6230   -5.4480    8.3730 C   0  0  0  0  0  0  0  0  0  0  0  0
    1.2600   -5.5750    8.3670 O   0  0  0  0  0  0  0  0  0  0  0  0
    3.1410   -4.1470    8.3870 C   0  0  0  0  0  0  0  0  0  0  0  0
    2.2380   -3.1130    8.3990 O   0  0  0  0  0  0  0  0  0  0  0  0
    6.5760   -3.1790    7.0480 H   0  0  0  0  0  0  0  0  0  0  0  0
    6.6379   -0.6945    6.5338 H   0  0  0  0  0  0  0  0  0  0  0  0
    6.5848   -0.4413    8.2999 H   0  0  0  0  0  0  0  0  0  0  0  0
    8.7970   -2.3347    7.5260 H   0  0  0  0  0  0  0  0  0  0  0  0
    8.8864    0.7269    7.7300 H   0  0  0  0  0  0  0  0  0  0  0  0
   11.0166   -1.0846    8.6104 H   0  0  0  0  0  0  0  0  0  0  0  0
   13.1372   -0.5989    6.0442 H   0  0  0  0  0  0  0  0  0  0  0  0
   11.2756    2.4774    3.0293 H   0  0  0  0  0  0  0  0  0  0  0  0
    9.0825    3.5822    2.8055 H   0  0  0  0  0  0  0  0  0  0  0  0
    7.0950    0.1886    4.2747 H   0  0  0  0  0  0  0  0  0  0  0  0
    9.2253   -1.0230    4.5448 H   0  0  0  0  0  0  0  0  0  0  0  0
   11.0746    1.6979    5.8311 H   0  0  0  0  0  0  0  0  0  0  0  0
   13.6670    1.6820    6.8760 H   0  0  0  0  0  0  0  0  0  0  0  0
   10.9786    1.6268    8.3620 H   0  0  0  0  0  0  0  0  0  0  0  0
   12.5180    0.1250    9.3470 H   0  0  0  0  0  0  0  0  0  0  0  0
    6.4695   -4.9034    8.3997 H   0  0  0  0  0  0  0  0  0  0  0  0
    3.0441   -7.5737    8.3547 H   0  0  0  0  0  0  0  0  0  0  0  0
    0.8730   -4.8440    7.8510 H   0  0  0  0  0  0  0  0  0  0  0  0
    1.7160   -3.2410    9.2210 H   0  0  0  0  0  0  0  0  0  0  0  0
  1  2  2  0
  2  3  1  0
  3  4  1  0
  4  5  1  0
  5  6  2  0
  6  7  1  0
  7  8  1  0
  8  9  1  0
  9 10  1  0
 10 11  1  0
 11 12  2  0
 12 13  1  0
 13 14  2  0
 14 15  1  0
 15 16  2  0
  9 17  1  0
 17 18  1  0
 17 19  1  0
 19 20  1  0
  2 21  1  0
 21 22  2  0
 22 23  1  0
 23 24  1  0
 24 25  2  0
 24 26  1  0
 23 27  2  0
 27 28  1  0
 28 29  1  0
 28 30  2  0
 30 31  1  0
 19  7  1  0
 30 21  1  0
 16 11  1  0
  3 32  1  0
  4 33  1  0
  4 34  1  0
  5 35  1  0
  6 36  1  0
  7 37  1  1
  9 38  1  6
 12 39  1  0
 13 40  1  0
 15 41  1  0
 16 42  1  0
 17 43  1  6
 18 44  1  0
 19 45  1  1
 20 46  1  0
 22 47  1  0
 27 48  1  0
 29 49  1  0
 31 50  1  0
M  CHG  2  24   1  26  -1
M  END
>  <meeko>  (2) 
{"is_sidechain": [false], "free_energy": -8.493, "intermolecular_energy": -12.769, "internal_energy": -1.09}

$$$$
3oe5_ligand
     RDKit          3D

 50 52  0  0  0  0  0  0  0  0999 V2000
    6.4500   -2.9750    8.0630 O   0  0  0  0  0  0  0  0  0  0  0  0
    5.2250   -2.9700    8.1220 C   0  0  0  0  0  0  0  0  0  0  0  0
    4.4790   -1.8220    8.0290 N   0  0  0  0  0  0  0  0  0  0  0  0
    5.1010   -0.5260    7.9860 C   0  0  0  0  0  0  0  0  0  0  0  0
    4.9800    0.0870    9.3450 C   0  0  0  0  0  0  0  0  0  0  0  0
    5.8860   -0.0710   10.3240 C   0  0  0  0  0  0  0  0  0  0  0  0
    5.7570    0.5330   11.6950 C   0  0  1  0  0  0  0  0  0  0  0  0
    5.8340   -0.5600   12.6390 O   0  0  0  0  0  0  0  0  0  0  0  0
    6.9240   -0.2950   13.5340 C   0  0  1  0  0  0  0  0  0  0  0  0
    7.7990   -1.8160   14.0370 S   0  0  0  0  0  0  0  0  0  0  0  0
    6.5730   -2.5720   15.0900 C   0  0  0  0  0  0  0  0  0  0  0  0
    6.0050   -1.9020   16.1710 C   0  0  0  0  0  0  0  0  0  0  0  0
    5.0500   -2.5610   16.9260 C   0  0  0  0  0  0  0  0  0  0  0  0
    4.6270   -3.8170   16.6720 N   0  0  0  0  0  0  0  0  0  0  0  0
    5.1760   -4.4380   15.6070 C   0  0  0  0  0  0  0  0  0  0  0  0
    6.1380   -3.8630   14.7930 C   0  0  0  0  0  0  0  0  0  0  0  0
    7.8790    0.6240   12.7690 C   0  0  2  0  0  0  0  0  0  0  0  0
    8.7410    1.4010   13.6010 O   0  0  0  0  0  0  0  0  0  0  0  0
    6.8910    1.5110   12.0350 C   0  0  2  0  0  0  0  0  0  0  0  0
    6.4240    2.5410   12.9210 O   0  0  0  0  0  0  0  0  0  0  0  0
    4.4830   -4.2550    8.3060 C   0  0  0  0  0  0  0  0  0  0  0  0
    5.2490   -5.4240    8.4670 C   0  0  0  0  0  0  0  0  0  0  0  0
    4.6170   -6.6650    8.6430 C   0  0  0  0  0  0  0  0  0  0  0  0
    5.4280   -7.8790    8.8070 N   0  0  0  0  0  0  0  0  0  0  0  0
    6.4910   -7.9440    8.1730 O   0  0  0  0  0  0  0  0  0  0  0  0
    5.0050   -8.7600    9.5660 O   0  0  0  0  0  0  0  0  0  0  0  0
    3.2190   -6.7660    8.6650 C   0  0  0  0  0  0  0  0  0  0  0  0
    2.4710   -5.6080    8.5090 C   0  0  0  0  0  0  0  0  0  0  0  0
    1.1020   -5.6290    8.5220 O   0  0  0  0  0  0  0  0  0  0  0  0
    3.0870   -4.3630    8.3310 C   0  0  0  0  0  0  0  0  0  0  0  0
    2.2660   -3.2710    8.1920 O   0  0  0  0  0  0  0  0  0  0  0  0
    3.4810   -1.8950    8.2190 H   0  0  0  0  0  0  0  0  0  0  0  0
    6.1623   -0.6295    7.7158 H   0  0  0  0  0  0  0  0  0  0  0  0
    4.6109    0.1096    7.2338 H   0  0  0  0  0  0  0  0  0  0  0  0
    4.0948    0.7051    9.5556 H   0  0  0  0  0  0  0  0  0  0  0  0
    6.7769   -0.6795   10.1097 H   0  0  0  0  0  0  0  0  0  0  0  0
    4.8116    1.0938   11.7355 H   0  0  0  0  0  0  0  0  0  0  0  0
    6.5479    0.1615   14.4615 H   0  0  0  0  0  0  0  0  0  0  0  0
    6.3080   -0.8740   16.4188 H   0  0  0  0  0  0  0  0  0  0  0  0
    4.6103   -2.0298   17.7830 H   0  0  0  0  0  0  0  0  0  0  0  0
    4.8404   -5.4589   15.3720 H   0  0  0  0  0  0  0  0  0  0  0  0
    6.5490   -4.4118   13.9328 H   0  0  0  0  0  0  0  0  0  0  0  0
    8.5871    0.0671   12.1378 H   0  0  0  0  0  0  0  0  0  0  0  0
    8.2100    1.6690   14.3740 H   0  0  0  0  0  0  0  0  0  0  0  0
    7.3055    2.0182   11.1513 H   0  0  0  0  0  0  0  0  0  0  0  0
    6.8920    3.3520   12.6340 H   0  0  0  0  0  0  0  0  0  0  0  0
    6.3474   -5.3653    8.4549 H   0  0  0  0  0  0  0  0  0  0  0  0
    2.7268   -7.7401    8.8027 H   0  0  0  0  0  0  0  0  0  0  0  0
    0.7800   -6.0350    7.6950 H   0  0  0  0  0  0  0  0  0  0  0  0
    2.5790   -2.8200    7.3780 H   0  0  0  0  0  0  0  0  0  0  0  0
  1  2  2  0
  2  3  1  0
  3  4  1  0
  4  5  1  0
  5  6  2  0
  6  7  1  0
  7  8  1  0
  8  9  1  0
  9 10  1  0
 10 11  1  0
 11 12  2  0
 12 13  1  0
 13 14  2  0
 14 15  1  0
 15 16  2  0
  9 17  1  0
 17 18  1  0
 17 19  1  0
 19 20  1  0
  2 21  1  0
 21 22  2  0
 22 23  1  0
 23 24  1  0
 24 25  2  0
 24 26  1  0
 23 27  2  0
 27 28  1  0
 28 29  1  0
 28 30  2  0
 30 31  1  0
 19  7  1  0
 30 21  1  0
 16 11  1  0
  3 32  1  0
  4 33  1  0
  4 34  1  0
  5 35  1  0
  6 36  1  0
  7 37  1  6
  9 38  1  1
 12 39  1  0
 13 40  1  0
 15 41  1  0
 16 42  1  0
 17 43  1  6
 18 44  1  0
 19 45  1  6
 20 46  1  0
 22 47  1  0
 27 48  1  0
 29 49  1  0
 31 50  1  0
M  CHG  2  24   1  26  -1
M  END
>  <meeko>  (3) 
{"is_sidechain": [false], "free_energy": -8.245, "intermolecular_energy": -12.437, "internal_energy": -1.043}

$$$$
3oe5_ligand
     RDKit          3D

 50 52  0  0  0  0  0  0  0  0999 V2000
    6.2310   -2.8720    7.8470 O   0  0  0  0  0  0  0  0  0  0  0  0
    5.0570   -2.9040    8.2010 C   0  0  0  0  0  0  0  0  0  0  0  0
    4.3300   -1.7720    8.4770 N   0  0  0  0  0  0  0  0  0  0  0  0
    4.9460   -0.4730    8.4940 C   0  0  0  0  0  0  0  0  0  0  0  0
    5.2640   -0.1340    9.9150 C   0  0  0  0  0  0  0  0  0  0  0  0
    5.5620    1.1040   10.3440 C   0  0  0  0  0  0  0  0  0  0  0  0
    5.8960    1.4430   11.7710 C   0  0  1  0  0  0  0  0  0  0  0  0
    6.6610    0.3330   12.2930 O   0  0  0  0  0  0  0  0  0  0  0  0
    7.9230    0.8420   12.7500 C   0  0  1  0  0  0  0  0  0  0  0  0
    9.2930   -0.3310   12.4680 S   0  0  0  0  0  0  0  0  0  0  0  0
    9.5490   -0.1270   10.7150 C   0  0  0  0  0  0  0  0  0  0  0  0
   10.5610    0.6800   10.2000 C   0  0  0  0  0  0  0  0  0  0  0  0
   10.6970    0.7690    8.8250 C   0  0  0  0  0  0  0  0  0  0  0  0
    9.9100    0.1110    7.9490 N   0  0  0  0  0  0  0  0  0  0  0  0
    8.9510   -0.6820    8.4710 C   0  0  0  0  0  0  0  0  0  0  0  0
    8.7370   -0.8360    9.8310 C   0  0  0  0  0  0  0  0  0  0  0  0
    8.1680    2.1270   11.9540 C   0  0  2  0  0  0  0  0  0  0  0  0
    9.0720    3.0400   12.5760 O   0  0  0  0  0  0  0  0  0  0  0  0
    6.7650    2.7010   11.9060 C   0  0  2  0  0  0  0  0  0  0  0  0
    6.4840    3.3820   13.1400 O   0  0  0  0  0  0  0  0  0  0  0  0
    4.3600   -4.2170    8.3490 C   0  0  0  0  0  0  0  0  0  0  0  0
    5.1640   -5.3600    8.5140 C   0  0  0  0  0  0  0  0  0  0  0  0
    4.5740   -6.6250    8.6590 C   0  0  0  0  0  0  0  0  0  0  0  0
    5.4260   -7.8110    8.8270 N   0  0  0  0  0  0  0  0  0  0  0  0
    5.0470   -8.6760    9.6300 O   0  0  0  0  0  0  0  0  0  0  0  0
    6.4660   -7.8770    8.1600 O   0  0  0  0  0  0  0  0  0  0  0  0
    3.1810   -6.7790    8.6440 C   0  0  0  0  0  0  0  0  0  0  0  0
    2.3950   -5.6470    8.4840 C   0  0  0  0  0  0  0  0  0  0  0  0
    1.0270   -5.7190    8.4630 O   0  0  0  0  0  0  0  0  0  0  0  0
    2.9680   -4.3780    8.3380 C   0  0  0  0  0  0  0  0  0  0  0  0
    2.1110   -3.3150    8.1930 O   0  0  0  0  0  0  0  0  0  0  0  0
    3.4080   -1.8970    8.8880 H   0  0  0  0  0  0  0  0  0  0  0  0
    5.8703   -0.4898    7.8979 H   0  0  0  0  0  0  0  0  0  0  0  0
    4.2679    0.2784    8.0633 H   0  0  0  0  0  0  0  0  0  0  0  0
    5.2534   -0.9481   10.6547 H   0  0  0  0  0  0  0  0  0  0  0  0
    5.5617    1.9199    9.6062 H   0  0  0  0  0  0  0  0  0  0  0  0
    4.9551    1.6300   12.3093 H   0  0  0  0  0  0  0  0  0  0  0  0
    7.8887    1.0148   13.8358 H   0  0  0  0  0  0  0  0  0  0  0  0
   11.2359    1.2333   10.8697 H   0  0  0  0  0  0  0  0  0  0  0  0
   11.4929    1.4136    8.4237 H   0  0  0  0  0  0  0  0  0  0  0  0
    8.3026   -1.2375    7.7775 H   0  0  0  0  0  0  0  0  0  0  0  0
    7.9451   -1.5019   10.2045 H   0  0  0  0  0  0  0  0  0  0  0  0
    8.6441    1.9385   10.9804 H   0  0  0  0  0  0  0  0  0  0  0  0
    9.9290    2.9330   12.1210 H   0  0  0  0  0  0  0  0  0  0  0  0
    6.6006    3.4298   11.0986 H   0  0  0  0  0  0  0  0  0  0  0  0
    6.7310    4.3150   12.9760 H   0  0  0  0  0  0  0  0  0  0  0  0
    6.2595   -5.2615    8.5294 H   0  0  0  0  0  0  0  0  0  0  0  0
    2.7224   -7.7725    8.7563 H   0  0  0  0  0  0  0  0  0  0  0  0
    0.7230   -5.7370    7.5360 H   0  0  0  0  0  0  0  0  0  0  0  0
    1.6940   -3.2030    9.0750 H   0  0  0  0  0  0  0  0  0  0  0  0
  1  2  2  0
  2  3  1  0
  3  4  1  0
  4  5  1  0
  5  6  2  0
  6  7  1  0
  7  8  1  0
  8  9  1  0
  9 10  1  0
 10 11  1  0
 11 12  2  0
 12 13  1  0
 13 14  2  0
 14 15  1  0
 15 16  2  0
  9 17  1  0
 17 18  1  0
 17 19  1  0
 19 20  1  0
  2 21  1  0
 21 22  2  0
 22 23  1  0
 23 24  1  0
 24 25  2  0
 24 26  1  0
 23 27  2  0
 27 28  1  0
 28 29  1  0
 28 30  2  0
 30 31  1  0
 19  7  1  0
 30 21  1  0
 16 11  1  0
  3 32  1  0
  4 33  1  0
  4 34  1  0
  5 35  1  0
  6 36  1  0
  7 37  1  1
  9 38  1  1
 12 39  1  0
 13 40  1  0
 15 41  1  0
 16 42  1  0
 17 43  1  6
 18 44  1  0
 19 45  1  6
 20 46  1  0
 22 47  1  0
 27 48  1  0
 29 49  1  0
 31 50  1  0
M  CHG  2  24   1  26  -1
M  END
>  <meeko>  (4) 
{"is_sidechain": [false], "free_energy": -8.212, "intermolecular_energy": -12.232, "internal_energy": -1.197}

$$$$
3oe5_ligand
     RDKit          3D

 50 52  0  0  0  0  0  0  0  0999 V2000
    4.7140   -2.0180    8.4470 O   0  0  0  0  0  0  0  0  0  0  0  0
    5.2810   -3.0930    8.2870 C   0  0  0  0  0  0  0  0  0  0  0  0
    6.6270   -3.1950    8.0340 N   0  0  0  0  0  0  0  0  0  0  0  0
    7.4370   -2.0280    7.8080 C   0  0  0  0  0  0  0  0  0  0  0  0
    7.9540   -1.5650    9.1320 C   0  0  0  0  0  0  0  0  0  0  0  0
    8.5760   -0.3890    9.3270 C   0  0  0  0  0  0  0  0  0  0  0  0
    9.1100    0.0700   10.6560 C   0  0  1  0  0  0  0  0  0  0  0  0
    8.8440    1.4890   10.7410 O   0  0  0  0  0  0  0  0  0  0  0  0
    8.0540    1.7210   11.9160 C   0  0  1  0  0  0  0  0  0  0  0  0
    6.8350    3.0600   11.6850 S   0  0  0  0  0  0  0  0  0  0  0  0
    7.1120    4.0200   13.1630 C   0  0  0  0  0  0  0  0  0  0  0  0
    6.1990    4.0450   14.2150 C   0  0  0  0  0  0  0  0  0  0  0  0
    6.5010    4.8070   15.3310 C   0  0  0  0  0  0  0  0  0  0  0  0
    7.6360    5.5240   15.4660 N   0  0  0  0  0  0  0  0  0  0  0  0
    8.5150    5.4660   14.4430 C   0  0  0  0  0  0  0  0  0  0  0  0
    8.3030    4.7340   13.2870 C   0  0  0  0  0  0  0  0  0  0  0  0
    7.3290    0.4030   12.1980 C   0  0  2  0  0  0  0  0  0  0  0  0
    6.9030    0.2430   13.5520 O   0  0  0  0  0  0  0  0  0  0  0  0
    8.4150   -0.5980   11.8500 C   0  0  2  0  0  0  0  0  0  0  0  0
    9.3200   -0.7240   12.9580 O   0  0  0  0  0  0  0  0  0  0  0  0
    4.5020   -4.3660    8.3630 C   0  0  0  0  0  0  0  0  0  0  0  0
    5.2320   -5.5650    8.4530 C   0  0  0  0  0  0  0  0  0  0  0  0
    4.5620   -6.7960    8.5280 C   0  0  0  0  0  0  0  0  0  0  0  0
    5.3370   -8.0420    8.6180 N   0  0  0  0  0  0  0  0  0  0  0  0
    6.5160   -8.0090    8.2380 O   0  0  0  0  0  0  0  0  0  0  0  0
    4.7700   -9.0460    9.0670 O   0  0  0  0  0  0  0  0  0  0  0  0
    3.1620   -6.8590    8.5170 C   0  0  0  0  0  0  0  0  0  0  0  0
    2.4490   -5.6710    8.4310 C   0  0  0  0  0  0  0  0  0  0  0  0
    1.0800   -5.6540    8.4180 O   0  0  0  0  0  0  0  0  0  0  0  0
    3.1030   -4.4360    8.3550 C   0  0  0  0  0  0  0  0  0  0  0  0
    2.3150   -3.3130    8.2810 O   0  0  0  0  0  0  0  0  0  0  0  0
    6.9880   -4.1130    7.7860 H   0  0  0  0  0  0  0  0  0  0  0  0
    8.2782   -2.2794    7.1453 H   0  0  0  0  0  0  0  0  0  0  0  0
    6.8427   -1.2354    7.3299 H   0  0  0  0  0  0  0  0  0  0  0  0
    7.8172   -2.2269    9.9999 H   0  0  0  0  0  0  0  0  0  0  0  0
    8.7020    0.2782    8.4616 H   0  0  0  0  0  0  0  0  0  0  0  0
   10.1779   -0.1891   10.7064 H   0  0  0  0  0  0  0  0  0  0  0  0
    8.7000    2.0374   12.7482 H   0  0  0  0  0  0  0  0  0  0  0  0
    5.2609    3.4732   14.1604 H   0  0  0  0  0  0  0  0  0  0  0  0
    5.7732    4.8291   16.1555 H   0  0  0  0  0  0  0  0  0  0  0  0
    9.4534    6.0328   14.5330 H   0  0  0  0  0  0  0  0  0  0  0  0
    9.0563    4.7162   12.4856 H   0  0  0  0  0  0  0  0  0  0  0  0
    6.3890    0.3086   11.6345 H   0  0  0  0  0  0  0  0  0  0  0  0
    7.5460   -0.3580   13.9740 H   0  0  0  0  0  0  0  0  0  0  0  0
    8.0460   -1.6098   11.6262 H   0  0  0  0  0  0  0  0  0  0  0  0
    9.2550    0.1280   13.4370 H   0  0  0  0  0  0  0  0  0  0  0  0
    6.3316   -5.5378    8.4646 H   0  0  0  0  0  0  0  0  0  0  0  0
    2.6409   -7.8260    8.5751 H   0  0  0  0  0  0  0  0  0  0  0  0
    0.7700   -4.7490    8.6050 H   0  0  0  0  0  0  0  0  0  0  0  0
    2.7500   -2.6580    8.8690 H   0  0  0  0  0  0  0  0  0  0  0  0
  1  2  2  0
  2  3  1  0
  3  4  1  0
  4  5  1  0
  5  6  2  0
  6  7  1  0
  7  8  1  0
  8  9  1  0
  9 10  1  0
 10 11  1  0
 11 12  2  0
 12 13  1  0
 13 14  2  0
 14 15  1  0
 15 16  2  0
  9 17  1  0
 17 18  1  0
 17 19  1  0
 19 20  1  0
  2 21  1  0
 21 22  2  0
 22 23  1  0
 23 24  1  0
 24 25  2  0
 24 26  1  0
 23 27  2  0
 27 28  1  0
 28 29  1  0
 28 30  2  0
 30 31  1  0
 19  7  1  0
 30 21  1  0
 16 11  1  0
  3 32  1  0
  4 33  1  0
  4 34  1  0
  5 35  1  0
  6 36  1  0
  7 37  1  6
  9 38  1  1
 12 39  1  0
 13 40  1  0
 15 41  1  0
 16 42  1  0
 17 43  1  6
 18 44  1  0
 19 45  1  6
 20 46  1  0
 22 47  1  0
 27 48  1  0
 29 49  1  0
 31 50  1  0
M  CHG  2  24   1  26  -1
M  END
>  <meeko>  (5) 
{"is_sidechain": [false], "free_energy": -8.128, "intermolecular_energy": -12.303, "internal_energy": -0.998}

$$$$
3oe5_ligand
     RDKit          3D

 50 52  0  0  0  0  0  0  0  0999 V2000
    6.6260    2.4580    3.5920 O   0  0  0  0  0  0  0  0  0  0  0  0
    7.2370    1.5090    4.0730 C   0  0  0  0  0  0  0  0  0  0  0  0
    6.6350    0.5530    4.8520 N   0  0  0  0  0  0  0  0  0  0  0  0
    5.2630    0.6780    5.2650 C   0  0  0  0  0  0  0  0  0  0  0  0
    5.1000   -0.0630    6.5530 C   0  0  0  0  0  0  0  0  0  0  0  0
    4.8300    0.5260    7.7300 C   0  0  0  0  0  0  0  0  0  0  0  0
    4.6810   -0.2180    9.0280 C   0  0  1  0  0  0  0  0  0  0  0  0
    4.4970   -1.6110    8.6900 O   0  0  0  0  0  0  0  0  0  0  0  0
    5.5330   -2.3650    9.3370 C   0  0  1  0  0  0  0  0  0  0  0  0
    6.1010   -3.7770    8.3300 S   0  0  0  0  0  0  0  0  0  0  0  0
    4.6580   -4.8240    8.3810 C   0  0  0  0  0  0  0  0  0  0  0  0
    4.7200   -6.1560    8.7840 C   0  0  0  0  0  0  0  0  0  0  0  0
    3.5470   -6.8920    8.8070 C   0  0  0  0  0  0  0  0  0  0  0  0
    2.3400   -6.3920    8.4680 N   0  0  0  0  0  0  0  0  0  0  0  0
    2.3020   -5.0940    8.1020 C   0  0  0  0  0  0  0  0  0  0  0  0
    3.4200   -4.2780    8.0470 C   0  0  0  0  0  0  0  0  0  0  0  0
    6.6880   -1.3850    9.5540 C   0  0  2  0  0  0  0  0  0  0  0  0
    7.5890   -1.7590   10.5970 O   0  0  0  0  0  0  0  0  0  0  0  0
    5.9250   -0.1260    9.9240 C   0  0  2  0  0  0  0  0  0  0  0  0
    5.5570   -0.1810   11.3110 O   0  0  0  0  0  0  0  0  0  0  0  0
    8.7030    1.3610    3.8190 C   0  0  0  0  0  0  0  0  0  0  0  0
    9.3590    0.2830    4.4400 C   0  0  0  0  0  0  0  0  0  0  0  0
   10.7350    0.0850    4.2450 C   0  0  0  0  0  0  0  0  0  0  0  0
   11.4090   -1.0430    4.9020 N   0  0  0  0  0  0  0  0  0  0  0  0
   11.1070   -1.2790    6.0810 O   0  0  0  0  0  0  0  0  0  0  0  0
   12.2340   -1.6890    4.2430 O   0  0  0  0  0  0  0  0  0  0  0  0
   11.4800    0.9500    3.4320 C   0  0  0  0  0  0  0  0  0  0  0  0
   10.8250    2.0090    2.8200 C   0  0  0  0  0  0  0  0  0  0  0  0
   11.4870    2.8930    2.0100 O   0  0  0  0  0  0  0  0  0  0  0  0
    9.4530    2.2200    3.0060 C   0  0  0  0  0  0  0  0  0  0  0  0
    8.8890    3.2890    2.3550 O   0  0  0  0  0  0  0  0  0  0  0  0
    7.2390   -0.1220    5.3160 H   0  0  0  0  0  0  0  0  0  0  0  0
    5.0119    1.7391    5.4102 H   0  0  0  0  0  0  0  0  0  0  0  0
    4.5931    0.2630    4.4975 H   0  0  0  0  0  0  0  0  0  0  0  0
    5.2077   -1.1576    6.5361 H   0  0  0  0  0  0  0  0  0  0  0  0
    4.7107    1.6194    7.7449 H   0  0  0  0  0  0  0  0  0  0  0  0
    3.8388    0.2228    9.5815 H   0  0  0  0  0  0  0  0  0  0  0  0
    5.1567   -2.7934   10.2777 H   0  0  0  0  0  0  0  0  0  0  0  0
    5.6772   -6.6121    9.0768 H   0  0  0  0  0  0  0  0  0  0  0  0
    3.6022   -7.9452    9.1197 H   0  0  0  0  0  0  0  0  0  0  0  0
    1.3283   -4.6592    7.8320 H   0  0  0  0  0  0  0  0  0  0  0  0
    3.3327   -3.2234    7.7466 H   0  0  0  0  0  0  0  0  0  0  0  0
    7.3480   -1.3082    8.6773 H   0  0  0  0  0  0  0  0  0  0  0  0
    7.0410   -2.1180   11.3200 H   0  0  0  0  0  0  0  0  0  0  0  0
    6.4916    0.8065    9.7846 H   0  0  0  0  0  0  0  0  0  0  0  0
    4.7740    0.4020   11.3880 H   0  0  0  0  0  0  0  0  0  0  0  0
    8.7916   -0.4077    5.0810 H   0  0  0  0  0  0  0  0  0  0  0  0
   12.5585    0.7930    3.2826 H   0  0  0  0  0  0  0  0  0  0  0  0
   10.8430    3.3340    1.4250 H   0  0  0  0  0  0  0  0  0  0  0  0
    8.8860    4.0160    3.0150 H   0  0  0  0  0  0  0  0  0  0  0  0
  1  2  2  0
  2  3  1  0
  3  4  1  0
  4  5  1  0
  5  6  2  0
  6  7  1  0
  7  8  1  0
  8  9  1  0
  9 10  1  0
 10 11  1  0
 11 12  2  0
 12 13  1  0
 13 14  2  0
 14 15  1  0
 15 16  2  0
  9 17  1  0
 17 18  1  0
 17 19  1  0
 19 20  1  0
  2 21  1  0
 21 22  2  0
 22 23  1  0
 23 24  1  0
 24 25  2  0
 24 26  1  0
 23 27  2  0
 27 28  1  0
 28 29  1  0
 28 30  2  0
 30 31  1  0
 19  7  1  0
 30 21  1  0
 16 11  1  0
  3 32  1  0
  4 33  1  0
  4 34  1  0
  5 35  1  0
  6 36  1  0
  7 37  1  1
  9 38  1  1
 12 39  1  0
 13 40  1  0
 15 41  1  0
 16 42  1  0
 17 43  1  6
 18 44  1  0
 19 45  1  1
 20 46  1  0
 22 47  1  0
 27 48  1  0
 29 49  1  0
 31 50  1  0
M  CHG  2  24   1  26  -1
M  END
>  <meeko>  (6) 
{"is_sidechain": [false], "free_energy": -8.045, "intermolecular_energy": -12.375, "internal_energy": -0.799}

$$$$
3oe5_ligand
     RDKit          3D

 50 52  0  0  0  0  0  0  0  0999 V2000
   10.9880   -1.1960    4.5900 O   0  0  0  0  0  0  0  0  0  0  0  0
   10.3600   -0.2090    4.9580 C   0  0  0  0  0  0  0  0  0  0  0  0
    9.6620   -0.1680    6.1390 N   0  0  0  0  0  0  0  0  0  0  0  0
    9.5130   -1.3370    6.9620 C   0  0  0  0  0  0  0  0  0  0  0  0
    8.0980   -1.3860    7.4420 C   0  0  0  0  0  0  0  0  0  0  0  0
    7.0980   -0.6630    6.9080 C   0  0  0  0  0  0  0  0  0  0  0  0
    5.6780   -0.7010    7.3990 C   0  0  1  0  0  0  0  0  0  0  0  0
    5.2920   -2.0930    7.4510 O   0  0  0  0  0  0  0  0  0  0  0  0
    4.8880   -2.3910    8.7950 C   0  0  1  0  0  0  0  0  0  0  0  0
    5.3490   -4.0820    9.3050 S   0  0  0  0  0  0  0  0  0  0  0  0
    4.0960   -5.0350    8.4650 C   0  0  0  0  0  0  0  0  0  0  0  0
    2.8690   -4.4890    8.0960 C   0  0  0  0  0  0  0  0  0  0  0  0
    1.9610   -5.2980    7.4340 C   0  0  0  0  0  0  0  0  0  0  0  0
    2.1960   -6.5880    7.1170 N   0  0  0  0  0  0  0  0  0  0  0  0
    3.4000   -7.0880    7.4660 C   0  0  0  0  0  0  0  0  0  0  0  0
    4.3730   -6.3590    8.1290 C   0  0  0  0  0  0  0  0  0  0  0  0
    5.6030   -1.3690    9.6820 C   0  0  2  0  0  0  0  0  0  0  0  0
    4.9810   -1.1510   10.9490 O   0  0  0  0  0  0  0  0  0  0  0  0
    5.5120   -0.1280    8.8140 C   0  0  2  0  0  0  0  0  0  0  0  0
    4.2150    0.4700    8.9710 O   0  0  0  0  0  0  0  0  0  0  0  0
   10.3350    1.0180    4.1050 C   0  0  0  0  0  0  0  0  0  0  0  0
   11.5390    1.7330    3.9690 C   0  0  0  0  0  0  0  0  0  0  0  0
   11.5860    2.8950    3.1830 C   0  0  0  0  0  0  0  0  0  0  0  0
   12.8490    3.6350    3.0510 N   0  0  0  0  0  0  0  0  0  0  0  0
   13.3010    4.1770    4.0700 O   0  0  0  0  0  0  0  0  0  0  0  0
   13.3850    3.6730    1.9370 O   0  0  0  0  0  0  0  0  0  0  0  0
   10.4440    3.3650    2.5190 C   0  0  0  0  0  0  0  0  0  0  0  0
    9.2610    2.6520    2.6560 C   0  0  0  0  0  0  0  0  0  0  0  0
    8.1070    3.0480    2.0350 O   0  0  0  0  0  0  0  0  0  0  0  0
    9.1990    1.4920    3.4370 C   0  0  0  0  0  0  0  0  0  0  0  0
    7.9880    0.8480    3.5080 O   0  0  0  0  0  0  0  0  0  0  0  0
    9.0660    0.6410    6.3020 H   0  0  0  0  0  0  0  0  0  0  0  0
    9.7394   -2.2388    6.3742 H   0  0  0  0  0  0  0  0  0  0  0  0
   10.2052   -1.2943    7.8159 H   0  0  0  0  0  0  0  0  0  0  0  0
    7.8606   -2.0540    8.2830 H   0  0  0  0  0  0  0  0  0  0  0  0
    7.3336   -0.0033    6.0599 H   0  0  0  0  0  0  0  0  0  0  0  0
    5.0639   -0.0923    6.7190 H   0  0  0  0  0  0  0  0  0  0  0  0
    3.7927   -2.3353    8.8802 H   0  0  0  0  0  0  0  0  0  0  0  0
    2.6272   -3.4406    8.3249 H   0  0  0  0  0  0  0  0  0  0  0  0
    0.9913   -4.8634    7.1499 H   0  0  0  0  0  0  0  0  0  0  0  0
    3.6211   -8.1345    7.2091 H   0  0  0  0  0  0  0  0  0  0  0  0
    5.3414   -6.8140    8.3844 H   0  0  0  0  0  0  0  0  0  0  0  0
    6.6180   -1.6883    9.9609 H   0  0  0  0  0  0  0  0  0  0  0  0
    5.6990   -0.9440   11.5770 H   0  0  0  0  0  0  0  0  0  0  0  0
    6.2503    0.6509    9.0553 H   0  0  0  0  0  0  0  0  0  0  0  0
    3.9000    0.1660    9.8470 H   0  0  0  0  0  0  0  0  0  0  0  0
   12.4467    1.3802    4.4804 H   0  0  0  0  0  0  0  0  0  0  0  0
   10.4846    4.2765    1.9045 H   0  0  0  0  0  0  0  0  0  0  0  0
    7.3430    2.6780    2.5150 H   0  0  0  0  0  0  0  0  0  0  0  0
    7.5470    1.0420    2.6520 H   0  0  0  0  0  0  0  0  0  0  0  0
  1  2  2  0
  2  3  1  0
  3  4  1  0
  4  5  1  0
  5  6  2  0
  6  7  1  0
  7  8  1  0
  8  9  1  0
  9 10  1  0
 10 11  1  0
 11 12  2  0
 12 13  1  0
 13 14  2  0
 14 15  1  0
 15 16  2  0
  9 17  1  0
 17 18  1  0
 17 19  1  0
 19 20  1  0
  2 21  1  0
 21 22  2  0
 22 23  1  0
 23 24  1  0
 24 25  2  0
 24 26  1  0
 23 27  2  0
 27 28  1  0
 28 29  1  0
 28 30  2  0
 30 31  1  0
 19  7  1  0
 30 21  1  0
 16 11  1  0
  3 32  1  0
  4 33  1  0
  4 34  1  0
  5 35  1  0
  6 36  1  0
  7 37  1  6
  9 38  1  6
 12 39  1  0
 13 40  1  0
 15 41  1  0
 16 42  1  0
 17 43  1  1
 18 44  1  0
 19 45  1  1
 20 46  1  0
 22 47  1  0
 27 48  1  0
 29 49  1  0
 31 50  1  0
M  CHG  2  24   1  26  -1
M  END
>  <meeko>  (7) 
{"is_sidechain": [false], "free_energy": -8.041, "intermolecular_energy": -12.265, "internal_energy": -0.903}

$$$$
3oe5_ligand
     RDKit          3D

 50 52  0  0  0  0  0  0  0  0999 V2000
   10.9640   -1.2380    4.6940 O   0  0  0  0  0  0  0  0  0  0  0  0
   10.2570   -0.2980    5.0400 C   0  0  0  0  0  0  0  0  0  0  0  0
    9.5110   -0.3120    6.1930 N   0  0  0  0  0  0  0  0  0  0  0  0
    9.4110   -1.4930    7.0070 C   0  0  0  0  0  0  0  0  0  0  0  0
    8.0120   -1.5760    7.5270 C   0  0  0  0  0  0  0  0  0  0  0  0
    7.6940   -1.9870    8.7660 C   0  0  0  0  0  0  0  0  0  0  0  0
    6.2850   -2.0850    9.2840 C   0  0  1  0  0  0  0  0  0  0  0  0
    6.3570   -1.9090   10.7170 O   0  0  0  0  0  0  0  0  0  0  0  0
    5.5230   -0.7950   11.0680 C   0  0  1  0  0  0  0  0  0  0  0  0
    6.2070    0.1800   12.4520 S   0  0  0  0  0  0  0  0  0  0  0  0
    7.4970    1.0850   11.6160 C   0  0  0  0  0  0  0  0  0  0  0  0
    7.4100    2.4540   11.3780 C   0  0  0  0  0  0  0  0  0  0  0  0
    8.4660    3.0790   10.7350 C   0  0  0  0  0  0  0  0  0  0  0  0
    9.5820    2.4390   10.3290 N   0  0  0  0  0  0  0  0  0  0  0  0
    9.6520    1.1170   10.5890 C   0  0  0  0  0  0  0  0  0  0  0  0
    8.6500    0.4040   11.2260 C   0  0  0  0  0  0  0  0  0  0  0  0
    5.4390    0.0750    9.8120 C   0  0  2  0  0  0  0  0  0  0  0  0
    4.2980    0.9330    9.7660 O   0  0  0  0  0  0  0  0  0  0  0  0
    5.3610   -0.9900    8.7350 C   0  0  2  0  0  0  0  0  0  0  0  0
    4.0100   -1.4690    8.6340 O   0  0  0  0  0  0  0  0  0  0  0  0
   10.1810    0.9290    4.1910 C   0  0  0  0  0  0  0  0  0  0  0  0
   11.3550    1.6910    4.0530 C   0  0  0  0  0  0  0  0  0  0  0  0
   11.3540    2.8560    3.2690 C   0  0  0  0  0  0  0  0  0  0  0  0
   12.5860    3.6460    3.1360 N   0  0  0  0  0  0  0  0  0  0  0  0
   13.0660    3.7660    1.9990 O   0  0  0  0  0  0  0  0  0  0  0  0
   13.0700    4.1430    4.1610 O   0  0  0  0  0  0  0  0  0  0  0  0
   10.1920    3.2820    2.6110 C   0  0  0  0  0  0  0  0  0  0  0  0
    9.0390    2.5230    2.7490 C   0  0  0  0  0  0  0  0  0  0  0  0
    7.8680    2.8750    2.1330 O   0  0  0  0  0  0  0  0  0  0  0  0
    9.0250    1.3590    3.5270 C   0  0  0  0  0  0  0  0  0  0  0  0
    7.8400    0.6680    3.6000 O   0  0  0  0  0  0  0  0  0  0  0  0
    8.8550    0.4530    6.3350 H   0  0  0  0  0  0  0  0  0  0  0  0
    9.6385   -2.3836    6.4028 H   0  0  0  0  0  0  0  0  0  0  0  0
   10.1272   -1.4454    7.8405 H   0  0  0  0  0  0  0  0  0  0  0  0
    7.1928   -1.2826    6.8541 H   0  0  0  0  0  0  0  0  0  0  0  0
    8.5139   -2.2690    9.4429 H   0  0  0  0  0  0  0  0  0  0  0  0
    5.8710   -3.0553    8.9724 H   0  0  0  0  0  0  0  0  0  0  0  0
    4.5382   -1.1517   11.4041 H   0  0  0  0  0  0  0  0  0  0  0  0
    6.5244    3.0254   11.6928 H   0  0  0  0  0  0  0  0  0  0  0  0
    8.3901    4.1597   10.5445 H   0  0  0  0  0  0  0  0  0  0  0  0
   10.5566    0.5744   10.2772 H   0  0  0  0  0  0  0  0  0  0  0  0
    8.7608   -0.6731   11.4196 H   0  0  0  0  0  0  0  0  0  0  0  0
    6.2779    0.7817    9.7292 H   0  0  0  0  0  0  0  0  0  0  0  0
    4.4380    1.5380    9.0120 H   0  0  0  0  0  0  0  0  0  0  0  0
    5.6492   -0.6432    7.7317 H   0  0  0  0  0  0  0  0  0  0  0  0
    3.9150   -2.1120    9.3670 H   0  0  0  0  0  0  0  0  0  0  0  0
   12.2774    1.3732    4.5611 H   0  0  0  0  0  0  0  0  0  0  0  0
   10.1943    4.1965    1.9997 H   0  0  0  0  0  0  0  0  0  0  0  0
    7.7170    2.2840    1.3720 H   0  0  0  0  0  0  0  0  0  0  0  0
    7.1510    1.3580    3.7170 H   0  0  0  0  0  0  0  0  0  0  0  0
  1  2  2  0
  2  3  1  0
  3  4  1  0
  4  5  1  0
  5  6  2  0
  6  7  1  0
  7  8  1  0
  8  9  1  0
  9 10  1  0
 10 11  1  0
 11 12  2  0
 12 13  1  0
 13 14  2  0
 14 15  1  0
 15 16  2  0
  9 17  1  0
 17 18  1  0
 17 19  1  0
 19 20  1  0
  2 21  1  0
 21 22  2  0
 22 23  1  0
 23 24  1  0
 24 25  2  0
 24 26  1  0
 23 27  2  0
 27 28  1  0
 28 29  1  0
 28 30  2  0
 30 31  1  0
 19  7  1  0
 30 21  1  0
 16 11  1  0
  3 32  1  0
  4 33  1  0
  4 34  1  0
  5 35  1  0
  6 36  1  0
  7 37  1  1
  9 38  1  1
 12 39  1  0
 13 40  1  0
 15 41  1  0
 16 42  1  0
 17 43  1  6
 18 44  1  0
 19 45  1  6
 20 46  1  0
 22 47  1  0
 27 48  1  0
 29 49  1  0
 31 50  1  0
M  CHG  2  24   1  26  -1
M  END
>  <meeko>  (8) 
{"is_sidechain": [false], "free_energy": -7.786, "intermolecular_energy": -11.603, "internal_energy": -1.177}

$$$$
3oe5_ligand
     RDKit          3D

 50 52  0  0  0  0  0  0  0  0999 V2000
    7.1270   -0.0730    5.3960 O   0  0  0  0  0  0  0  0  0  0  0  0
    8.3520   -0.0600    5.4600 C   0  0  0  0  0  0  0  0  0  0  0  0
    9.0620   -0.8680    6.3130 N   0  0  0  0  0  0  0  0  0  0  0  0
    8.4010   -1.6920    7.2880 C   0  0  0  0  0  0  0  0  0  0  0  0
    8.7040   -1.1350    8.6430 C   0  0  0  0  0  0  0  0  0  0  0  0
    9.0800    0.1360    8.8660 C   0  0  0  0  0  0  0  0  0  0  0  0
    9.4000    0.6920   10.2260 C   0  0  1  0  0  0  0  0  0  0  0  0
    8.1980    1.3380   10.7040 O   0  0  0  0  0  0  0  0  0  0  0  0
    7.8360    0.7320   11.9530 C   0  0  1  0  0  0  0  0  0  0  0  0
    6.0280    0.6150   12.1750 S   0  0  0  0  0  0  0  0  0  0  0  0
    5.5410   -0.0490   10.5920 C   0  0  0  0  0  0  0  0  0  0  0  0
    5.5570   -1.4150   10.3220 C   0  0  0  0  0  0  0  0  0  0  0  0
    5.1480   -1.8440    9.0710 C   0  0  0  0  0  0  0  0  0  0  0  0
    4.7270   -1.0150    8.0940 N   0  0  0  0  0  0  0  0  0  0  0  0
    4.7000    0.3020    8.3860 C   0  0  0  0  0  0  0  0  0  0  0  0
    5.0880    0.8270    9.6070 C   0  0  0  0  0  0  0  0  0  0  0  0
    8.4470   -0.6710   11.9280 C   0  0  2  0  0  0  0  0  0  0  0  0
    8.6470   -1.2490   13.2190 O   0  0  0  0  0  0  0  0  0  0  0  0
    9.7740   -0.3900   11.2490 C   0  0  2  0  0  0  0  0  0  0  0  0
   10.7050    0.1250   12.2150 O   0  0  0  0  0  0  0  0  0  0  0  0
    9.1330    0.8640    4.5830 C   0  0  0  0  0  0  0  0  0  0  0  0
   10.5370    0.7920    4.6590 C   0  0  0  0  0  0  0  0  0  0  0  0
   11.3320    1.6320    3.8630 C   0  0  0  0  0  0  0  0  0  0  0  0
   12.7960    1.5490    3.9540 N   0  0  0  0  0  0  0  0  0  0  0  0
   13.4490    2.5140    3.5310 O   0  0  0  0  0  0  0  0  0  0  0  0
   13.2890    0.5260    4.4460 O   0  0  0  0  0  0  0  0  0  0  0  0
   10.7510    2.5530    2.9820 C   0  0  0  0  0  0  0  0  0  0  0  0
    9.3660    2.6160    2.9110 C   0  0  0  0  0  0  0  0  0  0  0  0
    8.7280    3.4900    2.0710 O   0  0  0  0  0  0  0  0  0  0  0  0
    8.5600    1.7860    3.6980 C   0  0  0  0  0  0  0  0  0  0  0  0
    7.2000    1.9130    3.5550 O   0  0  0  0  0  0  0  0  0  0  0  0
   10.0630   -0.6980    6.3940 H   0  0  0  0  0  0  0  0  0  0  0  0
    7.3150   -1.6795    7.1132 H   0  0  0  0  0  0  0  0  0  0  0  0
    8.7538   -2.7312    7.2135 H   0  0  0  0  0  0  0  0  0  0  0  0
    8.6136   -1.8065    9.5095 H   0  0  0  0  0  0  0  0  0  0  0  0
    9.1584    0.8107    8.0008 H   0  0  0  0  0  0  0  0  0  0  0  0
   10.2621    1.3680   10.1264 H   0  0  0  0  0  0  0  0  0  0  0  0
    8.2066    1.3425   12.7897 H   0  0  0  0  0  0  0  0  0  0  0  0
    5.8868   -2.1359   11.0846 H   0  0  0  0  0  0  0  0  0  0  0  0
    5.1675   -2.9237    8.8616 H   0  0  0  0  0  0  0  0  0  0  0  0
    4.3498    0.9983    7.6098 H   0  0  0  0  0  0  0  0  0  0  0  0
    5.0399    1.9097    9.7952 H   0  0  0  0  0  0  0  0  0  0  0  0
    7.7979   -1.4063   11.4299 H   0  0  0  0  0  0  0  0  0  0  0  0
    8.2090   -0.6550   13.8580 H   0  0  0  0  0  0  0  0  0  0  0  0
   10.2470   -1.2723   10.7932 H   0  0  0  0  0  0  0  0  0  0  0  0
   11.0060    0.9800   11.8440 H   0  0  0  0  0  0  0  0  0  0  0  0
   11.0127    0.0751    5.3444 H   0  0  0  0  0  0  0  0  0  0  0  0
   11.3772    3.2107    2.3612 H   0  0  0  0  0  0  0  0  0  0  0  0
    9.2210    4.3310    2.0510 H   0  0  0  0  0  0  0  0  0  0  0  0
    6.9140    1.0880    3.1050 H   0  0  0  0  0  0  0  0  0  0  0  0
  1  2  2  0
  2  3  1  0
  3  4  1  0
  4  5  1  0
  5  6  2  0
  6  7  1  0
  7  8  1  0
  8  9  1  0
  9 10  1  0
 10 11  1  0
 11 12  2  0
 12 13  1  0
 13 14  2  0
 14 15  1  0
 15 16  2  0
  9 17  1  0
 17 18  1  0
 17 19  1  0
 19 20  1  0
  2 21  1  0
 21 22  2  0
 22 23  1  0
 23 24  1  0
 24 25  2  0
 24 26  1  0
 23 27  2  0
 27 28  1  0
 28 29  1  0
 28 30  2  0
 30 31  1  0
 19  7  1  0
 30 21  1  0
 16 11  1  0
  3 32  1  0
  4 33  1  0
  4 34  1  0
  5 35  1  0
  6 36  1  0
  7 37  1  6
  9 38  1  1
 12 39  1  0
 13 40  1  0
 15 41  1  0
 16 42  1  0
 17 43  1  6
 18 44  1  0
 19 45  1  6
 20 46  1  0
 22 47  1  0
 27 48  1  0
 29 49  1  0
 31 50  1  0
M  CHG  2  24   1  26  -1
M  END
>  <meeko>  (9) 
{"is_sidechain": [false], "free_energy": -7.722, "intermolecular_energy": -11.226, "internal_energy": -1.456}

$$$$
