
     RDKit          3D

 41 45  0  0  0  0  0  0  0  0999 V2000
   -3.6390   16.8430   -1.0420 C   0  0  0  0  0  0  0  0  0  0  0  0
   -3.4380   15.5800   -1.7930 N   0  0  1  0  0  0  0  0  0  0  0  0
   -3.9640   15.7620   -3.1650 C   0  0  0  0  0  0  0  0  0  0  0  0
   -1.9760   15.3350   -1.8960 C   0  0  0  0  0  0  0  0  0  0  0  0
   -4.1370   14.4600   -1.1120 C   0  0  0  0  0  0  0  0  0  0  0  0
   -5.5090   14.5000   -0.8730 C   0  0  0  0  0  0  0  0  0  0  0  0
   -6.1460   13.4450   -0.2290 C   0  0  0  0  0  0  0  0  0  0  0  0
   -5.4070   12.3420    0.1630 C   0  0  0  0  0  0  0  0  0  0  0  0
   -6.0460   11.2110    0.8530 C   0  0  0  0  0  0  0  0  0  0  0  0
   -7.2740   10.7440    0.3130 N   0  0  0  0  0  0  0  0  0  0  0  0
   -7.3290   10.0550   -0.8340 C   0  0  0  0  0  0  0  0  0  0  0  0
   -6.3500    9.8340   -1.5180 O   0  0  0  0  0  0  0  0  0  0  0  0
   -8.6590    9.6000   -1.2240 C   0  0  0  0  0  0  0  0  0  0  0  0
   -9.7990    9.7630   -0.4720 C   0  0  0  0  0  0  0  0  0  0  0  0
  -10.8550    9.2220   -1.2330 C   0  0  0  0  0  0  0  0  0  0  0  0
  -12.2180    9.1330   -1.0180 C   0  0  0  0  0  0  0  0  0  0  0  0
  -13.0030    8.5470   -2.0170 C   0  0  0  0  0  0  0  0  0  0  0  0
  -14.3430    8.4520   -1.9050 O   0  0  0  0  0  0  0  0  0  0  0  0
  -14.9600    9.3330   -1.0130 C   0  0  0  0  0  0  0  0  0  0  0  0
  -16.4090    9.3640   -1.2250 C   0  0  0  0  0  0  0  0  0  0  0  0
  -16.9170    9.5940   -2.4820 C   0  0  0  0  0  0  0  0  0  0  0  0
  -18.2640    9.6050   -2.6840 C   0  0  0  0  0  0  0  0  0  0  0  0
  -19.1250    9.3850   -1.6300 C   0  0  0  0  0  0  0  0  0  0  0  0
  -18.6250    9.1600   -0.3450 C   0  0  0  0  0  0  0  0  0  0  0  0
  -17.2700    9.1560   -0.1380 C   0  0  0  0  0  0  0  0  0  0  0  0
  -12.4770    8.0550   -3.1720 C   0  0  0  0  0  0  0  0  0  0  0  0
  -11.1170    8.1490   -3.4090 C   0  0  0  0  0  0  0  0  0  0  0  0
  -10.3130    8.7460   -2.4240 C   0  0  0  0  0  0  0  0  0  0  0  0
   -8.9780    8.9880   -2.3970 N   0  0  0  0  0  0  0  0  0  0  0  0
   -8.1290    8.7090   -3.4980 C   0  0  0  0  0  0  0  0  0  0  0  0
   -7.3400    7.4830   -3.5030 C   0  0  0  0  0  0  0  0  0  0  0  0
   -6.9530    6.7440   -2.3950 C   0  0  0  0  0  0  0  0  0  0  0  0
   -6.1550    5.6320   -2.5690 C   0  0  0  0  0  0  0  0  0  0  0  0
   -5.7610    5.2700   -3.8450 C   0  0  0  0  0  0  0  0  0  0  0  0
   -6.1640    6.0110   -4.9610 C   0  0  0  0  0  0  0  0  0  0  0  0
   -5.8060    5.7040   -6.3540 C   0  0  0  0  0  0  0  0  0  0  0  0
   -4.8090    4.9090   -6.6460 N   0  0  0  0  0  0  0  0  0  0  0  0
   -6.5120    6.2570   -7.3240 N   0  0  0  0  0  0  0  0  0  0  0  0
   -6.9490    7.1060   -4.7730 C   0  0  0  0  0  0  0  0  0  0  0  0
   -4.0610   12.2860   -0.0770 C   0  0  0  0  0  0  0  0  0  0  0  0
   -3.4270   13.3310   -0.7090 C   0  0  0  0  0  0  0  0  0  0  0  0
  2  1  1  1
  3  2  1  0
  4  2  1  0
  5  2  1  0
  6  5  2  0
  7  6  1  0
  8  7  2  0
  9  8  1  0
 10  9  1  0
 11 10  1  0
 12 11  2  0
 13 11  1  0
 14 13  2  0
 15 14  1  0
 16 15  2  0
 17 16  1  0
 18 17  1  0
 19 18  1  0
 20 19  1  0
 21 20  2  0
 22 21  1  0
 23 22  2  0
 24 23  1  0
 25 24  2  0
 25 20  1  0
 26 17  2  0
 27 26  1  0
 28 27  2  0
 28 15  1  0
 29 28  1  0
 29 13  1  0
 30 29  1  0
 31 30  1  0
 32 31  2  0
 33 32  1  0
 34 33  2  0
 35 34  1  0
 36 35  1  0
 37 36  2  0
 38 36  1  0
 39 35  2  0
 39 31  1  0
 40  8  1  0
 41 40  2  0
 41  5  1  0
M  CHG  2   2   1  37   1
M  END
$$$$
