
     RDKit          3D

 35 39  0  0  0  0  0  0  0  0999 V2000
   -5.2490   10.7250  -10.7390 O   0  0  0  0  0  0  0  0  0  0  0  0
   -3.8190   10.8810  -10.4830 S   0  0  1  0  0  0  0  0  0  0  0  0
   -2.9760    9.8740  -11.1430 O   0  0  0  0  0  0  0  0  0  0  0  0
   -3.3600   12.4640  -11.0170 C   0  0  0  0  0  0  0  0  0  0  0  0
   -4.1840   13.5520  -10.7480 C   0  0  0  0  0  0  0  0  0  0  0  0
   -3.8110   14.8210  -11.1580 C   0  0  0  0  0  0  0  0  0  0  0  0
   -2.6390   15.0010  -11.8650 C   0  0  0  0  0  0  0  0  0  0  0  0
   -1.8340   13.9120  -12.1630 C   0  0  0  0  0  0  0  0  0  0  0  0
   -2.1980   12.6360  -11.7480 C   0  0  0  0  0  0  0  0  0  0  0  0
   -3.4920   10.8490   -8.7710 C   0  0  0  0  0  0  0  0  0  0  0  0
   -2.2420   11.1170   -8.2650 C   0  0  0  0  0  0  0  0  0  0  0  0
   -2.0560   11.0560   -6.8900 C   0  0  0  0  0  0  0  0  0  0  0  0
   -0.8320   11.3210   -6.3710 N   0  0  0  0  0  0  0  0  0  0  0  0
   -0.4380   11.3460   -5.0490 C   0  0  0  0  0  0  0  0  0  0  0  0
   -1.1390   11.0730   -3.8690 C   0  0  0  0  0  0  0  0  0  0  0  0
   -0.2370   11.2600   -2.8450 C   0  0  0  0  0  0  0  0  0  0  0  0
   -0.4700   11.0680   -1.4180 C   0  0  0  0  0  0  0  0  0  0  0  0
    0.6070   11.0620   -0.5730 C   0  0  0  0  0  0  0  0  0  0  0  0
    0.4280   10.8610    0.7890 C   0  0  0  0  0  0  0  0  0  0  0  0
   -0.8570   10.6690    1.3120 C   0  0  0  0  0  0  0  0  0  0  0  0
   -1.9480   10.6780    0.4420 C   0  0  0  0  0  0  0  0  0  0  0  0
   -1.7600   10.8750   -0.9150 C   0  0  0  0  0  0  0  0  0  0  0  0
    0.9270   11.6340   -3.3750 N   0  0  0  0  0  0  0  0  0  0  0  0
    0.8140   11.6820   -4.6960 N   0  0  0  0  0  0  0  0  0  0  0  0
   -3.0640   10.7320   -6.0800 N   0  0  0  0  0  0  0  0  0  0  0  0
   -4.2560   10.4650   -6.5470 C   0  0  0  0  0  0  0  0  0  0  0  0
   -5.2330   10.1440   -5.6470 N   0  0  0  0  0  0  0  0  0  0  0  0
   -4.9420    9.9240   -4.2610 C   0  0  2  0  0  0  0  0  0  0  0  0
   -4.5220    8.4890   -4.0470 C   0  0  0  0  0  0  0  0  0  0  0  0
   -4.3090    8.1630   -2.5760 C   0  0  0  0  0  0  0  0  0  0  0  0
   -5.5410    8.4660   -1.7680 C   0  0  1  0  0  0  0  0  0  0  0  0
   -5.2550    8.2500   -0.3660 O   0  0  0  0  0  0  0  0  0  0  0  0
   -5.9520    9.9040   -1.9850 C   0  0  0  0  0  0  0  0  0  0  0  0
   -6.1690   10.2100   -3.4530 C   0  0  0  0  0  0  0  0  0  0  0  0
   -4.5320   10.5060   -7.8960 C   0  0  0  0  0  0  0  0  0  0  0  0
  2  1  2  0
  3  2  2  0
  2  4  1  6
  5  4  2  0
  6  5  1  0
  7  6  2  0
  8  7  1  0
  9  8  2  0
  9  4  1  0
 10  2  1  0
 11 10  2  0
 12 11  1  0
 13 12  1  0
 14 13  1  0
 15 14  2  0
 16 15  1  0
 17 16  1  0
 18 17  2  0
 19 18  1  0
 20 19  2  0
 21 20  1  0
 22 21  2  0
 22 17  1  0
 23 16  2  0
 24 23  1  0
 24 14  1  0
 25 12  2  0
 26 25  1  0
 27 26  1  0
 28 27  1  6
 29 28  1  0
 30 29  1  0
 31 30  1  0
 31 32  1  1
 33 31  1  0
 34 33  1  0
 34 28  1  0
 35 26  2  0
 35 10  1  0
M  END
$$$$
