
     RDKit          3D

 25 28  0  0  0  0  0  0  0  0999 V2000
    6.7000    4.7250   -4.5610 O   0  0  0  0  0  0  0  0  0  0  0  0
    5.8980    4.3680   -5.6660 C   0  0  0  0  0  0  0  0  0  0  0  0
    6.7650    4.0540   -6.8780 C   0  0  0  0  0  0  0  0  0  0  0  0
    6.7780    2.6010   -7.2160 N   0  0  0  0  0  0  0  0  0  0  0  0
    7.6610    1.7340   -6.6730 C   0  0  0  0  0  0  0  0  0  0  0  0
    8.5280    2.1520   -5.7430 N   0  0  0  0  0  0  0  0  0  0  0  0
    9.4060    1.3130   -5.2030 C   0  0  0  0  0  0  0  0  0  0  0  0
    9.5020    0.0090   -5.5440 N   0  0  0  0  0  0  0  0  0  0  0  0
    8.6550   -0.4540   -6.4710 C   0  0  0  0  0  0  0  0  0  0  0  0
    8.5790   -1.7050   -6.9630 O   0  0  0  0  0  0  0  0  0  0  0  0
    7.5890   -1.7440   -7.8800 C   0  0  0  0  0  0  0  0  0  0  0  0
    7.3020   -2.9930   -8.5490 C   0  0  0  0  0  0  0  0  0  0  0  0
    7.9970   -4.1400   -8.1490 C   0  0  0  0  0  0  0  0  0  0  0  0
    7.7480   -5.3600   -8.7570 C   0  0  0  0  0  0  0  0  0  0  0  0
    6.8010   -5.4520   -9.7790 C   0  0  0  0  0  0  0  0  0  0  0  0
    6.1110   -4.3390  -10.1800 C   0  0  0  0  0  0  0  0  0  0  0  0
    6.3540   -3.0940   -9.5740 C   0  0  0  0  0  0  0  0  0  0  0  0
    6.9890   -0.4680   -7.9940 C   0  0  0  0  0  0  0  0  0  0  0  0
    5.8830   -0.0800   -8.8090 C   0  0  0  0  0  0  0  0  0  0  0  0
    6.0580    0.7980   -9.8880 C   0  0  0  0  0  0  0  0  0  0  0  0
    4.9620    1.1960  -10.6630 C   0  0  0  0  0  0  0  0  0  0  0  0
    3.6790    0.7210  -10.3390 C   0  0  0  0  0  0  0  0  0  0  0  0
    3.4820   -0.1340   -9.2470 C   0  0  0  0  0  0  0  0  0  0  0  0
    4.5840   -0.5280   -8.4750 C   0  0  0  0  0  0  0  0  0  0  0  0
    7.7090    0.3560   -7.0750 C   0  0  0  0  0  0  0  0  0  0  0  0
  2  1  1  0
  3  2  1  0
  4  3  1  0
  5  4  1  0
  6  5  2  0
  7  6  1  0
  8  7  2  0
  9  8  1  0
 10  9  1  0
 11 10  1  0
 12 11  1  0
 13 12  2  0
 14 13  1  0
 15 14  2  0
 16 15  1  0
 17 16  2  0
 17 12  1  0
 18 11  2  0
 19 18  1  0
 20 19  2  0
 21 20  1  0
 22 21  2  0
 23 22  1  0
 24 23  2  0
 24 19  1  0
 25 18  1  0
 25  9  2  0
 25  5  1  0
M  END
$$$$
