
     RDKit          3D

 16 17  0  0  0  0  0  0  0  0999 V2000
   17.5780    8.4010   10.7920 O   0  0  0  0  0  0  0  0  0  0  0  0
   16.6900    7.8450   10.1960 C   0  0  0  0  0  0  0  0  0  0  0  0
   16.7590    6.6040    9.6290 N   0  0  0  0  0  0  0  0  0  0  0  0
   15.4760    6.2580    9.0260 C   0  0  2  0  0  0  0  0  0  0  0  0
   15.5700    5.9310    7.5260 C   0  0  1  0  0  0  0  0  0  0  0  0
   15.9530    4.5780    7.4270 O   0  0  0  0  0  0  0  0  0  0  0  0
   14.2560    6.2090    6.7450 C   0  0  1  0  0  0  0  0  0  0  0  0
   13.9260    5.0910    5.9230 O   0  0  0  0  0  0  0  0  0  0  0  0
   13.0430    6.5540    7.6000 C   0  0  2  0  0  0  0  0  0  0  0  0
   12.0010    7.0950    6.7830 O   0  0  0  0  0  0  0  0  0  0  0  0
   13.3520    7.6160    8.6670 C   0  0  1  0  0  0  0  0  0  0  0  0
   12.3340    7.4620    9.8110 C   0  0  0  0  0  0  0  0  0  0  0  0
   12.3350    8.5610   10.6790 O   0  0  0  0  0  0  0  0  0  0  0  0
   14.7000    7.4930    9.2310 N   0  0  0  0  0  0  0  0  0  0  0  0
   15.3640    8.3940    9.9210 C   0  0  0  0  0  0  0  0  0  0  0  0
   14.9750    9.5040   10.2600 O   0  0  0  0  0  0  0  0  0  0  0  0
  2  1  2  0
  3  2  1  0
  4  3  1  6
  5  4  1  0
  5  6  1  1
  7  5  1  0
  7  8  1  1
  9  7  1  0
  9 10  1  6
 11  9  1  0
 11 12  1  1
 13 12  1  0
 14 11  1  0
 14  4  1  0
 15 14  1  0
 15  2  1  0
 16 15  2  0
M  END
$$$$
