
     RDKit          3D

 14 15  0  0  0  0  0  0  0  0999 V2000
  -18.7480   -3.7680    5.9920 O   0  0  0  0  0  0  0  0  0  0  0  0
  -18.4190   -4.5560    4.8860 C   0  0  0  0  0  0  0  0  0  0  0  0
  -18.9620   -3.9450    3.5880 C   0  0  2  0  0  0  0  0  0  0  0  0
  -17.9760   -2.8850    3.0430 C   0  0  1  0  0  0  0  0  0  0  0  0
  -16.9210   -3.6080    2.4100 O   0  0  0  0  0  0  0  0  0  0  0  0
  -18.6650   -1.9260    2.0640 C   0  0  2  0  0  0  0  0  0  0  0  0
  -17.7110   -0.9900    1.5790 O   0  0  0  0  0  0  0  0  0  0  0  0
  -19.7850   -1.1770    2.7780 C   0  0  1  0  0  0  0  0  0  0  0  0
  -20.4730   -0.3340    1.8670 O   0  0  0  0  0  0  0  0  0  0  0  0
  -20.7070   -2.1770    3.3880 C   0  0  0  0  0  0  0  0  0  0  0  0
  -21.9820   -2.0270    3.6560 N   0  0  0  0  0  0  0  0  0  0  0  0
  -22.4070   -3.1590    4.2440 C   0  0  0  0  0  0  0  0  0  0  0  0
  -21.3620   -4.0230    4.3180 C   0  0  0  0  0  0  0  0  0  0  0  0
  -20.3220   -3.3910    3.7860 N   0  0  0  0  0  0  0  0  0  0  0  0
  2  1  1  0
  3  2  1  1
  4  3  1  0
  4  5  1  6
  6  4  1  0
  6  7  1  1
  8  6  1  0
  8  9  1  6
 10  8  1  0
 11 10  2  0
 12 11  1  0
 13 12  2  0
 14 13  1  0
 14 10  1  0
 14  3  1  0
M  CHG  1  11   1
M  END
$$$$
