
     RDKit          3D

 10 10  0  0  0  0  0  0  0  0999 V2000
   -0.9610  -11.1500   -2.3570 N   0  0  0  0  0  0  0  0  0  0  0  0
   -0.8670   -9.8490   -2.2190 C   0  0  0  0  0  0  0  0  0  0  0  0
    0.3210   -9.3220   -1.9210 N   0  0  0  0  0  0  0  0  0  0  0  0
   -2.0490   -8.9610   -2.3720 C   0  0  0  0  0  0  0  0  0  0  0  0
   -3.2640   -9.4820   -2.7790 C   0  0  0  0  0  0  0  0  0  0  0  0
   -4.3630   -8.6610   -2.9040 C   0  0  0  0  0  0  0  0  0  0  0  0
   -4.2600   -7.3090   -2.6200 C   0  0  0  0  0  0  0  0  0  0  0  0
   -5.3720   -6.4780   -2.7430 N   0  0  0  0  0  0  0  0  0  0  0  0
   -3.0430   -6.7750   -2.2110 C   0  0  0  0  0  0  0  0  0  0  0  0
   -1.9550   -7.5950   -2.0900 C   0  0  0  0  0  0  0  0  0  0  0  0
  2  1  2  0
  3  2  1  0
  4  2  1  0
  5  4  2  0
  6  5  1  0
  7  6  2  0
  8  7  1  0
  9  7  1  0
 10  9  2  0
 10  4  1  0
M  CHG  1   1   1
M  END
$$$$
