
     RDKit          3D

 37 42  0  0  0  0  0  0  0  0999 V2000
    6.8890   12.0750   -2.9470 C   0  0  0  0  0  0  0  0  0  0  0  0
    5.8240   11.0490   -2.5890 C   0  0  0  0  0  0  0  0  0  0  0  0
    4.5000   11.4630   -2.4390 C   0  0  0  0  0  0  0  0  0  0  0  0
    3.5040   10.5400   -2.0790 C   0  0  0  0  0  0  0  0  0  0  0  0
    3.8280    9.2050   -1.8640 C   0  0  0  0  0  0  0  0  0  0  0  0
    2.8300    8.1950   -1.4090 C   0  0  0  0  0  0  0  0  0  0  0  0
    3.1600    7.2380   -0.7470 O   0  0  0  0  0  0  0  0  0  0  0  0
    1.5250    8.4170   -1.7690 N   0  0  0  0  0  0  0  0  0  0  0  0
    0.4360    7.5980   -1.4020 C   0  0  0  0  0  0  0  0  0  0  0  0
   -0.5770    7.3610   -2.3480 C   0  0  0  0  0  0  0  0  0  0  0  0
   -1.6600    6.5580   -1.9940 C   0  0  0  0  0  0  0  0  0  0  0  0
   -1.7460    5.9770   -0.7190 C   0  0  0  0  0  0  0  0  0  0  0  0
   -0.7620    6.2110    0.2360 C   0  0  0  0  0  0  0  0  0  0  0  0
   -0.8530    5.6760    1.5340 N   0  0  0  0  0  0  0  0  0  0  0  0
    0.4040    5.2370    2.1610 C   0  0  0  0  0  0  0  0  0  0  0  0
    0.1860    4.9530    3.6570 C   0  0  0  0  0  0  0  0  0  0  0  0
   -0.8670    3.9620    3.8130 O   0  0  0  0  0  0  0  0  0  0  0  0
   -2.1170    4.5170    3.3450 C   0  0  0  0  0  0  0  0  0  0  0  0
   -1.9770    4.7640    1.8240 C   0  0  0  0  0  0  0  0  0  0  0  0
    0.3280    7.0310   -0.1020 C   0  0  0  0  0  0  0  0  0  0  0  0
    5.1610    8.7970   -2.0440 C   0  0  0  0  0  0  0  0  0  0  0  0
    6.1640    9.6950   -2.4110 C   0  0  0  0  0  0  0  0  0  0  0  0
    7.5380    9.1610   -2.5600 C   0  0  0  0  0  0  0  0  0  0  0  0
    7.8990    8.3760   -3.6660 C   0  0  0  0  0  0  0  0  0  0  0  0
    9.1810    7.8040   -3.7730 C   0  0  0  0  0  0  0  0  0  0  0  0
   10.1290    8.0450   -2.7720 C   0  0  0  0  0  0  0  0  0  0  0  0
   11.4500    7.6510   -2.5180 C   0  0  0  0  0  0  0  0  0  0  0  0
   12.3110    6.7210   -3.3040 C   0  0  2  0  0  0  0  0  0  0  0  0
   12.4460    5.4220   -2.4910 C   0  0  0  0  0  0  0  0  0  0  0  0
   13.3850    4.4430   -3.1710 C   0  0  0  0  0  0  0  0  0  0  0  0
   14.6800    5.0510   -3.4030 N   0  0  0  0  0  0  0  0  0  0  0  0
   14.5900    6.2750   -4.2220 C   0  0  0  0  0  0  0  0  0  0  0  0
   13.6850    7.3040   -3.5560 C   0  0  0  0  0  0  0  0  0  0  0  0
   11.8240    8.2150   -1.3700 N   0  0  0  0  0  0  0  0  0  0  0  0
   10.8090    8.9440   -0.8590 O   0  0  0  0  0  0  0  0  0  0  0  0
    9.7720    8.8460   -1.6870 C   0  0  0  0  0  0  0  0  0  0  0  0
    8.4900    9.4150   -1.5510 C   0  0  0  0  0  0  0  0  0  0  0  0
  2  1  1  0
  3  2  2  0
  4  3  1  0
  5  4  2  0
  6  5  1  0
  7  6  2  0
  8  6  1  0
  9  8  1  0
 10  9  2  0
 11 10  1  0
 12 11  2  0
 13 12  1  0
 14 13  1  0
 15 14  1  0
 16 15  1  0
 17 16  1  0
 18 17  1  0
 19 18  1  0
 19 14  1  0
 20 13  2  0
 20  9  1  0
 21  5  1  0
 22 21  2  0
 22  2  1  0
 23 22  1  0
 24 23  2  0
 25 24  1  0
 26 25  2  0
 27 26  1  0
 28 27  1  1
 29 28  1  0
 30 29  1  0
 31 30  1  0
 32 31  1  0
 33 32  1  0
 33 28  1  0
 34 27  2  0
 35 34  1  0
 36 35  1  0
 36 26  1  0
 37 36  2  0
 37 23  1  0
M  CHG  1  31   1
M  END
$$$$
