
     RDKit          3D

 30 32  0  0  0  0  0  0  0  0999 V2000
    6.4150   -9.2640    3.0850 C   0  0  0  0  0  0  0  0  0  0  0  0
    5.5900   -9.4900    4.3400 C   0  0  1  0  0  0  0  0  0  0  0  0
    4.0950   -9.3250    4.0710 C   0  0  0  0  0  0  0  0  0  0  0  0
    5.7780  -10.9540    4.7560 C   0  0  0  0  0  0  0  0  0  0  0  0
    6.0550   -8.5560    5.4740 C   0  0  0  0  0  0  0  0  0  0  0  0
    6.7920   -9.0730    6.5050 C   0  0  0  0  0  0  0  0  0  0  0  0
    7.1950   -8.3030    7.5740 C   0  0  0  0  0  0  0  0  0  0  0  0
    6.8570   -6.9670    7.6250 C   0  0  0  0  0  0  0  0  0  0  0  0
    7.2120   -6.1130    8.7880 C   0  0  0  0  0  0  0  0  0  0  0  0
    6.5340   -5.1740    9.1230 O   0  0  0  0  0  0  0  0  0  0  0  0
    8.3200   -6.3860    9.4680 N   0  0  0  0  0  0  0  0  0  0  0  0
    8.4410   -5.9220   10.7390 N   0  0  0  0  0  0  0  0  0  0  0  0
    8.5920   -6.8540   11.7320 C   0  0  0  0  0  0  0  0  0  0  0  0
    9.4810   -7.6580   11.7260 O   0  0  0  0  0  0  0  0  0  0  0  0
    7.6400   -6.8240   12.6930 N   0  0  0  0  0  0  0  0  0  0  0  0
    7.5900   -7.6810   13.8260 C   0  0  0  0  0  0  0  0  0  0  0  0
    8.6100   -8.5820   14.1100 C   0  0  0  0  0  0  0  0  0  0  0  0
    8.5320   -9.4360   15.2100 C   0  0  0  0  0  0  0  0  0  0  0  0
    7.4420   -9.3900   16.0310 C   0  0  0  0  0  0  0  0  0  0  0  0
    6.3920   -8.4830   15.7760 C   0  0  0  0  0  0  0  0  0  0  0  0
    5.2880   -8.4470   16.6170 C   0  0  0  0  0  0  0  0  0  0  0  0
    4.2690   -7.5580   16.3620 C   0  0  0  0  0  0  0  0  0  0  0  0
    4.3250   -6.6820   15.2870 C   0  0  0  0  0  0  0  0  0  0  0  0
    5.4070   -6.7110   14.4420 C   0  0  0  0  0  0  0  0  0  0  0  0
    6.4630   -7.6060   14.6720 C   0  0  0  0  0  0  0  0  0  0  0  0
    6.1280   -6.3960    6.6000 C   0  0  0  0  0  0  0  0  0  0  0  0
    5.7450   -7.1710    5.5190 C   0  0  0  0  0  0  0  0  0  0  0  0
    5.0180   -6.5380    4.4810 N   0  0  0  0  0  0  0  0  0  0  0  0
    3.9960   -5.8510    4.7780 O   0  0  0  0  0  0  0  0  0  0  0  0
    5.4550   -6.5830    3.2750 O   0  0  0  0  0  0  0  0  0  0  0  0
  2  1  1  6
  3  2  1  0
  4  2  1  0
  5  2  1  0
  6  5  2  0
  7  6  1  0
  8  7  2  0
  9  8  1  0
 10  9  2  0
 11  9  1  0
 12 11  1  0
 13 12  1  0
 14 13  2  0
 15 13  1  0
 16 15  1  0
 17 16  2  0
 18 17  1  0
 19 18  2  0
 20 19  1  0
 21 20  2  0
 22 21  1  0
 23 22  2  0
 24 23  1  0
 25 24  2  0
 25 20  1  0
 25 16  1  0
 26  8  1  0
 27 26  2  0
 27  5  1  0
 28 27  1  0
 29 28  2  0
 30 28  1  0
M  CHG  2  28   1  30  -1
M  END
$$$$
