4dli_ligand
     RDKit          3D

 38 41  0  0  0  0  0  0  0  0999 V2000
    1.7060    7.0570   -8.0400 N   0  0  0  0  0  0  0  0  0  0  0  0
    2.3920    7.8430   -7.1190 C   0  0  0  0  0  0  0  0  0  0  0  0
    3.7010    8.2480   -7.3760 C   0  0  0  0  0  0  0  0  0  0  0  0
    4.4500    8.9280   -6.4110 C   0  0  0  0  0  0  0  0  0  0  0  0
    3.9200    9.1880   -5.1280 C   0  0  0  0  0  0  0  0  0  0  0  0
    4.5920    9.8740   -4.0860 C   0  0  0  0  0  0  0  0  0  0  0  0
    5.8980   10.3650   -4.3250 N   0  0  0  0  0  0  0  0  0  0  0  0
    6.2290   11.6540   -4.9490 C   0  0  0  0  0  0  0  0  0  0  0  0
    6.4510   11.8400   -6.4210 C   0  0  0  0  0  0  0  0  0  0  0  0
    5.2890   12.5160   -5.7390 C   0  0  0  0  0  0  0  0  0  0  0  0
    4.0280   10.0230   -2.8750 N   0  0  0  0  0  0  0  0  0  0  0  0
    2.8080    9.4960   -2.6830 C   0  0  0  0  0  0  0  0  0  0  0  0
    2.1560    9.6410   -1.3820 C   0  0  0  0  0  0  0  0  0  0  0  0
    2.1310    8.5930   -0.4400 C   0  0  0  0  0  0  0  0  0  0  0  0
    1.4820    8.7470    0.7900 C   0  0  0  0  0  0  0  0  0  0  0  0
    0.8570    9.9500    1.1040 C   0  0  0  0  0  0  0  0  0  0  0  0
    0.8870   11.0050    0.1970 C   0  0  0  0  0  0  0  0  0  0  0  0
    1.5340   10.8520   -1.0310 C   0  0  0  0  0  0  0  0  0  0  0  0
    2.1070    8.8740   -3.6300 N   0  0  0  0  0  0  0  0  0  0  0  0
    2.6230    8.7040   -4.8530 C   0  0  0  0  0  0  0  0  0  0  0  0
    1.8760    8.0350   -5.8370 C   0  0  0  0  0  0  0  0  0  0  0  0
    1.2170    6.2420   -7.6810 H   0  0  0  0  0  0  0  0  0  0  0  0
    1.1340    7.5670   -8.7100 H   0  0  0  0  0  0  0  0  0  0  0  0
    4.1523    8.0288   -8.3549 H   0  0  0  0  0  0  0  0  0  0  0  0
    5.4680    9.2658   -6.6549 H   0  0  0  0  0  0  0  0  0  0  0  0
    6.5000    9.6070   -4.6430 H   0  0  0  0  0  0  0  0  0  0  0  0
    6.8227   11.8045   -4.0353 H   0  0  0  0  0  0  0  0  0  0  0  0
    7.3030   12.4372   -6.7780 H   0  0  0  0  0  0  0  0  0  0  0  0
    6.5632   11.1659   -7.2829 H   0  0  0  0  0  0  0  0  0  0  0  0
    5.2923   13.6069   -5.5980 H   0  0  0  0  0  0  0  0  0  0  0  0
    4.2006   12.5403   -5.8963 H   0  0  0  0  0  0  0  0  0  0  0  0
    2.6287    7.6406   -0.6750 H   0  0  0  0  0  0  0  0  0  0  0  0
    1.4658    7.9156    1.5101 H   0  0  0  0  0  0  0  0  0  0  0  0
    0.3399   10.0669    2.0678 H   0  0  0  0  0  0  0  0  0  0  0  0
    0.4010   11.9595    0.4474 H   0  0  0  0  0  0  0  0  0  0  0  0
    1.5574   11.6951   -1.7372 H   0  0  0  0  0  0  0  0  0  0  0  0
    1.1700    8.5510   -3.4150 H   0  0  0  0  0  0  0  0  0  0  0  0
    0.8717    7.6579   -5.5936 H   0  0  0  0  0  0  0  0  0  0  0  0
  1  2  1  0
  2  3  2  0
  3  4  1  0
  4  5  2  0
  5  6  1  0
  6  7  1  0
  7  8  1  0
  8  9  1  0
  9 10  1  0
  6 11  2  0
 11 12  1  0
 12 13  1  0
 13 14  2  0
 14 15  1  0
 15 16  2  0
 16 17  1  0
 17 18  2  0
 12 19  2  0
 19 20  1  0
 20 21  2  0
 21  2  1  0
 20  5  1  0
 10  8  1  0
 18 13  1  0
  1 22  1  0
  1 23  1  0
  3 24  1  0
  4 25  1  0
  7 26  1  0
  8 27  1  0
  9 28  1  0
  9 29  1  0
 10 30  1  0
 10 31  1  0
 14 32  1  0
 15 33  1  0
 16 34  1  0
 17 35  1  0
 18 36  1  0
 19 37  1  0
 21 38  1  0
M  CHG  1  19   1
M  END
>  <meeko>  (1) 
{"is_sidechain": [false], "free_energy": -7.653, "intermolecular_energy": -9.219, "internal_energy": -0.572}

$$$$
4dli_ligand
     RDKit          3D

 38 41  0  0  0  0  0  0  0  0999 V2000
   -0.6150   10.5440   -8.5380 N   0  0  0  0  0  0  0  0  0  0  0  0
    0.3920   10.8770   -7.6360 C   0  0  0  0  0  0  0  0  0  0  0  0
    1.6070   11.3830   -8.0950 C   0  0  0  0  0  0  0  0  0  0  0  0
    2.6750   11.6030   -7.2190 C   0  0  0  0  0  0  0  0  0  0  0  0
    2.5710   11.2770   -5.8490 C   0  0  0  0  0  0  0  0  0  0  0  0
    3.5890   11.4660   -4.8800 C   0  0  0  0  0  0  0  0  0  0  0  0
    4.8160   12.0430   -5.2860 N   0  0  0  0  0  0  0  0  0  0  0  0
    6.0060   11.3040   -5.7320 C   0  0  0  0  0  0  0  0  0  0  0  0
    6.0130    9.8380   -6.0470 C   0  0  0  0  0  0  0  0  0  0  0  0
    6.2830   10.8470   -7.1330 C   0  0  0  0  0  0  0  0  0  0  0  0
    3.4190   11.0700   -3.6080 N   0  0  0  0  0  0  0  0  0  0  0  0
    2.2560   10.4840   -3.2830 C   0  0  0  0  0  0  0  0  0  0  0  0
    2.0280   10.0430   -1.9070 C   0  0  0  0  0  0  0  0  0  0  0  0
    2.4680    8.7860   -1.4450 C   0  0  0  0  0  0  0  0  0  0  0  0
    2.2210    8.3780   -0.1300 C   0  0  0  0  0  0  0  0  0  0  0  0
    1.5390    9.2170    0.7460 C   0  0  0  0  0  0  0  0  0  0  0  0
    1.1130   10.4710    0.3160 C   0  0  0  0  0  0  0  0  0  0  0  0
    1.3610   10.8800   -0.9960 C   0  0  0  0  0  0  0  0  0  0  0  0
    1.2460   10.3100   -4.1340 N   0  0  0  0  0  0  0  0  0  0  0  0
    1.3640   10.6910   -5.4120 C   0  0  0  0  0  0  0  0  0  0  0  0
    0.2940   10.4900   -6.3000 C   0  0  0  0  0  0  0  0  0  0  0  0
   -0.5640   10.9590   -9.4640 H   0  0  0  0  0  0  0  0  0  0  0  0
   -0.8470    9.5530   -8.5880 H   0  0  0  0  0  0  0  0  0  0  0  0
    1.7279   11.6131   -9.1638 H   0  0  0  0  0  0  0  0  0  0  0  0
    3.6101   12.0366   -7.6031 H   0  0  0  0  0  0  0  0  0  0  0  0
    5.0450   12.8310   -4.6810 H   0  0  0  0  0  0  0  0  0  0  0  0
    6.5292   11.9619   -5.0224 H   0  0  0  0  0  0  0  0  0  0  0  0
    6.8272    9.1989   -5.6747 H   0  0  0  0  0  0  0  0  0  0  0  0
    5.3021    9.0093   -5.9132 H   0  0  0  0  0  0  0  0  0  0  0  0
    7.2944   10.9451   -7.5541 H   0  0  0  0  0  0  0  0  0  0  0  0
    5.8512   11.0613   -8.1218 H   0  0  0  0  0  0  0  0  0  0  0  0
    3.0128    8.1172   -2.1276 H   0  0  0  0  0  0  0  0  0  0  0  0
    2.5667    7.3915    0.2125 H   0  0  0  0  0  0  0  0  0  0  0  0
    1.3367    8.8901    1.7766 H   0  0  0  0  0  0  0  0  0  0  0  0
    0.5814   11.1392    1.0095 H   0  0  0  0  0  0  0  0  0  0  0  0
    1.0280   11.8762   -1.3227 H   0  0  0  0  0  0  0  0  0  0  0  0
    0.3810    9.9040   -3.7940 H   0  0  0  0  0  0  0  0  0  0  0  0
   -0.6326   10.0215   -5.9368 H   0  0  0  0  0  0  0  0  0  0  0  0
  1  2  1  0
  2  3  2  0
  3  4  1  0
  4  5  2  0
  5  6  1  0
  6  7  1  0
  7  8  1  0
  8  9  1  0
  9 10  1  0
  6 11  2  0
 11 12  1  0
 12 13  1  0
 13 14  2  0
 14 15  1  0
 15 16  2  0
 16 17  1  0
 17 18  2  0
 12 19  2  0
 19 20  1  0
 20 21  2  0
 21  2  1  0
 20  5  1  0
 10  8  1  0
 18 13  1  0
  1 22  1  0
  1 23  1  0
  3 24  1  0
  4 25  1  0
  7 26  1  0
  8 27  1  0
  9 28  1  0
  9 29  1  0
 10 30  1  0
 10 31  1  0
 14 32  1  0
 15 33  1  0
 16 34  1  0
 17 35  1  0
 18 36  1  0
 19 37  1  0
 21 38  1  0
M  CHG  1  19   1
M  END
>  <meeko>  (2) 
{"is_sidechain": [false], "free_energy": -7.42, "intermolecular_energy": -8.83, "internal_energy": -0.68}

$$$$
4dli_ligand
     RDKit          3D

 38 41  0  0  0  0  0  0  0  0999 V2000
    6.8100   11.5450   -5.7080 N   0  0  0  0  0  0  0  0  0  0  0  0
    5.7050   11.1760   -4.9470 C   0  0  0  0  0  0  0  0  0  0  0  0
    5.8750   10.4830   -3.7500 C   0  0  0  0  0  0  0  0  0  0  0  0
    4.7770    9.9920   -3.0370 C   0  0  0  0  0  0  0  0  0  0  0  0
    3.4620   10.1440   -3.5290 C   0  0  0  0  0  0  0  0  0  0  0  0
    2.2860    9.6910   -2.8820 C   0  0  0  0  0  0  0  0  0  0  0  0
    2.4040    9.0430   -1.6290 N   0  0  0  0  0  0  0  0  0  0  0  0
    2.3530    9.6990   -0.3150 C   0  0  0  0  0  0  0  0  0  0  0  0
    1.2560   10.6270    0.1160 C   0  0  0  0  0  0  0  0  0  0  0  0
    1.4590    9.3130    0.8270 C   0  0  0  0  0  0  0  0  0  0  0  0
    1.0790    9.8280   -3.4570 N   0  0  0  0  0  0  0  0  0  0  0  0
    1.0240   10.4050   -4.6680 C   0  0  0  0  0  0  0  0  0  0  0  0
   -0.2700   10.5800   -5.3270 C   0  0  0  0  0  0  0  0  0  0  0  0
   -0.3940   10.6070   -6.7300 C   0  0  0  0  0  0  0  0  0  0  0  0
   -1.6400   10.7970   -7.3380 C   0  0  0  0  0  0  0  0  0  0  0  0
   -2.7810   10.9530   -6.5580 C   0  0  0  0  0  0  0  0  0  0  0  0
   -2.6850   10.9090   -5.1700 C   0  0  0  0  0  0  0  0  0  0  0  0
   -1.4420   10.7190   -4.5620 C   0  0  0  0  0  0  0  0  0  0  0  0
    2.0860   10.8860   -5.3140 N   0  0  0  0  0  0  0  0  0  0  0  0
    3.3090   10.7770   -4.7810 C   0  0  0  0  0  0  0  0  0  0  0  0
    4.4200   11.2790   -5.4790 C   0  0  0  0  0  0  0  0  0  0  0  0
    7.3350   10.8000   -6.1560 H   0  0  0  0  0  0  0  0  0  0  0  0
    6.6620   12.3280   -6.3430 H   0  0  0  0  0  0  0  0  0  0  0  0
    6.8902   10.3195   -3.3594 H   0  0  0  0  0  0  0  0  0  0  0  0
    4.9401    9.4792   -2.0776 H   0  0  0  0  0  0  0  0  0  0  0  0
    3.1200    8.3180   -1.6800 H   0  0  0  0  0  0  0  0  0  0  0  0
    3.4429    9.7707   -0.4450 H   0  0  0  0  0  0  0  0  0  0  0  0
    1.5017   11.5713    0.6239 H   0  0  0  0  0  0  0  0  0  0  0  0
    0.4093   11.1180   -0.3861 H   0  0  0  0  0  0  0  0  0  0  0  0
    1.8531    9.2978    1.8539 H   0  0  0  0  0  0  0  0  0  0  0  0
    0.8223    8.4466    1.0593 H   0  0  0  0  0  0  0  0  0  0  0  0
    0.5009   10.4769   -7.3562 H   0  0  0  0  0  0  0  0  0  0  0  0
   -1.7172   10.8230   -8.4350 H   0  0  0  0  0  0  0  0  0  0  0  0
   -3.7583   11.1110   -7.0375 H   0  0  0  0  0  0  0  0  0  0  0  0
   -3.5878   11.0238   -4.5522 H   0  0  0  0  0  0  0  0  0  0  0  0
   -1.3785   10.6773   -3.4646 H   0  0  0  0  0  0  0  0  0  0  0  0
    1.9500   11.3550   -6.2030 H   0  0  0  0  0  0  0  0  0  0  0  0
    4.2745   11.7595   -6.4578 H   0  0  0  0  0  0  0  0  0  0  0  0
  1  2  1  0
  2  3  2  0
  3  4  1  0
  4  5  2  0
  5  6  1  0
  6  7  1  0
  7  8  1  0
  8  9  1  0
  9 10  1  0
  6 11  2  0
 11 12  1  0
 12 13  1  0
 13 14  2  0
 14 15  1  0
 15 16  2  0
 16 17  1  0
 17 18  2  0
 12 19  2  0
 19 20  1  0
 20 21  2  0
 21  2  1  0
 20  5  1  0
 10  8  1  0
 18 13  1  0
  1 22  1  0
  1 23  1  0
  3 24  1  0
  4 25  1  0
  7 26  1  0
  8 27  1  0
  9 28  1  0
  9 29  1  0
 10 30  1  0
 10 31  1  0
 14 32  1  0
 15 33  1  0
 16 34  1  0
 17 35  1  0
 18 36  1  0
 19 37  1  0
 21 38  1  0
M  CHG  1  19   1
M  END
>  <meeko>  (3) 
{"is_sidechain": [false], "free_energy": -7.363, "intermolecular_energy": -8.907, "internal_energy": -0.534}

$$$$
4dli_ligand
     RDKit          3D

 38 41  0  0  0  0  0  0  0  0999 V2000
    7.6290    8.2510   -7.8880 N   0  0  0  0  0  0  0  0  0  0  0  0
    6.4260    8.9040   -7.6350 C   0  0  0  0  0  0  0  0  0  0  0  0
    5.8240    9.6790   -8.6260 C   0  0  0  0  0  0  0  0  0  0  0  0
    4.6860   10.4440   -8.3530 C   0  0  0  0  0  0  0  0  0  0  0  0
    4.1350   10.4910   -7.0530 C   0  0  0  0  0  0  0  0  0  0  0  0
    2.9830   11.2260   -6.6760 C   0  0  0  0  0  0  0  0  0  0  0  0
    2.2980   11.9730   -7.6640 N   0  0  0  0  0  0  0  0  0  0  0  0
    1.1480   11.5050   -8.4510 C   0  0  0  0  0  0  0  0  0  0  0  0
   -0.1390   11.0260   -7.8490 C   0  0  0  0  0  0  0  0  0  0  0  0
   -0.1180   12.2710   -8.6990 C   0  0  0  0  0  0  0  0  0  0  0  0
    2.5660   11.2570   -5.3990 N   0  0  0  0  0  0  0  0  0  0  0  0
    3.2780   10.5720   -4.4900 C   0  0  0  0  0  0  0  0  0  0  0  0
    2.8550   10.5750   -3.0900 C   0  0  0  0  0  0  0  0  0  0  0  0
    3.1440    9.5030   -2.2220 C   0  0  0  0  0  0  0  0  0  0  0  0
    2.7110    9.5170   -0.8920 C   0  0  0  0  0  0  0  0  0  0  0  0
    1.9910   10.6040   -0.4040 C   0  0  0  0  0  0  0  0  0  0  0  0
    1.7130   11.6830   -1.2380 C   0  0  0  0  0  0  0  0  0  0  0  0
    2.1450   11.6690   -2.5660 C   0  0  0  0  0  0  0  0  0  0  0  0
    4.3460    9.8310   -4.7840 N   0  0  0  0  0  0  0  0  0  0  0  0
    4.7990    9.7650   -6.0420 C   0  0  0  0  0  0  0  0  0  0  0  0
    5.9330    8.9890   -6.3330 C   0  0  0  0  0  0  0  0  0  0  0  0
    8.4570    8.8300   -7.9920 H   0  0  0  0  0  0  0  0  0  0  0  0
    7.8150    7.4370   -7.3060 H   0  0  0  0  0  0  0  0  0  0  0  0
    6.2517    9.6885   -9.6394 H   0  0  0  0  0  0  0  0  0  0  0  0
    4.2124   11.0181   -9.1630 H   0  0  0  0  0  0  0  0  0  0  0  0
    2.9660   12.5050   -8.2210 H   0  0  0  0  0  0  0  0  0  0  0  0
    1.9238   11.0753   -9.1018 H   0  0  0  0  0  0  0  0  0  0  0  0
   -0.6159   10.1096   -8.2268 H   0  0  0  0  0  0  0  0  0  0  0  0
   -0.4800   10.7834   -6.8317 H   0  0  0  0  0  0  0  0  0  0  0  0
   -0.5793   12.2637   -9.6976 H   0  0  0  0  0  0  0  0  0  0  0  0
   -0.4370   13.3145   -8.5601 H   0  0  0  0  0  0  0  0  0  0  0  0
    3.7185    8.6427   -2.5959 H   0  0  0  0  0  0  0  0  0  0  0  0
    2.9397    8.6681   -0.2309 H   0  0  0  0  0  0  0  0  0  0  0  0
    1.6423   10.6101    0.6393 H   0  0  0  0  0  0  0  0  0  0  0  0
    1.1529   12.5470   -0.8511 H   0  0  0  0  0  0  0  0  0  0  0  0
    1.9255   12.5303   -3.2140 H   0  0  0  0  0  0  0  0  0  0  0  0
    4.7960    9.3030   -4.0440 H   0  0  0  0  0  0  0  0  0  0  0  0
    6.4386    8.4415   -5.5240 H   0  0  0  0  0  0  0  0  0  0  0  0
  1  2  1  0
  2  3  2  0
  3  4  1  0
  4  5  2  0
  5  6  1  0
  6  7  1  0
  7  8  1  0
  8  9  1  0
  9 10  1  0
  6 11  2  0
 11 12  1  0
 12 13  1  0
 13 14  2  0
 14 15  1  0
 15 16  2  0
 16 17  1  0
 17 18  2  0
 12 19  2  0
 19 20  1  0
 20 21  2  0
 21  2  1  0
 20  5  1  0
 10  8  1  0
 18 13  1  0
  1 22  1  0
  1 23  1  0
  3 24  1  0
  4 25  1  0
  7 26  1  0
  8 27  1  0
  9 28  1  0
  9 29  1  0
 10 30  1  0
 10 31  1  0
 14 32  1  0
 15 33  1  0
 16 34  1  0
 17 35  1  0
 18 36  1  0
 19 37  1  0
 21 38  1  0
M  CHG  1  19   1
M  END
>  <meeko>  (4) 
{"is_sidechain": [false], "free_energy": -7.361, "intermolecular_energy": -8.901, "internal_energy": -0.538}

$$$$
4dli_ligand
     RDKit          3D

 38 41  0  0  0  0  0  0  0  0999 V2000
    7.1500   11.8260   -6.0020 N   0  0  0  0  0  0  0  0  0  0  0  0
    6.0610   11.0130   -5.7030 C   0  0  0  0  0  0  0  0  0  0  0  0
    5.4260   10.2890   -6.7120 C   0  0  0  0  0  0  0  0  0  0  0  0
    4.2540    9.5690   -6.4560 C   0  0  0  0  0  0  0  0  0  0  0  0
    3.6530    9.5880   -5.1790 C   0  0  0  0  0  0  0  0  0  0  0  0
    2.4740    8.8890   -4.8170 C   0  0  0  0  0  0  0  0  0  0  0  0
    1.8330    8.0850   -5.7900 N   0  0  0  0  0  0  0  0  0  0  0  0
    0.7940    8.5360   -6.7280 C   0  0  0  0  0  0  0  0  0  0  0  0
   -0.4090    9.3340   -6.3250 C   0  0  0  0  0  0  0  0  0  0  0  0
    0.6240    9.9330   -7.2450 C   0  0  0  0  0  0  0  0  0  0  0  0
    1.9410    9.0140   -3.5900 N   0  0  0  0  0  0  0  0  0  0  0  0
    2.5580    9.8270   -2.7180 C   0  0  0  0  0  0  0  0  0  0  0  0
    2.0150    9.9870   -1.3700 C   0  0  0  0  0  0  0  0  0  0  0  0
    1.3700   11.1710   -0.9620 C   0  0  0  0  0  0  0  0  0  0  0  0
    0.8760   11.3090    0.3400 C   0  0  0  0  0  0  0  0  0  0  0  0
    1.0100   10.2670    1.2520 C   0  0  0  0  0  0  0  0  0  0  0  0
    1.6260    9.0800    0.8640 C   0  0  0  0  0  0  0  0  0  0  0  0
    2.1190    8.9410   -0.4350 C   0  0  0  0  0  0  0  0  0  0  0  0
    3.6880   10.4820   -2.9810 N   0  0  0  0  0  0  0  0  0  0  0  0
    4.2610   10.3870   -4.1880 C   0  0  0  0  0  0  0  0  0  0  0  0
    5.4460   11.0930   -4.4540 C   0  0  0  0  0  0  0  0  0  0  0  0
    8.0400   11.3660   -6.1690 H   0  0  0  0  0  0  0  0  0  0  0  0
    6.9750   12.5570   -6.6890 H   0  0  0  0  0  0  0  0  0  0  0  0
    5.8536   10.2840   -7.7255 H   0  0  0  0  0  0  0  0  0  0  0  0
    3.7938    8.9790   -7.2623 H   0  0  0  0  0  0  0  0  0  0  0  0
    1.6410    7.1610   -5.4040 H   0  0  0  0  0  0  0  0  0  0  0  0
    0.9708    7.5593   -7.2021 H   0  0  0  0  0  0  0  0  0  0  0  0
   -1.4027    9.0660   -6.7133 H   0  0  0  0  0  0  0  0  0  0  0  0
   -0.8633    9.6283   -5.3674 H   0  0  0  0  0  0  0  0  0  0  0  0
    0.3849   10.1024   -8.3053 H   0  0  0  0  0  0  0  0  0  0  0  0
    1.2373   10.8462   -7.2382 H   0  0  0  0  0  0  0  0  0  0  0  0
    1.2530   11.9988   -1.6769 H   0  0  0  0  0  0  0  0  0  0  0  0
    0.3807   12.2433    0.6430 H   0  0  0  0  0  0  0  0  0  0  0  0
    0.6299   10.3806    2.2780 H   0  0  0  0  0  0  0  0  0  0  0  0
    1.7243    8.2516    1.5810 H   0  0  0  0  0  0  0  0  0  0  0  0
    2.5975    7.9963   -0.7327 H   0  0  0  0  0  0  0  0  0  0  0  0
    4.1180   11.0350   -2.2480 H   0  0  0  0  0  0  0  0  0  0  0  0
    5.8946   11.7170   -3.6669 H   0  0  0  0  0  0  0  0  0  0  0  0
  1  2  1  0
  2  3  2  0
  3  4  1  0
  4  5  2  0
  5  6  1  0
  6  7  1  0
  7  8  1  0
  8  9  1  0
  9 10  1  0
  6 11  2  0
 11 12  1  0
 12 13  1  0
 13 14  2  0
 14 15  1  0
 15 16  2  0
 16 17  1  0
 17 18  2  0
 12 19  2  0
 19 20  1  0
 20 21  2  0
 21  2  1  0
 20  5  1  0
 10  8  1  0
 18 13  1  0
  1 22  1  0
  1 23  1  0
  3 24  1  0
  4 25  1  0
  7 26  1  0
  8 27  1  0
  9 28  1  0
  9 29  1  0
 10 30  1  0
 10 31  1  0
 14 32  1  0
 15 33  1  0
 16 34  1  0
 17 35  1  0
 18 36  1  0
 19 37  1  0
 21 38  1  0
M  CHG  1  19   1
M  END
>  <meeko>  (5) 
{"is_sidechain": [false], "free_energy": -7.265, "intermolecular_energy": -8.695, "internal_energy": -0.628}

$$$$
4dli_ligand
     RDKit          3D

 38 41  0  0  0  0  0  0  0  0999 V2000
    7.5590    9.0990   -8.5990 N   0  0  0  0  0  0  0  0  0  0  0  0
    6.3780    8.6840   -7.9910 C   0  0  0  0  0  0  0  0  0  0  0  0
    5.5110    7.8180   -8.6570 C   0  0  0  0  0  0  0  0  0  0  0  0
    4.2620    7.4920   -8.1190 C   0  0  0  0  0  0  0  0  0  0  0  0
    3.8200    8.0630   -6.9050 C   0  0  0  0  0  0  0  0  0  0  0  0
    2.5800    7.7930   -6.2750 C   0  0  0  0  0  0  0  0  0  0  0  0
    1.6970    6.8660   -6.8780 N   0  0  0  0  0  0  0  0  0  0  0  0
    0.5490    7.2050   -7.7320 C   0  0  0  0  0  0  0  0  0  0  0  0
    0.4860    8.4200   -8.6090 C   0  0  0  0  0  0  0  0  0  0  0  0
    0.4830    7.0430   -9.2220 C   0  0  0  0  0  0  0  0  0  0  0  0
    2.2200    8.4320   -5.1490 N   0  0  0  0  0  0  0  0  0  0  0  0
    3.0710    9.3380   -4.6410 C   0  0  0  0  0  0  0  0  0  0  0  0
    2.7200   10.0510   -3.4140 C   0  0  0  0  0  0  0  0  0  0  0  0
    2.9540    9.4990   -2.1390 C   0  0  0  0  0  0  0  0  0  0  0  0
    2.5910   10.1910   -0.9780 C   0  0  0  0  0  0  0  0  0  0  0  0
    1.9970   11.4460   -1.0710 C   0  0  0  0  0  0  0  0  0  0  0  0
    1.7750   12.0190   -2.3190 C   0  0  0  0  0  0  0  0  0  0  0  0
    2.1380   11.3290   -3.4780 C   0  0  0  0  0  0  0  0  0  0  0  0
    4.2660    9.6110   -5.1630 N   0  0  0  0  0  0  0  0  0  0  0  0
    4.6730    8.9990   -6.2820 C   0  0  0  0  0  0  0  0  0  0  0  0
    5.9310    9.3060   -6.8250 C   0  0  0  0  0  0  0  0  0  0  0  0
    7.9110   10.0190   -8.3500 H   0  0  0  0  0  0  0  0  0  0  0  0
    8.3080    8.4080   -8.6170 H   0  0  0  0  0  0  0  0  0  0  0  0
    5.8146    7.3843   -9.6212 H   0  0  0  0  0  0  0  0  0  0  0  0
    3.6134    6.7795   -8.6497 H   0  0  0  0  0  0  0  0  0  0  0  0
    1.4940    6.1070   -6.2280 H   0  0  0  0  0  0  0  0  0  0  0  0
   -0.0372    6.8071   -6.8906 H   0  0  0  0  0  0  0  0  0  0  0  0
   -0.4257    9.0350   -8.6327 H   0  0  0  0  0  0  0  0  0  0  0  0
    1.0991    9.3252   -8.7306 H   0  0  0  0  0  0  0  0  0  0  0  0
   -0.4309    6.6522   -9.6933 H   0  0  0  0  0  0  0  0  0  0  0  0
    1.0929    6.5252   -9.9769 H   0  0  0  0  0  0  0  0  0  0  0  0
    3.4287    8.5103   -2.0549 H   0  0  0  0  0  0  0  0  0  0  0  0
    2.7754    9.7423    0.0093 H   0  0  0  0  0  0  0  0  0  0  0  0
    1.7031   11.9847   -0.1581 H   0  0  0  0  0  0  0  0  0  0  0  0
    1.3138   13.0149   -2.3931 H   0  0  0  0  0  0  0  0  0  0  0  0
    1.9651   11.7946   -4.4595 H   0  0  0  0  0  0  0  0  0  0  0  0
    4.8700   10.2730   -4.6870 H   0  0  0  0  0  0  0  0  0  0  0  0
    6.5723   10.0465   -6.3246 H   0  0  0  0  0  0  0  0  0  0  0  0
  1  2  1  0
  2  3  2  0
  3  4  1  0
  4  5  2  0
  5  6  1  0
  6  7  1  0
  7  8  1  0
  8  9  1  0
  9 10  1  0
  6 11  2  0
 11 12  1  0
 12 13  1  0
 13 14  2  0
 14 15  1  0
 15 16  2  0
 16 17  1  0
 17 18  2  0
 12 19  2  0
 19 20  1  0
 20 21  2  0
 21  2  1  0
 20  5  1  0
 10  8  1  0
 18 13  1  0
  1 22  1  0
  1 23  1  0
  3 24  1  0
  4 25  1  0
  7 26  1  0
  8 27  1  0
  9 28  1  0
  9 29  1  0
 10 30  1  0
 10 31  1  0
 14 32  1  0
 15 33  1  0
 16 34  1  0
 17 35  1  0
 18 36  1  0
 19 37  1  0
 21 38  1  0
M  CHG  1  19   1
M  END
>  <meeko>  (6) 
{"is_sidechain": [false], "free_energy": -7.256, "intermolecular_energy": -8.631, "internal_energy": -0.681}

$$$$
4dli_ligand
     RDKit          3D

 38 41  0  0  0  0  0  0  0  0999 V2000
    2.5880   13.1170   -1.4190 N   0  0  0  0  0  0  0  0  0  0  0  0
    2.3080   12.3160   -2.5220 C   0  0  0  0  0  0  0  0  0  0  0  0
    1.0560   11.7180   -2.6580 C   0  0  0  0  0  0  0  0  0  0  0  0
    0.7970   10.8100   -3.6890 C   0  0  0  0  0  0  0  0  0  0  0  0
    1.8090   10.4340   -4.5990 C   0  0  0  0  0  0  0  0  0  0  0  0
    1.6470    9.5300   -5.6790 C   0  0  0  0  0  0  0  0  0  0  0  0
    0.3740    8.9520   -5.8990 N   0  0  0  0  0  0  0  0  0  0  0  0
   -0.6220    9.4140   -6.8770 C   0  0  0  0  0  0  0  0  0  0  0  0
   -1.2430   10.7790   -6.8600 C   0  0  0  0  0  0  0  0  0  0  0  0
   -0.3660   10.3610   -8.0120 C   0  0  0  0  0  0  0  0  0  0  0  0
    2.6860    9.1870   -6.4590 N   0  0  0  0  0  0  0  0  0  0  0  0
    3.8850    9.7240   -6.1810 C   0  0  0  0  0  0  0  0  0  0  0  0
    5.0400    9.3820   -7.0080 C   0  0  0  0  0  0  0  0  0  0  0  0
    5.8410    8.2540   -6.7410 C   0  0  0  0  0  0  0  0  0  0  0  0
    6.9540    7.9580   -7.5340 C   0  0  0  0  0  0  0  0  0  0  0  0
    7.2820    8.7770   -8.6110 C   0  0  0  0  0  0  0  0  0  0  0  0
    6.4920    9.8840   -8.9070 C   0  0  0  0  0  0  0  0  0  0  0  0
    5.3800   10.1800   -8.1150 C   0  0  0  0  0  0  0  0  0  0  0  0
    4.0960   10.6080   -5.2060 N   0  0  0  0  0  0  0  0  0  0  0  0
    3.0930   10.9850   -4.4030 C   0  0  0  0  0  0  0  0  0  0  0  0
    3.3350   11.9080   -3.3730 C   0  0  0  0  0  0  0  0  0  0  0  0
    2.6380   14.1190   -1.5740 H   0  0  0  0  0  0  0  0  0  0  0  0
    2.0610   12.8980   -0.5750 H   0  0  0  0  0  0  0  0  0  0  0  0
    0.2583   11.9648   -1.9419 H   0  0  0  0  0  0  0  0  0  0  0  0
   -0.2109   10.3818   -3.7929 H   0  0  0  0  0  0  0  0  0  0  0  0
   -0.0430    8.6850   -5.0080 H   0  0  0  0  0  0  0  0  0  0  0  0
   -0.9880    8.3789   -6.8094 H   0  0  0  0  0  0  0  0  0  0  0  0
   -2.3273   10.8922   -7.0066 H   0  0  0  0  0  0  0  0  0  0  0  0
   -1.2510   11.6220   -6.1534 H   0  0  0  0  0  0  0  0  0  0  0  0
   -0.8096   10.1688   -9.0001 H   0  0  0  0  0  0  0  0  0  0  0  0
    0.5323   10.7718   -8.4960 H   0  0  0  0  0  0  0  0  0  0  0  0
    5.5871    7.5966   -5.8964 H   0  0  0  0  0  0  0  0  0  0  0  0
    7.5715    7.0765   -7.3065 H   0  0  0  0  0  0  0  0  0  0  0  0
    8.1644    8.5495   -9.2272 H   0  0  0  0  0  0  0  0  0  0  0  0
    6.7432   10.5257   -9.7644 H   0  0  0  0  0  0  0  0  0  0  0  0
    4.7587   11.0535   -8.3618 H   0  0  0  0  0  0  0  0  0  0  0  0
    5.0230   11.0050   -5.0950 H   0  0  0  0  0  0  0  0  0  0  0  0
    4.3478   12.3147   -3.2354 H   0  0  0  0  0  0  0  0  0  0  0  0
  1  2  1  0
  2  3  2  0
  3  4  1  0
  4  5  2  0
  5  6  1  0
  6  7  1  0
  7  8  1  0
  8  9  1  0
  9 10  1  0
  6 11  2  0
 11 12  1  0
 12 13  1  0
 13 14  2  0
 14 15  1  0
 15 16  2  0
 16 17  1  0
 17 18  2  0
 12 19  2  0
 19 20  1  0
 20 21  2  0
 21  2  1  0
 20  5  1  0
 10  8  1  0
 18 13  1  0
  1 22  1  0
  1 23  1  0
  3 24  1  0
  4 25  1  0
  7 26  1  0
  8 27  1  0
  9 28  1  0
  9 29  1  0
 10 30  1  0
 10 31  1  0
 14 32  1  0
 15 33  1  0
 16 34  1  0
 17 35  1  0
 18 36  1  0
 19 37  1  0
 21 38  1  0
M  CHG  1  19   1
M  END
>  <meeko>  (7) 
{"is_sidechain": [false], "free_energy": -7.039, "intermolecular_energy": -8.38, "internal_energy": -0.671}

$$$$
4dli_ligand
     RDKit          3D

 38 41  0  0  0  0  0  0  0  0999 V2000
   -0.7400   11.9400   -9.7190 N   0  0  0  0  0  0  0  0  0  0  0  0
    0.1450   11.1090   -9.0390 C   0  0  0  0  0  0  0  0  0  0  0  0
    0.6930    9.9950   -9.6740 C   0  0  0  0  0  0  0  0  0  0  0  0
    1.4810    9.0780   -8.9720 C   0  0  0  0  0  0  0  0  0  0  0  0
    1.7100    9.2260   -7.5860 C   0  0  0  0  0  0  0  0  0  0  0  0
    2.4960    8.3590   -6.7870 C   0  0  0  0  0  0  0  0  0  0  0  0
    3.1300    7.2530   -7.4030 N   0  0  0  0  0  0  0  0  0  0  0  0
    4.5510    7.1740   -7.7710 C   0  0  0  0  0  0  0  0  0  0  0  0
    5.1390    7.8270   -8.9870 C   0  0  0  0  0  0  0  0  0  0  0  0
    5.5640    8.2690   -7.6100 C   0  0  0  0  0  0  0  0  0  0  0  0
    2.6090    8.5480   -5.4610 N   0  0  0  0  0  0  0  0  0  0  0  0
    1.9490    9.5820   -4.9160 C   0  0  0  0  0  0  0  0  0  0  0  0
    2.0500    9.8270   -3.4780 C   0  0  0  0  0  0  0  0  0  0  0  0
    1.4510   10.9470   -2.8690 C   0  0  0  0  0  0  0  0  0  0  0  0
    1.5780   11.1710   -1.4940 C   0  0  0  0  0  0  0  0  0  0  0  0
    2.2980   10.2790   -0.7050 C   0  0  0  0  0  0  0  0  0  0  0  0
    2.8810    9.1550   -1.2820 C   0  0  0  0  0  0  0  0  0  0  0  0
    2.7540    8.9300   -2.6540 C   0  0  0  0  0  0  0  0  0  0  0  0
    1.2250   10.4550   -5.6150 N   0  0  0  0  0  0  0  0  0  0  0  0
    1.0850   10.3130   -6.9390 C   0  0  0  0  0  0  0  0  0  0  0  0
    0.3080   11.2350   -7.6600 C   0  0  0  0  0  0  0  0  0  0  0  0
   -1.5890   12.2120   -9.2330 H   0  0  0  0  0  0  0  0  0  0  0  0
   -0.3150   12.7340  -10.1960 H   0  0  0  0  0  0  0  0  0  0  0  0
    0.5020    9.8350  -10.7454 H   0  0  0  0  0  0  0  0  0  0  0  0
    1.9296    8.2281   -9.5073 H   0  0  0  0  0  0  0  0  0  0  0  0
    2.5160    6.8520   -8.1110 H   0  0  0  0  0  0  0  0  0  0  0  0
    4.4663    6.1459   -7.3890 H   0  0  0  0  0  0  0  0  0  0  0  0
    5.8392    7.2698   -9.6268 H   0  0  0  0  0  0  0  0  0  0  0  0
    4.7298    8.3311   -9.8749 H   0  0  0  0  0  0  0  0  0  0  0  0
    6.5745    8.0346   -7.2441 H   0  0  0  0  0  0  0  0  0  0  0  0
    5.5939    9.2297   -7.0751 H   0  0  0  0  0  0  0  0  0  0  0  0
    0.8754   11.6553   -3.4831 H   0  0  0  0  0  0  0  0  0  0  0  0
    1.1080   12.0536   -1.0357 H   0  0  0  0  0  0  0  0  0  0  0  0
    2.4062   10.4624    0.3742 H   0  0  0  0  0  0  0  0  0  0  0  0
    3.4417    8.4440   -0.6574 H   0  0  0  0  0  0  0  0  0  0  0  0
    3.2129    8.0348   -3.0990 H   0  0  0  0  0  0  0  0  0  0  0  0
    0.8000   11.2400   -5.1320 H   0  0  0  0  0  0  0  0  0  0  0  0
   -0.1781   12.0672   -7.1297 H   0  0  0  0  0  0  0  0  0  0  0  0
  1  2  1  0
  2  3  2  0
  3  4  1  0
  4  5  2  0
  5  6  1  0
  6  7  1  0
  7  8  1  0
  8  9  1  0
  9 10  1  0
  6 11  2  0
 11 12  1  0
 12 13  1  0
 13 14  2  0
 14 15  1  0
 15 16  2  0
 16 17  1  0
 17 18  2  0
 12 19  2  0
 19 20  1  0
 20 21  2  0
 21  2  1  0
 20  5  1  0
 10  8  1  0
 18 13  1  0
  1 22  1  0
  1 23  1  0
  3 24  1  0
  4 25  1  0
  7 26  1  0
  8 27  1  0
  9 28  1  0
  9 29  1  0
 10 30  1  0
 10 31  1  0
 14 32  1  0
 15 33  1  0
 16 34  1  0
 17 35  1  0
 18 36  1  0
 19 37  1  0
 21 38  1  0
M  CHG  1  19   1
M  END
>  <meeko>  (8) 
{"is_sidechain": [false], "free_energy": -6.994, "intermolecular_energy": -8.27, "internal_energy": -0.726}

$$$$
4dli_ligand
     RDKit          3D

 38 41  0  0  0  0  0  0  0  0999 V2000
    0.2910    6.1060   -8.9540 N   0  0  0  0  0  0  0  0  0  0  0  0
    1.1900    6.9990   -8.3790 C   0  0  0  0  0  0  0  0  0  0  0  0
    2.3580    7.3530   -9.0540 C   0  0  0  0  0  0  0  0  0  0  0  0
    3.3340    8.1470   -8.4420 C   0  0  0  0  0  0  0  0  0  0  0  0
    3.1880    8.5780   -7.1050 C   0  0  0  0  0  0  0  0  0  0  0  0
    4.1120    9.3880   -6.3990 C   0  0  0  0  0  0  0  0  0  0  0  0
    5.2790    9.8300   -7.0660 N   0  0  0  0  0  0  0  0  0  0  0  0
    6.5650    9.1180   -7.1110 C   0  0  0  0  0  0  0  0  0  0  0  0
    6.6940    7.6270   -7.2090 C   0  0  0  0  0  0  0  0  0  0  0  0
    7.1880    8.5050   -8.3300 C   0  0  0  0  0  0  0  0  0  0  0  0
    3.9170    9.6990   -5.1070 N   0  0  0  0  0  0  0  0  0  0  0  0
    2.8190    9.2150   -4.5030 C   0  0  0  0  0  0  0  0  0  0  0  0
    2.5650    9.5350   -3.1000 C   0  0  0  0  0  0  0  0  0  0  0  0
    2.7980    8.6040   -2.0680 C   0  0  0  0  0  0  0  0  0  0  0  0
    2.5280    8.9250   -0.7340 C   0  0  0  0  0  0  0  0  0  0  0  0
    2.0300   10.1830   -0.4060 C   0  0  0  0  0  0  0  0  0  0  0  0
    1.8120   11.1260   -1.4060 C   0  0  0  0  0  0  0  0  0  0  0  0
    2.0820   10.8060   -2.7380 C   0  0  0  0  0  0  0  0  0  0  0  0
    1.8930    8.4810   -5.1190 N   0  0  0  0  0  0  0  0  0  0  0  0
    2.0400    8.1470   -6.4070 C   0  0  0  0  0  0  0  0  0  0  0  0
    1.0610    7.3630   -7.0390 C   0  0  0  0  0  0  0  0  0  0  0  0
   -0.6950    6.3460   -8.9080 H   0  0  0  0  0  0  0  0  0  0  0  0
    0.5470    5.7610   -9.8770 H   0  0  0  0  0  0  0  0  0  0  0  0
    2.5145    7.0021  -10.0847 H   0  0  0  0  0  0  0  0  0  0  0  0
    4.2287    8.4400   -9.0109 H   0  0  0  0  0  0  0  0  0  0  0  0
    5.3900   10.8350   -6.9410 H   0  0  0  0  0  0  0  0  0  0  0  0
    6.8796    9.8928   -6.3963 H   0  0  0  0  0  0  0  0  0  0  0  0
    7.4130    7.0935   -6.5699 H   0  0  0  0  0  0  0  0  0  0  0  0
    5.9981    6.7785   -7.1333 H   0  0  0  0  0  0  0  0  0  0  0  0
    8.2678    8.6129   -8.5097 H   0  0  0  0  0  0  0  0  0  0  0  0
    7.0026    8.5639   -9.4127 H   0  0  0  0  0  0  0  0  0  0  0  0
    3.1983    7.6098   -2.3156 H   0  0  0  0  0  0  0  0  0  0  0  0
    2.7093    8.1826    0.0572 H   0  0  0  0  0  0  0  0  0  0  0  0
    1.8090   10.4314    0.6426 H   0  0  0  0  0  0  0  0  0  0  0  0
    1.4270   12.1234   -1.1471 H   0  0  0  0  0  0  0  0  0  0  0  0
    1.9139   11.5619   -3.5192 H   0  0  0  0  0  0  0  0  0  0  0  0
    1.0670    8.1980   -4.6030 H   0  0  0  0  0  0  0  0  0  0  0  0
    0.1804    7.0315   -6.4692 H   0  0  0  0  0  0  0  0  0  0  0  0
  1  2  1  0
  2  3  2  0
  3  4  1  0
  4  5  2  0
  5  6  1  0
  6  7  1  0
  7  8  1  0
  8  9  1  0
  9 10  1  0
  6 11  2  0
 11 12  1  0
 12 13  1  0
 13 14  2  0
 14 15  1  0
 15 16  2  0
 16 17  1  0
 17 18  2  0
 12 19  2  0
 19 20  1  0
 20 21  2  0
 21  2  1  0
 20  5  1  0
 10  8  1  0
 18 13  1  0
  1 22  1  0
  1 23  1  0
  3 24  1  0
  4 25  1  0
  7 26  1  0
  8 27  1  0
  9 28  1  0
  9 29  1  0
 10 30  1  0
 10 31  1  0
 14 32  1  0
 15 33  1  0
 16 34  1  0
 17 35  1  0
 18 36  1  0
 19 37  1  0
 21 38  1  0
M  CHG  1  19   1
M  END
>  <meeko>  (9) 
{"is_sidechain": [false], "free_energy": -6.991, "intermolecular_energy": -8.383, "internal_energy": -0.61}

$$$$
