
     RDKit          3D

 47 50  0  0  0  0  0  0  0  0999 V2000
   -8.5280   -3.2140   15.6540 C   0  0  0  0  0  0  0  0  0  0  0  0
   -8.2670   -4.0610   14.5500 O   0  0  0  0  0  0  0  0  0  0  0  0
   -7.2440   -4.9710   14.6720 C   0  0  0  0  0  0  0  0  0  0  0  0
   -6.4510   -5.0600   15.8010 C   0  0  0  0  0  0  0  0  0  0  0  0
   -5.4160   -6.0000   15.8530 C   0  0  0  0  0  0  0  0  0  0  0  0
   -5.2080   -6.8540   14.7760 C   0  0  0  0  0  0  0  0  0  0  0  0
   -3.9800   -8.0580   14.8030 S   0  0  2  0  0  0  0  0  0  0  0  0
   -4.4180   -9.1760   14.0110 O   0  0  0  0  0  0  0  0  0  0  0  0
   -3.6080   -8.2960   16.1790 O   0  0  0  0  0  0  0  0  0  0  0  0
   -2.6840   -7.4440   14.0090 N   0  0  0  0  0  0  0  0  0  0  0  0
   -2.1530   -6.1070   14.3470 C   0  0  1  0  0  0  0  0  0  0  0  0
   -0.6430   -6.1440   14.4900 C   0  0  0  0  0  0  0  0  0  0  0  0
   -0.1660   -7.0330   15.6190 C   0  0  0  0  0  0  0  0  0  0  0  0
   -0.4390   -6.7840   16.7400 O   0  0  0  0  0  0  0  0  0  0  0  0
    0.5610   -8.1380   15.2410 N   0  0  0  0  0  0  0  0  0  0  0  0
    1.0880   -9.0840   16.2450 C   0  0  0  0  0  0  0  0  0  0  0  0
    0.2850  -10.3630   16.2700 C   0  0  0  0  0  0  0  0  0  0  0  0
   -1.0810  -10.3530   16.5150 C   0  0  0  0  0  0  0  0  0  0  0  0
   -1.8330  -11.5390   16.5390 C   0  0  0  0  0  0  0  0  0  0  0  0
   -1.2060  -12.7570   16.3200 C   0  0  0  0  0  0  0  0  0  0  0  0
   -1.9630  -13.9670   16.3320 C   0  0  0  0  0  0  0  0  0  0  0  0
   -2.5820  -14.9450   16.3360 N   0  0  0  0  0  0  0  0  0  0  0  0
    0.1660  -12.7940   16.0720 C   0  0  0  0  0  0  0  0  0  0  0  0
    0.9150  -11.5940   16.0540 C   0  0  0  0  0  0  0  0  0  0  0  0
   -2.4460   -5.1620   13.2250 C   0  0  0  0  0  0  0  0  0  0  0  0
   -2.2640   -5.5510   12.0860 O   0  0  0  0  0  0  0  0  0  0  0  0
   -2.7860   -3.8900   13.4750 N   0  0  0  0  0  0  0  0  0  0  0  0
   -3.1150   -3.2930   14.7870 C   0  0  0  0  0  0  0  0  0  0  0  0
   -3.8000   -2.0020   14.3990 C   0  0  0  0  0  0  0  0  0  0  0  0
   -3.1250   -1.5860   13.1070 C   0  0  0  0  0  0  0  0  0  0  0  0
   -2.7990   -2.9100   12.4130 C   0  0  1  0  0  0  0  0  0  0  0  0
   -1.3910   -2.8650   11.8270 C   0  0  0  0  0  0  0  0  0  0  0  0
   -0.4100   -2.9480   12.5300 O   0  0  0  0  0  0  0  0  0  0  0  0
   -1.3040   -2.7970   10.4750 N   0  0  0  0  0  0  0  0  0  0  0  0
   -0.0070   -2.8300    9.8230 C   0  0  0  0  0  0  0  0  0  0  0  0
    0.2200   -4.1570    9.1670 C   0  0  0  0  0  0  0  0  0  0  0  0
    0.6160   -5.2470    9.9130 C   0  0  0  0  0  0  0  0  0  0  0  0
    0.8120   -6.4770    9.2850 C   0  0  0  0  0  0  0  0  0  0  0  0
    0.6010   -6.6090    7.9210 C   0  0  0  0  0  0  0  0  0  0  0  0
    0.7960   -7.9060    7.2630 C   0  0  0  0  0  0  0  0  0  0  0  0
    1.4120   -8.8840    7.8500 N   0  0  0  0  0  0  0  0  0  0  0  0
    0.3490   -8.0670    6.0340 N   0  0  0  0  0  0  0  0  0  0  0  0
    0.1980   -5.5140    7.1770 C   0  0  0  0  0  0  0  0  0  0  0  0
    0.0060   -4.2790    7.7990 C   0  0  0  0  0  0  0  0  0  0  0  0
   -5.9960   -6.7640   13.6530 C   0  0  0  0  0  0  0  0  0  0  0  0
   -7.0060   -5.8210   13.6190 C   0  0  0  0  0  0  0  0  0  0  0  0
   -7.9990   -5.7310   12.1590 Cl  0  0  0  0  0  0  0  0  0  0  0  0
  2  1  1  0
  3  2  1  0
  4  3  2  0
  5  4  1  0
  6  5  2  0
  7  6  1  0
  8  7  2  0
  9  7  2  0
  7 10  1  6
 11 10  1  0
 11 12  1  6
 13 12  1  0
 14 13  2  0
 15 13  1  0
 16 15  1  0
 17 16  1  0
 18 17  2  0
 19 18  1  0
 20 19  2  0
 21 20  1  0
 22 21  3  0
 23 20  1  0
 24 23  2  0
 24 17  1  0
 25 11  1  0
 26 25  2  0
 27 25  1  0
 28 27  1  0
 29 28  1  0
 30 29  1  0
 31 30  1  0
 31 27  1  0
 31 32  1  1
 33 32  2  0
 34 32  1  0
 35 34  1  0
 36 35  1  0
 37 36  2  0
 38 37  1  0
 39 38  2  0
 40 39  1  0
 41 40  2  0
 42 40  1  0
 43 39  1  0
 44 43  2  0
 44 36  1  0
 45  6  1  0
 46 45  2  0
 46  3  1  0
 47 46  1  0
M  CHG  1  41   1
M  END
$$$$
