
     RDKit          3D

 17 19  0  0  0  0  0  0  0  0999 V2000
    4.8620   -4.9680    1.7270 C   0  0  0  0  0  0  0  0  0  0  0  0
    3.6560   -4.5460    1.1650 C   0  0  0  0  0  0  0  0  0  0  0  0
    3.3420   -3.1920    1.0730 C   0  0  0  0  0  0  0  0  0  0  0  0
    4.2670   -2.2590    1.5580 C   0  0  0  0  0  0  0  0  0  0  0  0
    4.0130   -0.8860    1.5100 N   0  0  0  0  0  0  0  0  0  0  0  0
    2.7700   -0.4630    1.9670 N   0  0  0  0  0  0  0  0  0  0  0  0
    2.6380    0.0270    3.2720 C   0  0  0  0  0  0  0  0  0  0  0  0
    1.4210   -0.1150    3.8560 N   0  0  0  0  0  0  0  0  0  0  0  0
    1.2230    0.3340    5.0890 C   0  0  0  0  0  0  0  0  0  0  0  0
    2.1770    0.9560    5.8420 N   0  0  0  0  0  0  0  0  0  0  0  0
    3.3980    1.1260    5.2920 C   0  0  0  0  0  0  0  0  0  0  0  0
    4.5180    1.7000    5.7860 N   0  0  0  0  0  0  0  0  0  0  0  0
    5.4830    1.6200    4.8630 N   0  0  0  0  0  0  0  0  0  0  0  0
    5.0000    1.0010    3.7900 C   0  0  0  0  0  0  0  0  0  0  0  0
    3.6720    0.6760    4.0070 C   0  0  0  0  0  0  0  0  0  0  0  0
    5.4820   -2.6790    2.1190 C   0  0  0  0  0  0  0  0  0  0  0  0
    5.7700   -4.0320    2.1970 C   0  0  0  0  0  0  0  0  0  0  0  0
  2  1  2  0
  3  2  1  0
  4  3  2  0
  5  4  1  0
  6  5  1  0
  7  6  1  0
  8  7  2  0
  9  8  1  0
 10  9  2  0
 11 10  1  0
 12 11  2  0
 13 12  1  0
 14 13  1  0
 15 14  2  0
 15 11  1  0
 15  7  1  0
 16  4  1  0
 17  1  1  0
 17 16  2  0
M  END
$$$$
