1y6r_ligand
     RDKit          3D

 38 40  0  0  0  0  0  0  0  0999 V2000
   -9.2730   12.1360   -1.8830 C   0  0  0  0  0  0  0  0  0  0  0  0
   -9.7420   13.0430   -0.3840 S   0  0  0  0  0  0  0  0  0  0  0  0
   -8.1740   13.9390   -0.1020 C   0  0  0  0  0  0  0  0  0  0  0  0
   -7.5460   13.5120    1.2300 C   0  0  1  0  0  0  0  0  0  0  0  0
   -8.0500   14.3360    2.3880 N   0  0  0  0  0  0  0  0  0  0  0  0
   -8.2270   13.4320    3.5850 C   0  0  1  0  0  0  0  0  0  0  0  0
   -9.6430   13.3260    4.0520 C   0  0  0  0  0  0  0  0  0  0  0  0
  -10.5250   14.3630    4.3070 C   0  0  0  0  0  0  0  0  0  0  0  0
  -11.7310   13.8260    4.7020 N   0  0  0  0  0  0  0  0  0  0  0  0
  -11.6440   12.4580    4.7170 C   0  0  0  0  0  0  0  0  0  0  0  0
  -12.5560   11.4610    5.0160 C   0  0  0  0  0  0  0  0  0  0  0  0
  -13.8500   11.6970    5.4360 N   0  0  0  0  0  0  0  0  0  0  0  0
  -12.1470   10.1910    4.8760 N   0  0  0  0  0  0  0  0  0  0  0  0
  -10.8900    9.9540    4.4630 C   0  0  0  0  0  0  0  0  0  0  0  0
   -9.9320   10.8550    4.1610 N   0  0  0  0  0  0  0  0  0  0  0  0
  -10.3660   12.1280    4.3040 C   0  0  0  0  0  0  0  0  0  0  0  0
   -7.6340   12.0770    3.1290 C   0  0  2  0  0  0  0  0  0  0  0  0
   -6.2100   12.0460    3.3320 O   0  0  0  0  0  0  0  0  0  0  0  0
   -7.8910   12.0730    1.6230 C   0  0  2  0  0  0  0  0  0  0  0  0
   -7.0680   11.1260    0.9560 O   0  0  0  0  0  0  0  0  0  0  0  0
   -8.7845   11.1913   -1.6022 H   0  0  0  0  0  0  0  0  0  0  0  0
  -10.1728   11.9208   -2.4780 H   0  0  0  0  0  0  0  0  0  0  0  0
   -8.5772   12.7459   -2.4780 H   0  0  0  0  0  0  0  0  0  0  0  0
   -7.4752   13.7132   -0.9210 H   0  0  0  0  0  0  0  0  0  0  0  0
   -8.3813   15.0188   -0.0687 H   0  0  0  0  0  0  0  0  0  0  0  0
   -6.4673   13.6399    1.0565 H   0  0  0  0  0  0  0  0  0  0  0  0
   -7.4110   15.1180    2.5740 H   0  0  0  0  0  0  0  0  0  0  0  0
   -8.9570   14.7690    2.1290 H   0  0  0  0  0  0  0  0  0  0  0  0
   -7.7147   13.8307    4.4730 H   0  0  0  0  0  0  0  0  0  0  0  0
  -10.3004   15.4355    4.2104 H   0  0  0  0  0  0  0  0  0  0  0  0
  -12.5710   14.3500    4.9210 H   0  0  0  0  0  0  0  0  0  0  0  0
  -14.5160   11.3080    4.7750 H   0  0  0  0  0  0  0  0  0  0  0  0
  -14.0560   11.4980    6.4040 H   0  0  0  0  0  0  0  0  0  0  0  0
  -10.6077    8.8960    4.3584 H   0  0  0  0  0  0  0  0  0  0  0  0
   -8.0707   11.2290    3.6769 H   0  0  0  0  0  0  0  0  0  0  0  0
   -6.0350   11.6750    4.2200 H   0  0  0  0  0  0  0  0  0  0  0  0
   -8.9160   11.7822    1.3494 H   0  0  0  0  0  0  0  0  0  0  0  0
   -6.4960   11.6150    0.3290 H   0  0  0  0  0  0  0  0  0  0  0  0
  1  2  1  0
  2  3  1  0
  3  4  1  0
  4  5  1  0
  5  6  1  0
  6  7  1  0
  7  8  2  0
  8  9  1  0
  9 10  1  0
 10 11  2  0
 11 12  1  0
 11 13  1  0
 13 14  2  0
 14 15  1  0
 15 16  2  0
  6 17  1  0
 17 18  1  0
 17 19  1  0
 19 20  1  0
 19  4  1  0
 16  7  1  0
 16 10  1  0
  1 21  1  0
  1 22  1  0
  1 23  1  0
  3 24  1  0
  3 25  1  0
  4 26  1  6
  5 27  1  0
  5 28  1  0
  6 29  1  1
  8 30  1  0
  9 31  1  0
 12 32  1  0
 12 33  1  0
 14 34  1  0
 17 35  1  1
 18 36  1  0
 19 37  1  1
 20 38  1  0
M  CHG  1   5   1
M  END
>  <meeko>  (1) 
{"is_sidechain": [false], "free_energy": -7.725, "intermolecular_energy": -9.757, "internal_energy": 0.164}

$$$$
1y6r_ligand
     RDKit          3D

 38 40  0  0  0  0  0  0  0  0999 V2000
   -9.9040   11.7550   -2.4450 C   0  0  0  0  0  0  0  0  0  0  0  0
   -9.4160   13.2760   -1.5860 S   0  0  0  0  0  0  0  0  0  0  0  0
   -7.7720   12.7410   -0.9910 C   0  0  0  0  0  0  0  0  0  0  0  0
   -7.4370   13.4250    0.3400 C   0  0  1  0  0  0  0  0  0  0  0  0
   -8.6730   13.7570    1.1380 N   0  0  0  0  0  0  0  0  0  0  0  0
   -8.3880   13.5070    2.6000 C   0  0  1  0  0  0  0  0  0  0  0  0
   -9.2340   12.4310    3.2000 C   0  0  0  0  0  0  0  0  0  0  0  0
   -9.0020   11.0650    3.1720 C   0  0  0  0  0  0  0  0  0  0  0  0
  -10.0180   10.4340    3.8560 N   0  0  0  0  0  0  0  0  0  0  0  0
  -10.9110   11.3670    4.3190 C   0  0  0  0  0  0  0  0  0  0  0  0
  -12.0730   11.2670    5.0640 C   0  0  0  0  0  0  0  0  0  0  0  0
  -12.6200   10.0720    5.4880 N   0  0  0  0  0  0  0  0  0  0  0  0
  -12.6920   12.4100    5.3950 N   0  0  0  0  0  0  0  0  0  0  0  0
  -12.1620   13.5770    4.9900 C   0  0  0  0  0  0  0  0  0  0  0  0
  -11.0470   13.7720    4.2550 N   0  0  0  0  0  0  0  0  0  0  0  0
  -10.4360   12.6080    3.9360 C   0  0  0  0  0  0  0  0  0  0  0  0
   -6.8750   13.1860    2.6420 C   0  0  2  0  0  0  0  0  0  0  0  0
   -6.0950   14.3930    2.7100 O   0  0  0  0  0  0  0  0  0  0  0  0
   -6.6160   12.5400    1.2820 C   0  0  2  0  0  0  0  0  0  0  0  0
   -5.2350   12.5490    0.9540 O   0  0  0  0  0  0  0  0  0  0  0  0
  -10.1527   10.9798   -1.7053 H   0  0  0  0  0  0  0  0  0  0  0  0
  -10.7828   11.9557   -3.0754 H   0  0  0  0  0  0  0  0  0  0  0  0
   -9.0724   11.4070   -3.0754 H   0  0  0  0  0  0  0  0  0  0  0  0
   -7.7757   11.6504   -0.8473 H   0  0  0  0  0  0  0  0  0  0  0  0
   -7.0138   13.0212   -1.7371 H   0  0  0  0  0  0  0  0  0  0  0  0
   -6.8778   14.3208    0.0320 H   0  0  0  0  0  0  0  0  0  0  0  0
   -8.9680   14.7230    0.9520 H   0  0  0  0  0  0  0  0  0  0  0  0
   -9.4570   13.1570    0.8180 H   0  0  0  0  0  0  0  0  0  0  0  0
   -8.6437   14.3802    3.2182 H   0  0  0  0  0  0  0  0  0  0  0  0
   -8.1498   10.5680    2.6854 H   0  0  0  0  0  0  0  0  0  0  0  0
  -10.0900    9.4380    4.0260 H   0  0  0  0  0  0  0  0  0  0  0  0
  -13.6280   10.0760    5.3590 H   0  0  0  0  0  0  0  0  0  0  0  0
  -12.1630    9.2270    5.1760 H   0  0  0  0  0  0  0  0  0  0  0  0
  -12.7036   14.4845    5.2951 H   0  0  0  0  0  0  0  0  0  0  0  0
   -6.6096   12.5642    3.5097 H   0  0  0  0  0  0  0  0  0  0  0  0
   -6.6650   15.1070    3.0610 H   0  0  0  0  0  0  0  0  0  0  0  0
   -6.8978   11.4777    1.2357 H   0  0  0  0  0  0  0  0  0  0  0  0
   -5.1520   12.3490   -0.0020 H   0  0  0  0  0  0  0  0  0  0  0  0
  1  2  1  0
  2  3  1  0
  3  4  1  0
  4  5  1  0
  5  6  1  0
  6  7  1  0
  7  8  2  0
  8  9  1  0
  9 10  1  0
 10 11  2  0
 11 12  1  0
 11 13  1  0
 13 14  2  0
 14 15  1  0
 15 16  2  0
  6 17  1  0
 17 18  1  0
 17 19  1  0
 19 20  1  0
 19  4  1  0
 16  7  1  0
 16 10  1  0
  1 21  1  0
  1 22  1  0
  1 23  1  0
  3 24  1  0
  3 25  1  0
  4 26  1  6
  5 27  1  0
  5 28  1  0
  6 29  1  1
  8 30  1  0
  9 31  1  0
 12 32  1  0
 12 33  1  0
 14 34  1  0
 17 35  1  1
 18 36  1  0
 19 37  1  1
 20 38  1  0
M  CHG  1   5   1
M  END
>  <meeko>  (2) 
{"is_sidechain": [false], "free_energy": -6.463, "intermolecular_energy": -7.739, "internal_energy": -0.259}

$$$$
1y6r_ligand
     RDKit          3D

 38 40  0  0  0  0  0  0  0  0999 V2000
    0.1340    7.6490   -9.1970 C   0  0  0  0  0  0  0  0  0  0  0  0
   -0.6460    7.4820   -7.5690 S   0  0  0  0  0  0  0  0  0  0  0  0
   -1.2800    9.1880   -7.3910 C   0  0  0  0  0  0  0  0  0  0  0  0
   -0.3520   10.1800   -8.1000 C   0  0  1  0  0  0  0  0  0  0  0  0
   -1.0970   11.3770   -8.6350 N   0  0  0  0  0  0  0  0  0  0  0  0
   -0.2460   12.6080   -8.4350 C   0  0  1  0  0  0  0  0  0  0  0  0
   -0.8550   13.6140   -7.5130 C   0  0  0  0  0  0  0  0  0  0  0  0
   -0.3690   14.0330   -6.2850 C   0  0  0  0  0  0  0  0  0  0  0  0
   -1.2280   14.9820   -5.7750 N   0  0  0  0  0  0  0  0  0  0  0  0
   -2.2680   15.1790   -6.6470 C   0  0  0  0  0  0  0  0  0  0  0  0
   -3.3690   16.0180   -6.6220 C   0  0  0  0  0  0  0  0  0  0  0  0
   -3.6680   16.8720   -5.5790 N   0  0  0  0  0  0  0  0  0  0  0  0
   -4.1840   15.9950   -7.6880 N   0  0  0  0  0  0  0  0  0  0  0  0
   -3.8970   15.1680   -8.7080 C   0  0  0  0  0  0  0  0  0  0  0  0
   -2.8590   14.3120   -8.8160 N   0  0  0  0  0  0  0  0  0  0  0  0
   -2.0490   14.3540   -7.7340 C   0  0  0  0  0  0  0  0  0  0  0  0
    1.1060   12.0550   -7.9230 C   0  0  2  0  0  0  0  0  0  0  0  0
    1.9510   11.6650   -9.0210 O   0  0  0  0  0  0  0  0  0  0  0  0
    0.7030   10.7870   -7.1720 C   0  0  2  0  0  0  0  0  0  0  0  0
    1.8110    9.9180   -6.9830 O   0  0  0  0  0  0  0  0  0  0  0  0
    1.2024    7.8778   -9.0699 H   0  0  0  0  0  0  0  0  0  0  0  0
    0.0245    6.7070   -9.7544 H   0  0  0  0  0  0  0  0  0  0  0  0
   -0.3516    8.4635   -9.7544 H   0  0  0  0  0  0  0  0  0  0  0  0
   -2.2841    9.2497   -7.8359 H   0  0  0  0  0  0  0  0  0  0  0  0
   -1.3238    9.4424   -6.3217 H   0  0  0  0  0  0  0  0  0  0  0  0
    0.1056    9.5746   -8.8963 H   0  0  0  0  0  0  0  0  0  0  0  0
   -1.3520   11.2280   -9.6190 H   0  0  0  0  0  0  0  0  0  0  0  0
   -1.9950   11.4750   -8.1240 H   0  0  0  0  0  0  0  0  0  0  0  0
   -0.1342   13.1796   -9.3682 H   0  0  0  0  0  0  0  0  0  0  0  0
    0.5483   13.6692   -5.7990 H   0  0  0  0  0  0  0  0  0  0  0  0
   -1.1050   15.4880   -4.9050 H   0  0  0  0  0  0  0  0  0  0  0  0
   -4.2500   16.4040   -4.8910 H   0  0  0  0  0  0  0  0  0  0  0  0
   -2.8990   17.3980   -5.1890 H   0  0  0  0  0  0  0  0  0  0  0  0
   -4.5935   15.1917   -9.5591 H   0  0  0  0  0  0  0  0  0  0  0  0
    1.6543   12.7961   -7.3229 H   0  0  0  0  0  0  0  0  0  0  0  0
    2.2530   10.7490   -8.8640 H   0  0  0  0  0  0  0  0  0  0  0  0
    0.3293   10.9750   -6.1546 H   0  0  0  0  0  0  0  0  0  0  0  0
    1.5210    9.1850   -6.4000 H   0  0  0  0  0  0  0  0  0  0  0  0
  1  2  1  0
  2  3  1  0
  3  4  1  0
  4  5  1  0
  5  6  1  0
  6  7  1  0
  7  8  2  0
  8  9  1  0
  9 10  1  0
 10 11  2  0
 11 12  1  0
 11 13  1  0
 13 14  2  0
 14 15  1  0
 15 16  2  0
  6 17  1  0
 17 18  1  0
 17 19  1  0
 19 20  1  0
 19  4  1  0
 16  7  1  0
 16 10  1  0
  1 21  1  0
  1 22  1  0
  1 23  1  0
  3 24  1  0
  3 25  1  0
  4 26  1  6
  5 27  1  0
  5 28  1  0
  6 29  1  6
  8 30  1  0
  9 31  1  0
 12 32  1  0
 12 33  1  0
 14 34  1  0
 17 35  1  1
 18 36  1  0
 19 37  1  1
 20 38  1  0
M  CHG  1   5   1
M  END
>  <meeko>  (3) 
{"is_sidechain": [false], "free_energy": -6.291, "intermolecular_energy": -7.266, "internal_energy": -0.516}

$$$$
1y6r_ligand
     RDKit          3D

 38 40  0  0  0  0  0  0  0  0999 V2000
   -5.0810   15.2210   -6.0370 C   0  0  0  0  0  0  0  0  0  0  0  0
   -5.6840   14.2790   -7.4640 S   0  0  0  0  0  0  0  0  0  0  0  0
   -4.1910   13.2710   -7.7780 C   0  0  0  0  0  0  0  0  0  0  0  0
   -2.9730   13.8890   -7.0830 C   0  0  1  0  0  0  0  0  0  0  0  0
   -2.0940   12.8470   -6.4380 N   0  0  0  0  0  0  0  0  0  0  0  0
   -0.6490   13.2430   -6.6330 C   0  0  1  0  0  0  0  0  0  0  0  0
    0.1320   12.2730   -7.4570 C   0  0  0  0  0  0  0  0  0  0  0  0
    1.3610   12.4810   -8.0630 C   0  0  0  0  0  0  0  0  0  0  0  0
    1.7310   11.3240   -8.7130 N   0  0  0  0  0  0  0  0  0  0  0  0
    0.7590   10.3710   -8.5470 C   0  0  0  0  0  0  0  0  0  0  0  0
    0.6470    9.0580   -8.9710 C   0  0  0  0  0  0  0  0  0  0  0  0
    1.5840    8.4170   -9.7570 N   0  0  0  0  0  0  0  0  0  0  0  0
   -0.4390    8.3750   -8.5800 N   0  0  0  0  0  0  0  0  0  0  0  0
   -1.3530    8.9920   -7.8110 C   0  0  0  0  0  0  0  0  0  0  0  0
   -1.3360   10.2640   -7.3610 N   0  0  0  0  0  0  0  0  0  0  0  0
   -0.2310   10.9320   -7.7620 C   0  0  0  0  0  0  0  0  0  0  0  0
   -0.7240   14.6550   -7.2630 C   0  0  2  0  0  0  0  0  0  0  0  0
   -0.8510   15.6660   -6.2470 O   0  0  0  0  0  0  0  0  0  0  0  0
   -2.0340   14.6170   -8.0490 C   0  0  2  0  0  0  0  0  0  0  0  0
   -2.4950   15.9250   -8.3580 O   0  0  0  0  0  0  0  0  0  0  0  0
   -5.3991   14.7240   -5.1087 H   0  0  0  0  0  0  0  0  0  0  0  0
   -3.9826   15.2710   -6.0683 H   0  0  0  0  0  0  0  0  0  0  0  0
   -5.4955   16.2395   -6.0683 H   0  0  0  0  0  0  0  0  0  0  0  0
   -4.3521   12.2542   -7.3905 H   0  0  0  0  0  0  0  0  0  0  0  0
   -4.0046   13.2376   -8.8616 H   0  0  0  0  0  0  0  0  0  0  0  0
   -3.4200   14.5783   -6.3515 H   0  0  0  0  0  0  0  0  0  0  0  0
   -2.3440   12.7340   -5.4480 H   0  0  0  0  0  0  0  0  0  0  0  0
   -2.2750   11.9270   -6.8810 H   0  0  0  0  0  0  0  0  0  0  0  0
   -0.0966   13.2425   -5.6817 H   0  0  0  0  0  0  0  0  0  0  0  0
    1.9434   13.4136   -8.0304 H   0  0  0  0  0  0  0  0  0  0  0  0
    2.6000   11.1760   -9.2130 H   0  0  0  0  0  0  0  0  0  0  0  0
    1.7670    8.9530  -10.6010 H   0  0  0  0  0  0  0  0  0  0  0  0
    2.4120    8.0760   -9.2910 H   0  0  0  0  0  0  0  0  0  0  0  0
   -2.2208    8.3858   -7.5121 H   0  0  0  0  0  0  0  0  0  0  0  0
    0.1701   14.8886   -7.8597 H   0  0  0  0  0  0  0  0  0  0  0  0
    0.0380   15.8470   -5.8820 H   0  0  0  0  0  0  0  0  0  0  0  0
   -1.9492   14.1213   -9.0273 H   0  0  0  0  0  0  0  0  0  0  0  0
   -3.2530   16.1230   -7.7690 H   0  0  0  0  0  0  0  0  0  0  0  0
  1  2  1  0
  2  3  1  0
  3  4  1  0
  4  5  1  0
  5  6  1  0
  6  7  1  0
  7  8  2  0
  8  9  1  0
  9 10  1  0
 10 11  2  0
 11 12  1  0
 11 13  1  0
 13 14  2  0
 14 15  1  0
 15 16  2  0
  6 17  1  0
 17 18  1  0
 17 19  1  0
 19 20  1  0
 19  4  1  0
 16  7  1  0
 16 10  1  0
  1 21  1  0
  1 22  1  0
  1 23  1  0
  3 24  1  0
  3 25  1  0
  4 26  1  1
  5 27  1  0
  5 28  1  0
  6 29  1  1
  8 30  1  0
  9 31  1  0
 12 32  1  0
 12 33  1  0
 14 34  1  0
 17 35  1  6
 18 36  1  0
 19 37  1  6
 20 38  1  0
M  CHG  1   5   1
M  END
>  <meeko>  (4) 
{"is_sidechain": [false], "free_energy": -5.991, "intermolecular_energy": -6.72, "internal_energy": -0.683}

$$$$
1y6r_ligand
     RDKit          3D

 38 40  0  0  0  0  0  0  0  0999 V2000
   -3.9020   13.2540   -7.0170 C   0  0  0  0  0  0  0  0  0  0  0  0
   -2.4940   12.1130   -7.0580 S   0  0  0  0  0  0  0  0  0  0  0  0
   -1.1980   13.2540   -6.4560 C   0  0  0  0  0  0  0  0  0  0  0  0
   -0.1060   13.4290   -7.5180 C   0  0  1  0  0  0  0  0  0  0  0  0
    0.8400   12.2550   -7.5640 N   0  0  0  0  0  0  0  0  0  0  0  0
    1.1960   11.9760   -9.0050 C   0  0  1  0  0  0  0  0  0  0  0  0
    0.7410   10.6350   -9.4850 C   0  0  0  0  0  0  0  0  0  0  0  0
    0.4630   10.2580  -10.7900 C   0  0  0  0  0  0  0  0  0  0  0  0
    0.0910    8.9320  -10.7920 N   0  0  0  0  0  0  0  0  0  0  0  0
    0.1130    8.4440   -9.5110 C   0  0  0  0  0  0  0  0  0  0  0  0
   -0.1530    7.1960   -8.9760 C   0  0  0  0  0  0  0  0  0  0  0  0
   -0.5720    6.1090   -9.7180 N   0  0  0  0  0  0  0  0  0  0  0  0
    0.0180    7.0430   -7.6540 N   0  0  0  0  0  0  0  0  0  0  0  0
    0.4300    8.0960   -6.9260 C   0  0  0  0  0  0  0  0  0  0  0  0
    0.7010    9.3460   -7.3550 N   0  0  0  0  0  0  0  0  0  0  0  0
    0.5260    9.4770   -8.6900 C   0  0  0  0  0  0  0  0  0  0  0  0
    0.5600   13.1490   -9.7880 C   0  0  2  0  0  0  0  0  0  0  0  0
    1.4370   14.2900   -9.8060 O   0  0  0  0  0  0  0  0  0  0  0  0
   -0.6600   13.5130   -8.9430 C   0  0  2  0  0  0  0  0  0  0  0  0
   -1.1410   14.8130   -9.2530 O   0  0  0  0  0  0  0  0  0  0  0  0
   -4.1686   13.4700   -5.9719 H   0  0  0  0  0  0  0  0  0  0  0  0
   -3.6304   14.1900   -7.5271 H   0  0  0  0  0  0  0  0  0  0  0  0
   -4.7614   12.7944   -7.5271 H   0  0  0  0  0  0  0  0  0  0  0  0
   -1.6500   14.2324   -6.2360 H   0  0  0  0  0  0  0  0  0  0  0  0
   -0.7466   12.8333   -5.5454 H   0  0  0  0  0  0  0  0  0  0  0  0
    0.3922   14.3629   -7.2186 H   0  0  0  0  0  0  0  0  0  0  0  0
    1.6650   12.4390   -6.9810 H   0  0  0  0  0  0  0  0  0  0  0  0
    0.3760   11.4280   -7.1430 H   0  0  0  0  0  0  0  0  0  0  0  0
    2.2851   11.9232   -9.1504 H   0  0  0  0  0  0  0  0  0  0  0  0
    0.5285   10.9084  -11.6747 H   0  0  0  0  0  0  0  0  0  0  0  0
   -0.1370    8.3810  -11.6120 H   0  0  0  0  0  0  0  0  0  0  0  0
   -1.1260    6.4130  -10.5130 H   0  0  0  0  0  0  0  0  0  0  0  0
    0.1250    5.4130   -9.9370 H   0  0  0  0  0  0  0  0  0  0  0  0
    0.5622    7.9161   -5.8489 H   0  0  0  0  0  0  0  0  0  0  0  0
    0.3388   12.8772  -10.8307 H   0  0  0  0  0  0  0  0  0  0  0  0
    2.2870   14.0290   -9.3990 H   0  0  0  0  0  0  0  0  0  0  0  0
   -1.5266   12.8567   -9.1111 H   0  0  0  0  0  0  0  0  0  0  0  0
   -1.1710   14.8970  -10.2290 H   0  0  0  0  0  0  0  0  0  0  0  0
  1  2  1  0
  2  3  1  0
  3  4  1  0
  4  5  1  0
  5  6  1  0
  6  7  1  0
  7  8  2  0
  8  9  1  0
  9 10  1  0
 10 11  2  0
 11 12  1  0
 11 13  1  0
 13 14  2  0
 14 15  1  0
 15 16  2  0
  6 17  1  0
 17 18  1  0
 17 19  1  0
 19 20  1  0
 19  4  1  0
 16  7  1  0
 16 10  1  0
  1 21  1  0
  1 22  1  0
  1 23  1  0
  3 24  1  0
  3 25  1  0
  4 26  1  1
  5 27  1  0
  5 28  1  0
  6 29  1  1
  8 30  1  0
  9 31  1  0
 12 32  1  0
 12 33  1  0
 14 34  1  0
 17 35  1  6
 18 36  1  0
 19 37  1  1
 20 38  1  0
M  CHG  1   5   1
M  END
>  <meeko>  (5) 
{"is_sidechain": [false], "free_energy": -5.878, "intermolecular_energy": -6.466, "internal_energy": -0.795}

$$$$
1y6r_ligand
     RDKit          3D

 38 40  0  0  0  0  0  0  0  0999 V2000
   -7.1530   15.8240   -5.6500 C   0  0  0  0  0  0  0  0  0  0  0  0
   -5.6780   15.1770   -6.4820 S   0  0  0  0  0  0  0  0  0  0  0  0
   -4.4690   16.4210   -5.9080 C   0  0  0  0  0  0  0  0  0  0  0  0
   -3.1200   16.2180   -6.6080 C   0  0  1  0  0  0  0  0  0  0  0  0
   -2.2540   15.2090   -5.8970 N   0  0  0  0  0  0  0  0  0  0  0  0
   -1.5290   14.3790   -6.9290 C   0  0  1  0  0  0  0  0  0  0  0  0
   -1.8950   12.9310   -6.8990 C   0  0  0  0  0  0  0  0  0  0  0  0
   -3.0100   12.3570   -6.3100 C   0  0  0  0  0  0  0  0  0  0  0  0
   -2.9700   10.9970   -6.5280 N   0  0  0  0  0  0  0  0  0  0  0  0
   -1.8430   10.6770   -7.2410 C   0  0  0  0  0  0  0  0  0  0  0  0
   -1.3460    9.4800   -7.7260 C   0  0  0  0  0  0  0  0  0  0  0  0
   -1.9470    8.2540   -7.5220 N   0  0  0  0  0  0  0  0  0  0  0  0
   -0.2140    9.5300   -8.4450 N   0  0  0  0  0  0  0  0  0  0  0  0
    0.3730   10.7210   -8.6510 C   0  0  0  0  0  0  0  0  0  0  0  0
   -0.0280   11.9320   -8.2100 N   0  0  0  0  0  0  0  0  0  0  0  0
   -1.1720   11.8600   -7.4930 C   0  0  0  0  0  0  0  0  0  0  0  0
   -1.8690   15.0640   -8.2750 C   0  0  2  0  0  0  0  0  0  0  0  0
   -0.9690   16.1560   -8.5380 O   0  0  0  0  0  0  0  0  0  0  0  0
   -3.2560   15.6550   -8.0250 C   0  0  2  0  0  0  0  0  0  0  0  0
   -3.5720   16.6640   -8.9730 O   0  0  0  0  0  0  0  0  0  0  0  0
   -7.0155   15.7637   -4.5603 H   0  0  0  0  0  0  0  0  0  0  0  0
   -7.3085   16.8730   -5.9424 H   0  0  0  0  0  0  0  0  0  0  0  0
   -8.0301   15.2280   -5.9424 H   0  0  0  0  0  0  0  0  0  0  0  0
   -4.8484   17.4278   -6.1371 H   0  0  0  0  0  0  0  0  0  0  0  0
   -4.3285   16.3079   -4.8229 H   0  0  0  0  0  0  0  0  0  0  0  0
   -2.6804   17.2264   -6.6107 H   0  0  0  0  0  0  0  0  0  0  0  0
   -1.6130   15.6830   -5.2490 H   0  0  0  0  0  0  0  0  0  0  0  0
   -2.8530   14.6020   -5.3060 H   0  0  0  0  0  0  0  0  0  0  0  0
   -0.4459   14.3527   -6.7389 H   0  0  0  0  0  0  0  0  0  0  0  0
   -3.7955   12.8965   -5.7605 H   0  0  0  0  0  0  0  0  0  0  0  0
   -3.6750   10.3290   -6.2390 H   0  0  0  0  0  0  0  0  0  0  0  0
   -2.9290    8.3720   -7.2920 H   0  0  0  0  0  0  0  0  0  0  0  0
   -1.7620    7.5380   -8.2100 H   0  0  0  0  0  0  0  0  0  0  0  0
    1.2935   10.7074   -9.2531 H   0  0  0  0  0  0  0  0  0  0  0  0
   -1.8066   14.3643   -9.1215 H   0  0  0  0  0  0  0  0  0  0  0  0
   -0.9910   16.3470   -9.4970 H   0  0  0  0  0  0  0  0  0  0  0  0
   -4.0728   14.9250   -8.1248 H   0  0  0  0  0  0  0  0  0  0  0  0
   -4.4110   17.0860   -8.6930 H   0  0  0  0  0  0  0  0  0  0  0  0
  1  2  1  0
  2  3  1  0
  3  4  1  0
  4  5  1  0
  5  6  1  0
  6  7  1  0
  7  8  2  0
  8  9  1  0
  9 10  1  0
 10 11  2  0
 11 12  1  0
 11 13  1  0
 13 14  2  0
 14 15  1  0
 15 16  2  0
  6 17  1  0
 17 18  1  0
 17 19  1  0
 19 20  1  0
 19  4  1  0
 16  7  1  0
 16 10  1  0
  1 21  1  0
  1 22  1  0
  1 23  1  0
  3 24  1  0
  3 25  1  0
  4 26  1  6
  5 27  1  0
  5 28  1  0
  6 29  1  1
  8 30  1  0
  9 31  1  0
 12 32  1  0
 12 33  1  0
 14 34  1  0
 17 35  1  6
 18 36  1  0
 19 37  1  1
 20 38  1  0
M  CHG  1   5   1
M  END
>  <meeko>  (6) 
{"is_sidechain": [false], "free_energy": -5.801, "intermolecular_energy": -6.642, "internal_energy": -0.521}

$$$$
1y6r_ligand
     RDKit          3D

 38 40  0  0  0  0  0  0  0  0999 V2000
   -2.7090   16.7710   -9.7770 C   0  0  0  0  0  0  0  0  0  0  0  0
   -2.6940   14.9580   -9.7680 S   0  0  0  0  0  0  0  0  0  0  0  0
   -4.1230   14.6760   -8.6620 C   0  0  0  0  0  0  0  0  0  0  0  0
   -3.6780   13.9430   -7.3910 C   0  0  1  0  0  0  0  0  0  0  0  0
   -3.6060   12.4490   -7.5900 N   0  0  0  0  0  0  0  0  0  0  0  0
   -2.4040   11.9180   -6.8460 C   0  0  1  0  0  0  0  0  0  0  0  0
   -1.3710   11.3050   -7.7350 C   0  0  0  0  0  0  0  0  0  0  0  0
   -0.5700   11.9500   -8.6630 C   0  0  0  0  0  0  0  0  0  0  0  0
    0.2530   11.0180   -9.2560 N   0  0  0  0  0  0  0  0  0  0  0  0
   -0.0070    9.7760   -8.7350 C   0  0  0  0  0  0  0  0  0  0  0  0
    0.5400    8.5260   -8.9660 C   0  0  0  0  0  0  0  0  0  0  0  0
    1.5290    8.2750   -9.8970 N   0  0  0  0  0  0  0  0  0  0  0  0
    0.0760    7.5050   -8.2290 N   0  0  0  0  0  0  0  0  0  0  0  0
   -0.8840    7.7440   -7.3190 C   0  0  0  0  0  0  0  0  0  0  0  0
   -1.4820    8.9190   -7.0330 N   0  0  0  0  0  0  0  0  0  0  0  0
   -0.9970    9.9340   -7.7830 C   0  0  0  0  0  0  0  0  0  0  0  0
   -1.8770   13.1390   -6.0550 C   0  0  2  0  0  0  0  0  0  0  0  0
   -2.5740   13.2800   -4.8030 O   0  0  0  0  0  0  0  0  0  0  0  0
   -2.2650   14.3230   -6.9400 C   0  0  2  0  0  0  0  0  0  0  0  0
   -2.2470   15.5440   -6.2150 O   0  0  0  0  0  0  0  0  0  0  0  0
   -2.7121   17.1428   -8.7417 H   0  0  0  0  0  0  0  0  0  0  0  0
   -1.8139   17.1425  -10.2974 H   0  0  0  0  0  0  0  0  0  0  0  0
   -3.6101   17.1276  -10.2974 H   0  0  0  0  0  0  0  0  0  0  0  0
   -4.5645   15.6449   -8.3859 H   0  0  0  0  0  0  0  0  0  0  0  0
   -4.8657   14.0587   -9.1886 H   0  0  0  0  0  0  0  0  0  0  0  0
   -4.4353   14.2367   -6.6493 H   0  0  0  0  0  0  0  0  0  0  0  0
   -4.4840   12.0070   -7.2910 H   0  0  0  0  0  0  0  0  0  0  0  0
   -3.5190   12.2440   -8.6030 H   0  0  0  0  0  0  0  0  0  0  0  0
   -2.6743   11.0809   -6.1855 H   0  0  0  0  0  0  0  0  0  0  0  0
   -0.5881   13.0265   -8.8887 H   0  0  0  0  0  0  0  0  0  0  0  0
    0.9670   11.2110   -9.9480 H   0  0  0  0  0  0  0  0  0  0  0  0
    2.0990    7.4860   -9.6060 H   0  0  0  0  0  0  0  0  0  0  0  0
    1.2460    8.2510  -10.8650 H   0  0  0  0  0  0  0  0  0  0  0  0
   -1.2236    6.8751   -6.7361 H   0  0  0  0  0  0  0  0  0  0  0  0
   -0.8024   13.0557   -5.8351 H   0  0  0  0  0  0  0  0  0  0  0  0
   -2.9990   14.1610   -4.7870 H   0  0  0  0  0  0  0  0  0  0  0  0
   -1.5733   14.4949   -7.7779 H   0  0  0  0  0  0  0  0  0  0  0  0
   -1.5930   15.4540   -5.4910 H   0  0  0  0  0  0  0  0  0  0  0  0
  1  2  1  0
  2  3  1  0
  3  4  1  0
  4  5  1  0
  5  6  1  0
  6  7  1  0
  7  8  2  0
  8  9  1  0
  9 10  1  0
 10 11  2  0
 11 12  1  0
 11 13  1  0
 13 14  2  0
 14 15  1  0
 15 16  2  0
  6 17  1  0
 17 18  1  0
 17 19  1  0
 19 20  1  0
 19  4  1  0
 16  7  1  0
 16 10  1  0
  1 21  1  0
  1 22  1  0
  1 23  1  0
  3 24  1  0
  3 25  1  0
  4 26  1  1
  5 27  1  0
  5 28  1  0
  6 29  1  1
  8 30  1  0
  9 31  1  0
 12 32  1  0
 12 33  1  0
 14 34  1  0
 17 35  1  1
 18 36  1  0
 19 37  1  6
 20 38  1  0
M  CHG  1   5   1
M  END
>  <meeko>  (7) 
{"is_sidechain": [false], "free_energy": -5.575, "intermolecular_energy": -6.485, "internal_energy": -0.393}

$$$$
1y6r_ligand
     RDKit          3D

 38 40  0  0  0  0  0  0  0  0999 V2000
    1.1370   10.3520   -7.3360 C   0  0  0  0  0  0  0  0  0  0  0  0
    1.8430   11.9630   -6.8940 S   0  0  0  0  0  0  0  0  0  0  0  0
    0.4620   13.0280   -7.4420 C   0  0  0  0  0  0  0  0  0  0  0  0
   -0.8510   12.5780   -6.7910 C   0  0  1  0  0  0  0  0  0  0  0  0
   -1.3420   13.5610   -5.7570 N   0  0  0  0  0  0  0  0  0  0  0  0
   -2.8460   13.6550   -5.8530 C   0  0  1  0  0  0  0  0  0  0  0  0
   -3.3370   15.0100   -6.2470 C   0  0  0  0  0  0  0  0  0  0  0  0
   -2.5930   16.0580   -6.7660 C   0  0  0  0  0  0  0  0  0  0  0  0
   -3.4370   17.1200   -7.0030 N   0  0  0  0  0  0  0  0  0  0  0  0
   -4.7160   16.7840   -6.6370 C   0  0  0  0  0  0  0  0  0  0  0  0
   -5.9180   17.4680   -6.6850 C   0  0  0  0  0  0  0  0  0  0  0  0
   -6.0490   18.7710   -7.1240 N   0  0  0  0  0  0  0  0  0  0  0  0
   -7.0170   16.8100   -6.2860 N   0  0  0  0  0  0  0  0  0  0  0  0
   -6.8960   15.5400   -5.8620 C   0  0  0  0  0  0  0  0  0  0  0  0
   -5.7720   14.8000   -5.7700 N   0  0  0  0  0  0  0  0  0  0  0  0
   -4.6780   15.4790   -6.1810 C   0  0  0  0  0  0  0  0  0  0  0  0
   -3.2320   12.5510   -6.8670 C   0  0  2  0  0  0  0  0  0  0  0  0
   -3.3660   11.2770   -6.2120 O   0  0  0  0  0  0  0  0  0  0  0  0
   -2.0120   12.4770   -7.7840 C   0  0  2  0  0  0  0  0  0  0  0  0
   -1.9830   11.2610   -8.5170 O   0  0  0  0  0  0  0  0  0  0  0  0
    0.8928    9.7948   -6.4195 H   0  0  0  0  0  0  0  0  0  0  0  0
    0.2224   10.5025   -7.9283 H   0  0  0  0  0  0  0  0  0  0  0  0
    1.8676    9.7815   -7.9283 H   0  0  0  0  0  0  0  0  0  0  0  0
    0.6710   14.0690   -7.1544 H   0  0  0  0  0  0  0  0  0  0  0  0
    0.3634   12.9502   -8.5348 H   0  0  0  0  0  0  0  0  0  0  0  0
   -0.5978   11.5986   -6.3588 H   0  0  0  0  0  0  0  0  0  0  0  0
   -1.0220   13.2830   -4.8220 H   0  0  0  0  0  0  0  0  0  0  0  0
   -0.9130   14.4880   -5.9380 H   0  0  0  0  0  0  0  0  0  0  0  0
   -3.3245   13.5046   -4.8740 H   0  0  0  0  0  0  0  0  0  0  0  0
   -1.5097   16.0438   -6.9566 H   0  0  0  0  0  0  0  0  0  0  0  0
   -3.1730   18.0080   -7.4130 H   0  0  0  0  0  0  0  0  0  0  0  0
   -5.2660   19.3350   -6.8050 H   0  0  0  0  0  0  0  0  0  0  0  0
   -6.2900   18.9010   -8.0950 H   0  0  0  0  0  0  0  0  0  0  0  0
   -7.8275   15.0436   -5.5522 H   0  0  0  0  0  0  0  0  0  0  0  0
   -4.1826   12.7707   -7.3750 H   0  0  0  0  0  0  0  0  0  0  0  0
   -2.6720   10.6800   -6.5570 H   0  0  0  0  0  0  0  0  0  0  0  0
   -1.9912   13.2596   -8.5568 H   0  0  0  0  0  0  0  0  0  0  0  0
   -1.7840   11.4780   -9.4520 H   0  0  0  0  0  0  0  0  0  0  0  0
  1  2  1  0
  2  3  1  0
  3  4  1  0
  4  5  1  0
  5  6  1  0
  6  7  1  0
  7  8  2  0
  8  9  1  0
  9 10  1  0
 10 11  2  0
 11 12  1  0
 11 13  1  0
 13 14  2  0
 14 15  1  0
 15 16  2  0
  6 17  1  0
 17 18  1  0
 17 19  1  0
 19 20  1  0
 19  4  1  0
 16  7  1  0
 16 10  1  0
  1 21  1  0
  1 22  1  0
  1 23  1  0
  3 24  1  0
  3 25  1  0
  4 26  1  1
  5 27  1  0
  5 28  1  0
  6 29  1  1
  8 30  1  0
  9 31  1  0
 12 32  1  0
 12 33  1  0
 14 34  1  0
 17 35  1  6
 18 36  1  0
 19 37  1  6
 20 38  1  0
M  CHG  1   5   1
M  END
>  <meeko>  (8) 
{"is_sidechain": [false], "free_energy": -5.51, "intermolecular_energy": -6.358, "internal_energy": -0.438}

$$$$
1y6r_ligand
     RDKit          3D

 38 40  0  0  0  0  0  0  0  0999 V2000
    1.9480   11.8870   -6.7420 C   0  0  0  0  0  0  0  0  0  0  0  0
    1.4130   12.3710   -8.4050 S   0  0  0  0  0  0  0  0  0  0  0  0
    0.1930   13.6500   -7.9410 C   0  0  0  0  0  0  0  0  0  0  0  0
   -0.9030   13.0470   -7.0550 C   0  0  1  0  0  0  0  0  0  0  0  0
   -1.3310   13.9870   -5.9560 N   0  0  0  0  0  0  0  0  0  0  0  0
   -2.8260   13.8720   -5.7740 C   0  0  1  0  0  0  0  0  0  0  0  0
   -3.5660   15.1330   -6.0800 C   0  0  0  0  0  0  0  0  0  0  0  0
   -4.7920   15.5340   -5.5740 C   0  0  0  0  0  0  0  0  0  0  0  0
   -5.1040   16.7660   -6.1040 N   0  0  0  0  0  0  0  0  0  0  0  0
   -4.1060   17.1680   -6.9540 C   0  0  0  0  0  0  0  0  0  0  0  0
   -3.9220   18.3100   -7.7140 C   0  0  0  0  0  0  0  0  0  0  0  0
   -4.8320   19.3460   -7.7870 N   0  0  0  0  0  0  0  0  0  0  0  0
   -2.7790   18.4080   -8.4110 N   0  0  0  0  0  0  0  0  0  0  0  0
   -1.8870   17.4050   -8.3410 C   0  0  0  0  0  0  0  0  0  0  0  0
   -1.9840   16.2560   -7.6410 N   0  0  0  0  0  0  0  0  0  0  0  0
   -3.1390   16.1800   -6.9420 C   0  0  0  0  0  0  0  0  0  0  0  0
   -3.2300   12.6920   -6.6900 C   0  0  2  0  0  0  0  0  0  0  0  0
   -3.0630   11.4330   -6.0110 O   0  0  0  0  0  0  0  0  0  0  0  0
   -2.1990   12.7540   -7.8160 C   0  0  2  0  0  0  0  0  0  0  0  0
   -2.1330   11.5290   -8.5320 O   0  0  0  0  0  0  0  0  0  0  0  0
    1.3507   12.4274   -5.9929 H   0  0  0  0  0  0  0  0  0  0  0  0
    1.8064   10.8039   -6.6120 H   0  0  0  0  0  0  0  0  0  0  0  0
    3.0115   12.1360   -6.6120 H   0  0  0  0  0  0  0  0  0  0  0  0
    0.7027   14.4542   -7.3901 H   0  0  0  0  0  0  0  0  0  0  0  0
   -0.2682   14.0515   -8.8554 H   0  0  0  0  0  0  0  0  0  0  0  0
   -0.4401   12.1269   -6.6689 H   0  0  0  0  0  0  0  0  0  0  0  0
   -0.8100   13.7880   -5.0940 H   0  0  0  0  0  0  0  0  0  0  0  0
   -1.0770   14.9580   -6.2210 H   0  0  0  0  0  0  0  0  0  0  0  0
   -3.0935   13.6911   -4.7225 H   0  0  0  0  0  0  0  0  0  0  0  0
   -5.4123   14.9635   -4.8671 H   0  0  0  0  0  0  0  0  0  0  0  0
   -5.9260   17.3160   -5.8840 H   0  0  0  0  0  0  0  0  0  0  0  0
   -4.5180   20.0500   -8.4490 H   0  0  0  0  0  0  0  0  0  0  0  0
   -5.8040   19.0900   -7.8800 H   0  0  0  0  0  0  0  0  0  0  0  0
   -0.9650   17.5373   -8.9262 H   0  0  0  0  0  0  0  0  0  0  0  0
   -4.2784   12.7629   -7.0154 H   0  0  0  0  0  0  0  0  0  0  0  0
   -2.1070   11.2940   -5.8560 H   0  0  0  0  0  0  0  0  0  0  0  0
   -2.4291   13.5049   -8.5862 H   0  0  0  0  0  0  0  0  0  0  0  0
   -2.9520   11.0260   -8.3410 H   0  0  0  0  0  0  0  0  0  0  0  0
  1  2  1  0
  2  3  1  0
  3  4  1  0
  4  5  1  0
  5  6  1  0
  6  7  1  0
  7  8  2  0
  8  9  1  0
  9 10  1  0
 10 11  2  0
 11 12  1  0
 11 13  1  0
 13 14  2  0
 14 15  1  0
 15 16  2  0
  6 17  1  0
 17 18  1  0
 17 19  1  0
 19 20  1  0
 19  4  1  0
 16  7  1  0
 16 10  1  0
  1 21  1  0
  1 22  1  0
  1 23  1  0
  3 24  1  0
  3 25  1  0
  4 26  1  1
  5 27  1  0
  5 28  1  0
  6 29  1  1
  8 30  1  0
  9 31  1  0
 12 32  1  0
 12 33  1  0
 14 34  1  0
 17 35  1  6
 18 36  1  0
 19 37  1  6
 20 38  1  0
M  CHG  1   5   1
M  END
>  <meeko>  (9) 
{"is_sidechain": [false], "free_energy": -5.441, "intermolecular_energy": -6.138, "internal_energy": -0.571}

$$$$
