1a30_ligand
     RDKit          3D

 49 48  0  0  0  0  0  0  0  0999 V2000
    7.2060   -3.5400   -5.7520 C   0  0  0  0  0  0  0  0  0  0  0  0
    6.3550   -3.4120   -7.0200 C   0  0  0  0  0  0  0  0  0  0  0  0
    5.8820   -4.7990   -7.4560 C   0  0  0  0  0  0  0  0  0  0  0  0
    5.1770   -2.4500   -6.7610 C   0  0  0  0  0  0  0  0  0  0  0  0
    5.5180   -0.9500   -6.8260 C   0  0  2  0  0  0  0  0  0  0  0  0
    5.2170   -0.2790   -5.5440 N   0  0  0  0  0  0  0  0  0  0  0  0
    5.5560    1.0160   -5.2410 C   0  0  0  0  0  0  0  0  0  0  0  0
    6.2130    1.7370   -5.9940 O   0  0  0  0  0  0  0  0  0  0  0  0
    5.0340    1.5100   -3.8730 C   0  0  2  0  0  0  0  0  0  0  0  0
    4.5290    2.9510   -3.9940 C   0  0  0  0  0  0  0  0  0  0  0  0
    5.4380    3.8640   -3.1970 C   0  0  0  0  0  0  0  0  0  0  0  0
    5.0160    4.1640   -2.0320 O   0  0  0  0  0  0  0  0  0  0  0  0
    6.4680    4.3010   -3.7670 O   0  0  0  0  0  0  0  0  0  0  0  0
    6.1320    1.4130   -2.9030 N   0  0  0  0  0  0  0  0  0  0  0  0
    6.1110    0.4960   -1.8740 C   0  0  0  0  0  0  0  0  0  0  0  0
    5.4780   -0.5560   -1.9180 O   0  0  0  0  0  0  0  0  0  0  0  0
    6.8790    0.9630   -0.6130 C   0  0  1  0  0  0  0  0  0  0  0  0
    8.0600    1.7680   -1.0150 N   0  0  0  0  0  0  0  0  0  0  0  0
    5.9720    1.7820    0.3270 C   0  0  0  0  0  0  0  0  0  0  0  0
    5.0050    1.0180    1.2350 C   0  0  0  0  0  0  0  0  0  0  0  0
    5.7310    0.0250    2.1300 C   0  0  0  0  0  0  0  0  0  0  0  0
    5.3780   -1.1770    1.9220 O   0  0  0  0  0  0  0  0  0  0  0  0
    6.5240    0.5090    2.9700 O   0  0  0  0  0  0  0  0  0  0  0  0
    4.6460   -0.3830   -8.0010 C   0  0  0  0  0  0  0  0  0  0  0  0
    5.2440   -0.2030   -9.1020 O   0  0  0  0  0  0  0  0  0  0  0  0
    3.4320   -0.1670   -7.6960 O   0  0  0  0  0  0  0  0  0  0  0  0
    6.5610   -3.4430   -4.8662 H   0  0  0  0  0  0  0  0  0  0  0  0
    7.7003   -4.5226   -5.7398 H   0  0  0  0  0  0  0  0  0  0  0  0
    7.9675   -2.7463   -5.7398 H   0  0  0  0  0  0  0  0  0  0  0  0
    6.9528   -2.9879   -7.8402 H   0  0  0  0  0  0  0  0  0  0  0  0
    5.6731   -5.4115   -6.5665 H   0  0  0  0  0  0  0  0  0  0  0  0
    4.9662   -4.7018   -8.0576 H   0  0  0  0  0  0  0  0  0  0  0  0
    6.6664   -5.2816   -8.0576 H   0  0  0  0  0  0  0  0  0  0  0  0
    4.4014   -2.6539   -7.5139 H   0  0  0  0  0  0  0  0  0  0  0  0
    4.8535   -2.6411   -5.7272 H   0  0  0  0  0  0  0  0  0  0  0  0
    6.5899   -0.7763   -7.0018 H   0  0  0  0  0  0  0  0  0  0  0  0
    4.4640   -0.7470   -5.0380 H   0  0  0  0  0  0  0  0  0  0  0  0
    4.1905    0.8906   -3.5342 H   0  0  0  0  0  0  0  0  0  0  0  0
    4.5356    3.2560   -5.0509 H   0  0  0  0  0  0  0  0  0  0  0  0
    3.5027    3.0177   -3.6039 H   0  0  0  0  0  0  0  0  0  0  0  0
    6.6620    2.2730   -2.8010 H   0  0  0  0  0  0  0  0  0  0  0  0
    7.2129    0.0706   -0.0634 H   0  0  0  0  0  0  0  0  0  0  0  0
    8.7920    1.1990   -1.5150 H   0  0  0  0  0  0  0  0  0  0  0  0
    7.8570    2.5130   -1.6780 H   0  0  0  0  0  0  0  0  0  0  0  0
    8.5170    2.1640   -0.1590 H   0  0  0  0  0  0  0  0  0  0  0  0
    6.6283    2.3797    0.9767 H   0  0  0  0  0  0  0  0  0  0  0  0
    5.3206    2.3554   -0.3490 H   0  0  0  0  0  0  0  0  0  0  0  0
    4.4665    1.7390    1.8675 H   0  0  0  0  0  0  0  0  0  0  0  0
    4.3098    0.4548    0.5950 H   0  0  0  0  0  0  0  0  0  0  0  0
  1  2  1  0
  2  3  1  0
  2  4  1  0
  4  5  1  0
  5  6  1  0
  6  7  1  0
  7  8  2  0
  7  9  1  0
  9 10  1  0
 10 11  1  0
 11 12  2  0
 11 13  1  0
  9 14  1  0
 14 15  1  0
 15 16  2  0
 15 17  1  0
 17 18  1  0
 17 19  1  0
 19 20  1  0
 20 21  1  0
 21 22  2  0
 21 23  1  0
  5 24  1  0
 24 25  2  0
 24 26  1  0
  1 27  1  0
  1 28  1  0
  1 29  1  0
  2 30  1  0
  3 31  1  0
  3 32  1  0
  3 33  1  0
  4 34  1  0
  4 35  1  0
  5 36  1  6
  6 37  1  0
  9 38  1  1
 10 39  1  0
 10 40  1  0
 14 41  1  0
 17 42  1  1
 18 43  1  0
 18 44  1  0
 18 45  1  0
 19 46  1  0
 19 47  1  0
 20 48  1  0
 20 49  1  0
M  CHG  4  13  -1  18   1  23  -1  26  -1
M  END
>  <meeko>  (1) 
{"is_sidechain": [false], "free_energy": -6.399, "intermolecular_energy": -11.076, "internal_energy": -1.729}

$$$$
1a30_ligand
     RDKit          3D

 49 48  0  0  0  0  0  0  0  0999 V2000
    8.0210   -2.0210    2.0670 C   0  0  0  0  0  0  0  0  0  0  0  0
    6.7920   -1.6540    1.2290 C   0  0  0  0  0  0  0  0  0  0  0  0
    5.5320   -1.8040    2.0830 C   0  0  0  0  0  0  0  0  0  0  0  0
    6.9510   -0.2240    0.6710 C   0  0  0  0  0  0  0  0  0  0  0  0
    5.7630    0.3020   -0.1560 C   0  0  2  0  0  0  0  0  0  0  0  0
    6.1260    0.4400   -1.5810 N   0  0  0  0  0  0  0  0  0  0  0  0
    5.2250    0.4790   -2.6170 C   0  0  0  0  0  0  0  0  0  0  0  0
    4.0110    0.3370   -2.4630 O   0  0  0  0  0  0  0  0  0  0  0  0
    5.8570    0.7340   -4.0040 C   0  0  2  0  0  0  0  0  0  0  0  0
    5.9540    2.2400   -4.2670 C   0  0  0  0  0  0  0  0  0  0  0  0
    5.0600    2.5980   -5.4360 C   0  0  0  0  0  0  0  0  0  0  0  0
    5.5580    2.3670   -6.5880 O   0  0  0  0  0  0  0  0  0  0  0  0
    3.9620    3.1510   -5.1810 O   0  0  0  0  0  0  0  0  0  0  0  0
    5.0210    0.0730   -5.0140 N   0  0  0  0  0  0  0  0  0  0  0  0
    5.4260   -1.0850   -5.6440 C   0  0  0  0  0  0  0  0  0  0  0  0
    6.2210   -1.8820   -5.1510 O   0  0  0  0  0  0  0  0  0  0  0  0
    4.8630   -1.2390   -7.0780 C   0  0  1  0  0  0  0  0  0  0  0  0
    3.7920   -0.2370   -7.3070 N   0  0  0  0  0  0  0  0  0  0  0  0
    5.9720   -1.0820   -8.1380 C   0  0  0  0  0  0  0  0  0  0  0  0
    6.8380   -2.3040   -8.4560 C   0  0  0  0  0  0  0  0  0  0  0  0
    6.0240   -3.5900   -8.4680 C   0  0  0  0  0  0  0  0  0  0  0  0
    6.3920   -4.4160   -7.5780 O   0  0  0  0  0  0  0  0  0  0  0  0
    5.1520   -3.6870   -9.3620 O   0  0  0  0  0  0  0  0  0  0  0  0
    5.3950    1.6840    0.4900 C   0  0  0  0  0  0  0  0  0  0  0  0
    5.6050    2.7070   -0.2250 O   0  0  0  0  0  0  0  0  0  0  0  0
    4.9290    1.6050    1.6690 O   0  0  0  0  0  0  0  0  0  0  0  0
    7.7716   -1.9465    3.1358 H   0  0  0  0  0  0  0  0  0  0  0  0
    8.3299   -3.0506    1.8334 H   0  0  0  0  0  0  0  0  0  0  0  0
    8.8439   -1.3294    1.8334 H   0  0  0  0  0  0  0  0  0  0  0  0
    6.6980   -2.3344    0.3698 H   0  0  0  0  0  0  0  0  0  0  0  0
    5.8049   -1.7715    3.1481 H   0  0  0  0  0  0  0  0  0  0  0  0
    4.8363   -0.9823    1.8575 H   0  0  0  0  0  0  0  0  0  0  0  0
    5.0486   -2.7660    1.8575 H   0  0  0  0  0  0  0  0  0  0  0  0
    7.0993    0.4571    1.5220 H   0  0  0  0  0  0  0  0  0  0  0  0
    7.8057   -0.2634   -0.0203 H   0  0  0  0  0  0  0  0  0  0  0  0
    4.9076   -0.3894   -0.1383 H   0  0  0  0  0  0  0  0  0  0  0  0
    7.0640    0.8220   -1.6990 H   0  0  0  0  0  0  0  0  0  0  0  0
    6.8768    0.3239   -4.0463 H   0  0  0  0  0  0  0  0  0  0  0  0
    5.6292    2.7917   -3.3725 H   0  0  0  0  0  0  0  0  0  0  0  0
    6.9947    2.5089   -4.5007 H   0  0  0  0  0  0  0  0  0  0  0  0
    4.3730    0.6990   -5.4800 H   0  0  0  0  0  0  0  0  0  0  0  0
    4.4454   -2.2519   -7.1758 H   0  0  0  0  0  0  0  0  0  0  0  0
    3.6430   -0.0230   -8.3280 H   0  0  0  0  0  0  0  0  0  0  0  0
    2.8670   -0.5290   -6.9980 H   0  0  0  0  0  0  0  0  0  0  0  0
    4.0560    0.6660   -6.8440 H   0  0  0  0  0  0  0  0  0  0  0  0
    5.4874   -0.7712   -9.0753 H   0  0  0  0  0  0  0  0  0  0  0  0
    6.6715   -0.3551   -7.6995 H   0  0  0  0  0  0  0  0  0  0  0  0
    7.2985   -2.1656   -9.4453 H   0  0  0  0  0  0  0  0  0  0  0  0
    7.6032   -2.3927   -7.6708 H   0  0  0  0  0  0  0  0  0  0  0  0
  1  2  1  0
  2  3  1  0
  2  4  1  0
  4  5  1  0
  5  6  1  0
  6  7  1  0
  7  8  2  0
  7  9  1  0
  9 10  1  0
 10 11  1  0
 11 12  2  0
 11 13  1  0
  9 14  1  0
 14 15  1  0
 15 16  2  0
 15 17  1  0
 17 18  1  0
 17 19  1  0
 19 20  1  0
 20 21  1  0
 21 22  2  0
 21 23  1  0
  5 24  1  0
 24 25  2  0
 24 26  1  0
  1 27  1  0
  1 28  1  0
  1 29  1  0
  2 30  1  0
  3 31  1  0
  3 32  1  0
  3 33  1  0
  4 34  1  0
  4 35  1  0
  5 36  1  6
  6 37  1  0
  9 38  1  1
 10 39  1  0
 10 40  1  0
 14 41  1  0
 17 42  1  1
 18 43  1  0
 18 44  1  0
 18 45  1  0
 19 46  1  0
 19 47  1  0
 20 48  1  0
 20 49  1  0
M  CHG  4  13  -1  18   1  23  -1  26  -1
M  END
>  <meeko>  (2) 
{"is_sidechain": [false], "free_energy": -6.376, "intermolecular_energy": -11.01, "internal_energy": -1.755}

$$$$
1a30_ligand
     RDKit          3D

 49 48  0  0  0  0  0  0  0  0999 V2000
    6.8780    5.8540    3.6090 C   0  0  0  0  0  0  0  0  0  0  0  0
    6.8110    5.3260    5.0460 C   0  0  0  0  0  0  0  0  0  0  0  0
    6.4620    6.4750    5.9930 C   0  0  0  0  0  0  0  0  0  0  0  0
    5.7890    4.1730    5.1290 C   0  0  0  0  0  0  0  0  0  0  0  0
    6.3850    2.7740    5.3700 C   0  0  2  0  0  0  0  0  0  0  0  0
    5.9740    1.8300    4.3110 N   0  0  0  0  0  0  0  0  0  0  0  0
    6.6550    0.6860    3.9760 C   0  0  0  0  0  0  0  0  0  0  0  0
    7.7270    0.3620    4.4890 O   0  0  0  0  0  0  0  0  0  0  0  0
    5.9580   -0.1820    2.9040 C   0  0  2  0  0  0  0  0  0  0  0  0
    6.3820   -1.6460    3.0570 C   0  0  0  0  0  0  0  0  0  0  0  0
    7.1780   -2.0620    1.8390 C   0  0  0  0  0  0  0  0  0  0  0  0
    6.4840   -2.5130    0.8670 O   0  0  0  0  0  0  0  0  0  0  0  0
    8.4300   -2.0040    1.9140 O   0  0  0  0  0  0  0  0  0  0  0  0
    6.3280    0.3410    1.5830 N   0  0  0  0  0  0  0  0  0  0  0  0
    5.4670    1.1270    0.8480 C   0  0  0  0  0  0  0  0  0  0  0  0
    4.5790    1.8120    1.3500 O   0  0  0  0  0  0  0  0  0  0  0  0
    5.6580    0.9910   -0.6830 C   0  0  1  0  0  0  0  0  0  0  0  0
    4.3420    0.7770   -1.3360 N   0  0  0  0  0  0  0  0  0  0  0  0
    6.3490    2.2350   -1.2770 C   0  0  0  0  0  0  0  0  0  0  0  0
    5.4830    3.2370   -2.0450 C   0  0  0  0  0  0  0  0  0  0  0  0
    5.7050    3.1460   -3.5480 C   0  0  0  0  0  0  0  0  0  0  0  0
    6.5080    4.0280   -3.9830 O   0  0  0  0  0  0  0  0  0  0  0  0
    5.0480    2.2700   -4.1550 O   0  0  0  0  0  0  0  0  0  0  0  0
    5.8500    2.3390    6.7800 C   0  0  0  0  0  0  0  0  0  0  0  0
    6.3870    2.9030    7.7780 O   0  0  0  0  0  0  0  0  0  0  0  0
    4.9340    1.4600    6.7450 O   0  0  0  0  0  0  0  0  0  0  0  0
    7.0165    6.9451    3.6254 H   0  0  0  0  0  0  0  0  0  0  0  0
    7.7238    5.3849    3.0851 H   0  0  0  0  0  0  0  0  0  0  0  0
    5.9418    5.6110    3.0851 H   0  0  0  0  0  0  0  0  0  0  0  0
    7.7882    4.9237    5.3515 H   0  0  0  0  0  0  0  0  0  0  0  0
    6.5650    6.1360    7.0344 H   0  0  0  0  0  0  0  0  0  0  0  0
    7.1444    7.3188    5.8129 H   0  0  0  0  0  0  0  0  0  0  0  0
    5.4256    6.7967    5.8129 H   0  0  0  0  0  0  0  0  0  0  0  0
    5.0964    4.3930    5.9548 H   0  0  0  0  0  0  0  0  0  0  0  0
    5.3038    4.1284    4.1428 H   0  0  0  0  0  0  0  0  0  0  0  0
    7.4846    2.7823    5.3429 H   0  0  0  0  0  0  0  0  0  0  0  0
    4.9860    1.9300    4.0760 H   0  0  0  0  0  0  0  0  0  0  0  0
    4.8652   -0.1398    3.0225 H   0  0  0  0  0  0  0  0  0  0  0  0
    7.0029   -1.7572    3.9582 H   0  0  0  0  0  0  0  0  0  0  0  0
    5.4894   -2.2820    3.1508 H   0  0  0  0  0  0  0  0  0  0  0  0
    7.0320   -0.2150    1.1080 H   0  0  0  0  0  0  0  0  0  0  0  0
    6.3073    0.1234   -0.8719 H   0  0  0  0  0  0  0  0  0  0  0  0
    4.3460    1.0350   -2.3570 H   0  0  0  0  0  0  0  0  0  0  0  0
    4.0270   -0.1910   -1.3450 H   0  0  0  0  0  0  0  0  0  0  0  0
    3.6230    1.3840   -0.8740 H   0  0  0  0  0  0  0  0  0  0  0  0
    6.8180    2.7786   -0.4436 H   0  0  0  0  0  0  0  0  0  0  0  0
    7.0405    1.8325   -2.0318 H   0  0  0  0  0  0  0  0  0  0  0  0
    4.4244    3.0306   -1.8290 H   0  0  0  0  0  0  0  0  0  0  0  0
    5.7646    4.2495   -1.7201 H   0  0  0  0  0  0  0  0  0  0  0  0
  1  2  1  0
  2  3  1  0
  2  4  1  0
  4  5  1  0
  5  6  1  0
  6  7  1  0
  7  8  2  0
  7  9  1  0
  9 10  1  0
 10 11  1  0
 11 12  2  0
 11 13  1  0
  9 14  1  0
 14 15  1  0
 15 16  2  0
 15 17  1  0
 17 18  1  0
 17 19  1  0
 19 20  1  0
 20 21  1  0
 21 22  2  0
 21 23  1  0
  5 24  1  0
 24 25  2  0
 24 26  1  0
  1 27  1  0
  1 28  1  0
  1 29  1  0
  2 30  1  0
  3 31  1  0
  3 32  1  0
  3 33  1  0
  4 34  1  0
  4 35  1  0
  5 36  1  1
  6 37  1  0
  9 38  1  1
 10 39  1  0
 10 40  1  0
 14 41  1  0
 17 42  1  1
 18 43  1  0
 18 44  1  0
 18 45  1  0
 19 46  1  0
 19 47  1  0
 20 48  1  0
 20 49  1  0
M  CHG  4  13  -1  18   1  23  -1  26  -1
M  END
>  <meeko>  (3) 
{"is_sidechain": [false], "free_energy": -6.37, "intermolecular_energy": -10.929, "internal_energy": -1.825}

$$$$
1a30_ligand
     RDKit          3D

 49 48  0  0  0  0  0  0  0  0999 V2000
    6.2250    3.2450   -4.6240 C   0  0  0  0  0  0  0  0  0  0  0  0
    6.1490    3.5600   -3.1260 C   0  0  0  0  0  0  0  0  0  0  0  0
    4.7230    3.9810   -2.7680 C   0  0  0  0  0  0  0  0  0  0  0  0
    6.6170    2.3360   -2.3130 C   0  0  0  0  0  0  0  0  0  0  0  0
    5.6350    1.8400   -1.2350 C   0  0  2  0  0  0  0  0  0  0  0  0
    6.2970    1.7390    0.0820 N   0  0  0  0  0  0  0  0  0  0  0  0
    5.6510    1.4650    1.2630 C   0  0  0  0  0  0  0  0  0  0  0  0
    4.4290    1.3380    1.3510 O   0  0  0  0  0  0  0  0  0  0  0  0
    6.5870    1.3110    2.4820 C   0  0  2  0  0  0  0  0  0  0  0  0
    7.0110   -0.1530    2.6360 C   0  0  0  0  0  0  0  0  0  0  0  0
    7.1890   -0.4660    4.1070 C   0  0  0  0  0  0  0  0  0  0  0  0
    8.3240   -0.1460    4.5950 O   0  0  0  0  0  0  0  0  0  0  0  0
    6.2560   -1.0730    4.6890 O   0  0  0  0  0  0  0  0  0  0  0  0
    5.8670    1.7810    3.6720 N   0  0  0  0  0  0  0  0  0  0  0  0
    6.1220    3.0150    4.2320 C   0  0  0  0  0  0  0  0  0  0  0  0
    6.5800    3.9640    3.6000 O   0  0  0  0  0  0  0  0  0  0  0  0
    5.8710    3.0650    5.7600 C   0  0  1  0  0  0  0  0  0  0  0  0
    5.3240    1.7640    6.2210 N   0  0  0  0  0  0  0  0  0  0  0  0
    7.1630    3.4010    6.5310 C   0  0  0  0  0  0  0  0  0  0  0  0
    7.5560    4.8750    6.6630 C   0  0  0  0  0  0  0  0  0  0  0  0
    6.3490    5.7620    6.9320 C   0  0  0  0  0  0  0  0  0  0  0  0
    5.7830    5.5030    8.0390 O   0  0  0  0  0  0  0  0  0  0  0  0
    6.0470    6.5790    6.0320 O   0  0  0  0  0  0  0  0  0  0  0  0
    5.1360    0.4430   -1.7470 C   0  0  0  0  0  0  0  0  0  0  0  0
    5.8760   -0.5470   -1.4750 O   0  0  0  0  0  0  0  0  0  0  0  0
    4.0380    0.4800   -2.3840 O   0  0  0  0  0  0  0  0  0  0  0  0
    6.4809    2.1843   -4.7631 H   0  0  0  0  0  0  0  0  0  0  0  0
    5.2512    3.4517   -5.0920 H   0  0  0  0  0  0  0  0  0  0  0  0
    6.9974    3.8730   -5.0920 H   0  0  0  0  0  0  0  0  0  0  0  0
    6.8184    4.3964   -2.8763 H   0  0  0  0  0  0  0  0  0  0  0  0
    4.6139    4.0132   -1.6739 H   0  0  0  0  0  0  0  0  0  0  0  0
    4.5190    4.9777   -3.1863 H   0  0  0  0  0  0  0  0  0  0  0  0
    4.0104    3.2549   -3.1863 H   0  0  0  0  0  0  0  0  0  0  0  0
    6.7933    1.5092   -3.0168 H   0  0  0  0  0  0  0  0  0  0  0  0
    7.5192    2.6595   -1.7732 H   0  0  0  0  0  0  0  0  0  0  0  0
    4.7959    2.5358   -1.0877 H   0  0  0  0  0  0  0  0  0  0  0  0
    7.2990    1.5720   -0.0090 H   0  0  0  0  0  0  0  0  0  0  0  0
    7.5007    1.9083    2.3461 H   0  0  0  0  0  0  0  0  0  0  0  0
    6.2355   -0.8075    2.2115 H   0  0  0  0  0  0  0  0  0  0  0  0
    7.9590   -0.3219    2.1041 H   0  0  0  0  0  0  0  0  0  0  0  0
    5.5030    1.0310    4.2500 H   0  0  0  0  0  0  0  0  0  0  0  0
    5.1413    3.8628    5.9629 H   0  0  0  0  0  0  0  0  0  0  0  0
    4.2700    1.7460    6.2360 H   0  0  0  0  0  0  0  0  0  0  0  0
    5.5570    0.9730    5.6250 H   0  0  0  0  0  0  0  0  0  0  0  0
    5.6440    1.5820    7.2030 H   0  0  0  0  0  0  0  0  0  0  0  0
    7.0508    2.9995    7.5489 H   0  0  0  0  0  0  0  0  0  0  0  0
    7.9677    2.9539    5.9288 H   0  0  0  0  0  0  0  0  0  0  0  0
    8.2673    4.9803    7.4954 H   0  0  0  0  0  0  0  0  0  0  0  0
    8.0083    5.1938    5.7123 H   0  0  0  0  0  0  0  0  0  0  0  0
  1  2  1  0
  2  3  1  0
  2  4  1  0
  4  5  1  0
  5  6  1  0
  6  7  1  0
  7  8  2  0
  7  9  1  0
  9 10  1  0
 10 11  1  0
 11 12  2  0
 11 13  1  0
  9 14  1  0
 14 15  1  0
 15 16  2  0
 15 17  1  0
 17 18  1  0
 17 19  1  0
 19 20  1  0
 20 21  1  0
 21 22  2  0
 21 23  1  0
  5 24  1  0
 24 25  2  0
 24 26  1  0
  1 27  1  0
  1 28  1  0
  1 29  1  0
  2 30  1  0
  3 31  1  0
  3 32  1  0
  3 33  1  0
  4 34  1  0
  4 35  1  0
  5 36  1  1
  6 37  1  0
  9 38  1  6
 10 39  1  0
 10 40  1  0
 14 41  1  0
 17 42  1  6
 18 43  1  0
 18 44  1  0
 18 45  1  0
 19 46  1  0
 19 47  1  0
 20 48  1  0
 20 49  1  0
M  CHG  4  13  -1  18   1  23  -1  26  -1
M  END
>  <meeko>  (4) 
{"is_sidechain": [false], "free_energy": -6.25, "intermolecular_energy": -10.931, "internal_energy": -1.616}

$$$$
1a30_ligand
     RDKit          3D

 49 48  0  0  0  0  0  0  0  0999 V2000
    5.5650    2.3090   -0.8800 C   0  0  0  0  0  0  0  0  0  0  0  0
    6.7730    2.3150   -1.8230 C   0  0  0  0  0  0  0  0  0  0  0  0
    7.5300    0.9930   -1.6860 C   0  0  0  0  0  0  0  0  0  0  0  0
    6.3010    2.5670   -3.2700 C   0  0  0  0  0  0  0  0  0  0  0  0
    4.9540    1.9270   -3.6510 C   0  0  2  0  0  0  0  0  0  0  0  0
    5.1400    0.8400   -4.6350 N   0  0  0  0  0  0  0  0  0  0  0  0
    5.2180   -0.4950   -4.3200 C   0  0  0  0  0  0  0  0  0  0  0  0
    5.2060   -0.9180   -3.1630 O   0  0  0  0  0  0  0  0  0  0  0  0
    5.3090   -1.4350   -5.5430 C   0  0  2  0  0  0  0  0  0  0  0  0
    6.1790   -2.6500   -5.2060 C   0  0  0  0  0  0  0  0  0  0  0  0
    6.3260   -3.5130   -6.4410 C   0  0  0  0  0  0  0  0  0  0  0  0
    7.3320   -3.2380   -7.1760 O   0  0  0  0  0  0  0  0  0  0  0  0
    5.4230   -4.3540   -6.6740 O   0  0  0  0  0  0  0  0  0  0  0  0
    5.8750   -0.6730   -6.6630 N   0  0  0  0  0  0  0  0  0  0  0  0
    5.1510   -0.4250   -7.8100 C   0  0  0  0  0  0  0  0  0  0  0  0
    3.9230   -0.3940   -7.8410 O   0  0  0  0  0  0  0  0  0  0  0  0
    6.0280   -0.2890   -9.0780 C   0  0  1  0  0  0  0  0  0  0  0  0
    7.4240   -0.6860   -8.7680 N   0  0  0  0  0  0  0  0  0  0  0  0
    5.4770   -1.1440  -10.2370 C   0  0  0  0  0  0  0  0  0  0  0  0
    5.1800   -2.6200   -9.9590 C   0  0  0  0  0  0  0  0  0  0  0  0
    6.3320   -3.5210  -10.3780 C   0  0  0  0  0  0  0  0  0  0  0  0
    7.1800   -2.9280  -11.1140 O   0  0  0  0  0  0  0  0  0  0  0  0
    6.2750   -4.7120   -9.9950 O   0  0  0  0  0  0  0  0  0  0  0  0
    4.0920    3.1010   -4.2340 C   0  0  0  0  0  0  0  0  0  0  0  0
    4.0760    3.2080   -5.4950 O   0  0  0  0  0  0  0  0  0  0  0  0
    3.5120    3.8130   -3.3560 O   0  0  0  0  0  0  0  0  0  0  0  0
    5.9141    2.3107    0.1631 H   0  0  0  0  0  0  0  0  0  0  0  0
    4.9524    3.2041   -1.0631 H   0  0  0  0  0  0  0  0  0  0  0  0
    4.9614    1.4078   -1.0631 H   0  0  0  0  0  0  0  0  0  0  0  0
    7.4639    3.1277   -1.5543 H   0  0  0  0  0  0  0  0  0  0  0  0
    7.6653    0.7567   -0.6202 H   0  0  0  0  0  0  0  0  0  0  0  0
    6.9551    0.1895   -2.1696 H   0  0  0  0  0  0  0  0  0  0  0  0
    8.5140    1.0821   -2.1696 H   0  0  0  0  0  0  0  0  0  0  0  0
    6.2115    3.6541   -3.4123 H   0  0  0  0  0  0  0  0  0  0  0  0
    7.0531    2.0940   -3.9186 H   0  0  0  0  0  0  0  0  0  0  0  0
    4.4602    1.4582   -2.7871 H   0  0  0  0  0  0  0  0  0  0  0  0
    4.8840    1.1340   -5.5770 H   0  0  0  0  0  0  0  0  0  0  0  0
    4.3118   -1.8076   -5.8201 H   0  0  0  0  0  0  0  0  0  0  0  0
    7.1713   -2.3114   -4.8732 H   0  0  0  0  0  0  0  0  0  0  0  0
    5.7059   -3.2324   -4.4016 H   0  0  0  0  0  0  0  0  0  0  0  0
    6.8890   -0.7010   -6.7040 H   0  0  0  0  0  0  0  0  0  0  0  0
    6.0087    0.7633   -9.3979 H   0  0  0  0  0  0  0  0  0  0  0  0
    8.1360   -0.1470   -9.3270 H   0  0  0  0  0  0  0  0  0  0  0  0
    7.7090   -0.5130   -7.8070 H   0  0  0  0  0  0  0  0  0  0  0  0
    7.5570   -1.6990   -9.0050 H   0  0  0  0  0  0  0  0  0  0  0  0
    4.5381   -0.6779  -10.5705 H   0  0  0  0  0  0  0  0  0  0  0  0
    6.2894   -1.1606  -10.9785 H   0  0  0  0  0  0  0  0  0  0  0  0
    5.0014   -2.7496   -8.8814 H   0  0  0  0  0  0  0  0  0  0  0  0
    4.2944   -2.9051  -10.5458 H   0  0  0  0  0  0  0  0  0  0  0  0
  1  2  1  0
  2  3  1  0
  2  4  1  0
  4  5  1  0
  5  6  1  0
  6  7  1  0
  7  8  2  0
  7  9  1  0
  9 10  1  0
 10 11  1  0
 11 12  2  0
 11 13  1  0
  9 14  1  0
 14 15  1  0
 15 16  2  0
 15 17  1  0
 17 18  1  0
 17 19  1  0
 19 20  1  0
 20 21  1  0
 21 22  2  0
 21 23  1  0
  5 24  1  0
 24 25  2  0
 24 26  1  0
  1 27  1  0
  1 28  1  0
  1 29  1  0
  2 30  1  0
  3 31  1  0
  3 32  1  0
  3 33  1  0
  4 34  1  0
  4 35  1  0
  5 36  1  1
  6 37  1  0
  9 38  1  6
 10 39  1  0
 10 40  1  0
 14 41  1  0
 17 42  1  6
 18 43  1  0
 18 44  1  0
 18 45  1  0
 19 46  1  0
 19 47  1  0
 20 48  1  0
 20 49  1  0
M  CHG  4  13  -1  18   1  23  -1  26  -1
M  END
>  <meeko>  (5) 
{"is_sidechain": [false], "free_energy": -6.148, "intermolecular_energy": -10.323, "internal_energy": -2.047}

$$$$
1a30_ligand
     RDKit          3D

 49 48  0  0  0  0  0  0  0  0999 V2000
    5.7310    2.3030    0.3140 C   0  0  0  0  0  0  0  0  0  0  0  0
    6.8710    1.8460   -0.6040 C   0  0  0  0  0  0  0  0  0  0  0  0
    7.0000    0.3240   -0.5320 C   0  0  0  0  0  0  0  0  0  0  0  0
    6.6100    2.3410   -2.0420 C   0  0  0  0  0  0  0  0  0  0  0  0
    5.2310    1.9850   -2.6270 C   0  0  2  0  0  0  0  0  0  0  0  0
    5.3670    1.1680   -3.8510 N   0  0  0  0  0  0  0  0  0  0  0  0
    5.1700   -0.1900   -3.9100 C   0  0  0  0  0  0  0  0  0  0  0  0
    4.9210   -0.8810   -2.9200 O   0  0  0  0  0  0  0  0  0  0  0  0
    5.2720   -0.7890   -5.3310 C   0  0  2  0  0  0  0  0  0  0  0  0
    6.0930   -2.0810   -5.2970 C   0  0  0  0  0  0  0  0  0  0  0  0
    5.9330   -2.8060   -6.6160 C   0  0  0  0  0  0  0  0  0  0  0  0
    5.0740   -3.7490   -6.6150 O   0  0  0  0  0  0  0  0  0  0  0  0
    6.6980   -2.4780   -7.5570 O   0  0  0  0  0  0  0  0  0  0  0  0
    5.8970    0.2120   -6.2040 N   0  0  0  0  0  0  0  0  0  0  0  0
    5.3370    0.5700   -7.4120 C   0  0  0  0  0  0  0  0  0  0  0  0
    4.1380    0.4680   -7.6600 O   0  0  0  0  0  0  0  0  0  0  0  0
    6.3780    1.0190   -8.4680 C   0  0  1  0  0  0  0  0  0  0  0  0
    6.3020    0.1340   -9.6560 N   0  0  0  0  0  0  0  0  0  0  0  0
    6.1580    2.4870   -8.8840 C   0  0  0  0  0  0  0  0  0  0  0  0
    6.0030    3.5310   -7.7750 C   0  0  0  0  0  0  0  0  0  0  0  0
    7.1570    3.4820   -6.7830 C   0  0  0  0  0  0  0  0  0  0  0  0
    6.7770    3.2410   -5.5960 O   0  0  0  0  0  0  0  0  0  0  0  0
    8.2960    3.7290   -7.2420 O   0  0  0  0  0  0  0  0  0  0  0  0
    4.5430    3.3650   -2.9200 C   0  0  0  0  0  0  0  0  0  0  0  0
    5.1470    4.3910   -2.4910 O   0  0  0  0  0  0  0  0  0  0  0  0
    3.4470    3.2800   -3.5560 O   0  0  0  0  0  0  0  0  0  0  0  0
    6.0347    2.1812    1.3642 H   0  0  0  0  0  0  0  0  0  0  0  0
    5.5044    3.3615    0.1182 H   0  0  0  0  0  0  0  0  0  0  0  0
    4.8360    1.6941    0.1182 H   0  0  0  0  0  0  0  0  0  0  0  0
    7.8263    2.2802   -0.2740 H   0  0  0  0  0  0  0  0  0  0  0  0
    7.0268    0.0077    0.5212 H   0  0  0  0  0  0  0  0  0  0  0  0
    6.1381   -0.1411   -1.0327 H   0  0  0  0  0  0  0  0  0  0  0  0
    7.9279    0.0106   -1.0327 H   0  0  0  0  0  0  0  0  0  0  0  0
    6.7068    3.4367   -2.0458 H   0  0  0  0  0  0  0  0  0  0  0  0
    7.3480    1.8277   -2.6760 H   0  0  0  0  0  0  0  0  0  0  0  0
    4.6315    1.3764   -1.9340 H   0  0  0  0  0  0  0  0  0  0  0  0
    5.3020    1.7360   -4.6960 H   0  0  0  0  0  0  0  0  0  0  0  0
    4.2734   -1.0406   -5.7177 H   0  0  0  0  0  0  0  0  0  0  0  0
    7.1539   -1.8388   -5.1364 H   0  0  0  0  0  0  0  0  0  0  0  0
    5.7391   -2.7228   -4.4767 H   0  0  0  0  0  0  0  0  0  0  0  0
    6.8980    0.3060   -6.0650 H   0  0  0  0  0  0  0  0  0  0  0  0
    7.3789    0.9429   -8.0181 H   0  0  0  0  0  0  0  0  0  0  0  0
    5.6880   -0.7090   -9.5000 H   0  0  0  0  0  0  0  0  0  0  0  0
    5.8890    0.5670  -10.4800 H   0  0  0  0  0  0  0  0  0  0  0  0
    7.2590   -0.2280   -9.8820 H   0  0  0  0  0  0  0  0  0  0  0  0
    7.0207    2.7864   -9.4973 H   0  0  0  0  0  0  0  0  0  0  0  0
    5.1856    2.4849   -9.3983 H   0  0  0  0  0  0  0  0  0  0  0  0
    5.9683    4.5315   -8.2309 H   0  0  0  0  0  0  0  0  0  0  0  0
    5.0741    3.3117   -7.2281 H   0  0  0  0  0  0  0  0  0  0  0  0
  1  2  1  0
  2  3  1  0
  2  4  1  0
  4  5  1  0
  5  6  1  0
  6  7  1  0
  7  8  2  0
  7  9  1  0
  9 10  1  0
 10 11  1  0
 11 12  2  0
 11 13  1  0
  9 14  1  0
 14 15  1  0
 15 16  2  0
 15 17  1  0
 17 18  1  0
 17 19  1  0
 19 20  1  0
 20 21  1  0
 21 22  2  0
 21 23  1  0
  5 24  1  0
 24 25  2  0
 24 26  1  0
  1 27  1  0
  1 28  1  0
  1 29  1  0
  2 30  1  0
  3 31  1  0
  3 32  1  0
  3 33  1  0
  4 34  1  0
  4 35  1  0
  5 36  1  1
  6 37  1  0
  9 38  1  6
 10 39  1  0
 10 40  1  0
 14 41  1  0
 17 42  1  1
 18 43  1  0
 18 44  1  0
 18 45  1  0
 19 46  1  0
 19 47  1  0
 20 48  1  0
 20 49  1  0
M  CHG  4  13  -1  18   1  23  -1  26  -1
M  END
>  <meeko>  (6) 
{"is_sidechain": [false], "free_energy": -6.1, "intermolecular_energy": -10.159, "internal_energy": -2.127}

$$$$
1a30_ligand
     RDKit          3D

 49 48  0  0  0  0  0  0  0  0999 V2000
    5.9700   -4.8560   -7.6330 C   0  0  0  0  0  0  0  0  0  0  0  0
    6.1990   -3.4360   -7.1010 C   0  0  0  0  0  0  0  0  0  0  0  0
    6.7490   -3.5110   -5.6760 C   0  0  0  0  0  0  0  0  0  0  0  0
    7.1440   -2.6720   -8.0510 C   0  0  0  0  0  0  0  0  0  0  0  0
    6.5850   -1.3600   -8.6300 C   0  0  2  0  0  0  0  0  0  0  0  0
    6.1480   -0.4460   -7.5540 N   0  0  0  0  0  0  0  0  0  0  0  0
    5.9850    0.9100   -7.6980 C   0  0  0  0  0  0  0  0  0  0  0  0
    6.2520    1.5170   -8.7370 O   0  0  0  0  0  0  0  0  0  0  0  0
    5.4190    1.6210   -6.4480 C   0  0  2  0  0  0  0  0  0  0  0  0
    5.4040    3.1370   -6.6700 C   0  0  0  0  0  0  0  0  0  0  0  0
    6.6220    3.7470   -6.0080 C   0  0  0  0  0  0  0  0  0  0  0  0
    6.4210    4.2270   -4.8430 O   0  0  0  0  0  0  0  0  0  0  0  0
    7.6830    3.7990   -6.6770 O   0  0  0  0  0  0  0  0  0  0  0  0
    6.2600    1.2620   -5.3000 N   0  0  0  0  0  0  0  0  0  0  0  0
    5.8380    0.3610   -4.3460 C   0  0  0  0  0  0  0  0  0  0  0  0
    5.0070   -0.5180   -4.5660 O   0  0  0  0  0  0  0  0  0  0  0  0
    6.4330    0.6220   -2.9400 C   0  0  1  0  0  0  0  0  0  0  0  0
    6.5440    2.0830   -2.7060 N   0  0  0  0  0  0  0  0  0  0  0  0
    5.5750   -0.0290   -1.8370 C   0  0  0  0  0  0  0  0  0  0  0  0
    6.1310   -0.0400   -0.4100 C   0  0  0  0  0  0  0  0  0  0  0  0
    5.4640    1.0080    0.4680 C   0  0  0  0  0  0  0  0  0  0  0  0
    5.9150    2.1780    0.2700 O   0  0  0  0  0  0  0  0  0  0  0  0
    4.6130    0.5890    1.2860 O   0  0  0  0  0  0  0  0  0  0  0  0
    5.3890   -1.7940   -9.5490 C   0  0  0  0  0  0  0  0  0  0  0  0
    4.2290   -1.5810   -9.0910 O   0  0  0  0  0  0  0  0  0  0  0  0
    5.7390   -2.3180  -10.6520 O   0  0  0  0  0  0  0  0  0  0  0  0
    5.8580   -5.5507   -6.7875 H   0  0  0  0  0  0  0  0  0  0  0  0
    5.0572   -4.8749   -8.2465 H   0  0  0  0  0  0  0  0  0  0  0  0
    6.8306   -5.1609   -8.2465 H   0  0  0  0  0  0  0  0  0  0  0  0
    5.2491   -2.8824   -7.0652 H   0  0  0  0  0  0  0  0  0  0  0  0
    5.9234   -3.3984   -4.9579 H   0  0  0  0  0  0  0  0  0  0  0  0
    7.2383   -4.4842   -5.5226 H   0  0  0  0  0  0  0  0  0  0  0  0
    7.4810   -2.7044   -5.5226 H   0  0  0  0  0  0  0  0  0  0  0  0
    8.0623   -2.4325   -7.4948 H   0  0  0  0  0  0  0  0  0  0  0  0
    7.3070   -3.3363   -8.9125 H   0  0  0  0  0  0  0  0  0  0  0  0
    7.3444   -0.8018   -9.1972 H   0  0  0  0  0  0  0  0  0  0  0  0
    5.6760   -0.9460   -6.8010 H   0  0  0  0  0  0  0  0  0  0  0  0
    4.3832    1.3037   -6.2569 H   0  0  0  0  0  0  0  0  0  0  0  0
    5.4248    3.3515   -7.7487 H   0  0  0  0  0  0  0  0  0  0  0  0
    4.4905    3.5665   -6.2328 H   0  0  0  0  0  0  0  0  0  0  0  0
    6.9380    1.9760   -5.0530 H   0  0  0  0  0  0  0  0  0  0  0  0
    7.4336    0.1669   -2.9000 H   0  0  0  0  0  0  0  0  0  0  0  0
    5.7130    2.6200   -3.0710 H   0  0  0  0  0  0  0  0  0  0  0  0
    6.5760    2.3520   -1.7250 H   0  0  0  0  0  0  0  0  0  0  0  0
    7.3860    2.4530   -3.2080 H   0  0  0  0  0  0  0  0  0  0  0  0
    4.6144    0.5064   -1.8103 H   0  0  0  0  0  0  0  0  0  0  0  0
    5.5204   -1.0905   -2.1202 H   0  0  0  0  0  0  0  0  0  0  0  0
    5.9602   -1.0335    0.0303 H   0  0  0  0  0  0  0  0  0  0  0  0
    7.2049    0.1924   -0.4613 H   0  0  0  0  0  0  0  0  0  0  0  0
  1  2  1  0
  2  3  1  0
  2  4  1  0
  4  5  1  0
  5  6  1  0
  6  7  1  0
  7  8  2  0
  7  9  1  0
  9 10  1  0
 10 11  1  0
 11 12  2  0
 11 13  1  0
  9 14  1  0
 14 15  1  0
 15 16  2  0
 15 17  1  0
 17 18  1  0
 17 19  1  0
 19 20  1  0
 20 21  1  0
 21 22  2  0
 21 23  1  0
  5 24  1  0
 24 25  2  0
 24 26  1  0
  1 27  1  0
  1 28  1  0
  1 29  1  0
  2 30  1  0
  3 31  1  0
  3 32  1  0
  3 33  1  0
  4 34  1  0
  4 35  1  0
  5 36  1  6
  6 37  1  0
  9 38  1  1
 10 39  1  0
 10 40  1  0
 14 41  1  0
 17 42  1  6
 18 43  1  0
 18 44  1  0
 18 45  1  0
 19 46  1  0
 19 47  1  0
 20 48  1  0
 20 49  1  0
M  CHG  4  13  -1  18   1  23  -1  26  -1
M  END
>  <meeko>  (7) 
{"is_sidechain": [false], "free_energy": -6.03, "intermolecular_energy": -10.02, "internal_energy": -2.147}

$$$$
1a30_ligand
     RDKit          3D

 49 48  0  0  0  0  0  0  0  0999 V2000
    6.9470    4.2910    8.2830 C   0  0  0  0  0  0  0  0  0  0  0  0
    8.2320    4.4020    7.4550 C   0  0  0  0  0  0  0  0  0  0  0  0
    9.0050    3.0860    7.5390 C   0  0  0  0  0  0  0  0  0  0  0  0
    7.8830    4.7810    6.0010 C   0  0  0  0  0  0  0  0  0  0  0  0
    6.4620    4.4050    5.5400 C   0  0  2  0  0  0  0  0  0  0  0  0
    6.4880    3.2420    4.6290 N   0  0  0  0  0  0  0  0  0  0  0  0
    6.2510    1.9440    5.0120 C   0  0  0  0  0  0  0  0  0  0  0  0
    6.0550    1.6090    6.1810 O   0  0  0  0  0  0  0  0  0  0  0  0
    6.2350    0.9280    3.8480 C   0  0  2  0  0  0  0  0  0  0  0  0
    7.1110   -0.2800    4.1950 C   0  0  0  0  0  0  0  0  0  0  0  0
    7.0040   -1.3050    3.0860 C   0  0  0  0  0  0  0  0  0  0  0  0
    8.0090   -1.3590    2.3010 O   0  0  0  0  0  0  0  0  0  0  0  0
    5.9290   -1.9450    2.9870 O   0  0  0  0  0  0  0  0  0  0  0  0
    6.7240    1.6080    2.6420 N   0  0  0  0  0  0  0  0  0  0  0  0
    5.9490    1.7170    1.5070 C   0  0  0  0  0  0  0  0  0  0  0  0
    4.7210    1.6910    1.5210 O   0  0  0  0  0  0  0  0  0  0  0  0
    6.7740    1.7740    0.1980 C   0  0  1  0  0  0  0  0  0  0  0  0
    7.3530    0.4380   -0.0890 N   0  0  0  0  0  0  0  0  0  0  0  0
    5.9100    2.2440   -0.9900 C   0  0  0  0  0  0  0  0  0  0  0  0
    6.6040    2.4680   -2.3360 C   0  0  0  0  0  0  0  0  0  0  0  0
    5.9420    3.5780   -3.1400 C   0  0  0  0  0  0  0  0  0  0  0  0
    5.1170    4.2580   -2.4550 O   0  0  0  0  0  0  0  0  0  0  0  0
    6.2480    3.6460   -4.3520 O   0  0  0  0  0  0  0  0  0  0  0  0
    5.9100    5.6910    4.8290 C   0  0  0  0  0  0  0  0  0  0  0  0
    5.5640    6.6420    5.5890 O   0  0  0  0  0  0  0  0  0  0  0  0
    5.8730    5.6150    3.5620 O   0  0  0  0  0  0  0  0  0  0  0  0
    7.1978    4.3127    9.3538 H   0  0  0  0  0  0  0  0  0  0  0  0
    6.2832    5.1351    8.0447 H   0  0  0  0  0  0  0  0  0  0  0  0
    6.4378    3.3455    8.0447 H   0  0  0  0  0  0  0  0  0  0  0  0
    8.8779    5.1967    7.8565 H   0  0  0  0  0  0  0  0  0  0  0  0
    9.1616    2.8195    8.5947 H   0  0  0  0  0  0  0  0  0  0  0  0
    8.4304    2.2909    7.0414 H   0  0  0  0  0  0  0  0  0  0  0  0
    9.9793    3.2006    7.0414 H   0  0  0  0  0  0  0  0  0  0  0  0
    7.9953    5.8705    5.8986 H   0  0  0  0  0  0  0  0  0  0  0  0
    8.5695    4.2025    5.3653 H   0  0  0  0  0  0  0  0  0  0  0  0
    5.8198    4.1035    6.3807 H   0  0  0  0  0  0  0  0  0  0  0  0
    6.3780    3.5200    3.6540 H   0  0  0  0  0  0  0  0  0  0  0  0
    5.2144    0.5576    3.6713 H   0  0  0  0  0  0  0  0  0  0  0  0
    8.1577    0.0419    4.2992 H   0  0  0  0  0  0  0  0  0  0  0  0
    6.7720   -0.7232    5.1430 H   0  0  0  0  0  0  0  0  0  0  0  0
    7.7360    1.6210    2.5640 H   0  0  0  0  0  0  0  0  0  0  0  0
    7.5855    2.5040    0.3345 H   0  0  0  0  0  0  0  0  0  0  0  0
    7.8640    0.4030   -1.0100 H   0  0  0  0  0  0  0  0  0  0  0  0
    8.0610    0.1340    0.5760 H   0  0  0  0  0  0  0  0  0  0  0  0
    6.5830   -0.2700   -0.1430 H   0  0  0  0  0  0  0  0  0  0  0  0
    5.1283    1.4861   -1.1466 H   0  0  0  0  0  0  0  0  0  0  0  0
    5.5534    3.2416   -0.6941 H   0  0  0  0  0  0  0  0  0  0  0  0
    7.6543    2.7394   -2.1534 H   0  0  0  0  0  0  0  0  0  0  0  0
    6.5293    1.5366   -2.9164 H   0  0  0  0  0  0  0  0  0  0  0  0
  1  2  1  0
  2  3  1  0
  2  4  1  0
  4  5  1  0
  5  6  1  0
  6  7  1  0
  7  8  2  0
  7  9  1  0
  9 10  1  0
 10 11  1  0
 11 12  2  0
 11 13  1  0
  9 14  1  0
 14 15  1  0
 15 16  2  0
 15 17  1  0
 17 18  1  0
 17 19  1  0
 19 20  1  0
 20 21  1  0
 21 22  2  0
 21 23  1  0
  5 24  1  0
 24 25  2  0
 24 26  1  0
  1 27  1  0
  1 28  1  0
  1 29  1  0
  2 30  1  0
  3 31  1  0
  3 32  1  0
  3 33  1  0
  4 34  1  0
  4 35  1  0
  5 36  1  1
  6 37  1  0
  9 38  1  6
 10 39  1  0
 10 40  1  0
 14 41  1  0
 17 42  1  1
 18 43  1  0
 18 44  1  0
 18 45  1  0
 19 46  1  0
 19 47  1  0
 20 48  1  0
 20 49  1  0
M  CHG  4  13  -1  18   1  23  -1  26  -1
M  END
>  <meeko>  (8) 
{"is_sidechain": [false], "free_energy": -6.02, "intermolecular_energy": -10.451, "internal_energy": -1.697}

$$$$
1a30_ligand
     RDKit          3D

 49 48  0  0  0  0  0  0  0  0999 V2000
    5.3030   -2.5960   -9.9670 C   0  0  0  0  0  0  0  0  0  0  0  0
    6.7700   -2.7420   -9.5490 C   0  0  0  0  0  0  0  0  0  0  0  0
    7.6360   -1.8210  -10.4090 C   0  0  0  0  0  0  0  0  0  0  0  0
    6.9140   -2.4370   -8.0430 C   0  0  0  0  0  0  0  0  0  0  0  0
    5.6120   -2.5040   -7.2240 C   0  0  2  0  0  0  0  0  0  0  0  0
    5.4850   -1.3360   -6.3290 N   0  0  0  0  0  0  0  0  0  0  0  0
    5.2800   -0.0450   -6.7520 C   0  0  0  0  0  0  0  0  0  0  0  0
    5.2450    0.2800   -7.9400 O   0  0  0  0  0  0  0  0  0  0  0  0
    5.0790    0.9770   -5.6100 C   0  0  2  0  0  0  0  0  0  0  0  0
    5.0770    2.4000   -6.1760 C   0  0  0  0  0  0  0  0  0  0  0  0
    6.4290    3.0350   -5.9260 C   0  0  0  0  0  0  0  0  0  0  0  0
    6.5010    3.7590   -4.8780 O   0  0  0  0  0  0  0  0  0  0  0  0
    7.3210    2.8640   -6.7930 O   0  0  0  0  0  0  0  0  0  0  0  0
    6.1640    0.7940   -4.6390 N   0  0  0  0  0  0  0  0  0  0  0  0
    5.9390    0.2380   -3.3970 C   0  0  0  0  0  0  0  0  0  0  0  0
    5.0110   -0.5300   -3.1580 O   0  0  0  0  0  0  0  0  0  0  0  0
    6.9090    0.7500   -2.3040 C   0  0  1  0  0  0  0  0  0  0  0  0
    6.9090    2.2340   -2.2890 N   0  0  0  0  0  0  0  0  0  0  0  0
    6.5280    0.2040   -0.9130 C   0  0  0  0  0  0  0  0  0  0  0  0
    6.8270    1.0800    0.3060 C   0  0  0  0  0  0  0  0  0  0  0  0
    5.6390    1.1610    1.2540 C   0  0  0  0  0  0  0  0  0  0  0  0
    5.3480    0.0410    1.7780 O   0  0  0  0  0  0  0  0  0  0  0  0
    5.0840    2.2790    1.3550 O   0  0  0  0  0  0  0  0  0  0  0  0
    5.7020   -3.8490   -6.4210 C   0  0  0  0  0  0  0  0  0  0  0  0
    6.0340   -3.7490   -5.2030 O   0  0  0  0  0  0  0  0  0  0  0  0
    5.4320   -4.8860   -7.1020 O   0  0  0  0  0  0  0  0  0  0  0  0
    4.6705   -2.5330   -9.0693 H   0  0  0  0  0  0  0  0  0  0  0  0
    5.1817   -1.6813  -10.5659 H   0  0  0  0  0  0  0  0  0  0  0  0
    5.0038   -3.4688  -10.5659 H   0  0  0  0  0  0  0  0  0  0  0  0
    7.1133   -3.7744   -9.7111 H   0  0  0  0  0  0  0  0  0  0  0  0
    8.2433   -1.1752   -9.7577 H   0  0  0  0  0  0  0  0  0  0  0  0
    8.2982   -2.4279  -11.0440 H   0  0  0  0  0  0  0  0  0  0  0  0
    6.9896   -1.1974  -11.0440 H   0  0  0  0  0  0  0  0  0  0  0  0
    7.6202   -3.1644   -7.6163 H   0  0  0  0  0  0  0  0  0  0  0  0
    7.2572   -1.3939   -7.9784 H   0  0  0  0  0  0  0  0  0  0  0  0
    4.7183   -2.4790   -7.8648 H   0  0  0  0  0  0  0  0  0  0  0  0
    5.2430   -1.6110   -5.3770 H   0  0  0  0  0  0  0  0  0  0  0  0
    4.1113    0.8173   -5.1120 H   0  0  0  0  0  0  0  0  0  0  0  0
    4.8805    2.3658   -7.2578 H   0  0  0  0  0  0  0  0  0  0  0  0
    4.2923    2.9933   -5.6838 H   0  0  0  0  0  0  0  0  0  0  0  0
    6.9400    1.4350   -4.7700 H   0  0  0  0  0  0  0  0  0  0  0  0
    7.9191    0.3855   -2.5425 H   0  0  0  0  0  0  0  0  0  0  0  0
    7.2250    2.6530   -3.2020 H   0  0  0  0  0  0  0  0  0  0  0  0
    5.9920    2.6550   -2.1510 H   0  0  0  0  0  0  0  0  0  0  0  0
    7.5740    2.5740   -1.5540 H   0  0  0  0  0  0  0  0  0  0  0  0
    5.4448    0.0129   -0.9214 H   0  0  0  0  0  0  0  0  0  0  0  0
    7.1664   -0.6818   -0.7797 H   0  0  0  0  0  0  0  0  0  0  0  0
    7.6851    0.6548    0.8472 H   0  0  0  0  0  0  0  0  0  0  0  0
    7.0468    2.0968   -0.0515 H   0  0  0  0  0  0  0  0  0  0  0  0
  1  2  1  0
  2  3  1  0
  2  4  1  0
  4  5  1  0
  5  6  1  0
  6  7  1  0
  7  8  2  0
  7  9  1  0
  9 10  1  0
 10 11  1  0
 11 12  2  0
 11 13  1  0
  9 14  1  0
 14 15  1  0
 15 16  2  0
 15 17  1  0
 17 18  1  0
 17 19  1  0
 19 20  1  0
 20 21  1  0
 21 22  2  0
 21 23  1  0
  5 24  1  0
 24 25  2  0
 24 26  1  0
  1 27  1  0
  1 28  1  0
  1 29  1  0
  2 30  1  0
  3 31  1  0
  3 32  1  0
  3 33  1  0
  4 34  1  0
  4 35  1  0
  5 36  1  6
  6 37  1  0
  9 38  1  1
 10 39  1  0
 10 40  1  0
 14 41  1  0
 17 42  1  6
 18 43  1  0
 18 44  1  0
 18 45  1  0
 19 46  1  0
 19 47  1  0
 20 48  1  0
 20 49  1  0
M  CHG  4  13  -1  18   1  23  -1  26  -1
M  END
>  <meeko>  (9) 
{"is_sidechain": [false], "free_energy": -6.005, "intermolecular_energy": -10.273, "internal_energy": -1.85}

$$$$
