
     RDKit          3D

 24 26  0  0  0  0  0  0  0  0999 V2000
    2.2450   28.3130   -2.7040 C   0  0  0  0  0  0  0  0  0  0  0  0
    1.6560   28.4670   -4.0950 C   0  0  1  0  0  0  0  0  0  0  0  0
    2.5130   27.7790   -5.1230 C   0  0  0  0  0  0  0  0  0  0  0  0
    1.8750   27.8120   -6.5160 C   0  0  0  0  0  0  0  0  0  0  0  0
    0.5090   27.3200   -6.4660 N   0  0  0  0  0  0  0  0  0  0  0  0
    0.0260   26.2000   -7.0720 C   0  0  0  0  0  0  0  0  0  0  0  0
    0.7670   25.4090   -7.9630 C   0  0  0  0  0  0  0  0  0  0  0  0
    0.1320   24.2590   -8.4820 C   0  0  0  0  0  0  0  0  0  0  0  0
    0.7670   23.3450   -9.3980 C   0  0  0  0  0  0  0  0  0  0  0  0
    1.0770   23.7240  -10.7060 C   0  0  0  0  0  0  0  0  0  0  0  0
    1.6270   22.7800  -11.5930 C   0  0  0  0  0  0  0  0  0  0  0  0
    1.8610   21.4870  -11.1860 C   0  0  0  0  0  0  0  0  0  0  0  0
    2.4100   20.4870  -12.1400 C   0  0  2  0  0  0  0  0  0  0  0  0
    2.5680   19.2970  -11.5740 F   0  0  0  0  0  0  0  0  0  0  0  0
    3.5710   20.8370  -12.6030 F   0  0  0  0  0  0  0  0  0  0  0  0
    1.5930   20.3160  -13.1520 F   0  0  0  0  0  0  0  0  0  0  0  0
    1.5690   21.1200   -9.8900 C   0  0  0  0  0  0  0  0  0  0  0  0
    1.0100   22.0530   -8.9940 C   0  0  0  0  0  0  0  0  0  0  0  0
   -1.1130   23.9590   -8.1270 N   0  0  0  0  0  0  0  0  0  0  0  0
   -1.7510   24.7720   -7.2910 C   0  0  0  0  0  0  0  0  0  0  0  0
   -3.0200   24.4410   -6.9500 N   0  0  0  0  0  0  0  0  0  0  0  0
   -1.2240   25.8700   -6.7700 N   0  0  0  0  0  0  0  0  0  0  0  0
   -0.3370   28.0280   -5.5170 C   0  0  0  0  0  0  0  0  0  0  0  0
    0.2510   27.9240   -4.1160 C   0  0  0  0  0  0  0  0  0  0  0  0
  2  1  1  1
  3  2  1  0
  4  3  1  0
  5  4  1  0
  6  5  1  0
  7  6  2  0
  8  7  1  0
  9  8  1  0
 10  9  2  0
 11 10  1  0
 12 11  2  0
 13 12  1  0
 13 14  1  1
 15 13  1  0
 16 13  1  0
 17 12  1  0
 18 17  2  0
 18  9  1  0
 19  8  2  0
 20 19  1  0
 21 20  1  0
 22 20  2  0
 22  6  1  0
 23  5  1  0
 24 23  1  0
 24  2  1  0
M  END
$$$$
