
     RDKit          3D

 21 21  0  0  0  0  0  0  0  0999 V2000
   -6.1430    9.2150   12.2590 C   0  0  0  0  0  0  0  0  0  0  0  0
   -7.3340    9.0750   13.2140 C   0  0  2  0  0  0  0  0  0  0  0  0
   -8.5920    9.1320   12.3980 C   0  0  0  0  0  0  0  0  0  0  0  0
   -7.3160   10.2380   14.1910 C   0  0  0  0  0  0  0  0  0  0  0  0
   -7.2000    7.7840   14.0140 C   0  0  0  0  0  0  0  0  0  0  0  0
   -6.0500    7.5130   14.6180 O   0  0  0  0  0  0  0  0  0  0  0  0
   -6.1640    6.3910   15.2990 N   0  0  0  0  0  0  0  0  0  0  0  0
   -7.4100    5.9210   15.1550 C   0  0  0  0  0  0  0  0  0  0  0  0
   -7.9110    4.8290   15.7830 O   0  0  0  0  0  0  0  0  0  0  0  0
   -7.0250    3.7710   16.0690 C   0  0  0  0  0  0  0  0  0  0  0  0
   -5.9700    4.0730   17.5040 P   0  0  0  0  0  0  0  0  0  0  0  0
   -5.6280    2.7500   18.1050 O   0  0  0  0  0  0  0  0  0  0  0  0
   -4.7370    4.7420   17.0020 O   0  0  0  0  0  0  0  0  0  0  0  0
   -6.7400    4.9250   18.4600 O   0  0  0  0  0  0  0  0  0  0  0  0
   -8.1210    6.7570   14.3360 C   0  0  0  0  0  0  0  0  0  0  0  0
   -9.5410    6.5810   13.8990 C   0  0  0  0  0  0  0  0  0  0  0  0
   -9.6400    5.3250   12.9890 C   0  0  2  0  0  0  0  0  0  0  0  0
   -8.9980    5.6250   11.6690 N   0  0  0  0  0  0  0  0  0  0  0  0
  -11.0980    4.8860   12.7830 C   0  0  0  0  0  0  0  0  0  0  0  0
  -11.7850    4.6090   13.7580 O   0  0  0  0  0  0  0  0  0  0  0  0
  -11.5200    4.7440   11.6140 O   0  0  0  0  0  0  0  0  0  0  0  0
  2  1  1  6
  3  2  1  0
  4  2  1  0
  5  2  1  0
  6  5  1  0
  7  6  1  0
  8  7  2  0
  9  8  1  0
 10  9  1  0
 11 10  1  0
 12 11  2  0
 13 11  1  0
 14 11  1  0
 15  8  1  0
 15  5  2  0
 16 15  1  0
 17 16  1  0
 17 18  1  6
 19 17  1  0
 20 19  1  0
 21 19  2  0
M  CHG  4  13  -1  14  -1  18   1  20  -1
M  END
$$$$
