3l7b_ligand
     RDKit          3D

 34 35  0  0  0  0  0  0  0  0999 V2000
    5.3150  -27.4620  -24.0750 N   0  0  0  0  0  0  0  0  0  0  0  0
    4.9490  -27.1000  -22.8680 C   0  0  0  0  0  0  0  0  0  0  0  0
    4.1490  -25.7980  -22.7050 C   0  0  0  0  0  0  0  0  0  0  0  0
    3.7640  -25.4420  -21.4780 C   0  0  0  0  0  0  0  0  0  0  0  0
    4.0700  -26.2280  -20.3810 N   0  0  0  0  0  0  0  0  0  0  0  0
    3.6740  -25.8100  -19.0280 C   0  0  2  0  0  0  0  0  0  0  0  0
    2.3290  -25.3040  -19.0820 O   0  0  0  0  0  0  0  0  0  0  0  0
    2.0070  -24.5260  -17.9280 C   0  0  2  0  0  0  0  0  0  0  0  0
    0.4960  -24.2670  -17.8860 C   0  0  0  0  0  0  0  0  0  0  0  0
    0.2180  -23.1070  -17.1080 O   0  0  0  0  0  0  0  0  0  0  0  0
    2.7860  -23.1970  -17.9510 C   0  0  1  0  0  0  0  0  0  0  0  0
    2.8530  -22.6340  -16.6380 O   0  0  0  0  0  0  0  0  0  0  0  0
    4.1990  -23.3830  -18.5100 C   0  0  2  0  0  0  0  0  0  0  0  0
    4.2010  -23.0480  -19.8360 F   0  0  0  0  0  0  0  0  0  0  0  0
    4.6960  -24.8210  -18.3890 C   0  0  1  0  0  0  0  0  0  0  0  0
    4.9070  -25.1870  -17.0170 O   0  0  0  0  0  0  0  0  0  0  0  0
    4.8220  -27.3840  -20.4660 C   0  0  0  0  0  0  0  0  0  0  0  0
    5.1960  -28.1150  -19.5700 O   0  0  0  0  0  0  0  0  0  0  0  0
    5.2170  -27.7640  -21.7740 N   0  0  0  0  0  0  0  0  0  0  0  0
    4.6250  -27.7240  -24.7700 H   0  0  0  0  0  0  0  0  0  0  0  0
    6.2860  -27.4950  -24.3560 H   0  0  0  0  0  0  0  0  0  0  0  0
    3.9002  -25.1757  -23.5772 H   0  0  0  0  0  0  0  0  0  0  0  0
    3.1956  -24.5109  -21.3366 H   0  0  0  0  0  0  0  0  0  0  0  0
    3.6870  -26.6771  -18.3512 H   0  0  0  0  0  0  0  0  0  0  0  0
    2.2963  -25.0801  -17.0229 H   0  0  0  0  0  0  0  0  0  0  0  0
    0.1246  -24.1153  -18.9102 H   0  0  0  0  0  0  0  0  0  0  0  0
   -0.0045  -25.1339  -17.4299 H   0  0  0  0  0  0  0  0  0  0  0  0
    0.5960  -22.3450  -17.5880 H   0  0  0  0  0  0  0  0  0  0  0  0
    2.2437  -22.5072  -18.6144 H   0  0  0  0  0  0  0  0  0  0  0  0
    2.0320  -22.9200  -16.1760 H   0  0  0  0  0  0  0  0  0  0  0  0
    4.8672  -22.7374  -17.9212 H   0  0  0  0  0  0  0  0  0  0  0  0
    5.6545  -24.8818  -18.9252 H   0  0  0  0  0  0  0  0  0  0  0  0
    4.1440  -25.7090  -16.7030 H   0  0  0  0  0  0  0  0  0  0  0  0
    5.7490  -28.6190  -21.8200 H   0  0  0  0  0  0  0  0  0  0  0  0
  1  2  1  0
  2  3  1  0
  3  4  2  0
  4  5  1  0
  5  6  1  0
  6  7  1  0
  7  8  1  0
  8  9  1  0
  9 10  1  0
  8 11  1  0
 11 12  1  0
 11 13  1  0
 13 14  1  0
 13 15  1  0
 15 16  1  0
  5 17  1  0
 17 18  2  0
 17 19  1  0
 19  2  2  0
 15  6  1  0
  1 20  1  0
  1 21  1  0
  3 22  1  0
  4 23  1  0
  6 24  1  1
  8 25  1  1
  9 26  1  0
  9 27  1  0
 10 28  1  0
 11 29  1  6
 12 30  1  0
 13 31  1  1
 15 32  1  6
 16 33  1  0
 19 34  1  0
M  CHG  1  19   1
M  END
>  <meeko>  (1) 
{"is_sidechain": [false], "free_energy": -7.023, "intermolecular_energy": -8.665, "internal_energy": -0.434}

$$$$
3l7b_ligand
     RDKit          3D

 34 35  0  0  0  0  0  0  0  0999 V2000
    5.4280  -27.4150  -23.9320 N   0  0  0  0  0  0  0  0  0  0  0  0
    4.9590  -27.0950  -22.7480 C   0  0  0  0  0  0  0  0  0  0  0  0
    4.1700  -25.7840  -22.6040 C   0  0  0  0  0  0  0  0  0  0  0  0
    3.6810  -25.4710  -21.4030 C   0  0  0  0  0  0  0  0  0  0  0  0
    3.8710  -26.3060  -20.3170 N   0  0  0  0  0  0  0  0  0  0  0  0
    3.3600  -25.9350  -18.9890 C   0  0  2  0  0  0  0  0  0  0  0  0
    2.2240  -26.7650  -18.6890 O   0  0  0  0  0  0  0  0  0  0  0  0
    1.4370  -26.2240  -17.6260 C   0  0  2  0  0  0  0  0  0  0  0  0
    0.4290  -27.2760  -17.1460 C   0  0  0  0  0  0  0  0  0  0  0  0
   -0.8990  -26.8500  -17.4370 O   0  0  0  0  0  0  0  0  0  0  0  0
    0.7110  -24.9500  -18.0990 C   0  0  1  0  0  0  0  0  0  0  0  0
    0.3170  -24.1560  -16.9770 O   0  0  0  0  0  0  0  0  0  0  0  0
    1.5870  -24.1220  -19.0430 C   0  0  2  0  0  0  0  0  0  0  0  0
    1.2520  -24.4180  -20.3350 F   0  0  0  0  0  0  0  0  0  0  0  0
    3.0750  -24.4070  -18.8680 C   0  0  1  0  0  0  0  0  0  0  0  0
    3.5500  -23.9420  -17.5950 O   0  0  0  0  0  0  0  0  0  0  0  0
    4.6080  -27.4730  -20.3820 C   0  0  0  0  0  0  0  0  0  0  0  0
    4.8850  -28.2480  -19.4880 O   0  0  0  0  0  0  0  0  0  0  0  0
    5.1150  -27.8080  -21.6640 N   0  0  0  0  0  0  0  0  0  0  0  0
    6.1630  -26.8670  -24.3640 H   0  0  0  0  0  0  0  0  0  0  0  0
    5.0790  -28.2090  -24.4530 H   0  0  0  0  0  0  0  0  0  0  0  0
    4.0127  -25.1216  -23.4680 H   0  0  0  0  0  0  0  0  0  0  0  0
    3.1182  -24.5347  -21.2745 H   0  0  0  0  0  0  0  0  0  0  0  0
    4.1315  -26.1212  -18.2274 H   0  0  0  0  0  0  0  0  0  0  0  0
    2.0942  -25.9538  -16.7863 H   0  0  0  0  0  0  0  0  0  0  0  0
    0.6259  -28.2291  -17.6586 H   0  0  0  0  0  0  0  0  0  0  0  0
    0.5352  -27.4068  -16.0590 H   0  0  0  0  0  0  0  0  0  0  0  0
   -1.3770  -27.6270  -17.7860 H   0  0  0  0  0  0  0  0  0  0  0  0
   -0.1854  -25.2643  -18.6537 H   0  0  0  0  0  0  0  0  0  0  0  0
    1.1310  -23.6980  -16.6670 H   0  0  0  0  0  0  0  0  0  0  0  0
    1.4093  -23.0632  -18.8034 H   0  0  0  0  0  0  0  0  0  0  0  0
    3.6062  -23.8674  -19.6659 H   0  0  0  0  0  0  0  0  0  0  0  0
    2.7860  -23.7250  -17.0270 H   0  0  0  0  0  0  0  0  0  0  0  0
    5.6330  -28.6720  -21.6970 H   0  0  0  0  0  0  0  0  0  0  0  0
  1  2  1  0
  2  3  1  0
  3  4  2  0
  4  5  1  0
  5  6  1  0
  6  7  1  0
  7  8  1  0
  8  9  1  0
  9 10  1  0
  8 11  1  0
 11 12  1  0
 11 13  1  0
 13 14  1  0
 13 15  1  0
 15 16  1  0
  5 17  1  0
 17 18  2  0
 17 19  1  0
 19  2  2  0
 15  6  1  0
  1 20  1  0
  1 21  1  0
  3 22  1  0
  4 23  1  0
  6 24  1  1
  8 25  1  1
  9 26  1  0
  9 27  1  0
 10 28  1  0
 11 29  1  6
 12 30  1  0
 13 31  1  1
 15 32  1  6
 16 33  1  0
 19 34  1  0
M  CHG  1  19   1
M  END
>  <meeko>  (2) 
{"is_sidechain": [false], "free_energy": -6.723, "intermolecular_energy": -8.504, "internal_energy": -0.225}

$$$$
3l7b_ligand
     RDKit          3D

 34 35  0  0  0  0  0  0  0  0999 V2000
    6.2810  -27.1690  -14.9880 N   0  0  0  0  0  0  0  0  0  0  0  0
    5.6690  -27.0740  -16.1450 C   0  0  0  0  0  0  0  0  0  0  0  0
    6.4520  -26.5140  -17.3430 C   0  0  0  0  0  0  0  0  0  0  0  0
    5.8310  -26.4340  -18.5210 C   0  0  0  0  0  0  0  0  0  0  0  0
    4.5200  -26.8510  -18.6640 N   0  0  0  0  0  0  0  0  0  0  0  0
    3.8320  -26.7250  -19.9570 C   0  0  2  0  0  0  0  0  0  0  0  0
    4.7720  -27.0180  -21.0050 O   0  0  0  0  0  0  0  0  0  0  0  0
    4.3170  -26.5470  -22.2750 C   0  0  2  0  0  0  0  0  0  0  0  0
    5.1920  -27.1390  -23.3870 C   0  0  0  0  0  0  0  0  0  0  0  0
    5.1870  -26.2800  -24.5240 O   0  0  0  0  0  0  0  0  0  0  0  0
    4.3560  -25.0070  -22.3130 C   0  0  1  0  0  0  0  0  0  0  0  0
    3.4960  -24.5120  -23.3420 O   0  0  0  0  0  0  0  0  0  0  0  0
    3.9580  -24.4010  -20.9650 C   0  0  2  0  0  0  0  0  0  0  0  0
    5.0910  -24.1020  -20.2590 F   0  0  0  0  0  0  0  0  0  0  0  0
    3.1150  -25.3500  -20.1180 C   0  0  1  0  0  0  0  0  0  0  0  0
    1.8210  -25.5620  -20.7020 O   0  0  0  0  0  0  0  0  0  0  0  0
    3.7580  -27.3210  -17.6120 C   0  0  0  0  0  0  0  0  0  0  0  0
    2.5900  -27.6580  -17.6100 O   0  0  0  0  0  0  0  0  0  0  0  0
    4.4270  -27.4160  -16.3640 N   0  0  0  0  0  0  0  0  0  0  0  0
    5.9130  -27.7630  -14.2530 H   0  0  0  0  0  0  0  0  0  0  0  0
    7.1310  -26.6590  -14.7850 H   0  0  0  0  0  0  0  0  0  0  0  0
    7.4967  -26.1878  -17.2321 H   0  0  0  0  0  0  0  0  0  0  0  0
    6.3694  -26.0305  -19.3912 H   0  0  0  0  0  0  0  0  0  0  0  0
    3.0136  -27.4577  -20.0157 H   0  0  0  0  0  0  0  0  0  0  0  0
    3.2774  -26.8697  -22.4332 H   0  0  0  0  0  0  0  0  0  0  0  0
    6.2227  -27.2494  -23.0190 H   0  0  0  0  0  0  0  0  0  0  0  0
    4.7906  -28.1214  -23.6763 H   0  0  0  0  0  0  0  0  0  0  0  0
    6.0670  -25.8600  -24.5660 H   0  0  0  0  0  0  0  0  0  0  0  0
    5.3918  -24.7067  -22.5297 H   0  0  0  0  0  0  0  0  0  0  0  0
    2.6120  -24.9090  -23.1750 H   0  0  0  0  0  0  0  0  0  0  0  0
    3.3571  -23.5047  -21.1785 H   0  0  0  0  0  0  0  0  0  0  0  0
    2.9876  -24.8813  -19.1310 H   0  0  0  0  0  0  0  0  0  0  0  0
    1.3040  -26.1610  -20.1310 H   0  0  0  0  0  0  0  0  0  0  0  0
    3.8620  -27.7780  -15.6120 H   0  0  0  0  0  0  0  0  0  0  0  0
  1  2  1  0
  2  3  1  0
  3  4  2  0
  4  5  1  0
  5  6  1  0
  6  7  1  0
  7  8  1  0
  8  9  1  0
  9 10  1  0
  8 11  1  0
 11 12  1  0
 11 13  1  0
 13 14  1  0
 13 15  1  0
 15 16  1  0
  5 17  1  0
 17 18  2  0
 17 19  1  0
 19  2  2  0
 15  6  1  0
  1 20  1  0
  1 21  1  0
  3 22  1  0
  4 23  1  0
  6 24  1  1
  8 25  1  6
  9 26  1  0
  9 27  1  0
 10 28  1  0
 11 29  1  6
 12 30  1  0
 13 31  1  6
 15 32  1  1
 16 33  1  0
 19 34  1  0
M  CHG  1  19   1
M  END
>  <meeko>  (3) 
{"is_sidechain": [false], "free_energy": -6.698, "intermolecular_energy": -8.211, "internal_energy": -0.488}

$$$$
3l7b_ligand
     RDKit          3D

 34 35  0  0  0  0  0  0  0  0999 V2000
   -1.6930  -25.4920  -15.8560 N   0  0  0  0  0  0  0  0  0  0  0  0
   -0.5550  -25.4180  -16.5050 C   0  0  0  0  0  0  0  0  0  0  0  0
    0.1760  -26.7250  -16.8500 C   0  0  0  0  0  0  0  0  0  0  0  0
    1.3240  -26.6470  -17.5250 C   0  0  0  0  0  0  0  0  0  0  0  0
    1.8410  -25.4230  -17.9120 N   0  0  0  0  0  0  0  0  0  0  0  0
    3.1250  -25.3440  -18.6230 C   0  0  2  0  0  0  0  0  0  0  0  0
    3.2920  -26.5430  -19.4000 O   0  0  0  0  0  0  0  0  0  0  0  0
    4.6500  -26.7330  -19.8000 C   0  0  2  0  0  0  0  0  0  0  0  0
    4.7230  -27.8370  -20.8620 C   0  0  0  0  0  0  0  0  0  0  0  0
    5.0290  -29.0870  -20.2480 O   0  0  0  0  0  0  0  0  0  0  0  0
    5.5170  -27.0930  -18.5790 C   0  0  1  0  0  0  0  0  0  0  0  0
    6.8950  -26.8300  -18.8500 O   0  0  0  0  0  0  0  0  0  0  0  0
    5.0750  -26.3240  -17.3300 C   0  0  2  0  0  0  0  0  0  0  0  0
    4.2480  -27.1190  -16.5870 F   0  0  0  0  0  0  0  0  0  0  0  0
    4.3170  -25.0430  -17.6640 C   0  0  1  0  0  0  0  0  0  0  0  0
    5.1780  -24.0720  -18.2790 O   0  0  0  0  0  0  0  0  0  0  0  0
    1.2470  -24.2180  -17.5900 C   0  0  0  0  0  0  0  0  0  0  0  0
    1.6370  -23.0910  -17.8260 O   0  0  0  0  0  0  0  0  0  0  0  0
    0.0200  -24.3070  -16.8840 N   0  0  0  0  0  0  0  0  0  0  0  0
   -2.4280  -26.1190  -16.1640 H   0  0  0  0  0  0  0  0  0  0  0  0
   -1.8810  -24.9320  -15.0340 H   0  0  0  0  0  0  0  0  0  0  0  0
   -0.2365  -27.6991  -16.5483 H   0  0  0  0  0  0  0  0  0  0  0  0
    1.8677  -27.5692  -17.7777 H   0  0  0  0  0  0  0  0  0  0  0  0
    3.1163  -24.4870  -19.3126 H   0  0  0  0  0  0  0  0  0  0  0  0
    5.0373  -25.7989  -20.2329 H   0  0  0  0  0  0  0  0  0  0  0  0
    3.7536  -27.9118  -21.3765 H   0  0  0  0  0  0  0  0  0  0  0  0
    5.5125  -27.5885  -21.5865 H   0  0  0  0  0  0  0  0  0  0  0  0
    4.8600  -28.9830  -19.2920 H   0  0  0  0  0  0  0  0  0  0  0  0
    5.3850  -28.1675  -18.3838 H   0  0  0  0  0  0  0  0  0  0  0  0
    7.0610  -27.1560  -19.7640 H   0  0  0  0  0  0  0  0  0  0  0  0
    5.9873  -26.0504  -16.7797 H   0  0  0  0  0  0  0  0  0  0  0  0
    3.9357  -24.6333  -16.7170 H   0  0  0  0  0  0  0  0  0  0  0  0
    5.6100  -24.4730  -19.0570 H   0  0  0  0  0  0  0  0  0  0  0  0
   -0.4090  -23.4190  -16.6750 H   0  0  0  0  0  0  0  0  0  0  0  0
  1  2  1  0
  2  3  1  0
  3  4  2  0
  4  5  1  0
  5  6  1  0
  6  7  1  0
  7  8  1  0
  8  9  1  0
  9 10  1  0
  8 11  1  0
 11 12  1  0
 11 13  1  0
 13 14  1  0
 13 15  1  0
 15 16  1  0
  5 17  1  0
 17 18  2  0
 17 19  1  0
 19  2  2  0
 15  6  1  0
  1 20  1  0
  1 21  1  0
  3 22  1  0
  4 23  1  0
  6 24  1  6
  8 25  1  6
  9 26  1  0
  9 27  1  0
 10 28  1  0
 11 29  1  1
 12 30  1  0
 13 31  1  1
 15 32  1  1
 16 33  1  0
 19 34  1  0
M  CHG  1  19   1
M  END
>  <meeko>  (4) 
{"is_sidechain": [false], "free_energy": -6.648, "intermolecular_energy": -8.147, "internal_energy": -0.49}

$$$$
3l7b_ligand
     RDKit          3D

 34 35  0  0  0  0  0  0  0  0999 V2000
    2.7450  -23.6310  -23.3250 N   0  0  0  0  0  0  0  0  0  0  0  0
    3.1340  -24.4960  -22.4180 C   0  0  0  0  0  0  0  0  0  0  0  0
    2.9660  -24.1260  -20.9360 C   0  0  0  0  0  0  0  0  0  0  0  0
    3.3470  -25.0140  -20.0160 C   0  0  0  0  0  0  0  0  0  0  0  0
    3.8730  -26.2400  -20.3850 N   0  0  0  0  0  0  0  0  0  0  0  0
    4.3250  -27.1980  -19.3660 C   0  0  2  0  0  0  0  0  0  0  0  0
    3.4240  -27.1320  -18.2460 O   0  0  0  0  0  0  0  0  0  0  0  0
    3.9910  -27.7190  -17.0740 C   0  0  2  0  0  0  0  0  0  0  0  0
    2.9000  -27.8960  -16.0090 C   0  0  0  0  0  0  0  0  0  0  0  0
    3.4860  -28.2730  -14.7660 O   0  0  0  0  0  0  0  0  0  0  0  0
    5.1350  -26.8370  -16.5390 C   0  0  1  0  0  0  0  0  0  0  0  0
    5.9970  -27.5980  -15.6900 O   0  0  0  0  0  0  0  0  0  0  0  0
    5.9440  -26.2150  -17.6800 C   0  0  2  0  0  0  0  0  0  0  0  0
    5.4890  -24.9450  -17.9090 F   0  0  0  0  0  0  0  0  0  0  0  0
    5.8230  -26.9970  -18.9840 C   0  0  1  0  0  0  0  0  0  0  0  0
    6.4570  -28.2820  -18.8830 O   0  0  0  0  0  0  0  0  0  0  0  0
    4.0850  -26.6050  -21.7010 C   0  0  0  0  0  0  0  0  0  0  0  0
    4.5870  -27.6220  -22.1360 O   0  0  0  0  0  0  0  0  0  0  0  0
    3.6660  -25.6620  -22.6750 N   0  0  0  0  0  0  0  0  0  0  0  0
    2.1160  -22.8730  -23.0840 H   0  0  0  0  0  0  0  0  0  0  0  0
    3.0510  -23.6870  -24.2880 H   0  0  0  0  0  0  0  0  0  0  0  0
    2.5427  -23.1544  -20.6414 H   0  0  0  0  0  0  0  0  0  0  0  0
    3.2416  -24.7683  -18.9490 H   0  0  0  0  0  0  0  0  0  0  0  0
    4.2914  -28.2191  -19.7738 H   0  0  0  0  0  0  0  0  0  0  0  0
    4.4062  -28.7063  -17.3248 H   0  0  0  0  0  0  0  0  0  0  0  0
    2.3575  -26.9475  -15.8827 H   0  0  0  0  0  0  0  0  0  0  0  0
    2.2047  -28.6844  -16.3332 H   0  0  0  0  0  0  0  0  0  0  0  0
    4.4250  -28.0100  -14.8030 H   0  0  0  0  0  0  0  0  0  0  0  0
    4.6810  -26.0215  -15.9569 H   0  0  0  0  0  0  0  0  0  0  0  0
    6.6580  -28.0240  -16.2810 H   0  0  0  0  0  0  0  0  0  0  0  0
    6.9992  -26.2252  -17.3693 H   0  0  0  0  0  0  0  0  0  0  0  0
    6.3286  -26.4103  -19.7652 H   0  0  0  0  0  0  0  0  0  0  0  0
    7.4240  -28.1600  -18.8380 H   0  0  0  0  0  0  0  0  0  0  0  0
    3.8100  -25.9520  -23.6290 H   0  0  0  0  0  0  0  0  0  0  0  0
  1  2  1  0
  2  3  1  0
  3  4  2  0
  4  5  1  0
  5  6  1  0
  6  7  1  0
  7  8  1  0
  8  9  1  0
  9 10  1  0
  8 11  1  0
 11 12  1  0
 11 13  1  0
 13 14  1  0
 13 15  1  0
 15 16  1  0
  5 17  1  0
 17 18  2  0
 17 19  1  0
 19  2  2  0
 15  6  1  0
  1 20  1  0
  1 21  1  0
  3 22  1  0
  4 23  1  0
  6 24  1  6
  8 25  1  6
  9 26  1  0
  9 27  1  0
 10 28  1  0
 11 29  1  1
 12 30  1  0
 13 31  1  1
 15 32  1  6
 16 33  1  0
 19 34  1  0
M  CHG  1  19   1
M  END
>  <meeko>  (5) 
{"is_sidechain": [false], "free_energy": -6.559, "intermolecular_energy": -8.026, "internal_energy": -0.5}

$$$$
3l7b_ligand
     RDKit          3D

 34 35  0  0  0  0  0  0  0  0999 V2000
   -0.4840  -28.6300  -14.1780 N   0  0  0  0  0  0  0  0  0  0  0  0
    0.1450  -28.0200  -15.1550 C   0  0  0  0  0  0  0  0  0  0  0  0
    1.4800  -28.6060  -15.6430 C   0  0  0  0  0  0  0  0  0  0  0  0
    2.1080  -27.9940  -16.6470 C   0  0  0  0  0  0  0  0  0  0  0  0
    1.5710  -26.8650  -17.2410 N   0  0  0  0  0  0  0  0  0  0  0  0
    2.2890  -26.1750  -18.3230 C   0  0  2  0  0  0  0  0  0  0  0  0
    3.0860  -27.1400  -19.0300 O   0  0  0  0  0  0  0  0  0  0  0  0
    4.0970  -26.5160  -19.8230 C   0  0  2  0  0  0  0  0  0  0  0  0
    4.7130  -27.5470  -20.7770 C   0  0  0  0  0  0  0  0  0  0  0  0
    5.0310  -28.7420  -20.0680 O   0  0  0  0  0  0  0  0  0  0  0  0
    5.1790  -25.9020  -18.9130 C   0  0  1  0  0  0  0  0  0  0  0  0
    5.9170  -24.9030  -19.6210 O   0  0  0  0  0  0  0  0  0  0  0  0
    4.5710  -25.2990  -17.6450 C   0  0  2  0  0  0  0  0  0  0  0  0
    4.6720  -26.2080  -16.6270 F   0  0  0  0  0  0  0  0  0  0  0  0
    3.0960  -24.9440  -17.8090 C   0  0  1  0  0  0  0  0  0  0  0  0
    2.9210  -23.8540  -18.7270 O   0  0  0  0  0  0  0  0  0  0  0  0
    0.3980  -26.2730  -16.8130 C   0  0  0  0  0  0  0  0  0  0  0  0
   -0.1330  -25.2580  -17.2190 O   0  0  0  0  0  0  0  0  0  0  0  0
   -0.2730  -26.9360  -15.7530 N   0  0  0  0  0  0  0  0  0  0  0  0
    0.0300  -29.1230  -13.4560 H   0  0  0  0  0  0  0  0  0  0  0  0
   -1.4940  -28.6340  -14.1070 H   0  0  0  0  0  0  0  0  0  0  0  0
    1.9056  -29.5064  -15.1760 H   0  0  0  0  0  0  0  0  0  0  0  0
    3.0674  -28.3922  -17.0089 H   0  0  0  0  0  0  0  0  0  0  0  0
    1.5679  -25.7414  -19.0316 H   0  0  0  0  0  0  0  0  0  0  0  0
    3.6469  -25.7079  -20.4183 H   0  0  0  0  0  0  0  0  0  0  0  0
    3.9935  -27.7787  -21.5761 H   0  0  0  0  0  0  0  0  0  0  0  0
    5.6337  -27.1304  -21.2115 H   0  0  0  0  0  0  0  0  0  0  0  0
    5.9130  -28.6110  -19.6710 H   0  0  0  0  0  0  0  0  0  0  0  0
    5.8595  -26.7125  -18.6132 H   0  0  0  0  0  0  0  0  0  0  0  0
    6.3160  -25.3560  -20.3980 H   0  0  0  0  0  0  0  0  0  0  0  0
    5.1260  -24.3740  -17.4296 H   0  0  0  0  0  0  0  0  0  0  0  0
    2.7205  -24.6421  -16.8201 H   0  0  0  0  0  0  0  0  0  0  0  0
    3.1440  -23.0160  -18.2770 H   0  0  0  0  0  0  0  0  0  0  0  0
   -1.1360  -26.5020  -15.4670 H   0  0  0  0  0  0  0  0  0  0  0  0
  1  2  1  0
  2  3  1  0
  3  4  2  0
  4  5  1  0
  5  6  1  0
  6  7  1  0
  7  8  1  0
  8  9  1  0
  9 10  1  0
  8 11  1  0
 11 12  1  0
 11 13  1  0
 13 14  1  0
 13 15  1  0
 15 16  1  0
  5 17  1  0
 17 18  2  0
 17 19  1  0
 19  2  2  0
 15  6  1  0
  1 20  1  0
  1 21  1  0
  3 22  1  0
  4 23  1  0
  6 24  1  6
  8 25  1  6
  9 26  1  0
  9 27  1  0
 10 28  1  0
 11 29  1  1
 12 30  1  0
 13 31  1  1
 15 32  1  1
 16 33  1  0
 19 34  1  0
M  CHG  1  19   1
M  END
>  <meeko>  (6) 
{"is_sidechain": [false], "free_energy": -6.554, "intermolecular_energy": -8.165, "internal_energy": -0.356}

$$$$
3l7b_ligand
     RDKit          3D

 34 35  0  0  0  0  0  0  0  0999 V2000
    5.4380  -27.6120  -23.9230 N   0  0  0  0  0  0  0  0  0  0  0  0
    4.8430  -26.7450  -23.1360 C   0  0  0  0  0  0  0  0  0  0  0  0
    4.4570  -27.1910  -21.7170 C   0  0  0  0  0  0  0  0  0  0  0  0
    3.8690  -26.3030  -20.9140 C   0  0  0  0  0  0  0  0  0  0  0  0
    3.6180  -25.0120  -21.3440 N   0  0  0  0  0  0  0  0  0  0  0  0
    2.9360  -24.0500  -20.4660 C   0  0  2  0  0  0  0  0  0  0  0  0
    3.8650  -23.0080  -20.1200 O   0  0  0  0  0  0  0  0  0  0  0  0
    3.4280  -22.2620  -18.9830 C   0  0  2  0  0  0  0  0  0  0  0  0
    4.2810  -20.9950  -18.8410 C   0  0  0  0  0  0  0  0  0  0  0  0
    3.8030  -20.2020  -17.7580 O   0  0  0  0  0  0  0  0  0  0  0  0
    3.5250  -23.1290  -17.7120 C   0  0  1  0  0  0  0  0  0  0  0  0
    2.6850  -22.6010  -16.6830 O   0  0  0  0  0  0  0  0  0  0  0  0
    3.1500  -24.5850  -17.9960 C   0  0  2  0  0  0  0  0  0  0  0  0
    4.2920  -25.3090  -18.2000 F   0  0  0  0  0  0  0  0  0  0  0  0
    2.2720  -24.7380  -19.2340 C   0  0  1  0  0  0  0  0  0  0  0  0
    0.9710  -24.1680  -19.0250 O   0  0  0  0  0  0  0  0  0  0  0  0
    3.9050  -24.5730  -22.6220 C   0  0  0  0  0  0  0  0  0  0  0  0
    3.6800  -23.4880  -23.1220 O   0  0  0  0  0  0  0  0  0  0  0  0
    4.5430  -25.5180  -23.4670 N   0  0  0  0  0  0  0  0  0  0  0  0
    5.6750  -27.3680  -24.8780 H   0  0  0  0  0  0  0  0  0  0  0  0
    5.6770  -28.5450  -23.6130 H   0  0  0  0  0  0  0  0  0  0  0  0
    4.6603  -28.2157  -21.3725 H   0  0  0  0  0  0  0  0  0  0  0  0
    3.5795  -26.6012  -19.8955 H   0  0  0  0  0  0  0  0  0  0  0  0
    2.0912  -23.5918  -21.0012 H   0  0  0  0  0  0  0  0  0  0  0  0
    2.3770  -21.9680  -19.1205 H   0  0  0  0  0  0  0  0  0  0  0  0
    5.3262  -21.2796  -18.6500 H   0  0  0  0  0  0  0  0  0  0  0  0
    4.2161  -20.4111  -19.7710 H   0  0  0  0  0  0  0  0  0  0  0  0
    4.5450  -19.6390  -17.4680 H   0  0  0  0  0  0  0  0  0  0  0  0
    4.5712  -23.1059  -17.3730 H   0  0  0  0  0  0  0  0  0  0  0  0
    1.7600  -22.7570  -16.9780 H   0  0  0  0  0  0  0  0  0  0  0  0
    2.5832  -24.9465  -17.1253 H   0  0  0  0  0  0  0  0  0  0  0  0
    2.1627  -25.8156  -19.4259 H   0  0  0  0  0  0  0  0  0  0  0  0
    0.7310  -23.6210  -19.7970 H   0  0  0  0  0  0  0  0  0  0  0  0
    4.7620  -25.1750  -24.3890 H   0  0  0  0  0  0  0  0  0  0  0  0
  1  2  1  0
  2  3  1  0
  3  4  2  0
  4  5  1  0
  5  6  1  0
  6  7  1  0
  7  8  1  0
  8  9  1  0
  9 10  1  0
  8 11  1  0
 11 12  1  0
 11 13  1  0
 13 14  1  0
 13 15  1  0
 15 16  1  0
  5 17  1  0
 17 18  2  0
 17 19  1  0
 19  2  2  0
 15  6  1  0
  1 20  1  0
  1 21  1  0
  3 22  1  0
  4 23  1  0
  6 24  1  6
  8 25  1  6
  9 26  1  0
  9 27  1  0
 10 28  1  0
 11 29  1  1
 12 30  1  0
 13 31  1  1
 15 32  1  6
 16 33  1  0
 19 34  1  0
M  CHG  1  19   1
M  END
>  <meeko>  (7) 
{"is_sidechain": [false], "free_energy": -6.463, "intermolecular_energy": -8.183, "internal_energy": -0.226}

$$$$
3l7b_ligand
     RDKit          3D

 34 35  0  0  0  0  0  0  0  0999 V2000
    3.8730  -24.6470  -19.1740 N   0  0  0  0  0  0  0  0  0  0  0  0
    3.4030  -25.5690  -18.3670 C   0  0  0  0  0  0  0  0  0  0  0  0
    1.9110  -25.9260  -18.4530 C   0  0  0  0  0  0  0  0  0  0  0  0
    1.4410  -26.8760  -17.6430 C   0  0  0  0  0  0  0  0  0  0  0  0
    2.2750  -27.5290  -16.7530 N   0  0  0  0  0  0  0  0  0  0  0  0
    1.7420  -28.5480  -15.8370 C   0  0  2  0  0  0  0  0  0  0  0  0
    1.1760  -29.6140  -16.6200 O   0  0  0  0  0  0  0  0  0  0  0  0
    0.3020  -30.4360  -15.8460 C   0  0  2  0  0  0  0  0  0  0  0  0
   -0.0320  -31.7120  -16.6290 C   0  0  0  0  0  0  0  0  0  0  0  0
    0.7240  -32.8090  -16.1230 O   0  0  0  0  0  0  0  0  0  0  0  0
   -0.9830  -29.6610  -15.4950 C   0  0  1  0  0  0  0  0  0  0  0  0
   -1.6350  -30.2590  -14.3720 O   0  0  0  0  0  0  0  0  0  0  0  0
   -0.6880  -28.1880  -15.2050 C   0  0  2  0  0  0  0  0  0  0  0  0
   -0.9260  -27.4540  -16.3340 F   0  0  0  0  0  0  0  0  0  0  0  0
    0.7590  -27.9470  -14.7860 C   0  0  1  0  0  0  0  0  0  0  0  0
    1.0350  -28.5280  -13.5020 O   0  0  0  0  0  0  0  0  0  0  0  0
    3.6130  -27.2170  -16.6040 C   0  0  0  0  0  0  0  0  0  0  0  0
    4.4190  -27.6810  -15.8230 O   0  0  0  0  0  0  0  0  0  0  0  0
    4.1100  -26.2150  -17.4780 N   0  0  0  0  0  0  0  0  0  0  0  0
    3.7430  -24.7190  -20.1770 H   0  0  0  0  0  0  0  0  0  0  0  0
    4.3770  -23.8390  -18.8330 H   0  0  0  0  0  0  0  0  0  0  0  0
    1.2477  -25.4116  -19.1640 H   0  0  0  0  0  0  0  0  0  0  0  0
    0.3749  -27.1441  -17.6833 H   0  0  0  0  0  0  0  0  0  0  0  0
    2.5580  -28.9645  -15.2282 H   0  0  0  0  0  0  0  0  0  0  0  0
    0.8021  -30.7168  -14.9073 H   0  0  0  0  0  0  0  0  0  0  0  0
   -1.1050  -31.9315  -16.5264 H   0  0  0  0  0  0  0  0  0  0  0  0
    0.2192  -31.5601  -17.6891 H   0  0  0  0  0  0  0  0  0  0  0  0
    0.9830  -32.5800  -15.2110 H   0  0  0  0  0  0  0  0  0  0  0  0
   -1.6499  -29.7096  -16.3685 H   0  0  0  0  0  0  0  0  0  0  0  0
   -2.5400  -29.8750  -14.3450 H   0  0  0  0  0  0  0  0  0  0  0  0
   -1.3415  -27.8868  -14.3730 H   0  0  0  0  0  0  0  0  0  0  0  0
    0.9037  -26.8584  -14.7234 H   0  0  0  0  0  0  0  0  0  0  0  0
    0.3460  -28.2490  -12.8690 H   0  0  0  0  0  0  0  0  0  0  0  0
    5.0920  -26.0140  -17.3690 H   0  0  0  0  0  0  0  0  0  0  0  0
  1  2  1  0
  2  3  1  0
  3  4  2  0
  4  5  1  0
  5  6  1  0
  6  7  1  0
  7  8  1  0
  8  9  1  0
  9 10  1  0
  8 11  1  0
 11 12  1  0
 11 13  1  0
 13 14  1  0
 13 15  1  0
 15 16  1  0
  5 17  1  0
 17 18  2  0
 17 19  1  0
 19  2  2  0
 15  6  1  0
  1 20  1  0
  1 21  1  0
  3 22  1  0
  4 23  1  0
  6 24  1  1
  8 25  1  1
  9 26  1  0
  9 27  1  0
 10 28  1  0
 11 29  1  6
 12 30  1  0
 13 31  1  1
 15 32  1  1
 16 33  1  0
 19 34  1  0
M  CHG  1  19   1
M  END
>  <meeko>  (8) 
{"is_sidechain": [false], "free_energy": -6.405, "intermolecular_energy": -8.308, "internal_energy": -0.029}

$$$$
3l7b_ligand
     RDKit          3D

 34 35  0  0  0  0  0  0  0  0999 V2000
    1.3650  -29.0450  -14.4340 N   0  0  0  0  0  0  0  0  0  0  0  0
    2.1440  -28.3550  -15.2330 C   0  0  0  0  0  0  0  0  0  0  0  0
    1.5030  -27.6100  -16.4150 C   0  0  0  0  0  0  0  0  0  0  0  0
    2.2960  -26.8960  -17.2160 C   0  0  0  0  0  0  0  0  0  0  0  0
    3.6580  -26.8200  -16.9850 N   0  0  0  0  0  0  0  0  0  0  0  0
    4.5300  -26.0610  -17.8930 C   0  0  2  0  0  0  0  0  0  0  0  0
    3.8250  -24.8840  -18.3260 O   0  0  0  0  0  0  0  0  0  0  0  0
    4.4190  -24.3060  -19.4890 C   0  0  2  0  0  0  0  0  0  0  0  0
    3.8280  -22.9110  -19.7290 C   0  0  0  0  0  0  0  0  0  0  0  0
    3.3090  -22.8190  -21.0530 O   0  0  0  0  0  0  0  0  0  0  0  0
    4.1840  -25.2140  -20.7120 C   0  0  1  0  0  0  0  0  0  0  0  0
    5.1310  -24.9190  -21.7420 O   0  0  0  0  0  0  0  0  0  0  0  0
    4.2680  -26.6950  -20.3350 C   0  0  2  0  0  0  0  0  0  0  0  0
    3.0040  -27.1750  -20.1270 F   0  0  0  0  0  0  0  0  0  0  0  0
    5.0750  -26.9360  -19.0630 C   0  0  1  0  0  0  0  0  0  0  0  0
    6.4650  -26.6370  -19.2620 O   0  0  0  0  0  0  0  0  0  0  0  0
    4.2900  -27.5040  -15.9640 C   0  0  0  0  0  0  0  0  0  0  0  0
    5.4760  -27.5550  -15.7040 O   0  0  0  0  0  0  0  0  0  0  0  0
    3.4410  -28.2510  -15.1080 N   0  0  0  0  0  0  0  0  0  0  0  0
    1.7480  -29.5460  -13.6400 H   0  0  0  0  0  0  0  0  0  0  0  0
    0.3650  -29.1060  -14.5770 H   0  0  0  0  0  0  0  0  0  0  0  0
    0.4193  -27.6641  -16.5957 H   0  0  0  0  0  0  0  0  0  0  0  0
    1.8606  -26.3601  -18.0723 H   0  0  0  0  0  0  0  0  0  0  0  0
    5.4360  -25.7408  -17.3576 H   0  0  0  0  0  0  0  0  0  0  0  0
    5.5039  -24.2100  -19.3347 H   0  0  0  0  0  0  0  0  0  0  0  0
    3.0176  -22.7304  -19.0074 H   0  0  0  0  0  0  0  0  0  0  0  0
    4.6195  -22.1581  -19.6000 H   0  0  0  0  0  0  0  0  0  0  0  0
    3.9040  -22.2260  -21.5510 H   0  0  0  0  0  0  0  0  0  0  0  0
    3.1689  -25.0130  -21.0850 H   0  0  0  0  0  0  0  0  0  0  0  0
    5.1710  -25.7190  -22.3130 H   0  0  0  0  0  0  0  0  0  0  0  0
    4.7731  -27.2101  -21.1654 H   0  0  0  0  0  0  0  0  0  0  0  0
    4.9720  -28.0011  -18.8079 H   0  0  0  0  0  0  0  0  0  0  0  0
    6.7860  -26.0900  -18.5200 H   0  0  0  0  0  0  0  0  0  0  0  0
    3.9160  -28.7270  -14.3580 H   0  0  0  0  0  0  0  0  0  0  0  0
  1  2  1  0
  2  3  1  0
  3  4  2  0
  4  5  1  0
  5  6  1  0
  6  7  1  0
  7  8  1  0
  8  9  1  0
  9 10  1  0
  8 11  1  0
 11 12  1  0
 11 13  1  0
 13 14  1  0
 13 15  1  0
 15 16  1  0
  5 17  1  0
 17 18  2  0
 17 19  1  0
 19  2  2  0
 15  6  1  0
  1 20  1  0
  1 21  1  0
  3 22  1  0
  4 23  1  0
  6 24  1  1
  8 25  1  1
  9 26  1  0
  9 27  1  0
 10 28  1  0
 11 29  1  6
 12 30  1  0
 13 31  1  6
 15 32  1  1
 16 33  1  0
 19 34  1  0
M  CHG  1  19   1
M  END
>  <meeko>  (9) 
{"is_sidechain": [false], "free_energy": -6.364, "intermolecular_energy": -7.757, "internal_energy": -0.53}

$$$$
