
     RDKit          3D

 15 15  0  0  0  0  0  0  0  0999 V2000
   16.3640   21.5580   -9.1240 O   0  0  0  0  0  0  0  0  0  0  0  0
   16.2630   20.6820   -8.3110 C   0  0  0  0  0  0  0  0  0  0  0  0
   16.9850   19.7010   -8.2780 O   0  0  0  0  0  0  0  0  0  0  0  0
   15.1440   20.8120   -7.2520 C   0  0  2  0  0  0  0  0  0  0  0  0
   14.0940   21.5570   -7.8560 O   0  0  0  0  0  0  0  0  0  0  0  0
   15.6390   21.5610   -6.0300 C   0  0  0  0  0  0  0  0  0  0  0  0
   15.3030   21.2220   -4.7450 C   0  0  0  0  0  0  0  0  0  0  0  0
   15.8170   22.0020   -3.5830 C   0  0  0  0  0  0  0  0  0  0  0  0
   16.8500   22.9980   -3.8720 C   0  0  0  0  0  0  0  0  0  0  0  0
   17.3460   23.5340   -2.6980 O   0  0  0  0  0  0  0  0  0  0  0  0
   14.4700   20.0270   -4.4380 C   0  0  1  0  0  0  0  0  0  0  0  0
   13.5180   20.3130   -3.4240 O   0  0  0  0  0  0  0  0  0  0  0  0
   13.7220   19.5010   -5.6630 C   0  0  2  0  0  0  0  0  0  0  0  0
   13.2160   18.1960   -5.3930 O   0  0  0  0  0  0  0  0  0  0  0  0
   14.5720   19.4260   -6.9040 C   0  0  0  0  0  0  0  0  0  0  0  0
  2  1  2  0
  3  2  1  0
  4  2  1  0
  4  5  1  6
  6  4  1  0
  7  6  2  0
  8  7  1  0
  9  8  1  0
 10  9  1  0
 11  7  1  0
 11 12  1  1
 13 11  1  0
 13 14  1  1
 15 13  1  0
 15  4  1  0
M  CHG  1   3  -1
M  END
$$$$
