
     RDKit          3D

 28 30  0  0  0  0  0  0  0  0999 V2000
  -15.0150   -3.2090   -5.3690 O   0  0  0  0  0  0  0  0  0  0  0  0
  -13.9900   -2.6350   -4.9630 C   0  0  0  0  0  0  0  0  0  0  0  0
  -14.0170   -1.9060   -3.9420 O   0  0  0  0  0  0  0  0  0  0  0  0
  -12.7140   -2.8230   -5.7070 C   0  0  0  0  0  0  0  0  0  0  0  0
  -11.7210   -1.8640   -5.6190 C   0  0  0  0  0  0  0  0  0  0  0  0
  -10.5280   -2.0090   -6.3300 C   0  0  0  0  0  0  0  0  0  0  0  0
  -10.3400   -3.1320   -7.1280 C   0  0  0  0  0  0  0  0  0  0  0  0
   -9.1960   -3.3300   -7.8700 N   0  0  0  0  0  0  0  0  0  0  0  0
   -8.2290   -2.4270   -8.2900 C   0  0  0  0  0  0  0  0  0  0  0  0
   -7.3030   -2.8530   -9.1510 N   0  0  0  0  0  0  0  0  0  0  0  0
   -6.3690   -2.0000   -9.5680 C   0  0  0  0  0  0  0  0  0  0  0  0
   -6.3290   -0.7000   -9.1370 C   0  0  0  0  0  0  0  0  0  0  0  0
   -7.3040   -0.3010   -8.2240 C   0  0  0  0  0  0  0  0  0  0  0  0
   -7.3020    0.9720   -7.7130 N   0  0  0  0  0  0  0  0  0  0  0  0
   -8.0270    1.4160   -6.6100 C   0  0  0  0  0  0  0  0  0  0  0  0
   -9.4120    1.1560   -6.4770 C   0  0  0  0  0  0  0  0  0  0  0  0
  -10.0910    1.5540   -5.3220 C   0  0  0  0  0  0  0  0  0  0  0  0
   -9.4170    2.2360   -4.3220 C   0  0  0  0  0  0  0  0  0  0  0  0
   -8.0510    2.5360   -4.4790 C   0  0  0  0  0  0  0  0  0  0  0  0
   -7.3670    2.1450   -5.6210 C   0  0  0  0  0  0  0  0  0  0  0  0
   -6.0720    2.4640   -5.8750 O   0  0  0  0  0  0  0  0  0  0  0  0
   -5.0690    2.1810   -4.9240 C   0  0  2  0  0  0  0  0  0  0  0  0
   -5.1030    0.8830   -4.5690 F   0  0  0  0  0  0  0  0  0  0  0  0
   -5.2050    2.9240   -3.8380 F   0  0  0  0  0  0  0  0  0  0  0  0
   -3.8670    2.4330   -5.4950 F   0  0  0  0  0  0  0  0  0  0  0  0
   -8.2380   -1.1630   -7.8260 N   0  0  0  0  0  0  0  0  0  0  0  0
  -11.3250   -4.0700   -7.1970 C   0  0  0  0  0  0  0  0  0  0  0  0
  -12.5170   -3.9240   -6.4930 C   0  0  0  0  0  0  0  0  0  0  0  0
  2  1  1  0
  3  2  2  0
  4  2  1  0
  5  4  2  0
  6  5  1  0
  7  6  2  0
  8  7  1  0
  9  8  1  0
 10  9  2  0
 11 10  1  0
 12 11  2  0
 13 12  1  0
 14 13  1  0
 15 14  1  0
 16 15  2  0
 17 16  1  0
 18 17  2  0
 19 18  1  0
 20 15  1  0
 20 19  2  0
 21 20  1  0
 22 21  1  0
 22 23  1  1
 24 22  1  0
 25 22  1  0
 26 13  2  0
 26  9  1  0
 27  7  1  0
 28 27  2  0
 28  4  1  0
M  CHG  1   1  -1
M  END
$$$$
