4j21_ligand
     RDKit          3D

 33 35  0  0  0  0  0  0  0  0999 V2000
    0.4080    7.1260   -9.7320 C   0  0  0  0  0  0  0  0  0  0  0  0
    1.2910    5.9190   -9.6160 C   0  0  0  0  0  0  0  0  0  0  0  0
    0.9920    4.7760  -10.2570 C   0  0  0  0  0  0  0  0  0  0  0  0
    1.8420    3.5680  -10.1610 C   0  0  0  0  0  0  0  0  0  0  0  0
    1.5430    2.5410  -10.7600 O   0  0  0  0  0  0  0  0  0  0  0  0
    2.9580    3.6640   -9.3820 N   0  0  0  0  0  0  0  0  0  0  0  0
    3.3210    4.8270   -8.6910 C   0  0  0  0  0  0  0  0  0  0  0  0
    4.4870    4.8180   -7.9200 C   0  0  0  0  0  0  0  0  0  0  0  0
    4.8780    5.9640   -7.2140 C   0  0  0  0  0  0  0  0  0  0  0  0
    6.1060    5.9700   -6.4070 C   0  0  0  0  0  0  0  0  0  0  0  0
    7.3260    6.2970   -7.0220 C   0  0  0  0  0  0  0  0  0  0  0  0
    8.5210    6.3120   -6.2940 C   0  0  0  0  0  0  0  0  0  0  0  0
    8.5250    6.0430   -4.9250 C   0  0  0  0  0  0  0  0  0  0  0  0
    9.7360    5.9410   -4.2320 N   0  0  0  0  0  0  0  0  0  0  0  0
    7.3300    5.6600   -4.3160 C   0  0  0  0  0  0  0  0  0  0  0  0
    6.1290    5.6430   -5.0400 C   0  0  0  0  0  0  0  0  0  0  0  0
    4.6900    5.2070   -4.1830 Cl  0  0  0  0  0  0  0  0  0  0  0  0
    4.0770    7.1110   -7.3060 C   0  0  0  0  0  0  0  0  0  0  0  0
    2.9090    7.1160   -8.0790 C   0  0  0  0  0  0  0  0  0  0  0  0
    2.5150    5.9740   -8.7840 C   0  0  0  0  0  0  0  0  0  0  0  0
    0.1448    7.4858   -8.7264 H   0  0  0  0  0  0  0  0  0  0  0  0
    0.9407    7.9190  -10.2773 H   0  0  0  0  0  0  0  0  0  0  0  0
   -0.5090    6.8584  -10.2773 H   0  0  0  0  0  0  0  0  0  0  0  0
    0.0829    4.7369  -10.8751 H   0  0  0  0  0  0  0  0  0  0  0  0
    3.5270    2.8320   -9.3210 H   0  0  0  0  0  0  0  0  0  0  0  0
    5.1009    3.9068   -7.8671 H   0  0  0  0  0  0  0  0  0  0  0  0
    7.3422    6.5453   -8.0935 H   0  0  0  0  0  0  0  0  0  0  0  0
    9.4675    6.5383   -6.8067 H   0  0  0  0  0  0  0  0  0  0  0  0
   10.1960    5.0410   -4.3240 H   0  0  0  0  0  0  0  0  0  0  0  0
    9.6940    6.2550   -3.2670 H   0  0  0  0  0  0  0  0  0  0  0  0
    7.3296    5.3679   -3.2555 H   0  0  0  0  0  0  0  0  0  0  0  0
    4.3705    8.0213   -6.7626 H   0  0  0  0  0  0  0  0  0  0  0  0
    2.2953    8.0273   -8.1322 H   0  0  0  0  0  0  0  0  0  0  0  0
  1  2  1  0
  2  3  2  0
  3  4  1  0
  4  5  2  0
  4  6  1  0
  6  7  1  0
  7  8  2  0
  8  9  1  0
  9 10  1  0
 10 11  2  0
 11 12  1  0
 12 13  2  0
 13 14  1  0
 13 15  1  0
 15 16  2  0
 16 17  1  0
  9 18  2  0
 18 19  1  0
 19 20  2  0
 20  2  1  0
 20  7  1  0
 16 10  1  0
  1 21  1  0
  1 22  1  0
  1 23  1  0
  3 24  1  0
  6 25  1  0
  8 26  1  0
 11 27  1  0
 12 28  1  0
 14 29  1  0
 14 30  1  0
 15 31  1  0
 18 32  1  0
 19 33  1  0
M  END
>  <meeko>  (1) 
{"is_sidechain": [false], "free_energy": -9.432, "intermolecular_energy": -10.259, "internal_energy": -0.494}

$$$$
4j21_ligand
     RDKit          3D

 33 35  0  0  0  0  0  0  0  0999 V2000
    7.2740    6.5960   -6.6260 C   0  0  0  0  0  0  0  0  0  0  0  0
    6.0720    5.9260   -6.0280 C   0  0  0  0  0  0  0  0  0  0  0  0
    5.9920    5.6940   -4.7060 C   0  0  0  0  0  0  0  0  0  0  0  0
    4.8210    5.0330   -4.0870 C   0  0  0  0  0  0  0  0  0  0  0  0
    4.7770    4.8380   -2.8770 O   0  0  0  0  0  0  0  0  0  0  0  0
    3.8120    4.6620   -4.9260 N   0  0  0  0  0  0  0  0  0  0  0  0
    3.8390    4.8760   -6.3100 C   0  0  0  0  0  0  0  0  0  0  0  0
    2.7500    4.4560   -7.0800 C   0  0  0  0  0  0  0  0  0  0  0  0
    2.7460    4.6530   -8.4680 C   0  0  0  0  0  0  0  0  0  0  0  0
    1.6040    4.2240   -9.2870 C   0  0  0  0  0  0  0  0  0  0  0  0
    1.5460    2.8930   -9.7330 C   0  0  0  0  0  0  0  0  0  0  0  0
    0.4790    2.4410  -10.5190 C   0  0  0  0  0  0  0  0  0  0  0  0
   -0.5770    3.2920  -10.8450 C   0  0  0  0  0  0  0  0  0  0  0  0
   -1.5740    2.8670  -11.7290 N   0  0  0  0  0  0  0  0  0  0  0  0
   -0.5010    4.6290  -10.4570 C   0  0  0  0  0  0  0  0  0  0  0  0
    0.5640    5.0890   -9.6690 C   0  0  0  0  0  0  0  0  0  0  0  0
    0.5410    6.7530   -9.1920 Cl  0  0  0  0  0  0  0  0  0  0  0  0
    3.8510    5.2820   -9.0570 C   0  0  0  0  0  0  0  0  0  0  0  0
    4.9410    5.7020   -8.2830 C   0  0  0  0  0  0  0  0  0  0  0  0
    4.9500    5.5050   -6.8970 C   0  0  0  0  0  0  0  0  0  0  0  0
    7.9288    6.9610   -5.8210 H   0  0  0  0  0  0  0  0  0  0  0  0
    7.8245    5.8746   -7.2477 H   0  0  0  0  0  0  0  0  0  0  0  0
    6.9499    7.4436   -7.2477 H   0  0  0  0  0  0  0  0  0  0  0  0
    6.8267    6.0066   -4.0613 H   0  0  0  0  0  0  0  0  0  0  0  0
    3.0210    4.2070   -4.4930 H   0  0  0  0  0  0  0  0  0  0  0  0
    1.8920    3.9685   -6.5941 H   0  0  0  0  0  0  0  0  0  0  0  0
    2.3514    2.1951   -9.4605 H   0  0  0  0  0  0  0  0  0  0  0  0
    0.4735    1.4032  -10.8835 H   0  0  0  0  0  0  0  0  0  0  0  0
   -2.2260    2.1970  -11.3340 H   0  0  0  0  0  0  0  0  0  0  0  0
   -1.2310    2.5790  -12.6400 H   0  0  0  0  0  0  0  0  0  0  0  0
   -1.2861    5.3317  -10.7729 H   0  0  0  0  0  0  0  0  0  0  0  0
    3.8630    5.4487  -10.1442 H   0  0  0  0  0  0  0  0  0  0  0  0
    5.7979    6.1912   -8.7692 H   0  0  0  0  0  0  0  0  0  0  0  0
  1  2  1  0
  2  3  2  0
  3  4  1  0
  4  5  2  0
  4  6  1  0
  6  7  1  0
  7  8  2  0
  8  9  1  0
  9 10  1  0
 10 11  2  0
 11 12  1  0
 12 13  2  0
 13 14  1  0
 13 15  1  0
 15 16  2  0
 16 17  1  0
  9 18  2  0
 18 19  1  0
 19 20  2  0
 20  2  1  0
 20  7  1  0
 16 10  1  0
  1 21  1  0
  1 22  1  0
  1 23  1  0
  3 24  1  0
  6 25  1  0
  8 26  1  0
 11 27  1  0
 12 28  1  0
 14 29  1  0
 14 30  1  0
 15 31  1  0
 18 32  1  0
 19 33  1  0
M  END
>  <meeko>  (2) 
{"is_sidechain": [false], "free_energy": -9.213, "intermolecular_energy": -10.025, "internal_energy": -0.489}

$$$$
4j21_ligand
     RDKit          3D

 33 35  0  0  0  0  0  0  0  0999 V2000
    0.3180    2.3580   -9.9090 C   0  0  0  0  0  0  0  0  0  0  0  0
    0.7100    3.8040   -9.8190 C   0  0  0  0  0  0  0  0  0  0  0  0
   -0.0170    4.7590  -10.4250 C   0  0  0  0  0  0  0  0  0  0  0  0
    0.3440    6.1920  -10.3570 C   0  0  0  0  0  0  0  0  0  0  0  0
   -0.3400    7.0400  -10.9200 O   0  0  0  0  0  0  0  0  0  0  0  0
    1.4640    6.5090   -9.6450 N   0  0  0  0  0  0  0  0  0  0  0  0
    2.2600    5.5600   -8.9930 C   0  0  0  0  0  0  0  0  0  0  0  0
    3.3870    5.9920   -8.2880 C   0  0  0  0  0  0  0  0  0  0  0  0
    4.2070    5.0680   -7.6260 C   0  0  0  0  0  0  0  0  0  0  0  0
    5.3890    5.5110   -6.8750 C   0  0  0  0  0  0  0  0  0  0  0  0
    6.5290    5.9290   -7.5820 C   0  0  0  0  0  0  0  0  0  0  0  0
    7.6800    6.3560   -6.9080 C   0  0  0  0  0  0  0  0  0  0  0  0
    7.7100    6.4160   -5.5140 C   0  0  0  0  0  0  0  0  0  0  0  0
    8.9010    6.7250   -4.8490 N   0  0  0  0  0  0  0  0  0  0  0  0
    6.6050    5.9480   -4.8030 C   0  0  0  0  0  0  0  0  0  0  0  0
    5.4490    5.5200   -5.4710 C   0  0  0  0  0  0  0  0  0  0  0  0
    4.1110    5.0090   -4.4990 Cl  0  0  0  0  0  0  0  0  0  0  0  0
    3.8650    3.7100   -7.6850 C   0  0  0  0  0  0  0  0  0  0  0  0
    2.7350    3.2790   -8.3920 C   0  0  0  0  0  0  0  0  0  0  0  0
    1.9150    4.1990   -9.0560 C   0  0  0  0  0  0  0  0  0  0  0  0
    0.2060    1.9447   -8.8958 H   0  0  0  0  0  0  0  0  0  0  0  0
   -0.6365    2.2698  -10.4486 H   0  0  0  0  0  0  0  0  0  0  0  0
    1.0972    1.7998  -10.4486 H   0  0  0  0  0  0  0  0  0  0  0  0
   -0.9125    4.4641  -10.9918 H   0  0  0  0  0  0  0  0  0  0  0  0
    1.7030    7.4900   -9.6100 H   0  0  0  0  0  0  0  0  0  0  0  0
    3.6319    7.0638   -8.2525 H   0  0  0  0  0  0  0  0  0  0  0  0
    6.5173    5.9207   -8.6819 H   0  0  0  0  0  0  0  0  0  0  0  0
    8.5707    6.6475   -7.4840 H   0  0  0  0  0  0  0  0  0  0  0  0
    9.7410    6.5470   -5.3900 H   0  0  0  0  0  0  0  0  0  0  0  0
    8.9630    6.3510   -3.9070 H   0  0  0  0  0  0  0  0  0  0  0  0
    6.6410    5.9143   -3.7041 H   0  0  0  0  0  0  0  0  0  0  0  0
    4.4941    2.9706   -7.1677 H   0  0  0  0  0  0  0  0  0  0  0  0
    2.4897    2.2072   -8.4257 H   0  0  0  0  0  0  0  0  0  0  0  0
  1  2  1  0
  2  3  2  0
  3  4  1  0
  4  5  2  0
  4  6  1  0
  6  7  1  0
  7  8  2  0
  8  9  1  0
  9 10  1  0
 10 11  2  0
 11 12  1  0
 12 13  2  0
 13 14  1  0
 13 15  1  0
 15 16  2  0
 16 17  1  0
  9 18  2  0
 18 19  1  0
 19 20  2  0
 20  2  1  0
 20  7  1  0
 16 10  1  0
  1 21  1  0
  1 22  1  0
  1 23  1  0
  3 24  1  0
  6 25  1  0
  8 26  1  0
 11 27  1  0
 12 28  1  0
 14 29  1  0
 14 30  1  0
 15 31  1  0
 18 32  1  0
 19 33  1  0
M  END
>  <meeko>  (3) 
{"is_sidechain": [false], "free_energy": -9.171, "intermolecular_energy": -10.043, "internal_energy": -0.427}

$$$$
4j21_ligand
     RDKit          3D

 33 35  0  0  0  0  0  0  0  0999 V2000
    5.5060    6.0910   -7.2760 C   0  0  0  0  0  0  0  0  0  0  0  0
    4.1000    6.5450   -7.0170 C   0  0  0  0  0  0  0  0  0  0  0  0
    3.8350    7.4970   -6.1050 C   0  0  0  0  0  0  0  0  0  0  0  0
    2.4590    7.9640   -5.8240 C   0  0  0  0  0  0  0  0  0  0  0  0
    2.2500    8.8360   -4.9880 O   0  0  0  0  0  0  0  0  0  0  0  0
    1.4550    7.3780   -6.5390 N   0  0  0  0  0  0  0  0  0  0  0  0
    1.6690    6.3830   -7.5000 C   0  0  0  0  0  0  0  0  0  0  0  0
    0.5690    5.8490   -8.1770 C   0  0  0  0  0  0  0  0  0  0  0  0
    0.7470    4.8500   -9.1440 C   0  0  0  0  0  0  0  0  0  0  0  0
   -0.4000    4.2870   -9.8680 C   0  0  0  0  0  0  0  0  0  0  0  0
   -0.7270    2.9330   -9.6830 C   0  0  0  0  0  0  0  0  0  0  0  0
   -1.8090    2.3530  -10.3550 C   0  0  0  0  0  0  0  0  0  0  0  0
   -2.6190    3.1160  -11.1960 C   0  0  0  0  0  0  0  0  0  0  0  0
   -3.6200    2.5030  -11.9550 N   0  0  0  0  0  0  0  0  0  0  0  0
   -2.2690    4.4460  -11.4320 C   0  0  0  0  0  0  0  0  0  0  0  0
   -1.1870    5.0340  -10.7620 C   0  0  0  0  0  0  0  0  0  0  0  0
   -0.8650    6.7040  -11.0810 Cl  0  0  0  0  0  0  0  0  0  0  0  0
    2.0500    4.4080   -9.4150 C   0  0  0  0  0  0  0  0  0  0  0  0
    3.1510    4.9450   -8.7350 C   0  0  0  0  0  0  0  0  0  0  0  0
    2.9760    5.9410   -7.7670 C   0  0  0  0  0  0  0  0  0  0  0  0
    6.0201    5.9250   -6.3178 H   0  0  0  0  0  0  0  0  0  0  0  0
    5.4885    5.1528   -7.8501 H   0  0  0  0  0  0  0  0  0  0  0  0
    6.0405    6.8622   -7.8501 H   0  0  0  0  0  0  0  0  0  0  0  0
    4.6710    7.9448   -5.5477 H   0  0  0  0  0  0  0  0  0  0  0  0
    0.5200    7.7020   -6.3350 H   0  0  0  0  0  0  0  0  0  0  0  0
   -0.4430    6.2151   -7.9495 H   0  0  0  0  0  0  0  0  0  0  0  0
   -0.1228    2.3190   -8.9989 H   0  0  0  0  0  0  0  0  0  0  0  0
   -2.0232    1.2827  -10.2183 H   0  0  0  0  0  0  0  0  0  0  0  0
   -4.5270    2.9540  -11.8950 H   0  0  0  0  0  0  0  0  0  0  0  0
   -3.6820    1.4960  -11.8310 H   0  0  0  0  0  0  0  0  0  0  0  0
   -2.8494    5.0406  -12.1528 H   0  0  0  0  0  0  0  0  0  0  0  0
    2.2102    3.6274  -10.1733 H   0  0  0  0  0  0  0  0  0  0  0  0
    4.1632    4.5803   -8.9641 H   0  0  0  0  0  0  0  0  0  0  0  0
  1  2  1  0
  2  3  2  0
  3  4  1  0
  4  5  2  0
  4  6  1  0
  6  7  1  0
  7  8  2  0
  8  9  1  0
  9 10  1  0
 10 11  2  0
 11 12  1  0
 12 13  2  0
 13 14  1  0
 13 15  1  0
 15 16  2  0
 16 17  1  0
  9 18  2  0
 18 19  1  0
 19 20  2  0
 20  2  1  0
 20  7  1  0
 16 10  1  0
  1 21  1  0
  1 22  1  0
  1 23  1  0
  3 24  1  0
  6 25  1  0
  8 26  1  0
 11 27  1  0
 12 28  1  0
 14 29  1  0
 14 30  1  0
 15 31  1  0
 18 32  1  0
 19 33  1  0
M  END
>  <meeko>  (4) 
{"is_sidechain": [false], "free_energy": -8.97, "intermolecular_energy": -9.885, "internal_energy": -0.365}

$$$$
4j21_ligand
     RDKit          3D

 33 35  0  0  0  0  0  0  0  0999 V2000
    4.8070    6.2940   -7.9330 C   0  0  0  0  0  0  0  0  0  0  0  0
    3.4050    6.6100   -7.5020 C   0  0  0  0  0  0  0  0  0  0  0  0
    3.1660    7.4210   -6.4570 C   0  0  0  0  0  0  0  0  0  0  0  0
    1.7950    7.7490   -6.0060 C   0  0  0  0  0  0  0  0  0  0  0  0
    1.6100    8.4940   -5.0500 O   0  0  0  0  0  0  0  0  0  0  0  0
    0.7680    7.1850   -6.7050 N   0  0  0  0  0  0  0  0  0  0  0  0
    0.9550    6.3330   -7.8010 C   0  0  0  0  0  0  0  0  0  0  0  0
   -0.1680    5.8080   -8.4480 C   0  0  0  0  0  0  0  0  0  0  0  0
   -0.0170    4.9510   -9.5460 C   0  0  0  0  0  0  0  0  0  0  0  0
   -1.1890    4.4000  -10.2390 C   0  0  0  0  0  0  0  0  0  0  0  0
   -2.2090    5.2720  -10.6550 C   0  0  0  0  0  0  0  0  0  0  0  0
   -3.3450    4.7910  -11.3160 C   0  0  0  0  0  0  0  0  0  0  0  0
   -3.4750    3.4350  -11.6160 C   0  0  0  0  0  0  0  0  0  0  0  0
   -4.6650    2.9470  -12.1660 N   0  0  0  0  0  0  0  0  0  0  0  0
   -2.4970    2.5530  -11.1580 C   0  0  0  0  0  0  0  0  0  0  0  0
   -1.3560    3.0280  -10.4960 C   0  0  0  0  0  0  0  0  0  0  0  0
   -0.1720    1.8600  -10.0130 Cl  0  0  0  0  0  0  0  0  0  0  0  0
    1.2800    4.6410   -9.9780 C   0  0  0  0  0  0  0  0  0  0  0  0
    2.4040    5.1680   -9.3270 C   0  0  0  0  0  0  0  0  0  0  0  0
    2.2570    6.0230   -8.2290 C   0  0  0  0  0  0  0  0  0  0  0  0
    5.4402    6.1513   -7.0449 H   0  0  0  0  0  0  0  0  0  0  0  0
    4.8068    5.3734   -8.5350 H   0  0  0  0  0  0  0  0  0  0  0  0
    5.2018    7.1257   -8.5350 H   0  0  0  0  0  0  0  0  0  0  0  0
    4.0200    7.8565   -5.9176 H   0  0  0  0  0  0  0  0  0  0  0  0
   -0.1630    7.4120   -6.3850 H   0  0  0  0  0  0  0  0  0  0  0  0
   -1.1757    6.0694   -8.0928 H   0  0  0  0  0  0  0  0  0  0  0  0
   -2.1132    6.3500  -10.4580 H   0  0  0  0  0  0  0  0  0  0  0  0
   -4.1444    5.4903  -11.6022 H   0  0  0  0  0  0  0  0  0  0  0  0
   -4.5370    2.3330  -12.9640 H   0  0  0  0  0  0  0  0  0  0  0  0
   -5.3690    3.6590  -12.3380 H   0  0  0  0  0  0  0  0  0  0  0  0
   -2.6221    1.4719  -11.3179 H   0  0  0  0  0  0  0  0  0  0  0  0
    1.4179    3.9736  -10.8415 H   0  0  0  0  0  0  0  0  0  0  0  0
    3.4116    4.9069   -9.6828 H   0  0  0  0  0  0  0  0  0  0  0  0
  1  2  1  0
  2  3  2  0
  3  4  1  0
  4  5  2  0
  4  6  1  0
  6  7  1  0
  7  8  2  0
  8  9  1  0
  9 10  1  0
 10 11  2  0
 11 12  1  0
 12 13  2  0
 13 14  1  0
 13 15  1  0
 15 16  2  0
 16 17  1  0
  9 18  2  0
 18 19  1  0
 19 20  2  0
 20  2  1  0
 20  7  1  0
 16 10  1  0
  1 21  1  0
  1 22  1  0
  1 23  1  0
  3 24  1  0
  6 25  1  0
  8 26  1  0
 11 27  1  0
 12 28  1  0
 14 29  1  0
 14 30  1  0
 15 31  1  0
 18 32  1  0
 19 33  1  0
M  END
>  <meeko>  (5) 
{"is_sidechain": [false], "free_energy": -8.822, "intermolecular_energy": -9.882, "internal_energy": -0.208}

$$$$
4j21_ligand
     RDKit          3D

 33 35  0  0  0  0  0  0  0  0999 V2000
    2.8700    6.8360   -6.2600 C   0  0  0  0  0  0  0  0  0  0  0  0
    2.5070    7.1850   -7.6730 C   0  0  0  0  0  0  0  0  0  0  0  0
    3.1780    8.1340   -8.3490 C   0  0  0  0  0  0  0  0  0  0  0  0
    2.8420    8.5020   -9.7420 C   0  0  0  0  0  0  0  0  0  0  0  0
    3.4750    9.3710  -10.3320 O   0  0  0  0  0  0  0  0  0  0  0  0
    1.8060    7.8300  -10.3210 N   0  0  0  0  0  0  0  0  0  0  0  0
    1.0700    6.8330   -9.6680 C   0  0  0  0  0  0  0  0  0  0  0  0
    0.0270    6.2040  -10.3540 C   0  0  0  0  0  0  0  0  0  0  0  0
   -0.7310    5.2040   -9.7310 C   0  0  0  0  0  0  0  0  0  0  0  0
   -1.8240    4.5310  -10.4440 C   0  0  0  0  0  0  0  0  0  0  0  0
   -2.9600    5.2730  -10.8100 C   0  0  0  0  0  0  0  0  0  0  0  0
   -4.0280    4.6720  -11.4860 C   0  0  0  0  0  0  0  0  0  0  0  0
   -3.9740    3.3270  -11.8530 C   0  0  0  0  0  0  0  0  0  0  0  0
   -5.0930    2.7070  -12.4190 N   0  0  0  0  0  0  0  0  0  0  0  0
   -2.8780    2.5680  -11.4440 C   0  0  0  0  0  0  0  0  0  0  0  0
   -1.8050    3.1630  -10.7660 C   0  0  0  0  0  0  0  0  0  0  0  0
   -0.4660    2.1480  -10.3490 Cl  0  0  0  0  0  0  0  0  0  0  0  0
   -0.4130    4.8500   -8.4120 C   0  0  0  0  0  0  0  0  0  0  0  0
    0.6330    5.4810   -7.7270 C   0  0  0  0  0  0  0  0  0  0  0  0
    1.3910    6.4820   -8.3460 C   0  0  0  0  0  0  0  0  0  0  0  0
    2.2545    7.4278   -5.5665 H   0  0  0  0  0  0  0  0  0  0  0  0
    2.6884    5.7647   -6.0887 H   0  0  0  0  0  0  0  0  0  0  0  0
    3.9333    7.0596   -6.0887 H   0  0  0  0  0  0  0  0  0  0  0  0
    4.0068    8.6557   -7.8482 H   0  0  0  0  0  0  0  0  0  0  0  0
    1.5830    8.0930  -11.2700 H   0  0  0  0  0  0  0  0  0  0  0  0
   -0.2001    6.4962  -11.3899 H   0  0  0  0  0  0  0  0  0  0  0  0
   -3.0106    6.3433  -10.5612 H   0  0  0  0  0  0  0  0  0  0  0  0
   -4.9203    5.2669  -11.7308 H   0  0  0  0  0  0  0  0  0  0  0  0
   -5.6740    3.3230  -12.9780 H   0  0  0  0  0  0  0  0  0  0  0  0
   -5.6370    2.1510  -11.7670 H   0  0  0  0  0  0  0  0  0  0  0  0
   -2.8552    1.4889  -11.6561 H   0  0  0  0  0  0  0  0  0  0  0  0
   -0.9943    4.0643   -7.9073 H   0  0  0  0  0  0  0  0  0  0  0  0
    0.8613    5.1870   -6.6919 H   0  0  0  0  0  0  0  0  0  0  0  0
  1  2  1  0
  2  3  2  0
  3  4  1  0
  4  5  2  0
  4  6  1  0
  6  7  1  0
  7  8  2  0
  8  9  1  0
  9 10  1  0
 10 11  2  0
 11 12  1  0
 12 13  2  0
 13 14  1  0
 13 15  1  0
 15 16  2  0
 16 17  1  0
  9 18  2  0
 18 19  1  0
 19 20  2  0
 20  2  1  0
 20  7  1  0
 16 10  1  0
  1 21  1  0
  1 22  1  0
  1 23  1  0
  3 24  1  0
  6 25  1  0
  8 26  1  0
 11 27  1  0
 12 28  1  0
 14 29  1  0
 14 30  1  0
 15 31  1  0
 18 32  1  0
 19 33  1  0
M  END
>  <meeko>  (6) 
{"is_sidechain": [false], "free_energy": -8.741, "intermolecular_energy": -9.647, "internal_energy": -0.355}

$$$$
4j21_ligand
     RDKit          3D

 33 35  0  0  0  0  0  0  0  0999 V2000
   -3.8360    7.5190  -13.0970 C   0  0  0  0  0  0  0  0  0  0  0  0
   -3.6980    6.1840  -12.4270 C   0  0  0  0  0  0  0  0  0  0  0  0
   -4.6650    5.2540  -12.5260 C   0  0  0  0  0  0  0  0  0  0  0  0
   -4.5590    3.9300  -11.8740 C   0  0  0  0  0  0  0  0  0  0  0  0
   -5.4570    3.1020  -11.9850 O   0  0  0  0  0  0  0  0  0  0  0  0
   -3.4250    3.6880  -11.1570 N   0  0  0  0  0  0  0  0  0  0  0  0
   -2.3850    4.6160  -11.0180 C   0  0  0  0  0  0  0  0  0  0  0  0
   -1.2640    4.2660  -10.2600 C   0  0  0  0  0  0  0  0  0  0  0  0
   -0.2070    5.1720  -10.0980 C   0  0  0  0  0  0  0  0  0  0  0  0
    0.9800    4.8140   -9.3110 C   0  0  0  0  0  0  0  0  0  0  0  0
    1.2650    5.5330   -8.1380 C   0  0  0  0  0  0  0  0  0  0  0  0
    2.3880    5.2290   -7.3590 C   0  0  0  0  0  0  0  0  0  0  0  0
    3.2320    4.1740   -7.7050 C   0  0  0  0  0  0  0  0  0  0  0  0
    4.4140    3.9560   -6.9910 N   0  0  0  0  0  0  0  0  0  0  0  0
    2.9920    3.4910   -8.8980 C   0  0  0  0  0  0  0  0  0  0  0  0
    1.8690    3.7900   -9.6830 C   0  0  0  0  0  0  0  0  0  0  0  0
    1.6280    2.8500  -11.1160 Cl  0  0  0  0  0  0  0  0  0  0  0  0
   -0.3020    6.4260  -10.7170 C   0  0  0  0  0  0  0  0  0  0  0  0
   -1.4270    6.7740  -11.4760 C   0  0  0  0  0  0  0  0  0  0  0  0
   -2.4850    5.8730  -11.6380 C   0  0  0  0  0  0  0  0  0  0  0  0
   -3.9174    8.3061  -12.3329 H   0  0  0  0  0  0  0  0  0  0  0  0
   -2.9525    7.7073  -13.7247 H   0  0  0  0  0  0  0  0  0  0  0  0
   -4.7393    7.5226  -13.7247 H   0  0  0  0  0  0  0  0  0  0  0  0
   -5.5663    5.4861  -13.1124 H   0  0  0  0  0  0  0  0  0  0  0  0
   -3.3660    2.7820  -10.7130 H   0  0  0  0  0  0  0  0  0  0  0  0
   -1.2111    3.2739   -9.7879 H   0  0  0  0  0  0  0  0  0  0  0  0
    0.5950    6.3479   -7.8266 H   0  0  0  0  0  0  0  0  0  0  0  0
    2.6071    5.8293   -6.4636 H   0  0  0  0  0  0  0  0  0  0  0  0
    4.6960    2.9820   -6.9350 H   0  0  0  0  0  0  0  0  0  0  0  0
    4.4490    4.4190   -6.0880 H   0  0  0  0  0  0  0  0  0  0  0  0
    3.6920    2.7087   -9.2266 H   0  0  0  0  0  0  0  0  0  0  0  0
    0.5199    7.1484  -10.6051 H   0  0  0  0  0  0  0  0  0  0  0  0
   -1.4790    7.7656  -11.9493 H   0  0  0  0  0  0  0  0  0  0  0  0
  1  2  1  0
  2  3  2  0
  3  4  1  0
  4  5  2  0
  4  6  1  0
  6  7  1  0
  7  8  2  0
  8  9  1  0
  9 10  1  0
 10 11  2  0
 11 12  1  0
 12 13  2  0
 13 14  1  0
 13 15  1  0
 15 16  2  0
 16 17  1  0
  9 18  2  0
 18 19  1  0
 19 20  2  0
 20  2  1  0
 20  7  1  0
 16 10  1  0
  1 21  1  0
  1 22  1  0
  1 23  1  0
  3 24  1  0
  6 25  1  0
  8 26  1  0
 11 27  1  0
 12 28  1  0
 14 29  1  0
 14 30  1  0
 15 31  1  0
 18 32  1  0
 19 33  1  0
M  END
>  <meeko>  (7) 
{"is_sidechain": [false], "free_energy": -8.732, "intermolecular_energy": -9.639, "internal_energy": -0.353}

$$$$
4j21_ligand
     RDKit          3D

 33 35  0  0  0  0  0  0  0  0999 V2000
   10.4440   10.1750   -4.6950 C   0  0  0  0  0  0  0  0  0  0  0  0
   10.2090    8.7460   -4.3060 C   0  0  0  0  0  0  0  0  0  0  0  0
   11.0150    8.1240   -3.4270 C   0  0  0  0  0  0  0  0  0  0  0  0
   10.8100    6.7140   -3.0250 C   0  0  0  0  0  0  0  0  0  0  0  0
   11.5620    6.1760   -2.2200 O   0  0  0  0  0  0  0  0  0  0  0  0
    9.7550    6.0620   -3.5920 N   0  0  0  0  0  0  0  0  0  0  0  0
    8.8820    6.6560   -4.5120 C   0  0  0  0  0  0  0  0  0  0  0  0
    7.8300    5.8970   -5.0330 C   0  0  0  0  0  0  0  0  0  0  0  0
    6.9400    6.4600   -5.9570 C   0  0  0  0  0  0  0  0  0  0  0  0
    5.8250    5.6760   -6.5050 C   0  0  0  0  0  0  0  0  0  0  0  0
    5.7020    5.5460   -7.8990 C   0  0  0  0  0  0  0  0  0  0  0  0
    4.6540    4.8120   -8.4650 C   0  0  0  0  0  0  0  0  0  0  0  0
    3.7260    4.1520   -7.6590 C   0  0  0  0  0  0  0  0  0  0  0  0
    2.6160    3.5240   -8.2320 N   0  0  0  0  0  0  0  0  0  0  0  0
    3.8050    4.3220   -6.2760 C   0  0  0  0  0  0  0  0  0  0  0  0
    4.8520    5.0560   -5.7010 C   0  0  0  0  0  0  0  0  0  0  0  0
    4.8940    5.1630   -3.9740 Cl  0  0  0  0  0  0  0  0  0  0  0  0
    7.1280    7.7960   -6.3370 C   0  0  0  0  0  0  0  0  0  0  0  0
    8.1830    8.5550   -5.8140 C   0  0  0  0  0  0  0  0  0  0  0  0
    9.0760    7.9950   -4.8920 C   0  0  0  0  0  0  0  0  0  0  0  0
   10.5451   10.7899   -3.7885 H   0  0  0  0  0  0  0  0  0  0  0  0
   11.3659   10.2459   -5.2909 H   0  0  0  0  0  0  0  0  0  0  0  0
    9.5934   10.5374   -5.2909 H   0  0  0  0  0  0  0  0  0  0  0  0
   11.8564    8.6828   -2.9914 H   0  0  0  0  0  0  0  0  0  0  0  0
    9.6290    5.0990   -3.3130 H   0  0  0  0  0  0  0  0  0  0  0  0
    7.7002    4.8518   -4.7157 H   0  0  0  0  0  0  0  0  0  0  0  0
    6.4411    6.0288   -8.5552 H   0  0  0  0  0  0  0  0  0  0  0  0
    4.5605    4.7545   -9.5595 H   0  0  0  0  0  0  0  0  0  0  0  0
    2.4530    3.7670   -9.2040 H   0  0  0  0  0  0  0  0  0  0  0  0
    1.7690    3.5810   -7.6740 H   0  0  0  0  0  0  0  0  0  0  0  0
    3.0362    3.8745   -5.6290 H   0  0  0  0  0  0  0  0  0  0  0  0
    6.4359    8.2560   -7.0576 H   0  0  0  0  0  0  0  0  0  0  0  0
    8.3111    9.6007   -6.1305 H   0  0  0  0  0  0  0  0  0  0  0  0
  1  2  1  0
  2  3  2  0
  3  4  1  0
  4  5  2  0
  4  6  1  0
  6  7  1  0
  7  8  2  0
  8  9  1  0
  9 10  1  0
 10 11  2  0
 11 12  1  0
 12 13  2  0
 13 14  1  0
 13 15  1  0
 15 16  2  0
 16 17  1  0
  9 18  2  0
 18 19  1  0
 19 20  2  0
 20  2  1  0
 20  7  1  0
 16 10  1  0
  1 21  1  0
  1 22  1  0
  1 23  1  0
  3 24  1  0
  6 25  1  0
  8 26  1  0
 11 27  1  0
 12 28  1  0
 14 29  1  0
 14 30  1  0
 15 31  1  0
 18 32  1  0
 19 33  1  0
M  END
>  <meeko>  (8) 
{"is_sidechain": [false], "free_energy": -8.671, "intermolecular_energy": -9.674, "internal_energy": -0.252}

$$$$
4j21_ligand
     RDKit          3D

 33 35  0  0  0  0  0  0  0  0999 V2000
    0.4180    5.0620  -10.1000 C   0  0  0  0  0  0  0  0  0  0  0  0
    1.1770    6.2920   -9.6990 C   0  0  0  0  0  0  0  0  0  0  0  0
    0.7860    7.5130  -10.1050 C   0  0  0  0  0  0  0  0  0  0  0  0
    1.5140    8.7440   -9.7290 C   0  0  0  0  0  0  0  0  0  0  0  0
    1.1310    9.8430  -10.1150 O   0  0  0  0  0  0  0  0  0  0  0  0
    2.6170    8.5880   -8.9410 N   0  0  0  0  0  0  0  0  0  0  0  0
    3.0730    7.3440   -8.4870 C   0  0  0  0  0  0  0  0  0  0  0  0
    4.2150    7.2950   -7.6830 C   0  0  0  0  0  0  0  0  0  0  0  0
    4.7000    6.0670   -7.2130 C   0  0  0  0  0  0  0  0  0  0  0  0
    5.8940    6.0030   -6.3610 C   0  0  0  0  0  0  0  0  0  0  0  0
    7.1450    6.3290   -6.9120 C   0  0  0  0  0  0  0  0  0  0  0  0
    8.3100    6.2790   -6.1380 C   0  0  0  0  0  0  0  0  0  0  0  0
    8.2550    5.9430   -4.7850 C   0  0  0  0  0  0  0  0  0  0  0  0
    9.4340    5.7770   -4.0520 N   0  0  0  0  0  0  0  0  0  0  0  0
    7.0270    5.5610   -4.2420 C   0  0  0  0  0  0  0  0  0  0  0  0
    5.8560    5.6100   -5.0120 C   0  0  0  0  0  0  0  0  0  0  0  0
    4.3740    5.1690   -4.2330 Cl  0  0  0  0  0  0  0  0  0  0  0  0
    4.0100    4.8980   -7.5650 C   0  0  0  0  0  0  0  0  0  0  0  0
    2.8650    4.9500   -8.3710 C   0  0  0  0  0  0  0  0  0  0  0  0
    2.3800    6.1750   -8.8440 C   0  0  0  0  0  0  0  0  0  0  0  0
    0.0869    4.5254   -9.1987 H   0  0  0  0  0  0  0  0  0  0  0  0
   -0.4591    5.3509  -10.6977 H   0  0  0  0  0  0  0  0  0  0  0  0
    1.0696    4.4076  -10.6977 H   0  0  0  0  0  0  0  0  0  0  0  0
   -0.1081    7.5992  -10.7400 H   0  0  0  0  0  0  0  0  0  0  0  0
    3.1090    9.4350   -8.6950 H   0  0  0  0  0  0  0  0  0  0  0  0
    4.7366    8.2263   -7.4173 H   0  0  0  0  0  0  0  0  0  0  0  0
    7.2096    6.6283   -7.9685 H   0  0  0  0  0  0  0  0  0  0  0  0
    9.2808    6.5074   -6.6021 H   0  0  0  0  0  0  0  0  0  0  0  0
   10.2510    6.2100   -4.4710 H   0  0  0  0  0  0  0  0  0  0  0  0
    9.6130    4.8210   -3.7590 H   0  0  0  0  0  0  0  0  0  0  0  0
    6.9773    5.2176   -3.1982 H   0  0  0  0  0  0  0  0  0  0  0  0
    4.3733    3.9250   -7.2027 H   0  0  0  0  0  0  0  0  0  0  0  0
    2.3420    4.0189   -8.6347 H   0  0  0  0  0  0  0  0  0  0  0  0
  1  2  1  0
  2  3  2  0
  3  4  1  0
  4  5  2  0
  4  6  1  0
  6  7  1  0
  7  8  2  0
  8  9  1  0
  9 10  1  0
 10 11  2  0
 11 12  1  0
 12 13  2  0
 13 14  1  0
 13 15  1  0
 15 16  2  0
 16 17  1  0
  9 18  2  0
 18 19  1  0
 19 20  2  0
 20  2  1  0
 20  7  1  0
 16 10  1  0
  1 21  1  0
  1 22  1  0
  1 23  1  0
  3 24  1  0
  6 25  1  0
  8 26  1  0
 11 27  1  0
 12 28  1  0
 14 29  1  0
 14 30  1  0
 15 31  1  0
 18 32  1  0
 19 33  1  0
M  END
>  <meeko>  (9) 
{"is_sidechain": [false], "free_energy": -8.638, "intermolecular_energy": -9.51, "internal_energy": -0.379}

$$$$
