
     RDKit          3D

 25 27  0  0  0  0  0  0  0  0999 V2000
    3.3830   21.3530    6.6570 C   0  0  0  0  0  0  0  0  0  0  0  0
    2.1000   20.7270    7.0080 C   0  0  1  0  0  0  0  0  0  0  0  0
    1.2210   21.5130    7.9030 C   0  0  0  0  0  0  0  0  0  0  0  0
    1.5820   22.8980    8.1550 C   0  0  2  0  0  0  0  0  0  0  0  0
    1.0490   23.4760    9.3560 O   0  0  0  0  0  0  0  0  0  0  0  0
    0.7620   24.1230    8.1110 C   0  0  2  0  0  0  0  0  0  0  0  0
   -0.6640   24.1090    7.7120 C   0  0  0  0  0  0  0  0  0  0  0  0
   -0.9790   24.2600    6.3940 C   0  0  0  0  0  0  0  0  0  0  0  0
   -1.8170   23.2630    5.7890 C   0  0  0  0  0  0  0  0  0  0  0  0
   -1.7180   23.1020    4.4590 C   0  0  0  0  0  0  0  0  0  0  0  0
   -0.8300   22.0850    4.0060 C   0  0  0  0  0  0  0  0  0  0  0  0
    0.0310   22.3410    3.2030 O   0  0  0  0  0  0  0  0  0  0  0  0
   -1.0650   20.7190    4.5240 C   0  0  0  0  0  0  0  0  0  0  0  0
   -0.4570   19.7240    3.6770 C   0  0  0  0  0  0  0  0  0  0  0  0
   -0.9640   19.5210    2.4040 C   0  0  0  0  0  0  0  0  0  0  0  0
   -2.3460   20.3790    1.8690 Cl  0  0  0  0  0  0  0  0  0  0  0  0
   -0.3660   18.6200    1.5550 C   0  0  0  0  0  0  0  0  0  0  0  0
   -0.8380   18.4510    0.3060 O   0  0  0  0  0  0  0  0  0  0  0  0
    0.7390   17.9050    1.9630 C   0  0  0  0  0  0  0  0  0  0  0  0
    1.2430   18.0870    3.2360 C   0  0  0  0  0  0  0  0  0  0  0  0
    2.3040   17.3690    3.6600 O   0  0  0  0  0  0  0  0  0  0  0  0
    0.6750   18.9980    4.1080 C   0  0  0  0  0  0  0  0  0  0  0  0
    1.2820   19.2050    5.4330 C   0  0  0  0  0  0  0  0  0  0  0  0
    1.6800   18.2860    6.0750 O   0  0  0  0  0  0  0  0  0  0  0  0
    1.4060   20.4610    5.8460 O   0  0  0  0  0  0  0  0  0  0  0  0
  2  1  1  6
  3  2  1  0
  4  3  1  6
  5  4  1  0
  6  5  1  1
  6  4  1  0
  7  6  1  0
  8  7  2  3
  9  8  1  0
 10  9  2  3
 11 10  1  0
 12 11  2  0
 13 11  1  0
 14 13  1  0
 15 14  2  0
 16 15  1  0
 17 15  1  0
 18 17  1  0
 19 17  2  0
 20 19  1  0
 21 20  1  0
 22 20  2  0
 22 14  1  0
 23 22  1  0
 24 23  2  0
 25 23  1  0
 25  2  1  0
M  END
$$$$
