3rlr_ligand
     RDKit          3D

 35 37  0  0  0  0  0  0  0  0999 V2000
   -6.2010   -0.1420   -5.1830 C   0  0  0  0  0  0  0  0  0  0  0  0
   -5.0280    0.3720   -5.8000 O   0  0  0  0  0  0  0  0  0  0  0  0
   -4.7930    1.7190   -5.7050 C   0  0  0  0  0  0  0  0  0  0  0  0
   -4.6410    2.4160   -4.5000 C   0  0  0  0  0  0  0  0  0  0  0  0
   -4.3970    3.8050   -4.4770 C   0  0  0  0  0  0  0  0  0  0  0  0
   -4.2500    4.4710   -3.1860 C   0  0  0  0  0  0  0  0  0  0  0  0
   -3.0480    4.3600   -2.5660 N   0  0  0  0  0  0  0  0  0  0  0  0
   -2.8710    4.9590   -1.3690 C   0  0  0  0  0  0  0  0  0  0  0  0
   -1.5450    4.7560   -0.7010 C   0  0  0  0  0  0  0  0  0  0  0  0
   -3.7840    5.6900   -0.7020 N   0  0  0  0  0  0  0  0  0  0  0  0
   -4.9410    5.7990   -1.3670 C   0  0  0  0  0  0  0  0  0  0  0  0
   -6.0230    6.5020   -0.9140 N   0  0  0  0  0  0  0  0  0  0  0  0
   -7.0410    6.4420   -1.8370 C   0  0  0  0  0  0  0  0  0  0  0  0
   -8.3400    7.1300   -1.6170 C   0  0  0  0  0  0  0  0  0  0  0  0
   -6.5860    5.6670   -2.8950 C   0  0  0  0  0  0  0  0  0  0  0  0
   -7.3380    5.3730   -4.0760 C   0  0  0  0  0  0  0  0  0  0  0  0
   -7.9410    5.1410   -5.0400 N   0  0  0  0  0  0  0  0  0  0  0  0
   -5.2590    5.2440   -2.5950 C   0  0  0  0  0  0  0  0  0  0  0  0
   -4.3330    4.4910   -5.7020 C   0  0  0  0  0  0  0  0  0  0  0  0
   -4.0920    6.2040   -5.7800 Cl  0  0  0  0  0  0  0  0  0  0  0  0
   -4.4780    3.8080   -6.9110 C   0  0  0  0  0  0  0  0  0  0  0  0
   -4.7020    2.4310   -6.9100 C   0  0  0  0  0  0  0  0  0  0  0  0
   -4.8790    1.6420   -8.4390 Cl  0  0  0  0  0  0  0  0  0  0  0  0
   -6.0913   -0.0939   -4.0895 H   0  0  0  0  0  0  0  0  0  0  0  0
   -7.0702    0.4577   -5.4910 H   0  0  0  0  0  0  0  0  0  0  0  0
   -6.3492   -1.1875   -5.4910 H   0  0  0  0  0  0  0  0  0  0  0  0
   -4.7136    1.8675   -3.5493 H   0  0  0  0  0  0  0  0  0  0  0  0
   -1.6775    4.7763    0.3908 H   0  0  0  0  0  0  0  0  0  0  0  0
   -1.1280    3.7835   -1.0017 H   0  0  0  0  0  0  0  0  0  0  0  0
   -0.8562    5.5592   -1.0017 H   0  0  0  0  0  0  0  0  0  0  0  0
   -6.0380    6.9930   -0.0310 H   0  0  0  0  0  0  0  0  0  0  0  0
   -8.5248    7.2279   -0.5371 H   0  0  0  0  0  0  0  0  0  0  0  0
   -8.3079    8.1293   -2.0756 H   0  0  0  0  0  0  0  0  0  0  0  0
   -9.1487    6.5420   -2.0756 H   0  0  0  0  0  0  0  0  0  0  0  0
   -4.4157    4.3550   -7.8633 H   0  0  0  0  0  0  0  0  0  0  0  0
  1  2  1  0
  2  3  1  0
  3  4  2  0
  4  5  1  0
  5  6  1  0
  6  7  2  0
  7  8  1  0
  8  9  1  0
  8 10  2  0
 10 11  1  0
 11 12  1  0
 12 13  1  0
 13 14  1  0
 13 15  2  0
 15 16  1  0
 16 17  3  0
 15 18  1  0
  5 19  2  0
 19 20  1  0
 19 21  1  0
 21 22  2  0
 22 23  1  0
 22  3  1  0
 18  6  1  0
 18 11  2  0
  1 24  1  0
  1 25  1  0
  1 26  1  0
  4 27  1  0
  9 28  1  0
  9 29  1  0
  9 30  1  0
 12 31  1  0
 14 32  1  0
 14 33  1  0
 14 34  1  0
 21 35  1  0
M  END
>  <meeko>  (1) 
{"is_sidechain": [false], "free_energy": -7.436, "intermolecular_energy": -8.306, "internal_energy": -0.784}

$$$$
3rlr_ligand
     RDKit          3D

 35 37  0  0  0  0  0  0  0  0999 V2000
   -5.7230    4.6920   -8.3540 C   0  0  0  0  0  0  0  0  0  0  0  0
   -4.5420    4.0170   -7.9450 O   0  0  0  0  0  0  0  0  0  0  0  0
   -4.5280    3.4480   -6.6980 C   0  0  0  0  0  0  0  0  0  0  0  0
   -4.3470    4.1580   -5.5050 C   0  0  0  0  0  0  0  0  0  0  0  0
   -4.3470    3.5080   -4.2520 C   0  0  0  0  0  0  0  0  0  0  0  0
   -4.1520    4.3060   -3.0460 C   0  0  0  0  0  0  0  0  0  0  0  0
   -2.9320    4.2440   -2.4530 N   0  0  0  0  0  0  0  0  0  0  0  0
   -2.7110    4.9650   -1.3330 C   0  0  0  0  0  0  0  0  0  0  0  0
   -1.3670    4.8160   -0.6880 C   0  0  0  0  0  0  0  0  0  0  0  0
   -3.5940    5.7770   -0.7220 N   0  0  0  0  0  0  0  0  0  0  0  0
   -4.7700    5.8310   -1.3600 C   0  0  0  0  0  0  0  0  0  0  0  0
   -5.8290    6.5930   -0.9530 N   0  0  0  0  0  0  0  0  0  0  0  0
   -6.8770    6.4500   -1.8320 C   0  0  0  0  0  0  0  0  0  0  0  0
   -8.1600    7.1770   -1.6490 C   0  0  0  0  0  0  0  0  0  0  0  0
   -6.4640    5.5600   -2.8140 C   0  0  0  0  0  0  0  0  0  0  0  0
   -7.2560    5.1520   -3.9330 C   0  0  0  0  0  0  0  0  0  0  0  0
   -7.8920    4.8270   -4.8490 N   0  0  0  0  0  0  0  0  0  0  0  0
   -5.1330    5.1520   -2.5110 C   0  0  0  0  0  0  0  0  0  0  0  0
   -4.5110    2.1120   -4.2260 C   0  0  0  0  0  0  0  0  0  0  0  0
   -4.4730    1.2140   -2.7460 Cl  0  0  0  0  0  0  0  0  0  0  0  0
   -4.6980    1.3930   -5.4080 C   0  0  0  0  0  0  0  0  0  0  0  0
   -4.7090    2.0590   -6.6340 C   0  0  0  0  0  0  0  0  0  0  0  0
   -4.9390    1.1130   -8.0640 Cl  0  0  0  0  0  0  0  0  0  0  0  0
   -6.2871    5.0144   -7.4664 H   0  0  0  0  0  0  0  0  0  0  0  0
   -5.4526    5.5719   -8.9562 H   0  0  0  0  0  0  0  0  0  0  0  0
   -6.3439    4.0124   -8.9562 H   0  0  0  0  0  0  0  0  0  0  0  0
   -4.2014    5.2476   -5.5450 H   0  0  0  0  0  0  0  0  0  0  0  0
   -1.4818    4.8287    0.4059 H   0  0  0  0  0  0  0  0  0  0  0  0
   -0.9151    3.8623   -0.9982 H   0  0  0  0  0  0  0  0  0  0  0  0
   -0.7172    5.6476   -0.9982 H   0  0  0  0  0  0  0  0  0  0  0  0
   -5.8120    7.1770   -0.1270 H   0  0  0  0  0  0  0  0  0  0  0  0
   -8.3655    7.2934   -0.5746 H   0  0  0  0  0  0  0  0  0  0  0  0
   -8.0894    8.1693   -2.1184 H   0  0  0  0  0  0  0  0  0  0  0  0
   -8.9749    6.6065   -2.1184 H   0  0  0  0  0  0  0  0  0  0  0  0
   -4.8366    0.3023   -5.3728 H   0  0  0  0  0  0  0  0  0  0  0  0
  1  2  1  0
  2  3  1  0
  3  4  2  0
  4  5  1  0
  5  6  1  0
  6  7  2  0
  7  8  1  0
  8  9  1  0
  8 10  2  0
 10 11  1  0
 11 12  1  0
 12 13  1  0
 13 14  1  0
 13 15  2  0
 15 16  1  0
 16 17  3  0
 15 18  1  0
  5 19  2  0
 19 20  1  0
 19 21  1  0
 21 22  2  0
 22 23  1  0
 22  3  1  0
 18  6  1  0
 18 11  2  0
  1 24  1  0
  1 25  1  0
  1 26  1  0
  4 27  1  0
  9 28  1  0
  9 29  1  0
  9 30  1  0
 12 31  1  0
 14 32  1  0
 14 33  1  0
 14 34  1  0
 21 35  1  0
M  END
>  <meeko>  (2) 
{"is_sidechain": [false], "free_energy": -7.28, "intermolecular_energy": -8.281, "internal_energy": -0.634}

$$$$
3rlr_ligand
     RDKit          3D

 35 37  0  0  0  0  0  0  0  0999 V2000
   -4.5870    0.4380   -8.8420 C   0  0  0  0  0  0  0  0  0  0  0  0
   -4.8330   -0.3180   -7.6630 O   0  0  0  0  0  0  0  0  0  0  0  0
   -5.3130    0.3470   -6.5650 C   0  0  0  0  0  0  0  0  0  0  0  0
   -4.5130    1.0140   -5.6300 C   0  0  0  0  0  0  0  0  0  0  0  0
   -5.0750    1.6830   -4.5210 C   0  0  0  0  0  0  0  0  0  0  0  0
   -4.1850    2.3580   -3.5820 C   0  0  0  0  0  0  0  0  0  0  0  0
   -3.3910    1.5750   -2.8080 N   0  0  0  0  0  0  0  0  0  0  0  0
   -2.5560    2.1610   -1.9240 C   0  0  0  0  0  0  0  0  0  0  0  0
   -1.7450    1.2480   -1.0550 C   0  0  0  0  0  0  0  0  0  0  0  0
   -2.4080    3.4840   -1.7240 N   0  0  0  0  0  0  0  0  0  0  0  0
   -3.1860    4.2160   -2.5320 C   0  0  0  0  0  0  0  0  0  0  0  0
   -3.2120    5.5830   -2.5400 N   0  0  0  0  0  0  0  0  0  0  0  0
   -4.0920    6.0300   -3.4980 C   0  0  0  0  0  0  0  0  0  0  0  0
   -4.3150    7.4790   -3.7420 C   0  0  0  0  0  0  0  0  0  0  0  0
   -4.6420    4.9070   -4.1000 C   0  0  0  0  0  0  0  0  0  0  0  0
   -5.5960    4.9350   -5.1660 C   0  0  0  0  0  0  0  0  0  0  0  0
   -6.3610    4.9540   -6.0390 N   0  0  0  0  0  0  0  0  0  0  0  0
   -4.0830    3.7520   -3.4810 C   0  0  0  0  0  0  0  0  0  0  0  0
   -6.4710    1.6450   -4.3580 C   0  0  0  0  0  0  0  0  0  0  0  0
   -7.2540    2.3870   -3.0040 Cl  0  0  0  0  0  0  0  0  0  0  0  0
   -7.2800    0.9870   -5.2870 C   0  0  0  0  0  0  0  0  0  0  0  0
   -6.7030    0.3470   -6.3830 C   0  0  0  0  0  0  0  0  0  0  0  0
   -7.7580   -0.4560   -7.4950 Cl  0  0  0  0  0  0  0  0  0  0  0  0
   -4.2575    1.4506   -8.5662 H   0  0  0  0  0  0  0  0  0  0  0  0
   -3.8025   -0.0538   -9.4359 H   0  0  0  0  0  0  0  0  0  0  0  0
   -5.5107    0.5020   -9.4359 H   0  0  0  0  0  0  0  0  0  0  0  0
   -3.4210    1.0170   -5.7623 H   0  0  0  0  0  0  0  0  0  0  0  0
   -1.9459    1.4742    0.0026 H   0  0  0  0  0  0  0  0  0  0  0  0
   -2.0184    0.2034   -1.2649 H   0  0  0  0  0  0  0  0  0  0  0  0
   -0.6754    1.3963   -1.2649 H   0  0  0  0  0  0  0  0  0  0  0  0
   -2.6480    6.1550   -1.9270 H   0  0  0  0  0  0  0  0  0  0  0  0
   -4.3959    8.0048   -2.7792 H   0  0  0  0  0  0  0  0  0  0  0  0
   -3.4694    7.8890   -4.3137 H   0  0  0  0  0  0  0  0  0  0  0  0
   -5.2448    7.6157   -4.3137 H   0  0  0  0  0  0  0  0  0  0  0  0
   -8.3719    0.9737   -5.1540 H   0  0  0  0  0  0  0  0  0  0  0  0
  1  2  1  0
  2  3  1  0
  3  4  2  0
  4  5  1  0
  5  6  1  0
  6  7  2  0
  7  8  1  0
  8  9  1  0
  8 10  2  0
 10 11  1  0
 11 12  1  0
 12 13  1  0
 13 14  1  0
 13 15  2  0
 15 16  1  0
 16 17  3  0
 15 18  1  0
  5 19  2  0
 19 20  1  0
 19 21  1  0
 21 22  2  0
 22 23  1  0
 22  3  1  0
 18  6  1  0
 18 11  2  0
  1 24  1  0
  1 25  1  0
  1 26  1  0
  4 27  1  0
  9 28  1  0
  9 29  1  0
  9 30  1  0
 12 31  1  0
 14 32  1  0
 14 33  1  0
 14 34  1  0
 21 35  1  0
M  END
>  <meeko>  (3) 
{"is_sidechain": [false], "free_energy": -7.27, "intermolecular_energy": -8.183, "internal_energy": -0.721}

$$$$
3rlr_ligand
     RDKit          3D

 35 37  0  0  0  0  0  0  0  0999 V2000
   -1.5470    4.2460   -1.1110 C   0  0  0  0  0  0  0  0  0  0  0  0
   -2.7380    3.5310   -0.8070 O   0  0  0  0  0  0  0  0  0  0  0  0
   -3.7880    3.6370   -1.6800 C   0  0  0  0  0  0  0  0  0  0  0  0
   -3.9600    2.8360   -2.8160 C   0  0  0  0  0  0  0  0  0  0  0  0
   -5.0700    2.9970   -3.6720 C   0  0  0  0  0  0  0  0  0  0  0  0
   -5.1890    2.1300   -4.8400 C   0  0  0  0  0  0  0  0  0  0  0  0
   -5.6850    0.8830   -4.6380 N   0  0  0  0  0  0  0  0  0  0  0  0
   -5.8090    0.0480   -5.6920 C   0  0  0  0  0  0  0  0  0  0  0  0
   -6.3060   -1.3350   -5.4040 C   0  0  0  0  0  0  0  0  0  0  0  0
   -5.4930    0.3290   -6.9710 N   0  0  0  0  0  0  0  0  0  0  0  0
   -5.0400    1.5790   -7.1260 C   0  0  0  0  0  0  0  0  0  0  0  0
   -4.6670    2.1160   -8.3270 N   0  0  0  0  0  0  0  0  0  0  0  0
   -4.2750    3.4230   -8.1550 C   0  0  0  0  0  0  0  0  0  0  0  0
   -3.8290    4.2650   -9.2960 C   0  0  0  0  0  0  0  0  0  0  0  0
   -4.3940    3.7090   -6.8020 C   0  0  0  0  0  0  0  0  0  0  0  0
   -4.1000    4.9750   -6.2040 C   0  0  0  0  0  0  0  0  0  0  0  0
   -3.8740    6.0040   -5.7180 N   0  0  0  0  0  0  0  0  0  0  0  0
   -4.8650    2.5380   -6.1410 C   0  0  0  0  0  0  0  0  0  0  0  0
   -6.0010    4.0070   -3.3730 C   0  0  0  0  0  0  0  0  0  0  0  0
   -7.3680    4.3220   -4.3880 Cl  0  0  0  0  0  0  0  0  0  0  0  0
   -5.8440    4.8090   -2.2410 C   0  0  0  0  0  0  0  0  0  0  0  0
   -4.7470    4.6210   -1.4000 C   0  0  0  0  0  0  0  0  0  0  0  0
   -4.6050    5.6500   -0.0170 Cl  0  0  0  0  0  0  0  0  0  0  0  0
   -1.0498    4.5445   -0.1763 H   0  0  0  0  0  0  0  0  0  0  0  0
   -0.8727    3.6033   -1.6959 H   0  0  0  0  0  0  0  0  0  0  0  0
   -1.7972    5.1433   -1.6959 H   0  0  0  0  0  0  0  0  0  0  0  0
   -3.2120    2.0631   -3.0463 H   0  0  0  0  0  0  0  0  0  0  0  0
   -6.3602   -1.4859   -4.3158 H   0  0  0  0  0  0  0  0  0  0  0  0
   -7.3066   -1.4637   -5.8424 H   0  0  0  0  0  0  0  0  0  0  0  0
   -5.6162   -2.0712   -5.8424 H   0  0  0  0  0  0  0  0  0  0  0  0
   -4.6970    1.6060   -9.1990 H   0  0  0  0  0  0  0  0  0  0  0  0
   -3.3464    5.1761   -8.9127 H   0  0  0  0  0  0  0  0  0  0  0  0
   -3.1116    3.7006   -9.9098 H   0  0  0  0  0  0  0  0  0  0  0  0
   -4.6990    4.5414   -9.9098 H   0  0  0  0  0  0  0  0  0  0  0  0
   -6.5852    5.5890   -2.0123 H   0  0  0  0  0  0  0  0  0  0  0  0
  1  2  1  0
  2  3  1  0
  3  4  2  0
  4  5  1  0
  5  6  1  0
  6  7  2  0
  7  8  1  0
  8  9  1  0
  8 10  2  0
 10 11  1  0
 11 12  1  0
 12 13  1  0
 13 14  1  0
 13 15  2  0
 15 16  1  0
 16 17  3  0
 15 18  1  0
  5 19  2  0
 19 20  1  0
 19 21  1  0
 21 22  2  0
 22 23  1  0
 22  3  1  0
 18  6  1  0
 18 11  2  0
  1 24  1  0
  1 25  1  0
  1 26  1  0
  4 27  1  0
  9 28  1  0
  9 29  1  0
  9 30  1  0
 12 31  1  0
 14 32  1  0
 14 33  1  0
 14 34  1  0
 21 35  1  0
M  END
>  <meeko>  (4) 
{"is_sidechain": [false], "free_energy": -7.204, "intermolecular_energy": -8.063, "internal_energy": -0.767}

$$$$
3rlr_ligand
     RDKit          3D

 35 37  0  0  0  0  0  0  0  0999 V2000
   -6.1300   -1.1810   -6.1190 C   0  0  0  0  0  0  0  0  0  0  0  0
   -6.6560   -0.1400   -5.3060 O   0  0  0  0  0  0  0  0  0  0  0  0
   -5.8970    0.9890   -5.1410 C   0  0  0  0  0  0  0  0  0  0  0  0
   -5.1160    1.2620   -4.0110 C   0  0  0  0  0  0  0  0  0  0  0  0
   -4.3540    2.4450   -3.9090 C   0  0  0  0  0  0  0  0  0  0  0  0
   -3.5620    2.6690   -2.7040 C   0  0  0  0  0  0  0  0  0  0  0  0
   -2.4950    1.8540   -2.5030 N   0  0  0  0  0  0  0  0  0  0  0  0
   -1.7380    2.0260   -1.3990 C   0  0  0  0  0  0  0  0  0  0  0  0
   -0.6080    1.0630   -1.1970 C   0  0  0  0  0  0  0  0  0  0  0  0
   -1.9230    2.9570   -0.4440 N   0  0  0  0  0  0  0  0  0  0  0  0
   -2.9660    3.7580   -0.7010 C   0  0  0  0  0  0  0  0  0  0  0  0
   -3.3550    4.7920    0.1030 N   0  0  0  0  0  0  0  0  0  0  0  0
   -4.4380    5.4340   -0.4490 C   0  0  0  0  0  0  0  0  0  0  0  0
   -5.0690    6.6110    0.2030 C   0  0  0  0  0  0  0  0  0  0  0  0
   -4.7440    4.7730   -1.6300 C   0  0  0  0  0  0  0  0  0  0  0  0
   -5.8010    5.1380   -2.5230 C   0  0  0  0  0  0  0  0  0  0  0  0
   -6.6490    5.4390   -3.2550 N   0  0  0  0  0  0  0  0  0  0  0  0
   -3.8220    3.6980   -1.7880 C   0  0  0  0  0  0  0  0  0  0  0  0
   -4.4140    3.3700   -4.9660 C   0  0  0  0  0  0  0  0  0  0  0  0
   -3.5600    4.8750   -4.9150 Cl  0  0  0  0  0  0  0  0  0  0  0  0
   -5.1850    3.1080   -6.1000 C   0  0  0  0  0  0  0  0  0  0  0  0
   -5.9170    1.9240   -6.1860 C   0  0  0  0  0  0  0  0  0  0  0  0
   -6.8580    1.6590   -7.6140 Cl  0  0  0  0  0  0  0  0  0  0  0  0
   -5.7269   -1.9788   -5.4779 H   0  0  0  0  0  0  0  0  0  0  0  0
   -6.9297   -1.5899   -6.7541 H   0  0  0  0  0  0  0  0  0  0  0  0
   -5.3264   -0.7798   -6.7541 H   0  0  0  0  0  0  0  0  0  0  0  0
   -5.0962    0.5372   -3.1838 H   0  0  0  0  0  0  0  0  0  0  0  0
   -0.4379    0.9180   -0.1199 H   0  0  0  0  0  0  0  0  0  0  0  0
   -0.8608    0.0984   -1.6614 H   0  0  0  0  0  0  0  0  0  0  0  0
    0.3043    1.4656   -1.6614 H   0  0  0  0  0  0  0  0  0  0  0  0
   -2.8880    5.0330    0.9670 H   0  0  0  0  0  0  0  0  0  0  0  0
   -5.0097    6.5004    1.2958 H   0  0  0  0  0  0  0  0  0  0  0  0
   -4.5406    7.5263   -0.1021 H   0  0  0  0  0  0  0  0  0  0  0  0
   -6.1237    6.6775   -0.1021 H   0  0  0  0  0  0  0  0  0  0  0  0
   -5.2151    3.8349   -6.9251 H   0  0  0  0  0  0  0  0  0  0  0  0
  1  2  1  0
  2  3  1  0
  3  4  2  0
  4  5  1  0
  5  6  1  0
  6  7  2  0
  7  8  1  0
  8  9  1  0
  8 10  2  0
 10 11  1  0
 11 12  1  0
 12 13  1  0
 13 14  1  0
 13 15  2  0
 15 16  1  0
 16 17  3  0
 15 18  1  0
  5 19  2  0
 19 20  1  0
 19 21  1  0
 21 22  2  0
 22 23  1  0
 22  3  1  0
 18  6  1  0
 18 11  2  0
  1 24  1  0
  1 25  1  0
  1 26  1  0
  4 27  1  0
  9 28  1  0
  9 29  1  0
  9 30  1  0
 12 31  1  0
 14 32  1  0
 14 33  1  0
 14 34  1  0
 21 35  1  0
M  END
>  <meeko>  (5) 
{"is_sidechain": [false], "free_energy": -7.097, "intermolecular_energy": -8.57, "internal_energy": -0.141}

$$$$
3rlr_ligand
     RDKit          3D

 35 37  0  0  0  0  0  0  0  0999 V2000
   -1.7210    4.0940   -1.0790 C   0  0  0  0  0  0  0  0  0  0  0  0
   -2.3410    5.3250   -1.4270 O   0  0  0  0  0  0  0  0  0  0  0  0
   -3.5090    5.2740   -2.1420 C   0  0  0  0  0  0  0  0  0  0  0  0
   -3.5860    5.0440   -3.5210 C   0  0  0  0  0  0  0  0  0  0  0  0
   -4.8250    5.0010   -4.1940 C   0  0  0  0  0  0  0  0  0  0  0  0
   -4.8350    4.7580   -5.6330 C   0  0  0  0  0  0  0  0  0  0  0  0
   -4.8370    5.8460   -6.4450 N   0  0  0  0  0  0  0  0  0  0  0  0
   -4.8490    5.6650   -7.7830 C   0  0  0  0  0  0  0  0  0  0  0  0
   -4.9090    6.8990   -8.6310 C   0  0  0  0  0  0  0  0  0  0  0  0
   -4.8500    4.4820   -8.4260 N   0  0  0  0  0  0  0  0  0  0  0  0
   -4.8150    3.4400   -7.5860 C   0  0  0  0  0  0  0  0  0  0  0  0
   -4.7920    2.1330   -7.9860 N   0  0  0  0  0  0  0  0  0  0  0  0
   -4.7310    1.3070   -6.8880 C   0  0  0  0  0  0  0  0  0  0  0  0
   -4.6800   -0.1720   -7.0210 C   0  0  0  0  0  0  0  0  0  0  0  0
   -4.7290    2.1230   -5.7650 C   0  0  0  0  0  0  0  0  0  0  0  0
   -4.6560    1.6560   -4.4150 C   0  0  0  0  0  0  0  0  0  0  0  0
   -4.5850    1.2820   -3.3180 N   0  0  0  0  0  0  0  0  0  0  0  0
   -4.7970    3.4780   -6.2010 C   0  0  0  0  0  0  0  0  0  0  0  0
   -5.9960    5.2210   -3.4480 C   0  0  0  0  0  0  0  0  0  0  0  0
   -7.5620    5.2430   -4.1880 Cl  0  0  0  0  0  0  0  0  0  0  0  0
   -5.9340    5.4470   -2.0720 C   0  0  0  0  0  0  0  0  0  0  0  0
   -4.6980    5.4690   -1.4250 C   0  0  0  0  0  0  0  0  0  0  0  0
   -4.6850    5.7590    0.2800 Cl  0  0  0  0  0  0  0  0  0  0  0  0
   -1.6753    4.0032    0.0163 H   0  0  0  0  0  0  0  0  0  0  0  0
   -2.3061    3.2591   -1.4920 H   0  0  0  0  0  0  0  0  0  0  0  0
   -0.7018    4.0671   -1.4920 H   0  0  0  0  0  0  0  0  0  0  0  0
   -2.6586    4.8933   -4.0930 H   0  0  0  0  0  0  0  0  0  0  0  0
   -4.9522    7.7871   -7.9834 H   0  0  0  0  0  0  0  0  0  0  0  0
   -4.0123    6.9515   -9.2660 H   0  0  0  0  0  0  0  0  0  0  0  0
   -5.8065    6.8642   -9.2660 H   0  0  0  0  0  0  0  0  0  0  0  0
   -4.8070    1.8460   -8.9550 H   0  0  0  0  0  0  0  0  0  0  0  0
   -4.6642   -0.6298   -6.0209 H   0  0  0  0  0  0  0  0  0  0  0  0
   -5.5666   -0.5215   -7.5703 H   0  0  0  0  0  0  0  0  0  0  0  0
   -3.7714   -0.4596   -7.5703 H   0  0  0  0  0  0  0  0  0  0  0  0
   -6.8587    5.6076   -1.4983 H   0  0  0  0  0  0  0  0  0  0  0  0
  1  2  1  0
  2  3  1  0
  3  4  2  0
  4  5  1  0
  5  6  1  0
  6  7  2  0
  7  8  1  0
  8  9  1  0
  8 10  2  0
 10 11  1  0
 11 12  1  0
 12 13  1  0
 13 14  1  0
 13 15  2  0
 15 16  1  0
 16 17  3  0
 15 18  1  0
  5 19  2  0
 19 20  1  0
 19 21  1  0
 21 22  2  0
 22 23  1  0
 22  3  1  0
 18  6  1  0
 18 11  2  0
  1 24  1  0
  1 25  1  0
  1 26  1  0
  4 27  1  0
  9 28  1  0
  9 29  1  0
  9 30  1  0
 12 31  1  0
 14 32  1  0
 14 33  1  0
 14 34  1  0
 21 35  1  0
M  END
>  <meeko>  (6) 
{"is_sidechain": [false], "free_energy": -6.913, "intermolecular_energy": -7.728, "internal_energy": -0.777}

$$$$
3rlr_ligand
     RDKit          3D

 35 37  0  0  0  0  0  0  0  0999 V2000
   -7.7700    6.1820   -2.8710 C   0  0  0  0  0  0  0  0  0  0  0  0
   -6.6500    6.0150   -2.0110 O   0  0  0  0  0  0  0  0  0  0  0  0
   -5.8210    4.9490   -2.2390 C   0  0  0  0  0  0  0  0  0  0  0  0
   -5.9290    4.0790   -3.3310 C   0  0  0  0  0  0  0  0  0  0  0  0
   -5.0370    3.0000   -3.5070 C   0  0  0  0  0  0  0  0  0  0  0  0
   -5.2050    2.1290   -4.6660 C   0  0  0  0  0  0  0  0  0  0  0  0
   -5.7430    0.9020   -4.4470 N   0  0  0  0  0  0  0  0  0  0  0  0
   -5.9130    0.0650   -5.4930 C   0  0  0  0  0  0  0  0  0  0  0  0
   -6.4560   -1.2970   -5.1860 C   0  0  0  0  0  0  0  0  0  0  0  0
   -5.6070    0.3250   -6.7780 N   0  0  0  0  0  0  0  0  0  0  0  0
   -5.1110    1.5570   -6.9500 C   0  0  0  0  0  0  0  0  0  0  0  0
   -4.7380    2.0720   -8.1600 N   0  0  0  0  0  0  0  0  0  0  0  0
   -4.2960    3.3650   -8.0050 C   0  0  0  0  0  0  0  0  0  0  0  0
   -3.8390    4.1820   -9.1590 C   0  0  0  0  0  0  0  0  0  0  0  0
   -4.3840    3.6640   -6.6520 C   0  0  0  0  0  0  0  0  0  0  0  0
   -4.0350    4.9230   -6.0680 C   0  0  0  0  0  0  0  0  0  0  0  0
   -3.7650    5.9470   -5.5930 N   0  0  0  0  0  0  0  0  0  0  0  0
   -4.8870    2.5160   -5.9750 C   0  0  0  0  0  0  0  0  0  0  0  0
   -4.0390    2.7970   -2.5380 C   0  0  0  0  0  0  0  0  0  0  0  0
   -2.9290    1.4710   -2.6320 Cl  0  0  0  0  0  0  0  0  0  0  0  0
   -3.9170    3.6590   -1.4470 C   0  0  0  0  0  0  0  0  0  0  0  0
   -4.8000    4.7290   -1.3030 C   0  0  0  0  0  0  0  0  0  0  0  0
   -4.6020    5.7590    0.0730 Cl  0  0  0  0  0  0  0  0  0  0  0  0
   -8.6792    6.3176   -2.2669 H   0  0  0  0  0  0  0  0  0  0  0  0
   -7.6162    7.0671   -3.5057 H   0  0  0  0  0  0  0  0  0  0  0  0
   -7.8811    5.2905   -3.5057 H   0  0  0  0  0  0  0  0  0  0  0  0
   -6.7283    4.2407   -4.0692 H   0  0  0  0  0  0  0  0  0  0  0  0
   -6.5102   -1.4329   -4.0958 H   0  0  0  0  0  0  0  0  0  0  0  0
   -7.4625   -1.3965   -5.6184 H   0  0  0  0  0  0  0  0  0  0  0  0
   -5.7940   -2.0617   -5.6184 H   0  0  0  0  0  0  0  0  0  0  0  0
   -4.8000    1.5570   -9.0280 H   0  0  0  0  0  0  0  0  0  0  0  0
   -3.3330    5.0865   -8.7904 H   0  0  0  0  0  0  0  0  0  0  0  0
   -3.1390    3.5937   -9.7704 H   0  0  0  0  0  0  0  0  0  0  0  0
   -4.7067    4.4706   -9.7704 H   0  0  0  0  0  0  0  0  0  0  0  0
   -3.1251    3.4946   -0.7014 H   0  0  0  0  0  0  0  0  0  0  0  0
  1  2  1  0
  2  3  1  0
  3  4  2  0
  4  5  1  0
  5  6  1  0
  6  7  2  0
  7  8  1  0
  8  9  1  0
  8 10  2  0
 10 11  1  0
 11 12  1  0
 12 13  1  0
 13 14  1  0
 13 15  2  0
 15 16  1  0
 16 17  3  0
 15 18  1  0
  5 19  2  0
 19 20  1  0
 19 21  1  0
 21 22  2  0
 22 23  1  0
 22  3  1  0
 18  6  1  0
 18 11  2  0
  1 24  1  0
  1 25  1  0
  1 26  1  0
  4 27  1  0
  9 28  1  0
  9 29  1  0
  9 30  1  0
 12 31  1  0
 14 32  1  0
 14 33  1  0
 14 34  1  0
 21 35  1  0
M  END
>  <meeko>  (7) 
{"is_sidechain": [false], "free_energy": -6.788, "intermolecular_energy": -7.787, "internal_energy": -0.578}

$$$$
3rlr_ligand
     RDKit          3D

 35 37  0  0  0  0  0  0  0  0999 V2000
   -2.7880    1.1780   -0.3950 C   0  0  0  0  0  0  0  0  0  0  0  0
   -3.7930    2.1780   -0.4880 O   0  0  0  0  0  0  0  0  0  0  0  0
   -3.8790    2.8930   -1.6530 C   0  0  0  0  0  0  0  0  0  0  0  0
   -4.5380    2.4530   -2.8080 C   0  0  0  0  0  0  0  0  0  0  0  0
   -4.5910    3.2440   -3.9750 C   0  0  0  0  0  0  0  0  0  0  0  0
   -5.2930    2.7260   -5.1450 C   0  0  0  0  0  0  0  0  0  0  0  0
   -4.7430    1.6560   -5.7740 N   0  0  0  0  0  0  0  0  0  0  0  0
   -5.3600    1.1480   -6.8620 C   0  0  0  0  0  0  0  0  0  0  0  0
   -4.6790    0.0050   -7.5520 C   0  0  0  0  0  0  0  0  0  0  0  0
   -6.5080    1.5930   -7.4070 N   0  0  0  0  0  0  0  0  0  0  0  0
   -7.0300    2.6260   -6.7340 C   0  0  0  0  0  0  0  0  0  0  0  0
   -8.1990    3.2490   -7.0720 N   0  0  0  0  0  0  0  0  0  0  0  0
   -8.4740    4.2510   -6.1710 C   0  0  0  0  0  0  0  0  0  0  0  0
   -9.6950    5.0920   -6.2810 C   0  0  0  0  0  0  0  0  0  0  0  0
   -7.4380    4.2630   -5.2470 C   0  0  0  0  0  0  0  0  0  0  0  0
   -7.3500    5.1500   -4.1280 C   0  0  0  0  0  0  0  0  0  0  0  0
   -7.2810    5.8600   -3.2120 N   0  0  0  0  0  0  0  0  0  0  0  0
   -6.5100    3.2440   -5.6080 C   0  0  0  0  0  0  0  0  0  0  0  0
   -3.9400    4.4900   -3.9650 C   0  0  0  0  0  0  0  0  0  0  0  0
   -3.9000    5.5120   -5.3620 Cl  0  0  0  0  0  0  0  0  0  0  0  0
   -3.2840    4.9430   -2.8190 C   0  0  0  0  0  0  0  0  0  0  0  0
   -3.2580    4.1500   -1.6720 C   0  0  0  0  0  0  0  0  0  0  0  0
   -2.4240    4.7640   -0.2860 Cl  0  0  0  0  0  0  0  0  0  0  0  0
   -2.5768    0.9678    0.6639 H   0  0  0  0  0  0  0  0  0  0  0  0
   -3.1381    0.2593   -0.8884 H   0  0  0  0  0  0  0  0  0  0  0  0
   -1.8711    1.5327   -0.8884 H   0  0  0  0  0  0  0  0  0  0  0  0
   -5.0259    1.4671   -2.8051 H   0  0  0  0  0  0  0  0  0  0  0  0
   -4.2680   -0.6848   -6.8002 H   0  0  0  0  0  0  0  0  0  0  0  0
   -5.4062   -0.5293   -8.1811 H   0  0  0  0  0  0  0  0  0  0  0  0
   -3.8630    0.3902   -8.1811 H   0  0  0  0  0  0  0  0  0  0  0  0
   -8.7630    2.9830   -7.8670 H   0  0  0  0  0  0  0  0  0  0  0  0
  -10.0593    5.3429   -5.2739 H   0  0  0  0  0  0  0  0  0  0  0  0
   -9.4551    6.0173   -6.8253 H   0  0  0  0  0  0  0  0  0  0  0  0
  -10.4740    4.5380   -6.8253 H   0  0  0  0  0  0  0  0  0  0  0  0
   -2.7879    5.9248   -2.8207 H   0  0  0  0  0  0  0  0  0  0  0  0
  1  2  1  0
  2  3  1  0
  3  4  2  0
  4  5  1  0
  5  6  1  0
  6  7  2  0
  7  8  1  0
  8  9  1  0
  8 10  2  0
 10 11  1  0
 11 12  1  0
 12 13  1  0
 13 14  1  0
 13 15  2  0
 15 16  1  0
 16 17  3  0
 15 18  1  0
  5 19  2  0
 19 20  1  0
 19 21  1  0
 21 22  2  0
 22 23  1  0
 22  3  1  0
 18  6  1  0
 18 11  2  0
  1 24  1  0
  1 25  1  0
  1 26  1  0
  4 27  1  0
  9 28  1  0
  9 29  1  0
  9 30  1  0
 12 31  1  0
 14 32  1  0
 14 33  1  0
 14 34  1  0
 21 35  1  0
M  END
>  <meeko>  (8) 
{"is_sidechain": [false], "free_energy": -6.702, "intermolecular_energy": -7.552, "internal_energy": -0.717}

$$$$
3rlr_ligand
     RDKit          3D

 35 37  0  0  0  0  0  0  0  0999 V2000
   -2.8220    4.9010   -1.7800 C   0  0  0  0  0  0  0  0  0  0  0  0
   -4.1900    4.6850   -1.4580 O   0  0  0  0  0  0  0  0  0  0  0  0
   -5.0590    4.4390   -2.4880 C   0  0  0  0  0  0  0  0  0  0  0  0
   -4.8880    3.4330   -3.4480 C   0  0  0  0  0  0  0  0  0  0  0  0
   -5.8260    3.2330   -4.4820 C   0  0  0  0  0  0  0  0  0  0  0  0
   -5.5880    2.1670   -5.4510 C   0  0  0  0  0  0  0  0  0  0  0  0
   -6.0090    0.9210   -5.1170 N   0  0  0  0  0  0  0  0  0  0  0  0
   -5.8050   -0.0940   -5.9840 C   0  0  0  0  0  0  0  0  0  0  0  0
   -6.2360   -1.4590   -5.5410 C   0  0  0  0  0  0  0  0  0  0  0  0
   -5.2180   -0.0020   -7.1920 N   0  0  0  0  0  0  0  0  0  0  0  0
   -4.8500    1.2500   -7.4910 C   0  0  0  0  0  0  0  0  0  0  0  0
   -4.2490    1.6130   -8.6640 N   0  0  0  0  0  0  0  0  0  0  0  0
   -4.0220    2.9690   -8.6760 C   0  0  0  0  0  0  0  0  0  0  0  0
   -3.3910    3.6500   -9.8370 C   0  0  0  0  0  0  0  0  0  0  0  0
   -4.4860    3.4690   -7.4660 C   0  0  0  0  0  0  0  0  0  0  0  0
   -4.4530    4.8470   -7.0840 C   0  0  0  0  0  0  0  0  0  0  0  0
   -4.4390    5.9660   -6.7750 N   0  0  0  0  0  0  0  0  0  0  0  0
   -4.9980    2.3800   -6.7040 C   0  0  0  0  0  0  0  0  0  0  0  0
   -6.9390    4.0890   -4.5470 C   0  0  0  0  0  0  0  0  0  0  0  0
   -8.1200    3.9610   -5.8070 Cl  0  0  0  0  0  0  0  0  0  0  0  0
   -7.1250    5.0920   -3.5940 C   0  0  0  0  0  0  0  0  0  0  0  0
   -6.1910    5.2620   -2.5710 C   0  0  0  0  0  0  0  0  0  0  0  0
   -6.4720    6.5260   -1.4240 Cl  0  0  0  0  0  0  0  0  0  0  0  0
   -2.2372    4.9933   -0.8529 H   0  0  0  0  0  0  0  0  0  0  0  0
   -2.4451    4.0512   -2.3681 H   0  0  0  0  0  0  0  0  0  0  0  0
   -2.7253    5.8255   -2.3681 H   0  0  0  0  0  0  0  0  0  0  0  0
   -4.0015    2.7840   -3.3940 H   0  0  0  0  0  0  0  0  0  0  0  0
   -6.2491   -1.5006   -4.4419 H   0  0  0  0  0  0  0  0  0  0  0  0
   -7.2441   -1.6688   -5.9280 H   0  0  0  0  0  0  0  0  0  0  0  0
   -5.5312   -2.2096   -5.9280 H   0  0  0  0  0  0  0  0  0  0  0  0
   -4.0250    0.9590   -9.4020 H   0  0  0  0  0  0  0  0  0  0  0  0
   -2.6849    4.4121   -9.4757 H   0  0  0  0  0  0  0  0  0  0  0  0
   -2.8518    2.9105  -10.4472 H   0  0  0  0  0  0  0  0  0  0  0  0
   -4.1694    4.1313  -10.4472 H   0  0  0  0  0  0  0  0  0  0  0  0
   -8.0066    5.7475   -3.6493 H   0  0  0  0  0  0  0  0  0  0  0  0
  1  2  1  0
  2  3  1  0
  3  4  2  0
  4  5  1  0
  5  6  1  0
  6  7  2  0
  7  8  1  0
  8  9  1  0
  8 10  2  0
 10 11  1  0
 11 12  1  0
 12 13  1  0
 13 14  1  0
 13 15  2  0
 15 16  1  0
 16 17  3  0
 15 18  1  0
  5 19  2  0
 19 20  1  0
 19 21  1  0
 21 22  2  0
 22 23  1  0
 22  3  1  0
 18  6  1  0
 18 11  2  0
  1 24  1  0
  1 25  1  0
  1 26  1  0
  4 27  1  0
  9 28  1  0
  9 29  1  0
  9 30  1  0
 12 31  1  0
 14 32  1  0
 14 33  1  0
 14 34  1  0
 21 35  1  0
M  END
>  <meeko>  (9) 
{"is_sidechain": [false], "free_energy": -6.684, "intermolecular_energy": -7.429, "internal_energy": -0.821}

$$$$
