2xys_ligand
     RDKit          3D

 48 54  0  0  0  0  0  0  0  0999 V2000
  -14.7280   17.9850   14.4490 O   0  0  0  0  0  0  0  0  0  0  0  0
  -15.3490   18.0210   13.3880 C   0  0  0  0  0  0  0  0  0  0  0  0
  -14.9380   19.0210   12.2960 C   0  0  0  0  0  0  0  0  0  0  0  0
  -15.4030   18.7380   10.8430 C   0  0  2  0  0  0  0  0  0  0  0  0
  -16.3310   19.7740   10.4940 O   0  0  0  0  0  0  0  0  0  0  0  0
  -16.6320   19.8630    9.1080 C   0  0  0  0  0  0  0  0  0  0  0  0
  -17.8210   18.9950    8.8200 C   0  0  0  0  0  0  0  0  0  0  0  0
  -17.8320   17.6530    8.9310 C   0  0  0  0  0  0  0  0  0  0  0  0
  -19.0670   16.8430    8.6330 C   0  0  0  0  0  0  0  0  0  0  0  0
  -19.3610   15.7680    9.6600 N   0  0  2  0  0  0  0  0  0  0  0  0
  -20.3920   16.1090   10.6960 C   0  0  0  0  0  0  0  0  0  0  0  0
  -19.6100   16.7430   11.8260 C   0  0  0  0  0  0  0  0  0  0  0  0
  -18.1770   16.1570   11.7500 C   0  0  2  0  0  0  0  0  0  0  0  0
  -17.8410   15.3960   13.0150 C   0  0  0  0  0  0  0  0  0  0  0  0
  -18.4120   14.2210   13.4910 C   0  0  0  0  0  0  0  0  0  0  0  0
  -17.9600   13.7030   14.7060 C   0  0  0  0  0  0  0  0  0  0  0  0
  -16.9580   14.3570   15.4340 C   0  0  0  0  0  0  0  0  0  0  0  0
  -16.3900   15.5410   14.9580 C   0  0  0  0  0  0  0  0  0  0  0  0
  -16.8440   16.0500   13.7550 C   0  0  0  0  0  0  0  0  0  0  0  0
  -16.4120   17.1930   13.0760 N   0  0  0  0  0  0  0  0  0  0  0  0
  -17.1240   17.3070   11.8160 C   0  0  1  0  0  0  0  0  0  0  0  0
  -16.0430   17.3470   10.7360 C   0  0  1  0  0  0  0  0  0  0  0  0
  -16.5970   16.8900    9.3810 C   0  0  1  0  0  0  0  0  0  0  0  0
  -16.9300   15.4040    9.5700 C   0  0  0  0  0  0  0  0  0  0  0  0
  -18.1550   15.2920   10.4620 C   0  0  2  0  0  0  0  0  0  0  0  0
  -15.3397   20.0039   12.5834 H   0  0  0  0  0  0  0  0  0  0  0  0
  -13.8411   18.9500   12.2543 H   0  0  0  0  0  0  0  0  0  0  0  0
  -14.5505   18.7395   10.1478 H   0  0  0  0  0  0  0  0  0  0  0  0
  -16.8621   20.9060    8.8450 H   0  0  0  0  0  0  0  0  0  0  0  0
  -15.7692   19.5278    8.5137 H   0  0  0  0  0  0  0  0  0  0  0  0
  -18.7486   19.4892    8.4955 H   0  0  0  0  0  0  0  0  0  0  0  0
  -19.9277   17.5268    8.5918 H   0  0  0  0  0  0  0  0  0  0  0  0
  -18.8881   16.3296    7.6767 H   0  0  0  0  0  0  0  0  0  0  0  0
  -19.7290   14.9710    9.1230 H   0  0  0  0  0  0  0  0  0  0  0  0
  -21.1296   16.8171   10.2902 H   0  0  0  0  0  0  0  0  0  0  0  0
  -20.9564   15.2247   11.0268 H   0  0  0  0  0  0  0  0  0  0  0  0
  -19.5811   17.8356   11.7024 H   0  0  0  0  0  0  0  0  0  0  0  0
  -20.0756   16.5324   12.8001 H   0  0  0  0  0  0  0  0  0  0  0  0
  -19.2031   13.7104   12.9223 H   0  0  0  0  0  0  0  0  0  0  0  0
  -18.3955   12.7711   15.0958 H   0  0  0  0  0  0  0  0  0  0  0  0
  -16.6151   13.9341   16.3898 H   0  0  0  0  0  0  0  0  0  0  0  0
  -15.6011   16.0558   15.5260 H   0  0  0  0  0  0  0  0  0  0  0  0
  -17.7268   18.2168   11.6787 H   0  0  0  0  0  0  0  0  0  0  0  0
  -15.2288   16.6196   10.8701 H   0  0  0  0  0  0  0  0  0  0  0  0
  -15.8544   17.0771    8.5914 H   0  0  0  0  0  0  0  0  0  0  0  0
  -17.1395   14.9439    8.5931 H   0  0  0  0  0  0  0  0  0  0  0  0
  -16.0787   14.8838   10.0333 H   0  0  0  0  0  0  0  0  0  0  0  0
  -18.1561   14.2384   10.7781 H   0  0  0  0  0  0  0  0  0  0  0  0
  1  2  2  0
  2  3  1  0
  3  4  1  0
  4  5  1  0
  5  6  1  0
  6  7  1  0
  7  8  2  0
  8  9  1  0
  9 10  1  0
 10 11  1  0
 11 12  1  0
 13 12  1  1
 13 14  1  0
 14 15  2  0
 15 16  1  0
 16 17  2  0
 17 18  1  0
 18 19  2  0
 19 20  1  0
 20 21  1  0
 21 22  1  0
 22 23  1  0
 23 24  1  0
 24 25  1  0
 20  2  1  0
 22  4  1  0
 23  8  1  0
 25 10  1  0
 21 13  1  0
 25 13  1  0
 19 14  1  0
  3 26  1  0
  3 27  1  0
  4 28  1  6
  6 29  1  0
  6 30  1  0
  7 31  1  0
  9 32  1  0
  9 33  1  0
 10 34  1  6
 11 35  1  0
 11 36  1  0
 12 37  1  0
 12 38  1  0
 15 39  1  0
 16 40  1  0
 17 41  1  0
 18 42  1  0
 21 43  1  1
 22 44  1  1
 23 45  1  6
 24 46  1  0
 24 47  1  0
 25 48  1  1
M  CHG  1  10   1
M  END
>  <meeko>  (1) 
{"is_sidechain": [false], "free_energy": -8.021, "intermolecular_energy": -8.959, "internal_energy": 0.436}

$$$$
2xys_ligand
     RDKit          3D

 48 54  0  0  0  0  0  0  0  0999 V2000
  -15.3690   18.2310   15.6870 O   0  0  0  0  0  0  0  0  0  0  0  0
  -15.4900   18.4550   14.4840 C   0  0  0  0  0  0  0  0  0  0  0  0
  -15.0290   19.8030   13.9080 C   0  0  0  0  0  0  0  0  0  0  0  0
  -14.7550   19.8840   12.3830 C   0  0  2  0  0  0  0  0  0  0  0  0
  -15.7490   20.7540   11.8260 O   0  0  0  0  0  0  0  0  0  0  0  0
  -15.4830   21.1940   10.5020 C   0  0  0  0  0  0  0  0  0  0  0  0
  -16.1040   20.2220    9.5400 C   0  0  0  0  0  0  0  0  0  0  0  0
  -15.7190   18.9400    9.3960 C   0  0  0  0  0  0  0  0  0  0  0  0
  -16.3930   18.0150    8.4160 C   0  0  0  0  0  0  0  0  0  0  0  0
  -16.7030   16.6430    8.9780 N   0  0  2  0  0  0  0  0  0  0  0  0
  -18.1110   16.4250    9.4500 C   0  0  0  0  0  0  0  0  0  0  0  0
  -18.1000   16.8370   10.9060 C   0  0  0  0  0  0  0  0  0  0  0  0
  -16.6500   16.6210   11.4110 C   0  0  2  0  0  0  0  0  0  0  0  0
  -16.6170   15.6010   12.5290 C   0  0  0  0  0  0  0  0  0  0  0  0
  -16.9130   14.2440   12.4660 C   0  0  0  0  0  0  0  0  0  0  0  0
  -16.8410   13.4890   13.6390 C   0  0  0  0  0  0  0  0  0  0  0  0
  -16.4860   14.0890   14.8550 C   0  0  0  0  0  0  0  0  0  0  0  0
  -16.1980   15.4540   14.9180 C   0  0  0  0  0  0  0  0  0  0  0  0
  -16.2730   16.1950   13.7530 C   0  0  0  0  0  0  0  0  0  0  0  0
  -16.0050   17.5550   13.5690 N   0  0  0  0  0  0  0  0  0  0  0  0
  -16.1500   17.8930   12.1640 C   0  0  1  0  0  0  0  0  0  0  0  0
  -14.8060   18.4880   11.7450 C   0  0  1  0  0  0  0  0  0  0  0  0
  -14.5910   18.3570   10.2320 C   0  0  1  0  0  0  0  0  0  0  0  0
  -14.4660   16.8490    9.9780 C   0  0  0  0  0  0  0  0  0  0  0  0
  -15.8350   16.2130   10.1550 C   0  0  2  0  0  0  0  0  0  0  0  0
  -15.8091   20.5429   14.1406 H   0  0  0  0  0  0  0  0  0  0  0  0
  -14.0492   19.9824   14.3747 H   0  0  0  0  0  0  0  0  0  0  0  0
  -13.7480   20.2791   12.1835 H   0  0  0  0  0  0  0  0  0  0  0  0
  -15.9158   22.1938   10.3498 H   0  0  0  0  0  0  0  0  0  0  0  0
  -14.3971   21.2465   10.3346 H   0  0  0  0  0  0  0  0  0  0  0  0
  -16.9303   20.5824    8.9097 H   0  0  0  0  0  0  0  0  0  0  0  0
  -17.3374   18.4791    8.0955 H   0  0  0  0  0  0  0  0  0  0  0  0
  -15.6902   17.8666    7.5829 H   0  0  0  0  0  0  0  0  0  0  0  0
  -16.5430   15.9870    8.2010 H   0  0  0  0  0  0  0  0  0  0  0  0
  -18.8127   17.0484    8.8764 H   0  0  0  0  0  0  0  0  0  0  0  0
  -18.4366   15.3828    9.3163 H   0  0  0  0  0  0  0  0  0  0  0  0
  -18.3833   17.8953   11.0041 H   0  0  0  0  0  0  0  0  0  0  0  0
  -18.8189   16.2465   11.4930 H   0  0  0  0  0  0  0  0  0  0  0  0
  -17.1978   13.7749   11.5127 H   0  0  0  0  0  0  0  0  0  0  0  0
  -17.0652   12.4125   13.6081 H   0  0  0  0  0  0  0  0  0  0  0  0
  -16.4337   13.4787   15.7686 H   0  0  0  0  0  0  0  0  0  0  0  0
  -15.9185   15.9278   15.8705 H   0  0  0  0  0  0  0  0  0  0  0  0
  -16.9088   18.6515   11.9213 H   0  0  0  0  0  0  0  0  0  0  0  0
  -13.9239   17.9454   12.1159 H   0  0  0  0  0  0  0  0  0  0  0  0
  -13.7007   18.9285    9.9307 H   0  0  0  0  0  0  0  0  0  0  0  0
  -14.1057   16.6743    8.9535 H   0  0  0  0  0  0  0  0  0  0  0  0
  -13.7511   16.4062   10.6871 H   0  0  0  0  0  0  0  0  0  0  0  0
  -15.6187   15.1381   10.2434 H   0  0  0  0  0  0  0  0  0  0  0  0
  1  2  2  0
  2  3  1  0
  3  4  1  0
  4  5  1  0
  5  6  1  0
  6  7  1  0
  7  8  2  0
  8  9  1  0
  9 10  1  0
 10 11  1  0
 11 12  1  0
 13 12  1  6
 13 14  1  0
 14 15  2  0
 15 16  1  0
 16 17  2  0
 17 18  1  0
 18 19  2  0
 19 20  1  0
 20 21  1  0
 21 22  1  0
 22 23  1  0
 23 24  1  0
 24 25  1  0
 20  2  1  0
 22  4  1  0
 23  8  1  0
 25 10  1  0
 21 13  1  0
 25 13  1  0
 19 14  1  0
  3 26  1  0
  3 27  1  0
  4 28  1  1
  6 29  1  0
  6 30  1  0
  7 31  1  0
  9 32  1  0
  9 33  1  0
 10 34  1  6
 11 35  1  0
 11 36  1  0
 12 37  1  0
 12 38  1  0
 15 39  1  0
 16 40  1  0
 17 41  1  0
 18 42  1  0
 21 43  1  1
 22 44  1  1
 23 45  1  6
 24 46  1  0
 24 47  1  0
 25 48  1  1
M  CHG  1  10   1
M  END
>  <meeko>  (2) 
{"is_sidechain": [false], "free_energy": -8.012, "intermolecular_energy": -8.948, "internal_energy": 0.436}

$$$$
2xys_ligand
     RDKit          3D

 48 54  0  0  0  0  0  0  0  0999 V2000
  -16.7620   13.8670   11.6320 O   0  0  0  0  0  0  0  0  0  0  0  0
  -16.8690   14.7860   12.4410 C   0  0  0  0  0  0  0  0  0  0  0  0
  -17.3240   14.4880   13.8790 C   0  0  0  0  0  0  0  0  0  0  0  0
  -17.0050   15.5410   14.9720 C   0  0  2  0  0  0  0  0  0  0  0  0
  -18.2590   16.0820   15.4090 O   0  0  0  0  0  0  0  0  0  0  0  0
  -18.1990   16.8320   16.6140 C   0  0  0  0  0  0  0  0  0  0  0  0
  -17.9410   18.2730   16.2660 C   0  0  0  0  0  0  0  0  0  0  0  0
  -16.8100   18.7310   15.6980 C   0  0  0  0  0  0  0  0  0  0  0  0
  -16.6230   20.1900   15.3690 C   0  0  0  0  0  0  0  0  0  0  0  0
  -16.0370   20.4400   13.9940 N   0  0  2  0  0  0  0  0  0  0  0  0
  -17.0150   20.7930   12.9120 C   0  0  0  0  0  0  0  0  0  0  0  0
  -17.4270   19.4660   12.3140 C   0  0  0  0  0  0  0  0  0  0  0  0
  -16.2420   18.4940   12.5480 C   0  0  2  0  0  0  0  0  0  0  0  0
  -15.6820   18.0040   11.2290 C   0  0  0  0  0  0  0  0  0  0  0  0
  -15.0280   18.7380   10.2450 C   0  0  0  0  0  0  0  0  0  0  0  0
  -14.6140   18.0800    9.0850 C   0  0  0  0  0  0  0  0  0  0  0  0
  -14.8600   16.7110    8.9130 C   0  0  0  0  0  0  0  0  0  0  0  0
  -15.5240   15.9780    9.8980 C   0  0  0  0  0  0  0  0  0  0  0  0
  -15.9330   16.6360   11.0440 C   0  0  0  0  0  0  0  0  0  0  0  0
  -16.5840   16.1100   12.1630 N   0  0  0  0  0  0  0  0  0  0  0  0
  -16.7610   17.1540   13.1570 C   0  0  1  0  0  0  0  0  0  0  0  0
  -16.0790   16.6360   14.4220 C   0  0  1  0  0  0  0  0  0  0  0  0
  -15.6690   17.7910   15.3440 C   0  0  1  0  0  0  0  0  0  0  0  0
  -14.5780   18.5450   14.5730 C   0  0  0  0  0  0  0  0  0  0  0  0
  -15.2270   19.2850   13.4150 C   0  0  2  0  0  0  0  0  0  0  0  0
  -18.4161   14.3585   13.8572 H   0  0  0  0  0  0  0  0  0  0  0  0
  -16.7461   13.5996   14.1736 H   0  0  0  0  0  0  0  0  0  0  0  0
  -16.4724   15.0821   15.8180 H   0  0  0  0  0  0  0  0  0  0  0  0
  -19.1540   16.7455   17.1530 H   0  0  0  0  0  0  0  0  0  0  0  0
  -17.3929   16.4490   17.2571 H   0  0  0  0  0  0  0  0  0  0  0  0
  -18.7321   19.0032   16.4916 H   0  0  0  0  0  0  0  0  0  0  0  0
  -17.6036   20.6854   15.4227 H   0  0  0  0  0  0  0  0  0  0  0  0
  -15.9056   20.5922   16.0994 H   0  0  0  0  0  0  0  0  0  0  0  0
  -15.4110   21.2490   14.1080 H   0  0  0  0  0  0  0  0  0  0  0  0
  -17.8867   21.3153   13.3331 H   0  0  0  0  0  0  0  0  0  0  0  0
  -16.5777   21.4681   12.1617 H   0  0  0  0  0  0  0  0  0  0  0  0
  -18.3324   19.0890   12.8120 H   0  0  0  0  0  0  0  0  0  0  0  0
  -17.6560   19.5652   11.2427 H   0  0  0  0  0  0  0  0  0  0  0  0
  -14.8409   19.8138   10.3778 H   0  0  0  0  0  0  0  0  0  0  0  0
  -14.0894   18.6419    8.2982 H   0  0  0  0  0  0  0  0  0  0  0  0
  -14.5265   16.2092    7.9927 H   0  0  0  0  0  0  0  0  0  0  0  0
  -15.7173   14.9032    9.7661 H   0  0  0  0  0  0  0  0  0  0  0  0
  -17.7986   17.3836   13.4410 H   0  0  0  0  0  0  0  0  0  0  0  0
  -15.1003   16.1614   14.2578 H   0  0  0  0  0  0  0  0  0  0  0  0
  -15.3282   17.3945   16.3118 H   0  0  0  0  0  0  0  0  0  0  0  0
  -14.0818   19.2643   15.2411 H   0  0  0  0  0  0  0  0  0  0  0  0
  -13.8277   17.8360   14.1930 H   0  0  0  0  0  0  0  0  0  0  0  0
  -14.3810   19.5520   12.7647 H   0  0  0  0  0  0  0  0  0  0  0  0
  1  2  2  0
  2  3  1  0
  3  4  1  0
  4  5  1  0
  5  6  1  0
  6  7  1  0
  7  8  2  0
  8  9  1  0
  9 10  1  0
 10 11  1  0
 11 12  1  0
 13 12  1  6
 13 14  1  0
 14 15  2  0
 15 16  1  0
 16 17  2  0
 17 18  1  0
 18 19  2  0
 19 20  1  0
 20 21  1  0
 21 22  1  0
 22 23  1  0
 23 24  1  0
 24 25  1  0
 20  2  1  0
 22  4  1  0
 23  8  1  0
 25 10  1  0
 21 13  1  0
 25 13  1  0
 19 14  1  0
  3 26  1  0
  3 27  1  0
  4 28  1  1
  6 29  1  0
  6 30  1  0
  7 31  1  0
  9 32  1  0
  9 33  1  0
 10 34  1  1
 11 35  1  0
 11 36  1  0
 12 37  1  0
 12 38  1  0
 15 39  1  0
 16 40  1  0
 17 41  1  0
 18 42  1  0
 21 43  1  1
 22 44  1  6
 23 45  1  1
 24 46  1  0
 24 47  1  0
 25 48  1  6
M  CHG  1  10   1
M  END
>  <meeko>  (3) 
{"is_sidechain": [false], "free_energy": -7.877, "intermolecular_energy": -8.798, "internal_energy": 0.436}

$$$$
2xys_ligand
     RDKit          3D

 48 54  0  0  0  0  0  0  0  0999 V2000
  -16.1570   19.3940    8.6090 O   0  0  0  0  0  0  0  0  0  0  0  0
  -16.8340   18.6270    9.2910 C   0  0  0  0  0  0  0  0  0  0  0  0
  -17.9970   17.8560    8.6470 C   0  0  0  0  0  0  0  0  0  0  0  0
  -18.5150   16.5870    9.3730 C   0  0  2  0  0  0  0  0  0  0  0  0
  -19.8460   16.8770    9.8210 O   0  0  0  0  0  0  0  0  0  0  0  0
  -20.5990   15.7440   10.2300 C   0  0  0  0  0  0  0  0  0  0  0  0
  -20.3760   15.5360   11.7070 C   0  0  0  0  0  0  0  0  0  0  0  0
  -19.1970   15.1970   12.2620 C   0  0  0  0  0  0  0  0  0  0  0  0
  -19.0450   15.0130   13.7500 C   0  0  0  0  0  0  0  0  0  0  0  0
  -17.8070   15.6670   14.3280 N   0  0  2  0  0  0  0  0  0  0  0  0
  -18.0080   17.0060   14.9760 C   0  0  0  0  0  0  0  0  0  0  0  0
  -17.8170   18.0100   13.8610 C   0  0  0  0  0  0  0  0  0  0  0  0
  -16.8760   17.3410   12.8260 C   0  0  2  0  0  0  0  0  0  0  0  0
  -15.5940   18.1340   12.6760 C   0  0  0  0  0  0  0  0  0  0  0  0
  -14.5920   18.3380   13.6180 C   0  0  0  0  0  0  0  0  0  0  0  0
  -13.4980   19.1330   13.2680 C   0  0  0  0  0  0  0  0  0  0  0  0
  -13.4170   19.7190   11.9980 C   0  0  0  0  0  0  0  0  0  0  0  0
  -14.4290   19.5200   11.0560 C   0  0  0  0  0  0  0  0  0  0  0  0
  -15.5090   18.7320   11.4100 C   0  0  0  0  0  0  0  0  0  0  0  0
  -16.6150   18.3750   10.6330 N   0  0  0  0  0  0  0  0  0  0  0  0
  -17.4720   17.4810   11.3910 C   0  0  1  0  0  0  0  0  0  0  0  0
  -17.5940   16.2140   10.5440 C   0  0  1  0  0  0  0  0  0  0  0  0
  -17.9530   15.0010   11.4100 C   0  0  1  0  0  0  0  0  0  0  0  0
  -16.7270   14.7760   12.3050 C   0  0  0  0  0  0  0  0  0  0  0  0
  -16.6700   15.8910   13.3370 C   0  0  2  0  0  0  0  0  0  0  0  0
  -18.8439   18.5526    8.5600 H   0  0  0  0  0  0  0  0  0  0  0  0
  -17.5886   17.4832    7.6961 H   0  0  0  0  0  0  0  0  0  0  0  0
  -18.5211   15.7199    8.6962 H   0  0  0  0  0  0  0  0  0  0  0  0
  -21.6677   15.9177   10.0359 H   0  0  0  0  0  0  0  0  0  0  0  0
  -20.2792   14.8535    9.6691 H   0  0  0  0  0  0  0  0  0  0  0  0
  -21.2371   15.6707   12.3781 H   0  0  0  0  0  0  0  0  0  0  0  0
  -19.9275   15.4456   14.2440 H   0  0  0  0  0  0  0  0  0  0  0  0
  -18.9471   13.9321   13.9288 H   0  0  0  0  0  0  0  0  0  0  0  0
  -17.4760   15.0260   15.0610 H   0  0  0  0  0  0  0  0  0  0  0  0
  -19.0210   17.0838   15.3977 H   0  0  0  0  0  0  0  0  0  0  0  0
  -17.3081   17.1728   15.8081 H   0  0  0  0  0  0  0  0  0  0  0  0
  -18.7844   18.2506   13.3959 H   0  0  0  0  0  0  0  0  0  0  0  0
  -17.3893   18.9500   14.2397 H   0  0  0  0  0  0  0  0  0  0  0  0
  -14.6593   17.8832   14.6173 H   0  0  0  0  0  0  0  0  0  0  0  0
  -12.6917   19.3007   13.9972 H   0  0  0  0  0  0  0  0  0  0  0  0
  -12.5479   20.3420   11.7401 H   0  0  0  0  0  0  0  0  0  0  0  0
  -14.3685   19.9784   10.0579 H   0  0  0  0  0  0  0  0  0  0  0  0
  -18.4997   17.8296   11.5709 H   0  0  0  0  0  0  0  0  0  0  0  0
  -16.6513   15.8636   10.0985 H   0  0  0  0  0  0  0  0  0  0  0  0
  -18.1919   14.1412   10.7668 H   0  0  0  0  0  0  0  0  0  0  0  0
  -16.8124   13.8043   12.8134 H   0  0  0  0  0  0  0  0  0  0  0  0
  -15.8109   14.7797   11.6961 H   0  0  0  0  0  0  0  0  0  0  0  0
  -15.6472   15.8301   13.7371 H   0  0  0  0  0  0  0  0  0  0  0  0
  1  2  2  0
  2  3  1  0
  3  4  1  0
  4  5  1  0
  5  6  1  0
  6  7  1  0
  7  8  2  0
  8  9  1  0
  9 10  1  0
 10 11  1  0
 11 12  1  0
 13 12  1  1
 13 14  1  0
 14 15  2  0
 15 16  1  0
 16 17  2  0
 17 18  1  0
 18 19  2  0
 19 20  1  0
 20 21  1  0
 21 22  1  0
 22 23  1  0
 23 24  1  0
 24 25  1  0
 20  2  1  0
 22  4  1  0
 23  8  1  0
 25 10  1  0
 21 13  1  0
 25 13  1  0
 19 14  1  0
  3 26  1  0
  3 27  1  0
  4 28  1  6
  6 29  1  0
  6 30  1  0
  7 31  1  0
  9 32  1  0
  9 33  1  0
 10 34  1  1
 11 35  1  0
 11 36  1  0
 12 37  1  0
 12 38  1  0
 15 39  1  0
 16 40  1  0
 17 41  1  0
 18 42  1  0
 21 43  1  1
 22 44  1  6
 23 45  1  6
 24 46  1  0
 24 47  1  0
 25 48  1  1
M  CHG  1  10   1
M  END
>  <meeko>  (4) 
{"is_sidechain": [false], "free_energy": -7.726, "intermolecular_energy": -8.622, "internal_energy": 0.428}

$$$$
2xys_ligand
     RDKit          3D

 48 54  0  0  0  0  0  0  0  0999 V2000
  -16.1170   17.7240    8.7370 O   0  0  0  0  0  0  0  0  0  0  0  0
  -16.2080   18.4260    9.7420 C   0  0  0  0  0  0  0  0  0  0  0  0
  -16.3070   19.9530    9.6010 C   0  0  0  0  0  0  0  0  0  0  0  0
  -16.8800   20.7550   10.7990 C   0  0  2  0  0  0  0  0  0  0  0  0
  -15.8070   21.5510   11.3190 O   0  0  0  0  0  0  0  0  0  0  0  0
  -16.2060   22.5780   12.2160 C   0  0  0  0  0  0  0  0  0  0  0  0
  -16.1880   22.0240   13.6130 C   0  0  0  0  0  0  0  0  0  0  0  0
  -17.0050   21.0510   14.0600 C   0  0  0  0  0  0  0  0  0  0  0  0
  -16.9260   20.5370   15.4740 C   0  0  0  0  0  0  0  0  0  0  0  0
  -16.9770   19.0270   15.5830 N   0  0  2  0  0  0  0  0  0  0  0  0
  -15.6560   18.3310   15.7430 C   0  0  0  0  0  0  0  0  0  0  0  0
  -15.1930   18.0490   14.3310 C   0  0  0  0  0  0  0  0  0  0  0  0
  -16.4740   17.9430   13.4630 C   0  0  2  0  0  0  0  0  0  0  0  0
  -16.5900   16.5650   12.8450 C   0  0  0  0  0  0  0  0  0  0  0  0
  -16.7920   15.3480   13.4860 C   0  0  0  0  0  0  0  0  0  0  0  0
  -16.8420   14.1860   12.7120 C   0  0  0  0  0  0  0  0  0  0  0  0
  -16.6850   14.2460   11.3210 C   0  0  0  0  0  0  0  0  0  0  0  0
  -16.4740   15.4680   10.6810 C   0  0  0  0  0  0  0  0  0  0  0  0
  -16.4230   16.6150   11.4530 C   0  0  0  0  0  0  0  0  0  0  0  0
  -16.2510   17.9370   11.0350 N   0  0  0  0  0  0  0  0  0  0  0  0
  -16.3280   18.8230   12.1830 C   0  0  1  0  0  0  0  0  0  0  0  0
  -17.4510   19.8100   11.8660 C   0  0  1  0  0  0  0  0  0  0  0  0
  -18.0390   20.4110   13.1480 C   0  0  1  0  0  0  0  0  0  0  0  0
  -18.7200   19.2350   13.8600 C   0  0  0  0  0  0  0  0  0  0  0  0
  -17.6440   18.3140   14.4120 C   0  0  2  0  0  0  0  0  0  0  0  0
  -15.2921   20.3311    9.4086 H   0  0  0  0  0  0  0  0  0  0  0  0
  -17.0338   20.1095    8.7903 H   0  0  0  0  0  0  0  0  0  0  0  0
  -17.7127   21.3993   10.4804 H   0  0  0  0  0  0  0  0  0  0  0  0
  -15.5084   23.4255   12.1438 H   0  0  0  0  0  0  0  0  0  0  0  0
  -17.2174   22.9283   11.9623 H   0  0  0  0  0  0  0  0  0  0  0  0
  -15.4564   22.4425   14.3198 H   0  0  0  0  0  0  0  0  0  0  0  0
  -15.9806   20.8842   15.9162 H   0  0  0  0  0  0  0  0  0  0  0  0
  -17.8084   20.9249   16.0040 H   0  0  0  0  0  0  0  0  0  0  0  0
  -17.5220   18.8330   16.4340 H   0  0  0  0  0  0  0  0  0  0  0  0
  -14.9368   18.9801   16.2640 H   0  0  0  0  0  0  0  0  0  0  0  0
  -15.7409   17.4128   16.3428 H   0  0  0  0  0  0  0  0  0  0  0  0
  -14.5549   18.8687   13.9690 H   0  0  0  0  0  0  0  0  0  0  0  0
  -14.6010   17.1231   14.2829 H   0  0  0  0  0  0  0  0  0  0  0  0
  -16.9099   15.3010   14.5787 H   0  0  0  0  0  0  0  0  0  0  0  0
  -17.0063   13.2138   13.1997 H   0  0  0  0  0  0  0  0  0  0  0  0
  -16.7285   13.3208   10.7276 H   0  0  0  0  0  0  0  0  0  0  0  0
  -16.3512   15.5181    9.5890 H   0  0  0  0  0  0  0  0  0  0  0  0
  -15.4348   19.4316   12.3875 H   0  0  0  0  0  0  0  0  0  0  0  0
  -18.3544   19.3582   11.4304 H   0  0  0  0  0  0  0  0  0  0  0  0
  -18.7278   21.2304   12.8948 H   0  0  0  0  0  0  0  0  0  0  0  0
  -19.3440   19.6116   14.6839 H   0  0  0  0  0  0  0  0  0  0  0  0
  -19.3583   18.6857   13.1523 H   0  0  0  0  0  0  0  0  0  0  0  0
  -18.1835   17.3835   14.6426 H   0  0  0  0  0  0  0  0  0  0  0  0
  1  2  2  0
  2  3  1  0
  3  4  1  0
  4  5  1  0
  5  6  1  0
  6  7  1  0
  7  8  2  0
  8  9  1  0
  9 10  1  0
 10 11  1  0
 11 12  1  0
 13 12  1  1
 13 14  1  0
 14 15  2  0
 15 16  1  0
 16 17  2  0
 17 18  1  0
 18 19  2  0
 19 20  1  0
 20 21  1  0
 21 22  1  0
 22 23  1  0
 23 24  1  0
 24 25  1  0
 20  2  1  0
 22  4  1  0
 23  8  1  0
 25 10  1  0
 21 13  1  0
 25 13  1  0
 19 14  1  0
  3 26  1  0
  3 27  1  0
  4 28  1  6
  6 29  1  0
  6 30  1  0
  7 31  1  0
  9 32  1  0
  9 33  1  0
 10 34  1  1
 11 35  1  0
 11 36  1  0
 12 37  1  0
 12 38  1  0
 15 39  1  0
 16 40  1  0
 17 41  1  0
 18 42  1  0
 21 43  1  1
 22 44  1  6
 23 45  1  6
 24 46  1  0
 24 47  1  0
 25 48  1  1
M  CHG  1  10   1
M  END
>  <meeko>  (5) 
{"is_sidechain": [false], "free_energy": -7.48, "intermolecular_energy": -8.354, "internal_energy": 0.436}

$$$$
2xys_ligand
     RDKit          3D

 48 54  0  0  0  0  0  0  0  0999 V2000
  -16.2270   17.7650   15.5730 O   0  0  0  0  0  0  0  0  0  0  0  0
  -16.8050   17.4950   14.5220 C   0  0  0  0  0  0  0  0  0  0  0  0
  -18.2230   16.9030   14.5610 C   0  0  0  0  0  0  0  0  0  0  0  0
  -19.0880   17.0110   13.2780 C   0  0  2  0  0  0  0  0  0  0  0  0
  -19.2750   15.6770   12.7870 O   0  0  0  0  0  0  0  0  0  0  0  0
  -20.2900   15.5400   11.8020 C   0  0  0  0  0  0  0  0  0  0  0  0
  -19.6660   15.7230   10.4460 C   0  0  0  0  0  0  0  0  0  0  0  0
  -19.1230   16.8730   10.0040 C   0  0  0  0  0  0  0  0  0  0  0  0
  -18.5060   16.9830    8.6330 C   0  0  0  0  0  0  0  0  0  0  0  0
  -17.1720   17.7010    8.6140 N   0  0  2  0  0  0  0  0  0  0  0  0
  -15.9510   16.8290    8.5920 C   0  0  0  0  0  0  0  0  0  0  0  0
  -15.6160   16.5930   10.0490 C   0  0  0  0  0  0  0  0  0  0  0  0
  -16.1670   17.8150   10.8280 C   0  0  2  0  0  0  0  0  0  0  0  0
  -15.0450   18.5590   11.5210 C   0  0  0  0  0  0  0  0  0  0  0  0
  -13.9930   19.2630   10.9440 C   0  0  0  0  0  0  0  0  0  0  0  0
  -13.0480   19.8570   11.7830 C   0  0  0  0  0  0  0  0  0  0  0  0
  -13.1530   19.7400   13.1750 C   0  0  0  0  0  0  0  0  0  0  0  0
  -14.2050   19.0260   13.7520 C   0  0  0  0  0  0  0  0  0  0  0  0
  -15.1370   18.4380   12.9160 C   0  0  0  0  0  0  0  0  0  0  0  0
  -16.2760   17.7060   13.2620 N   0  0  0  0  0  0  0  0  0  0  0  0
  -16.9990   17.3360   12.0580 C   0  0  1  0  0  0  0  0  0  0  0  0
  -18.4060   17.9060   12.2330 C   0  0  1  0  0  0  0  0  0  0  0  0
  -19.0910   18.1170   10.8780 C   0  0  1  0  0  0  0  0  0  0  0  0
  -18.2830   19.2270   10.1930 C   0  0  0  0  0  0  0  0  0  0  0  0
  -16.9360   18.6590    9.7770 C   0  0  2  0  0  0  0  0  0  0  0  0
  -18.1256   15.8341   14.8019 H   0  0  0  0  0  0  0  0  0  0  0  0
  -18.7564   17.5112   15.3064 H   0  0  0  0  0  0  0  0  0  0  0  0
  -20.0603   17.4766   13.4965 H   0  0  0  0  0  0  0  0  0  0  0  0
  -20.7414   14.5392   11.8709 H   0  0  0  0  0  0  0  0  0  0  0  0
  -21.0743   16.2946   11.9612 H   0  0  0  0  0  0  0  0  0  0  0  0
  -19.6523   14.8569    9.7680 H   0  0  0  0  0  0  0  0  0  0  0  0
  -18.3579   15.9672    8.2377 H   0  0  0  0  0  0  0  0  0  0  0  0
  -19.1974   17.5793    8.0195 H   0  0  0  0  0  0  0  0  0  0  0  0
  -17.1670   18.2450    7.7410 H   0  0  0  0  0  0  0  0  0  0  0  0
  -16.1644   15.8766    8.0846 H   0  0  0  0  0  0  0  0  0  0  0  0
  -15.1182   17.2956    8.0455 H   0  0  0  0  0  0  0  0  0  0  0  0
  -16.0940   15.6682   10.4044 H   0  0  0  0  0  0  0  0  0  0  0  0
  -14.5315   16.4821   10.1961 H   0  0  0  0  0  0  0  0  0  0  0  0
  -13.9075   19.3498    9.8508 H   0  0  0  0  0  0  0  0  0  0  0  0
  -12.2120   20.4230   11.3461 H   0  0  0  0  0  0  0  0  0  0  0  0
  -12.3992   20.2153   13.8198 H   0  0  0  0  0  0  0  0  0  0  0  0
  -14.2905   18.9333   14.8447 H   0  0  0  0  0  0  0  0  0  0  0  0
  -17.1262   16.2581   11.8790 H   0  0  0  0  0  0  0  0  0  0  0  0
  -18.4433   18.9307   12.6312 H   0  0  0  0  0  0  0  0  0  0  0  0
  -20.1494   18.3751   11.0305 H   0  0  0  0  0  0  0  0  0  0  0  0
  -18.8243   19.5855    9.3051 H   0  0  0  0  0  0  0  0  0  0  0  0
  -18.1383   20.0691   10.8858 H   0  0  0  0  0  0  0  0  0  0  0  0
  -16.3269   19.5505    9.5666 H   0  0  0  0  0  0  0  0  0  0  0  0
  1  2  2  0
  2  3  1  0
  3  4  1  0
  4  5  1  0
  5  6  1  0
  6  7  1  0
  7  8  2  0
  8  9  1  0
  9 10  1  0
 10 11  1  0
 11 12  1  0
 13 12  1  6
 13 14  1  0
 14 15  2  0
 15 16  1  0
 16 17  2  0
 17 18  1  0
 18 19  2  0
 19 20  1  0
 20 21  1  0
 21 22  1  0
 22 23  1  0
 23 24  1  0
 24 25  1  0
 20  2  1  0
 22  4  1  0
 23  8  1  0
 25 10  1  0
 21 13  1  0
 25 13  1  0
 19 14  1  0
  3 26  1  0
  3 27  1  0
  4 28  1  1
  6 29  1  0
  6 30  1  0
  7 31  1  0
  9 32  1  0
  9 33  1  0
 10 34  1  6
 11 35  1  0
 11 36  1  0
 12 37  1  0
 12 38  1  0
 15 39  1  0
 16 40  1  0
 17 41  1  0
 18 42  1  0
 21 43  1  6
 22 44  1  1
 23 45  1  1
 24 46  1  0
 24 47  1  0
 25 48  1  6
M  CHG  1  10   1
M  END
>  <meeko>  (6) 
{"is_sidechain": [false], "free_energy": -7.457, "intermolecular_energy": -8.329, "internal_energy": 0.436}

$$$$
2xys_ligand
     RDKit          3D

 48 54  0  0  0  0  0  0  0  0999 V2000
  -13.4050   19.6030   12.0270 O   0  0  0  0  0  0  0  0  0  0  0  0
  -14.2970   19.0920   12.7010 C   0  0  0  0  0  0  0  0  0  0  0  0
  -14.6330   19.6670   14.0860 C   0  0  0  0  0  0  0  0  0  0  0  0
  -16.0200   19.3300   14.6930 C   0  0  2  0  0  0  0  0  0  0  0  0
  -15.7830   18.5050   15.8420 O   0  0  0  0  0  0  0  0  0  0  0  0
  -16.9010   18.3460   16.7040 C   0  0  0  0  0  0  0  0  0  0  0  0
  -17.6780   17.1400   16.2640 C   0  0  0  0  0  0  0  0  0  0  0  0
  -18.3280   17.0380   15.0890 C   0  0  0  0  0  0  0  0  0  0  0  0
  -19.0830   15.7910   14.7070 C   0  0  0  0  0  0  0  0  0  0  0  0
  -18.8370   15.3340   13.2830 N   0  0  2  0  0  0  0  0  0  0  0  0
  -17.8360   14.2300   13.1070 C   0  0  0  0  0  0  0  0  0  0  0  0
  -16.5070   14.9340   12.9360 C   0  0  0  0  0  0  0  0  0  0  0  0
  -16.8260   16.3300   12.3420 C   0  0  2  0  0  0  0  0  0  0  0  0
  -16.1780   16.4950   10.9830 C   0  0  0  0  0  0  0  0  0  0  0  0
  -16.4590   15.8100    9.8060 C   0  0  0  0  0  0  0  0  0  0  0  0
  -15.7130   16.1100    8.6640 C   0  0  0  0  0  0  0  0  0  0  0  0
  -14.6980   17.0740    8.7060 C   0  0  0  0  0  0  0  0  0  0  0  0
  -14.4120   17.7550    9.8910 C   0  0  0  0  0  0  0  0  0  0  0  0
  -15.1530   17.4530   11.0180 C   0  0  0  0  0  0  0  0  0  0  0  0
  -15.0650   18.0170   12.2940 N   0  0  0  0  0  0  0  0  0  0  0  0
  -16.0840   17.4390   13.1520 C   0  0  1  0  0  0  0  0  0  0  0  0
  -16.9090   18.6200   13.6620 C   0  0  1  0  0  0  0  0  0  0  0  0
  -18.3160   18.1750   14.0800 C   0  0  1  0  0  0  0  0  0  0  0  0
  -18.9960   17.7360   12.7770 C   0  0  0  0  0  0  0  0  0  0  0  0
  -18.3740   16.4250   12.3240 C   0  0  2  0  0  0  0  0  0  0  0  0
  -13.8699   19.2992   14.7877 H   0  0  0  0  0  0  0  0  0  0  0  0
  -14.6544   20.7564   13.9354 H   0  0  0  0  0  0  0  0  0  0  0  0
  -16.5560   20.2452   14.9849 H   0  0  0  0  0  0  0  0  0  0  0  0
  -16.5542   18.2061   17.7385 H   0  0  0  0  0  0  0  0  0  0  0  0
  -17.5394   19.2407   16.6598 H   0  0  0  0  0  0  0  0  0  0  0  0
  -17.7195   16.2799   16.9485 H   0  0  0  0  0  0  0  0  0  0  0  0
  -18.7805   14.9813   15.3874 H   0  0  0  0  0  0  0  0  0  0  0  0
  -20.1538   16.0308   14.7841 H   0  0  0  0  0  0  0  0  0  0  0  0
  -19.7420   14.9730   12.9520 H   0  0  0  0  0  0  0  0  0  0  0  0
  -17.8180   13.5788   13.9934 H   0  0  0  0  0  0  0  0  0  0  0  0
  -18.0768   13.5852   12.2490 H   0  0  0  0  0  0  0  0  0  0  0  0
  -16.0044   15.0400   13.9087 H   0  0  0  0  0  0  0  0  0  0  0  0
  -15.8349   14.3640   12.2777 H   0  0  0  0  0  0  0  0  0  0  0  0
  -17.2519   15.0481    9.7750 H   0  0  0  0  0  0  0  0  0  0  0  0
  -15.9249   15.5836    7.7217 H   0  0  0  0  0  0  0  0  0  0  0  0
  -14.1205   17.2969    7.7967 H   0  0  0  0  0  0  0  0  0  0  0  0
  -13.6162   18.5135    9.9267 H   0  0  0  0  0  0  0  0  0  0  0  0
  -15.7230   16.9089   14.0457 H   0  0  0  0  0  0  0  0  0  0  0  0
  -17.1610   19.3710   12.8988 H   0  0  0  0  0  0  0  0  0  0  0  0
  -18.8338   19.0013   14.5890 H   0  0  0  0  0  0  0  0  0  0  0  0
  -20.0731   17.5950   12.9502 H   0  0  0  0  0  0  0  0  0  0  0  0
  -18.8577   18.5052   12.0029 H   0  0  0  0  0  0  0  0  0  0  0  0
  -18.6926   16.3294   11.2755 H   0  0  0  0  0  0  0  0  0  0  0  0
  1  2  2  0
  2  3  1  0
  3  4  1  0
  4  5  1  0
  5  6  1  0
  6  7  1  0
  7  8  2  0
  8  9  1  0
  9 10  1  0
 10 11  1  0
 11 12  1  0
 13 12  1  1
 13 14  1  0
 14 15  2  0
 15 16  1  0
 16 17  2  0
 17 18  1  0
 18 19  2  0
 19 20  1  0
 20 21  1  0
 21 22  1  0
 22 23  1  0
 23 24  1  0
 24 25  1  0
 20  2  1  0
 22  4  1  0
 23  8  1  0
 25 10  1  0
 21 13  1  0
 25 13  1  0
 19 14  1  0
  3 26  1  0
  3 27  1  0
  4 28  1  1
  6 29  1  0
  6 30  1  0
  7 31  1  0
  9 32  1  0
  9 33  1  0
 10 34  1  6
 11 35  1  0
 11 36  1  0
 12 37  1  0
 12 38  1  0
 15 39  1  0
 16 40  1  0
 17 41  1  0
 18 42  1  0
 21 43  1  1
 22 44  1  6
 23 45  1  1
 24 46  1  0
 24 47  1  0
 25 48  1  6
M  CHG  1  10   1
M  END
>  <meeko>  (7) 
{"is_sidechain": [false], "free_energy": -7.321, "intermolecular_energy": -8.177, "internal_energy": 0.436}

$$$$
2xys_ligand
     RDKit          3D

 48 54  0  0  0  0  0  0  0  0999 V2000
  -18.2390   18.1480   16.0500 O   0  0  0  0  0  0  0  0  0  0  0  0
  -18.1610   18.3900   14.8480 C   0  0  0  0  0  0  0  0  0  0  0  0
  -18.2800   19.8390   14.3500 C   0  0  0  0  0  0  0  0  0  0  0  0
  -17.7230   20.1690   12.9400 C   0  0  2  0  0  0  0  0  0  0  0  0
  -18.8470   20.5090   12.1170 O   0  0  0  0  0  0  0  0  0  0  0  0
  -18.5180   21.1390   10.8870 C   0  0  0  0  0  0  0  0  0  0  0  0
  -18.3460   20.0690    9.8390 C   0  0  0  0  0  0  0  0  0  0  0  0
  -17.3720   19.1390    9.8480 C   0  0  0  0  0  0  0  0  0  0  0  0
  -17.2650   18.0930    8.7700 C   0  0  0  0  0  0  0  0  0  0  0  0
  -17.0040   16.6950    9.2920 N   0  0  2  0  0  0  0  0  0  0  0  0
  -18.2010   15.7970    9.4060 C   0  0  0  0  0  0  0  0  0  0  0  0
  -18.7370   16.0400   10.8000 C   0  0  0  0  0  0  0  0  0  0  0  0
  -17.5290   16.4940   11.6600 C   0  0  2  0  0  0  0  0  0  0  0  0
  -17.2800   15.5200   12.7920 C   0  0  0  0  0  0  0  0  0  0  0  0
  -16.8650   14.1950   12.7130 C   0  0  0  0  0  0  0  0  0  0  0  0
  -16.7220   13.4680   13.8970 C   0  0  0  0  0  0  0  0  0  0  0  0
  -17.0000   14.0580   15.1360 C   0  0  0  0  0  0  0  0  0  0  0  0
  -17.4250   15.3860   15.2130 C   0  0  0  0  0  0  0  0  0  0  0  0
  -17.5650   16.1000   14.0370 C   0  0  0  0  0  0  0  0  0  0  0  0
  -17.9470   17.4340   13.8710 N   0  0  0  0  0  0  0  0  0  0  0  0
  -17.8960   17.7810   12.4620 C   0  0  1  0  0  0  0  0  0  0  0  0
  -16.9460   18.9750   12.3670 C   0  0  1  0  0  0  0  0  0  0  0  0
  -16.3400   19.0910   10.9630 C   0  0  1  0  0  0  0  0  0  0  0  0
  -15.4510   17.8500   10.8110 C   0  0  0  0  0  0  0  0  0  0  0  0
  -16.3450   16.6290   10.6660 C   0  0  2  0  0  0  0  0  0  0  0  0
  -19.3489   20.0986   14.3492 H   0  0  0  0  0  0  0  0  0  0  0  0
  -17.6500   20.4206   15.0391 H   0  0  0  0  0  0  0  0  0  0  0  0
  -17.0133   21.0084   12.9827 H   0  0  0  0  0  0  0  0  0  0  0  0
  -19.3272   21.8229   10.5912 H   0  0  0  0  0  0  0  0  0  0  0  0
  -17.5888   21.7179   10.9940 H   0  0  0  0  0  0  0  0  0  0  0  0
  -19.0669   20.0463    9.0084 H   0  0  0  0  0  0  0  0  0  0  0  0
  -18.2087   18.0807    8.2050 H   0  0  0  0  0  0  0  0  0  0  0  0
  -16.4013   18.3662    8.1459 H   0  0  0  0  0  0  0  0  0  0  0  0
  -16.3690   16.2620    8.6080 H   0  0  0  0  0  0  0  0  0  0  0  0
  -18.9555   16.0595    8.6498 H   0  0  0  0  0  0  0  0  0  0  0  0
  -17.9442   14.7405    9.2388 H   0  0  0  0  0  0  0  0  0  0  0  0
  -19.5067   16.8256   10.7802 H   0  0  0  0  0  0  0  0  0  0  0  0
  -19.2018   15.1324   11.2126 H   0  0  0  0  0  0  0  0  0  0  0  0
  -16.6539   13.7295   11.7390 H   0  0  0  0  0  0  0  0  0  0  0  0
  -16.3875   12.4209   13.8557 H   0  0  0  0  0  0  0  0  0  0  0  0
  -16.8825   13.4696   16.0579 H   0  0  0  0  0  0  0  0  0  0  0  0
  -17.6430   15.8526   16.1850 H   0  0  0  0  0  0  0  0  0  0  0  0
  -18.8431   18.1071   12.0075 H   0  0  0  0  0  0  0  0  0  0  0  0
  -16.0292   18.8846   12.9681 H   0  0  0  0  0  0  0  0  0  0  0  0
  -15.7902   20.0393   10.8709 H   0  0  0  0  0  0  0  0  0  0  0  0
  -14.8182   17.9544    9.9173 H   0  0  0  0  0  0  0  0  0  0  0  0
  -14.8043   17.7400   11.6940 H   0  0  0  0  0  0  0  0  0  0  0  0
  -15.6679   15.7818   10.8499 H   0  0  0  0  0  0  0  0  0  0  0  0
  1  2  2  0
  2  3  1  0
  3  4  1  0
  4  5  1  0
  5  6  1  0
  6  7  1  0
  7  8  2  0
  8  9  1  0
  9 10  1  0
 10 11  1  0
 11 12  1  0
 13 12  1  6
 13 14  1  0
 14 15  2  0
 15 16  1  0
 16 17  2  0
 17 18  1  0
 18 19  2  0
 19 20  1  0
 20 21  1  0
 21 22  1  0
 22 23  1  0
 23 24  1  0
 24 25  1  0
 20  2  1  0
 22  4  1  0
 23  8  1  0
 25 10  1  0
 21 13  1  0
 25 13  1  0
 19 14  1  0
  3 26  1  0
  3 27  1  0
  4 28  1  1
  6 29  1  0
  6 30  1  0
  7 31  1  0
  9 32  1  0
  9 33  1  0
 10 34  1  6
 11 35  1  0
 11 36  1  0
 12 37  1  0
 12 38  1  0
 15 39  1  0
 16 40  1  0
 17 41  1  0
 18 42  1  0
 21 43  1  6
 22 44  1  1
 23 45  1  1
 24 46  1  0
 24 47  1  0
 25 48  1  6
M  CHG  1  10   1
M  END
>  <meeko>  (8) 
{"is_sidechain": [false], "free_energy": -7.308, "intermolecular_energy": -8.155, "internal_energy": 0.428}

$$$$
2xys_ligand
     RDKit          3D

 48 54  0  0  0  0  0  0  0  0999 V2000
  -17.1460   13.5970   13.4420 O   0  0  0  0  0  0  0  0  0  0  0  0
  -16.8970   14.5260   12.6770 C   0  0  0  0  0  0  0  0  0  0  0  0
  -16.4910   14.2330   11.2240 C   0  0  0  0  0  0  0  0  0  0  0  0
  -16.6410   15.3750   10.1850 C   0  0  2  0  0  0  0  0  0  0  0  0
  -15.3180   15.7360    9.7690 O   0  0  0  0  0  0  0  0  0  0  0  0
  -15.2590   16.5450    8.6020 C   0  0  0  0  0  0  0  0  0  0  0  0
  -15.2900   17.9890    9.0210 C   0  0  0  0  0  0  0  0  0  0  0  0
  -16.3380   18.5890    9.6170 C   0  0  0  0  0  0  0  0  0  0  0  0
  -16.2970   20.0400   10.0180 C   0  0  0  0  0  0  0  0  0  0  0  0
  -16.8400   20.3110   11.4060 N   0  0  2  0  0  0  0  0  0  0  0  0
  -15.8210   20.4550   12.4990 C   0  0  0  0  0  0  0  0  0  0  0  0
  -15.6210   19.0520   13.0300 C   0  0  0  0  0  0  0  0  0  0  0  0
  -16.9410   18.2880   12.7550 C   0  0  2  0  0  0  0  0  0  0  0  0
  -17.5730   17.8270   14.0520 C   0  0  0  0  0  0  0  0  0  0  0  0
  -18.1080   18.6040   15.0740 C   0  0  0  0  0  0  0  0  0  0  0  0
  -18.6210   17.9610   16.2030 C   0  0  0  0  0  0  0  0  0  0  0  0
  -18.5900   16.5640   16.3070 C   0  0  0  0  0  0  0  0  0  0  0  0
  -18.0450   15.7860   15.2830 C   0  0  0  0  0  0  0  0  0  0  0  0
  -17.5380   16.4290   14.1690 C   0  0  0  0  0  0  0  0  0  0  0  0
  -16.9740   15.8640   13.0210 N   0  0  0  0  0  0  0  0  0  0  0  0
  -16.6360   16.9150   12.0790 C   0  0  1  0  0  0  0  0  0  0  0  0
  -17.3880   16.5710   10.7930 C   0  0  1  0  0  0  0  0  0  0  0  0
  -17.6120   17.8200    9.9310 C   0  0  1  0  0  0  0  0  0  0  0  0
  -18.5740   18.6960   10.7450 C   0  0  0  0  0  0  0  0  0  0  0  0
  -17.8200   19.2680   11.9340 C   0  0  2  0  0  0  0  0  0  0  0  0
  -15.4321   13.9353   11.2333 H   0  0  0  0  0  0  0  0  0  0  0  0
  -17.1993   13.4606   10.8897 H   0  0  0  0  0  0  0  0  0  0  0  0
  -17.2360   15.0465    9.3201 H   0  0  0  0  0  0  0  0  0  0  0  0
  -14.3284   16.3376    8.0533 H   0  0  0  0  0  0  0  0  0  0  0  0
  -16.1142   16.3241    7.9464 H   0  0  0  0  0  0  0  0  0  0  0  0
  -14.3943   18.5974    8.8272 H   0  0  0  0  0  0  0  0  0  0  0  0
  -15.2511   20.3791    9.9834 H   0  0  0  0  0  0  0  0  0  0  0  0
  -16.9420   20.5837    9.3121 H   0  0  0  0  0  0  0  0  0  0  0  0
  -17.3330   21.2120   11.3360 H   0  0  0  0  0  0  0  0  0  0  0  0
  -14.8780   20.8558   12.0990 H   0  0  0  0  0  0  0  0  0  0  0  0
  -16.1500   21.1524   13.2835 H   0  0  0  0  0  0  0  0  0  0  0  0
  -14.7835   18.5641   12.5098 H   0  0  0  0  0  0  0  0  0  0  0  0
  -15.3823   19.0622   14.1037 H   0  0  0  0  0  0  0  0  0  0  0  0
  -18.1267   19.7010   14.9950 H   0  0  0  0  0  0  0  0  0  0  0  0
  -19.0540   18.5578   17.0193 H   0  0  0  0  0  0  0  0  0  0  0  0
  -18.9988   16.0753   17.2037 H   0  0  0  0  0  0  0  0  0  0  0  0
  -18.0198   14.6891   15.3609 H   0  0  0  0  0  0  0  0  0  0  0  0
  -15.5748   16.9950   11.8009 H   0  0  0  0  0  0  0  0  0  0  0  0
  -18.4286   16.2455   10.9390 H   0  0  0  0  0  0  0  0  0  0  0  0
  -18.0084   17.5288    8.9471 H   0  0  0  0  0  0  0  0  0  0  0  0
  -18.9510   19.5159   10.1160 H   0  0  0  0  0  0  0  0  0  0  0  0
  -19.4261   18.0943   11.0943 H   0  0  0  0  0  0  0  0  0  0  0  0
  -18.6151   19.6298   12.6025 H   0  0  0  0  0  0  0  0  0  0  0  0
  1  2  2  0
  2  3  1  0
  3  4  1  0
  4  5  1  0
  5  6  1  0
  6  7  1  0
  7  8  2  0
  8  9  1  0
  9 10  1  0
 10 11  1  0
 11 12  1  0
 13 12  1  1
 13 14  1  0
 14 15  2  0
 15 16  1  0
 16 17  2  0
 17 18  1  0
 18 19  2  0
 19 20  1  0
 20 21  1  0
 21 22  1  0
 22 23  1  0
 23 24  1  0
 24 25  1  0
 20  2  1  0
 22  4  1  0
 23  8  1  0
 25 10  1  0
 21 13  1  0
 25 13  1  0
 19 14  1  0
  3 26  1  0
  3 27  1  0
  4 28  1  6
  6 29  1  0
  6 30  1  0
  7 31  1  0
  9 32  1  0
  9 33  1  0
 10 34  1  6
 11 35  1  0
 11 36  1  0
 12 37  1  0
 12 38  1  0
 15 39  1  0
 16 40  1  0
 17 41  1  0
 18 42  1  0
 21 43  1  6
 22 44  1  1
 23 45  1  6
 24 46  1  0
 24 47  1  0
 25 48  1  1
M  CHG  1  10   1
M  END
>  <meeko>  (9) 
{"is_sidechain": [false], "free_energy": -7.174, "intermolecular_energy": -8.013, "internal_energy": 0.436}

$$$$
