
     RDKit          3D

 23 25  0  0  0  0  0  0  0  0999 V2000
    2.7940   15.2900  -13.9030 C   0  0  0  0  0  0  0  0  0  0  0  0
    2.8720   13.7990  -13.6340 C   0  0  1  0  0  0  0  0  0  0  0  0
    2.7750   13.5760  -12.1900 O   0  0  0  0  0  0  0  0  0  0  0  0
    3.2010   12.3660  -11.6780 C   0  0  0  0  0  0  0  0  0  0  0  0
    3.5420   11.4500  -12.4080 O   0  0  0  0  0  0  0  0  0  0  0  0
    3.2080   12.2600  -10.3020 N   0  0  0  0  0  0  0  0  0  0  0  0
    3.6170   11.1760   -9.5160 C   0  0  0  0  0  0  0  0  0  0  0  0
    3.0440   10.9740   -8.2590 C   0  0  0  0  0  0  0  0  0  0  0  0
    3.4140    9.9030   -7.4420 C   0  0  0  0  0  0  0  0  0  0  0  0
    4.3860    8.9990   -7.8880 C   0  0  0  0  0  0  0  0  0  0  0  0
    4.8540    7.6390   -6.8780 Cl  0  0  0  0  0  0  0  0  0  0  0  0
    4.9800    9.1900   -9.1490 C   0  0  0  0  0  0  0  0  0  0  0  0
    6.2030    8.0780   -9.7530 Cl  0  0  0  0  0  0  0  0  0  0  0  0
    4.5960   10.2730   -9.9670 C   0  0  0  0  0  0  0  0  0  0  0  0
    1.8040   13.0400  -14.3730 C   0  0  0  0  0  0  0  0  0  0  0  0
    2.0930   12.2670  -15.4570 N   0  0  0  0  0  0  0  0  0  0  0  0
    0.8790   11.7830  -15.8900 C   0  0  0  0  0  0  0  0  0  0  0  0
    0.5430   10.9310  -16.9810 C   0  0  0  0  0  0  0  0  0  0  0  0
   -0.8100   10.5900  -17.1660 C   0  0  0  0  0  0  0  0  0  0  0  0
   -1.8080   11.0600  -16.3100 C   0  0  0  0  0  0  0  0  0  0  0  0
   -1.4730   11.8990  -15.2270 C   0  0  0  0  0  0  0  0  0  0  0  0
   -0.1210   12.2580  -15.0280 C   0  0  0  0  0  0  0  0  0  0  0  0
    0.4870   13.0370  -14.0680 N   0  0  0  0  0  0  0  0  0  0  0  0
  2  1  1  1
  3  2  1  0
  4  3  1  0
  5  4  2  0
  6  4  1  0
  7  6  1  0
  8  7  2  0
  9  8  1  0
 10  9  2  0
 11 10  1  0
 12 10  1  0
 13 12  1  0
 14 12  2  0
 14  7  1  0
 15  2  1  0
 16 15  2  0
 17 16  1  0
 18 17  2  0
 19 18  1  0
 20 19  2  0
 21 20  1  0
 22 21  2  0
 22 17  1  0
 23 22  1  0
 23 15  1  0
M  END
$$$$
