
     RDKit          3D

 17 19  0  0  0  0  0  0  0  0999 V2000
  -17.8560   14.2030  -12.5120 S   0  0  0  0  0  0  0  0  0  0  0  0
  -16.6860   13.1760  -12.1860 C   0  0  0  0  0  0  0  0  0  0  0  0
  -16.4810   11.9750  -12.2560 N   0  0  0  0  0  0  0  0  0  0  0  0
  -15.4530   11.1060  -11.9660 C   0  0  0  0  0  0  0  0  0  0  0  0
  -15.6040    9.8510  -12.4780 C   0  0  0  0  0  0  0  0  0  0  0  0
  -14.6460    8.8880  -12.2550 C   0  0  0  0  0  0  0  0  0  0  0  0
  -13.5370    9.2250  -11.5050 C   0  0  0  0  0  0  0  0  0  0  0  0
  -12.4960    8.4280  -11.1620 O   0  0  0  0  0  0  0  0  0  0  0  0
  -11.6640    9.1540  -10.4060 C   0  0  0  0  0  0  0  0  0  0  0  0
  -10.4630    8.5500   -9.8620 C   0  0  0  0  0  0  0  0  0  0  0  0
  -10.0170    7.3160  -10.1590 N   0  0  0  0  0  0  0  0  0  0  0  0
   -8.8010    7.0570   -9.4160 C   0  0  0  0  0  0  0  0  0  0  0  0
   -8.5590    8.3020   -8.5920 C   0  0  0  0  0  0  0  0  0  0  0  0
   -9.6610    9.1600   -8.9630 N   0  0  0  0  0  0  0  0  0  0  0  0
  -12.1480   10.4440  -10.2520 C   0  0  0  0  0  0  0  0  0  0  0  0
  -13.3640   10.4870  -10.9670 C   0  0  0  0  0  0  0  0  0  0  0  0
  -14.3220   11.4530  -11.1970 C   0  0  0  0  0  0  0  0  0  0  0  0
  2  1  2  0
  3  2  2  0
  4  3  1  0
  5  4  2  0
  6  5  1  0
  7  6  2  0
  8  7  1  0
  9  8  1  0
 10  9  1  0
 11 10  2  0
 12 11  1  0
 13 12  1  0
 14 13  1  0
 14 10  1  0
 15  9  2  0
 16  7  1  0
 16 15  1  0
 17 16  2  0
 17  4  1  0
M  CHG  1  11   1
M  END
$$$$
