
     RDKit          3D

 22 24  0  0  0  0  0  0  0  0999 V2000
   -1.1440   15.6640   -1.7280 N   0  0  0  0  0  0  0  0  0  0  0  0
   -1.8240   14.8930   -0.8150 C   0  0  0  0  0  0  0  0  0  0  0  0
   -3.0470   14.9810   -0.6790 O   0  0  0  0  0  0  0  0  0  0  0  0
   -1.0450   14.0200   -0.0890 N   0  0  0  0  0  0  0  0  0  0  0  0
   -1.4910   13.1540    0.9020 C   0  0  0  0  0  0  0  0  0  0  0  0
   -2.7720   12.8310    1.2940 C   0  0  0  0  0  0  0  0  0  0  0  0
   -2.6650   11.9220    2.2900 N   0  0  0  0  0  0  0  0  0  0  0  0
   -3.7470   11.3420    2.9680 C   0  0  0  0  0  0  0  0  0  0  0  0
   -4.7800   12.1740    3.3800 C   0  0  0  0  0  0  0  0  0  0  0  0
   -5.8760   11.6490    4.0490 C   0  0  0  0  0  0  0  0  0  0  0  0
   -5.9790   10.3130    4.3140 C   0  0  0  0  0  0  0  0  0  0  0  0
   -4.9520    9.4330    3.8930 C   0  0  0  0  0  0  0  0  0  0  0  0
   -5.0470    8.0390    4.1460 C   0  0  0  0  0  0  0  0  0  0  0  0
   -4.0510    7.1840    3.7410 C   0  0  0  0  0  0  0  0  0  0  0  0
   -2.9280    7.6790    3.0710 C   0  0  0  0  0  0  0  0  0  0  0  0
   -2.8130    9.0320    2.8060 C   0  0  0  0  0  0  0  0  0  0  0  0
   -3.8250    9.9370    3.2180 C   0  0  0  0  0  0  0  0  0  0  0  0
   -1.3840   11.6670    2.5730 N   0  0  0  0  0  0  0  0  0  0  0  0
   -0.6490   12.4030    1.7290 C   0  0  0  0  0  0  0  0  0  0  0  0
    0.8340   12.4090    1.6750 C   0  0  0  0  0  0  0  0  0  0  0  0
    1.4760   11.5560    2.5230 N   0  0  0  0  0  0  0  0  0  0  0  0
    1.4260   13.1680    0.8890 O   0  0  0  0  0  0  0  0  0  0  0  0
  2  1  1  0
  3  2  2  0
  4  2  1  0
  5  4  1  0
  6  5  2  0
  7  6  1  0
  8  7  1  0
  9  8  2  0
 10  9  1  0
 11 10  2  0
 12 11  1  0
 13 12  2  0
 14 13  1  0
 15 14  2  0
 16 15  1  0
 17 16  2  0
 17 12  1  0
 17  8  1  0
 18  7  1  0
 19 18  2  0
 19  5  1  0
 20 19  1  0
 21 20  1  0
 22 20  2  0
M  END
$$$$
