3g2n_ligand
     RDKit          3D

 37 38  0  0  0  0  0  0  0  0999 V2000
   -3.4350    2.3500    3.9280 O   0  0  0  0  0  0  0  0  0  0  0  0
   -4.4330    3.0510    4.0620 C   0  0  0  0  0  0  0  0  0  0  0  0
   -5.6860    2.6190    3.7070 N   0  0  0  0  0  0  0  0  0  0  0  0
   -5.9180    1.3870    2.9940 C   0  0  2  0  0  0  0  0  0  0  0  0
   -7.1450    1.6460    2.3160 O   0  0  0  0  0  0  0  0  0  0  0  0
   -7.5820    0.5470    1.5090 C   0  0  2  0  0  0  0  0  0  0  0  0
   -8.8360    0.9660    0.7280 C   0  0  0  0  0  0  0  0  0  0  0  0
  -10.0310    0.6790    1.4440 O   0  0  0  0  0  0  0  0  0  0  0  0
   -7.8680   -0.6680    2.4010 C   0  0  1  0  0  0  0  0  0  0  0  0
   -8.3210   -1.7870    1.6310 O   0  0  0  0  0  0  0  0  0  0  0  0
   -6.5900   -1.0420    3.1460 C   0  0  2  0  0  0  0  0  0  0  0  0
   -6.8740   -2.1330    4.0380 O   0  0  0  0  0  0  0  0  0  0  0  0
   -6.0210    0.1480    3.9230 C   0  0  1  0  0  0  0  0  0  0  0  0
   -4.7660   -0.2960    4.4600 O   0  0  0  0  0  0  0  0  0  0  0  0
   -4.3260    4.4330    4.6080 C   0  0  0  0  0  0  0  0  0  0  0  0
   -5.2150    4.9240    5.5720 C   0  0  0  0  0  0  0  0  0  0  0  0
   -5.0710    6.2280    6.0550 C   0  0  0  0  0  0  0  0  0  0  0  0
   -4.0390    7.0380    5.5840 C   0  0  0  0  0  0  0  0  0  0  0  0
   -3.1410    6.5480    4.6350 C   0  0  0  0  0  0  0  0  0  0  0  0
   -3.2810    5.2470    4.1500 C   0  0  0  0  0  0  0  0  0  0  0  0
   -6.4320    3.2920    3.6110 H   0  0  0  0  0  0  0  0  0  0  0  0
   -5.0854    1.1288    2.3231 H   0  0  0  0  0  0  0  0  0  0  0  0
   -6.7960    0.2671    0.7921 H   0  0  0  0  0  0  0  0  0  0  0  0
   -8.7890    2.0479    0.5349 H   0  0  0  0  0  0  0  0  0  0  0  0
   -8.8576    0.3944   -0.2116 H   0  0  0  0  0  0  0  0  0  0  0  0
   -9.7650    0.4410    2.3600 H   0  0  0  0  0  0  0  0  0  0  0  0
   -8.6650   -0.4037    3.1116 H   0  0  0  0  0  0  0  0  0  0  0  0
   -7.5040   -2.1730    1.2470 H   0  0  0  0  0  0  0  0  0  0  0  0
   -5.8287   -1.3444    2.4118 H   0  0  0  0  0  0  0  0  0  0  0  0
   -6.8890   -1.7260    4.9300 H   0  0  0  0  0  0  0  0  0  0  0  0
   -6.6656    0.4747    4.7523 H   0  0  0  0  0  0  0  0  0  0  0  0
   -4.9330   -1.1320    4.9530 H   0  0  0  0  0  0  0  0  0  0  0  0
   -6.0263    4.2840    5.9491 H   0  0  0  0  0  0  0  0  0  0  0  0
   -5.7732    6.6154    6.8079 H   0  0  0  0  0  0  0  0  0  0  0  0
   -3.9323    8.0658    5.9613 H   0  0  0  0  0  0  0  0  0  0  0  0
   -2.3234    7.1867    4.2695 H   0  0  0  0  0  0  0  0  0  0  0  0
   -2.5693    4.8593    3.4062 H   0  0  0  0  0  0  0  0  0  0  0  0
  1  2  2  0
  2  3  1  0
  3  4  1  0
  4  5  1  0
  5  6  1  0
  6  7  1  0
  7  8  1  0
  6  9  1  0
  9 10  1  0
  9 11  1  0
 11 12  1  0
 11 13  1  0
 13 14  1  0
  2 15  1  0
 15 16  2  0
 16 17  1  0
 17 18  2  0
 18 19  1  0
 19 20  2  0
 13  4  1  0
 20 15  1  0
  3 21  1  0
  4 22  1  6
  6 23  1  6
  7 24  1  0
  7 25  1  0
  8 26  1  0
  9 27  1  1
 10 28  1  0
 11 29  1  6
 12 30  1  0
 13 31  1  1
 14 32  1  0
 16 33  1  0
 17 34  1  0
 18 35  1  0
 19 36  1  0
 20 37  1  0
M  END
>  <meeko>  (1) 
{"is_sidechain": [false], "free_energy": -6.938, "intermolecular_energy": -8.966, "internal_energy": -0.727}

$$$$
3g2n_ligand
     RDKit          3D

 37 38  0  0  0  0  0  0  0  0999 V2000
   -5.7810    4.5930    1.7620 O   0  0  0  0  0  0  0  0  0  0  0  0
   -5.3820    4.2460    2.8680 C   0  0  0  0  0  0  0  0  0  0  0  0
   -5.5370    2.9650    3.3360 N   0  0  0  0  0  0  0  0  0  0  0  0
   -6.3280    1.9710    2.6520 C   0  0  2  0  0  0  0  0  0  0  0  0
   -6.6810    1.0770    3.7040 O   0  0  0  0  0  0  0  0  0  0  0  0
   -7.5000   -0.0120    3.2620 C   0  0  2  0  0  0  0  0  0  0  0  0
   -7.9290   -0.8420    4.4800 C   0  0  0  0  0  0  0  0  0  0  0  0
   -7.9210   -0.0760    5.6780 O   0  0  0  0  0  0  0  0  0  0  0  0
   -6.7230   -0.8680    2.2560 C   0  0  1  0  0  0  0  0  0  0  0  0
   -7.5040   -1.9780    1.7980 O   0  0  0  0  0  0  0  0  0  0  0  0
   -6.3290    0.0040    1.0680 C   0  0  2  0  0  0  0  0  0  0  0  0
   -5.5350   -0.7770    0.1590 O   0  0  0  0  0  0  0  0  0  0  0  0
   -5.5560    1.2490    1.5140 C   0  0  1  0  0  0  0  0  0  0  0  0
   -5.3670    2.0400    0.3320 O   0  0  0  0  0  0  0  0  0  0  0  0
   -4.7150    5.2190    3.7770 C   0  0  0  0  0  0  0  0  0  0  0  0
   -3.5150    5.8560    3.4360 C   0  0  0  0  0  0  0  0  0  0  0  0
   -2.9300    6.7640    4.3230 C   0  0  0  0  0  0  0  0  0  0  0  0
   -3.5420    7.0430    5.5440 C   0  0  0  0  0  0  0  0  0  0  0  0
   -4.7460    6.4230    5.8820 C   0  0  0  0  0  0  0  0  0  0  0  0
   -5.3330    5.5160    4.9980 C   0  0  0  0  0  0  0  0  0  0  0  0
   -5.4140    2.7810    4.3200 H   0  0  0  0  0  0  0  0  0  0  0  0
   -7.1930    2.4084    2.1318 H   0  0  0  0  0  0  0  0  0  0  0  0
   -8.4010    0.3702    2.7598 H   0  0  0  0  0  0  0  0  0  0  0  0
   -8.9467   -1.2229    4.3092 H   0  0  0  0  0  0  0  0  0  0  0  0
   -7.2098   -1.6657    4.5994 H   0  0  0  0  0  0  0  0  0  0  0  0
   -7.8910    0.8690    5.4110 H   0  0  0  0  0  0  0  0  0  0  0  0
   -5.8279   -1.2685    2.7544 H   0  0  0  0  0  0  0  0  0  0  0  0
   -7.9510   -2.3180    2.6030 H   0  0  0  0  0  0  0  0  0  0  0  0
   -7.2446    0.3504    0.5663 H   0  0  0  0  0  0  0  0  0  0  0  0
   -4.9100   -1.2680    0.7340 H   0  0  0  0  0  0  0  0  0  0  0  0
   -4.5713    1.0187    1.9467 H   0  0  0  0  0  0  0  0  0  0  0  0
   -4.4890    2.4790    0.4050 H   0  0  0  0  0  0  0  0  0  0  0  0
   -3.0333    5.6417    2.4706 H   0  0  0  0  0  0  0  0  0  0  0  0
   -1.9846    7.2595    4.0570 H   0  0  0  0  0  0  0  0  0  0  0  0
   -3.0752    7.7531    6.2424 H   0  0  0  0  0  0  0  0  0  0  0  0
   -5.2313    6.6486    6.8430 H   0  0  0  0  0  0  0  0  0  0  0  0
   -6.2852    5.0325    5.2617 H   0  0  0  0  0  0  0  0  0  0  0  0
  1  2  2  0
  2  3  1  0
  3  4  1  0
  4  5  1  0
  5  6  1  0
  6  7  1  0
  7  8  1  0
  6  9  1  0
  9 10  1  0
  9 11  1  0
 11 12  1  0
 11 13  1  0
 13 14  1  0
  2 15  1  0
 15 16  2  0
 16 17  1  0
 17 18  2  0
 18 19  1  0
 19 20  2  0
 13  4  1  0
 20 15  1  0
  3 21  1  0
  4 22  1  6
  6 23  1  6
  7 24  1  0
  7 25  1  0
  8 26  1  0
  9 27  1  1
 10 28  1  0
 11 29  1  6
 12 30  1  0
 13 31  1  1
 14 32  1  0
 16 33  1  0
 17 34  1  0
 18 35  1  0
 19 36  1  0
 20 37  1  0
M  END
>  <meeko>  (2) 
{"is_sidechain": [false], "free_energy": -6.907, "intermolecular_energy": -9.15, "internal_energy": -0.503}

$$$$
3g2n_ligand
     RDKit          3D

 37 38  0  0  0  0  0  0  0  0999 V2000
   -5.3930    0.6310    2.5090 O   0  0  0  0  0  0  0  0  0  0  0  0
   -5.9510    1.6790    2.8130 C   0  0  0  0  0  0  0  0  0  0  0  0
   -7.2980    1.7460    3.0710 N   0  0  0  0  0  0  0  0  0  0  0  0
   -8.1950    0.6410    2.8420 C   0  0  2  0  0  0  0  0  0  0  0  0
   -8.8760    1.0340    1.6530 O   0  0  0  0  0  0  0  0  0  0  0  0
   -9.8320    0.0650    1.2080 C   0  0  2  0  0  0  0  0  0  0  0  0
  -10.4170    0.5200   -0.1370 C   0  0  0  0  0  0  0  0  0  0  0  0
  -11.4830    1.4460    0.0310 O   0  0  0  0  0  0  0  0  0  0  0  0
  -10.9330   -0.0960    2.2620 C   0  0  1  0  0  0  0  0  0  0  0  0
  -11.9180   -1.0500    1.8480 O   0  0  0  0  0  0  0  0  0  0  0  0
  -10.2970   -0.5530    3.5710 C   0  0  2  0  0  0  0  0  0  0  0  0
  -11.3170   -0.6330    4.5810 O   0  0  0  0  0  0  0  0  0  0  0  0
   -9.1800    0.3940    4.0170 C   0  0  1  0  0  0  0  0  0  0  0  0
   -8.5840   -0.2150    5.1710 O   0  0  0  0  0  0  0  0  0  0  0  0
   -5.1850    2.9530    2.8990 C   0  0  0  0  0  0  0  0  0  0  0  0
   -4.1460    3.1370    3.8200 C   0  0  0  0  0  0  0  0  0  0  0  0
   -3.4540    4.3520    3.8600 C   0  0  0  0  0  0  0  0  0  0  0  0
   -3.7920    5.3780    2.9790 C   0  0  0  0  0  0  0  0  0  0  0  0
   -4.8160    5.1950    2.0490 C   0  0  0  0  0  0  0  0  0  0  0  0
   -5.5090    3.9830    2.0060 C   0  0  0  0  0  0  0  0  0  0  0  0
   -7.7540    2.6460    3.0840 H   0  0  0  0  0  0  0  0  0  0  0  0
   -7.6633   -0.3179    2.7537 H   0  0  0  0  0  0  0  0  0  0  0  0
   -9.3459   -0.9121    1.0700 H   0  0  0  0  0  0  0  0  0  0  0  0
   -9.6210    0.9981   -0.7268 H   0  0  0  0  0  0  0  0  0  0  0  0
  -10.8156   -0.3669   -0.6513 H   0  0  0  0  0  0  0  0  0  0  0  0
  -11.5280    1.9810   -0.7930 H   0  0  0  0  0  0  0  0  0  0  0  0
  -11.4369    0.8727    2.3955 H   0  0  0  0  0  0  0  0  0  0  0  0
  -12.3350   -0.6500    1.0550 H   0  0  0  0  0  0  0  0  0  0  0  0
   -9.8420   -1.5423    3.4153 H   0  0  0  0  0  0  0  0  0  0  0  0
  -10.9810   -1.2960    5.2220 H   0  0  0  0  0  0  0  0  0  0  0  0
   -9.5425    1.3953    4.2928 H   0  0  0  0  0  0  0  0  0  0  0  0
   -8.0600    0.4770    5.6360 H   0  0  0  0  0  0  0  0  0  0  0  0
   -3.8742    2.3261    4.5118 H   0  0  0  0  0  0  0  0  0  0  0  0
   -2.6421    4.4980    4.5876 H   0  0  0  0  0  0  0  0  0  0  0  0
   -3.2500    6.3345    3.0170 H   0  0  0  0  0  0  0  0  0  0  0  0
   -5.0771    6.0039    1.3508 H   0  0  0  0  0  0  0  0  0  0  0  0
   -6.3119    3.8366    1.2685 H   0  0  0  0  0  0  0  0  0  0  0  0
  1  2  2  0
  2  3  1  0
  3  4  1  0
  4  5  1  0
  5  6  1  0
  6  7  1  0
  7  8  1  0
  6  9  1  0
  9 10  1  0
  9 11  1  0
 11 12  1  0
 11 13  1  0
 13 14  1  0
  2 15  1  0
 15 16  2  0
 16 17  1  0
 17 18  2  0
 18 19  1  0
 19 20  2  0
 13  4  1  0
 20 15  1  0
  3 21  1  0
  4 22  1  6
  6 23  1  6
  7 24  1  0
  7 25  1  0
  8 26  1  0
  9 27  1  1
 10 28  1  0
 11 29  1  6
 12 30  1  0
 13 31  1  1
 14 32  1  0
 16 33  1  0
 17 34  1  0
 18 35  1  0
 19 36  1  0
 20 37  1  0
M  END
>  <meeko>  (3) 
{"is_sidechain": [false], "free_energy": -6.769, "intermolecular_energy": -8.909, "internal_energy": -0.566}

$$$$
3g2n_ligand
     RDKit          3D

 37 38  0  0  0  0  0  0  0  0999 V2000
   -9.5670    0.0310    4.5660 O   0  0  0  0  0  0  0  0  0  0  0  0
   -9.3360   -0.3170    3.4130 C   0  0  0  0  0  0  0  0  0  0  0  0
   -8.0870   -0.7080    3.0000 N   0  0  0  0  0  0  0  0  0  0  0  0
   -6.9130   -0.5810    3.8280 C   0  0  2  0  0  0  0  0  0  0  0  0
   -6.2940    0.5950    3.3120 O   0  0  0  0  0  0  0  0  0  0  0  0
   -5.0880    0.9420    4.0020 C   0  0  2  0  0  0  0  0  0  0  0  0
   -4.5690    2.2810    3.4590 C   0  0  0  0  0  0  0  0  0  0  0  0
   -3.4460    2.7560    4.1930 O   0  0  0  0  0  0  0  0  0  0  0  0
   -4.0480   -0.1690    3.8160 C   0  0  1  0  0  0  0  0  0  0  0  0
   -2.8200    0.1470    4.4810 O   0  0  0  0  0  0  0  0  0  0  0  0
   -4.6130   -1.4700    4.3760 C   0  0  2  0  0  0  0  0  0  0  0  0
   -3.6710   -2.5290    4.1360 O   0  0  0  0  0  0  0  0  0  0  0  0
   -5.9690   -1.8120    3.7510 C   0  0  1  0  0  0  0  0  0  0  0  0
   -6.4460   -2.9690    4.4530 O   0  0  0  0  0  0  0  0  0  0  0  0
  -10.4140   -0.3130    2.3850 C   0  0  0  0  0  0  0  0  0  0  0  0
  -11.6040    0.4060    2.5560 C   0  0  0  0  0  0  0  0  0  0  0  0
  -12.5850    0.3790    1.5600 C   0  0  0  0  0  0  0  0  0  0  0  0
  -12.3780   -0.3560    0.3940 C   0  0  0  0  0  0  0  0  0  0  0  0
  -11.1880   -1.0620    0.2130 C   0  0  0  0  0  0  0  0  0  0  0  0
  -10.2060   -1.0370    1.2050 C   0  0  0  0  0  0  0  0  0  0  0  0
   -7.8850   -0.7580    2.0130 H   0  0  0  0  0  0  0  0  0  0  0  0
   -7.1605   -0.5205    4.8981 H   0  0  0  0  0  0  0  0  0  0  0  0
   -5.2842    1.0487    5.0791 H   0  0  0  0  0  0  0  0  0  0  0  0
   -4.2750    2.1476    2.4074 H   0  0  0  0  0  0  0  0  0  0  0  0
   -5.3760    3.0222    3.5562 H   0  0  0  0  0  0  0  0  0  0  0  0
   -3.6120    3.7050    4.3860 H   0  0  0  0  0  0  0  0  0  0  0  0
   -3.8326   -0.2729    2.7423 H   0  0  0  0  0  0  0  0  0  0  0  0
   -2.7790   -0.4760    5.2390 H   0  0  0  0  0  0  0  0  0  0  0  0
   -4.7743   -1.3474    5.4572 H   0  0  0  0  0  0  0  0  0  0  0  0
   -3.3540   -2.3760    3.2210 H   0  0  0  0  0  0  0  0  0  0  0  0
   -5.9068   -2.0493    2.6787 H   0  0  0  0  0  0  0  0  0  0  0  0
   -7.3880   -3.1040    4.2000 H   0  0  0  0  0  0  0  0  0  0  0  0
  -11.7666    0.9913    3.4730 H   0  0  0  0  0  0  0  0  0  0  0  0
  -13.5219    0.9389    1.6969 H   0  0  0  0  0  0  0  0  0  0  0  0
  -13.1542   -0.3796   -0.3851 H   0  0  0  0  0  0  0  0  0  0  0  0
  -11.0239   -1.6374   -0.7100 H   0  0  0  0  0  0  0  0  0  0  0  0
   -9.2654   -1.5882    1.0589 H   0  0  0  0  0  0  0  0  0  0  0  0
  1  2  2  0
  2  3  1  0
  3  4  1  0
  4  5  1  0
  5  6  1  0
  6  7  1  0
  7  8  1  0
  6  9  1  0
  9 10  1  0
  9 11  1  0
 11 12  1  0
 11 13  1  0
 13 14  1  0
  2 15  1  0
 15 16  2  0
 16 17  1  0
 17 18  2  0
 18 19  1  0
 19 20  2  0
 13  4  1  0
 20 15  1  0
  3 21  1  0
  4 22  1  1
  6 23  1  1
  7 24  1  0
  7 25  1  0
  8 26  1  0
  9 27  1  6
 10 28  1  0
 11 29  1  1
 12 30  1  0
 13 31  1  6
 14 32  1  0
 16 33  1  0
 17 34  1  0
 18 35  1  0
 19 36  1  0
 20 37  1  0
M  END
>  <meeko>  (4) 
{"is_sidechain": [false], "free_energy": -6.753, "intermolecular_energy": -8.898, "internal_energy": -0.557}

$$$$
3g2n_ligand
     RDKit          3D

 37 38  0  0  0  0  0  0  0  0999 V2000
   -6.1490    1.2750    1.8480 O   0  0  0  0  0  0  0  0  0  0  0  0
   -6.1160    0.1080    2.2240 C   0  0  0  0  0  0  0  0  0  0  0  0
   -7.1670   -0.7540    2.0350 N   0  0  0  0  0  0  0  0  0  0  0  0
   -8.4530   -0.3250    1.5420 C   0  0  2  0  0  0  0  0  0  0  0  0
   -9.2980   -0.5140    2.6740 O   0  0  0  0  0  0  0  0  0  0  0  0
  -10.6570   -0.1320    2.4280 C   0  0  2  0  0  0  0  0  0  0  0  0
  -11.4550   -0.2530    3.7340 C   0  0  0  0  0  0  0  0  0  0  0  0
  -12.2170   -1.4540    3.7850 O   0  0  0  0  0  0  0  0  0  0  0  0
  -11.2540   -1.0230    1.3320 C   0  0  1  0  0  0  0  0  0  0  0  0
  -12.6190   -0.6820    1.0650 O   0  0  0  0  0  0  0  0  0  0  0  0
  -10.4270   -0.8590    0.0610 C   0  0  2  0  0  0  0  0  0  0  0  0
  -10.9390   -1.7490   -0.9450 O   0  0  0  0  0  0  0  0  0  0  0  0
   -8.9430   -1.1380    0.3130 C   0  0  1  0  0  0  0  0  0  0  0  0
   -8.2690   -0.8200   -0.9140 O   0  0  0  0  0  0  0  0  0  0  0  0
   -4.9210   -0.4310    2.9300 C   0  0  0  0  0  0  0  0  0  0  0  0
   -4.1610    0.3480    3.8120 C   0  0  0  0  0  0  0  0  0  0  0  0
   -3.0490   -0.2060    4.4530 C   0  0  0  0  0  0  0  0  0  0  0  0
   -2.6990   -1.5360    4.2220 C   0  0  0  0  0  0  0  0  0  0  0  0
   -3.4610   -2.3200    3.3560 C   0  0  0  0  0  0  0  0  0  0  0  0
   -4.5730   -1.7710    2.7140 C   0  0  0  0  0  0  0  0  0  0  0  0
   -7.1980   -1.6170    2.5560 H   0  0  0  0  0  0  0  0  0  0  0  0
   -8.4346    0.7094    1.1682 H   0  0  0  0  0  0  0  0  0  0  0  0
  -10.7013    0.9111    2.0816 H   0  0  0  0  0  0  0  0  0  0  0  0
  -10.7533   -0.2416    4.5811 H   0  0  0  0  0  0  0  0  0  0  0  0
  -12.1541    0.5948    3.7843 H   0  0  0  0  0  0  0  0  0  0  0  0
  -12.2860   -1.7870    2.8630 H   0  0  0  0  0  0  0  0  0  0  0  0
  -11.2296   -2.0676    1.6759 H   0  0  0  0  0  0  0  0  0  0  0  0
  -13.1390   -1.2110    1.7080 H   0  0  0  0  0  0  0  0  0  0  0  0
  -10.5084    0.1834   -0.2809 H   0  0  0  0  0  0  0  0  0  0  0  0
  -11.4270   -2.4370   -0.4440 H   0  0  0  0  0  0  0  0  0  0  0  0
   -8.7345   -2.1868    0.5708 H   0  0  0  0  0  0  0  0  0  0  0  0
   -7.7300   -0.0110   -0.7570 H   0  0  0  0  0  0  0  0  0  0  0  0
   -4.4392    1.3955    4.0002 H   0  0  0  0  0  0  0  0  0  0  0  0
   -2.4491    0.4082    5.1407 H   0  0  0  0  0  0  0  0  0  0  0  0
   -1.8203   -1.9675    4.7237 H   0  0  0  0  0  0  0  0  0  0  0  0
   -3.1862   -3.3703    3.1788 H   0  0  0  0  0  0  0  0  0  0  0  0
   -5.1775   -2.3923    2.0368 H   0  0  0  0  0  0  0  0  0  0  0  0
  1  2  2  0
  2  3  1  0
  3  4  1  0
  4  5  1  0
  5  6  1  0
  6  7  1  0
  7  8  1  0
  6  9  1  0
  9 10  1  0
  9 11  1  0
 11 12  1  0
 11 13  1  0
 13 14  1  0
  2 15  1  0
 15 16  2  0
 16 17  1  0
 17 18  2  0
 18 19  1  0
 19 20  2  0
 13  4  1  0
 20 15  1  0
  3 21  1  0
  4 22  1  6
  6 23  1  6
  7 24  1  0
  7 25  1  0
  8 26  1  0
  9 27  1  1
 10 28  1  0
 11 29  1  6
 12 30  1  0
 13 31  1  1
 14 32  1  0
 16 33  1  0
 17 34  1  0
 18 35  1  0
 19 36  1  0
 20 37  1  0
M  END
>  <meeko>  (5) 
{"is_sidechain": [false], "free_energy": -6.673, "intermolecular_energy": -8.745, "internal_energy": -0.605}

$$$$
3g2n_ligand
     RDKit          3D

 37 38  0  0  0  0  0  0  0  0999 V2000
   -9.7030   -0.0920   -0.6740 O   0  0  0  0  0  0  0  0  0  0  0  0
   -9.3710   -1.2620   -0.5170 C   0  0  0  0  0  0  0  0  0  0  0  0
   -8.7680   -1.7060    0.6340 N   0  0  0  0  0  0  0  0  0  0  0  0
   -8.3180   -0.8160    1.6750 C   0  0  2  0  0  0  0  0  0  0  0  0
   -7.3240   -1.5930    2.3400 O   0  0  0  0  0  0  0  0  0  0  0  0
   -6.7060   -0.8980    3.4290 C   0  0  2  0  0  0  0  0  0  0  0  0
   -5.5720   -1.7640    3.9960 C   0  0  0  0  0  0  0  0  0  0  0  0
   -6.0130   -2.5840    5.0720 O   0  0  0  0  0  0  0  0  0  0  0  0
   -7.7540   -0.5870    4.5050 C   0  0  1  0  0  0  0  0  0  0  0  0
   -7.1720    0.0970    5.6200 O   0  0  0  0  0  0  0  0  0  0  0  0
   -8.8490    0.2770    3.8890 C   0  0  2  0  0  0  0  0  0  0  0  0
   -9.8700    0.5070    4.8750 O   0  0  0  0  0  0  0  0  0  0  0  0
   -9.4510   -0.3780    2.6430 C   0  0  1  0  0  0  0  0  0  0  0  0
  -10.3610    0.5860    2.0910 O   0  0  0  0  0  0  0  0  0  0  0  0
   -9.5950   -2.2690   -1.5910 C   0  0  0  0  0  0  0  0  0  0  0  0
   -9.0180   -2.1440   -2.8620 C   0  0  0  0  0  0  0  0  0  0  0  0
   -9.2570   -3.1170   -3.8360 C   0  0  0  0  0  0  0  0  0  0  0  0
  -10.0620   -4.2180   -3.5430 C   0  0  0  0  0  0  0  0  0  0  0  0
  -10.6260   -4.3550   -2.2750 C   0  0  0  0  0  0  0  0  0  0  0  0
  -10.3900   -3.3840   -1.2990 C   0  0  0  0  0  0  0  0  0  0  0  0
   -8.3040   -2.6020    0.6340 H   0  0  0  0  0  0  0  0  0  0  0  0
   -7.9442    0.1387    1.2765 H   0  0  0  0  0  0  0  0  0  0  0  0
   -6.2824    0.0552    3.0796 H   0  0  0  0  0  0  0  0  0  0  0  0
   -5.1833   -2.4091    3.1943 H   0  0  0  0  0  0  0  0  0  0  0  0
   -4.7910   -1.0913    4.3801 H   0  0  0  0  0  0  0  0  0  0  0  0
   -6.7930   -3.0850    4.7460 H   0  0  0  0  0  0  0  0  0  0  0  0
   -8.1727   -1.5353    4.8731 H   0  0  0  0  0  0  0  0  0  0  0  0
   -7.9020    0.6390    5.9890 H   0  0  0  0  0  0  0  0  0  0  0  0
   -8.4075    1.2336    3.5728 H   0  0  0  0  0  0  0  0  0  0  0  0
   -9.8500   -0.2910    5.4440 H   0  0  0  0  0  0  0  0  0  0  0  0
  -10.0045   -1.3030    2.8623 H   0  0  0  0  0  0  0  0  0  0  0  0
   -9.9710    1.4790    2.2340 H   0  0  0  0  0  0  0  0  0  0  0  0
   -8.3772   -1.2802   -3.0928 H   0  0  0  0  0  0  0  0  0  0  0  0
   -8.8096   -3.0146   -4.8357 H   0  0  0  0  0  0  0  0  0  0  0  0
  -10.2522   -4.9795   -4.3136 H   0  0  0  0  0  0  0  0  0  0  0  0
  -11.2559   -5.2266   -2.0437 H   0  0  0  0  0  0  0  0  0  0  0  0
  -10.8304   -3.4957   -0.2972 H   0  0  0  0  0  0  0  0  0  0  0  0
  1  2  2  0
  2  3  1  0
  3  4  1  0
  4  5  1  0
  5  6  1  0
  6  7  1  0
  7  8  1  0
  6  9  1  0
  9 10  1  0
  9 11  1  0
 11 12  1  0
 11 13  1  0
 13 14  1  0
  2 15  1  0
 15 16  2  0
 16 17  1  0
 17 18  2  0
 18 19  1  0
 19 20  2  0
 13  4  1  0
 20 15  1  0
  3 21  1  0
  4 22  1  6
  6 23  1  6
  7 24  1  0
  7 25  1  0
  8 26  1  0
  9 27  1  1
 10 28  1  0
 11 29  1  6
 12 30  1  0
 13 31  1  1
 14 32  1  0
 16 33  1  0
 17 34  1  0
 18 35  1  0
 19 36  1  0
 20 37  1  0
M  END
>  <meeko>  (6) 
{"is_sidechain": [false], "free_energy": -6.631, "intermolecular_energy": -8.61, "internal_energy": -0.686}

$$$$
3g2n_ligand
     RDKit          3D

 37 38  0  0  0  0  0  0  0  0999 V2000
   -8.7010   -3.1600    0.0460 O   0  0  0  0  0  0  0  0  0  0  0  0
   -7.8330   -2.4300   -0.4210 C   0  0  0  0  0  0  0  0  0  0  0  0
   -6.9180   -1.7800    0.3700 N   0  0  0  0  0  0  0  0  0  0  0  0
   -7.0020   -1.7580    1.8090 C   0  0  2  0  0  0  0  0  0  0  0  0
   -7.9770   -0.7460    2.0480 O   0  0  0  0  0  0  0  0  0  0  0  0
   -8.2490   -0.5480    3.4400 C   0  0  2  0  0  0  0  0  0  0  0  0
   -9.3940    0.4650    3.5870 C   0  0  0  0  0  0  0  0  0  0  0  0
  -10.2520    0.1470    4.6760 O   0  0  0  0  0  0  0  0  0  0  0  0
   -6.9820   -0.0550    4.1500 C   0  0  1  0  0  0  0  0  0  0  0  0
   -7.2170    0.1680    5.5450 O   0  0  0  0  0  0  0  0  0  0  0  0
   -5.8840   -1.1000    3.9760 C   0  0  2  0  0  0  0  0  0  0  0  0
   -4.6740   -0.6070    4.5750 O   0  0  0  0  0  0  0  0  0  0  0  0
   -5.6500   -1.4320    2.5000 C   0  0  1  0  0  0  0  0  0  0  0  0
   -4.7020   -2.5100    2.4840 O   0  0  0  0  0  0  0  0  0  0  0  0
   -7.7410   -2.1970   -1.8890 C   0  0  0  0  0  0  0  0  0  0  0  0
   -6.5310   -2.3080   -2.5870 C   0  0  0  0  0  0  0  0  0  0  0  0
   -6.4970   -2.0810   -3.9660 C   0  0  0  0  0  0  0  0  0  0  0  0
   -7.6670   -1.7530   -4.6500 C   0  0  0  0  0  0  0  0  0  0  0  0
   -8.8770   -1.6580   -3.9620 C   0  0  0  0  0  0  0  0  0  0  0  0
   -8.9150   -1.8830   -2.5850 C   0  0  0  0  0  0  0  0  0  0  0  0
   -6.3820   -1.0190   -0.0190 H   0  0  0  0  0  0  0  0  0  0  0  0
   -7.2678   -2.7399    2.2275 H   0  0  0  0  0  0  0  0  0  0  0  0
   -8.5536   -1.4970    3.9055 H   0  0  0  0  0  0  0  0  0  0  0  0
   -8.9648    1.4640    3.7534 H   0  0  0  0  0  0  0  0  0  0  0  0
   -9.9923    0.4368    2.6644 H   0  0  0  0  0  0  0  0  0  0  0  0
  -10.9440    0.8440    4.7060 H   0  0  0  0  0  0  0  0  0  0  0  0
   -6.6774    0.9028    3.7029 H   0  0  0  0  0  0  0  0  0  0  0  0
   -6.6850    0.9640    5.7630 H   0  0  0  0  0  0  0  0  0  0  0  0
   -6.1992   -2.0295    4.4727 H   0  0  0  0  0  0  0  0  0  0  0  0
   -4.9080   -0.4520    5.5150 H   0  0  0  0  0  0  0  0  0  0  0  0
   -5.2388   -0.5895    1.9246 H   0  0  0  0  0  0  0  0  0  0  0  0
   -5.2080   -3.3500    2.3890 H   0  0  0  0  0  0  0  0  0  0  0  0
   -5.6084   -2.5736   -2.0501 H   0  0  0  0  0  0  0  0  0  0  0  0
   -5.5457   -2.1613   -4.5124 H   0  0  0  0  0  0  0  0  0  0  0  0
   -7.6359   -1.5688   -5.7340 H   0  0  0  0  0  0  0  0  0  0  0  0
   -9.8003   -1.4060   -4.5043 H   0  0  0  0  0  0  0  0  0  0  0  0
   -9.8705   -1.8134   -2.0445 H   0  0  0  0  0  0  0  0  0  0  0  0
  1  2  2  0
  2  3  1  0
  3  4  1  0
  4  5  1  0
  5  6  1  0
  6  7  1  0
  7  8  1  0
  6  9  1  0
  9 10  1  0
  9 11  1  0
 11 12  1  0
 11 13  1  0
 13 14  1  0
  2 15  1  0
 15 16  2  0
 16 17  1  0
 17 18  2  0
 18 19  1  0
 19 20  2  0
 13  4  1  0
 20 15  1  0
  3 21  1  0
  4 22  1  1
  6 23  1  1
  7 24  1  0
  7 25  1  0
  8 26  1  0
  9 27  1  6
 10 28  1  0
 11 29  1  1
 12 30  1  0
 13 31  1  6
 14 32  1  0
 16 33  1  0
 17 34  1  0
 18 35  1  0
 19 36  1  0
 20 37  1  0
M  END
>  <meeko>  (7) 
{"is_sidechain": [false], "free_energy": -6.557, "intermolecular_energy": -8.688, "internal_energy": -0.512}

$$$$
3g2n_ligand
     RDKit          3D

 37 38  0  0  0  0  0  0  0  0999 V2000
   -8.3830   -0.3240    4.6070 O   0  0  0  0  0  0  0  0  0  0  0  0
   -8.4220    0.1970    3.4980 C   0  0  0  0  0  0  0  0  0  0  0  0
   -7.4080    0.9920    3.0240 N   0  0  0  0  0  0  0  0  0  0  0  0
   -6.3020    1.4220    3.8430 C   0  0  2  0  0  0  0  0  0  0  0  0
   -5.9830    2.6970    3.2910 O   0  0  0  0  0  0  0  0  0  0  0  0
   -4.8980    3.3440    3.9660 C   0  0  2  0  0  0  0  0  0  0  0  0
   -4.7150    4.7530    3.3830 C   0  0  0  0  0  0  0  0  0  0  0  0
   -4.0240    5.6160    4.2790 O   0  0  0  0  0  0  0  0  0  0  0  0
   -3.6200    2.5110    3.8080 C   0  0  1  0  0  0  0  0  0  0  0  0
   -2.5070    3.1330    4.4590 O   0  0  0  0  0  0  0  0  0  0  0  0
   -3.8580    1.1290    4.4070 C   0  0  2  0  0  0  0  0  0  0  0  0
   -2.6880    0.3220    4.1930 O   0  0  0  0  0  0  0  0  0  0  0  0
   -5.0890    0.4530    3.7970 C   0  0  1  0  0  0  0  0  0  0  0  0
   -5.2760   -0.7640    4.5340 O   0  0  0  0  0  0  0  0  0  0  0  0
   -9.5990    0.0040    2.6060 C   0  0  0  0  0  0  0  0  0  0  0  0
   -9.4610   -0.3210    1.2500 C   0  0  0  0  0  0  0  0  0  0  0  0
  -10.5970   -0.4950    0.4540 C   0  0  0  0  0  0  0  0  0  0  0  0
  -11.8680   -0.3540    1.0100 C   0  0  0  0  0  0  0  0  0  0  0  0
  -12.0110   -0.0470    2.3630 C   0  0  0  0  0  0  0  0  0  0  0  0
  -10.8790    0.1280    3.1610 C   0  0  0  0  0  0  0  0  0  0  0  0
   -7.5770    1.5830    2.2240 H   0  0  0  0  0  0  0  0  0  0  0  0
   -6.5599    1.4521    4.9119 H   0  0  0  0  0  0  0  0  0  0  0  0
   -5.1175    3.4312    5.0403 H   0  0  0  0  0  0  0  0  0  0  0  0
   -4.1404    4.6784    2.4480 H   0  0  0  0  0  0  0  0  0  0  0  0
   -5.7134    5.1786    3.2041 H   0  0  0  0  0  0  0  0  0  0  0  0
   -3.7330    6.3950    3.7550 H   0  0  0  0  0  0  0  0  0  0  0  0
   -3.3813    2.4306    2.7372 H   0  0  0  0  0  0  0  0  0  0  0  0
   -1.7380    2.9370    3.8810 H   0  0  0  0  0  0  0  0  0  0  0  0
   -4.0484    1.2398    5.4847 H   0  0  0  0  0  0  0  0  0  0  0  0
   -3.0110   -0.4550    3.6900 H   0  0  0  0  0  0  0  0  0  0  0  0
   -4.9676    0.2072    2.7317 H   0  0  0  0  0  0  0  0  0  0  0  0
   -4.4590   -0.9220    5.0610 H   0  0  0  0  0  0  0  0  0  0  0  0
   -8.4590   -0.4392    0.8119 H   0  0  0  0  0  0  0  0  0  0  0  0
  -10.4881   -0.7434   -0.6120 H   0  0  0  0  0  0  0  0  0  0  0  0
  -12.7601   -0.4852    0.3799 H   0  0  0  0  0  0  0  0  0  0  0  0
  -13.0147    0.0571    2.8008 H   0  0  0  0  0  0  0  0  0  0  0  0
  -10.9927    0.3641    4.2293 H   0  0  0  0  0  0  0  0  0  0  0  0
  1  2  2  0
  2  3  1  0
  3  4  1  0
  4  5  1  0
  5  6  1  0
  6  7  1  0
  7  8  1  0
  6  9  1  0
  9 10  1  0
  9 11  1  0
 11 12  1  0
 11 13  1  0
 13 14  1  0
  2 15  1  0
 15 16  2  0
 16 17  1  0
 17 18  2  0
 18 19  1  0
 19 20  2  0
 13  4  1  0
 20 15  1  0
  3 21  1  0
  4 22  1  1
  6 23  1  1
  7 24  1  0
  7 25  1  0
  8 26  1  0
  9 27  1  6
 10 28  1  0
 11 29  1  1
 12 30  1  0
 13 31  1  6
 14 32  1  0
 16 33  1  0
 17 34  1  0
 18 35  1  0
 19 36  1  0
 20 37  1  0
M  END
>  <meeko>  (8) 
{"is_sidechain": [false], "free_energy": -6.535, "intermolecular_energy": -8.437, "internal_energy": -0.734}

$$$$
3g2n_ligand
     RDKit          3D

 37 38  0  0  0  0  0  0  0  0999 V2000
   -3.3540    0.7620    4.4180 O   0  0  0  0  0  0  0  0  0  0  0  0
   -4.2780    1.1330    3.7030 C   0  0  0  0  0  0  0  0  0  0  0  0
   -4.6360    2.4540    3.5920 N   0  0  0  0  0  0  0  0  0  0  0  0
   -4.0790    3.4890    4.4280 C   0  0  2  0  0  0  0  0  0  0  0  0
   -5.2290    4.2480    4.7910 O   0  0  0  0  0  0  0  0  0  0  0  0
   -4.9240    5.3500    5.6540 C   0  0  2  0  0  0  0  0  0  0  0  0
   -6.2330    6.0250    6.0860 C   0  0  0  0  0  0  0  0  0  0  0  0
   -6.7040    5.5280    7.3330 O   0  0  0  0  0  0  0  0  0  0  0  0
   -4.0070    6.3400    4.9250 C   0  0  1  0  0  0  0  0  0  0  0  0
   -3.6880    7.4640    5.7520 O   0  0  0  0  0  0  0  0  0  0  0  0
   -2.7240    5.6180    4.5250 C   0  0  2  0  0  0  0  0  0  0  0  0
   -1.8950    6.5230    3.7760 O   0  0  0  0  0  0  0  0  0  0  0  0
   -3.0160    4.3600    3.7030 C   0  0  1  0  0  0  0  0  0  0  0  0
   -1.7500    3.7110    3.5110 O   0  0  0  0  0  0  0  0  0  0  0  0
   -5.0810    0.1510    2.9230 C   0  0  0  0  0  0  0  0  0  0  0  0
   -6.2270    0.5230    2.2100 C   0  0  0  0  0  0  0  0  0  0  0  0
   -6.9450   -0.4370    1.4900 C   0  0  0  0  0  0  0  0  0  0  0  0
   -6.5180   -1.7640    1.4750 C   0  0  0  0  0  0  0  0  0  0  0  0
   -5.3670   -2.1370    2.1700 C   0  0  0  0  0  0  0  0  0  0  0  0
   -4.6480   -1.1810    2.8900 C   0  0  0  0  0  0  0  0  0  0  0  0
   -5.5300    2.6920    3.1910 H   0  0  0  0  0  0  0  0  0  0  0  0
   -3.5263    3.0812    5.2872 H   0  0  0  0  0  0  0  0  0  0  0  0
   -4.3967    4.9939    6.5513 H   0  0  0  0  0  0  0  0  0  0  0  0
   -6.0607    7.1075    6.1777 H   0  0  0  0  0  0  0  0  0  0  0  0
   -6.9953    5.8059    5.3238 H   0  0  0  0  0  0  0  0  0  0  0  0
   -7.5030    4.9890    7.1400 H   0  0  0  0  0  0  0  0  0  0  0  0
   -4.5318    6.7157    4.0343 H   0  0  0  0  0  0  0  0  0  0  0  0
   -2.7120    7.4310    5.8530 H   0  0  0  0  0  0  0  0  0  0  0  0
   -2.2018    5.2957    5.4379 H   0  0  0  0  0  0  0  0  0  0  0  0
   -1.9480    7.3710    4.2650 H   0  0  0  0  0  0  0  0  0  0  0  0
   -3.4558    4.5761    2.7182 H   0  0  0  0  0  0  0  0  0  0  0  0
   -1.5280    3.7710    2.5540 H   0  0  0  0  0  0  0  0  0  0  0  0
   -6.5627    1.5705    2.2162 H   0  0  0  0  0  0  0  0  0  0  0  0
   -7.8483   -0.1446    0.9345 H   0  0  0  0  0  0  0  0  0  0  0  0
   -7.0895   -2.5183    0.9143 H   0  0  0  0  0  0  0  0  0  0  0  0
   -5.0266   -3.1828    2.1507 H   0  0  0  0  0  0  0  0  0  0  0  0
   -3.7379   -1.4748    3.4335 H   0  0  0  0  0  0  0  0  0  0  0  0
  1  2  2  0
  2  3  1  0
  3  4  1  0
  4  5  1  0
  5  6  1  0
  6  7  1  0
  7  8  1  0
  6  9  1  0
  9 10  1  0
  9 11  1  0
 11 12  1  0
 11 13  1  0
 13 14  1  0
  2 15  1  0
 15 16  2  0
 16 17  1  0
 17 18  2  0
 18 19  1  0
 19 20  2  0
 13  4  1  0
 20 15  1  0
  3 21  1  0
  4 22  1  1
  6 23  1  1
  7 24  1  0
  7 25  1  0
  8 26  1  0
  9 27  1  6
 10 28  1  0
 11 29  1  1
 12 30  1  0
 13 31  1  6
 14 32  1  0
 16 33  1  0
 17 34  1  0
 18 35  1  0
 19 36  1  0
 20 37  1  0
M  END
>  <meeko>  (9) 
{"is_sidechain": [false], "free_energy": -6.409, "intermolecular_energy": -8.574, "internal_energy": -0.434}

$$$$
