
     RDKit          3D

 30 32  0  0  0  0  0  0  0  0999 V2000
   11.3190    7.9350   19.1520 C   0  0  0  0  0  0  0  0  0  0  0  0
   12.2430    6.9240   18.5610 C   0  0  0  0  0  0  0  0  0  0  0  0
   11.4910    5.8670   17.8880 N   0  0  0  0  0  0  0  0  0  0  0  0
   10.6540    5.0920   18.7820 C   0  0  0  0  0  0  0  0  0  0  0  0
   11.3730    4.6440   20.0270 C   0  0  0  0  0  0  0  0  0  0  0  0
   12.3570    5.0510   17.0310 C   0  0  1  0  0  0  0  0  0  0  0  0
   11.5640    3.9910   16.3240 C   0  0  0  0  0  0  0  0  0  0  0  0
   12.3820    3.3050   15.2640 C   0  0  0  0  0  0  0  0  0  0  0  0
   12.9280    4.2800   14.3270 N   0  0  0  0  0  0  0  0  0  0  0  0
   13.6770    3.6400   13.2860 C   0  0  0  0  0  0  0  0  0  0  0  0
   12.9210    2.9020   12.2500 C   0  0  0  0  0  0  0  0  0  0  0  0
   13.4130    1.7160   11.7390 C   0  0  0  0  0  0  0  0  0  0  0  0
   12.7250    1.0080   10.7620 C   0  0  0  0  0  0  0  0  0  0  0  0
   13.2490   -0.1890   10.2550 C   0  0  0  0  0  0  0  0  0  0  0  0
   13.6990   -1.2220    9.8410 C   0  0  0  0  0  0  0  0  0  0  0  0
   14.2600   -2.4410    9.3410 C   0  0  0  0  0  0  0  0  0  0  0  0
   15.4570   -2.1860    8.6410 O   0  0  0  0  0  0  0  0  0  0  0  0
   16.6570   -2.1210    9.3100 C   0  0  0  0  0  0  0  0  0  0  0  0
   16.7520   -2.3000   10.6790 C   0  0  0  0  0  0  0  0  0  0  0  0
   17.9610   -2.1870   11.3190 C   0  0  0  0  0  0  0  0  0  0  0  0
   19.1200   -1.9080   10.5910 C   0  0  0  0  0  0  0  0  0  0  0  0
   19.0290   -1.7200    9.2150 C   0  0  0  0  0  0  0  0  0  0  0  0
   17.8160   -1.8260    8.5750 C   0  0  0  0  0  0  0  0  0  0  0  0
   11.5170    1.4990   10.2820 C   0  0  0  0  0  0  0  0  0  0  0  0
   11.0100    2.6770   10.7680 C   0  0  0  0  0  0  0  0  0  0  0  0
    9.2410    3.3930   10.0230 I   0  0  0  0  0  0  0  0  0  0  0  0
   11.7030    3.3960   11.7750 C   0  0  0  0  0  0  0  0  0  0  0  0
   11.2080    4.5360   12.2780 O   0  0  0  0  0  0  0  0  0  0  0  0
   13.7900    5.2400   15.0290 C   0  0  0  0  0  0  0  0  0  0  0  0
   12.9950    5.9800   16.0420 C   0  0  0  0  0  0  0  0  0  0  0  0
  2  1  1  0
  3  2  1  0
  4  3  1  0
  5  4  1  0
  6  3  1  1
  7  6  1  0
  8  7  1  0
  9  8  1  0
 10  9  1  0
 11 10  1  0
 12 11  2  0
 13 12  1  0
 14 13  1  0
 15 14  3  0
 16 15  1  0
 17 16  1  0
 18 17  1  0
 19 18  2  0
 20 19  1  0
 21 20  2  0
 22 21  1  0
 23 22  2  0
 23 18  1  0
 24 13  2  0
 25 24  1  0
 26 25  1  0
 27 25  2  0
 27 11  1  0
 28 27  1  0
 29  9  1  0
 30 29  1  0
 30  6  1  0
M  CHG  1   3   1
M  END
$$$$
