1q8t_ligand
     RDKit          3D

 40 41  0  0  0  0  0  0  0  0999 V2000
   10.4580   -7.0420   -3.2760 C   0  0  0  0  0  0  0  0  0  0  0  0
    8.9400   -6.8540   -3.2360 C   0  0  1  0  0  0  0  0  0  0  0  0
    8.4390   -7.1270   -4.6170 N   0  0  0  0  0  0  0  0  0  0  0  0
    8.2360   -7.7870   -2.2120 C   0  0  2  0  0  0  0  0  0  0  0  0
    6.7660   -7.4120   -1.9200 C   0  0  0  0  0  0  0  0  0  0  0  0
    6.6210   -6.3600   -0.8230 C   0  0  0  0  0  0  0  0  0  0  0  0
    7.3000   -6.7710    0.4950 C   0  0  1  0  0  0  0  0  0  0  0  0
    6.2950   -6.9150    1.6410 C   0  0  0  0  0  0  0  0  0  0  0  0
    6.0190   -5.9350    2.3250 O   0  0  0  0  0  0  0  0  0  0  0  0
    5.7640   -8.1830    1.7790 N   0  0  0  0  0  0  0  0  0  0  0  0
    4.8060   -8.6080    2.7300 C   0  0  0  0  0  0  0  0  0  0  0  0
    5.1100   -8.9520    4.0430 C   0  0  0  0  0  0  0  0  0  0  0  0
    4.0760   -9.3490    4.8780 C   0  0  0  0  0  0  0  0  0  0  0  0
    2.7840   -9.4220    4.4940 N   0  0  0  0  0  0  0  0  0  0  0  0
    2.5120   -9.0870    3.2190 C   0  0  0  0  0  0  0  0  0  0  0  0
    3.4770   -8.6780    2.3100 C   0  0  0  0  0  0  0  0  0  0  0  0
    8.1960   -8.0070    0.3470 C   0  0  0  0  0  0  0  0  0  0  0  0
    9.0600   -7.8780   -0.9040 C   0  0  0  0  0  0  0  0  0  0  0  0
   10.8487   -7.0904   -2.2488 H   0  0  0  0  0  0  0  0  0  0  0  0
   10.6979   -7.9767   -3.8040 H   0  0  0  0  0  0  0  0  0  0  0  0
   10.9187   -6.1940   -3.8040 H   0  0  0  0  0  0  0  0  0  0  0  0
    8.7097   -5.8300   -2.9067 H   0  0  0  0  0  0  0  0  0  0  0  0
    8.6180   -8.0940   -4.9160 H   0  0  0  0  0  0  0  0  0  0  0  0
    8.8610   -6.4970   -5.3130 H   0  0  0  0  0  0  0  0  0  0  0  0
    7.4180   -6.9990   -4.6740 H   0  0  0  0  0  0  0  0  0  0  0  0
    8.1935   -8.7788   -2.6858 H   0  0  0  0  0  0  0  0  0  0  0  0
    6.3153   -7.0190   -2.8433 H   0  0  0  0  0  0  0  0  0  0  0  0
    6.2595   -8.3231   -1.5687 H   0  0  0  0  0  0  0  0  0  0  0  0
    7.0755   -5.4219   -1.1742 H   0  0  0  0  0  0  0  0  0  0  0  0
    5.5466   -6.2431   -0.6181 H   0  0  0  0  0  0  0  0  0  0  0  0
    7.9723   -5.9426    0.7629 H   0  0  0  0  0  0  0  0  0  0  0  0
    6.0940   -8.9000    1.1500 H   0  0  0  0  0  0  0  0  0  0  0  0
    6.1460   -8.9102    4.4105 H   0  0  0  0  0  0  0  0  0  0  0  0
    4.3236   -9.6205    5.9148 H   0  0  0  0  0  0  0  0  0  0  0  0
    1.4672   -9.1405    2.8791 H   0  0  0  0  0  0  0  0  0  0  0  0
    3.2001   -8.4141    1.2787 H   0  0  0  0  0  0  0  0  0  0  0  0
    8.8452   -8.0943    1.2307 H   0  0  0  0  0  0  0  0  0  0  0  0
    7.5639   -8.9029    0.2586 H   0  0  0  0  0  0  0  0  0  0  0  0
    9.6720   -6.9685   -0.8131 H   0  0  0  0  0  0  0  0  0  0  0  0
    9.6753   -8.7874   -0.9697 H   0  0  0  0  0  0  0  0  0  0  0  0
  1  2  1  0
  2  3  1  0
  2  4  1  0
  4  5  1  0
  5  6  1  0
  6  7  1  0
  7  8  1  0
  8  9  2  0
  8 10  1  0
 10 11  1  0
 11 12  2  0
 12 13  1  0
 13 14  2  0
 14 15  1  0
 15 16  2  0
  7 17  1  0
 17 18  1  0
 18  4  1  0
 16 11  1  0
  1 19  1  0
  1 20  1  0
  1 21  1  0
  2 22  1  1
  3 23  1  0
  3 24  1  0
  3 25  1  0
  4 26  1  1
  5 27  1  0
  5 28  1  0
  6 29  1  0
  6 30  1  0
  7 31  1  6
 10 32  1  0
 12 33  1  0
 13 34  1  0
 15 35  1  0
 16 36  1  0
 17 37  1  0
 17 38  1  0
 18 39  1  0
 18 40  1  0
M  CHG  1   3   1
M  END
>  <meeko>  (1) 
{"is_sidechain": [false], "free_energy": -6.782, "intermolecular_energy": -8.17, "internal_energy": -0.516}

$$$$
1q8t_ligand
     RDKit          3D

 40 41  0  0  0  0  0  0  0  0999 V2000
    7.3050   -7.7740   -2.1050 C   0  0  0  0  0  0  0  0  0  0  0  0
    8.6050   -7.7860   -1.3000 C   0  0  1  0  0  0  0  0  0  0  0  0
    9.6840   -7.3170   -2.2220 N   0  0  0  0  0  0  0  0  0  0  0  0
    8.5490   -6.8870   -0.0340 C   0  0  2  0  0  0  0  0  0  0  0  0
    8.9250   -7.6140    1.2770 C   0  0  0  0  0  0  0  0  0  0  0  0
    7.7440   -8.3310    1.9260 C   0  0  0  0  0  0  0  0  0  0  0  0
    6.5520   -7.3960    2.2000 C   0  0  1  0  0  0  0  0  0  0  0  0
    6.2440   -7.2790    3.6950 C   0  0  0  0  0  0  0  0  0  0  0  0
    6.2830   -8.2840    4.3970 O   0  0  0  0  0  0  0  0  0  0  0  0
    5.9620   -5.9950    4.1210 N   0  0  0  0  0  0  0  0  0  0  0  0
    5.6600   -5.5820    5.4400 C   0  0  0  0  0  0  0  0  0  0  0  0
    6.5890   -5.5320    6.4740 C   0  0  0  0  0  0  0  0  0  0  0  0
    6.1660   -5.1040    7.7230 C   0  0  0  0  0  0  0  0  0  0  0  0
    4.9000   -4.7300    8.0010 N   0  0  0  0  0  0  0  0  0  0  0  0
    4.0150   -4.7880    6.9880 C   0  0  0  0  0  0  0  0  0  0  0  0
    4.3430   -5.2020    5.7060 C   0  0  0  0  0  0  0  0  0  0  0  0
    6.6990   -6.0270    1.5270 C   0  0  0  0  0  0  0  0  0  0  0  0
    7.1650   -6.2020    0.0840 C   0  0  0  0  0  0  0  0  0  0  0  0
    6.4473   -7.7661   -1.4163 H   0  0  0  0  0  0  0  0  0  0  0  0
    7.2745   -6.8755   -2.7389 H   0  0  0  0  0  0  0  0  0  0  0  0
    7.2580   -8.6717   -2.7389 H   0  0  0  0  0  0  0  0  0  0  0  0
    8.7909   -8.8045   -0.9284 H   0  0  0  0  0  0  0  0  0  0  0  0
    9.5040   -6.3750   -2.5910 H   0  0  0  0  0  0  0  0  0  0  0  0
    9.8110   -7.9530   -3.0220 H   0  0  0  0  0  0  0  0  0  0  0  0
   10.5900   -7.2610   -1.7360 H   0  0  0  0  0  0  0  0  0  0  0  0
    9.3254   -6.1202   -0.1726 H   0  0  0  0  0  0  0  0  0  0  0  0
    9.7052   -8.3566    1.0538 H   0  0  0  0  0  0  0  0  0  0  0  0
    9.2738   -6.8494    1.9867 H   0  0  0  0  0  0  0  0  0  0  0  0
    7.4110   -9.1367    1.2552 H   0  0  0  0  0  0  0  0  0  0  0  0
    8.0872   -8.7209    2.8957 H   0  0  0  0  0  0  0  0  0  0  0  0
    5.6775   -7.8697    1.7301 H   0  0  0  0  0  0  0  0  0  0  0  0
    5.9530   -5.2630    3.4270 H   0  0  0  0  0  0  0  0  0  0  0  0
    7.6355   -5.8254    6.3046 H   0  0  0  0  0  0  0  0  0  0  0  0
    6.9066   -5.0672    8.5355 H   0  0  0  0  0  0  0  0  0  0  0  0
    2.9751   -4.4907    7.1884 H   0  0  0  0  0  0  0  0  0  0  0  0
    3.5804   -5.2305    4.9138 H   0  0  0  0  0  0  0  0  0  0  0  0
    5.7279   -5.5105    1.5361 H   0  0  0  0  0  0  0  0  0  0  0  0
    7.4431   -5.4322    2.0771 H   0  0  0  0  0  0  0  0  0  0  0  0
    6.4248   -6.8161   -0.4499 H   0  0  0  0  0  0  0  0  0  0  0  0
    7.2609   -5.1965   -0.3516 H   0  0  0  0  0  0  0  0  0  0  0  0
  1  2  1  0
  2  3  1  0
  2  4  1  0
  4  5  1  0
  5  6  1  0
  6  7  1  0
  7  8  1  0
  8  9  2  0
  8 10  1  0
 10 11  1  0
 11 12  2  0
 12 13  1  0
 13 14  2  0
 14 15  1  0
 15 16  2  0
  7 17  1  0
 17 18  1  0
 18  4  1  0
 16 11  1  0
  1 19  1  0
  1 20  1  0
  1 21  1  0
  2 22  1  1
  3 23  1  0
  3 24  1  0
  3 25  1  0
  4 26  1  1
  5 27  1  0
  5 28  1  0
  6 29  1  0
  6 30  1  0
  7 31  1  1
 10 32  1  0
 12 33  1  0
 13 34  1  0
 15 35  1  0
 16 36  1  0
 17 37  1  0
 17 38  1  0
 18 39  1  0
 18 40  1  0
M  CHG  1   3   1
M  END
>  <meeko>  (2) 
{"is_sidechain": [false], "free_energy": -6.777, "intermolecular_energy": -8.143, "internal_energy": -0.536}

$$$$
1q8t_ligand
     RDKit          3D

 40 41  0  0  0  0  0  0  0  0999 V2000
   10.1080   -7.0320   -3.6200 C   0  0  0  0  0  0  0  0  0  0  0  0
    8.6160   -6.9730   -3.2910 C   0  0  1  0  0  0  0  0  0  0  0  0
    7.8870   -7.3230   -4.5470 N   0  0  0  0  0  0  0  0  0  0  0  0
    8.2050   -7.9360   -2.1420 C   0  0  2  0  0  0  0  0  0  0  0  0
    6.8390   -7.6080   -1.4990 C   0  0  0  0  0  0  0  0  0  0  0  0
    6.9350   -6.5710   -0.3820 C   0  0  0  0  0  0  0  0  0  0  0  0
    7.9230   -6.9740    0.7260 C   0  0  1  0  0  0  0  0  0  0  0  0
    7.2280   -7.1580    2.0780 C   0  0  0  0  0  0  0  0  0  0  0  0
    7.8000   -7.7800    2.9670 O   0  0  0  0  0  0  0  0  0  0  0  0
    5.9850   -6.5610    2.1680 N   0  0  0  0  0  0  0  0  0  0  0  0
    5.1240   -6.5480    3.2910 C   0  0  0  0  0  0  0  0  0  0  0  0
    5.1110   -5.5440    4.2530 C   0  0  0  0  0  0  0  0  0  0  0  0
    4.2140   -5.6480    5.3050 C   0  0  0  0  0  0  0  0  0  0  0  0
    3.3460   -6.6700    5.4560 N   0  0  0  0  0  0  0  0  0  0  0  0
    3.3770   -7.6330    4.5160 C   0  0  0  0  0  0  0  0  0  0  0  0
    4.2360   -7.6170    3.4280 C   0  0  0  0  0  0  0  0  0  0  0  0
    8.7880   -8.1810    0.3470 C   0  0  0  0  0  0  0  0  0  0  0  0
    9.3220   -8.0150   -1.0730 C   0  0  0  0  0  0  0  0  0  0  0  0
   10.6888   -7.0550   -2.6861 H   0  0  0  0  0  0  0  0  0  0  0  0
   10.3188   -7.9392   -4.2053 H   0  0  0  0  0  0  0  0  0  0  0  0
   10.3898   -6.1443   -4.2053 H   0  0  0  0  0  0  0  0  0  0  0  0
    8.3634   -5.9641   -2.9328 H   0  0  0  0  0  0  0  0  0  0  0  0
    6.9820   -6.8410   -4.6240 H   0  0  0  0  0  0  0  0  0  0  0  0
    7.7140   -8.3350   -4.6250 H   0  0  0  0  0  0  0  0  0  0  0  0
    8.4260   -7.0460   -5.3800 H   0  0  0  0  0  0  0  0  0  0  0  0
    8.0762   -8.9244   -2.6073 H   0  0  0  0  0  0  0  0  0  0  0  0
    6.1688   -7.2198   -2.2801 H   0  0  0  0  0  0  0  0  0  0  0  0
    6.4562   -8.5370   -1.0514 H   0  0  0  0  0  0  0  0  0  0  0  0
    7.2658   -5.6163   -0.8169 H   0  0  0  0  0  0  0  0  0  0  0  0
    5.9392   -6.4883    0.0779 H   0  0  0  0  0  0  0  0  0  0  0  0
    8.6187   -6.1292    0.8368 H   0  0  0  0  0  0  0  0  0  0  0  0
    5.6310   -6.0900    1.3480 H   0  0  0  0  0  0  0  0  0  0  0  0
    5.7967   -4.6869    4.1810 H   0  0  0  0  0  0  0  0  0  0  0  0
    4.2097   -4.8497    6.0618 H   0  0  0  0  0  0  0  0  0  0  0  0
    2.6821   -8.4797    4.6167 H   0  0  0  0  0  0  0  0  0  0  0  0
    4.2185   -8.4301    2.6874 H   0  0  0  0  0  0  0  0  0  0  0  0
    9.6328   -8.2580    1.0472 H   0  0  0  0  0  0  0  0  0  0  0  0
    8.1765   -9.0939    0.3985 H   0  0  0  0  0  0  0  0  0  0  0  0
    9.9139   -7.0889   -1.1174 H   0  0  0  0  0  0  0  0  0  0  0  0
    9.9274   -8.9051   -1.2995 H   0  0  0  0  0  0  0  0  0  0  0  0
  1  2  1  0
  2  3  1  0
  2  4  1  0
  4  5  1  0
  5  6  1  0
  6  7  1  0
  7  8  1  0
  8  9  2  0
  8 10  1  0
 10 11  1  0
 11 12  2  0
 12 13  1  0
 13 14  2  0
 14 15  1  0
 15 16  2  0
  7 17  1  0
 17 18  1  0
 18  4  1  0
 16 11  1  0
  1 19  1  0
  1 20  1  0
  1 21  1  0
  2 22  1  1
  3 23  1  0
  3 24  1  0
  3 25  1  0
  4 26  1  1
  5 27  1  0
  5 28  1  0
  6 29  1  0
  6 30  1  0
  7 31  1  6
 10 32  1  0
 12 33  1  0
 13 34  1  0
 15 35  1  0
 16 36  1  0
 17 37  1  0
 17 38  1  0
 18 39  1  0
 18 40  1  0
M  CHG  1   3   1
M  END
>  <meeko>  (3) 
{"is_sidechain": [false], "free_energy": -6.729, "intermolecular_energy": -8.119, "internal_energy": -0.503}

$$$$
1q8t_ligand
     RDKit          3D

 40 41  0  0  0  0  0  0  0  0999 V2000
   10.1760   -7.1070   -3.4240 C   0  0  0  0  0  0  0  0  0  0  0  0
    8.6710   -6.9100   -3.2380 C   0  0  1  0  0  0  0  0  0  0  0  0
    8.0350   -7.2040   -4.5580 N   0  0  0  0  0  0  0  0  0  0  0  0
    8.0680   -7.8200   -2.1330 C   0  0  2  0  0  0  0  0  0  0  0  0
    6.5660   -7.5760   -1.8610 C   0  0  0  0  0  0  0  0  0  0  0  0
    6.3130   -6.4560   -0.8560 C   0  0  0  0  0  0  0  0  0  0  0  0
    7.0310   -6.6810    0.4860 C   0  0  1  0  0  0  0  0  0  0  0  0
    6.0460   -6.8310    1.6490 C   0  0  0  0  0  0  0  0  0  0  0  0
    4.9620   -7.3690    1.4520 O   0  0  0  0  0  0  0  0  0  0  0  0
    6.5090   -6.3420    2.8560 N   0  0  0  0  0  0  0  0  0  0  0  0
    5.8320   -6.3590    4.0980 C   0  0  0  0  0  0  0  0  0  0  0  0
    5.9500   -7.3790    5.0370 C   0  0  0  0  0  0  0  0  0  0  0  0
    5.2340   -7.2740    6.2200 C   0  0  0  0  0  0  0  0  0  0  0  0
    4.4250   -6.2370    6.5210 N   0  0  0  0  0  0  0  0  0  0  0  0
    4.3230   -5.2620    5.5980 C   0  0  0  0  0  0  0  0  0  0  0  0
    4.9980   -5.2770    4.3870 C   0  0  0  0  0  0  0  0  0  0  0  0
    8.0500   -7.8260    0.4350 C   0  0  0  0  0  0  0  0  0  0  0  0
    8.8960   -7.7150   -0.8290 C   0  0  0  0  0  0  0  0  0  0  0  0
   10.6619   -7.1706   -2.4392 H   0  0  0  0  0  0  0  0  0  0  0  0
   10.3578   -8.0366   -3.9833 H   0  0  0  0  0  0  0  0  0  0  0  0
   10.5909   -6.2555   -3.9833 H   0  0  0  0  0  0  0  0  0  0  0  0
    8.4783   -5.8792   -2.9060 H   0  0  0  0  0  0  0  0  0  0  0  0
    7.2930   -6.5340   -4.7950 H   0  0  0  0  0  0  0  0  0  0  0  0
    7.6290   -8.1500   -4.5890 H   0  0  0  0  0  0  0  0  0  0  0  0
    8.7230   -7.1470   -5.3230 H   0  0  0  0  0  0  0  0  0  0  0  0
    8.1296   -8.8473   -2.5214 H   0  0  0  0  0  0  0  0  0  0  0  0
    6.0770   -7.3115   -2.8102 H   0  0  0  0  0  0  0  0  0  0  0  0
    6.1565   -8.5015   -1.4301 H   0  0  0  0  0  0  0  0  0  0  0  0
    6.6677   -5.5092   -1.2892 H   0  0  0  0  0  0  0  0  0  0  0  0
    5.2323   -6.4340   -0.6521 H   0  0  0  0  0  0  0  0  0  0  0  0
    7.6136   -5.7677    0.6771 H   0  0  0  0  0  0  0  0  0  0  0  0
    7.4210   -5.9110    2.8680 H   0  0  0  0  0  0  0  0  0  0  0  0
    6.5961   -8.2484    4.8454 H   0  0  0  0  0  0  0  0  0  0  0  0
    5.3315   -8.0847    6.9571 H   0  0  0  0  0  0  0  0  0  0  0  0
    3.6677   -4.4060    5.8169 H   0  0  0  0  0  0  0  0  0  0  0  0
    4.8789   -4.4529    3.6682 H   0  0  0  0  0  0  0  0  0  0  0  0
    8.7044   -7.7709    1.3174 H   0  0  0  0  0  0  0  0  0  0  0  0
    7.5140   -8.7865    0.4277 H   0  0  0  0  0  0  0  0  0  0  0  0
    9.4109   -6.7430   -0.8200 H   0  0  0  0  0  0  0  0  0  0  0  0
    9.6017   -8.5588   -0.8231 H   0  0  0  0  0  0  0  0  0  0  0  0
  1  2  1  0
  2  3  1  0
  2  4  1  0
  4  5  1  0
  5  6  1  0
  6  7  1  0
  7  8  1  0
  8  9  2  0
  8 10  1  0
 10 11  1  0
 11 12  2  0
 12 13  1  0
 13 14  2  0
 14 15  1  0
 15 16  2  0
  7 17  1  0
 17 18  1  0
 18  4  1  0
 16 11  1  0
  1 19  1  0
  1 20  1  0
  1 21  1  0
  2 22  1  1
  3 23  1  0
  3 24  1  0
  3 25  1  0
  4 26  1  1
  5 27  1  0
  5 28  1  0
  6 29  1  0
  6 30  1  0
  7 31  1  6
 10 32  1  0
 12 33  1  0
 13 34  1  0
 15 35  1  0
 16 36  1  0
 17 37  1  0
 17 38  1  0
 18 39  1  0
 18 40  1  0
M  CHG  1   3   1
M  END
>  <meeko>  (4) 
{"is_sidechain": [false], "free_energy": -6.579, "intermolecular_energy": -7.995, "internal_energy": -0.447}

$$$$
1q8t_ligand
     RDKit          3D

 40 41  0  0  0  0  0  0  0  0999 V2000
    6.5850   -7.5650    1.1220 C   0  0  0  0  0  0  0  0  0  0  0  0
    5.9260   -6.8280    2.2890 C   0  0  1  0  0  0  0  0  0  0  0  0
    6.3860   -5.4080    2.2130 N   0  0  0  0  0  0  0  0  0  0  0  0
    4.3740   -6.8960    2.2550 C   0  0  2  0  0  0  0  0  0  0  0  0
    3.7070   -6.8320    3.6470 C   0  0  0  0  0  0  0  0  0  0  0  0
    3.5940   -8.1970    4.3220 C   0  0  0  0  0  0  0  0  0  0  0  0
    2.8490   -9.2320    3.4610 C   0  0  1  0  0  0  0  0  0  0  0  0
    1.5570   -9.7120    4.1270 C   0  0  0  0  0  0  0  0  0  0  0  0
    1.3150  -10.9140    4.1700 O   0  0  0  0  0  0  0  0  0  0  0  0
    0.7740   -8.7010    4.6510 N   0  0  0  0  0  0  0  0  0  0  0  0
   -0.4560   -8.8430    5.3350 C   0  0  0  0  0  0  0  0  0  0  0  0
   -0.5660   -9.1090    6.6960 C   0  0  0  0  0  0  0  0  0  0  0  0
   -1.8330   -9.2220    7.2480 C   0  0  0  0  0  0  0  0  0  0  0  0
   -2.9760   -9.0880    6.5420 N   0  0  0  0  0  0  0  0  0  0  0  0
   -2.8470   -8.8340    5.2260 C   0  0  0  0  0  0  0  0  0  0  0  0
   -1.6250   -8.7040    4.5850 C   0  0  0  0  0  0  0  0  0  0  0  0
    2.6210   -8.7580    2.0200 C   0  0  0  0  0  0  0  0  0  0  0  0
    3.9010   -8.1410    1.4650 C   0  0  0  0  0  0  0  0  0  0  0  0
    7.2704   -8.3316    1.5126 H   0  0  0  0  0  0  0  0  0  0  0  0
    5.8097   -8.0454    0.5070 H   0  0  0  0  0  0  0  0  0  0  0  0
    7.1488   -6.8481    0.5070 H   0  0  0  0  0  0  0  0  0  0  0  0
    6.2202   -7.3080    3.2340 H   0  0  0  0  0  0  0  0  0  0  0  0
    5.6950   -4.7950    1.7630 H   0  0  0  0  0  0  0  0  0  0  0  0
    7.2730   -5.3160    1.6980 H   0  0  0  0  0  0  0  0  0  0  0  0
    6.5420   -5.0170    3.1530 H   0  0  0  0  0  0  0  0  0  0  0  0
    4.0429   -5.9863    1.7326 H   0  0  0  0  0  0  0  0  0  0  0  0
    4.3055   -6.1715    4.2916 H   0  0  0  0  0  0  0  0  0  0  0  0
    2.6847   -6.4524    3.5030 H   0  0  0  0  0  0  0  0  0  0  0  0
    4.6076   -8.5733    4.5242 H   0  0  0  0  0  0  0  0  0  0  0  0
    3.0154   -8.0602    5.2475 H   0  0  0  0  0  0  0  0  0  0  0  0
    3.5138  -10.1054    3.3887 H   0  0  0  0  0  0  0  0  0  0  0  0
    1.0930   -7.7520    4.5310 H   0  0  0  0  0  0  0  0  0  0  0  0
    0.3320   -9.2270    7.3203 H   0  0  0  0  0  0  0  0  0  0  0  0
   -1.9115   -9.4333    8.3247 H   0  0  0  0  0  0  0  0  0  0  0  0
   -3.7624   -8.7235    4.6262 H   0  0  0  0  0  0  0  0  0  0  0  0
   -1.5773   -8.4953    3.5060 H   0  0  0  0  0  0  0  0  0  0  0  0
    2.3299   -9.6159    1.3961 H   0  0  0  0  0  0  0  0  0  0  0  0
    1.8222   -8.0018    2.0108 H   0  0  0  0  0  0  0  0  0  0  0  0
    4.6972   -8.8992    1.4990 H   0  0  0  0  0  0  0  0  0  0  0  0
    3.6851   -7.8121    0.4378 H   0  0  0  0  0  0  0  0  0  0  0  0
  1  2  1  0
  2  3  1  0
  2  4  1  0
  4  5  1  0
  5  6  1  0
  6  7  1  0
  7  8  1  0
  8  9  2  0
  8 10  1  0
 10 11  1  0
 11 12  2  0
 12 13  1  0
 13 14  2  0
 14 15  1  0
 15 16  2  0
  7 17  1  0
 17 18  1  0
 18  4  1  0
 16 11  1  0
  1 19  1  0
  1 20  1  0
  1 21  1  0
  2 22  1  1
  3 23  1  0
  3 24  1  0
  3 25  1  0
  4 26  1  1
  5 27  1  0
  5 28  1  0
  6 29  1  0
  6 30  1  0
  7 31  1  1
 10 32  1  0
 12 33  1  0
 13 34  1  0
 15 35  1  0
 16 36  1  0
 17 37  1  0
 17 38  1  0
 18 39  1  0
 18 40  1  0
M  CHG  1   3   1
M  END
>  <meeko>  (5) 
{"is_sidechain": [false], "free_energy": -6.398, "intermolecular_energy": -7.703, "internal_energy": -0.52}

$$$$
1q8t_ligand
     RDKit          3D

 40 41  0  0  0  0  0  0  0  0999 V2000
    7.3700   -7.7700   -2.7410 C   0  0  0  0  0  0  0  0  0  0  0  0
    8.4950   -7.6680   -1.7100 C   0  0  1  0  0  0  0  0  0  0  0  0
    9.6830   -7.1120   -2.4260 N   0  0  0  0  0  0  0  0  0  0  0  0
    8.1280   -6.7710   -0.4940 C   0  0  2  0  0  0  0  0  0  0  0  0
    8.6000   -7.3260    0.8680 C   0  0  0  0  0  0  0  0  0  0  0  0
    7.6090   -8.3060    1.4930 C   0  0  0  0  0  0  0  0  0  0  0  0
    6.2010   -7.7080    1.6600 C   0  0  1  0  0  0  0  0  0  0  0  0
    5.7820   -7.6230    3.1300 C   0  0  0  0  0  0  0  0  0  0  0  0
    6.3670   -8.3080    3.9620 O   0  0  0  0  0  0  0  0  0  0  0  0
    4.7580   -6.7300    3.3820 N   0  0  0  0  0  0  0  0  0  0  0  0
    4.1790   -6.4290    4.6370 C   0  0  0  0  0  0  0  0  0  0  0  0
    3.2770   -7.2560    5.2990 C   0  0  0  0  0  0  0  0  0  0  0  0
    2.7840   -6.8460    6.5280 C   0  0  0  0  0  0  0  0  0  0  0  0
    3.1270   -5.6870    7.1280 N   0  0  0  0  0  0  0  0  0  0  0  0
    3.9980   -4.9000    6.4700 C   0  0  0  0  0  0  0  0  0  0  0  0
    4.5460   -5.2230    5.2380 C   0  0  0  0  0  0  0  0  0  0  0  0
    6.0270   -6.3720    0.9270 C   0  0  0  0  0  0  0  0  0  0  0  0
    6.6100   -6.4690   -0.4800 C   0  0  0  0  0  0  0  0  0  0  0  0
    6.4040   -7.8576   -2.2222 H   0  0  0  0  0  0  0  0  0  0  0  0
    7.3673   -6.8684   -3.3712 H   0  0  0  0  0  0  0  0  0  0  0  0
    7.5295   -8.6574   -3.3712 H   0  0  0  0  0  0  0  0  0  0  0  0
    8.6946   -8.6651   -1.2904 H   0  0  0  0  0  0  0  0  0  0  0  0
    9.4720   -6.2320   -2.9130 H   0  0  0  0  0  0  0  0  0  0  0  0
   10.0620   -7.7740   -3.1170 H   0  0  0  0  0  0  0  0  0  0  0  0
   10.4450   -6.8950   -1.7680 H   0  0  0  0  0  0  0  0  0  0  0  0
    8.6844   -5.8321   -0.6319 H   0  0  0  0  0  0  0  0  0  0  0  0
    9.5591   -7.8442    0.7212 H   0  0  0  0  0  0  0  0  0  0  0  0
    8.6935   -6.4720    1.5550 H   0  0  0  0  0  0  0  0  0  0  0  0
    7.5390   -9.1940    0.8477 H   0  0  0  0  0  0  0  0  0  0  0  0
    7.9820   -8.5581    2.4966 H   0  0  0  0  0  0  0  0  0  0  0  0
    5.5108   -8.4114    1.1713 H   0  0  0  0  0  0  0  0  0  0  0  0
    4.3590   -6.2400    2.5940 H   0  0  0  0  0  0  0  0  0  0  0  0
    2.9624   -8.2131    4.8574 H   0  0  0  0  0  0  0  0  0  0  0  0
    2.0707   -7.5047    7.0450 H   0  0  0  0  0  0  0  0  0  0  0  0
    4.2915   -3.9475    6.9354 H   0  0  0  0  0  0  0  0  0  0  0  0
    5.2556   -4.5430    4.7439 H   0  0  0  0  0  0  0  0  0  0  0  0
    4.9561   -6.1291    0.8617 H   0  0  0  0  0  0  0  0  0  0  0  0
    6.5551   -5.5835    1.4832 H   0  0  0  0  0  0  0  0  0  0  0  0
    6.0889   -7.2738   -1.0192 H   0  0  0  0  0  0  0  0  0  0  0  0
    6.4682   -5.4894   -0.9598 H   0  0  0  0  0  0  0  0  0  0  0  0
  1  2  1  0
  2  3  1  0
  2  4  1  0
  4  5  1  0
  5  6  1  0
  6  7  1  0
  7  8  1  0
  8  9  2  0
  8 10  1  0
 10 11  1  0
 11 12  2  0
 12 13  1  0
 13 14  2  0
 14 15  1  0
 15 16  2  0
  7 17  1  0
 17 18  1  0
 18  4  1  0
 16 11  1  0
  1 19  1  0
  1 20  1  0
  1 21  1  0
  2 22  1  1
  3 23  1  0
  3 24  1  0
  3 25  1  0
  4 26  1  1
  5 27  1  0
  5 28  1  0
  6 29  1  0
  6 30  1  0
  7 31  1  1
 10 32  1  0
 12 33  1  0
 13 34  1  0
 15 35  1  0
 16 36  1  0
 17 37  1  0
 17 38  1  0
 18 39  1  0
 18 40  1  0
M  CHG  1   3   1
M  END
>  <meeko>  (6) 
{"is_sidechain": [false], "free_energy": -6.286, "intermolecular_energy": -7.561, "internal_energy": -0.527}

$$$$
1q8t_ligand
     RDKit          3D

 40 41  0  0  0  0  0  0  0  0999 V2000
    9.7290   -7.3510   -2.8870 C   0  0  0  0  0  0  0  0  0  0  0  0
    8.8460   -7.9880   -1.8130 C   0  0  1  0  0  0  0  0  0  0  0  0
    9.6950   -8.1330   -0.5920 N   0  0  0  0  0  0  0  0  0  0  0  0
    7.5760   -7.1510   -1.4910 C   0  0  2  0  0  0  0  0  0  0  0  0
    7.4650   -6.7110   -0.0140 C   0  0  0  0  0  0  0  0  0  0  0  0
    6.8080   -7.7610    0.8780 C   0  0  0  0  0  0  0  0  0  0  0  0
    5.4150   -8.1830    0.3790 C   0  0  1  0  0  0  0  0  0  0  0  0
    4.3130   -7.8320    1.3830 C   0  0  0  0  0  0  0  0  0  0  0  0
    3.6660   -6.8010    1.2280 O   0  0  0  0  0  0  0  0  0  0  0  0
    4.1390   -8.7630    2.3890 N   0  0  0  0  0  0  0  0  0  0  0  0
    3.1920   -8.7160    3.4390 C   0  0  0  0  0  0  0  0  0  0  0  0
    1.9920   -9.4200    3.4400 C   0  0  0  0  0  0  0  0  0  0  0  0
    1.1500   -9.2910    4.5340 C   0  0  0  0  0  0  0  0  0  0  0  0
    1.4240   -8.5200    5.6070 N   0  0  0  0  0  0  0  0  0  0  0  0
    2.5880   -7.8450    5.5860 C   0  0  0  0  0  0  0  0  0  0  0  0
    3.4950   -7.9100    4.5380 C   0  0  0  0  0  0  0  0  0  0  0  0
    5.1030   -7.6690   -1.0320 C   0  0  0  0  0  0  0  0  0  0  0  0
    6.3010   -7.9020   -1.9480 C   0  0  0  0  0  0  0  0  0  0  0  0
   10.5313   -6.7722   -2.4062 H   0  0  0  0  0  0  0  0  0  0  0  0
   10.1708   -8.1397   -3.5137 H   0  0  0  0  0  0  0  0  0  0  0  0
    9.1199   -6.6829   -3.5137 H   0  0  0  0  0  0  0  0  0  0  0  0
    8.4746   -8.9574   -2.1769 H   0  0  0  0  0  0  0  0  0  0  0  0
   10.0560   -9.0880   -0.4750 H   0  0  0  0  0  0  0  0  0  0  0  0
    9.1850   -7.8800    0.2660 H   0  0  0  0  0  0  0  0  0  0  0  0
   10.5230   -7.5220   -0.6400 H   0  0  0  0  0  0  0  0  0  0  0  0
    7.6749   -6.2175   -2.0645 H   0  0  0  0  0  0  0  0  0  0  0  0
    8.4769   -6.5110    0.3683 H   0  0  0  0  0  0  0  0  0  0  0  0
    6.8286   -5.8142    0.0132 H   0  0  0  0  0  0  0  0  0  0  0  0
    7.4545   -8.6504    0.9079 H   0  0  0  0  0  0  0  0  0  0  0  0
    6.6803   -7.3143    1.8751 H   0  0  0  0  0  0  0  0  0  0  0  0
    5.4381   -9.2800    0.3006 H   0  0  0  0  0  0  0  0  0  0  0  0
    4.7550   -9.5620    2.3990 H   0  0  0  0  0  0  0  0  0  0  0  0
    1.7174  -10.0645    2.5919 H   0  0  0  0  0  0  0  0  0  0  0  0
    0.2027   -9.8502    4.5268 H   0  0  0  0  0  0  0  0  0  0  0  0
    2.8340   -7.2065    6.4472 H   0  0  0  0  0  0  0  0  0  0  0  0
    4.4339   -7.3380    4.5723 H   0  0  0  0  0  0  0  0  0  0  0  0
    4.2296   -8.2059   -1.4306 H   0  0  0  0  0  0  0  0  0  0  0  0
    4.8882   -6.5912   -0.9848 H   0  0  0  0  0  0  0  0  0  0  0  0
    6.5195   -8.9799   -1.9699 H   0  0  0  0  0  0  0  0  0  0  0  0
    6.0323   -7.5136   -2.9414 H   0  0  0  0  0  0  0  0  0  0  0  0
  1  2  1  0
  2  3  1  0
  2  4  1  0
  4  5  1  0
  5  6  1  0
  6  7  1  0
  7  8  1  0
  8  9  2  0
  8 10  1  0
 10 11  1  0
 11 12  2  0
 12 13  1  0
 13 14  2  0
 14 15  1  0
 15 16  2  0
  7 17  1  0
 17 18  1  0
 18  4  1  0
 16 11  1  0
  1 19  1  0
  1 20  1  0
  1 21  1  0
  2 22  1  6
  3 23  1  0
  3 24  1  0
  3 25  1  0
  4 26  1  1
  5 27  1  0
  5 28  1  0
  6 29  1  0
  6 30  1  0
  7 31  1  1
 10 32  1  0
 12 33  1  0
 13 34  1  0
 15 35  1  0
 16 36  1  0
 17 37  1  0
 17 38  1  0
 18 39  1  0
 18 40  1  0
M  CHG  1   3   1
M  END
>  <meeko>  (7) 
{"is_sidechain": [false], "free_energy": -6.233, "intermolecular_energy": -7.787, "internal_energy": -0.238}

$$$$
1q8t_ligand
     RDKit          3D

 40 41  0  0  0  0  0  0  0  0999 V2000
    9.3230   -7.7760   -1.7630 C   0  0  0  0  0  0  0  0  0  0  0  0
    7.9600   -7.1070   -1.5770 C   0  0  1  0  0  0  0  0  0  0  0  0
    6.9290   -8.1450   -1.8810 N   0  0  0  0  0  0  0  0  0  0  0  0
    7.7490   -6.5380   -0.1470 C   0  0  2  0  0  0  0  0  0  0  0  0
    8.6740   -7.1580    0.9250 C   0  0  0  0  0  0  0  0  0  0  0  0
    8.1180   -8.4470    1.5250 C   0  0  0  0  0  0  0  0  0  0  0  0
    6.7120   -8.2710    2.1250 C   0  0  1  0  0  0  0  0  0  0  0  0
    6.6920   -8.5290    3.6340 C   0  0  0  0  0  0  0  0  0  0  0  0
    6.3840   -9.6420    4.0480 O   0  0  0  0  0  0  0  0  0  0  0  0
    7.0590   -7.4430    4.4040 N   0  0  0  0  0  0  0  0  0  0  0  0
    7.1500   -7.3900    5.8150 C   0  0  0  0  0  0  0  0  0  0  0  0
    6.1490   -6.8960    6.6440 C   0  0  0  0  0  0  0  0  0  0  0  0
    6.3610   -6.9030    8.0140 C   0  0  0  0  0  0  0  0  0  0  0  0
    7.4860   -7.3650    8.5990 N   0  0  0  0  0  0  0  0  0  0  0  0
    8.4440   -7.8360    7.7790 C   0  0  0  0  0  0  0  0  0  0  0  0
    8.3240   -7.8710    6.3980 C   0  0  0  0  0  0  0  0  0  0  0  0
    6.0680   -6.9280    1.7550 C   0  0  0  0  0  0  0  0  0  0  0  0
    6.2610   -6.6490    0.2680 C   0  0  0  0  0  0  0  0  0  0  0  0
    9.7629   -7.9919   -0.7782 H   0  0  0  0  0  0  0  0  0  0  0  0
    9.1974   -8.7148   -2.3223 H   0  0  0  0  0  0  0  0  0  0  0  0
    9.9888   -7.1023   -2.3223 H   0  0  0  0  0  0  0  0  0  0  0  0
    7.8862   -6.2406   -2.2508 H   0  0  0  0  0  0  0  0  0  0  0  0
    6.6040   -8.6350   -1.0380 H   0  0  0  0  0  0  0  0  0  0  0  0
    7.2760   -8.8520   -2.5440 H   0  0  0  0  0  0  0  0  0  0  0  0
    6.0900   -7.7230   -2.3030 H   0  0  0  0  0  0  0  0  0  0  0  0
    8.0354   -5.4772   -0.1988 H   0  0  0  0  0  0  0  0  0  0  0  0
    9.6470   -7.3790    0.4620 H   0  0  0  0  0  0  0  0  0  0  0  0
    8.7625   -6.4278    1.7429 H   0  0  0  0  0  0  0  0  0  0  0  0
    8.0689   -9.2097    0.7339 H   0  0  0  0  0  0  0  0  0  0  0  0
    8.7902   -8.7472    2.3423 H   0  0  0  0  0  0  0  0  0  0  0  0
    6.0831   -9.0453    1.6614 H   0  0  0  0  0  0  0  0  0  0  0  0
    7.2760   -6.5810    3.9260 H   0  0  0  0  0  0  0  0  0  0  0  0
    5.2099   -6.5083    6.2223 H   0  0  0  0  0  0  0  0  0  0  0  0
    5.5650   -6.5086    8.6627 H   0  0  0  0  0  0  0  0  0  0  0  0
    9.3736   -8.2141    8.2294 H   0  0  0  0  0  0  0  0  0  0  0  0
    9.1375   -8.2698    5.7742 H   0  0  0  0  0  0  0  0  0  0  0  0
    4.9923   -6.9650    1.9821 H   0  0  0  0  0  0  0  0  0  0  0  0
    6.5450   -6.1261    2.3377 H   0  0  0  0  0  0  0  0  0  0  0  0
    5.7994   -7.4677   -0.3035 H   0  0  0  0  0  0  0  0  0  0  0  0
    5.7904   -5.6778    0.0552 H   0  0  0  0  0  0  0  0  0  0  0  0
  1  2  1  0
  2  3  1  0
  2  4  1  0
  4  5  1  0
  5  6  1  0
  6  7  1  0
  7  8  1  0
  8  9  2  0
  8 10  1  0
 10 11  1  0
 11 12  2  0
 12 13  1  0
 13 14  2  0
 14 15  1  0
 15 16  2  0
  7 17  1  0
 17 18  1  0
 18  4  1  0
 16 11  1  0
  1 19  1  0
  1 20  1  0
  1 21  1  0
  2 22  1  6
  3 23  1  0
  3 24  1  0
  3 25  1  0
  4 26  1  1
  5 27  1  0
  5 28  1  0
  6 29  1  0
  6 30  1  0
  7 31  1  1
 10 32  1  0
 12 33  1  0
 13 34  1  0
 15 35  1  0
 16 36  1  0
 17 37  1  0
 17 38  1  0
 18 39  1  0
 18 40  1  0
M  CHG  1   3   1
M  END
>  <meeko>  (8) 
{"is_sidechain": [false], "free_energy": -6.154, "intermolecular_energy": -7.379, "internal_energy": -0.551}

$$$$
1q8t_ligand
     RDKit          3D

 40 41  0  0  0  0  0  0  0  0999 V2000
   -0.2300   -9.1720    5.2410 C   0  0  0  0  0  0  0  0  0  0  0  0
    1.0700   -9.5710    5.9400 C   0  0  1  0  0  0  0  0  0  0  0  0
    0.7510  -10.7610    6.7880 N   0  0  0  0  0  0  0  0  0  0  0  0
    2.2180   -9.9070    4.9490 C   0  0  2  0  0  0  0  0  0  0  0  0
    3.6000   -9.3610    5.3720 C   0  0  0  0  0  0  0  0  0  0  0  0
    3.8420   -7.9230    4.9190 C   0  0  0  0  0  0  0  0  0  0  0  0
    3.6780   -7.7380    3.4010 C   0  0  1  0  0  0  0  0  0  0  0  0
    4.9830   -7.2980    2.7300 C   0  0  0  0  0  0  0  0  0  0  0  0
    5.5070   -6.2430    3.0700 O   0  0  0  0  0  0  0  0  0  0  0  0
    5.4660   -8.1850    1.7860 N   0  0  0  0  0  0  0  0  0  0  0  0
    6.6510   -8.0550    1.0230 C   0  0  0  0  0  0  0  0  0  0  0  0
    6.6870   -7.5990   -0.2910 C   0  0  0  0  0  0  0  0  0  0  0  0
    7.9160   -7.5150   -0.9270 C   0  0  0  0  0  0  0  0  0  0  0  0
    9.0880   -7.8490   -0.3480 N   0  0  0  0  0  0  0  0  0  0  0  0
    9.0310   -8.2900    0.9220 C   0  0  0  0  0  0  0  0  0  0  0  0
    7.8510   -8.4090    1.6420 C   0  0  0  0  0  0  0  0  0  0  0  0
    3.0520   -8.9570    2.7130 C   0  0  0  0  0  0  0  0  0  0  0  0
    1.8510   -9.4490    3.5160 C   0  0  0  0  0  0  0  0  0  0  0  0
   -0.9950   -8.9372    5.9957 H   0  0  0  0  0  0  0  0  0  0  0  0
   -0.0516   -8.2873    4.6122 H   0  0  0  0  0  0  0  0  0  0  0  0
   -0.5787  -10.0045    4.6122 H   0  0  0  0  0  0  0  0  0  0  0  0
    1.4365   -8.7227    6.5366 H   0  0  0  0  0  0  0  0  0  0  0  0
    1.5820  -11.1450    7.2530 H   0  0  0  0  0  0  0  0  0  0  0  0
    0.3140  -11.5170    6.2430 H   0  0  0  0  0  0  0  0  0  0  0  0
    0.0930  -10.5140    7.5410 H   0  0  0  0  0  0  0  0  0  0  0  0
    2.3212  -11.0020    4.9662 H   0  0  0  0  0  0  0  0  0  0  0  0
    3.6701   -9.3986    6.4691 H   0  0  0  0  0  0  0  0  0  0  0  0
    4.3622   -9.9893    4.8880 H   0  0  0  0  0  0  0  0  0  0  0  0
    3.1229   -7.2676    5.4322 H   0  0  0  0  0  0  0  0  0  0  0  0
    4.8816   -7.6677    5.1722 H   0  0  0  0  0  0  0  0  0  0  0  0
    2.9583   -6.9165    3.2698 H   0  0  0  0  0  0  0  0  0  0  0  0
    4.9210   -9.0130    1.5980 H   0  0  0  0  0  0  0  0  0  0  0  0
    5.7622   -7.3119   -0.8129 H   0  0  0  0  0  0  0  0  0  0  0  0
    7.9369   -7.1544   -1.9660 H   0  0  0  0  0  0  0  0  0  0  0  0
    9.9721   -8.5718    1.4168 H   0  0  0  0  0  0  0  0  0  0  0  0
    7.8609   -8.7748    2.6793 H   0  0  0  0  0  0  0  0  0  0  0  0
    2.7236   -8.6759    1.7015 H   0  0  0  0  0  0  0  0  0  0  0  0
    3.7999   -9.7613    2.6519 H   0  0  0  0  0  0  0  0  0  0  0  0
    1.1199   -8.6302    3.5877 H   0  0  0  0  0  0  0  0  0  0  0  0
    1.4432  -10.3241    2.9888 H   0  0  0  0  0  0  0  0  0  0  0  0
  1  2  1  0
  2  3  1  0
  2  4  1  0
  4  5  1  0
  5  6  1  0
  6  7  1  0
  7  8  1  0
  8  9  2  0
  8 10  1  0
 10 11  1  0
 11 12  2  0
 12 13  1  0
 13 14  2  0
 14 15  1  0
 15 16  2  0
  7 17  1  0
 17 18  1  0
 18  4  1  0
 16 11  1  0
  1 19  1  0
  1 20  1  0
  1 21  1  0
  2 22  1  1
  3 23  1  0
  3 24  1  0
  3 25  1  0
  4 26  1  1
  5 27  1  0
  5 28  1  0
  6 29  1  0
  6 30  1  0
  7 31  1  6
 10 32  1  0
 12 33  1  0
 13 34  1  0
 15 35  1  0
 16 36  1  0
 17 37  1  0
 17 38  1  0
 18 39  1  0
 18 40  1  0
M  CHG  1   3   1
M  END
>  <meeko>  (9) 
{"is_sidechain": [false], "free_energy": -6.103, "intermolecular_energy": -7.336, "internal_energy": -0.533}

$$$$
