
     RDKit          3D

 25 28  0  0  0  0  0  0  0  0999 V2000
   10.7510   -1.8780   -7.0800 C   0  0  0  0  0  0  0  0  0  0  0  0
   10.4290   -2.6660   -5.8320 C   0  0  0  0  0  0  0  0  0  0  0  0
   10.3720   -4.0470   -5.7010 C   0  0  0  0  0  0  0  0  0  0  0  0
   10.0430   -4.2720   -4.3800 C   0  0  0  0  0  0  0  0  0  0  0  0
    9.8250   -5.4300   -3.6670 N   0  0  0  0  0  0  0  0  0  0  0  0
    9.7810   -6.6940   -4.1840 C   0  0  0  0  0  0  0  0  0  0  0  0
    9.9840   -6.9270   -5.3740 O   0  0  0  0  0  0  0  0  0  0  0  0
    9.4680   -7.7830   -3.2570 C   0  0  0  0  0  0  0  0  0  0  0  0
    9.2970   -9.1080   -3.5780 C   0  0  0  0  0  0  0  0  0  0  0  0
    8.9850   -9.7950   -2.4950 N   0  0  0  0  0  0  0  0  0  0  0  0
    8.9590   -8.9250   -1.4680 N   0  0  0  0  0  0  0  0  0  0  0  0
    8.6760   -9.1640   -0.1620 C   0  0  0  0  0  0  0  0  0  0  0  0
    8.6960   -8.0860    0.7240 C   0  0  0  0  0  0  0  0  0  0  0  0
    9.0050   -6.8250    0.2330 C   0  0  0  0  0  0  0  0  0  0  0  0
    9.2840   -6.6050   -1.0690 N   0  0  0  0  0  0  0  0  0  0  0  0
    9.2480   -7.6850   -1.8900 C   0  0  0  0  0  0  0  0  0  0  0  0
    9.9300   -3.0660   -3.7860 N   0  0  0  0  0  0  0  0  0  0  0  0
    9.6000   -2.8470   -2.4550 C   0  0  0  0  0  0  0  0  0  0  0  0
   10.5670   -2.3850   -1.5760 C   0  0  0  0  0  0  0  0  0  0  0  0
   10.2270   -2.1780   -0.2280 C   0  0  0  0  0  0  0  0  0  0  0  0
    8.9210   -2.4490    0.2070 C   0  0  0  0  0  0  0  0  0  0  0  0
    7.9790   -2.9210   -0.6940 C   0  0  0  0  0  0  0  0  0  0  0  0
    6.3410   -3.2880   -0.1790 Cl  0  0  0  0  0  0  0  0  0  0  0  0
    8.3110   -3.1210   -2.0270 C   0  0  0  0  0  0  0  0  0  0  0  0
   10.1670   -2.0900   -4.6740 N   0  0  0  0  0  0  0  0  0  0  0  0
  2  1  1  0
  3  2  1  0
  4  3  2  0
  5  4  1  0
  6  5  1  0
  7  6  2  0
  8  6  1  0
  9  8  1  0
 10  9  2  0
 11 10  1  0
 12 11  1  0
 13 12  2  0
 14 13  1  0
 15 14  2  0
 16 15  1  0
 16 11  1  0
 16  8  2  0
 17  4  1  0
 18 17  1  0
 19 18  2  0
 20 19  1  0
 21 20  2  0
 22 21  1  0
 23 22  1  0
 24 22  2  0
 24 18  1  0
 25  2  2  0
 25 17  1  0
M  END
$$$$
