3wz8_ligand
     RDKit          3D

 58 61  0  0  0  0  0  0  0  0999 V2000
   12.7060   -1.4690   -1.6550 O   0  0  0  0  0  0  0  0  0  0  0  0
   11.7220   -1.9710   -2.1870 C   0  0  0  0  0  0  0  0  0  0  0  0
   11.8790   -3.1980   -3.0620 C   0  0  0  0  0  0  0  0  0  0  0  0
   10.9990   -4.3270   -2.5410 C   0  0  0  0  0  0  0  0  0  0  0  0
   11.2350   -5.5510   -3.3040 N   0  0  0  0  0  0  0  0  0  0  0  0
   12.4960   -6.1570   -3.2600 C   0  0  0  0  0  0  0  0  0  0  0  0
   13.3550   -6.2450   -4.3620 C   0  0  0  0  0  0  0  0  0  0  0  0
   14.6350   -6.7990   -4.2410 C   0  0  0  0  0  0  0  0  0  0  0  0
   15.0880   -7.2500   -3.0060 C   0  0  0  0  0  0  0  0  0  0  0  0
   14.2670   -7.1340   -1.8890 C   0  0  0  0  0  0  0  0  0  0  0  0
   12.9900   -6.5800   -2.0170 C   0  0  0  0  0  0  0  0  0  0  0  0
   10.4010   -1.5800   -2.0630 N   0  0  0  0  0  0  0  0  0  0  0  0
    9.8860   -0.5420   -1.2970 C   0  0  0  0  0  0  0  0  0  0  0  0
    9.8810    1.0540   -1.8660 S   0  0  0  0  0  0  0  0  0  0  0  0
    9.1880    1.6380   -0.4280 C   0  0  0  0  0  0  0  0  0  0  0  0
    8.9450    0.6310    0.4850 C   0  0  0  0  0  0  0  0  0  0  0  0
    8.4010    0.9860    1.7860 C   0  0  0  0  0  0  0  0  0  0  0  0
    7.2730    1.8120    1.8750 C   0  0  0  0  0  0  0  0  0  0  0  0
    6.7330    2.1240    3.1240 C   0  0  0  0  0  0  0  0  0  0  0  0
    7.3170    1.6140    4.2840 C   0  0  0  0  0  0  0  0  0  0  0  0
    8.4430    0.7950    4.1990 C   0  0  0  0  0  0  0  0  0  0  0  0
    8.9850    0.4800    2.9530 C   0  0  0  0  0  0  0  0  0  0  0  0
    9.3330   -0.6720   -0.0240 C   0  0  0  0  0  0  0  0  0  0  0  0
    9.2240   -1.9960    0.6150 C   0  0  0  0  0  0  0  0  0  0  0  0
   10.2300   -2.6330    0.9350 O   0  0  0  0  0  0  0  0  0  0  0  0
    7.9590   -2.4980    0.7920 N   0  0  0  0  0  0  0  0  0  0  0  0
    7.7190   -3.8410    1.2620 C   0  0  0  0  0  0  0  0  0  0  0  0
    7.4530   -3.8400    2.7450 C   0  0  0  0  0  0  0  0  0  0  0  0
    7.1260   -2.6460    3.4040 C   0  0  0  0  0  0  0  0  0  0  0  0
    6.9070   -2.6350    4.7820 C   0  0  0  0  0  0  0  0  0  0  0  0
    7.0200   -3.8150    5.5150 C   0  0  0  0  0  0  0  0  0  0  0  0
    7.3560   -5.0050    4.8730 C   0  0  0  0  0  0  0  0  0  0  0  0
    7.5760   -5.0190    3.4950 C   0  0  0  0  0  0  0  0  0  0  0  0
   11.5824   -2.9510   -4.0920 H   0  0  0  0  0  0  0  0  0  0  0  0
   12.9300   -3.5221   -3.0433 H   0  0  0  0  0  0  0  0  0  0  0  0
   11.2330   -4.5095   -1.4818 H   0  0  0  0  0  0  0  0  0  0  0  0
    9.9438   -4.0363   -2.6506 H   0  0  0  0  0  0  0  0  0  0  0  0
   10.8880   -5.4900   -4.2650 H   0  0  0  0  0  0  0  0  0  0  0  0
   13.0181   -5.8721   -5.3405 H   0  0  0  0  0  0  0  0  0  0  0  0
   15.2843   -6.8778   -5.1254 H   0  0  0  0  0  0  0  0  0  0  0  0
   16.0893   -7.6957   -2.9129 H   0  0  0  0  0  0  0  0  0  0  0  0
   14.6222   -7.4778   -0.9063 H   0  0  0  0  0  0  0  0  0  0  0  0
   12.3582   -6.4733   -1.1229 H   0  0  0  0  0  0  0  0  0  0  0  0
    9.6890   -2.1150   -2.5620 H   0  0  0  0  0  0  0  0  0  0  0  0
    8.9590    2.6983   -0.2454 H   0  0  0  0  0  0  0  0  0  0  0  0
    6.8128    2.2148    0.9607 H   0  0  0  0  0  0  0  0  0  0  0  0
    5.8469    2.7721    3.1936 H   0  0  0  0  0  0  0  0  0  0  0  0
    6.8887    1.8582    5.2673 H   0  0  0  0  0  0  0  0  0  0  0  0
    8.9038    0.3973    5.1152 H   0  0  0  0  0  0  0  0  0  0  0  0
    9.8723   -0.1668    2.8875 H   0  0  0  0  0  0  0  0  0  0  0  0
    7.1810   -2.0380    0.3420 H   0  0  0  0  0  0  0  0  0  0  0  0
    6.8464   -4.2577    0.7377 H   0  0  0  0  0  0  0  0  0  0  0  0
    8.6100   -4.4537    1.0602 H   0  0  0  0  0  0  0  0  0  0  0  0
    7.0415   -1.7113    2.8303 H   0  0  0  0  0  0  0  0  0  0  0  0
    6.6452   -1.6950    5.2898 H   0  0  0  0  0  0  0  0  0  0  0  0
    6.8438   -3.8068    6.6008 H   0  0  0  0  0  0  0  0  0  0  0  0
    7.4480   -5.9350    5.4532 H   0  0  0  0  0  0  0  0  0  0  0  0
    7.8474   -5.9600    2.9941 H   0  0  0  0  0  0  0  0  0  0  0  0
  1  2  2  0
  2  3  1  0
  3  4  1  0
  4  5  1  0
  5  6  1  0
  6  7  2  0
  7  8  1  0
  8  9  2  0
  9 10  1  0
 10 11  2  0
  2 12  1  0
 12 13  1  0
 13 14  1  0
 14 15  1  0
 15 16  2  0
 16 17  1  0
 17 18  2  0
 18 19  1  0
 19 20  2  0
 20 21  1  0
 21 22  2  0
 16 23  1  0
 23 24  1  0
 24 25  2  0
 24 26  1  0
 26 27  1  0
 27 28  1  0
 28 29  2  0
 29 30  1  0
 30 31  2  0
 31 32  1  0
 32 33  2  0
 11  6  1  0
 23 13  2  0
 33 28  1  0
 22 17  1  0
  3 34  1  0
  3 35  1  0
  4 36  1  0
  4 37  1  0
  5 38  1  0
  7 39  1  0
  8 40  1  0
  9 41  1  0
 10 42  1  0
 11 43  1  0
 12 44  1  0
 15 45  1  0
 18 46  1  0
 19 47  1  0
 20 48  1  0
 21 49  1  0
 22 50  1  0
 26 51  1  0
 27 52  1  0
 27 53  1  0
 29 54  1  0
 30 55  1  0
 31 56  1  0
 32 57  1  0
 33 58  1  0
M  END
>  <meeko>  (1) 
{"is_sidechain": [false], "free_energy": -9.168, "intermolecular_energy": -13.992, "internal_energy": -2.213}

$$$$
3wz8_ligand
     RDKit          3D

 58 61  0  0  0  0  0  0  0  0999 V2000
    8.1010   -1.7930    5.0480 O   0  0  0  0  0  0  0  0  0  0  0  0
    7.0060   -1.2540    4.9200 C   0  0  0  0  0  0  0  0  0  0  0  0
    6.8900    0.0480    4.1540 C   0  0  0  0  0  0  0  0  0  0  0  0
    8.0820    0.9440    4.4650 C   0  0  0  0  0  0  0  0  0  0  0  0
    9.2500    0.5220    3.6950 N   0  0  0  0  0  0  0  0  0  0  0  0
    9.7970    1.3910    2.7430 C   0  0  0  0  0  0  0  0  0  0  0  0
   11.1710    1.6140    2.5920 C   0  0  0  0  0  0  0  0  0  0  0  0
   11.6650    2.4390    1.5750 C   0  0  0  0  0  0  0  0  0  0  0  0
   10.7900    3.0350    0.6720 C   0  0  0  0  0  0  0  0  0  0  0  0
    9.4240    2.7940    0.7770 C   0  0  0  0  0  0  0  0  0  0  0  0
    8.9390    1.9680    1.7950 C   0  0  0  0  0  0  0  0  0  0  0  0
    5.7800   -1.7130    5.3650 N   0  0  0  0  0  0  0  0  0  0  0  0
    5.5060   -2.8930    6.0440 C   0  0  0  0  0  0  0  0  0  0  0  0
    6.2780   -4.3450    5.6350 S   0  0  0  0  0  0  0  0  0  0  0  0
    5.4120   -5.2170    6.8090 C   0  0  0  0  0  0  0  0  0  0  0  0
    4.5450   -4.4160    7.5260 C   0  0  0  0  0  0  0  0  0  0  0  0
    3.6960   -5.0340    8.5330 C   0  0  0  0  0  0  0  0  0  0  0  0
    4.2250   -5.3770    9.7840 C   0  0  0  0  0  0  0  0  0  0  0  0
    3.4000   -5.9390   10.7590 C   0  0  0  0  0  0  0  0  0  0  0  0
    2.0500   -6.1600   10.4890 C   0  0  0  0  0  0  0  0  0  0  0  0
    1.5220   -5.8230    9.2430 C   0  0  0  0  0  0  0  0  0  0  0  0
    2.3410   -5.2610    8.2650 C   0  0  0  0  0  0  0  0  0  0  0  0
    4.6050   -3.0310    7.0990 C   0  0  0  0  0  0  0  0  0  0  0  0
    3.8670   -1.8610    7.6110 C   0  0  0  0  0  0  0  0  0  0  0  0
    3.1910   -1.1560    6.8600 O   0  0  0  0  0  0  0  0  0  0  0  0
    4.0060   -1.5760    8.9470 N   0  0  0  0  0  0  0  0  0  0  0  0
    3.4640   -0.3780    9.5410 C   0  0  0  0  0  0  0  0  0  0  0  0
    2.5900   -0.7230   10.7190 C   0  0  0  0  0  0  0  0  0  0  0  0
    1.7020    0.2270   11.2450 C   0  0  0  0  0  0  0  0  0  0  0  0
    0.9130   -0.0800   12.3530 C   0  0  0  0  0  0  0  0  0  0  0  0
    1.0080   -1.3350   12.9510 C   0  0  0  0  0  0  0  0  0  0  0  0
    1.8930   -2.2840   12.4440 C   0  0  0  0  0  0  0  0  0  0  0  0
    2.6850   -1.9790   11.3360 C   0  0  0  0  0  0  0  0  0  0  0  0
    6.8663   -0.1651    3.0751 H   0  0  0  0  0  0  0  0  0  0  0  0
    5.9646    0.5617    4.4535 H   0  0  0  0  0  0  0  0  0  0  0  0
    7.8322    1.9831    4.2047 H   0  0  0  0  0  0  0  0  0  0  0  0
    8.3150    0.8690    5.5374 H   0  0  0  0  0  0  0  0  0  0  0  0
    9.1550   -0.4250    3.3180 H   0  0  0  0  0  0  0  0  0  0  0  0
   11.8754    1.1318    3.2857 H   0  0  0  0  0  0  0  0  0  0  0  0
   12.7472    2.6166    1.4894 H   0  0  0  0  0  0  0  0  0  0  0  0
   11.1763    3.6930   -0.1204 H   0  0  0  0  0  0  0  0  0  0  0  0
    8.7268    3.2526    0.0603 H   0  0  0  0  0  0  0  0  0  0  0  0
    7.8594    1.7657    1.8541 H   0  0  0  0  0  0  0  0  0  0  0  0
    4.9510   -1.1520    5.1640 H   0  0  0  0  0  0  0  0  0  0  0  0
    5.5289   -6.2975    6.9786 H   0  0  0  0  0  0  0  0  0  0  0  0
    5.2900   -5.2034    9.9976 H   0  0  0  0  0  0  0  0  0  0  0  0
    3.8150   -6.2079   11.7416 H   0  0  0  0  0  0  0  0  0  0  0  0
    1.4006   -6.6007   11.2598 H   0  0  0  0  0  0  0  0  0  0  0  0
    0.4573   -6.0010    9.0316 H   0  0  0  0  0  0  0  0  0  0  0  0
    1.9226   -4.9960    7.2828 H   0  0  0  0  0  0  0  0  0  0  0  0
    4.7160   -2.0550    9.4800 H   0  0  0  0  0  0  0  0  0  0  0  0
    4.2904    0.2645    9.8790 H   0  0  0  0  0  0  0  0  0  0  0  0
    2.8575    0.1490    8.7898 H   0  0  0  0  0  0  0  0  0  0  0  0
    1.6275    1.2212   10.7801 H   0  0  0  0  0  0  0  0  0  0  0  0
    0.2151    0.6691   12.7553 H   0  0  0  0  0  0  0  0  0  0  0  0
    0.3838   -1.5766   13.8240 H   0  0  0  0  0  0  0  0  0  0  0  0
    1.9676   -3.2742   12.9172 H   0  0  0  0  0  0  0  0  0  0  0  0
    3.3883   -2.7285   10.9441 H   0  0  0  0  0  0  0  0  0  0  0  0
  1  2  2  0
  2  3  1  0
  3  4  1  0
  4  5  1  0
  5  6  1  0
  6  7  2  0
  7  8  1  0
  8  9  2  0
  9 10  1  0
 10 11  2  0
  2 12  1  0
 12 13  1  0
 13 14  1  0
 14 15  1  0
 15 16  2  0
 16 17  1  0
 17 18  2  0
 18 19  1  0
 19 20  2  0
 20 21  1  0
 21 22  2  0
 16 23  1  0
 23 24  1  0
 24 25  2  0
 24 26  1  0
 26 27  1  0
 27 28  1  0
 28 29  2  0
 29 30  1  0
 30 31  2  0
 31 32  1  0
 32 33  2  0
 11  6  1  0
 23 13  2  0
 33 28  1  0
 22 17  1  0
  3 34  1  0
  3 35  1  0
  4 36  1  0
  4 37  1  0
  5 38  1  0
  7 39  1  0
  8 40  1  0
  9 41  1  0
 10 42  1  0
 11 43  1  0
 12 44  1  0
 15 45  1  0
 18 46  1  0
 19 47  1  0
 20 48  1  0
 21 49  1  0
 22 50  1  0
 26 51  1  0
 27 52  1  0
 27 53  1  0
 29 54  1  0
 30 55  1  0
 31 56  1  0
 32 57  1  0
 33 58  1  0
M  END
>  <meeko>  (2) 
{"is_sidechain": [false], "free_energy": -9.147, "intermolecular_energy": -14.287, "internal_energy": -1.886}

$$$$
3wz8_ligand
     RDKit          3D

 58 61  0  0  0  0  0  0  0  0999 V2000
    3.1270   -4.3050    6.6900 O   0  0  0  0  0  0  0  0  0  0  0  0
    3.8430   -3.5600    7.3500 C   0  0  0  0  0  0  0  0  0  0  0  0
    3.3230   -2.9620    8.6420 C   0  0  0  0  0  0  0  0  0  0  0  0
    4.0360   -1.6480    8.9320 C   0  0  0  0  0  0  0  0  0  0  0  0
    4.1770   -1.4520   10.3730 N   0  0  0  0  0  0  0  0  0  0  0  0
    3.0890   -0.9730   11.1120 C   0  0  0  0  0  0  0  0  0  0  0  0
    2.4780    0.2650   10.8820 C   0  0  0  0  0  0  0  0  0  0  0  0
    1.3470    0.6610   11.6060 C   0  0  0  0  0  0  0  0  0  0  0  0
    0.7910   -0.1910   12.5550 C   0  0  0  0  0  0  0  0  0  0  0  0
    1.3570   -1.4430   12.7700 C   0  0  0  0  0  0  0  0  0  0  0  0
    2.4860   -1.8310   12.0440 C   0  0  0  0  0  0  0  0  0  0  0  0
    5.1520   -3.1960    7.0920 N   0  0  0  0  0  0  0  0  0  0  0  0
    5.9580   -3.6020    6.0370 C   0  0  0  0  0  0  0  0  0  0  0  0
    6.4770   -5.2090    5.8930 S   0  0  0  0  0  0  0  0  0  0  0  0
    7.3740   -4.8680    4.4900 C   0  0  0  0  0  0  0  0  0  0  0  0
    7.2770   -3.5420    4.1140 C   0  0  0  0  0  0  0  0  0  0  0  0
    8.0340   -3.0880    2.9580 C   0  0  0  0  0  0  0  0  0  0  0  0
    9.4300   -3.2080    2.9410 C   0  0  0  0  0  0  0  0  0  0  0  0
   10.1510   -2.8020    1.8170 C   0  0  0  0  0  0  0  0  0  0  0  0
    9.4820   -2.2770    0.7100 C   0  0  0  0  0  0  0  0  0  0  0  0
    8.0930   -2.1530    0.7270 C   0  0  0  0  0  0  0  0  0  0  0  0
    7.3680   -2.5570    1.8470 C   0  0  0  0  0  0  0  0  0  0  0  0
    6.4230   -2.7830    5.0090 C   0  0  0  0  0  0  0  0  0  0  0  0
    6.0410   -1.3600    4.9550 C   0  0  0  0  0  0  0  0  0  0  0  0
    4.8640   -1.0120    5.0670 O   0  0  0  0  0  0  0  0  0  0  0  0
    7.0490   -0.4560    4.7310 N   0  0  0  0  0  0  0  0  0  0  0  0
    6.7920    0.9470    4.5040 C   0  0  0  0  0  0  0  0  0  0  0  0
    7.5930    1.4450    3.3290 C   0  0  0  0  0  0  0  0  0  0  0  0
    8.8050    0.8280    2.9860 C   0  0  0  0  0  0  0  0  0  0  0  0
    9.5640    1.3050    1.9170 C   0  0  0  0  0  0  0  0  0  0  0  0
    9.1220    2.4050    1.1840 C   0  0  0  0  0  0  0  0  0  0  0  0
    7.9250    3.0320    1.5210 C   0  0  0  0  0  0  0  0  0  0  0  0
    7.1640    2.5580    2.5920 C   0  0  0  0  0  0  0  0  0  0  0  0
    2.2426   -2.7774    8.5490 H   0  0  0  0  0  0  0  0  0  0  0  0
    3.5118   -3.6649    9.4668 H   0  0  0  0  0  0  0  0  0  0  0  0
    5.0339   -1.6674    8.4695 H   0  0  0  0  0  0  0  0  0  0  0  0
    3.4424   -0.8207    8.5159 H   0  0  0  0  0  0  0  0  0  0  0  0
    5.0380   -0.9570   10.6220 H   0  0  0  0  0  0  0  0  0  0  0  0
    2.8939    0.9390   10.1186 H   0  0  0  0  0  0  0  0  0  0  0  0
    0.8969    1.6481   11.4241 H   0  0  0  0  0  0  0  0  0  0  0  0
   -0.0911    0.1238   13.1319 H   0  0  0  0  0  0  0  0  0  0  0  0
    0.9165   -2.1268   13.5105 H   0  0  0  0  0  0  0  0  0  0  0  0
    2.9118   -2.8321   12.2069 H   0  0  0  0  0  0  0  0  0  0  0  0
    5.6200   -2.5740    7.7510 H   0  0  0  0  0  0  0  0  0  0  0  0
    7.9647   -5.6179    3.9434 H   0  0  0  0  0  0  0  0  0  0  0  0
    9.9574   -3.6220    3.8131 H   0  0  0  0  0  0  0  0  0  0  0  0
   11.2469   -2.8958    1.8035 H   0  0  0  0  0  0  0  0  0  0  0  0
   10.0510   -1.9608   -0.1767 H   0  0  0  0  0  0  0  0  0  0  0  0
    7.5685   -1.7356   -0.1451 H   0  0  0  0  0  0  0  0  0  0  0  0
    6.2725   -2.4586    1.8578 H   0  0  0  0  0  0  0  0  0  0  0  0
    7.9580   -0.7930    4.4510 H   0  0  0  0  0  0  0  0  0  0  0  0
    5.7208    1.0906    4.2993 H   0  0  0  0  0  0  0  0  0  0  0  0
    7.0850    1.5128    5.4007 H   0  0  0  0  0  0  0  0  0  0  0  0
    9.1596   -0.0381    3.5640 H   0  0  0  0  0  0  0  0  0  0  0  0
   10.5115    0.8128    1.6526 H   0  0  0  0  0  0  0  0  0  0  0  0
    9.7190    2.7781    0.3388 H   0  0  0  0  0  0  0  0  0  0  0  0
    7.5785    3.9015    0.9431 H   0  0  0  0  0  0  0  0  0  0  0  0
    6.2227    3.0608    2.8588 H   0  0  0  0  0  0  0  0  0  0  0  0
  1  2  2  0
  2  3  1  0
  3  4  1  0
  4  5  1  0
  5  6  1  0
  6  7  2  0
  7  8  1  0
  8  9  2  0
  9 10  1  0
 10 11  2  0
  2 12  1  0
 12 13  1  0
 13 14  1  0
 14 15  1  0
 15 16  2  0
 16 17  1  0
 17 18  2  0
 18 19  1  0
 19 20  2  0
 20 21  1  0
 21 22  2  0
 16 23  1  0
 23 24  1  0
 24 25  2  0
 24 26  1  0
 26 27  1  0
 27 28  1  0
 28 29  2  0
 29 30  1  0
 30 31  2  0
 31 32  1  0
 32 33  2  0
 11  6  1  0
 23 13  2  0
 33 28  1  0
 22 17  1  0
  3 34  1  0
  3 35  1  0
  4 36  1  0
  4 37  1  0
  5 38  1  0
  7 39  1  0
  8 40  1  0
  9 41  1  0
 10 42  1  0
 11 43  1  0
 12 44  1  0
 15 45  1  0
 18 46  1  0
 19 47  1  0
 20 48  1  0
 21 49  1  0
 22 50  1  0
 26 51  1  0
 27 52  1  0
 27 53  1  0
 29 54  1  0
 30 55  1  0
 31 56  1  0
 32 57  1  0
 33 58  1  0
M  END
>  <meeko>  (3) 
{"is_sidechain": [false], "free_energy": -9.097, "intermolecular_energy": -13.697, "internal_energy": -2.398}

$$$$
3wz8_ligand
     RDKit          3D

 58 61  0  0  0  0  0  0  0  0999 V2000
    7.9530   -2.5450    0.9970 O   0  0  0  0  0  0  0  0  0  0  0  0
    8.9470   -2.4750    1.7120 C   0  0  0  0  0  0  0  0  0  0  0  0
   10.2810   -2.0740    1.1150 C   0  0  0  0  0  0  0  0  0  0  0  0
   10.3210   -2.4420   -0.3630 C   0  0  0  0  0  0  0  0  0  0  0  0
    9.8930   -3.8260   -0.5550 N   0  0  0  0  0  0  0  0  0  0  0  0
   10.7560   -4.7330   -1.1810 C   0  0  0  0  0  0  0  0  0  0  0  0
   11.5360   -5.6690   -0.4900 C   0  0  0  0  0  0  0  0  0  0  0  0
   12.3270   -6.5990   -1.1730 C   0  0  0  0  0  0  0  0  0  0  0  0
   12.3310   -6.6270   -2.5640 C   0  0  0  0  0  0  0  0  0  0  0  0
   11.5330   -5.7340   -3.2710 C   0  0  0  0  0  0  0  0  0  0  0  0
   10.7440   -4.8070   -2.5820 C   0  0  0  0  0  0  0  0  0  0  0  0
    9.0230   -2.6810    3.0770 N   0  0  0  0  0  0  0  0  0  0  0  0
    7.9920   -2.9970    3.9520 C   0  0  0  0  0  0  0  0  0  0  0  0
    7.5750   -4.6080    4.2770 S   0  0  0  0  0  0  0  0  0  0  0  0
    6.3070   -4.1440    5.3090 C   0  0  0  0  0  0  0  0  0  0  0  0
    6.1980   -2.7730    5.4250 C   0  0  0  0  0  0  0  0  0  0  0  0
    5.1220   -2.2250    6.2370 C   0  0  0  0  0  0  0  0  0  0  0  0
    5.0890   -2.4650    7.6160 C   0  0  0  0  0  0  0  0  0  0  0  0
    4.0740   -1.9110    8.3970 C   0  0  0  0  0  0  0  0  0  0  0  0
    3.0920   -1.1170    7.8040 C   0  0  0  0  0  0  0  0  0  0  0  0
    3.1200   -0.8790    6.4300 C   0  0  0  0  0  0  0  0  0  0  0  0
    4.1320   -1.4310    5.6450 C   0  0  0  0  0  0  0  0  0  0  0  0
    7.2050   -2.0780    4.6440 C   0  0  0  0  0  0  0  0  0  0  0  0
    7.4500   -0.6300    4.5080 C   0  0  0  0  0  0  0  0  0  0  0  0
    8.4500   -0.1050    4.9990 O   0  0  0  0  0  0  0  0  0  0  0  0
    6.4920    0.1010    3.8500 N   0  0  0  0  0  0  0  0  0  0  0  0
    6.5340    1.5430    3.7820 C   0  0  0  0  0  0  0  0  0  0  0  0
    7.2630    1.9890    2.5410 C   0  0  0  0  0  0  0  0  0  0  0  0
    7.2950    3.3470    2.1900 C   0  0  0  0  0  0  0  0  0  0  0  0
    7.9440    3.7610    1.0260 C   0  0  0  0  0  0  0  0  0  0  0  0
    8.5610    2.8230    0.2010 C   0  0  0  0  0  0  0  0  0  0  0  0
    8.5270    1.4710    0.5340 C   0  0  0  0  0  0  0  0  0  0  0  0
    7.8770    1.0530    1.6960 C   0  0  0  0  0  0  0  0  0  0  0  0
   10.4174   -0.9879    1.2240 H   0  0  0  0  0  0  0  0  0  0  0  0
   11.0872   -2.6054    1.6418 H   0  0  0  0  0  0  0  0  0  0  0  0
    9.6486   -1.7739   -0.9212 H   0  0  0  0  0  0  0  0  0  0  0  0
   11.3522   -2.3332   -0.7301 H   0  0  0  0  0  0  0  0  0  0  0  0
    8.9450   -3.8970   -0.9350 H   0  0  0  0  0  0  0  0  0  0  0  0
   11.5264   -5.6729    0.6100 H   0  0  0  0  0  0  0  0  0  0  0  0
   12.9477   -7.3104   -0.6085 H   0  0  0  0  0  0  0  0  0  0  0  0
   12.9614   -7.3509   -3.1012 H   0  0  0  0  0  0  0  0  0  0  0  0
   11.5223   -5.7566   -4.3707 H   0  0  0  0  0  0  0  0  0  0  0  0
   10.0998   -4.1208   -3.1513 H   0  0  0  0  0  0  0  0  0  0  0  0
    9.9290   -2.5680    3.5340 H   0  0  0  0  0  0  0  0  0  0  0  0
    5.6474   -4.8562    5.8263 H   0  0  0  0  0  0  0  0  0  0  0  0
    5.8635   -3.0905    8.0839 H   0  0  0  0  0  0  0  0  0  0  0  0
    4.0481   -2.1003    9.4803 H   0  0  0  0  0  0  0  0  0  0  0  0
    2.2943   -0.6779    8.4211 H   0  0  0  0  0  0  0  0  0  0  0  0
    2.3427   -0.2550    5.9648 H   0  0  0  0  0  0  0  0  0  0  0  0
    4.1525   -1.2428    4.5614 H   0  0  0  0  0  0  0  0  0  0  0  0
    5.6050   -0.3290    3.6390 H   0  0  0  0  0  0  0  0  0  0  0  0
    5.5064    1.9349    3.7594 H   0  0  0  0  0  0  0  0  0  0  0  0
    7.0654    1.9267    4.6654 H   0  0  0  0  0  0  0  0  0  0  0  0
    6.8054    4.0902    2.8365 H   0  0  0  0  0  0  0  0  0  0  0  0
    7.9684    4.8280    0.7598 H   0  0  0  0  0  0  0  0  0  0  0  0
    9.0756    3.1506   -0.7144 H   0  0  0  0  0  0  0  0  0  0  0  0
    9.0131    0.7318   -0.1197 H   0  0  0  0  0  0  0  0  0  0  0  0
    7.8460   -0.0167    1.9507 H   0  0  0  0  0  0  0  0  0  0  0  0
  1  2  2  0
  2  3  1  0
  3  4  1  0
  4  5  1  0
  5  6  1  0
  6  7  2  0
  7  8  1  0
  8  9  2  0
  9 10  1  0
 10 11  2  0
  2 12  1  0
 12 13  1  0
 13 14  1  0
 14 15  1  0
 15 16  2  0
 16 17  1  0
 17 18  2  0
 18 19  1  0
 19 20  2  0
 20 21  1  0
 21 22  2  0
 16 23  1  0
 23 24  1  0
 24 25  2  0
 24 26  1  0
 26 27  1  0
 27 28  1  0
 28 29  2  0
 29 30  1  0
 30 31  2  0
 31 32  1  0
 32 33  2  0
 11  6  1  0
 23 13  2  0
 33 28  1  0
 22 17  1  0
  3 34  1  0
  3 35  1  0
  4 36  1  0
  4 37  1  0
  5 38  1  0
  7 39  1  0
  8 40  1  0
  9 41  1  0
 10 42  1  0
 11 43  1  0
 12 44  1  0
 15 45  1  0
 18 46  1  0
 19 47  1  0
 20 48  1  0
 21 49  1  0
 22 50  1  0
 26 51  1  0
 27 52  1  0
 27 53  1  0
 29 54  1  0
 30 55  1  0
 31 56  1  0
 32 57  1  0
 33 58  1  0
M  END
>  <meeko>  (4) 
{"is_sidechain": [false], "free_energy": -8.948, "intermolecular_energy": -14.11, "internal_energy": -1.758}

$$$$
3wz8_ligand
     RDKit          3D

 58 61  0  0  0  0  0  0  0  0999 V2000
    9.0930   -3.6220    0.7170 O   0  0  0  0  0  0  0  0  0  0  0  0
    9.8560   -2.9710    1.4250 C   0  0  0  0  0  0  0  0  0  0  0  0
   11.1350   -2.4090    0.8390 C   0  0  0  0  0  0  0  0  0  0  0  0
   11.1640   -2.6380   -0.6670 C   0  0  0  0  0  0  0  0  0  0  0  0
   10.1560   -1.8110   -1.3270 N   0  0  0  0  0  0  0  0  0  0  0  0
   10.5050   -0.5350   -1.7840 C   0  0  0  0  0  0  0  0  0  0  0  0
    9.6210    0.5510   -1.8090 C   0  0  0  0  0  0  0  0  0  0  0  0
   10.0460    1.8230   -2.2090 C   0  0  0  0  0  0  0  0  0  0  0  0
   11.3730    2.0370   -2.5640 C   0  0  0  0  0  0  0  0  0  0  0  0
   12.2790    0.9830   -2.5060 C   0  0  0  0  0  0  0  0  0  0  0  0
   11.8480   -0.2850   -2.1060 C   0  0  0  0  0  0  0  0  0  0  0  0
    9.6870   -2.6200    2.7510 N   0  0  0  0  0  0  0  0  0  0  0  0
    8.6110   -2.9080    3.5800 C   0  0  0  0  0  0  0  0  0  0  0  0
    8.2410   -4.5010    4.0240 S   0  0  0  0  0  0  0  0  0  0  0  0
    6.8840   -4.0110    4.9210 C   0  0  0  0  0  0  0  0  0  0  0  0
    6.7090   -2.6410    4.9030 C   0  0  0  0  0  0  0  0  0  0  0  0
    5.5550   -2.0770    5.5870 C   0  0  0  0  0  0  0  0  0  0  0  0
    4.7250   -1.1620    4.9270 C   0  0  0  0  0  0  0  0  0  0  0  0
    3.6000   -0.6480    5.5750 C   0  0  0  0  0  0  0  0  0  0  0  0
    3.3030   -1.0450    6.8790 C   0  0  0  0  0  0  0  0  0  0  0  0
    4.1310   -1.9530    7.5390 C   0  0  0  0  0  0  0  0  0  0  0  0
    5.2550   -2.4700    6.8970 C   0  0  0  0  0  0  0  0  0  0  0  0
    7.7380   -1.9710    4.1310 C   0  0  0  0  0  0  0  0  0  0  0  0
    7.9290   -0.5300    3.8790 C   0  0  0  0  0  0  0  0  0  0  0  0
    8.1810    0.2490    4.7990 O   0  0  0  0  0  0  0  0  0  0  0  0
    7.7700   -0.1010    2.5840 N   0  0  0  0  0  0  0  0  0  0  0  0
    7.7790    1.2980    2.2290 C   0  0  0  0  0  0  0  0  0  0  0  0
    9.1580    1.7230    1.7970 C   0  0  0  0  0  0  0  0  0  0  0  0
   10.2510    0.8610    1.9720 C   0  0  0  0  0  0  0  0  0  0  0  0
   11.5350    1.2610    1.6010 C   0  0  0  0  0  0  0  0  0  0  0  0
   11.7400    2.5290    1.0590 C   0  0  0  0  0  0  0  0  0  0  0  0
   10.6640    3.3980    0.8900 C   0  0  0  0  0  0  0  0  0  0  0  0
    9.3790    3.0000    1.2620 C   0  0  0  0  0  0  0  0  0  0  0  0
   11.1859   -1.3295    1.0442 H   0  0  0  0  0  0  0  0  0  0  0  0
   11.9958   -2.9175    1.2978 H   0  0  0  0  0  0  0  0  0  0  0  0
   12.1593   -2.3749   -1.0546 H   0  0  0  0  0  0  0  0  0  0  0  0
   10.9468   -3.6968   -0.8714 H   0  0  0  0  0  0  0  0  0  0  0  0
    9.2670   -1.7910   -0.8200 H   0  0  0  0  0  0  0  0  0  0  0  0
    8.5734    0.4014   -1.5087 H   0  0  0  0  0  0  0  0  0  0  0  0
    9.3281    2.6558   -2.2426 H   0  0  0  0  0  0  0  0  0  0  0  0
   11.7047    3.0342   -2.8889 H   0  0  0  0  0  0  0  0  0  0  0  0
   13.3330    1.1472   -2.7745 H   0  0  0  0  0  0  0  0  0  0  0  0
   12.5779   -1.1055   -2.0421 H   0  0  0  0  0  0  0  0  0  0  0  0
   10.4120   -2.0570    3.1990 H   0  0  0  0  0  0  0  0  0  0  0  0
    6.2199   -4.7061    5.4556 H   0  0  0  0  0  0  0  0  0  0  0  0
    4.9592   -0.8485    3.8990 H   0  0  0  0  0  0  0  0  0  0  0  0
    2.9476    0.0703    5.0570 H   0  0  0  0  0  0  0  0  0  0  0  0
    2.4148   -0.6415    7.3873 H   0  0  0  0  0  0  0  0  0  0  0  0
    3.8964   -2.2617    8.5684 H   0  0  0  0  0  0  0  0  0  0  0  0
    5.9061   -3.1865    7.4193 H   0  0  0  0  0  0  0  0  0  0  0  0
    7.3750   -0.7310    1.9030 H   0  0  0  0  0  0  0  0  0  0  0  0
    7.0727    1.4665    1.4027 H   0  0  0  0  0  0  0  0  0  0  0  0
    7.4827    1.8902    3.1074 H   0  0  0  0  0  0  0  0  0  0  0  0
   10.0944   -0.1380    2.4051 H   0  0  0  0  0  0  0  0  0  0  0  0
   12.3852    0.5763    1.7361 H   0  0  0  0  0  0  0  0  0  0  0  0
   12.7520    2.8437    0.7645 H   0  0  0  0  0  0  0  0  0  0  0  0
   10.8274    4.3985    0.4631 H   0  0  0  0  0  0  0  0  0  0  0  0
    8.5341    3.6928    1.1346 H   0  0  0  0  0  0  0  0  0  0  0  0
  1  2  2  0
  2  3  1  0
  3  4  1  0
  4  5  1  0
  5  6  1  0
  6  7  2  0
  7  8  1  0
  8  9  2  0
  9 10  1  0
 10 11  2  0
  2 12  1  0
 12 13  1  0
 13 14  1  0
 14 15  1  0
 15 16  2  0
 16 17  1  0
 17 18  2  0
 18 19  1  0
 19 20  2  0
 20 21  1  0
 21 22  2  0
 16 23  1  0
 23 24  1  0
 24 25  2  0
 24 26  1  0
 26 27  1  0
 27 28  1  0
 28 29  2  0
 29 30  1  0
 30 31  2  0
 31 32  1  0
 32 33  2  0
 11  6  1  0
 23 13  2  0
 33 28  1  0
 22 17  1  0
  3 34  1  0
  3 35  1  0
  4 36  1  0
  4 37  1  0
  5 38  1  0
  7 39  1  0
  8 40  1  0
  9 41  1  0
 10 42  1  0
 11 43  1  0
 12 44  1  0
 15 45  1  0
 18 46  1  0
 19 47  1  0
 20 48  1  0
 21 49  1  0
 22 50  1  0
 26 51  1  0
 27 52  1  0
 27 53  1  0
 29 54  1  0
 30 55  1  0
 31 56  1  0
 32 57  1  0
 33 58  1  0
M  END
>  <meeko>  (5) 
{"is_sidechain": [false], "free_energy": -8.875, "intermolecular_energy": -12.796, "internal_energy": -2.962}

$$$$
3wz8_ligand
     RDKit          3D

 58 61  0  0  0  0  0  0  0  0999 V2000
    7.5710   -2.1130    0.8250 O   0  0  0  0  0  0  0  0  0  0  0  0
    8.6270   -2.2660    1.4300 C   0  0  0  0  0  0  0  0  0  0  0  0
    9.9410   -1.9430    0.7490 C   0  0  0  0  0  0  0  0  0  0  0  0
   10.9500   -1.4400    1.7730 C   0  0  0  0  0  0  0  0  0  0  0  0
   10.6310   -0.0700    2.1710 N   0  0  0  0  0  0  0  0  0  0  0  0
   11.0650    0.9960    1.3740 C   0  0  0  0  0  0  0  0  0  0  0  0
   11.3020    0.8920   -0.0020 C   0  0  0  0  0  0  0  0  0  0  0  0
   11.6650    2.0100   -0.7620 C   0  0  0  0  0  0  0  0  0  0  0  0
   11.7710    3.2600   -0.1600 C   0  0  0  0  0  0  0  0  0  0  0  0
   11.5000    3.3940    1.1980 C   0  0  0  0  0  0  0  0  0  0  0  0
   11.1370    2.2730    1.9500 C   0  0  0  0  0  0  0  0  0  0  0  0
    8.8000   -2.6760    2.7390 N   0  0  0  0  0  0  0  0  0  0  0  0
    7.8210   -2.9930    3.6710 C   0  0  0  0  0  0  0  0  0  0  0  0
    7.3650   -4.6000    3.9590 S   0  0  0  0  0  0  0  0  0  0  0  0
    6.1910   -4.1360    5.0970 C   0  0  0  0  0  0  0  0  0  0  0  0
    6.1450   -2.7670    5.2770 C   0  0  0  0  0  0  0  0  0  0  0  0
    5.1500   -2.2160    6.1850 C   0  0  0  0  0  0  0  0  0  0  0  0
    4.1370   -1.3830    5.6960 C   0  0  0  0  0  0  0  0  0  0  0  0
    3.1650   -0.8830    6.5640 C   0  0  0  0  0  0  0  0  0  0  0  0
    3.2030   -1.2120    7.9190 C   0  0  0  0  0  0  0  0  0  0  0  0
    4.2140   -2.0390    8.4090 C   0  0  0  0  0  0  0  0  0  0  0  0
    5.1870   -2.5420    7.5460 C   0  0  0  0  0  0  0  0  0  0  0  0
    7.1210   -2.0770    4.4550 C   0  0  0  0  0  0  0  0  0  0  0  0
    7.4130   -0.6340    4.3610 C   0  0  0  0  0  0  0  0  0  0  0  0
    8.4910   -0.1760    4.7420 O   0  0  0  0  0  0  0  0  0  0  0  0
    6.4120    0.1700    3.8730 N   0  0  0  0  0  0  0  0  0  0  0  0
    6.5110    1.6100    3.8720 C   0  0  0  0  0  0  0  0  0  0  0  0
    7.0010    2.1030    2.5350 C   0  0  0  0  0  0  0  0  0  0  0  0
    7.2290    1.1990    1.4880 C   0  0  0  0  0  0  0  0  0  0  0  0
    7.7110    1.6470    0.2580 C   0  0  0  0  0  0  0  0  0  0  0  0
    7.9750    3.0020    0.0650 C   0  0  0  0  0  0  0  0  0  0  0  0
    7.7630    3.9090    1.1010 C   0  0  0  0  0  0  0  0  0  0  0  0
    7.2820    3.4620    2.3330 C   0  0  0  0  0  0  0  0  0  0  0  0
   10.3335   -2.8502    0.2664 H   0  0  0  0  0  0  0  0  0  0  0  0
    9.7731   -1.1609   -0.0060 H   0  0  0  0  0  0  0  0  0  0  0  0
   10.9223   -2.0909    2.6593 H   0  0  0  0  0  0  0  0  0  0  0  0
   11.9538   -1.4568    1.3235 H   0  0  0  0  0  0  0  0  0  0  0  0
   10.8220    0.1080    3.1610 H   0  0  0  0  0  0  0  0  0  0  0  0
   11.2011   -0.0862   -0.4948 H   0  0  0  0  0  0  0  0  0  0  0  0
   11.8669    1.9002   -1.8377 H   0  0  0  0  0  0  0  0  0  0  0  0
   12.0673    4.1370   -0.7542 H   0  0  0  0  0  0  0  0  0  0  0  0
   11.5713    4.3806    1.6792 H   0  0  0  0  0  0  0  0  0  0  0  0
   10.9025    2.3950    3.0178 H   0  0  0  0  0  0  0  0  0  0  0  0
    9.7510   -2.7400    3.1040 H   0  0  0  0  0  0  0  0  0  0  0  0
    5.5411   -4.8456    5.6300 H   0  0  0  0  0  0  0  0  0  0  0  0
    4.1069   -1.1224    4.6277 H   0  0  0  0  0  0  0  0  0  0  0  0
    2.3685   -0.2291    6.1793 H   0  0  0  0  0  0  0  0  0  0  0  0
    2.4352   -0.8191    8.6017 H   0  0  0  0  0  0  0  0  0  0  0  0
    4.2437   -2.2949    9.4784 H   0  0  0  0  0  0  0  0  0  0  0  0
    5.9830   -3.1944    7.9343 H   0  0  0  0  0  0  0  0  0  0  0  0
    5.4860   -0.2130    3.7590 H   0  0  0  0  0  0  0  0  0  0  0  0
    5.5199    2.0414    4.0761 H   0  0  0  0  0  0  0  0  0  0  0  0
    7.2255    1.9186    4.6493 H   0  0  0  0  0  0  0  0  0  0  0  0
    7.0263    0.1282    1.6375 H   0  0  0  0  0  0  0  0  0  0  0  0
    7.8827    0.9312   -0.5594 H   0  0  0  0  0  0  0  0  0  0  0  0
    8.3511    3.3555   -0.9064 H   0  0  0  0  0  0  0  0  0  0  0  0
    7.9747    4.9776    0.9482 H   0  0  0  0  0  0  0  0  0  0  0  0
    7.1224    4.1804    3.1506 H   0  0  0  0  0  0  0  0  0  0  0  0
  1  2  2  0
  2  3  1  0
  3  4  1  0
  4  5  1  0
  5  6  1  0
  6  7  2  0
  7  8  1  0
  8  9  2  0
  9 10  1  0
 10 11  2  0
  2 12  1  0
 12 13  1  0
 13 14  1  0
 14 15  1  0
 15 16  2  0
 16 17  1  0
 17 18  2  0
 18 19  1  0
 19 20  2  0
 20 21  1  0
 21 22  2  0
 16 23  1  0
 23 24  1  0
 24 25  2  0
 24 26  1  0
 26 27  1  0
 27 28  1  0
 28 29  2  0
 29 30  1  0
 30 31  2  0
 31 32  1  0
 32 33  2  0
 11  6  1  0
 23 13  2  0
 33 28  1  0
 22 17  1  0
  3 34  1  0
  3 35  1  0
  4 36  1  0
  4 37  1  0
  5 38  1  0
  7 39  1  0
  8 40  1  0
  9 41  1  0
 10 42  1  0
 11 43  1  0
 12 44  1  0
 15 45  1  0
 18 46  1  0
 19 47  1  0
 20 48  1  0
 21 49  1  0
 22 50  1  0
 26 51  1  0
 27 52  1  0
 27 53  1  0
 29 54  1  0
 30 55  1  0
 31 56  1  0
 32 57  1  0
 33 58  1  0
M  END
>  <meeko>  (6) 
{"is_sidechain": [false], "free_energy": -8.829, "intermolecular_energy": -12.771, "internal_energy": -2.915}

$$$$
3wz8_ligand
     RDKit          3D

 58 61  0  0  0  0  0  0  0  0999 V2000
    8.4630   -2.3870    3.9670 O   0  0  0  0  0  0  0  0  0  0  0  0
    8.3120   -1.5950    3.0420 C   0  0  0  0  0  0  0  0  0  0  0  0
    8.0310   -0.1350    3.3350 C   0  0  0  0  0  0  0  0  0  0  0  0
    7.0050   -0.0160    4.4540 C   0  0  0  0  0  0  0  0  0  0  0  0
    5.9290   -0.9860    4.2630 N   0  0  0  0  0  0  0  0  0  0  0  0
    5.0560   -1.2620    5.3220 C   0  0  0  0  0  0  0  0  0  0  0  0
    3.7460   -0.7720    5.3980 C   0  0  0  0  0  0  0  0  0  0  0  0
    2.8940   -1.1400    6.4460 C   0  0  0  0  0  0  0  0  0  0  0  0
    3.3300   -2.0290    7.4220 C   0  0  0  0  0  0  0  0  0  0  0  0
    4.6130   -2.5610    7.3440 C   0  0  0  0  0  0  0  0  0  0  0  0
    5.4580   -2.1890    6.2950 C   0  0  0  0  0  0  0  0  0  0  0  0
    8.4060   -1.8500    1.6860 N   0  0  0  0  0  0  0  0  0  0  0  0
    8.7100   -3.0540    1.0630 C   0  0  0  0  0  0  0  0  0  0  0  0
    7.8390   -4.4670    1.4040 S   0  0  0  0  0  0  0  0  0  0  0  0
    8.7980   -5.3950    0.3520 C   0  0  0  0  0  0  0  0  0  0  0  0
    9.7720   -4.6420   -0.2740 C   0  0  0  0  0  0  0  0  0  0  0  0
   10.7040   -5.3120   -1.1680 C   0  0  0  0  0  0  0  0  0  0  0  0
   10.6070   -5.1270   -2.5520 C   0  0  0  0  0  0  0  0  0  0  0  0
   11.5240   -5.7440   -3.4040 C   0  0  0  0  0  0  0  0  0  0  0  0
   12.5370   -6.5470   -2.8770 C   0  0  0  0  0  0  0  0  0  0  0  0
   12.6330   -6.7360   -1.4990 C   0  0  0  0  0  0  0  0  0  0  0  0
   11.7200   -6.1210   -0.6430 C   0  0  0  0  0  0  0  0  0  0  0  0
    9.7180   -3.2470    0.1200 C   0  0  0  0  0  0  0  0  0  0  0  0
   10.5550   -2.1160   -0.3240 C   0  0  0  0  0  0  0  0  0  0  0  0
   11.7020   -1.9680    0.1020 O   0  0  0  0  0  0  0  0  0  0  0  0
    9.9800   -1.2230   -1.1930 N   0  0  0  0  0  0  0  0  0  0  0  0
   10.6330    0.0040   -1.5830 C   0  0  0  0  0  0  0  0  0  0  0  0
   10.2450    1.1250   -0.6530 C   0  0  0  0  0  0  0  0  0  0  0  0
    8.9090    1.2860   -0.2580 C   0  0  0  0  0  0  0  0  0  0  0  0
    8.5410    2.3400    0.5780 C   0  0  0  0  0  0  0  0  0  0  0  0
    9.5020    3.2460    1.0230 C   0  0  0  0  0  0  0  0  0  0  0  0
   10.8300    3.1020    0.6290 C   0  0  0  0  0  0  0  0  0  0  0  0
   11.2010    2.0500   -0.2100 C   0  0  0  0  0  0  0  0  0  0  0  0
    8.9637    0.3610    3.6418 H   0  0  0  0  0  0  0  0  0  0  0  0
    7.6337    0.3450    2.4285 H   0  0  0  0  0  0  0  0  0  0  0  0
    7.4974   -0.2061    5.4191 H   0  0  0  0  0  0  0  0  0  0  0  0
    6.5783    0.9978    4.4409 H   0  0  0  0  0  0  0  0  0  0  0  0
    6.2490   -1.8490    3.8150 H   0  0  0  0  0  0  0  0  0  0  0  0
    3.3801   -0.0856    4.6201 H   0  0  0  0  0  0  0  0  0  0  0  0
    1.8767   -0.7247    6.4975 H   0  0  0  0  0  0  0  0  0  0  0  0
    2.6642   -2.3101    8.2512 H   0  0  0  0  0  0  0  0  0  0  0  0
    4.9617   -3.2731    8.1065 H   0  0  0  0  0  0  0  0  0  0  0  0
    6.4621   -2.6336    6.2308 H   0  0  0  0  0  0  0  0  0  0  0  0
    8.2670   -1.0750    1.0370 H   0  0  0  0  0  0  0  0  0  0  0  0
    8.6588   -6.4738    0.1881 H   0  0  0  0  0  0  0  0  0  0  0  0
    9.8082   -4.4955   -2.9680 H   0  0  0  0  0  0  0  0  0  0  0  0
   11.4485   -5.5975   -4.4916 H   0  0  0  0  0  0  0  0  0  0  0  0
   13.2603   -7.0312   -3.5497 H   0  0  0  0  0  0  0  0  0  0  0  0
   13.4304   -7.3714   -1.0863 H   0  0  0  0  0  0  0  0  0  0  0  0
   11.7976   -6.2711    0.4440 H   0  0  0  0  0  0  0  0  0  0  0  0
    8.9860   -1.2710   -1.3600 H   0  0  0  0  0  0  0  0  0  0  0  0
   11.7232   -0.1377   -1.5447 H   0  0  0  0  0  0  0  0  0  0  0  0
   10.3211    0.2646   -2.6052 H   0  0  0  0  0  0  0  0  0  0  0  0
    8.1460    0.5761   -0.6100 H   0  0  0  0  0  0  0  0  0  0  0  0
    7.4915    2.4563    0.8863 H   0  0  0  0  0  0  0  0  0  0  0  0
    9.2116    4.0748    1.6854 H   0  0  0  0  0  0  0  0  0  0  0  0
   11.5876    3.8183    0.9795 H   0  0  0  0  0  0  0  0  0  0  0  0
   12.2496    1.9460   -0.5255 H   0  0  0  0  0  0  0  0  0  0  0  0
  1  2  2  0
  2  3  1  0
  3  4  1  0
  4  5  1  0
  5  6  1  0
  6  7  2  0
  7  8  1  0
  8  9  2  0
  9 10  1  0
 10 11  2  0
  2 12  1  0
 12 13  1  0
 13 14  1  0
 14 15  1  0
 15 16  2  0
 16 17  1  0
 17 18  2  0
 18 19  1  0
 19 20  2  0
 20 21  1  0
 21 22  2  0
 16 23  1  0
 23 24  1  0
 24 25  2  0
 24 26  1  0
 26 27  1  0
 27 28  1  0
 28 29  2  0
 29 30  1  0
 30 31  2  0
 31 32  1  0
 32 33  2  0
 11  6  1  0
 23 13  2  0
 33 28  1  0
 22 17  1  0
  3 34  1  0
  3 35  1  0
  4 36  1  0
  4 37  1  0
  5 38  1  0
  7 39  1  0
  8 40  1  0
  9 41  1  0
 10 42  1  0
 11 43  1  0
 12 44  1  0
 15 45  1  0
 18 46  1  0
 19 47  1  0
 20 48  1  0
 21 49  1  0
 22 50  1  0
 26 51  1  0
 27 52  1  0
 27 53  1  0
 29 54  1  0
 30 55  1  0
 31 56  1  0
 32 57  1  0
 33 58  1  0
M  END
>  <meeko>  (7) 
{"is_sidechain": [false], "free_energy": -8.813, "intermolecular_energy": -13.805, "internal_energy": -1.857}

$$$$
3wz8_ligand
     RDKit          3D

 58 61  0  0  0  0  0  0  0  0999 V2000
   12.0480   -3.7720    2.6000 O   0  0  0  0  0  0  0  0  0  0  0  0
   11.4970   -4.5690    1.8470 C   0  0  0  0  0  0  0  0  0  0  0  0
   12.1180   -4.8890    0.5020 C   0  0  0  0  0  0  0  0  0  0  0  0
   11.5620   -6.2050   -0.0280 C   0  0  0  0  0  0  0  0  0  0  0  0
   12.6430   -7.0480   -0.5330 N   0  0  0  0  0  0  0  0  0  0  0  0
   13.0400   -6.9290   -1.8710 C   0  0  0  0  0  0  0  0  0  0  0  0
   12.1970   -6.4830   -2.8950 C   0  0  0  0  0  0  0  0  0  0  0  0
   12.6690   -6.3160   -4.2020 C   0  0  0  0  0  0  0  0  0  0  0  0
   14.0040   -6.5670   -4.5010 C   0  0  0  0  0  0  0  0  0  0  0  0
   14.8700   -6.9700   -3.4900 C   0  0  0  0  0  0  0  0  0  0  0  0
   14.3910   -7.1350   -2.1870 C   0  0  0  0  0  0  0  0  0  0  0  0
   10.3420   -5.2920    2.0790 N   0  0  0  0  0  0  0  0  0  0  0  0
    9.5510   -5.2960    3.2210 C   0  0  0  0  0  0  0  0  0  0  0  0
    9.6650   -6.5390    4.3670 S   0  0  0  0  0  0  0  0  0  0  0  0
    8.4370   -5.8600    5.3260 C   0  0  0  0  0  0  0  0  0  0  0  0
    7.9430   -4.6850    4.7950 C   0  0  0  0  0  0  0  0  0  0  0  0
    6.8490   -4.0150    5.4810 C   0  0  0  0  0  0  0  0  0  0  0  0
    6.7970   -2.6160    5.5240 C   0  0  0  0  0  0  0  0  0  0  0  0
    5.7290   -1.9770    6.1540 C   0  0  0  0  0  0  0  0  0  0  0  0
    4.7120   -2.7300    6.7420 C   0  0  0  0  0  0  0  0  0  0  0  0
    4.7640   -4.1240    6.7040 C   0  0  0  0  0  0  0  0  0  0  0  0
    5.8290   -4.7670    6.0750 C   0  0  0  0  0  0  0  0  0  0  0  0
    8.6090   -4.3250    3.5570 C   0  0  0  0  0  0  0  0  0  0  0  0
    8.4010   -3.1500    2.6900 C   0  0  0  0  0  0  0  0  0  0  0  0
    7.5150   -3.1400    1.8340 O   0  0  0  0  0  0  0  0  0  0  0  0
    9.2660   -2.0970    2.8550 N   0  0  0  0  0  0  0  0  0  0  0  0
    9.2700   -0.9550    1.9720 C   0  0  0  0  0  0  0  0  0  0  0  0
    8.5090    0.1900    2.5890 C   0  0  0  0  0  0  0  0  0  0  0  0
    8.3970    0.2940    3.9830 C   0  0  0  0  0  0  0  0  0  0  0  0
    7.6690    1.3360    4.5590 C   0  0  0  0  0  0  0  0  0  0  0  0
    7.0420    2.2800    3.7470 C   0  0  0  0  0  0  0  0  0  0  0  0
    7.1380    2.1800    2.3600 C   0  0  0  0  0  0  0  0  0  0  0  0
    7.8640    1.1380    1.7820 C   0  0  0  0  0  0  0  0  0  0  0  0
   11.8845   -4.0823   -0.2084 H   0  0  0  0  0  0  0  0  0  0  0  0
   13.2081   -4.9783    0.6193 H   0  0  0  0  0  0  0  0  0  0  0  0
   11.0410   -6.7320    0.7849 H   0  0  0  0  0  0  0  0  0  0  0  0
   10.8623   -5.9917   -0.8496 H   0  0  0  0  0  0  0  0  0  0  0  0
   12.5360   -8.0300   -0.2670 H   0  0  0  0  0  0  0  0  0  0  0  0
   11.1440   -6.2595   -2.6686 H   0  0  0  0  0  0  0  0  0  0  0  0
   11.9822   -5.9853   -4.9950 H   0  0  0  0  0  0  0  0  0  0  0  0
   14.3725   -6.4475   -5.5305 H   0  0  0  0  0  0  0  0  0  0  0  0
   15.9300   -7.1586   -3.7153 H   0  0  0  0  0  0  0  0  0  0  0  0
   15.0896   -7.4332   -1.3914 H   0  0  0  0  0  0  0  0  0  0  0  0
   10.0170   -5.9320    1.3520 H   0  0  0  0  0  0  0  0  0  0  0  0
    8.0763   -6.3065    6.2644 H   0  0  0  0  0  0  0  0  0  0  0  0
    7.5982   -2.0213    5.0610 H   0  0  0  0  0  0  0  0  0  0  0  0
    5.6885   -0.8783    6.1873 H   0  0  0  0  0  0  0  0  0  0  0  0
    3.8689   -2.2246    7.2357 H   0  0  0  0  0  0  0  0  0  0  0  0
    3.9634   -4.7163    7.1711 H   0  0  0  0  0  0  0  0  0  0  0  0
    5.8677   -5.8659    6.0455 H   0  0  0  0  0  0  0  0  0  0  0  0
   10.0900   -2.2220    3.4230 H   0  0  0  0  0  0  0  0  0  0  0  0
   10.3086   -0.6426    1.7885 H   0  0  0  0  0  0  0  0  0  0  0  0
    8.7861   -1.2352    1.0247 H   0  0  0  0  0  0  0  0  0  0  0  0
    8.8866   -0.4512    4.6272 H   0  0  0  0  0  0  0  0  0  0  0  0
    7.5899    1.4125    5.6535 H   0  0  0  0  0  0  0  0  0  0  0  0
    6.4715    3.1038    4.2009 H   0  0  0  0  0  0  0  0  0  0  0  0
    6.6406    2.9237    1.7201 H   0  0  0  0  0  0  0  0  0  0  0  0
    7.9307    1.0598    0.6868 H   0  0  0  0  0  0  0  0  0  0  0  0
  1  2  2  0
  2  3  1  0
  3  4  1  0
  4  5  1  0
  5  6  1  0
  6  7  2  0
  7  8  1  0
  8  9  2  0
  9 10  1  0
 10 11  2  0
  2 12  1  0
 12 13  1  0
 13 14  1  0
 14 15  1  0
 15 16  2  0
 16 17  1  0
 17 18  2  0
 18 19  1  0
 19 20  2  0
 20 21  1  0
 21 22  2  0
 16 23  1  0
 23 24  1  0
 24 25  2  0
 24 26  1  0
 26 27  1  0
 27 28  1  0
 28 29  2  0
 29 30  1  0
 30 31  2  0
 31 32  1  0
 32 33  2  0
 11  6  1  0
 23 13  2  0
 33 28  1  0
 22 17  1  0
  3 34  1  0
  3 35  1  0
  4 36  1  0
  4 37  1  0
  5 38  1  0
  7 39  1  0
  8 40  1  0
  9 41  1  0
 10 42  1  0
 11 43  1  0
 12 44  1  0
 15 45  1  0
 18 46  1  0
 19 47  1  0
 20 48  1  0
 21 49  1  0
 22 50  1  0
 26 51  1  0
 27 52  1  0
 27 53  1  0
 29 54  1  0
 30 55  1  0
 31 56  1  0
 32 57  1  0
 33 58  1  0
M  END
>  <meeko>  (8) 
{"is_sidechain": [false], "free_energy": -8.742, "intermolecular_energy": -13.727, "internal_energy": -1.826}

$$$$
3wz8_ligand
     RDKit          3D

 58 61  0  0  0  0  0  0  0  0999 V2000
    9.4030   -5.3250    3.8870 O   0  0  0  0  0  0  0  0  0  0  0  0
    8.2850   -5.2710    3.3860 C   0  0  0  0  0  0  0  0  0  0  0  0
    7.0860   -5.7840    4.1570 C   0  0  0  0  0  0  0  0  0  0  0  0
    7.1620   -5.3210    5.6060 C   0  0  0  0  0  0  0  0  0  0  0  0
    7.3520   -3.8730    5.6690 N   0  0  0  0  0  0  0  0  0  0  0  0
    6.2390   -3.0390    5.8220 C   0  0  0  0  0  0  0  0  0  0  0  0
    6.1030   -1.8000    5.1830 C   0  0  0  0  0  0  0  0  0  0  0  0
    4.9350   -1.0400    5.3160 C   0  0  0  0  0  0  0  0  0  0  0  0
    3.8700   -1.5210    6.0710 C   0  0  0  0  0  0  0  0  0  0  0  0
    3.9670   -2.7670    6.6800 C   0  0  0  0  0  0  0  0  0  0  0  0
    5.1370   -3.5210    6.5430 C   0  0  0  0  0  0  0  0  0  0  0  0
    7.9330   -4.7400    2.1590 N   0  0  0  0  0  0  0  0  0  0  0  0
    8.7590   -4.1320    1.2220 C   0  0  0  0  0  0  0  0  0  0  0  0
    9.5630   -5.0380    0.0370 S   0  0  0  0  0  0  0  0  0  0  0  0
   10.3240   -3.6590   -0.6010 C   0  0  0  0  0  0  0  0  0  0  0  0
    9.9660   -2.5050    0.0680 C   0  0  0  0  0  0  0  0  0  0  0  0
   10.5790   -1.2480   -0.3340 C   0  0  0  0  0  0  0  0  0  0  0  0
    9.9700   -0.4490   -1.3090 C   0  0  0  0  0  0  0  0  0  0  0  0
   10.5430    0.7730   -1.6680 C   0  0  0  0  0  0  0  0  0  0  0  0
   11.7220    1.1970   -1.0550 C   0  0  0  0  0  0  0  0  0  0  0  0
   12.3330    0.4010   -0.0870 C   0  0  0  0  0  0  0  0  0  0  0  0
   11.7640   -0.8190    0.2760 C   0  0  0  0  0  0  0  0  0  0  0  0
    9.0210   -2.7660    1.1380 C   0  0  0  0  0  0  0  0  0  0  0  0
    8.3780   -1.8210    2.0690 C   0  0  0  0  0  0  0  0  0  0  0  0
    7.1510   -1.7670    2.1760 O   0  0  0  0  0  0  0  0  0  0  0  0
    9.2070   -0.9820    2.7720 N   0  0  0  0  0  0  0  0  0  0  0  0
    8.7020    0.0880    3.5980 C   0  0  0  0  0  0  0  0  0  0  0  0
    8.4530    1.3210    2.7680 C   0  0  0  0  0  0  0  0  0  0  0  0
    9.4070    1.7490    1.8340 C   0  0  0  0  0  0  0  0  0  0  0  0
    9.1940    2.9060    1.0850 C   0  0  0  0  0  0  0  0  0  0  0  0
    8.0300    3.6500    1.2660 C   0  0  0  0  0  0  0  0  0  0  0  0
    7.0790    3.2410    2.1990 C   0  0  0  0  0  0  0  0  0  0  0  0
    7.2910    2.0840    2.9510 C   0  0  0  0  0  0  0  0  0  0  0  0
    6.1646   -5.3959    3.6983 H   0  0  0  0  0  0  0  0  0  0  0  0
    7.0819   -6.8836    4.1289 H   0  0  0  0  0  0  0  0  0  0  0  0
    6.2269   -5.5866    6.1209 H   0  0  0  0  0  0  0  0  0  0  0  0
    8.0155   -5.8144    6.0939 H   0  0  0  0  0  0  0  0  0  0  0  0
    7.9770   -3.5250    4.9370 H   0  0  0  0  0  0  0  0  0  0  0  0
    6.9290   -1.4173    4.5655 H   0  0  0  0  0  0  0  0  0  0  0  0
    4.8590   -0.0600    4.8223 H   0  0  0  0  0  0  0  0  0  0  0  0
    2.9565   -0.9189    6.1854 H   0  0  0  0  0  0  0  0  0  0  0  0
    3.1247   -3.1593    7.2688 H   0  0  0  0  0  0  0  0  0  0  0  0
    5.1941   -4.5146    7.0114 H   0  0  0  0  0  0  0  0  0  0  0  0
    6.9480   -4.7560    1.8890 H   0  0  0  0  0  0  0  0  0  0  0  0
   11.0225   -3.6828   -1.4504 H   0  0  0  0  0  0  0  0  0  0  0  0
    9.0403   -0.7837   -1.7923 H   0  0  0  0  0  0  0  0  0  0  0  0
   10.0646    1.4010   -2.4340 H   0  0  0  0  0  0  0  0  0  0  0  0
   12.1706    2.1613   -1.3358 H   0  0  0  0  0  0  0  0  0  0  0  0
   13.2653    0.7360    0.3910 H   0  0  0  0  0  0  0  0  0  0  0  0
   12.2461   -1.4445    1.0417 H   0  0  0  0  0  0  0  0  0  0  0  0
   10.1800   -0.9230    2.5130 H   0  0  0  0  0  0  0  0  0  0  0  0
    7.7588   -0.2301    4.0662 H   0  0  0  0  0  0  0  0  0  0  0  0
    9.4479    0.3236    4.3714 H   0  0  0  0  0  0  0  0  0  0  0  0
   10.3301    1.1681    1.6909 H   0  0  0  0  0  0  0  0  0  0  0  0
    9.9456    3.2314    0.3507 H   0  0  0  0  0  0  0  0  0  0  0  0
    7.8616    4.5606    0.6723 H   0  0  0  0  0  0  0  0  0  0  0  0
    6.1611    3.8299    2.3430 H   0  0  0  0  0  0  0  0  0  0  0  0
    6.5415    1.7689    3.6919 H   0  0  0  0  0  0  0  0  0  0  0  0
  1  2  2  0
  2  3  1  0
  3  4  1  0
  4  5  1  0
  5  6  1  0
  6  7  2  0
  7  8  1  0
  8  9  2  0
  9 10  1  0
 10 11  2  0
  2 12  1  0
 12 13  1  0
 13 14  1  0
 14 15  1  0
 15 16  2  0
 16 17  1  0
 17 18  2  0
 18 19  1  0
 19 20  2  0
 20 21  1  0
 21 22  2  0
 16 23  1  0
 23 24  1  0
 24 25  2  0
 24 26  1  0
 26 27  1  0
 27 28  1  0
 28 29  2  0
 29 30  1  0
 30 31  2  0
 31 32  1  0
 32 33  2  0
 11  6  1  0
 23 13  2  0
 33 28  1  0
 22 17  1  0
  3 34  1  0
  3 35  1  0
  4 36  1  0
  4 37  1  0
  5 38  1  0
  7 39  1  0
  8 40  1  0
  9 41  1  0
 10 42  1  0
 11 43  1  0
 12 44  1  0
 15 45  1  0
 18 46  1  0
 19 47  1  0
 20 48  1  0
 21 49  1  0
 22 50  1  0
 26 51  1  0
 27 52  1  0
 27 53  1  0
 29 54  1  0
 30 55  1  0
 31 56  1  0
 32 57  1  0
 33 58  1  0
M  END
>  <meeko>  (9) 
{"is_sidechain": [false], "free_energy": -8.701, "intermolecular_energy": -12.365, "internal_energy": -3.127}

$$$$
