1p1q_ligand
     RDKit          3D

 23 23  0  0  0  0  0  0  0  0999 V2000
   -2.9540   12.9570   10.4310 C   0  0  0  0  0  0  0  0  0  0  0  0
   -3.1660   12.9830    8.9590 C   0  0  0  0  0  0  0  0  0  0  0  0
   -2.0180   12.9140    8.1810 O   0  0  0  0  0  0  0  0  0  0  0  0
   -2.5220   13.0430    6.8660 N   0  0  0  0  0  0  0  0  0  0  0  0
   -3.8880   12.9770    6.8840 C   0  0  0  0  0  0  0  0  0  0  0  0
   -4.6320   12.8050    5.9350 O   0  0  0  0  0  0  0  0  0  0  0  0
   -4.3140   13.0600    8.2840 C   0  0  0  0  0  0  0  0  0  0  0  0
   -5.7420   13.1510    8.6820 C   0  0  0  0  0  0  0  0  0  0  0  0
   -6.3550   11.8690    9.2350 C   0  0  2  0  0  0  0  0  0  0  0  0
   -7.5730   11.5080    8.3730 N   0  0  0  0  0  0  0  0  0  0  0  0
   -6.8350   11.9210   10.7160 C   0  0  0  0  0  0  0  0  0  0  0  0
   -6.0180   11.6410   11.6140 O   0  0  0  0  0  0  0  0  0  0  0  0
   -8.0740   12.2330   10.7340 O   0  0  0  0  0  0  0  0  0  0  0  0
   -3.9205   13.0755   10.9428 H   0  0  0  0  0  0  0  0  0  0  0  0
   -2.5017   11.9967   10.7194 H   0  0  0  0  0  0  0  0  0  0  0  0
   -2.2831   13.7796   10.7194 H   0  0  0  0  0  0  0  0  0  0  0  0
   -1.9790   12.6990    6.0890 H   0  0  0  0  0  0  0  0  0  0  0  0
   -5.8289   13.9286    9.4552 H   0  0  0  0  0  0  0  0  0  0  0  0
   -6.2975   13.3766    7.7598 H   0  0  0  0  0  0  0  0  0  0  0  0
   -5.5432   11.1274    9.2041 H   0  0  0  0  0  0  0  0  0  0  0  0
   -7.8200   12.2270    7.6900 H   0  0  0  0  0  0  0  0  0  0  0  0
   -7.5840   10.5570    8.0120 H   0  0  0  0  0  0  0  0  0  0  0  0
   -8.3310   11.5890    9.1050 H   0  0  0  0  0  0  0  0  0  0  0  0
  1  2  1  0
  2  3  1  0
  3  4  1  0
  4  5  1  0
  5  6  2  0
  5  7  1  0
  7  8  1  0
  8  9  1  0
  9 10  1  0
  9 11  1  0
 11 12  2  0
 11 13  1  0
  7  2  2  0
  1 14  1  0
  1 15  1  0
  1 16  1  0
  4 17  1  0
  8 18  1  0
  8 19  1  0
  9 20  1  1
 10 21  1  0
 10 22  1  0
 10 23  1  0
M  CHG  2  10   1  13  -1
M  END
>  <meeko>  (1) 
{"is_sidechain": [false], "free_energy": -6.542, "intermolecular_energy": -7.88, "internal_energy": -0.282}

$$$$
1p1q_ligand
     RDKit          3D

 23 23  0  0  0  0  0  0  0  0999 V2000
   -3.2960   11.3820   11.0520 C   0  0  0  0  0  0  0  0  0  0  0  0
   -3.4520   12.1660    9.7980 C   0  0  0  0  0  0  0  0  0  0  0  0
   -2.3550   12.9260    9.4180 O   0  0  0  0  0  0  0  0  0  0  0  0
   -2.8250   13.6050    8.2690 N   0  0  0  0  0  0  0  0  0  0  0  0
   -4.0420   13.1010    7.8980 C   0  0  0  0  0  0  0  0  0  0  0  0
   -4.6180   13.2660    6.8380 O   0  0  0  0  0  0  0  0  0  0  0  0
   -4.5080   12.2340    8.9840 C   0  0  0  0  0  0  0  0  0  0  0  0
   -5.8580   11.6140    8.9900 C   0  0  0  0  0  0  0  0  0  0  0  0
   -6.8970   12.3070    9.8660 C   0  0  2  0  0  0  0  0  0  0  0  0
   -8.2900   11.9760    9.3140 N   0  0  0  0  0  0  0  0  0  0  0  0
   -6.7920   13.8590    9.9580 C   0  0  0  0  0  0  0  0  0  0  0  0
   -6.0780   14.3530   10.8520 O   0  0  0  0  0  0  0  0  0  0  0  0
   -7.5340   14.3730    9.0540 O   0  0  0  0  0  0  0  0  0  0  0  0
   -3.4282   12.0464   11.9187 H   0  0  0  0  0  0  0  0  0  0  0  0
   -4.0531   10.5846   11.0825 H   0  0  0  0  0  0  0  0  0  0  0  0
   -2.2913   10.9351   11.0825 H   0  0  0  0  0  0  0  0  0  0  0  0
   -2.1640   13.9600    7.5940 H   0  0  0  0  0  0  0  0  0  0  0  0
   -6.2341   11.6116    7.9563 H   0  0  0  0  0  0  0  0  0  0  0  0
   -5.7260   10.6090    9.4172 H   0  0  0  0  0  0  0  0  0  0  0  0
   -6.7120   11.9284   10.8821 H   0  0  0  0  0  0  0  0  0  0  0  0
   -9.0450   12.4900    9.7710 H   0  0  0  0  0  0  0  0  0  0  0  0
   -8.3570   11.9350    8.2990 H   0  0  0  0  0  0  0  0  0  0  0  0
   -8.3950   10.9940    9.6890 H   0  0  0  0  0  0  0  0  0  0  0  0
  1  2  1  0
  2  3  1  0
  3  4  1  0
  4  5  1  0
  5  6  2  0
  5  7  1  0
  7  8  1  0
  8  9  1  0
  9 10  1  0
  9 11  1  0
 11 12  2  0
 11 13  1  0
  7  2  2  0
  1 14  1  0
  1 15  1  0
  1 16  1  0
  4 17  1  0
  8 18  1  0
  8 19  1  0
  9 20  1  1
 10 21  1  0
 10 22  1  0
 10 23  1  0
M  CHG  2  10   1  13  -1
M  END
>  <meeko>  (2) 
{"is_sidechain": [false], "free_energy": -6.286, "intermolecular_energy": -7.631, "internal_energy": -0.223}

$$$$
1p1q_ligand
     RDKit          3D

 23 23  0  0  0  0  0  0  0  0999 V2000
   -7.2130   13.6890    5.6180 C   0  0  0  0  0  0  0  0  0  0  0  0
   -5.8980   13.3590    6.2290 C   0  0  0  0  0  0  0  0  0  0  0  0
   -4.8760   13.0570    5.3390 O   0  0  0  0  0  0  0  0  0  0  0  0
   -3.8050   12.7130    6.1970 N   0  0  0  0  0  0  0  0  0  0  0  0
   -4.1350   13.0040    7.4920 C   0  0  0  0  0  0  0  0  0  0  0  0
   -3.3840   13.0720    8.4490 O   0  0  0  0  0  0  0  0  0  0  0  0
   -5.5670   13.3170    7.5210 C   0  0  0  0  0  0  0  0  0  0  0  0
   -6.3090   13.5550    8.7860 C   0  0  0  0  0  0  0  0  0  0  0  0
   -6.7660   12.3030    9.5270 C   0  0  2  0  0  0  0  0  0  0  0  0
   -8.2880   12.1820    9.3740 N   0  0  0  0  0  0  0  0  0  0  0  0
   -6.4480   12.2550   11.0520 C   0  0  0  0  0  0  0  0  0  0  0  0
   -7.0910   11.4610   11.7660 O   0  0  0  0  0  0  0  0  0  0  0  0
   -5.5460   13.1220   11.3100 O   0  0  0  0  0  0  0  0  0  0  0  0
   -7.9505   13.8741    6.4129 H   0  0  0  0  0  0  0  0  0  0  0  0
   -7.1120   14.5896    4.9946 H   0  0  0  0  0  0  0  0  0  0  0  0
   -7.5492   12.8474    4.9946 H   0  0  0  0  0  0  0  0  0  0  0  0
   -2.8560   12.7750    5.8590 H   0  0  0  0  0  0  0  0  0  0  0  0
   -5.6544   14.1272    9.4599 H   0  0  0  0  0  0  0  0  0  0  0  0
   -7.2279   14.0880    8.5003 H   0  0  0  0  0  0  0  0  0  0  0  0
   -6.1996   11.4776    9.0712 H   0  0  0  0  0  0  0  0  0  0  0  0
   -8.7140   11.5190   10.0250 H   0  0  0  0  0  0  0  0  0  0  0  0
   -8.7870   13.0630    9.2770 H   0  0  0  0  0  0  0  0  0  0  0  0
   -8.3280   11.6790    8.4450 H   0  0  0  0  0  0  0  0  0  0  0  0
  1  2  1  0
  2  3  1  0
  3  4  1  0
  4  5  1  0
  5  6  2  0
  5  7  1  0
  7  8  1  0
  8  9  1  0
  9 10  1  0
  9 11  1  0
 11 12  2  0
 11 13  1  0
  7  2  2  0
  1 14  1  0
  1 15  1  0
  1 16  1  0
  4 17  1  0
  8 18  1  0
  8 19  1  0
  9 20  1  6
 10 21  1  0
 10 22  1  0
 10 23  1  0
M  CHG  2  10   1  13  -1
M  END
>  <meeko>  (3) 
{"is_sidechain": [false], "free_energy": -6.198, "intermolecular_energy": -7.47, "internal_energy": -0.278}

$$$$
1p1q_ligand
     RDKit          3D

 23 23  0  0  0  0  0  0  0  0999 V2000
   -3.1230   11.4590   10.5360 C   0  0  0  0  0  0  0  0  0  0  0  0
   -4.5380   11.6190   10.9630 C   0  0  0  0  0  0  0  0  0  0  0  0
   -4.7410   11.8290   12.3200 O   0  0  0  0  0  0  0  0  0  0  0  0
   -6.1510   11.8560   12.4260 N   0  0  0  0  0  0  0  0  0  0  0  0
   -6.7110   11.8710   11.1780 C   0  0  0  0  0  0  0  0  0  0  0  0
   -7.8630   12.1410   10.8870 O   0  0  0  0  0  0  0  0  0  0  0  0
   -5.6430   11.5910   10.2140 C   0  0  0  0  0  0  0  0  0  0  0  0
   -5.9020   11.3980    8.7640 C   0  0  0  0  0  0  0  0  0  0  0  0
   -5.9380   12.6710    7.9260 C   0  0  2  0  0  0  0  0  0  0  0  0
   -7.1340   12.5840    6.9690 N   0  0  0  0  0  0  0  0  0  0  0  0
   -4.6740   12.9590    7.0620 C   0  0  0  0  0  0  0  0  0  0  0  0
   -3.6350   13.3340    7.6380 O   0  0  0  0  0  0  0  0  0  0  0  0
   -4.9680   12.7740    5.8320 O   0  0  0  0  0  0  0  0  0  0  0  0
   -2.4780   11.3861   11.4241 H   0  0  0  0  0  0  0  0  0  0  0  0
   -3.0229   10.5438    9.9340 H   0  0  0  0  0  0  0  0  0  0  0  0
   -2.8211   12.3287    9.9340 H   0  0  0  0  0  0  0  0  0  0  0  0
   -6.5830   12.3180   13.2120 H   0  0  0  0  0  0  0  0  0  0  0  0
   -5.1089   10.7504    8.3618 H   0  0  0  0  0  0  0  0  0  0  0  0
   -6.9099   10.9630    8.6937 H   0  0  0  0  0  0  0  0  0  0  0  0
   -6.0023   13.4916    8.6558 H   0  0  0  0  0  0  0  0  0  0  0  0
   -7.7730   11.8140    7.1790 H   0  0  0  0  0  0  0  0  0  0  0  0
   -7.5910   13.4700    6.7600 H   0  0  0  0  0  0  0  0  0  0  0  0
   -6.6330   12.2610    6.0960 H   0  0  0  0  0  0  0  0  0  0  0  0
  1  2  1  0
  2  3  1  0
  3  4  1  0
  4  5  1  0
  5  6  2  0
  5  7  1  0
  7  8  1  0
  8  9  1  0
  9 10  1  0
  9 11  1  0
 11 12  2  0
 11 13  1  0
  7  2  2  0
  1 14  1  0
  1 15  1  0
  1 16  1  0
  4 17  1  0
  8 18  1  0
  8 19  1  0
  9 20  1  1
 10 21  1  0
 10 22  1  0
 10 23  1  0
M  CHG  2  10   1  13  -1
M  END
>  <meeko>  (4) 
{"is_sidechain": [false], "free_energy": -6.154, "intermolecular_energy": -7.393, "internal_energy": -0.303}

$$$$
1p1q_ligand
     RDKit          3D

 23 23  0  0  0  0  0  0  0  0999 V2000
   -6.2860   12.3350    7.4530 C   0  0  0  0  0  0  0  0  0  0  0  0
   -4.8680   12.5960    7.8180 C   0  0  0  0  0  0  0  0  0  0  0  0
   -4.0920   13.2010    6.8380 O   0  0  0  0  0  0  0  0  0  0  0  0
   -2.8100   13.2390    7.4330 N   0  0  0  0  0  0  0  0  0  0  0  0
   -2.8960   12.8710    8.7480 C   0  0  0  0  0  0  0  0  0  0  0  0
   -2.0550   13.0250    9.6150 O   0  0  0  0  0  0  0  0  0  0  0  0
   -4.2410   12.3290    8.9650 C   0  0  0  0  0  0  0  0  0  0  0  0
   -4.6550   11.7070   10.2480 C   0  0  0  0  0  0  0  0  0  0  0  0
   -5.6430   12.5140   11.0830 C   0  0  2  0  0  0  0  0  0  0  0  0
   -4.9670   12.8750   12.4130 N   0  0  0  0  0  0  0  0  0  0  0  0
   -6.9900   11.8090   11.4250 C   0  0  0  0  0  0  0  0  0  0  0  0
   -7.9940   12.0850   10.7420 O   0  0  0  0  0  0  0  0  0  0  0  0
   -6.8080   11.0460   12.4350 O   0  0  0  0  0  0  0  0  0  0  0  0
   -6.8859   12.2246    8.3684 H   0  0  0  0  0  0  0  0  0  0  0  0
   -6.6730   13.1770    6.8603 H   0  0  0  0  0  0  0  0  0  0  0  0
   -6.3478   11.4104    6.8603 H   0  0  0  0  0  0  0  0  0  0  0  0
   -2.1300   13.9100    7.1080 H   0  0  0  0  0  0  0  0  0  0  0  0
   -5.1190   10.7363   10.0192 H   0  0  0  0  0  0  0  0  0  0  0  0
   -3.7404   11.6310   10.8544 H   0  0  0  0  0  0  0  0  0  0  0  0
   -5.9032   13.3809   10.4579 H   0  0  0  0  0  0  0  0  0  0  0  0
   -5.3880   12.4180   13.2250 H   0  0  0  0  0  0  0  0  0  0  0  0
   -3.9500   12.8660   12.4000 H   0  0  0  0  0  0  0  0  0  0  0  0
   -5.2850   13.8790   12.5010 H   0  0  0  0  0  0  0  0  0  0  0  0
  1  2  1  0
  2  3  1  0
  3  4  1  0
  4  5  1  0
  5  6  2  0
  5  7  1  0
  7  8  1  0
  8  9  1  0
  9 10  1  0
  9 11  1  0
 11 12  2  0
 11 13  1  0
  7  2  2  0
  1 14  1  0
  1 15  1  0
  1 16  1  0
  4 17  1  0
  8 18  1  0
  8 19  1  0
  9 20  1  6
 10 21  1  0
 10 22  1  0
 10 23  1  0
M  CHG  2  10   1  13  -1
M  END
>  <meeko>  (5) 
{"is_sidechain": [false], "free_energy": -6.123, "intermolecular_energy": -7.406, "internal_energy": -0.252}

$$$$
1p1q_ligand
     RDKit          3D

 23 23  0  0  0  0  0  0  0  0999 V2000
   -2.7630   12.4980    9.6580 C   0  0  0  0  0  0  0  0  0  0  0  0
   -4.1880   12.0710    9.6600 C   0  0  0  0  0  0  0  0  0  0  0  0
   -4.5620   11.2160   10.6880 O   0  0  0  0  0  0  0  0  0  0  0  0
   -5.9120   10.9280   10.3800 N   0  0  0  0  0  0  0  0  0  0  0  0
   -6.3390   11.7350    9.3620 C   0  0  0  0  0  0  0  0  0  0  0  0
   -7.4880   11.9370    9.0100 O   0  0  0  0  0  0  0  0  0  0  0  0
   -5.1590   12.4040    8.8070 C   0  0  0  0  0  0  0  0  0  0  0  0
   -5.2190   13.2620    7.5960 C   0  0  0  0  0  0  0  0  0  0  0  0
   -5.3940   12.5220    6.2730 C   0  0  2  0  0  0  0  0  0  0  0  0
   -4.0020   12.1700    5.7310 N   0  0  0  0  0  0  0  0  0  0  0  0
   -6.1460   13.2960    5.1490 C   0  0  0  0  0  0  0  0  0  0  0  0
   -5.6760   13.2700    3.9950 O   0  0  0  0  0  0  0  0  0  0  0  0
   -7.1590   13.8820    5.6620 O   0  0  0  0  0  0  0  0  0  0  0  0
   -2.4104   12.6036   10.6946 H   0  0  0  0  0  0  0  0  0  0  0  0
   -2.1546   11.7427    9.1390 H   0  0  0  0  0  0  0  0  0  0  0  0
   -2.6702   13.4634    9.1390 H   0  0  0  0  0  0  0  0  0  0  0  0
   -6.5340   10.6140   11.1100 H   0  0  0  0  0  0  0  0  0  0  0  0
   -6.0669   13.9530    7.7122 H   0  0  0  0  0  0  0  0  0  0  0  0
   -4.2422   13.7640    7.5336 H   0  0  0  0  0  0  0  0  0  0  0  0
   -6.0192   11.6495    6.5137 H   0  0  0  0  0  0  0  0  0  0  0  0
   -3.9660   12.0890    4.7140 H   0  0  0  0  0  0  0  0  0  0  0  0
   -3.2300   12.6900    6.1440 H   0  0  0  0  0  0  0  0  0  0  0  0
   -3.9370   11.1690    6.0640 H   0  0  0  0  0  0  0  0  0  0  0  0
  1  2  1  0
  2  3  1  0
  3  4  1  0
  4  5  1  0
  5  6  2  0
  5  7  1  0
  7  8  1  0
  8  9  1  0
  9 10  1  0
  9 11  1  0
 11 12  2  0
 11 13  1  0
  7  2  2  0
  1 14  1  0
  1 15  1  0
  1 16  1  0
  4 17  1  0
  8 18  1  0
  8 19  1  0
  9 20  1  1
 10 21  1  0
 10 22  1  0
 10 23  1  0
M  CHG  2  10   1  13  -1
M  END
>  <meeko>  (6) 
{"is_sidechain": [false], "free_energy": -6.094, "intermolecular_energy": -7.396, "internal_energy": -0.227}

$$$$
1p1q_ligand
     RDKit          3D

 23 23  0  0  0  0  0  0  0  0999 V2000
   -3.3570   13.2470    8.5640 C   0  0  0  0  0  0  0  0  0  0  0  0
   -4.0170   12.3710    9.5680 C   0  0  0  0  0  0  0  0  0  0  0  0
   -3.1940   11.4500   10.2030 O   0  0  0  0  0  0  0  0  0  0  0  0
   -4.0990   10.7260   11.0130 N   0  0  0  0  0  0  0  0  0  0  0  0
   -5.3240   11.3350   10.9990 C   0  0  0  0  0  0  0  0  0  0  0  0
   -6.2560   11.1390   11.7600 O   0  0  0  0  0  0  0  0  0  0  0  0
   -5.2970   12.3530    9.9450 C   0  0  0  0  0  0  0  0  0  0  0  0
   -6.5010   13.1290    9.5490 C   0  0  0  0  0  0  0  0  0  0  0  0
   -7.2320   12.6240    8.3100 C   0  0  2  0  0  0  0  0  0  0  0  0
   -7.1780   11.0900    8.3110 N   0  0  0  0  0  0  0  0  0  0  0  0
   -6.6710   13.1060    6.9390 C   0  0  0  0  0  0  0  0  0  0  0  0
   -7.0780   14.1910    6.4810 O   0  0  0  0  0  0  0  0  0  0  0  0
   -5.8640   12.2220    6.4930 O   0  0  0  0  0  0  0  0  0  0  0  0
   -2.7729   14.0223    9.0814 H   0  0  0  0  0  0  0  0  0  0  0  0
   -2.6876   12.6429    7.9339 H   0  0  0  0  0  0  0  0  0  0  0  0
   -4.1223   13.7238    7.9339 H   0  0  0  0  0  0  0  0  0  0  0  0
   -3.7570   10.2310   11.8220 H   0  0  0  0  0  0  0  0  0  0  0  0
   -7.2085   13.1091   10.3910 H   0  0  0  0  0  0  0  0  0  0  0  0
   -6.1397   14.1366    9.2955 H   0  0  0  0  0  0  0  0  0  0  0  0
   -8.2472   13.0403    8.3875 H   0  0  0  0  0  0  0  0  0  0  0  0
   -8.0790   10.6480    8.5030 H   0  0  0  0  0  0  0  0  0  0  0  0
   -6.6540   10.6730    7.5440 H   0  0  0  0  0  0  0  0  0  0  0  0
   -6.6310   10.9380    9.2020 H   0  0  0  0  0  0  0  0  0  0  0  0
  1  2  1  0
  2  3  1  0
  3  4  1  0
  4  5  1  0
  5  6  2  0
  5  7  1  0
  7  8  1  0
  8  9  1  0
  9 10  1  0
  9 11  1  0
 11 12  2  0
 11 13  1  0
  7  2  2  0
  1 14  1  0
  1 15  1  0
  1 16  1  0
  4 17  1  0
  8 18  1  0
  8 19  1  0
  9 20  1  1
 10 21  1  0
 10 22  1  0
 10 23  1  0
M  CHG  2  10   1  13  -1
M  END
>  <meeko>  (7) 
{"is_sidechain": [false], "free_energy": -5.927, "intermolecular_energy": -7.215, "internal_energy": -0.207}

$$$$
1p1q_ligand
     RDKit          3D

 23 23  0  0  0  0  0  0  0  0999 V2000
   -3.6820   13.0330    7.1700 C   0  0  0  0  0  0  0  0  0  0  0  0
   -5.1060   12.7790    7.5170 C   0  0  0  0  0  0  0  0  0  0  0  0
   -5.9050   12.3010    6.4870 O   0  0  0  0  0  0  0  0  0  0  0  0
   -7.1850   12.2410    7.0840 N   0  0  0  0  0  0  0  0  0  0  0  0
   -7.0820   12.4710    8.4290 C   0  0  0  0  0  0  0  0  0  0  0  0
   -7.9240   12.2560    9.2830 O   0  0  0  0  0  0  0  0  0  0  0  0
   -5.7200   12.9470    8.6900 C   0  0  0  0  0  0  0  0  0  0  0  0
   -5.2810   13.4230   10.0270 C   0  0  0  0  0  0  0  0  0  0  0  0
   -4.7890   12.3420   10.9820 C   0  0  2  0  0  0  0  0  0  0  0  0
   -5.1250   12.7760   12.4150 N   0  0  0  0  0  0  0  0  0  0  0  0
   -3.2620   12.0320   10.9390 C   0  0  0  0  0  0  0  0  0  0  0  0
   -2.8740   10.9130   11.3260 O   0  0  0  0  0  0  0  0  0  0  0  0
   -2.6460   13.0670   10.5140 O   0  0  0  0  0  0  0  0  0  0  0  0
   -3.0928   13.1381    8.0929 H   0  0  0  0  0  0  0  0  0  0  0  0
   -3.2924   12.1902    6.5802 H   0  0  0  0  0  0  0  0  0  0  0  0
   -3.6078   13.9586    6.5802 H   0  0  0  0  0  0  0  0  0  0  0  0
   -7.8870   11.6280    6.6980 H   0  0  0  0  0  0  0  0  0  0  0  0
   -4.4615   14.1416    9.8781 H   0  0  0  0  0  0  0  0  0  0  0  0
   -6.1739   13.8583   10.4995 H   0  0  0  0  0  0  0  0  0  0  0  0
   -5.2969   11.4218   10.6576 H   0  0  0  0  0  0  0  0  0  0  0  0
   -6.1280   12.8500   12.5970 H   0  0  0  0  0  0  0  0  0  0  0  0
   -4.5940   12.3100   13.1480 H   0  0  0  0  0  0  0  0  0  0  0  0
   -4.8050   13.7820   12.3690 H   0  0  0  0  0  0  0  0  0  0  0  0
  1  2  1  0
  2  3  1  0
  3  4  1  0
  4  5  1  0
  5  6  2  0
  5  7  1  0
  7  8  1  0
  8  9  1  0
  9 10  1  0
  9 11  1  0
 11 12  2  0
 11 13  1  0
  7  2  2  0
  1 14  1  0
  1 15  1  0
  1 16  1  0
  4 17  1  0
  8 18  1  0
  8 19  1  0
  9 20  1  6
 10 21  1  0
 10 22  1  0
 10 23  1  0
M  CHG  2  10   1  13  -1
M  END
>  <meeko>  (8) 
{"is_sidechain": [false], "free_energy": -5.896, "intermolecular_energy": -7.077, "internal_energy": -0.308}

$$$$
1p1q_ligand
     RDKit          3D

 23 23  0  0  0  0  0  0  0  0999 V2000
   -3.3760   11.5730   11.4840 C   0  0  0  0  0  0  0  0  0  0  0  0
   -4.8450   11.6900   11.2870 C   0  0  0  0  0  0  0  0  0  0  0  0
   -5.6260   11.4860   12.4170 O   0  0  0  0  0  0  0  0  0  0  0  0
   -6.9420   11.5760   11.9090 N   0  0  0  0  0  0  0  0  0  0  0  0
   -6.9120   12.0120   10.6130 C   0  0  0  0  0  0  0  0  0  0  0  0
   -7.8440   12.4360    9.9530 O   0  0  0  0  0  0  0  0  0  0  0  0
   -5.5160   11.9690   10.1680 C   0  0  0  0  0  0  0  0  0  0  0  0
   -5.1130   12.2490    8.7650 C   0  0  0  0  0  0  0  0  0  0  0  0
   -4.6350   13.6700    8.4890 C   0  0  2  0  0  0  0  0  0  0  0  0
   -3.1110   13.7070    8.6660 N   0  0  0  0  0  0  0  0  0  0  0  0
   -5.2340   14.7840    9.3980 C   0  0  0  0  0  0  0  0  0  0  0  0
   -4.5910   15.1350   10.4070 O   0  0  0  0  0  0  0  0  0  0  0  0
   -6.3670   15.1340    8.9230 O   0  0  0  0  0  0  0  0  0  0  0  0
   -3.1507   11.5551   12.5605 H   0  0  0  0  0  0  0  0  0  0  0  0
   -3.0165   10.6434   11.0186 H   0  0  0  0  0  0  0  0  0  0  0  0
   -2.8739   12.4340   11.0186 H   0  0  0  0  0  0  0  0  0  0  0  0
   -7.7030   11.8030   12.5320 H   0  0  0  0  0  0  0  0  0  0  0  0
   -4.2962   11.5602    8.5034 H   0  0  0  0  0  0  0  0  0  0  0  0
   -6.0203   12.1131    8.1581 H   0  0  0  0  0  0  0  0  0  0  0  0
   -4.9772   13.8938    7.4678 H   0  0  0  0  0  0  0  0  0  0  0  0
   -2.6090   14.0310    7.8370 H   0  0  0  0  0  0  0  0  0  0  0  0
   -2.7840   14.1060    9.5430 H   0  0  0  0  0  0  0  0  0  0  0  0
   -2.9140   12.6690    8.6860 H   0  0  0  0  0  0  0  0  0  0  0  0
  1  2  1  0
  2  3  1  0
  3  4  1  0
  4  5  1  0
  5  6  2  0
  5  7  1  0
  7  8  1  0
  8  9  1  0
  9 10  1  0
  9 11  1  0
 11 12  2  0
 11 13  1  0
  7  2  2  0
  1 14  1  0
  1 15  1  0
  1 16  1  0
  4 17  1  0
  8 18  1  0
  8 19  1  0
  9 20  1  6
 10 21  1  0
 10 22  1  0
 10 23  1  0
M  CHG  2  10   1  13  -1
M  END
>  <meeko>  (9) 
{"is_sidechain": [false], "free_energy": -5.684, "intermolecular_energy": -6.855, "internal_energy": -0.274}

$$$$
