
     RDKit          3D

 26 29  0  0  0  0  0  0  0  0999 V2000
   24.9690    0.7340    8.7780 C   0  0  0  0  0  0  0  0  0  0  0  0
   26.1590    0.9210    9.5880 N   0  0  0  0  0  0  0  0  0  0  0  0
   26.2850    2.0010   10.3850 C   0  0  0  0  0  0  0  0  0  0  0  0
   25.3060    2.8800   10.6280 N   0  0  0  0  0  0  0  0  0  0  0  0
   25.8510    3.8190   11.4210 C   0  0  0  0  0  0  0  0  0  0  0  0
   25.2880    4.9880   11.9470 C   0  0  0  0  0  0  0  0  0  0  0  0
   23.8310    5.3040   11.6720 C   0  0  0  0  0  0  0  0  0  0  0  0
   22.9000    4.4800   12.5650 C   0  0  0  0  0  0  0  0  0  0  0  0
   21.6060    4.1990   11.9050 N   0  0  0  0  0  0  0  0  0  0  0  0
   20.9040    5.4410   11.5110 C   0  0  0  0  0  0  0  0  0  0  0  0
   19.7070    5.1970   10.6080 C   0  0  1  0  0  0  0  0  0  0  0  0
   19.0780    6.5120   10.1890 C   0  0  0  0  0  0  0  0  0  0  0  0
   18.7150    6.4210    8.7520 C   0  0  0  0  0  0  0  0  0  0  0  0
   19.2320    5.1120    8.2430 C   0  0  0  0  0  0  0  0  0  0  0  0
   20.0820    4.5030    9.3320 C   0  0  0  0  0  0  0  0  0  0  0  0
   26.1090    5.8460   12.7390 C   0  0  0  0  0  0  0  0  0  0  0  0
   25.5900    7.0180   13.2610 N   0  0  0  0  0  0  0  0  0  0  0  0
   26.3910    7.8080   13.9590 C   0  0  0  0  0  0  0  0  0  0  0  0
   25.8720    8.9560   14.4510 N   0  0  0  0  0  0  0  0  0  0  0  0
   27.7030    7.5200   14.2090 N   0  0  0  0  0  0  0  0  0  0  0  0
   28.2730    6.3870   13.7480 C   0  0  0  0  0  0  0  0  0  0  0  0
   29.4740    6.1550   13.9960 O   0  0  0  0  0  0  0  0  0  0  0  0
   27.4760    5.4920   12.9690 C   0  0  0  0  0  0  0  0  0  0  0  0
   28.0040    4.3010   12.4390 C   0  0  0  0  0  0  0  0  0  0  0  0
   27.1720    3.4910   11.6650 C   0  0  0  0  0  0  0  0  0  0  0  0
   27.4180    2.3310   11.0150 N   0  0  0  0  0  0  0  0  0  0  0  0
  2  1  1  0
  3  2  1  0
  4  3  2  0
  5  4  1  0
  6  5  1  0
  7  6  1  0
  8  7  1  0
  9  8  1  0
 10  9  1  0
 11 10  1  1
 12 11  1  0
 13 12  1  0
 14 13  1  0
 15 14  1  0
 15 11  1  0
 16  6  2  0
 17 16  1  0
 18 17  2  0
 19 18  1  0
 20 18  1  0
 21 20  1  0
 22 21  2  0
 23 16  1  0
 23 21  1  0
 24 23  2  0
 25  5  2  0
 25 24  1  0
 26  3  1  0
 26 25  1  0
M  CHG  3   4   1   9   1  17   1
M  END
$$$$
