
     RDKit          3D

 47 50  0  0  0  0  0  0  0  0999 V2000
   -4.8570   11.0320   -6.7140 C   0  0  0  0  0  0  0  0  0  0  0  0
   -4.1660    9.8020   -6.7030 O   0  0  0  0  0  0  0  0  0  0  0  0
   -4.8930    8.6280   -6.6480 C   0  0  0  0  0  0  0  0  0  0  0  0
   -6.2240    8.5590   -7.0440 C   0  0  0  0  0  0  0  0  0  0  0  0
   -6.9160    7.3450   -6.9850 C   0  0  0  0  0  0  0  0  0  0  0  0
   -6.2580    6.2140   -6.5130 C   0  0  0  0  0  0  0  0  0  0  0  0
   -4.9250    6.3010   -6.1090 C   0  0  0  0  0  0  0  0  0  0  0  0
   -4.2230    5.0810   -5.5760 C   0  0  0  0  0  0  0  0  0  0  0  0
   -3.6930    5.3280   -4.2020 N   0  0  0  0  0  0  0  0  0  0  0  0
   -4.7150    5.6000   -3.1740 C   0  0  0  0  0  0  0  0  0  0  0  0
   -4.1460    6.3270   -1.9870 C   0  0  1  0  0  0  0  0  0  0  0  0
   -3.4800    7.4720   -2.4760 O   0  0  0  0  0  0  0  0  0  0  0  0
   -5.2380    6.7340   -0.9890 C   0  0  2  0  0  0  0  0  0  0  0  0
   -4.6760    7.6590    0.1270 C   0  0  0  0  0  0  0  0  0  0  0  0
   -5.6900    7.9120    1.2170 C   0  0  0  0  0  0  0  0  0  0  0  0
   -5.2920    7.8440    2.5780 C   0  0  0  0  0  0  0  0  0  0  0  0
   -6.2070    8.0970    3.6030 C   0  0  0  0  0  0  0  0  0  0  0  0
   -7.5400    8.4060    3.2730 C   0  0  0  0  0  0  0  0  0  0  0  0
   -7.9560    8.4830    1.9390 C   0  0  0  0  0  0  0  0  0  0  0  0
   -7.0230    8.2320    0.9230 C   0  0  0  0  0  0  0  0  0  0  0  0
   -5.7870    5.5430   -0.3200 N   0  0  0  0  0  0  0  0  0  0  0  0
   -7.0010    5.0120   -0.6230 C   0  0  0  0  0  0  0  0  0  0  0  0
   -7.6510    5.3650   -1.5910 O   0  0  0  0  0  0  0  0  0  0  0  0
   -7.5020    3.9760    0.2990 C   0  0  0  0  0  0  0  0  0  0  0  0
   -7.2390    4.1140    1.6560 C   0  0  0  0  0  0  0  0  0  0  0  0
   -7.6890    3.1640    2.5490 C   0  0  0  0  0  0  0  0  0  0  0  0
   -7.3630    3.3180    3.9980 C   0  0  0  0  0  0  0  0  0  0  0  0
   -8.0580    2.7810    4.8460 O   0  0  0  0  0  0  0  0  0  0  0  0
   -6.2670    4.0500    4.3030 N   0  0  0  0  0  0  0  0  0  0  0  0
   -5.8010    4.2100    5.6900 C   0  0  2  0  0  0  0  0  0  0  0  0
   -5.3050    5.6340    5.9000 C   0  0  0  0  0  0  0  0  0  0  0  0
   -4.7160    3.2090    5.9520 C   0  0  0  0  0  0  0  0  0  0  0  0
   -4.9060    2.2310    6.9270 C   0  0  0  0  0  0  0  0  0  0  0  0
   -3.9090    1.2980    7.1910 C   0  0  0  0  0  0  0  0  0  0  0  0
   -2.6970    1.3630    6.4650 C   0  0  0  0  0  0  0  0  0  0  0  0
   -2.5150    2.3210    5.4770 C   0  0  0  0  0  0  0  0  0  0  0  0
   -3.5200    3.2510    5.2220 C   0  0  0  0  0  0  0  0  0  0  0  0
   -8.4110    2.0790    2.1190 C   0  0  0  0  0  0  0  0  0  0  0  0
   -8.6750    1.8920    0.7690 C   0  0  0  0  0  0  0  0  0  0  0  0
   -9.3930    0.7610    0.3090 N   0  0  0  0  0  0  0  0  0  0  0  0
  -10.6180    0.9960   -0.4580 C   0  0  0  0  0  0  0  0  0  0  0  0
   -9.1380   -0.7600    0.8880 S   0  0  2  0  0  0  0  0  0  0  0  0
  -10.2020   -0.9920    2.2160 C   0  0  0  0  0  0  0  0  0  0  0  0
   -7.7670   -0.8780    1.3530 O   0  0  0  0  0  0  0  0  0  0  0  0
   -9.4610   -1.7130   -0.1530 O   0  0  0  0  0  0  0  0  0  0  0  0
   -8.2290    2.8610   -0.1460 C   0  0  0  0  0  0  0  0  0  0  0  0
   -4.2390    7.5090   -6.1860 C   0  0  0  0  0  0  0  0  0  0  0  0
  2  1  1  0
  3  2  1  0
  4  3  2  0
  5  4  1  0
  6  5  2  0
  7  6  1  0
  8  7  1  0
  9  8  1  0
 10  9  1  0
 11 10  1  0
 11 12  1  6
 13 11  1  0
 13 14  1  1
 15 14  1  0
 16 15  2  0
 17 16  1  0
 18 17  2  0
 19 18  1  0
 20 19  2  0
 20 15  1  0
 21 13  1  0
 22 21  1  0
 23 22  2  0
 24 22  1  0
 25 24  2  0
 26 25  1  0
 27 26  1  0
 28 27  2  0
 29 27  1  0
 30 29  1  0
 30 31  1  6
 32 30  1  0
 33 32  2  0
 34 33  1  0
 35 34  2  0
 36 35  1  0
 37 36  2  0
 37 32  1  0
 38 26  2  0
 39 38  1  0
 40 39  1  0
 41 40  1  0
 42 40  1  0
 42 43  1  1
 44 42  2  0
 45 42  2  0
 46 39  2  0
 46 24  1  0
 47  7  2  0
 47  3  1  0
M  CHG  1   9   1
M  END
$$$$
