
     RDKit          3D

 16 17  0  0  0  0  0  0  0  0999 V2000
   -5.3950   -4.8420   -1.4650 C   0  0  0  0  0  0  0  0  0  0  0  0
   -6.8450   -5.2740   -1.4750 C   0  0  2  0  0  0  0  0  0  0  0  0
   -7.0700   -6.3710   -2.3810 N   0  0  0  0  0  0  0  0  0  0  0  0
   -8.4640   -6.2570   -2.8200 C   0  0  1  0  0  0  0  0  0  0  0  0
   -9.2140   -7.5160   -2.5960 C   0  0  0  0  0  0  0  0  0  0  0  0
   -9.8200   -8.5420   -2.3830 C   0  0  0  0  0  0  0  0  0  0  0  0
  -10.5350   -9.7490   -2.1130 C   0  0  0  0  0  0  0  0  0  0  0  0
  -11.8800   -9.7130   -1.7560 C   0  0  0  0  0  0  0  0  0  0  0  0
  -12.5610  -10.8840   -1.4610 C   0  0  0  0  0  0  0  0  0  0  0  0
  -11.9110  -12.0890   -1.5300 C   0  0  0  0  0  0  0  0  0  0  0  0
  -10.5830  -12.1400   -1.8980 C   0  0  0  0  0  0  0  0  0  0  0  0
   -9.8960  -10.9710   -2.1920 C   0  0  0  0  0  0  0  0  0  0  0  0
   -9.0430   -5.0940   -2.0540 C   0  0  2  0  0  0  0  0  0  0  0  0
  -10.1040   -4.4910   -2.7240 O   0  0  0  0  0  0  0  0  0  0  0  0
   -7.8250   -4.2400   -1.9270 C   0  0  2  0  0  0  0  0  0  0  0  0
   -7.4640   -3.6810   -3.1820 O   0  0  0  0  0  0  0  0  0  0  0  0
  2  1  1  6
  3  2  1  0
  4  3  1  0
  4  5  1  1
  6  5  3  0
  7  6  1  0
  8  7  2  0
  9  8  1  0
 10  9  2  0
 11 10  1  0
 12 11  2  0
 12  7  1  0
 13  4  1  0
 13 14  1  6
 15 13  1  0
 15  2  1  0
 15 16  1  6
M  CHG  1   3   1
M  END
$$$$
