
     RDKit          3D

 25 28  0  0  0  0  0  0  0  0999 V2000
   -2.2430  -11.9460    0.0980 C   0  0  0  0  0  0  0  0  0  0  0  0
   -2.1790  -10.4180    0.1550 C   0  0  1  0  0  0  0  0  0  0  0  0
   -1.0980   -9.9640   -0.6180 O   0  0  0  0  0  0  0  0  0  0  0  0
   -3.4370   -9.8050   -0.3930 C   0  0  0  0  0  0  0  0  0  0  0  0
   -4.1570  -10.3350   -1.3760 N   0  0  0  0  0  0  0  0  0  0  0  0
   -5.1850   -9.5020   -1.6190 C   0  0  0  0  0  0  0  0  0  0  0  0
   -6.2170   -9.5820   -2.5530 C   0  0  0  0  0  0  0  0  0  0  0  0
   -7.1610   -8.6070   -2.6320 N   0  0  0  0  0  0  0  0  0  0  0  0
   -7.0930   -7.5780   -1.7940 C   0  0  0  0  0  0  0  0  0  0  0  0
   -7.9260   -6.5290   -1.7110 N   0  0  0  0  0  0  0  0  0  0  0  0
   -7.4880   -5.7110   -0.7210 C   0  0  0  0  0  0  0  0  0  0  0  0
   -6.3660   -6.2390   -0.1660 C   0  0  0  0  0  0  0  0  0  0  0  0
   -6.0790   -7.4280   -0.8200 C   0  0  0  0  0  0  0  0  0  0  0  0
   -5.1020   -8.4240   -0.7420 C   0  0  0  0  0  0  0  0  0  0  0  0
   -3.9750   -8.6400    0.0250 N   0  0  0  0  0  0  0  0  0  0  0  0
   -3.3800   -7.8460    1.0760 C   0  0  2  0  0  0  0  0  0  0  0  0
   -4.2240   -7.8700    2.3420 C   0  0  0  0  0  0  0  0  0  0  0  0
   -3.5290   -7.1230    3.4490 C   0  0  0  0  0  0  0  0  0  0  0  0
   -3.2160   -5.7000    3.0880 C   0  0  1  0  0  0  0  0  0  0  0  0
   -2.4660   -4.9630    4.1660 C   0  0  0  0  0  0  0  0  0  0  0  0
   -2.6910   -5.4340    5.5700 C   0  0  0  0  0  0  0  0  0  0  0  0
   -3.6700   -4.6380    6.2850 C   0  0  0  0  0  0  0  0  0  0  0  0
   -4.4670   -3.9920    6.8580 N   0  0  0  0  0  0  0  0  0  0  0  0
   -2.3980   -5.6810    1.8010 C   0  0  0  0  0  0  0  0  0  0  0  0
   -3.0650   -6.4300    0.6590 C   0  0  0  0  0  0  0  0  0  0  0  0
  2  1  1  6
  3  2  1  0
  4  2  1  0
  5  4  2  0
  6  5  1  0
  7  6  2  0
  8  7  1  0
  9  8  2  0
 10  9  1  0
 11 10  1  0
 12 11  2  0
 13 12  1  0
 13  9  1  0
 14 13  2  0
 14  6  1  0
 15 14  1  0
 15  4  1  0
 16 15  1  6
 17 16  1  0
 18 17  1  0
 19 18  1  0
 19 20  1  1
 21 20  1  0
 22 21  1  0
 23 22  3  0
 24 19  1  0
 25 24  1  0
 25 16  1  0
M  END
$$$$
