
     RDKit          3D

 20 22  0  0  0  0  0  0  0  0999 V2000
   -4.1430    5.3000   -1.0530 C   0  0  0  0  0  0  0  0  0  0  0  0
   -2.7810    4.8640   -1.5330 C   0  0  0  0  0  0  0  0  0  0  0  0
   -2.4960    3.5150   -1.6230 C   0  0  0  0  0  0  0  0  0  0  0  0
   -1.2290    3.0600   -2.0760 C   0  0  0  0  0  0  0  0  0  0  0  0
   -0.9480    1.8510   -2.1700 O   0  0  0  0  0  0  0  0  0  0  0  0
   -0.2740    3.9820   -2.4180 N   0  0  0  0  0  0  0  0  0  0  0  0
   -0.5060    5.3290   -2.3340 C   0  0  0  0  0  0  0  0  0  0  0  0
    0.5130    6.2270   -2.6840 C   0  0  0  0  0  0  0  0  0  0  0  0
    0.2930    7.6120   -2.6290 C   0  0  0  0  0  0  0  0  0  0  0  0
    1.3620    8.5800   -2.9480 C   0  0  0  0  0  0  0  0  0  0  0  0
    1.8970    9.3600   -1.9080 C   0  0  0  0  0  0  0  0  0  0  0  0
    2.9000   10.2890   -2.1450 C   0  0  0  0  0  0  0  0  0  0  0  0
    3.3860   10.4520   -3.4300 C   0  0  0  0  0  0  0  0  0  0  0  0
    4.3870   11.3830   -3.6630 N   0  0  0  0  0  0  0  0  0  0  0  0
    2.8770    9.6930   -4.4860 C   0  0  0  0  0  0  0  0  0  0  0  0
    1.8780    8.7600   -4.2530 C   0  0  0  0  0  0  0  0  0  0  0  0
    1.2450    7.8070   -5.5910 Cl  0  0  0  0  0  0  0  0  0  0  0  0
   -0.9650    8.0810   -2.1850 C   0  0  0  0  0  0  0  0  0  0  0  0
   -1.9740    7.2110   -1.8360 C   0  0  0  0  0  0  0  0  0  0  0  0
   -1.7790    5.8130   -1.8910 C   0  0  0  0  0  0  0  0  0  0  0  0
  2  1  1  0
  3  2  2  0
  4  3  1  0
  5  4  2  0
  6  4  1  0
  7  6  1  0
  8  7  1  0
  9  8  2  0
 10  9  1  0
 11 10  2  0
 12 11  1  0
 13 12  2  0
 14 13  1  0
 15 13  1  0
 16 15  2  0
 16 10  1  0
 17 16  1  0
 18  9  1  0
 19 18  2  0
 20  7  2  0
 20  2  1  0
 20 19  1  0
M  END
$$$$
