2brb_ligand
     RDKit          3D

 42 45  0  0  0  0  0  0  0  0999 V2000
   12.5190  -10.4370    4.2310 O   0  0  0  0  0  0  0  0  0  0  0  0
   11.9720   -9.1600    4.5570 C   0  0  0  0  0  0  0  0  0  0  0  0
   10.6920   -8.9030    3.7570 C   0  0  0  0  0  0  0  0  0  0  0  0
   10.1230  -10.1340    3.2290 N   0  0  0  0  0  0  0  0  0  0  0  0
   10.1650  -10.3300    1.8530 C   0  0  0  0  0  0  0  0  0  0  0  0
   11.3640  -10.3840    1.2210 N   0  0  0  0  0  0  0  0  0  0  0  0
   11.4000  -10.6240   -0.1040 C   0  0  0  0  0  0  0  0  0  0  0  0
   10.3710  -10.8250   -0.9290 N   0  0  0  0  0  0  0  0  0  0  0  0
    9.2050  -10.7550   -0.2750 C   0  0  0  0  0  0  0  0  0  0  0  0
    8.0110  -10.9410   -0.8960 O   0  0  0  0  0  0  0  0  0  0  0  0
    7.0200  -10.8070    0.0380 C   0  0  0  0  0  0  0  0  0  0  0  0
    5.6650  -10.9820   -0.4860 C   0  0  0  0  0  0  0  0  0  0  0  0
    4.7210  -11.7890    0.1660 C   0  0  0  0  0  0  0  0  0  0  0  0
    3.4330  -11.9500   -0.3530 C   0  0  0  0  0  0  0  0  0  0  0  0
    3.0670  -11.3030   -1.5310 C   0  0  0  0  0  0  0  0  0  0  0  0
    3.9870  -10.4920   -2.1880 C   0  0  0  0  0  0  0  0  0  0  0  0
    5.2740  -10.3330   -1.6690 C   0  0  0  0  0  0  0  0  0  0  0  0
    7.5920  -10.5220    1.2710 C   0  0  0  0  0  0  0  0  0  0  0  0
    6.8480  -10.3220    2.4960 C   0  0  0  0  0  0  0  0  0  0  0  0
    6.8180  -11.3320    3.4660 C   0  0  0  0  0  0  0  0  0  0  0  0
    6.0880  -11.1500    4.6410 C   0  0  0  0  0  0  0  0  0  0  0  0
    5.3870   -9.9630    4.8510 C   0  0  0  0  0  0  0  0  0  0  0  0
    5.4140   -8.9550    3.8860 C   0  0  0  0  0  0  0  0  0  0  0  0
    6.1420   -9.1340    2.7090 C   0  0  0  0  0  0  0  0  0  0  0  0
    9.0100  -10.5070    1.0740 C   0  0  0  0  0  0  0  0  0  0  0  0
   12.0200  -11.0940    4.7460 H   0  0  0  0  0  0  0  0  0  0  0  0
   11.7391   -9.1300    5.6316 H   0  0  0  0  0  0  0  0  0  0  0  0
   12.7095   -8.3833    4.3062 H   0  0  0  0  0  0  0  0  0  0  0  0
    9.9523   -8.4233    4.4148 H   0  0  0  0  0  0  0  0  0  0  0  0
   10.9475   -8.2543    2.9061 H   0  0  0  0  0  0  0  0  0  0  0  0
    9.2600  -10.4370    3.6660 H   0  0  0  0  0  0  0  0  0  0  0  0
   12.3997  -10.6585   -0.5616 H   0  0  0  0  0  0  0  0  0  0  0  0
    4.9980  -12.3023    1.0986 H   0  0  0  0  0  0  0  0  0  0  0  0
    2.7067  -12.5893    0.1702 H   0  0  0  0  0  0  0  0  0  0  0  0
    2.0543  -11.4328   -1.9403 H   0  0  0  0  0  0  0  0  0  0  0  0
    3.7008   -9.9759   -3.1163 H   0  0  0  0  0  0  0  0  0  0  0  0
    5.9935   -9.6887   -2.1955 H   0  0  0  0  0  0  0  0  0  0  0  0
    7.3702  -12.2690    3.3013 H   0  0  0  0  0  0  0  0  0  0  0  0
    6.0654  -11.9436    5.4024 H   0  0  0  0  0  0  0  0  0  0  0  0
    4.8122   -9.8209    5.7781 H   0  0  0  0  0  0  0  0  0  0  0  0
    4.8611   -8.0189    4.0533 H   0  0  0  0  0  0  0  0  0  0  0  0
    6.1605   -8.3398    1.9481 H   0  0  0  0  0  0  0  0  0  0  0  0
  1  2  1  0
  2  3  1  0
  3  4  1  0
  4  5  1  0
  5  6  2  0
  6  7  1  0
  7  8  2  0
  8  9  1  0
  9 10  1  0
 10 11  1  0
 11 12  1  0
 12 13  2  0
 13 14  1  0
 14 15  2  0
 15 16  1  0
 16 17  2  0
 11 18  2  0
 18 19  1  0
 19 20  2  0
 20 21  1  0
 21 22  2  0
 22 23  1  0
 23 24  2  0
 18 25  1  0
 25  5  1  0
 25  9  2  0
 17 12  1  0
 24 19  1  0
  1 26  1  0
  2 27  1  0
  2 28  1  0
  3 29  1  0
  3 30  1  0
  4 31  1  0
  7 32  1  0
 13 33  1  0
 14 34  1  0
 15 35  1  0
 16 36  1  0
 17 37  1  0
 20 38  1  0
 21 39  1  0
 22 40  1  0
 23 41  1  0
 24 42  1  0
M  END
>  <meeko>  (1) 
{"is_sidechain": [false], "free_energy": -8.16, "intermolecular_energy": -10.784, "internal_energy": -1.421}

$$$$
2brb_ligand
     RDKit          3D

 42 45  0  0  0  0  0  0  0  0999 V2000
    1.6470  -10.1170    4.5940 O   0  0  0  0  0  0  0  0  0  0  0  0
    2.0110  -11.4970    4.5930 C   0  0  0  0  0  0  0  0  0  0  0  0
    2.2490  -11.9890    3.1630 C   0  0  0  0  0  0  0  0  0  0  0  0
    2.4230  -10.8870    2.2290 N   0  0  0  0  0  0  0  0  0  0  0  0
    3.2460  -11.0950    1.1270 C   0  0  0  0  0  0  0  0  0  0  0  0
    2.7000  -11.4670   -0.0570 N   0  0  0  0  0  0  0  0  0  0  0  0
    3.4960  -11.6180   -1.1330 C   0  0  0  0  0  0  0  0  0  0  0  0
    4.8180  -11.4470   -1.2040 N   0  0  0  0  0  0  0  0  0  0  0  0
    5.3250  -11.0900   -0.0180 C   0  0  0  0  0  0  0  0  0  0  0  0
    6.6490  -10.8430    0.1620 O   0  0  0  0  0  0  0  0  0  0  0  0
    6.8440  -10.5050    1.4740 C   0  0  0  0  0  0  0  0  0  0  0  0
    8.2330  -10.2060    1.8230 C   0  0  0  0  0  0  0  0  0  0  0  0
    8.5630   -9.4590    2.9630 C   0  0  0  0  0  0  0  0  0  0  0  0
    9.8970   -9.1780    3.2760 C   0  0  0  0  0  0  0  0  0  0  0  0
   10.9220   -9.6440    2.4570 C   0  0  0  0  0  0  0  0  0  0  0  0
   10.6150  -10.3940    1.3260 C   0  0  0  0  0  0  0  0  0  0  0  0
    9.2820  -10.6730    1.0130 C   0  0  0  0  0  0  0  0  0  0  0  0
    5.6270  -10.5470    2.1410 C   0  0  0  0  0  0  0  0  0  0  0  0
    5.4470  -10.2400    3.5440 C   0  0  0  0  0  0  0  0  0  0  0  0
    5.7160  -11.2190    4.5110 C   0  0  0  0  0  0  0  0  0  0  0  0
    5.5280  -10.9340    5.8630 C   0  0  0  0  0  0  0  0  0  0  0  0
    5.0720   -9.6750    6.2550 C   0  0  0  0  0  0  0  0  0  0  0  0
    4.8020   -8.6990    5.2950 C   0  0  0  0  0  0  0  0  0  0  0  0
    4.9880   -8.9810    3.9400 C   0  0  0  0  0  0  0  0  0  0  0  0
    4.6380  -10.9080    1.1710 C   0  0  0  0  0  0  0  0  0  0  0  0
    2.0950   -9.7100    3.8320 H   0  0  0  0  0  0  0  0  0  0  0  0
    2.9326  -11.6285    5.1789 H   0  0  0  0  0  0  0  0  0  0  0  0
    1.1916  -12.0808    5.0378 H   0  0  0  0  0  0  0  0  0  0  0  0
    3.1546  -12.6132    3.1484 H   0  0  0  0  0  0  0  0  0  0  0  0
    1.3646  -12.5633    2.8498 H   0  0  0  0  0  0  0  0  0  0  0  0
    2.5140   -9.9700    2.6490 H   0  0  0  0  0  0  0  0  0  0  0  0
    2.9964  -11.9185   -2.0658 H   0  0  0  0  0  0  0  0  0  0  0  0
    7.7620   -9.0891    3.6199 H   0  0  0  0  0  0  0  0  0  0  0  0
   10.1371   -8.5869    4.1721 H   0  0  0  0  0  0  0  0  0  0  0  0
   11.9705   -9.4201    2.7032 H   0  0  0  0  0  0  0  0  0  0  0  0
   11.4217  -10.7674    0.6781 H   0  0  0  0  0  0  0  0  0  0  0  0
    9.0500  -11.2682    0.1175 H   0  0  0  0  0  0  0  0  0  0  0  0
    6.0754  -12.2120    4.2031 H   0  0  0  0  0  0  0  0  0  0  0  0
    5.7394  -11.7025    6.6211 H   0  0  0  0  0  0  0  0  0  0  0  0
    4.9252   -9.4516    7.3220 H   0  0  0  0  0  0  0  0  0  0  0  0
    4.4425   -7.7069    5.6057 H   0  0  0  0  0  0  0  0  0  0  0  0
    4.7730   -8.2115    3.1839 H   0  0  0  0  0  0  0  0  0  0  0  0
  1  2  1  0
  2  3  1  0
  3  4  1  0
  4  5  1  0
  5  6  2  0
  6  7  1  0
  7  8  2  0
  8  9  1  0
  9 10  1  0
 10 11  1  0
 11 12  1  0
 12 13  2  0
 13 14  1  0
 14 15  2  0
 15 16  1  0
 16 17  2  0
 11 18  2  0
 18 19  1  0
 19 20  2  0
 20 21  1  0
 21 22  2  0
 22 23  1  0
 23 24  2  0
 18 25  1  0
 25  5  1  0
 25  9  2  0
 17 12  1  0
 24 19  1  0
  1 26  1  0
  2 27  1  0
  2 28  1  0
  3 29  1  0
  3 30  1  0
  4 31  1  0
  7 32  1  0
 13 33  1  0
 14 34  1  0
 15 35  1  0
 16 36  1  0
 17 37  1  0
 20 38  1  0
 21 39  1  0
 22 40  1  0
 23 41  1  0
 24 42  1  0
M  END
>  <meeko>  (2) 
{"is_sidechain": [false], "free_energy": -7.808, "intermolecular_energy": -10.187, "internal_energy": -1.554}

$$$$
2brb_ligand
     RDKit          3D

 42 45  0  0  0  0  0  0  0  0999 V2000
    0.2630  -11.2210    4.6580 O   0  0  0  0  0  0  0  0  0  0  0  0
    0.4330  -12.3330    3.7790 C   0  0  0  0  0  0  0  0  0  0  0  0
    1.8540  -12.3560    3.2110 C   0  0  0  0  0  0  0  0  0  0  0  0
    2.4470  -11.0270    3.1690 N   0  0  0  0  0  0  0  0  0  0  0  0
    3.5370  -10.7780    3.9970 C   0  0  0  0  0  0  0  0  0  0  0  0
    3.3500  -10.6710    5.3360 N   0  0  0  0  0  0  0  0  0  0  0  0
    4.4150  -10.4800    6.1380 C   0  0  0  0  0  0  0  0  0  0  0  0
    5.6980  -10.3720    5.7840 N   0  0  0  0  0  0  0  0  0  0  0  0
    5.8450  -10.4730    4.4570 C   0  0  0  0  0  0  0  0  0  0  0  0
    7.0600  -10.4090    3.8540 O   0  0  0  0  0  0  0  0  0  0  0  0
    6.8730  -10.5440    2.5050 C   0  0  0  0  0  0  0  0  0  0  0  0
    8.1030  -10.4970    1.7140 C   0  0  0  0  0  0  0  0  0  0  0  0
    8.2290  -11.1940    0.5050 C   0  0  0  0  0  0  0  0  0  0  0  0
    9.4160  -11.1430   -0.2340 C   0  0  0  0  0  0  0  0  0  0  0  0
   10.4930  -10.3880    0.2240 C   0  0  0  0  0  0  0  0  0  0  0  0
   10.3840   -9.6820    1.4170 C   0  0  0  0  0  0  0  0  0  0  0  0
    9.1990   -9.7350    2.1550 C   0  0  0  0  0  0  0  0  0  0  0  0
    5.5160  -10.6850    2.2450 C   0  0  0  0  0  0  0  0  0  0  0  0
    4.9440  -10.8570    0.9270 C   0  0  0  0  0  0  0  0  0  0  0  0
    5.1100   -9.8570   -0.0410 C   0  0  0  0  0  0  0  0  0  0  0  0
    4.5470  -10.0110   -1.3080 C   0  0  0  0  0  0  0  0  0  0  0  0
    3.8180  -11.1610   -1.6120 C   0  0  0  0  0  0  0  0  0  0  0  0
    3.6500  -12.1580   -0.6510 C   0  0  0  0  0  0  0  0  0  0  0  0
    4.2110  -12.0070    0.6180 C   0  0  0  0  0  0  0  0  0  0  0  0
    4.8490  -10.6580    3.5120 C   0  0  0  0  0  0  0  0  0  0  0  0
    0.3180  -11.5720    5.5640 H   0  0  0  0  0  0  0  0  0  0  0  0
    0.2503  -13.2646    4.3346 H   0  0  0  0  0  0  0  0  0  0  0  0
   -0.2808  -12.2408    2.9471 H   0  0  0  0  0  0  0  0  0  0  0  0
    2.4787  -13.0036    3.8437 H   0  0  0  0  0  0  0  0  0  0  0  0
    1.8014  -12.7369    2.1804 H   0  0  0  0  0  0  0  0  0  0  0  0
    1.7900  -10.2590    3.1040 H   0  0  0  0  0  0  0  0  0  0  0  0
    4.2023  -10.4038    7.2145 H   0  0  0  0  0  0  0  0  0  0  0  0
    7.3829  -11.7896    0.1317 H   0  0  0  0  0  0  0  0  0  0  0  0
    9.4987  -11.7004   -1.1787 H   0  0  0  0  0  0  0  0  0  0  0  0
   11.4268  -10.3503   -0.3561 H   0  0  0  0  0  0  0  0  0  0  0  0
   11.2312   -9.0815    1.7798 H   0  0  0  0  0  0  0  0  0  0  0  0
    9.1223   -9.1713    3.0965 H   0  0  0  0  0  0  0  0  0  0  0  0
    5.6846   -8.9501    0.1986 H   0  0  0  0  0  0  0  0  0  0  0  0
    4.6778   -9.2259   -2.0672 H   0  0  0  0  0  0  0  0  0  0  0  0
    3.3748  -11.2818   -2.6115 H   0  0  0  0  0  0  0  0  0  0  0  0
    3.0750  -13.0638   -0.8935 H   0  0  0  0  0  0  0  0  0  0  0  0
    4.0764  -12.7931    1.3756 H   0  0  0  0  0  0  0  0  0  0  0  0
  1  2  1  0
  2  3  1  0
  3  4  1  0
  4  5  1  0
  5  6  2  0
  6  7  1  0
  7  8  2  0
  8  9  1  0
  9 10  1  0
 10 11  1  0
 11 12  1  0
 12 13  2  0
 13 14  1  0
 14 15  2  0
 15 16  1  0
 16 17  2  0
 11 18  2  0
 18 19  1  0
 19 20  2  0
 20 21  1  0
 21 22  2  0
 22 23  1  0
 23 24  2  0
 18 25  1  0
 25  5  1  0
 25  9  2  0
 17 12  1  0
 24 19  1  0
  1 26  1  0
  2 27  1  0
  2 28  1  0
  3 29  1  0
  3 30  1  0
  4 31  1  0
  7 32  1  0
 13 33  1  0
 14 34  1  0
 15 35  1  0
 16 36  1  0
 17 37  1  0
 20 38  1  0
 21 39  1  0
 22 40  1  0
 23 41  1  0
 24 42  1  0
M  END
>  <meeko>  (3) 
{"is_sidechain": [false], "free_energy": -7.549, "intermolecular_energy": -10.409, "internal_energy": -0.988}

$$$$
2brb_ligand
     RDKit          3D

 42 45  0  0  0  0  0  0  0  0999 V2000
    3.4390   -7.8490    4.9460 O   0  0  0  0  0  0  0  0  0  0  0  0
    4.6290   -8.3440    5.5580 C   0  0  0  0  0  0  0  0  0  0  0  0
    4.3600   -9.6770    6.2610 C   0  0  0  0  0  0  0  0  0  0  0  0
    4.7070  -10.8150    5.4240 N   0  0  0  0  0  0  0  0  0  0  0  0
    3.7920  -11.2080    4.4530 C   0  0  0  0  0  0  0  0  0  0  0  0
    2.5470  -11.5980    4.8240 N   0  0  0  0  0  0  0  0  0  0  0  0
    1.6490  -11.9290    3.8770 C   0  0  0  0  0  0  0  0  0  0  0  0
    1.8190  -11.9320    2.5530 N   0  0  0  0  0  0  0  0  0  0  0  0
    3.0590  -11.5520    2.2220 C   0  0  0  0  0  0  0  0  0  0  0  0
    3.4710  -11.4610    0.9310 O   0  0  0  0  0  0  0  0  0  0  0  0
    4.7760  -11.0510    0.9290 C   0  0  0  0  0  0  0  0  0  0  0  0
    5.3640  -10.9030   -0.4030 C   0  0  0  0  0  0  0  0  0  0  0  0
    6.6500  -11.3780   -0.6980 C   0  0  0  0  0  0  0  0  0  0  0  0
    7.1980  -11.2210   -1.9750 C   0  0  0  0  0  0  0  0  0  0  0  0
    6.4650  -10.5920   -2.9790 C   0  0  0  0  0  0  0  0  0  0  0  0
    5.1840  -10.1220   -2.7080 C   0  0  0  0  0  0  0  0  0  0  0  0
    4.6380  -10.2770   -1.4310 C   0  0  0  0  0  0  0  0  0  0  0  0
    5.2040  -10.8880    2.2400 C   0  0  0  0  0  0  0  0  0  0  0  0
    6.5310  -10.4550    2.6240 C   0  0  0  0  0  0  0  0  0  0  0  0
    6.8500   -9.0910    2.6110 C   0  0  0  0  0  0  0  0  0  0  0  0
    8.1320   -8.6700    2.9650 C   0  0  0  0  0  0  0  0  0  0  0  0
    9.0990   -9.6080    3.3290 C   0  0  0  0  0  0  0  0  0  0  0  0
    8.7850  -10.9670    3.3430 C   0  0  0  0  0  0  0  0  0  0  0  0
    7.5030  -11.3920    2.9890 C   0  0  0  0  0  0  0  0  0  0  0  0
    4.0860  -11.1940    3.0800 C   0  0  0  0  0  0  0  0  0  0  0  0
    2.6940   -8.1920    5.4700 H   0  0  0  0  0  0  0  0  0  0  0  0
    5.3981   -8.4916    4.7855 H   0  0  0  0  0  0  0  0  0  0  0  0
    4.9739   -7.6132    6.3043 H   0  0  0  0  0  0  0  0  0  0  0  0
    4.9582   -9.7191    7.1832 H   0  0  0  0  0  0  0  0  0  0  0  0
    3.2838   -9.7334    6.4815 H   0  0  0  0  0  0  0  0  0  0  0  0
    5.1630  -11.5830    5.9010 H   0  0  0  0  0  0  0  0  0  0  0  0
    0.6555  -12.2337    4.2378 H   0  0  0  0  0  0  0  0  0  0  0  0
    7.2356  -11.8809    0.0857 H   0  0  0  0  0  0  0  0  0  0  0  0
    8.2104  -11.5951   -2.1873 H   0  0  0  0  0  0  0  0  0  0  0  0
    6.8977  -10.4674   -3.9826 H   0  0  0  0  0  0  0  0  0  0  0  0
    4.6007   -9.6282   -3.4992 H   0  0  0  0  0  0  0  0  0  0  0  0
    3.6238   -9.9031   -1.2270 H   0  0  0  0  0  0  0  0  0  0  0  0
    6.0890   -8.3514    2.3214 H   0  0  0  0  0  0  0  0  0  0  0  0
    8.3807   -7.5985    2.9572 H   0  0  0  0  0  0  0  0  0  0  0  0
   10.1104   -9.2752    3.6053 H   0  0  0  0  0  0  0  0  0  0  0  0
    9.5479  -11.7044    3.6331 H   0  0  0  0  0  0  0  0  0  0  0  0
    7.2574  -12.4642    2.9972 H   0  0  0  0  0  0  0  0  0  0  0  0
  1  2  1  0
  2  3  1  0
  3  4  1  0
  4  5  1  0
  5  6  2  0
  6  7  1  0
  7  8  2  0
  8  9  1  0
  9 10  1  0
 10 11  1  0
 11 12  1  0
 12 13  2  0
 13 14  1  0
 14 15  2  0
 15 16  1  0
 16 17  2  0
 11 18  2  0
 18 19  1  0
 19 20  2  0
 20 21  1  0
 21 22  2  0
 22 23  1  0
 23 24  2  0
 18 25  1  0
 25  5  1  0
 25  9  2  0
 17 12  1  0
 24 19  1  0
  1 26  1  0
  2 27  1  0
  2 28  1  0
  3 29  1  0
  3 30  1  0
  4 31  1  0
  7 32  1  0
 13 33  1  0
 14 34  1  0
 15 35  1  0
 16 36  1  0
 17 37  1  0
 20 38  1  0
 21 39  1  0
 22 40  1  0
 23 41  1  0
 24 42  1  0
M  END
>  <meeko>  (4) 
{"is_sidechain": [false], "free_energy": -7.538, "intermolecular_energy": -9.928, "internal_energy": -1.455}

$$$$
2brb_ligand
     RDKit          3D

 42 45  0  0  0  0  0  0  0  0999 V2000
    0.3500  -11.2320    4.6440 O   0  0  0  0  0  0  0  0  0  0  0  0
    0.5330  -12.3610    3.7900 C   0  0  0  0  0  0  0  0  0  0  0  0
    1.9440  -12.3620    3.1960 C   0  0  0  0  0  0  0  0  0  0  0  0
    2.5280  -11.0290    3.1750 N   0  0  0  0  0  0  0  0  0  0  0  0
    3.6250  -10.7890    3.9960 C   0  0  0  0  0  0  0  0  0  0  0  0
    3.4510  -10.6960    5.3380 N   0  0  0  0  0  0  0  0  0  0  0  0
    4.5230  -10.5140    6.1320 C   0  0  0  0  0  0  0  0  0  0  0  0
    5.8020  -10.4040    5.7680 N   0  0  0  0  0  0  0  0  0  0  0  0
    5.9380  -10.4910    4.4390 C   0  0  0  0  0  0  0  0  0  0  0  0
    7.1480  -10.4230    3.8260 O   0  0  0  0  0  0  0  0  0  0  0  0
    6.9490  -10.5440    2.4780 C   0  0  0  0  0  0  0  0  0  0  0  0
    8.1720  -10.4900    1.6770 C   0  0  0  0  0  0  0  0  0  0  0  0
    9.2930   -9.7550    2.0890 C   0  0  0  0  0  0  0  0  0  0  0  0
   10.4500   -9.7090    1.3060 C   0  0  0  0  0  0  0  0  0  0  0  0
   10.5070  -10.4030    0.1000 C   0  0  0  0  0  0  0  0  0  0  0  0
    9.4090  -11.1450   -0.3220 C   0  0  0  0  0  0  0  0  0  0  0  0
    8.2520  -11.1890    0.4600 C   0  0  0  0  0  0  0  0  0  0  0  0
    5.5890  -10.6810    2.2280 C   0  0  0  0  0  0  0  0  0  0  0  0
    5.0070  -10.8390    0.9130 C   0  0  0  0  0  0  0  0  0  0  0  0
    4.3550  -12.0340    0.5790 C   0  0  0  0  0  0  0  0  0  0  0  0
    3.8060  -12.1980   -0.6930 C   0  0  0  0  0  0  0  0  0  0  0  0
    3.9070  -11.1730   -1.6340 C   0  0  0  0  0  0  0  0  0  0  0  0
    4.5560   -9.9830   -1.3050 C   0  0  0  0  0  0  0  0  0  0  0  0
    5.1070   -9.8150   -0.0330 C   0  0  0  0  0  0  0  0  0  0  0  0
    4.9340  -10.6660    3.5010 C   0  0  0  0  0  0  0  0  0  0  0  0
   -0.2050  -11.5310    5.3850 H   0  0  0  0  0  0  0  0  0  0  0  0
    0.3847  -13.2826    4.3719 H   0  0  0  0  0  0  0  0  0  0  0  0
   -0.1979  -12.3082    2.9696 H   0  0  0  0  0  0  0  0  0  0  0  0
    2.5838  -13.0205    3.8018 H   0  0  0  0  0  0  0  0  0  0  0  0
    1.8752  -12.7191    2.1578 H   0  0  0  0  0  0  0  0  0  0  0  0
    1.8660  -10.2640    3.1330 H   0  0  0  0  0  0  0  0  0  0  0  0
    4.3199  -10.4480    7.2111 H   0  0  0  0  0  0  0  0  0  0  0  0
    9.2613   -9.2068    3.0421 H   0  0  0  0  0  0  0  0  0  0  0  0
   11.3177   -9.1231    1.6433 H   0  0  0  0  0  0  0  0  0  0  0  0
   11.4171  -10.3645   -0.5166 H   0  0  0  0  0  0  0  0  0  0  0  0
    9.4515  -11.6976   -1.2721 H   0  0  0  0  0  0  0  0  0  0  0  0
    7.3898  -11.7802    0.1178 H   0  0  0  0  0  0  0  0  0  0  0  0
    4.2762  -12.8429    1.3202 H   0  0  0  0  0  0  0  0  0  0  0  0
    3.2934  -13.1356   -0.9540 H   0  0  0  0  0  0  0  0  0  0  0  0
    3.4742  -11.3035   -2.6368 H   0  0  0  0  0  0  0  0  0  0  0  0
    4.6338   -9.1760   -2.0484 H   0  0  0  0  0  0  0  0  0  0  0  0
    5.6199   -8.8766    0.2246 H   0  0  0  0  0  0  0  0  0  0  0  0
  1  2  1  0
  2  3  1  0
  3  4  1  0
  4  5  1  0
  5  6  2  0
  6  7  1  0
  7  8  2  0
  8  9  1  0
  9 10  1  0
 10 11  1  0
 11 12  1  0
 12 13  2  0
 13 14  1  0
 14 15  2  0
 15 16  1  0
 16 17  2  0
 11 18  2  0
 18 19  1  0
 19 20  2  0
 20 21  1  0
 21 22  2  0
 22 23  1  0
 23 24  2  0
 18 25  1  0
 25  5  1  0
 25  9  2  0
 17 12  1  0
 24 19  1  0
  1 26  1  0
  2 27  1  0
  2 28  1  0
  3 29  1  0
  3 30  1  0
  4 31  1  0
  7 32  1  0
 13 33  1  0
 14 34  1  0
 15 35  1  0
 16 36  1  0
 17 37  1  0
 20 38  1  0
 21 39  1  0
 22 40  1  0
 23 41  1  0
 24 42  1  0
M  END
>  <meeko>  (5) 
{"is_sidechain": [false], "free_energy": -7.485, "intermolecular_energy": -10.211, "internal_energy": -1.101}

$$$$
2brb_ligand
     RDKit          3D

 42 45  0  0  0  0  0  0  0  0999 V2000
    9.9460  -10.1730   -2.4330 O   0  0  0  0  0  0  0  0  0  0  0  0
   10.6600  -11.0370   -1.5490 C   0  0  0  0  0  0  0  0  0  0  0  0
   11.2220  -10.2480   -0.3630 C   0  0  0  0  0  0  0  0  0  0  0  0
   10.2000   -9.4470    0.2930 N   0  0  0  0  0  0  0  0  0  0  0  0
   10.1890   -9.4220    1.6830 C   0  0  0  0  0  0  0  0  0  0  0  0
   11.3110   -9.0630    2.3560 N   0  0  0  0  0  0  0  0  0  0  0  0
   11.2800   -8.9920    3.7000 C   0  0  0  0  0  0  0  0  0  0  0  0
   10.2490   -9.2400    4.5100 N   0  0  0  0  0  0  0  0  0  0  0  0
    9.1630   -9.5990    3.8160 C   0  0  0  0  0  0  0  0  0  0  0  0
    7.9790   -9.8880    4.4160 O   0  0  0  0  0  0  0  0  0  0  0  0
    7.0770  -10.2170    3.4420 C   0  0  0  0  0  0  0  0  0  0  0  0
    5.7420  -10.5550    3.9390 C   0  0  0  0  0  0  0  0  0  0  0  0
    5.4190  -11.8530    4.3590 C   0  0  0  0  0  0  0  0  0  0  0  0
    4.1360  -12.1580    4.8240 C   0  0  0  0  0  0  0  0  0  0  0  0
    3.1580  -11.1680    4.8820 C   0  0  0  0  0  0  0  0  0  0  0  0
    3.4620   -9.8720    4.4780 C   0  0  0  0  0  0  0  0  0  0  0  0
    4.7440   -9.5690    4.0120 C   0  0  0  0  0  0  0  0  0  0  0  0
    7.6980  -10.1450    2.2020 C   0  0  0  0  0  0  0  0  0  0  0  0
    7.0480  -10.4190    0.9380 C   0  0  0  0  0  0  0  0  0  0  0  0
    5.8790   -9.7280    0.5920 C   0  0  0  0  0  0  0  0  0  0  0  0
    5.2390  -10.0010   -0.6170 C   0  0  0  0  0  0  0  0  0  0  0  0
    5.7620  -10.9630   -1.4820 C   0  0  0  0  0  0  0  0  0  0  0  0
    6.9250  -11.6540   -1.1390 C   0  0  0  0  0  0  0  0  0  0  0  0
    7.5680  -11.3840    0.0700 C   0  0  0  0  0  0  0  0  0  0  0  0
    9.0460   -9.7260    2.4410 C   0  0  0  0  0  0  0  0  0  0  0  0
    9.4630  -10.7470   -3.0520 H   0  0  0  0  0  0  0  0  0  0  0  0
    9.9785  -11.8154   -1.1752 H   0  0  0  0  0  0  0  0  0  0  0  0
   11.4955  -11.4953   -2.0984 H   0  0  0  0  0  0  0  0  0  0  0  0
   11.6415  -10.9556    0.3673 H   0  0  0  0  0  0  0  0  0  0  0  0
   11.9950   -9.5651   -0.7453 H   0  0  0  0  0  0  0  0  0  0  0  0
    9.2800   -9.4840   -0.1290 H   0  0  0  0  0  0  0  0  0  0  0  0
   12.2185   -8.6933    4.1899 H   0  0  0  0  0  0  0  0  0  0  0  0
    6.1848  -12.6418    4.3223 H   0  0  0  0  0  0  0  0  0  0  0  0
    3.8984  -13.1829    5.1450 H   0  0  0  0  0  0  0  0  0  0  0  0
    2.1486  -11.4101    5.2460 H   0  0  0  0  0  0  0  0  0  0  0  0
    2.6937   -9.0863    4.5254 H   0  0  0  0  0  0  0  0  0  0  0  0
    4.9757   -8.5409    3.6969 H   0  0  0  0  0  0  0  0  0  0  0  0
    5.4660   -8.9701    1.2739 H   0  0  0  0  0  0  0  0  0  0  0  0
    4.3218   -9.4578   -0.8886 H   0  0  0  0  0  0  0  0  0  0  0  0
    5.2569  -11.1770   -2.4355 H   0  0  0  0  0  0  0  0  0  0  0  0
    7.3353  -12.4122   -1.8222 H   0  0  0  0  0  0  0  0  0  0  0  0
    8.4838  -11.9303    0.3400 H   0  0  0  0  0  0  0  0  0  0  0  0
  1  2  1  0
  2  3  1  0
  3  4  1  0
  4  5  1  0
  5  6  2  0
  6  7  1  0
  7  8  2  0
  8  9  1  0
  9 10  1  0
 10 11  1  0
 11 12  1  0
 12 13  2  0
 13 14  1  0
 14 15  2  0
 15 16  1  0
 16 17  2  0
 11 18  2  0
 18 19  1  0
 19 20  2  0
 20 21  1  0
 21 22  2  0
 22 23  1  0
 23 24  2  0
 18 25  1  0
 25  5  1  0
 25  9  2  0
 17 12  1  0
 24 19  1  0
  1 26  1  0
  2 27  1  0
  2 28  1  0
  3 29  1  0
  3 30  1  0
  4 31  1  0
  7 32  1  0
 13 33  1  0
 14 34  1  0
 15 35  1  0
 16 36  1  0
 17 37  1  0
 20 38  1  0
 21 39  1  0
 22 40  1  0
 23 41  1  0
 24 42  1  0
M  END
>  <meeko>  (6) 
{"is_sidechain": [false], "free_energy": -7.318, "intermolecular_energy": -10.016, "internal_energy": -1.077}

$$$$
2brb_ligand
     RDKit          3D

 42 45  0  0  0  0  0  0  0  0999 V2000
    2.5740  -12.4470    2.3680 O   0  0  0  0  0  0  0  0  0  0  0  0
    2.7600  -11.6190    1.2200 C   0  0  0  0  0  0  0  0  0  0  0  0
    4.1140  -11.9040    0.5660 C   0  0  0  0  0  0  0  0  0  0  0  0
    4.6940  -10.7090   -0.0290 N   0  0  0  0  0  0  0  0  0  0  0  0
    5.9270  -10.8320   -0.6610 C   0  0  0  0  0  0  0  0  0  0  0  0
    5.9750  -11.1100   -1.9870 N   0  0  0  0  0  0  0  0  0  0  0  0
    7.1700  -11.1790   -2.6040 C   0  0  0  0  0  0  0  0  0  0  0  0
    8.3800  -11.0040   -2.0680 N   0  0  0  0  0  0  0  0  0  0  0  0
    8.2960  -10.7410   -0.7580 C   0  0  0  0  0  0  0  0  0  0  0  0
    9.3940  -10.5100    0.0080 O   0  0  0  0  0  0  0  0  0  0  0  0
    8.9760  -10.2750    1.2890 C   0  0  0  0  0  0  0  0  0  0  0  0
   10.0550  -10.0060    2.2400 C   0  0  0  0  0  0  0  0  0  0  0  0
    9.8170   -9.3680    3.4660 C   0  0  0  0  0  0  0  0  0  0  0  0
   10.8630   -9.1130    4.3580 C   0  0  0  0  0  0  0  0  0  0  0  0
   12.1630   -9.4970    4.0410 C   0  0  0  0  0  0  0  0  0  0  0  0
   12.4190  -10.1390    2.8340 C   0  0  0  0  0  0  0  0  0  0  0  0
   11.3730  -10.3920    1.9420 C   0  0  0  0  0  0  0  0  0  0  0  0
    7.5910  -10.3660    1.3410 C   0  0  0  0  0  0  0  0  0  0  0  0
    6.7980  -10.1690    2.5360 C   0  0  0  0  0  0  0  0  0  0  0  0
    6.6860  -11.2020    3.4760 C   0  0  0  0  0  0  0  0  0  0  0  0
    5.9090  -11.0230    4.6210 C   0  0  0  0  0  0  0  0  0  0  0  0
    5.2420   -9.8160    4.8290 C   0  0  0  0  0  0  0  0  0  0  0  0
    5.3500   -8.7860    3.8940 C   0  0  0  0  0  0  0  0  0  0  0  0
    6.1260   -8.9620    2.7470 C   0  0  0  0  0  0  0  0  0  0  0  0
    7.1470  -10.6500    0.0100 C   0  0  0  0  0  0  0  0  0  0  0  0
    3.1100  -12.0590    3.0810 H   0  0  0  0  0  0  0  0  0  0  0  0
    1.9581  -11.8209    0.4945 H   0  0  0  0  0  0  0  0  0  0  0  0
    2.7317  -10.5651    1.5337 H   0  0  0  0  0  0  0  0  0  0  0  0
    4.8036  -12.2905    1.3309 H   0  0  0  0  0  0  0  0  0  0  0  0
    3.9560  -12.6405   -0.2356 H   0  0  0  0  0  0  0  0  0  0  0  0
    4.5860   -9.8580    0.5100 H   0  0  0  0  0  0  0  0  0  0  0  0
    7.1462  -11.4072   -3.6798 H   0  0  0  0  0  0  0  0  0  0  0  0
    8.7932   -9.0640    3.7295 H   0  0  0  0  0  0  0  0  0  0  0  0
   10.6581   -8.6074    5.3132 H   0  0  0  0  0  0  0  0  0  0  0  0
   12.9851   -9.2933    4.7429 H   0  0  0  0  0  0  0  0  0  0  0  0
   13.4442  -10.4475    2.5815 H   0  0  0  0  0  0  0  0  0  0  0  0
   11.5851  -10.9019    0.9907 H   0  0  0  0  0  0  0  0  0  0  0  0
    7.2109  -12.1545    3.3112 H   0  0  0  0  0  0  0  0  0  0  0  0
    5.8225  -11.8337    5.3594 H   0  0  0  0  0  0  0  0  0  0  0  0
    4.6296   -9.6758    5.7319 H   0  0  0  0  0  0  0  0  0  0  0  0
    4.8234   -7.8348    4.0608 H   0  0  0  0  0  0  0  0  0  0  0  0
    6.2085   -8.1504    2.0091 H   0  0  0  0  0  0  0  0  0  0  0  0
  1  2  1  0
  2  3  1  0
  3  4  1  0
  4  5  1  0
  5  6  2  0
  6  7  1  0
  7  8  2  0
  8  9  1  0
  9 10  1  0
 10 11  1  0
 11 12  1  0
 12 13  2  0
 13 14  1  0
 14 15  2  0
 15 16  1  0
 16 17  2  0
 11 18  2  0
 18 19  1  0
 19 20  2  0
 20 21  1  0
 21 22  2  0
 22 23  1  0
 23 24  2  0
 18 25  1  0
 25  5  1  0
 25  9  2  0
 17 12  1  0
 24 19  1  0
  1 26  1  0
  2 27  1  0
  2 28  1  0
  3 29  1  0
  3 30  1  0
  4 31  1  0
  7 32  1  0
 13 33  1  0
 14 34  1  0
 15 35  1  0
 16 36  1  0
 17 37  1  0
 20 38  1  0
 21 39  1  0
 22 40  1  0
 23 41  1  0
 24 42  1  0
M  END
>  <meeko>  (7) 
{"is_sidechain": [false], "free_energy": -7.088, "intermolecular_energy": -9.58, "internal_energy": -1.208}

$$$$
2brb_ligand
     RDKit          3D

 42 45  0  0  0  0  0  0  0  0999 V2000
    8.3430  -11.2020    3.7810 O   0  0  0  0  0  0  0  0  0  0  0  0
    7.5440  -10.7660    2.6820 C   0  0  0  0  0  0  0  0  0  0  0  0
    7.3600   -9.2470    2.7190 C   0  0  0  0  0  0  0  0  0  0  0  0
    6.0430   -8.8450    2.2480 N   0  0  0  0  0  0  0  0  0  0  0  0
    5.4160   -9.6560    1.3080 C   0  0  0  0  0  0  0  0  0  0  0  0
    5.8380   -9.6390    0.0200 N   0  0  0  0  0  0  0  0  0  0  0  0
    5.2610  -10.4630   -0.8750 C   0  0  0  0  0  0  0  0  0  0  0  0
    4.2780  -11.3410   -0.6640 N   0  0  0  0  0  0  0  0  0  0  0  0
    3.8790  -11.3260    0.6130 C   0  0  0  0  0  0  0  0  0  0  0  0
    2.8990  -12.1430    1.0780 O   0  0  0  0  0  0  0  0  0  0  0  0
    2.7280  -11.8860    2.4110 C   0  0  0  0  0  0  0  0  0  0  0  0
    1.6970  -12.6970    3.0590 C   0  0  0  0  0  0  0  0  0  0  0  0
    0.4480  -12.1630    3.4060 C   0  0  0  0  0  0  0  0  0  0  0  0
   -0.5230  -12.9530    4.0310 C   0  0  0  0  0  0  0  0  0  0  0  0
   -0.2610  -14.2910    4.3130 C   0  0  0  0  0  0  0  0  0  0  0  0
    0.9700  -14.8420    3.9690 C   0  0  0  0  0  0  0  0  0  0  0  0
    1.9390  -14.0510    3.3460 C   0  0  0  0  0  0  0  0  0  0  0  0
    3.6070  -10.8820    2.7980 C   0  0  0  0  0  0  0  0  0  0  0  0
    3.7140  -10.3550    4.1420 C   0  0  0  0  0  0  0  0  0  0  0  0
    2.8440   -9.3400    4.5630 C   0  0  0  0  0  0  0  0  0  0  0  0
    2.9540   -8.8170    5.8510 C   0  0  0  0  0  0  0  0  0  0  0  0
    3.9300   -9.3030    6.7210 C   0  0  0  0  0  0  0  0  0  0  0  0
    4.7970  -10.3140    6.3050 C   0  0  0  0  0  0  0  0  0  0  0  0
    4.6910  -10.8390    5.0160 C   0  0  0  0  0  0  0  0  0  0  0  0
    4.3670  -10.5310    1.6380 C   0  0  0  0  0  0  0  0  0  0  0  0
    7.7660  -11.1950    4.5640 H   0  0  0  0  0  0  0  0  0  0  0  0
    8.0392  -11.0474    1.7409 H   0  0  0  0  0  0  0  0  0  0  0  0
    6.5560  -11.2447    2.7499 H   0  0  0  0  0  0  0  0  0  0  0  0
    7.4881   -8.8990    3.7546 H   0  0  0  0  0  0  0  0  0  0  0  0
    8.1107   -8.7978    2.0521 H   0  0  0  0  0  0  0  0  0  0  0  0
    5.9230   -7.8520    2.0870 H   0  0  0  0  0  0  0  0  0  0  0  0
    5.6460  -10.4057   -1.9038 H   0  0  0  0  0  0  0  0  0  0  0  0
    0.2284  -11.1083    3.1838 H   0  0  0  0  0  0  0  0  0  0  0  0
   -1.4958  -12.5159    4.3003 H   0  0  0  0  0  0  0  0  0  0  0  0
   -1.0244  -14.9107    4.8061 H   0  0  0  0  0  0  0  0  0  0  0  0
    1.1800  -15.8995    4.1874 H   0  0  0  0  0  0  0  0  0  0  0  0
    2.9079  -14.4960    3.0756 H   0  0  0  0  0  0  0  0  0  0  0  0
    2.0744   -8.9559    3.8774 H   0  0  0  0  0  0  0  0  0  0  0  0
    2.2707   -8.0207    6.1811 H   0  0  0  0  0  0  0  0  0  0  0  0
    4.0163   -8.8887    7.7363 H   0  0  0  0  0  0  0  0  0  0  0  0
    5.5645  -10.6976    6.9933 H   0  0  0  0  0  0  0  0  0  0  0  0
    5.3768  -11.6340    4.6881 H   0  0  0  0  0  0  0  0  0  0  0  0
  1  2  1  0
  2  3  1  0
  3  4  1  0
  4  5  1  0
  5  6  2  0
  6  7  1  0
  7  8  2  0
  8  9  1  0
  9 10  1  0
 10 11  1  0
 11 12  1  0
 12 13  2  0
 13 14  1  0
 14 15  2  0
 15 16  1  0
 16 17  2  0
 11 18  2  0
 18 19  1  0
 19 20  2  0
 20 21  1  0
 21 22  2  0
 22 23  1  0
 23 24  2  0
 18 25  1  0
 25  5  1  0
 25  9  2  0
 17 12  1  0
 24 19  1  0
  1 26  1  0
  2 27  1  0
  2 28  1  0
  3 29  1  0
  3 30  1  0
  4 31  1  0
  7 32  1  0
 13 33  1  0
 14 34  1  0
 15 35  1  0
 16 36  1  0
 17 37  1  0
 20 38  1  0
 21 39  1  0
 22 40  1  0
 23 41  1  0
 24 42  1  0
M  END
>  <meeko>  (8) 
{"is_sidechain": [false], "free_energy": -6.83, "intermolecular_energy": -9.155, "internal_energy": -1.292}

$$$$
2brb_ligand
     RDKit          3D

 42 45  0  0  0  0  0  0  0  0999 V2000
    6.0580   -9.4300    4.9190 O   0  0  0  0  0  0  0  0  0  0  0  0
    6.1110  -10.8560    4.9330 C   0  0  0  0  0  0  0  0  0  0  0  0
    6.9080  -11.3760    3.7330 C   0  0  0  0  0  0  0  0  0  0  0  0
    7.6650  -10.3170    3.0810 N   0  0  0  0  0  0  0  0  0  0  0  0
    8.0750  -10.5280    1.7690 C   0  0  0  0  0  0  0  0  0  0  0  0
    9.3930  -10.7000    1.4990 N   0  0  0  0  0  0  0  0  0  0  0  0
    9.7800  -10.9540    0.2340 C   0  0  0  0  0  0  0  0  0  0  0  0
    9.0100  -11.0640   -0.8510 N   0  0  0  0  0  0  0  0  0  0  0  0
    7.7190  -10.8800   -0.5510 C   0  0  0  0  0  0  0  0  0  0  0  0
    6.7370  -10.9580   -1.4860 O   0  0  0  0  0  0  0  0  0  0  0  0
    5.5400  -10.7240   -0.8660 C   0  0  0  0  0  0  0  0  0  0  0  0
    4.3770  -10.7770   -1.7530 C   0  0  0  0  0  0  0  0  0  0  0  0
    4.3540  -10.0980   -2.9800 C   0  0  0  0  0  0  0  0  0  0  0  0
    3.2300  -10.1540   -3.8110 C   0  0  0  0  0  0  0  0  0  0  0  0
    2.1140  -10.8950   -3.4300 C   0  0  0  0  0  0  0  0  0  0  0  0
    2.1220  -11.5830   -2.2200 C   0  0  0  0  0  0  0  0  0  0  0  0
    3.2440  -11.5240   -1.3900 C   0  0  0  0  0  0  0  0  0  0  0  0
    5.7650  -10.4840    0.4830 C   0  0  0  0  0  0  0  0  0  0  0  0
    4.7270  -10.2040    1.4520 C   0  0  0  0  0  0  0  0  0  0  0  0
    4.5230   -8.8900    1.8950 C   0  0  0  0  0  0  0  0  0  0  0  0
    3.5350   -8.6180    2.8410 C   0  0  0  0  0  0  0  0  0  0  0  0
    2.7510   -9.6540    3.3490 C   0  0  0  0  0  0  0  0  0  0  0  0
    2.9520  -10.9630    2.9120 C   0  0  0  0  0  0  0  0  0  0  0  0
    3.9400  -11.2400    1.9650 C   0  0  0  0  0  0  0  0  0  0  0  0
    7.1750  -10.6030    0.6930 C   0  0  0  0  0  0  0  0  0  0  0  0
    6.6090   -9.1240    5.6600 H   0  0  0  0  0  0  0  0  0  0  0  0
    6.5958  -11.1909    5.8619 H   0  0  0  0  0  0  0  0  0  0  0  0
    5.0856  -11.2502    4.8763 H   0  0  0  0  0  0  0  0  0  0  0  0
    7.6076  -12.1507    4.0800 H   0  0  0  0  0  0  0  0  0  0  0  0
    6.1943  -11.7833    3.0017 H   0  0  0  0  0  0  0  0  0  0  0  0
    8.3510   -9.8520    3.6620 H   0  0  0  0  0  0  0  0  0  0  0  0
   10.8605  -11.0868    0.0760 H   0  0  0  0  0  0  0  0  0  0  0  0
    5.2317   -9.5135   -3.2932 H   0  0  0  0  0  0  0  0  0  0  0  0
    3.2276   -9.6114   -4.7678 H   0  0  0  0  0  0  0  0  0  0  0  0
    1.2296  -10.9364   -4.0828 H   0  0  0  0  0  0  0  0  0  0  0  0
    1.2446  -12.1733   -1.9173 H   0  0  0  0  0  0  0  0  0  0  0  0
    3.2403  -12.0717   -0.4361 H   0  0  0  0  0  0  0  0  0  0  0  0
    5.1424   -8.0730    1.4964 H   0  0  0  0  0  0  0  0  0  0  0  0
    3.3739   -7.5862    3.1867 H   0  0  0  0  0  0  0  0  0  0  0  0
    1.9727   -9.4380    4.0957 H   0  0  0  0  0  0  0  0  0  0  0  0
    2.3318  -11.7779    3.3136 H   0  0  0  0  0  0  0  0  0  0  0  0
    4.0993  -12.2731    1.6225 H   0  0  0  0  0  0  0  0  0  0  0  0
  1  2  1  0
  2  3  1  0
  3  4  1  0
  4  5  1  0
  5  6  2  0
  6  7  1  0
  7  8  2  0
  8  9  1  0
  9 10  1  0
 10 11  1  0
 11 12  1  0
 12 13  2  0
 13 14  1  0
 14 15  2  0
 15 16  1  0
 16 17  2  0
 11 18  2  0
 18 19  1  0
 19 20  2  0
 20 21  1  0
 21 22  2  0
 22 23  1  0
 23 24  2  0
 18 25  1  0
 25  5  1  0
 25  9  2  0
 17 12  1  0
 24 19  1  0
  1 26  1  0
  2 27  1  0
  2 28  1  0
  3 29  1  0
  3 30  1  0
  4 31  1  0
  7 32  1  0
 13 33  1  0
 14 34  1  0
 15 35  1  0
 16 36  1  0
 17 37  1  0
 20 38  1  0
 21 39  1  0
 22 40  1  0
 23 41  1  0
 24 42  1  0
M  END
>  <meeko>  (9) 
{"is_sidechain": [false], "free_energy": -6.675, "intermolecular_energy": -9.029, "internal_energy": -1.213}

$$$$
