2qnq_ligand
     RDKit          3D

 71 75  0  0  0  0  0  0  0  0999 V2000
   -7.3170   -9.3290    4.2880 O   0  0  0  0  0  0  0  0  0  0  0  0
   -6.5360   -8.8920    5.4220 S   0  0  0  0  0  0  0  0  0  0  0  0
   -5.4980   -9.7260    5.9860 O   0  0  0  0  0  0  0  0  0  0  0  0
   -7.6670   -8.4910    6.7260 C   0  0  0  0  0  0  0  0  0  0  0  0
   -8.9270   -7.9350    6.4700 C   0  0  0  0  0  0  0  0  0  0  0  0
   -9.7800   -7.6060    7.5280 C   0  0  0  0  0  0  0  0  0  0  0  0
   -9.3830   -7.8310    8.8420 C   0  0  0  0  0  0  0  0  0  0  0  0
   -8.1350   -8.3950    9.1020 C   0  0  0  0  0  0  0  0  0  0  0  0
   -7.2740   -8.7290    8.0500 C   0  0  0  0  0  0  0  0  0  0  0  0
   -5.7650   -9.4470    8.4900 Cl  0  0  0  0  0  0  0  0  0  0  0  0
   -5.7320   -7.4520    4.9250 N   0  0  0  0  0  0  0  0  0  0  0  0
   -4.4600   -7.6910    4.1750 C   0  0  0  0  0  0  0  0  0  0  0  0
   -4.6770   -7.7790    2.6810 C   0  0  0  0  0  0  0  0  0  0  0  0
   -4.6970   -6.6200    1.8880 C   0  0  0  0  0  0  0  0  0  0  0  0
   -4.9210   -6.7050    0.5130 C   0  0  0  0  0  0  0  0  0  0  0  0
   -5.1050   -7.9480   -0.0880 C   0  0  0  0  0  0  0  0  0  0  0  0
   -5.0450   -9.1080    0.6790 C   0  0  0  0  0  0  0  0  0  0  0  0
   -4.8220   -9.0250    2.0540 C   0  0  0  0  0  0  0  0  0  0  0  0
   -5.8830   -6.2030    5.7760 C   0  0  1  0  0  0  0  0  0  0  0  0
   -4.9930   -6.1960    7.0410 C   0  0  0  0  0  0  0  0  0  0  0  0
   -3.6330   -5.7540    6.5820 N   0  0  0  0  0  0  0  0  0  0  0  0
   -3.8000   -5.2160    5.1920 C   0  0  0  0  0  0  0  0  0  0  0  0
   -5.3090   -4.9300    5.0740 C   0  0  2  0  0  0  0  0  0  0  0  0
   -5.8380   -3.6670    5.8050 N   0  0  0  0  0  0  0  0  0  0  0  0
   -7.3460   -3.6080    5.6950 C   0  0  0  0  0  0  0  0  0  0  0  0
   -8.0360   -3.7300    7.0320 C   0  0  0  0  0  0  0  0  0  0  0  0
   -9.4220   -3.9190    7.1020 C   0  0  0  0  0  0  0  0  0  0  0  0
  -10.0690   -3.9940    8.3360 C   0  0  0  0  0  0  0  0  0  0  0  0
   -9.3370   -3.8770    9.5160 C   0  0  0  0  0  0  0  0  0  0  0  0
   -7.9610   -3.6800    9.4620 C   0  0  0  0  0  0  0  0  0  0  0  0
   -7.3140   -3.5990    8.2290 C   0  0  0  0  0  0  0  0  0  0  0  0
   -5.0880   -2.1740    5.3880 S   0  0  0  0  0  0  0  0  0  0  0  0
   -6.0370   -1.1290    5.7290 O   0  0  0  0  0  0  0  0  0  0  0  0
   -3.7990   -2.2060    6.0410 O   0  0  0  0  0  0  0  0  0  0  0  0
   -4.8700   -2.1890    3.6380 C   0  0  0  0  0  0  0  0  0  0  0  0
   -5.6170   -3.1130    2.8880 C   0  0  0  0  0  0  0  0  0  0  0  0
   -5.4690   -3.1750    1.5040 C   0  0  0  0  0  0  0  0  0  0  0  0
   -4.5710   -2.3250    0.8630 C   0  0  0  0  0  0  0  0  0  0  0  0
   -3.8170   -1.4160    1.6080 C   0  0  0  0  0  0  0  0  0  0  0  0
   -3.9590   -1.3450    2.9990 C   0  0  0  0  0  0  0  0  0  0  0  0
   -2.9820   -0.1820    3.8180 Cl  0  0  0  0  0  0  0  0  0  0  0  0
   -9.2466   -7.7565    5.4327 H   0  0  0  0  0  0  0  0  0  0  0  0
  -10.7676   -7.1681    7.3206 H   0  0  0  0  0  0  0  0  0  0  0  0
  -10.0520   -7.5646    9.6736 H   0  0  0  0  0  0  0  0  0  0  0  0
   -7.8246   -8.5789   10.1411 H   0  0  0  0  0  0  0  0  0  0  0  0
   -3.7669   -6.8625    4.3827 H   0  0  0  0  0  0  0  0  0  0  0  0
   -4.0498   -8.6549    4.5107 H   0  0  0  0  0  0  0  0  0  0  0  0
   -4.5348   -5.6371    2.3545 H   0  0  0  0  0  0  0  0  0  0  0  0
   -4.9522   -5.7898   -0.0964 H   0  0  0  0  0  0  0  0  0  0  0  0
   -5.2978   -8.0129   -1.1690 H   0  0  0  0  0  0  0  0  0  0  0  0
   -5.1734  -10.0904    0.2011 H   0  0  0  0  0  0  0  0  0  0  0  0
   -4.7593   -9.9461    2.6520 H   0  0  0  0  0  0  0  0  0  0  0  0
   -6.9649   -6.1996    5.9749 H   0  0  0  0  0  0  0  0  0  0  0  0
   -5.3928   -5.4931    7.7867 H   0  0  0  0  0  0  0  0  0  0  0  0
   -4.9575   -7.1873    7.5165 H   0  0  0  0  0  0  0  0  0  0  0  0
   -3.3060   -4.9690    7.1820 H   0  0  0  0  0  0  0  0  0  0  0  0
   -2.9280   -6.5030    6.6110 H   0  0  0  0  0  0  0  0  0  0  0  0
   -3.2167   -4.2929    5.0586 H   0  0  0  0  0  0  0  0  0  0  0  0
   -3.4437   -5.9180    4.4237 H   0  0  0  0  0  0  0  0  0  0  0  0
   -5.5936   -4.7346    4.0296 H   0  0  0  0  0  0  0  0  0  0  0  0
   -7.6278   -2.6466    5.2407 H   0  0  0  0  0  0  0  0  0  0  0  0
   -7.6664   -4.4607    5.0783 H   0  0  0  0  0  0  0  0  0  0  0  0
  -10.0066   -4.0092    6.1746 H   0  0  0  0  0  0  0  0  0  0  0  0
  -11.1577   -4.1456    8.3774 H   0  0  0  0  0  0  0  0  0  0  0  0
   -9.8466   -3.9403   10.4888 H   0  0  0  0  0  0  0  0  0  0  0  0
   -7.3824   -3.5880   10.3930 H   0  0  0  0  0  0  0  0  0  0  0  0
   -6.2275   -3.4308    8.1941 H   0  0  0  0  0  0  0  0  0  0  0  0
   -6.3208   -3.7895    3.3951 H   0  0  0  0  0  0  0  0  0  0  0  0
   -6.0605   -3.8942    0.9185 H   0  0  0  0  0  0  0  0  0  0  0  0
   -4.4557   -2.3697   -0.2300 H   0  0  0  0  0  0  0  0  0  0  0  0
   -3.1055   -0.7501    1.0977 H   0  0  0  0  0  0  0  0  0  0  0  0
  1  2  2  0
  2  3  2  0
  2  4  1  0
  4  5  2  0
  5  6  1  0
  6  7  2  0
  7  8  1  0
  8  9  2  0
  9 10  1  0
  2 11  1  0
 11 12  1  0
 12 13  1  0
 13 14  2  0
 14 15  1  0
 15 16  2  0
 16 17  1  0
 17 18  2  0
 11 19  1  0
 19 20  1  0
 20 21  1  0
 21 22  1  0
 22 23  1  0
 23 24  1  0
 24 25  1  0
 25 26  1  0
 26 27  2  0
 27 28  1  0
 28 29  2  0
 29 30  1  0
 30 31  2  0
 24 32  1  0
 32 33  2  0
 32 34  2  0
 32 35  1  0
 35 36  2  0
 36 37  1  0
 37 38  2  0
 38 39  1  0
 39 40  2  0
 40 41  1  0
  9  4  1  0
 18 13  1  0
 23 19  1  0
 31 26  1  0
 40 35  1  0
  5 42  1  0
  6 43  1  0
  7 44  1  0
  8 45  1  0
 12 46  1  0
 12 47  1  0
 14 48  1  0
 15 49  1  0
 16 50  1  0
 17 51  1  0
 18 52  1  0
 19 53  1  1
 20 54  1  0
 20 55  1  0
 21 56  1  0
 21 57  1  0
 22 58  1  0
 22 59  1  0
 23 60  1  6
 25 61  1  0
 25 62  1  0
 27 63  1  0
 28 64  1  0
 29 65  1  0
 30 66  1  0
 31 67  1  0
 36 68  1  0
 37 69  1  0
 38 70  1  0
 39 71  1  0
M  CHG  1  21   1
M  END
>  <meeko>  (1) 
{"is_sidechain": [false], "free_energy": -8.39, "intermolecular_energy": -13.295, "internal_energy": -0.432}

$$$$
2qnq_ligand
     RDKit          3D

 71 75  0  0  0  0  0  0  0  0999 V2000
   -8.2700    8.8440   -3.7180 O   0  0  0  0  0  0  0  0  0  0  0  0
   -7.8840    8.1980   -4.9500 S   0  0  0  0  0  0  0  0  0  0  0  0
   -7.0650    8.8760   -5.9300 O   0  0  0  0  0  0  0  0  0  0  0  0
   -9.3670    7.6720   -5.7650 C   0  0  0  0  0  0  0  0  0  0  0  0
   -9.8040    6.3420   -5.7240 C   0  0  0  0  0  0  0  0  0  0  0  0
  -10.9650    5.9610   -6.4040 C   0  0  0  0  0  0  0  0  0  0  0  0
  -11.6960    6.9010   -7.1210 C   0  0  0  0  0  0  0  0  0  0  0  0
  -11.2730    8.2290   -7.1550 C   0  0  0  0  0  0  0  0  0  0  0  0
  -10.1120    8.6220   -6.4780 C   0  0  0  0  0  0  0  0  0  0  0  0
   -9.7000   10.2970   -6.5670 Cl  0  0  0  0  0  0  0  0  0  0  0  0
   -6.9780    6.8040   -4.4990 N   0  0  0  0  0  0  0  0  0  0  0  0
   -5.6710    7.1120   -3.8400 C   0  0  0  0  0  0  0  0  0  0  0  0
   -5.7710    7.1200   -2.3300 C   0  0  0  0  0  0  0  0  0  0  0  0
   -5.6600    5.9290   -1.5970 C   0  0  0  0  0  0  0  0  0  0  0  0
   -5.7770    5.9380   -0.2060 C   0  0  0  0  0  0  0  0  0  0  0  0
   -5.9840    7.1390    0.4690 C   0  0  0  0  0  0  0  0  0  0  0  0
   -6.0540    8.3340   -0.2430 C   0  0  0  0  0  0  0  0  0  0  0  0
   -5.9380    8.3260   -1.6340 C   0  0  0  0  0  0  0  0  0  0  0  0
   -7.1250    5.5400   -5.3280 C   0  0  1  0  0  0  0  0  0  0  0  0
   -6.4400    5.6160   -6.7130 C   0  0  0  0  0  0  0  0  0  0  0  0
   -4.9880    5.3220   -6.4680 N   0  0  0  0  0  0  0  0  0  0  0  0
   -4.8860    4.7790   -5.0730 C   0  0  0  0  0  0  0  0  0  0  0  0
   -6.3220    4.3380   -4.7310 C   0  0  2  0  0  0  0  0  0  0  0  0
   -6.8220    3.0220   -5.3850 N   0  0  0  0  0  0  0  0  0  0  0  0
   -8.2460    2.7470   -4.9550 C   0  0  0  0  0  0  0  0  0  0  0  0
   -9.1990    2.6420   -6.1220 C   0  0  0  0  0  0  0  0  0  0  0  0
   -8.7470    2.8580   -7.4310 C   0  0  0  0  0  0  0  0  0  0  0  0
   -9.6320    2.7990   -8.5080 C   0  0  0  0  0  0  0  0  0  0  0  0
  -10.9810    2.5280   -8.2890 C   0  0  0  0  0  0  0  0  0  0  0  0
  -11.4460    2.3210   -6.9940 C   0  0  0  0  0  0  0  0  0  0  0  0
  -10.5630    2.3850   -5.9160 C   0  0  0  0  0  0  0  0  0  0  0  0
   -5.8030    1.6460   -5.2040 S   0  0  0  0  0  0  0  0  0  0  0  0
   -6.6090    0.4900   -5.5520 O   0  0  0  0  0  0  0  0  0  0  0  0
   -4.6200    1.9500   -5.9770 O   0  0  0  0  0  0  0  0  0  0  0  0
   -5.3850    1.5480   -3.4920 C   0  0  0  0  0  0  0  0  0  0  0  0
   -6.0840    2.3720   -2.5950 C   0  0  0  0  0  0  0  0  0  0  0  0
   -5.7810    2.3420   -1.2350 C   0  0  0  0  0  0  0  0  0  0  0  0
   -4.7760    1.5010   -0.7660 C   0  0  0  0  0  0  0  0  0  0  0  0
   -4.0700    0.6910   -1.6580 C   0  0  0  0  0  0  0  0  0  0  0  0
   -4.3670    0.7130   -3.0270 C   0  0  0  0  0  0  0  0  0  0  0  0
   -3.4360   -0.3310   -4.0370 Cl  0  0  0  0  0  0  0  0  0  0  0  0
   -9.2319    5.5945   -5.1549 H   0  0  0  0  0  0  0  0  0  0  0  0
  -11.3009    4.9140   -6.3714 H   0  0  0  0  0  0  0  0  0  0  0  0
  -12.6057    6.5979   -7.6601 H   0  0  0  0  0  0  0  0  0  0  0  0
  -11.8555    8.9734   -7.7177 H   0  0  0  0  0  0  0  0  0  0  0  0
   -4.9362    6.3507   -4.1408 H   0  0  0  0  0  0  0  0  0  0  0  0
   -5.3644    8.1188   -4.1600 H   0  0  0  0  0  0  0  0  0  0  0  0
   -5.4792    4.9799   -2.1229 H   0  0  0  0  0  0  0  0  0  0  0  0
   -5.7057    4.9960    0.3576 H   0  0  0  0  0  0  0  0  0  0  0  0
   -6.0921    7.1435    1.5637 H   0  0  0  0  0  0  0  0  0  0  0  0
   -6.2007    9.2844    0.2910 H   0  0  0  0  0  0  0  0  0  0  0  0
   -5.9780    9.2746   -2.1895 H   0  0  0  0  0  0  0  0  0  0  0  0
   -8.2182    5.4228   -5.3615 H   0  0  0  0  0  0  0  0  0  0  0  0
   -6.8721    4.8694   -7.3955 H   0  0  0  0  0  0  0  0  0  0  0  0
   -6.5802    6.6018   -7.1804 H   0  0  0  0  0  0  0  0  0  0  0  0
   -4.6750    4.5700   -7.1170 H   0  0  0  0  0  0  0  0  0  0  0  0
   -4.3770    6.1400   -6.5960 H   0  0  0  0  0  0  0  0  0  0  0  0
   -4.1964    3.9227   -5.0375 H   0  0  0  0  0  0  0  0  0  0  0  0
   -4.4927    5.5197   -4.3611 H   0  0  0  0  0  0  0  0  0  0  0  0
   -6.4231    4.1212   -3.6573 H   0  0  0  0  0  0  0  0  0  0  0  0
   -8.2679    1.7994   -4.3968 H   0  0  0  0  0  0  0  0  0  0  0  0
   -8.5742    3.5936   -4.3341 H   0  0  0  0  0  0  0  0  0  0  0  0
   -7.6840    3.0762   -7.6110 H   0  0  0  0  0  0  0  0  0  0  0  0
   -9.2643    2.9666   -9.5311 H   0  0  0  0  0  0  0  0  0  0  0  0
  -11.6776    2.4777   -9.1388 H   0  0  0  0  0  0  0  0  0  0  0  0
  -12.5108    2.1067   -6.8202 H   0  0  0  0  0  0  0  0  0  0  0  0
  -10.9399    2.2324   -4.8939 H   0  0  0  0  0  0  0  0  0  0  0  0
   -6.8726    3.0428   -2.9667 H   0  0  0  0  0  0  0  0  0  0  0  0
   -6.3355    2.9822   -0.5331 H   0  0  0  0  0  0  0  0  0  0  0  0
   -4.5378    1.4744    0.3076 H   0  0  0  0  0  0  0  0  0  0  0  0
   -3.2744    0.0305   -1.2828 H   0  0  0  0  0  0  0  0  0  0  0  0
  1  2  2  0
  2  3  2  0
  2  4  1  0
  4  5  2  0
  5  6  1  0
  6  7  2  0
  7  8  1  0
  8  9  2  0
  9 10  1  0
  2 11  1  0
 11 12  1  0
 12 13  1  0
 13 14  2  0
 14 15  1  0
 15 16  2  0
 16 17  1  0
 17 18  2  0
 11 19  1  0
 19 20  1  0
 20 21  1  0
 21 22  1  0
 22 23  1  0
 23 24  1  0
 24 25  1  0
 25 26  1  0
 26 27  2  0
 27 28  1  0
 28 29  2  0
 29 30  1  0
 30 31  2  0
 24 32  1  0
 32 33  2  0
 32 34  2  0
 32 35  1  0
 35 36  2  0
 36 37  1  0
 37 38  2  0
 38 39  1  0
 39 40  2  0
 40 41  1  0
  9  4  1  0
 18 13  1  0
 23 19  1  0
 31 26  1  0
 40 35  1  0
  5 42  1  0
  6 43  1  0
  7 44  1  0
  8 45  1  0
 12 46  1  0
 12 47  1  0
 14 48  1  0
 15 49  1  0
 16 50  1  0
 17 51  1  0
 18 52  1  0
 19 53  1  6
 20 54  1  0
 20 55  1  0
 21 56  1  0
 21 57  1  0
 22 58  1  0
 22 59  1  0
 23 60  1  1
 25 61  1  0
 25 62  1  0
 27 63  1  0
 28 64  1  0
 29 65  1  0
 30 66  1  0
 31 67  1  0
 36 68  1  0
 37 69  1  0
 38 70  1  0
 39 71  1  0
M  CHG  1  21   1
M  END
>  <meeko>  (2) 
{"is_sidechain": [false], "free_energy": -8.377, "intermolecular_energy": -13.475, "internal_energy": -0.232}

$$$$
2qnq_ligand
     RDKit          3D

 71 75  0  0  0  0  0  0  0  0999 V2000
   -6.6230    0.4350   -5.4150 O   0  0  0  0  0  0  0  0  0  0  0  0
   -5.8540    1.6220   -5.1250 S   0  0  0  0  0  0  0  0  0  0  0  0
   -4.6110    1.8990   -5.8110 O   0  0  0  0  0  0  0  0  0  0  0  0
   -5.5190    1.6310   -3.3850 C   0  0  0  0  0  0  0  0  0  0  0  0
   -6.2590    2.4160   -2.4920 C   0  0  0  0  0  0  0  0  0  0  0  0
   -5.9460    2.4170   -1.1290 C   0  0  0  0  0  0  0  0  0  0  0  0
   -4.9000    1.6350   -0.6520 C   0  0  0  0  0  0  0  0  0  0  0  0
   -4.1680    0.8430   -1.5340 C   0  0  0  0  0  0  0  0  0  0  0  0
   -4.4730    0.8340   -2.9010 C   0  0  0  0  0  0  0  0  0  0  0  0
   -3.5180   -0.2060   -3.8950 Cl  0  0  0  0  0  0  0  0  0  0  0  0
   -6.8760    2.9580   -5.4970 N   0  0  0  0  0  0  0  0  0  0  0  0
   -7.4440    2.9260   -6.8820 C   0  0  0  0  0  0  0  0  0  0  0  0
   -8.9500    2.7870   -6.8860 C   0  0  0  0  0  0  0  0  0  0  0  0
   -9.6870    2.9900   -8.0640 C   0  0  0  0  0  0  0  0  0  0  0  0
  -11.0780    2.8830   -8.0570 C   0  0  0  0  0  0  0  0  0  0  0  0
  -11.7470    2.5510   -6.8820 C   0  0  0  0  0  0  0  0  0  0  0  0
  -11.0260    2.3060   -5.7160 C   0  0  0  0  0  0  0  0  0  0  0  0
   -9.6340    2.4130   -5.7210 C   0  0  0  0  0  0  0  0  0  0  0  0
   -6.6050    4.2930   -4.8250 C   0  0  1  0  0  0  0  0  0  0  0  0
   -5.1030    4.5930   -4.6120 C   0  0  0  0  0  0  0  0  0  0  0  0
   -4.6010    5.1210   -5.9260 N   0  0  0  0  0  0  0  0  0  0  0  0
   -5.8100    5.4230   -6.7600 C   0  0  0  0  0  0  0  0  0  0  0  0
   -6.9630    5.5070   -5.7420 C   0  0  2  0  0  0  0  0  0  0  0  0
   -7.0350    6.7930   -4.8740 N   0  0  0  0  0  0  0  0  0  0  0  0
   -7.7590    6.4940   -3.5800 C   0  0  0  0  0  0  0  0  0  0  0  0
   -6.9870    6.9410   -2.3620 C   0  0  0  0  0  0  0  0  0  0  0  0
   -6.5680    6.0070   -1.4040 C   0  0  0  0  0  0  0  0  0  0  0  0
   -5.8880    6.4200   -0.2570 C   0  0  0  0  0  0  0  0  0  0  0  0
   -5.6230    7.7720   -0.0530 C   0  0  0  0  0  0  0  0  0  0  0  0
   -6.0410    8.7120   -0.9900 C   0  0  0  0  0  0  0  0  0  0  0  0
   -6.7250    8.3010   -2.1340 C   0  0  0  0  0  0  0  0  0  0  0  0
   -7.6340    8.2060   -5.6540 S   0  0  0  0  0  0  0  0  0  0  0  0
   -8.7040    8.7150   -4.8140 O   0  0  0  0  0  0  0  0  0  0  0  0
   -6.4680    9.0250   -5.8970 O   0  0  0  0  0  0  0  0  0  0  0  0
   -8.3240    7.6820   -7.1900 C   0  0  0  0  0  0  0  0  0  0  0  0
   -7.6650    8.0600   -8.3720 C   0  0  0  0  0  0  0  0  0  0  0  0
   -8.1790    7.6850   -9.6120 C   0  0  0  0  0  0  0  0  0  0  0  0
   -9.3540    6.9410   -9.6800 C   0  0  0  0  0  0  0  0  0  0  0  0
  -10.0190    6.5770   -8.5070 C   0  0  0  0  0  0  0  0  0  0  0  0
   -9.5100    6.9490   -7.2570 C   0  0  0  0  0  0  0  0  0  0  0  0
  -10.4100    6.4400   -5.8750 Cl  0  0  0  0  0  0  0  0  0  0  0  0
   -7.0894    3.0340   -2.8640 H   0  0  0  0  0  0  0  0  0  0  0  0
   -6.5287    3.0379   -0.4326 H   0  0  0  0  0  0  0  0  0  0  0  0
   -4.6510    1.6416    0.4194 H   0  0  0  0  0  0  0  0  0  0  0  0
   -3.3446    0.2203   -1.1541 H   0  0  0  0  0  0  0  0  0  0  0  0
   -7.1744    3.8605   -7.3958 H   0  0  0  0  0  0  0  0  0  0  0  0
   -7.0254    2.0478   -7.3953 H   0  0  0  0  0  0  0  0  0  0  0  0
   -9.1634    3.2353   -8.9997 H   0  0  0  0  0  0  0  0  0  0  0  0
  -11.6471    3.0612   -8.9813 H   0  0  0  0  0  0  0  0  0  0  0  0
  -12.8448    2.4822   -6.8747 H   0  0  0  0  0  0  0  0  0  0  0  0
  -11.5531    2.0283   -4.7913 H   0  0  0  0  0  0  0  0  0  0  0  0
   -9.0683    2.2017   -4.8016 H   0  0  0  0  0  0  0  0  0  0  0  0
   -7.1908    4.1976   -3.8989 H   0  0  0  0  0  0  0  0  0  0  0  0
   -4.9711    5.3460   -3.8210 H   0  0  0  0  0  0  0  0  0  0  0  0
   -4.5510    3.6945   -4.2991 H   0  0  0  0  0  0  0  0  0  0  0  0
   -4.1010    6.0190   -5.7670 H   0  0  0  0  0  0  0  0  0  0  0  0
   -3.9640    4.4730   -6.4110 H   0  0  0  0  0  0  0  0  0  0  0  0
   -5.6884    6.3787   -7.2908 H   0  0  0  0  0  0  0  0  0  0  0  0
   -5.9874    4.6620   -7.5342 H   0  0  0  0  0  0  0  0  0  0  0  0
   -7.9387    5.5104   -6.2499 H   0  0  0  0  0  0  0  0  0  0  0  0
   -8.7288    7.0130   -3.5916 H   0  0  0  0  0  0  0  0  0  0  0  0
   -7.8814    5.4029   -3.5130 H   0  0  0  0  0  0  0  0  0  0  0  0
   -6.7772    4.9381   -1.5578 H   0  0  0  0  0  0  0  0  0  0  0  0
   -5.5614    5.6774    0.4859 H   0  0  0  0  0  0  0  0  0  0  0  0
   -5.0833    8.0967    0.8488 H   0  0  0  0  0  0  0  0  0  0  0  0
   -5.8319    9.7798   -0.8284 H   0  0  0  0  0  0  0  0  0  0  0  0
   -7.0626    9.0504   -2.8651 H   0  0  0  0  0  0  0  0  0  0  0  0
   -6.7405    8.6537   -8.3185 H   0  0  0  0  0  0  0  0  0  0  0  0
   -7.6572    7.9763  -10.5355 H   0  0  0  0  0  0  0  0  0  0  0  0
   -9.7585    6.6399  -10.6576 H   0  0  0  0  0  0  0  0  0  0  0  0
  -10.9497    5.9936   -8.5657 H   0  0  0  0  0  0  0  0  0  0  0  0
  1  2  2  0
  2  3  2  0
  2  4  1  0
  4  5  2  0
  5  6  1  0
  6  7  2  0
  7  8  1  0
  8  9  2  0
  9 10  1  0
  2 11  1  0
 11 12  1  0
 12 13  1  0
 13 14  2  0
 14 15  1  0
 15 16  2  0
 16 17  1  0
 17 18  2  0
 11 19  1  0
 19 20  1  0
 20 21  1  0
 21 22  1  0
 22 23  1  0
 23 24  1  0
 24 25  1  0
 25 26  1  0
 26 27  2  0
 27 28  1  0
 28 29  2  0
 29 30  1  0
 30 31  2  0
 24 32  1  0
 32 33  2  0
 32 34  2  0
 32 35  1  0
 35 36  2  0
 36 37  1  0
 37 38  2  0
 38 39  1  0
 39 40  2  0
 40 41  1  0
  9  4  1  0
 18 13  1  0
 23 19  1  0
 31 26  1  0
 40 35  1  0
  5 42  1  0
  6 43  1  0
  7 44  1  0
  8 45  1  0
 12 46  1  0
 12 47  1  0
 14 48  1  0
 15 49  1  0
 16 50  1  0
 17 51  1  0
 18 52  1  0
 19 53  1  1
 20 54  1  0
 20 55  1  0
 21 56  1  0
 21 57  1  0
 22 58  1  0
 22 59  1  0
 23 60  1  6
 25 61  1  0
 25 62  1  0
 27 63  1  0
 28 64  1  0
 29 65  1  0
 30 66  1  0
 31 67  1  0
 36 68  1  0
 37 69  1  0
 38 70  1  0
 39 71  1  0
M  CHG  1  21   1
M  END
>  <meeko>  (3) 
{"is_sidechain": [false], "free_energy": -8.36, "intermolecular_energy": -12.566, "internal_energy": -1.112}

$$$$
2qnq_ligand
     RDKit          3D

 71 75  0  0  0  0  0  0  0  0999 V2000
   -6.0030   -1.2640    5.6780 O   0  0  0  0  0  0  0  0  0  0  0  0
   -5.1090   -2.3280    5.2850 S   0  0  0  0  0  0  0  0  0  0  0  0
   -3.7690   -2.4210    5.8220 O   0  0  0  0  0  0  0  0  0  0  0  0
   -4.9760   -2.2890    3.5190 C   0  0  0  0  0  0  0  0  0  0  0  0
   -5.7490   -3.1210    2.6980 C   0  0  0  0  0  0  0  0  0  0  0  0
   -5.5940   -3.0810    1.3090 C   0  0  0  0  0  0  0  0  0  0  0  0
   -4.6760   -2.2100    0.7330 C   0  0  0  0  0  0  0  0  0  0  0  0
   -3.9140   -1.3700    1.5430 C   0  0  0  0  0  0  0  0  0  0  0  0
   -4.0600   -1.4020    2.9350 C   0  0  0  0  0  0  0  0  0  0  0  0
   -3.0840   -0.2990    3.8360 Cl  0  0  0  0  0  0  0  0  0  0  0  0
   -5.8790   -3.7970    5.7480 N   0  0  0  0  0  0  0  0  0  0  0  0
   -6.2580   -3.8590    7.1950 C   0  0  0  0  0  0  0  0  0  0  0  0
   -7.7560   -3.9060    7.3990 C   0  0  0  0  0  0  0  0  0  0  0  0
   -8.3010   -4.2390    8.6490 C   0  0  0  0  0  0  0  0  0  0  0  0
   -9.6840   -4.3040    8.8260 C   0  0  0  0  0  0  0  0  0  0  0  0
  -10.5380   -4.0150    7.7640 C   0  0  0  0  0  0  0  0  0  0  0  0
  -10.0110   -3.6410    6.5300 C   0  0  0  0  0  0  0  0  0  0  0  0
   -8.6290   -3.5770    6.3510 C   0  0  0  0  0  0  0  0  0  0  0  0
   -5.5180   -5.0740    5.0090 C   0  0  1  0  0  0  0  0  0  0  0  0
   -4.0270   -5.1660    4.6100 C   0  0  0  0  0  0  0  0  0  0  0  0
   -3.3030   -5.6390    5.8380 N   0  0  0  0  0  0  0  0  0  0  0  0
   -4.3510   -6.1130    6.8020 C   0  0  0  0  0  0  0  0  0  0  0  0
   -5.5990   -6.3370    5.9260 C   0  0  2  0  0  0  0  0  0  0  0  0
   -5.6050   -7.6090    5.0350 N   0  0  0  0  0  0  0  0  0  0  0  0
   -6.5050   -7.3890    3.8390 C   0  0  0  0  0  0  0  0  0  0  0  0
   -5.8210   -7.6980    2.5280 C   0  0  0  0  0  0  0  0  0  0  0  0
   -5.5320   -6.6710    1.6190 C   0  0  0  0  0  0  0  0  0  0  0  0
   -4.9360   -6.9570    0.3900 C   0  0  0  0  0  0  0  0  0  0  0  0
   -4.6260   -8.2720    0.0540 C   0  0  0  0  0  0  0  0  0  0  0  0
   -4.9160   -9.3030    0.9430 C   0  0  0  0  0  0  0  0  0  0  0  0
   -5.5170   -9.0200    2.1690 C   0  0  0  0  0  0  0  0  0  0  0  0
   -5.9250   -9.0990    5.8360 S   0  0  0  0  0  0  0  0  0  0  0  0
   -6.9970   -9.7400    5.0950 O   0  0  0  0  0  0  0  0  0  0  0  0
   -4.6410   -9.7540    5.9410 O   0  0  0  0  0  0  0  0  0  0  0  0
   -6.5180   -8.6910    7.4460 C   0  0  0  0  0  0  0  0  0  0  0  0
   -5.6960   -8.9880    8.5460 C   0  0  0  0  0  0  0  0  0  0  0  0
   -6.1260   -8.6990    9.8400 C   0  0  0  0  0  0  0  0  0  0  0  0
   -7.3770   -8.1240   10.0440 C   0  0  0  0  0  0  0  0  0  0  0  0
   -8.2020   -7.8410    8.9530 C   0  0  0  0  0  0  0  0  0  0  0  0
   -7.7790   -8.1260    7.6490 C   0  0  0  0  0  0  0  0  0  0  0  0
   -8.8760   -7.7310    6.3770 Cl  0  0  0  0  0  0  0  0  0  0  0  0
   -6.4806   -3.8082    3.1481 H   0  0  0  0  0  0  0  0  0  0  0  0
   -6.2000   -3.7404    0.6702 H   0  0  0  0  0  0  0  0  0  0  0  0
   -4.5514   -2.1840   -0.3596 H   0  0  0  0  0  0  0  0  0  0  0  0
   -3.1927   -0.6769    1.0854 H   0  0  0  0  0  0  0  0  0  0  0  0
   -5.8130   -4.7622    7.6380 H   0  0  0  0  0  0  0  0  0  0  0  0
   -5.8830   -2.9450    7.6786 H   0  0  0  0  0  0  0  0  0  0  0  0
   -7.6323   -4.4506    9.4964 H   0  0  0  0  0  0  0  0  0  0  0  0
  -10.1000   -4.5837    9.8051 H   0  0  0  0  0  0  0  0  0  0  0  0
  -11.6275   -4.0821    7.8998 H   0  0  0  0  0  0  0  0  0  0  0  0
  -10.6851   -3.3959    5.6960 H   0  0  0  0  0  0  0  0  0  0  0  0
   -8.2196   -3.2655    5.3787 H   0  0  0  0  0  0  0  0  0  0  0  0
   -6.2192   -5.0460    4.1619 H   0  0  0  0  0  0  0  0  0  0  0  0
   -3.8943   -5.8836    3.7869 H   0  0  0  0  0  0  0  0  0  0  0  0
   -3.6410   -4.1971    4.2605 H   0  0  0  0  0  0  0  0  0  0  0  0
   -2.7120   -6.4600    5.5940 H   0  0  0  0  0  0  0  0  0  0  0  0
   -2.7040   -4.9180    6.2630 H   0  0  0  0  0  0  0  0  0  0  0  0
   -4.0404   -7.0511    7.2853 H   0  0  0  0  0  0  0  0  0  0  0  0
   -4.5310   -5.3940    7.6148 H   0  0  0  0  0  0  0  0  0  0  0  0
   -6.4969   -6.4777    6.5457 H   0  0  0  0  0  0  0  0  0  0  0  0
   -7.3863   -8.0398    3.9377 H   0  0  0  0  0  0  0  0  0  0  0  0
   -6.7835   -6.3249    3.8249 H   0  0  0  0  0  0  0  0  0  0  0  0
   -5.7772   -5.6301    1.8767 H   0  0  0  0  0  0  0  0  0  0  0  0
   -4.7109   -6.1424   -0.3141 H   0  0  0  0  0  0  0  0  0  0  0  0
   -4.1523   -8.4960   -0.9132 H   0  0  0  0  0  0  0  0  0  0  0  0
   -4.6708  -10.3421    0.6781 H   0  0  0  0  0  0  0  0  0  0  0  0
   -5.7551   -9.8410    2.8614 H   0  0  0  0  0  0  0  0  0  0  0  0
   -4.7106   -9.4498    8.3856 H   0  0  0  0  0  0  0  0  0  0  0  0
   -5.4773   -8.9251   10.6991 H   0  0  0  0  0  0  0  0  0  0  0  0
   -7.7160   -7.8924   11.0645 H   0  0  0  0  0  0  0  0  0  0  0  0
   -9.1917   -7.3907    9.1195 H   0  0  0  0  0  0  0  0  0  0  0  0
  1  2  2  0
  2  3  2  0
  2  4  1  0
  4  5  2  0
  5  6  1  0
  6  7  2  0
  7  8  1  0
  8  9  2  0
  9 10  1  0
  2 11  1  0
 11 12  1  0
 12 13  1  0
 13 14  2  0
 14 15  1  0
 15 16  2  0
 16 17  1  0
 17 18  2  0
 11 19  1  0
 19 20  1  0
 20 21  1  0
 21 22  1  0
 22 23  1  0
 23 24  1  0
 24 25  1  0
 25 26  1  0
 26 27  2  0
 27 28  1  0
 28 29  2  0
 29 30  1  0
 30 31  2  0
 24 32  1  0
 32 33  2  0
 32 34  2  0
 32 35  1  0
 35 36  2  0
 36 37  1  0
 37 38  2  0
 38 39  1  0
 39 40  2  0
 40 41  1  0
  9  4  1  0
 18 13  1  0
 23 19  1  0
 31 26  1  0
 40 35  1  0
  5 42  1  0
  6 43  1  0
  7 44  1  0
  8 45  1  0
 12 46  1  0
 12 47  1  0
 14 48  1  0
 15 49  1  0
 16 50  1  0
 17 51  1  0
 18 52  1  0
 19 53  1  6
 20 54  1  0
 20 55  1  0
 21 56  1  0
 21 57  1  0
 22 58  1  0
 22 59  1  0
 23 60  1  1
 25 61  1  0
 25 62  1  0
 27 63  1  0
 28 64  1  0
 29 65  1  0
 30 66  1  0
 31 67  1  0
 36 68  1  0
 37 69  1  0
 38 70  1  0
 39 71  1  0
M  CHG  1  21   1
M  END
>  <meeko>  (4) 
{"is_sidechain": [false], "free_energy": -8.323, "intermolecular_energy": -12.518, "internal_energy": -1.102}

$$$$
2qnq_ligand
     RDKit          3D

 71 75  0  0  0  0  0  0  0  0999 V2000
   -8.4890   -3.7340    7.1320 O   0  0  0  0  0  0  0  0  0  0  0  0
   -7.9210   -5.0530    6.9790 S   0  0  0  0  0  0  0  0  0  0  0  0
   -8.5630   -6.0590    6.1610 O   0  0  0  0  0  0  0  0  0  0  0  0
   -7.7130   -5.7360    8.6010 C   0  0  0  0  0  0  0  0  0  0  0  0
   -6.4480   -6.0370    9.1220 C   0  0  0  0  0  0  0  0  0  0  0  0
   -6.3280   -6.6020   10.3960 C   0  0  0  0  0  0  0  0  0  0  0  0
   -7.4630   -6.8630   11.1550 C   0  0  0  0  0  0  0  0  0  0  0  0
   -8.7230   -6.5530   10.6470 C   0  0  0  0  0  0  0  0  0  0  0  0
   -8.8560   -5.9880    9.3730 C   0  0  0  0  0  0  0  0  0  0  0  0
  -10.4630   -5.6220    8.8580 Cl  0  0  0  0  0  0  0  0  0  0  0  0
   -6.3670   -4.8290    6.2720 N   0  0  0  0  0  0  0  0  0  0  0  0
   -5.9180   -3.4020    6.2220 C   0  0  0  0  0  0  0  0  0  0  0  0
   -4.8960   -3.0790    7.2890 C   0  0  0  0  0  0  0  0  0  0  0  0
   -3.5470   -2.8800    6.9540 C   0  0  0  0  0  0  0  0  0  0  0  0
   -2.6030   -2.6060    7.9450 C   0  0  0  0  0  0  0  0  0  0  0  0
   -2.9990   -2.5050    9.2770 C   0  0  0  0  0  0  0  0  0  0  0  0
   -4.3400   -2.6570    9.6180 C   0  0  0  0  0  0  0  0  0  0  0  0
   -5.2850   -2.9330    8.6280 C   0  0  0  0  0  0  0  0  0  0  0  0
   -5.9060   -5.8010    5.1990 C   0  0  1  0  0  0  0  0  0  0  0  0
   -4.5580   -5.4180    4.5450 C   0  0  0  0  0  0  0  0  0  0  0  0
   -3.4940   -5.9070    5.4850 N   0  0  0  0  0  0  0  0  0  0  0  0
   -4.1700   -6.8140    6.4700 C   0  0  0  0  0  0  0  0  0  0  0  0
   -5.5000   -7.1910    5.7880 C   0  0  2  0  0  0  0  0  0  0  0  0
   -5.4240   -8.2260    4.6340 N   0  0  0  0  0  0  0  0  0  0  0  0
   -6.4150   -7.8590    3.5530 C   0  0  0  0  0  0  0  0  0  0  0  0
   -5.7970   -7.8340    2.1750 C   0  0  0  0  0  0  0  0  0  0  0  0
   -5.6620   -6.6260    1.4790 C   0  0  0  0  0  0  0  0  0  0  0  0
   -5.1270   -6.6030    0.1900 C   0  0  0  0  0  0  0  0  0  0  0  0
   -4.7240   -7.7900   -0.4190 C   0  0  0  0  0  0  0  0  0  0  0  0
   -4.8600   -8.9990    0.2570 C   0  0  0  0  0  0  0  0  0  0  0  0
   -5.4000   -9.0230    1.5430 C   0  0  0  0  0  0  0  0  0  0  0  0
   -5.5280   -9.8830    5.0890 S   0  0  0  0  0  0  0  0  0  0  0  0
   -6.4900  -10.4950    4.1890 O   0  0  0  0  0  0  0  0  0  0  0  0
   -4.1630  -10.3570    5.1020 O   0  0  0  0  0  0  0  0  0  0  0  0
   -6.1860   -9.9190    6.7250 C   0  0  0  0  0  0  0  0  0  0  0  0
   -5.3040  -10.1860    7.7850 C   0  0  0  0  0  0  0  0  0  0  0  0
   -5.7770  -10.2400    9.0940 C   0  0  0  0  0  0  0  0  0  0  0  0
   -7.1300  -10.0380    9.3520 C   0  0  0  0  0  0  0  0  0  0  0  0
   -8.0120   -9.7870    8.2990 C   0  0  0  0  0  0  0  0  0  0  0  0
   -7.5460   -9.7290    6.9790 C   0  0  0  0  0  0  0  0  0  0  0  0
   -8.7220   -9.4070    5.7580 Cl  0  0  0  0  0  0  0  0  0  0  0  0
   -5.5463   -5.8284    8.5275 H   0  0  0  0  0  0  0  0  0  0  0  0
   -5.3324   -6.8405   10.7985 H   0  0  0  0  0  0  0  0  0  0  0  0
   -7.3667   -7.3131   12.1541 H   0  0  0  0  0  0  0  0  0  0  0  0
   -9.6198   -6.7537   11.2515 H   0  0  0  0  0  0  0  0  0  0  0  0
   -5.4720   -3.2068    5.2356 H   0  0  0  0  0  0  0  0  0  0  0  0
   -6.7990   -2.7678    6.4000 H   0  0  0  0  0  0  0  0  0  0  0  0
   -3.2315   -2.9405    5.9019 H   0  0  0  0  0  0  0  0  0  0  0  0
   -1.5456   -2.4697    7.6742 H   0  0  0  0  0  0  0  0  0  0  0  0
   -2.2519   -2.3051   10.0592 H   0  0  0  0  0  0  0  0  0  0  0  0
   -4.6551   -2.5597   10.6674 H   0  0  0  0  0  0  0  0  0  0  0  0
   -6.3454   -3.0369    8.9013 H   0  0  0  0  0  0  0  0  0  0  0  0
   -6.7661   -5.7992    4.5133 H   0  0  0  0  0  0  0  0  0  0  0  0
   -4.4560   -5.9052    3.5641 H   0  0  0  0  0  0  0  0  0  0  0  0
   -4.4829   -4.3335    4.3773 H   0  0  0  0  0  0  0  0  0  0  0  0
   -2.8050   -6.4810    4.9560 H   0  0  0  0  0  0  0  0  0  0  0  0
   -2.9890   -5.1480    5.9620 H   0  0  0  0  0  0  0  0  0  0  0  0
   -3.5601   -7.7101    6.6572 H   0  0  0  0  0  0  0  0  0  0  0  0
   -4.3200   -6.3351    7.4488 H   0  0  0  0  0  0  0  0  0  0  0  0
   -6.1831   -7.6800    6.4981 H   0  0  0  0  0  0  0  0  0  0  0  0
   -7.2306   -8.5971    3.5589 H   0  0  0  0  0  0  0  0  0  0  0  0
   -6.7805   -6.8445    3.7700 H   0  0  0  0  0  0  0  0  0  0  0  0
   -5.9808   -5.6860    1.9530 H   0  0  0  0  0  0  0  0  0  0  0  0
   -5.0234   -5.6477   -0.3453 H   0  0  0  0  0  0  0  0  0  0  0  0
   -4.2987   -7.7714   -1.4333 H   0  0  0  0  0  0  0  0  0  0  0  0
   -4.5415   -9.9361   -0.2230 H   0  0  0  0  0  0  0  0  0  0  0  0
   -5.5159   -9.9832    2.0671 H   0  0  0  0  0  0  0  0  0  0  0  0
   -4.2361  -10.3530    7.5807 H   0  0  0  0  0  0  0  0  0  0  0  0
   -5.0824  -10.4420    9.9227 H   0  0  0  0  0  0  0  0  0  0  0  0
   -7.5044  -10.0761   10.3856 H   0  0  0  0  0  0  0  0  0  0  0  0
   -9.0811   -9.6336    8.5075 H   0  0  0  0  0  0  0  0  0  0  0  0
  1  2  2  0
  2  3  2  0
  2  4  1  0
  4  5  2  0
  5  6  1  0
  6  7  2  0
  7  8  1  0
  8  9  2  0
  9 10  1  0
  2 11  1  0
 11 12  1  0
 12 13  1  0
 13 14  2  0
 14 15  1  0
 15 16  2  0
 16 17  1  0
 17 18  2  0
 11 19  1  0
 19 20  1  0
 20 21  1  0
 21 22  1  0
 22 23  1  0
 23 24  1  0
 24 25  1  0
 25 26  1  0
 26 27  2  0
 27 28  1  0
 28 29  2  0
 29 30  1  0
 30 31  2  0
 24 32  1  0
 32 33  2  0
 32 34  2  0
 32 35  1  0
 35 36  2  0
 36 37  1  0
 37 38  2  0
 38 39  1  0
 39 40  2  0
 40 41  1  0
  9  4  1  0
 18 13  1  0
 23 19  1  0
 31 26  1  0
 40 35  1  0
  5 42  1  0
  6 43  1  0
  7 44  1  0
  8 45  1  0
 12 46  1  0
 12 47  1  0
 14 48  1  0
 15 49  1  0
 16 50  1  0
 17 51  1  0
 18 52  1  0
 19 53  1  6
 20 54  1  0
 20 55  1  0
 21 56  1  0
 21 57  1  0
 22 58  1  0
 22 59  1  0
 23 60  1  1
 25 61  1  0
 25 62  1  0
 27 63  1  0
 28 64  1  0
 29 65  1  0
 30 66  1  0
 31 67  1  0
 36 68  1  0
 37 69  1  0
 38 70  1  0
 39 71  1  0
M  CHG  1  21   1
M  END
>  <meeko>  (5) 
{"is_sidechain": [false], "free_energy": -8.3, "intermolecular_energy": -10.88, "internal_energy": -2.703}

$$$$
2qnq_ligand
     RDKit          3D

 71 75  0  0  0  0  0  0  0  0999 V2000
   -6.6490   -1.4970    5.7670 O   0  0  0  0  0  0  0  0  0  0  0  0
   -6.4130   -2.8790    6.1130 S   0  0  0  0  0  0  0  0  0  0  0  0
   -7.3710   -3.9110    5.7840 O   0  0  0  0  0  0  0  0  0  0  0  0
   -6.1290   -2.9500    7.8610 C   0  0  0  0  0  0  0  0  0  0  0  0
   -4.8460   -2.8190    8.4100 C   0  0  0  0  0  0  0  0  0  0  0  0
   -4.6590   -2.9100    9.7920 C   0  0  0  0  0  0  0  0  0  0  0  0
   -5.7460   -3.1260   10.6320 C   0  0  0  0  0  0  0  0  0  0  0  0
   -7.0260   -3.2440   10.0930 C   0  0  0  0  0  0  0  0  0  0  0  0
   -7.2250   -3.1560    8.7100 C   0  0  0  0  0  0  0  0  0  0  0  0
   -8.8560   -3.2900    8.1580 Cl  0  0  0  0  0  0  0  0  0  0  0  0
   -4.9650   -3.3370    5.3000 N   0  0  0  0  0  0  0  0  0  0  0  0
   -4.2870   -2.2140    4.5810 C   0  0  0  0  0  0  0  0  0  0  0  0
   -4.9570   -1.8790    3.2660 C   0  0  0  0  0  0  0  0  0  0  0  0
   -5.2020   -0.5460    2.9030 C   0  0  0  0  0  0  0  0  0  0  0  0
   -5.8410   -0.2440    1.7000 C   0  0  0  0  0  0  0  0  0  0  0  0
   -6.2230   -1.2680    0.8370 C   0  0  0  0  0  0  0  0  0  0  0  0
   -5.9490   -2.5930    1.1650 C   0  0  0  0  0  0  0  0  0  0  0  0
   -5.3100   -2.8970    2.3680 C   0  0  0  0  0  0  0  0  0  0  0  0
   -4.8460   -4.7540    4.7670 C   0  0  1  0  0  0  0  0  0  0  0  0
   -3.4600   -5.0810    4.1620 C   0  0  0  0  0  0  0  0  0  0  0  0
   -2.5740   -5.4150    5.3280 N   0  0  0  0  0  0  0  0  0  0  0  0
   -3.4720   -5.5950    6.5160 C   0  0  0  0  0  0  0  0  0  0  0  0
   -4.8680   -5.8240    5.9060 C   0  0  2  0  0  0  0  0  0  0  0  0
   -5.1360   -7.2210    5.2830 N   0  0  0  0  0  0  0  0  0  0  0  0
   -6.1910   -7.1050    4.2060 C   0  0  0  0  0  0  0  0  0  0  0  0
   -5.7170   -7.6110    2.8640 C   0  0  0  0  0  0  0  0  0  0  0  0
   -5.5300   -6.7240    1.7960 C   0  0  0  0  0  0  0  0  0  0  0  0
   -5.1290   -7.1920    0.5440 C   0  0  0  0  0  0  0  0  0  0  0  0
   -4.9130   -8.5530    0.3450 C   0  0  0  0  0  0  0  0  0  0  0  0
   -5.1030   -9.4480    1.3940 C   0  0  0  0  0  0  0  0  0  0  0  0
   -5.5090   -8.9810    2.6440 C   0  0  0  0  0  0  0  0  0  0  0  0
   -5.4610   -8.4990    6.3890 S   0  0  0  0  0  0  0  0  0  0  0  0
   -4.9130   -9.7050    5.7940 O   0  0  0  0  0  0  0  0  0  0  0  0
   -4.9510   -8.0370    7.6600 O   0  0  0  0  0  0  0  0  0  0  0  0
   -7.2150   -8.6600    6.4750 C   0  0  0  0  0  0  0  0  0  0  0  0
   -7.8220   -9.6790    5.7210 C   0  0  0  0  0  0  0  0  0  0  0  0
   -9.2060   -9.8370    5.7430 C   0  0  0  0  0  0  0  0  0  0  0  0
   -9.9910   -8.9770    6.5070 C   0  0  0  0  0  0  0  0  0  0  0  0
   -9.3920   -7.9560    7.2460 C   0  0  0  0  0  0  0  0  0  0  0  0
   -8.0010   -7.7880    7.2310 C   0  0  0  0  0  0  0  0  0  0  0  0
   -7.3680   -6.4970    8.1850 Cl  0  0  0  0  0  0  0  0  0  0  0  0
   -3.9831   -2.6439    7.7506 H   0  0  0  0  0  0  0  0  0  0  0  0
   -3.6491   -2.8105   10.2165 H   0  0  0  0  0  0  0  0  0  0  0  0
   -5.5961   -3.2035   11.7190 H   0  0  0  0  0  0  0  0  0  0  0  0
   -7.8860   -3.4074   10.7591 H   0  0  0  0  0  0  0  0  0  0  0  0
   -4.3055   -1.3215    5.2237 H   0  0  0  0  0  0  0  0  0  0  0  0
   -3.2575   -2.5321    4.3599 H   0  0  0  0  0  0  0  0  0  0  0  0
   -4.8876    0.2680    3.5727 H   0  0  0  0  0  0  0  0  0  0  0  0
   -6.0432    0.8038    1.4330 H   0  0  0  0  0  0  0  0  0  0  0  0
   -6.7411   -1.0300   -0.1037 H   0  0  0  0  0  0  0  0  0  0  0  0
   -6.2363   -3.4007    0.4757 H   0  0  0  0  0  0  0  0  0  0  0  0
   -5.0812   -3.9444    2.6141 H   0  0  0  0  0  0  0  0  0  0  0  0
   -5.6806   -4.7926    4.0515 H   0  0  0  0  0  0  0  0  0  0  0  0
   -3.5333   -5.9395    3.4781 H   0  0  0  0  0  0  0  0  0  0  0  0
   -3.0625   -4.2365    3.5799 H   0  0  0  0  0  0  0  0  0  0  0  0
   -2.1040   -6.3270    5.1530 H   0  0  0  0  0  0  0  0  0  0  0  0
   -1.8520   -4.7040    5.5090 H   0  0  0  0  0  0  0  0  0  0  0  0
   -3.1597   -6.4650    7.1124 H   0  0  0  0  0  0  0  0  0  0  0  0
   -3.4471   -4.7312    7.1966 H   0  0  0  0  0  0  0  0  0  0  0  0
   -5.6514   -5.7545    6.6751 H   0  0  0  0  0  0  0  0  0  0  0  0
   -7.0707   -7.6906    4.5115 H   0  0  0  0  0  0  0  0  0  0  0  0
   -6.4305   -6.0375    4.0912 H   0  0  0  0  0  0  0  0  0  0  0  0
   -5.7010   -5.6477    1.9458 H   0  0  0  0  0  0  0  0  0  0  0  0
   -4.9835   -6.4852   -0.2862 H   0  0  0  0  0  0  0  0  0  0  0  0
   -4.5923   -8.9208   -0.6408 H   0  0  0  0  0  0  0  0  0  0  0  0
   -4.9330  -10.5234    1.2372 H   0  0  0  0  0  0  0  0  0  0  0  0
   -5.6678   -9.6944    3.4661 H   0  0  0  0  0  0  0  0  0  0  0  0
   -7.2026  -10.3537    5.1118 H   0  0  0  0  0  0  0  0  0  0  0  0
   -9.6781  -10.6399    5.1577 H   0  0  0  0  0  0  0  0  0  0  0  0
  -11.0836   -9.1026    6.5279 H   0  0  0  0  0  0  0  0  0  0  0  0
  -10.0170   -7.2775    7.8452 H   0  0  0  0  0  0  0  0  0  0  0  0
  1  2  2  0
  2  3  2  0
  2  4  1  0
  4  5  2  0
  5  6  1  0
  6  7  2  0
  7  8  1  0
  8  9  2  0
  9 10  1  0
  2 11  1  0
 11 12  1  0
 12 13  1  0
 13 14  2  0
 14 15  1  0
 15 16  2  0
 16 17  1  0
 17 18  2  0
 11 19  1  0
 19 20  1  0
 20 21  1  0
 21 22  1  0
 22 23  1  0
 23 24  1  0
 24 25  1  0
 25 26  1  0
 26 27  2  0
 27 28  1  0
 28 29  2  0
 29 30  1  0
 30 31  2  0
 24 32  1  0
 32 33  2  0
 32 34  2  0
 32 35  1  0
 35 36  2  0
 36 37  1  0
 37 38  2  0
 38 39  1  0
 39 40  2  0
 40 41  1  0
  9  4  1  0
 18 13  1  0
 23 19  1  0
 31 26  1  0
 40 35  1  0
  5 42  1  0
  6 43  1  0
  7 44  1  0
  8 45  1  0
 12 46  1  0
 12 47  1  0
 14 48  1  0
 15 49  1  0
 16 50  1  0
 17 51  1  0
 18 52  1  0
 19 53  1  6
 20 54  1  0
 20 55  1  0
 21 56  1  0
 21 57  1  0
 22 58  1  0
 22 59  1  0
 23 60  1  1
 25 61  1  0
 25 62  1  0
 27 63  1  0
 28 64  1  0
 29 65  1  0
 30 66  1  0
 31 67  1  0
 36 68  1  0
 37 69  1  0
 38 70  1  0
 39 71  1  0
M  CHG  1  21   1
M  END
>  <meeko>  (6) 
{"is_sidechain": [false], "free_energy": -8.281, "intermolecular_energy": -12.55, "internal_energy": -1.004}

$$$$
2qnq_ligand
     RDKit          3D

 71 75  0  0  0  0  0  0  0  0999 V2000
   -7.3950    0.5660   -5.2300 O   0  0  0  0  0  0  0  0  0  0  0  0
   -7.3830    1.9570   -5.6180 S   0  0  0  0  0  0  0  0  0  0  0  0
   -8.4210    2.8670   -5.1860 O   0  0  0  0  0  0  0  0  0  0  0  0
   -7.3220    2.0160   -7.3880 C   0  0  0  0  0  0  0  0  0  0  0  0
   -6.1090    2.0050   -8.0890 C   0  0  0  0  0  0  0  0  0  0  0  0
   -6.1020    2.0820   -9.4850 C   0  0  0  0  0  0  0  0  0  0  0  0
   -7.2990    2.1660  -10.1870 C   0  0  0  0  0  0  0  0  0  0  0  0
   -8.5100    2.1660   -9.4960 C   0  0  0  0  0  0  0  0  0  0  0  0
   -8.5290    2.0890   -8.0980 C   0  0  0  0  0  0  0  0  0  0  0  0
  -10.0860    2.0680   -7.3510 Cl  0  0  0  0  0  0  0  0  0  0  0  0
   -5.9210    2.6180   -4.9930 N   0  0  0  0  0  0  0  0  0  0  0  0
   -5.0190    1.6100   -4.3520 C   0  0  0  0  0  0  0  0  0  0  0  0
   -5.5180    1.1680   -2.9940 C   0  0  0  0  0  0  0  0  0  0  0  0
   -5.5730   -0.1930   -2.6580 C   0  0  0  0  0  0  0  0  0  0  0  0
   -6.0560   -0.5970   -1.4110 C   0  0  0  0  0  0  0  0  0  0  0  0
   -6.4670    0.3550   -0.4810 C   0  0  0  0  0  0  0  0  0  0  0  0
   -6.3770    1.7100   -0.7860 C   0  0  0  0  0  0  0  0  0  0  0  0
   -5.8960    2.1150   -2.0320 C   0  0  0  0  0  0  0  0  0  0  0  0
   -5.9250    4.0520   -4.4920 C   0  0  1  0  0  0  0  0  0  0  0  0
   -4.5450    4.5450   -3.9960 C   0  0  0  0  0  0  0  0  0  0  0  0
   -3.7880    4.9480   -5.2290 N   0  0  0  0  0  0  0  0  0  0  0  0
   -4.7830    4.9990   -6.3500 C   0  0  0  0  0  0  0  0  0  0  0  0
   -6.1490    5.0860   -5.6430 C   0  0  2  0  0  0  0  0  0  0  0  0
   -6.5270    6.4580   -5.0230 N   0  0  0  0  0  0  0  0  0  0  0  0
   -7.4500    6.2480   -3.8440 C   0  0  0  0  0  0  0  0  0  0  0  0
   -6.9180    6.8560   -2.5680 C   0  0  0  0  0  0  0  0  0  0  0  0
   -6.6180    6.0450   -1.4650 C   0  0  0  0  0  0  0  0  0  0  0  0
   -6.1630    6.6060   -0.2720 C   0  0  0  0  0  0  0  0  0  0  0  0
   -6.0060    7.9860   -0.1650 C   0  0  0  0  0  0  0  0  0  0  0  0
   -6.3090    8.8060   -1.2490 C   0  0  0  0  0  0  0  0  0  0  0  0
   -6.7690    8.2460   -2.4410 C   0  0  0  0  0  0  0  0  0  0  0  0
   -7.1150    7.6510   -6.1160 S   0  0  0  0  0  0  0  0  0  0  0  0
   -6.6520    8.9320   -5.6120 O   0  0  0  0  0  0  0  0  0  0  0  0
   -6.6920    7.2050   -7.4240 O   0  0  0  0  0  0  0  0  0  0  0  0
   -8.8760    7.6080   -6.0120 C   0  0  0  0  0  0  0  0  0  0  0  0
   -9.5140    8.5790   -5.2220 C   0  0  0  0  0  0  0  0  0  0  0  0
  -10.9020    8.5780   -5.0960 C   0  0  0  0  0  0  0  0  0  0  0  0
  -11.6570    7.6060   -5.7470 C   0  0  0  0  0  0  0  0  0  0  0  0
  -11.0240    6.6320   -6.5210 C   0  0  0  0  0  0  0  0  0  0  0  0
   -9.6300    6.6250   -6.6550 C   0  0  0  0  0  0  0  0  0  0  0  0
   -8.9550    5.3790   -7.6400 Cl  0  0  0  0  0  0  0  0  0  0  0  0
   -5.1588    1.9355   -7.5391 H   0  0  0  0  0  0  0  0  0  0  0  0
   -5.1463    2.0761  -10.0296 H   0  0  0  0  0  0  0  0  0  0  0  0
   -7.2907    2.2323  -11.2850 H   0  0  0  0  0  0  0  0  0  0  0  0
   -9.4567    2.2269  -10.0528 H   0  0  0  0  0  0  0  0  0  0  0  0
   -4.9521    0.7290   -5.0073 H   0  0  0  0  0  0  0  0  0  0  0  0
   -4.0362    2.0831   -4.2096 H   0  0  0  0  0  0  0  0  0  0  0  0
   -5.2331   -0.9480   -3.3822 H   0  0  0  0  0  0  0  0  0  0  0  0
   -6.1118   -1.6673   -1.1634 H   0  0  0  0  0  0  0  0  0  0  0  0
   -6.8627    0.0359    0.4945 H   0  0  0  0  0  0  0  0  0  0  0  0
   -6.6851    2.4620   -0.0447 H   0  0  0  0  0  0  0  0  0  0  0  0
   -5.8127    3.1876   -2.2614 H   0  0  0  0  0  0  0  0  0  0  0  0
   -6.7054    4.0146   -3.7177 H   0  0  0  0  0  0  0  0  0  0  0  0
   -4.6653    5.4058   -3.3217 H   0  0  0  0  0  0  0  0  0  0  0  0
   -4.0144    3.7638   -3.4320 H   0  0  0  0  0  0  0  0  0  0  0  0
   -3.4130    5.9110   -5.1020 H   0  0  0  0  0  0  0  0  0  0  0  0
   -3.0050    4.3190   -5.4520 H   0  0  0  0  0  0  0  0  0  0  0  0
   -4.6139    5.8839   -6.9812 H   0  0  0  0  0  0  0  0  0  0  0  0
   -4.7098    4.1273   -7.0169 H   0  0  0  0  0  0  0  0  0  0  0  0
   -6.9723    4.9122   -6.3515 H   0  0  0  0  0  0  0  0  0  0  0  0
   -8.4228    6.7074   -4.0732 H   0  0  0  0  0  0  0  0  0  0  0  0
   -7.5386    5.1636   -3.6821 H   0  0  0  0  0  0  0  0  0  0  0  0
   -6.7427    4.9547   -1.5411 H   0  0  0  0  0  0  0  0  0  0  0  0
   -5.9279    5.9581    0.5853 H   0  0  0  0  0  0  0  0  0  0  0  0
   -5.6430    8.4276    0.7748 H   0  0  0  0  0  0  0  0  0  0  0  0
   -6.1856    9.8958   -1.1653 H   0  0  0  0  0  0  0  0  0  0  0  0
   -7.0174    8.9001   -3.2898 H   0  0  0  0  0  0  0  0  0  0  0  0
   -8.9165    9.3420   -4.7016 H   0  0  0  0  0  0  0  0  0  0  0  0
  -11.4002    9.3438   -4.4833 H   0  0  0  0  0  0  0  0  0  0  0  0
  -12.7528    7.6056   -5.6513 H   0  0  0  0  0  0  0  0  0  0  0  0
  -11.6249    5.8638   -7.0297 H   0  0  0  0  0  0  0  0  0  0  0  0
  1  2  2  0
  2  3  2  0
  2  4  1  0
  4  5  2  0
  5  6  1  0
  6  7  2  0
  7  8  1  0
  8  9  2  0
  9 10  1  0
  2 11  1  0
 11 12  1  0
 12 13  1  0
 13 14  2  0
 14 15  1  0
 15 16  2  0
 16 17  1  0
 17 18  2  0
 11 19  1  0
 19 20  1  0
 20 21  1  0
 21 22  1  0
 22 23  1  0
 23 24  1  0
 24 25  1  0
 25 26  1  0
 26 27  2  0
 27 28  1  0
 28 29  2  0
 29 30  1  0
 30 31  2  0
 24 32  1  0
 32 33  2  0
 32 34  2  0
 32 35  1  0
 35 36  2  0
 36 37  1  0
 37 38  2  0
 38 39  1  0
 39 40  2  0
 40 41  1  0
  9  4  1  0
 18 13  1  0
 23 19  1  0
 31 26  1  0
 40 35  1  0
  5 42  1  0
  6 43  1  0
  7 44  1  0
  8 45  1  0
 12 46  1  0
 12 47  1  0
 14 48  1  0
 15 49  1  0
 16 50  1  0
 17 51  1  0
 18 52  1  0
 19 53  1  1
 20 54  1  0
 20 55  1  0
 21 56  1  0
 21 57  1  0
 22 58  1  0
 22 59  1  0
 23 60  1  6
 25 61  1  0
 25 62  1  0
 27 63  1  0
 28 64  1  0
 29 65  1  0
 30 66  1  0
 31 67  1  0
 36 68  1  0
 37 69  1  0
 38 70  1  0
 39 71  1  0
M  CHG  1  21   1
M  END
>  <meeko>  (7) 
{"is_sidechain": [false], "free_energy": -8.26, "intermolecular_energy": -12.57, "internal_energy": -0.952}

$$$$
2qnq_ligand
     RDKit          3D

 71 75  0  0  0  0  0  0  0  0999 V2000
   -9.6710    2.6870   -6.5460 O   0  0  0  0  0  0  0  0  0  0  0  0
   -9.2560    4.0670   -6.4450 S   0  0  0  0  0  0  0  0  0  0  0  0
   -9.9520    5.0010   -5.5870 O   0  0  0  0  0  0  0  0  0  0  0  0
   -9.2530    4.7450   -8.0820 C   0  0  0  0  0  0  0  0  0  0  0  0
   -8.0760    5.1840   -8.7010 C   0  0  0  0  0  0  0  0  0  0  0  0
   -8.1190    5.7390   -9.9840 C   0  0  0  0  0  0  0  0  0  0  0  0
   -9.3310    5.8550  -10.6550 C   0  0  0  0  0  0  0  0  0  0  0  0
  -10.5050    5.4090  -10.0490 C   0  0  0  0  0  0  0  0  0  0  0  0
  -10.4730    4.8510   -8.7650 C   0  0  0  0  0  0  0  0  0  0  0  0
  -11.9830    4.3080   -8.1260 Cl  0  0  0  0  0  0  0  0  0  0  0  0
   -7.6380    4.0410   -5.8560 N   0  0  0  0  0  0  0  0  0  0  0  0
   -7.0220    2.6770   -5.8220 C   0  0  0  0  0  0  0  0  0  0  0  0
   -6.0660    2.4460   -6.9720 C   0  0  0  0  0  0  0  0  0  0  0  0
   -4.6820    2.3780   -6.7530 C   0  0  0  0  0  0  0  0  0  0  0  0
   -3.8030    2.1880   -7.8200 C   0  0  0  0  0  0  0  0  0  0  0  0
   -4.2980    2.0400   -9.1140 C   0  0  0  0  0  0  0  0  0  0  0  0
   -5.6710    2.0620   -9.3400 C   0  0  0  0  0  0  0  0  0  0  0  0
   -6.5510    2.2540   -8.2740 C   0  0  0  0  0  0  0  0  0  0  0  0
   -7.2170    5.0830   -4.8340 C   0  0  1  0  0  0  0  0  0  0  0  0
   -5.8090    4.8450   -4.2410 C   0  0  0  0  0  0  0  0  0  0  0  0
   -4.8420    5.3990   -5.2470 N   0  0  0  0  0  0  0  0  0  0  0  0
   -5.6460    6.2100   -6.2190 C   0  0  0  0  0  0  0  0  0  0  0  0
   -6.9700    6.4850   -5.4800 C   0  0  2  0  0  0  0  0  0  0  0  0
   -6.9330    7.5590   -4.3590 N   0  0  0  0  0  0  0  0  0  0  0  0
   -7.8140    7.1250   -3.2080 C   0  0  0  0  0  0  0  0  0  0  0  0
   -7.1080    7.1870   -1.8750 C   0  0  0  0  0  0  0  0  0  0  0  0
   -6.4380    8.3530   -1.4780 C   0  0  0  0  0  0  0  0  0  0  0  0
   -5.7510    8.4010   -0.2640 C   0  0  0  0  0  0  0  0  0  0  0  0
   -5.7240    7.2830    0.5660 C   0  0  0  0  0  0  0  0  0  0  0  0
   -6.3760    6.1150    0.1820 C   0  0  0  0  0  0  0  0  0  0  0  0
   -7.0580    6.0640   -1.0340 C   0  0  0  0  0  0  0  0  0  0  0  0
   -7.2370    9.1820   -4.8460 S   0  0  0  0  0  0  0  0  0  0  0  0
   -8.1420    9.7430   -3.8600 O   0  0  0  0  0  0  0  0  0  0  0  0
   -5.9300    9.7710   -5.0310 O   0  0  0  0  0  0  0  0  0  0  0  0
   -8.0750    9.0950   -6.3960 C   0  0  0  0  0  0  0  0  0  0  0  0
   -7.3530    9.4240   -7.5550 C   0  0  0  0  0  0  0  0  0  0  0  0
   -7.9750    9.3860   -8.8020 C   0  0  0  0  0  0  0  0  0  0  0  0
   -9.3180    9.0320   -8.8980 C   0  0  0  0  0  0  0  0  0  0  0  0
  -10.0410    8.7190   -7.7450 C   0  0  0  0  0  0  0  0  0  0  0  0
   -9.4260    8.7530   -6.4880 C   0  0  0  0  0  0  0  0  0  0  0  0
  -10.4130    8.3430   -5.1330 Cl  0  0  0  0  0  0  0  0  0  0  0  0
   -7.1138    5.0919   -8.1760 H   0  0  0  0  0  0  0  0  0  0  0  0
   -7.1913    6.0847  -10.4635 H   0  0  0  0  0  0  0  0  0  0  0  0
   -9.3638    6.2975  -11.6615 H   0  0  0  0  0  0  0  0  0  0  0  0
  -11.4627    5.4961  -10.5831 H   0  0  0  0  0  0  0  0  0  0  0  0
   -6.4716    2.5616   -4.8766 H   0  0  0  0  0  0  0  0  0  0  0  0
   -7.8343    1.9403   -5.9085 H   0  0  0  0  0  0  0  0  0  0  0  0
   -4.2863    2.4753   -5.7313 H   0  0  0  0  0  0  0  0  0  0  0  0
   -2.7184    2.1550   -7.6394 H   0  0  0  0  0  0  0  0  0  0  0  0
   -3.6038    1.9058   -9.9566 H   0  0  0  0  0  0  0  0  0  0  0  0
   -6.0627    1.9280  -10.3591 H   0  0  0  0  0  0  0  0  0  0  0  0
   -7.6357    2.2548   -8.4567 H   0  0  0  0  0  0  0  0  0  0  0  0
   -8.0385    5.0239   -4.1048 H   0  0  0  0  0  0  0  0  0  0  0  0
   -5.7045    5.3699   -3.2800 H   0  0  0  0  0  0  0  0  0  0  0  0
   -5.6259    3.7775   -4.0490 H   0  0  0  0  0  0  0  0  0  0  0  0
   -4.1830    6.0490   -4.7700 H   0  0  0  0  0  0  0  0  0  0  0  0
   -4.2930    4.6740   -5.7290 H   0  0  0  0  0  0  0  0  0  0  0  0
   -5.1314    7.1517   -6.4604 H   0  0  0  0  0  0  0  0  0  0  0  0
   -5.7986    5.6897   -7.1761 H   0  0  0  0  0  0  0  0  0  0  0  0
   -7.7295    6.8869   -6.1667 H   0  0  0  0  0  0  0  0  0  0  0  0
   -8.6937    7.7843   -3.1708 H   0  0  0  0  0  0  0  0  0  0  0  0
   -8.0968    6.0767   -3.3845 H   0  0  0  0  0  0  0  0  0  0  0  0
   -6.4540    9.2389   -2.1299 H   0  0  0  0  0  0  0  0  0  0  0  0
   -5.2307    9.3222    0.0373 H   0  0  0  0  0  0  0  0  0  0  0  0
   -5.1872    7.3232    1.5253 H   0  0  0  0  0  0  0  0  0  0  0  0
   -6.3536    5.2318    0.8374 H   0  0  0  0  0  0  0  0  0  0  0  0
   -7.5618    5.1342   -1.3369 H   0  0  0  0  0  0  0  0  0  0  0  0
   -6.2942    9.7123   -7.4785 H   0  0  0  0  0  0  0  0  0  0  0  0
   -7.4052    9.6355   -9.7093 H   0  0  0  0  0  0  0  0  0  0  0  0
   -9.8094    8.9989   -9.8816 H   0  0  0  0  0  0  0  0  0  0  0  0
  -11.1029    8.4434   -7.8252 H   0  0  0  0  0  0  0  0  0  0  0  0
  1  2  2  0
  2  3  2  0
  2  4  1  0
  4  5  2  0
  5  6  1  0
  6  7  2  0
  7  8  1  0
  8  9  2  0
  9 10  1  0
  2 11  1  0
 11 12  1  0
 12 13  1  0
 13 14  2  0
 14 15  1  0
 15 16  2  0
 16 17  1  0
 17 18  2  0
 11 19  1  0
 19 20  1  0
 20 21  1  0
 21 22  1  0
 22 23  1  0
 23 24  1  0
 24 25  1  0
 25 26  1  0
 26 27  2  0
 27 28  1  0
 28 29  2  0
 29 30  1  0
 30 31  2  0
 24 32  1  0
 32 33  2  0
 32 34  2  0
 32 35  1  0
 35 36  2  0
 36 37  1  0
 37 38  2  0
 38 39  1  0
 39 40  2  0
 40 41  1  0
  9  4  1  0
 18 13  1  0
 23 19  1  0
 31 26  1  0
 40 35  1  0
  5 42  1  0
  6 43  1  0
  7 44  1  0
  8 45  1  0
 12 46  1  0
 12 47  1  0
 14 48  1  0
 15 49  1  0
 16 50  1  0
 17 51  1  0
 18 52  1  0
 19 53  1  1
 20 54  1  0
 20 55  1  0
 21 56  1  0
 21 57  1  0
 22 58  1  0
 22 59  1  0
 23 60  1  6
 25 61  1  0
 25 62  1  0
 27 63  1  0
 28 64  1  0
 29 65  1  0
 30 66  1  0
 31 67  1  0
 36 68  1  0
 37 69  1  0
 38 70  1  0
 39 71  1  0
M  CHG  1  21   1
M  END
>  <meeko>  (8) 
{"is_sidechain": [false], "free_energy": -8.245, "intermolecular_energy": -10.717, "internal_energy": -2.78}

$$$$
2qnq_ligand
     RDKit          3D

 71 75  0  0  0  0  0  0  0  0999 V2000
   -9.0360    6.9150   -4.0900 O   0  0  0  0  0  0  0  0  0  0  0  0
   -7.9070    7.6510   -4.6080 S   0  0  0  0  0  0  0  0  0  0  0  0
   -7.6030    8.9870   -4.1450 O   0  0  0  0  0  0  0  0  0  0  0  0
   -8.0790    7.7210   -6.3700 C   0  0  0  0  0  0  0  0  0  0  0  0
   -6.9870    7.5420   -7.2300 C   0  0  0  0  0  0  0  0  0  0  0  0
   -7.1580    7.6330   -8.6140 C   0  0  0  0  0  0  0  0  0  0  0  0
   -8.4150    7.8970   -9.1470 C   0  0  0  0  0  0  0  0  0  0  0  0
   -9.5080    8.0630   -8.2980 C   0  0  0  0  0  0  0  0  0  0  0  0
   -9.3480    7.9750   -6.9090 C   0  0  0  0  0  0  0  0  0  0  0  0
  -10.7750    8.1700   -5.9570 Cl  0  0  0  0  0  0  0  0  0  0  0  0
   -6.5100    6.7180   -4.2260 N   0  0  0  0  0  0  0  0  0  0  0  0
   -5.4640    7.4680   -3.4640 C   0  0  0  0  0  0  0  0  0  0  0  0
   -5.6410    7.3500   -1.9670 C   0  0  0  0  0  0  0  0  0  0  0  0
   -6.0130    8.4630   -1.1970 C   0  0  0  0  0  0  0  0  0  0  0  0
   -6.1530    8.3530    0.1880 C   0  0  0  0  0  0  0  0  0  0  0  0
   -5.9450    7.1270    0.8150 C   0  0  0  0  0  0  0  0  0  0  0  0
   -5.6170    6.0050    0.0590 C   0  0  0  0  0  0  0  0  0  0  0  0
   -5.4760    6.1130   -1.3250 C   0  0  0  0  0  0  0  0  0  0  0  0
   -6.0990    5.6010   -5.1700 C   0  0  1  0  0  0  0  0  0  0  0  0
   -4.6810    5.0440   -4.9020 C   0  0  0  0  0  0  0  0  0  0  0  0
   -4.8330    4.0700   -3.7690 N   0  0  0  0  0  0  0  0  0  0  0  0
   -6.3030    3.8240   -3.6040 C   0  0  0  0  0  0  0  0  0  0  0  0
   -6.9190    4.2910   -4.9370 C   0  0  2  0  0  0  0  0  0  0  0  0
   -6.7300    3.3510   -6.1590 N   0  0  0  0  0  0  0  0  0  0  0  0
   -7.1860    4.0540   -7.4180 C   0  0  0  0  0  0  0  0  0  0  0  0
   -8.6890    4.1320   -7.5330 C   0  0  0  0  0  0  0  0  0  0  0  0
   -9.3230    3.8680   -8.7550 C   0  0  0  0  0  0  0  0  0  0  0  0
  -10.7090    3.9760   -8.8760 C   0  0  0  0  0  0  0  0  0  0  0  0
  -11.4780    4.3530   -7.7770 C   0  0  0  0  0  0  0  0  0  0  0  0
  -10.8620    4.6270   -6.5590 C   0  0  0  0  0  0  0  0  0  0  0  0
   -9.4760    4.5250   -6.4390 C   0  0  0  0  0  0  0  0  0  0  0  0
   -7.3900    1.7680   -6.0120 S   0  0  0  0  0  0  0  0  0  0  0  0
   -8.6410    1.9110   -5.2900 O   0  0  0  0  0  0  0  0  0  0  0  0
   -7.4000    1.2380   -7.3570 O   0  0  0  0  0  0  0  0  0  0  0  0
   -6.2660    0.8420   -5.0170 C   0  0  0  0  0  0  0  0  0  0  0  0
   -6.7970    0.0570   -3.9790 C   0  0  0  0  0  0  0  0  0  0  0  0
   -5.9500   -0.6810   -3.1550 C   0  0  0  0  0  0  0  0  0  0  0  0
   -4.5730   -0.6330   -3.3540 C   0  0  0  0  0  0  0  0  0  0  0  0
   -4.0420    0.1570   -4.3750 C   0  0  0  0  0  0  0  0  0  0  0  0
   -4.8840    0.9020   -5.2090 C   0  0  0  0  0  0  0  0  0  0  0  0
   -4.1210    1.8390   -6.4410 Cl  0  0  0  0  0  0  0  0  0  0  0  0
   -5.9912    7.3290   -6.8139 H   0  0  0  0  0  0  0  0  0  0  0  0
   -6.2961    7.4955   -9.2835 H   0  0  0  0  0  0  0  0  0  0  0  0
   -8.5465    7.9747  -10.2363 H   0  0  0  0  0  0  0  0  0  0  0  0
  -10.5030    8.2645   -8.7215 H   0  0  0  0  0  0  0  0  0  0  0  0
   -4.4757    7.0681   -3.7348 H   0  0  0  0  0  0  0  0  0  0  0  0
   -5.5566    8.5317   -3.7284 H   0  0  0  0  0  0  0  0  0  0  0  0
   -6.1958    9.4299   -1.6886 H   0  0  0  0  0  0  0  0  0  0  0  0
   -6.4278    9.2355    0.7843 H   0  0  0  0  0  0  0  0  0  0  0  0
   -6.0399    7.0452    1.9078 H   0  0  0  0  0  0  0  0  0  0  0  0
   -5.4690    5.0332    0.5527 H   0  0  0  0  0  0  0  0  0  0  0  0
   -5.2331    5.2195   -1.9189 H   0  0  0  0  0  0  0  0  0  0  0  0
   -6.2253    6.0823   -6.1510 H   0  0  0  0  0  0  0  0  0  0  0  0
   -4.2941    4.5340   -5.7966 H   0  0  0  0  0  0  0  0  0  0  0  0
   -3.9703    5.8463   -4.6544 H   0  0  0  0  0  0  0  0  0  0  0  0
   -4.3940    3.1640   -4.0340 H   0  0  0  0  0  0  0  0  0  0  0  0
   -4.4070    4.3950   -2.8900 H   0  0  0  0  0  0  0  0  0  0  0  0
   -6.5028    2.7555   -3.4355 H   0  0  0  0  0  0  0  0  0  0  0  0
   -6.7235    4.3555   -2.7376 H   0  0  0  0  0  0  0  0  0  0  0  0
   -8.0140    4.3644   -4.8629 H   0  0  0  0  0  0  0  0  0  0  0  0
   -6.7802    5.0764   -7.4162 H   0  0  0  0  0  0  0  0  0  0  0  0
   -6.8182    3.4703   -8.2748 H   0  0  0  0  0  0  0  0  0  0  0  0
   -8.7218    3.5727   -9.6275 H   0  0  0  0  0  0  0  0  0  0  0  0
  -11.1948    3.7633   -9.8397 H   0  0  0  0  0  0  0  0  0  0  0  0
  -12.5709    4.4341   -7.8717 H   0  0  0  0  0  0  0  0  0  0  0  0
  -11.4686    4.9241   -5.6908 H   0  0  0  0  0  0  0  0  0  0  0  0
   -8.9947    4.7549   -5.4770 H   0  0  0  0  0  0  0  0  0  0  0  0
   -7.8845    0.0252   -3.8168 H   0  0  0  0  0  0  0  0  0  0  0  0
   -6.3687   -1.3007   -2.3484 H   0  0  0  0  0  0  0  0  0  0  0  0
   -3.9032   -1.2178   -2.7064 H   0  0  0  0  0  0  0  0  0  0  0  0
   -2.9530    0.1944   -4.5254 H   0  0  0  0  0  0  0  0  0  0  0  0
  1  2  2  0
  2  3  2  0
  2  4  1  0
  4  5  2  0
  5  6  1  0
  6  7  2  0
  7  8  1  0
  8  9  2  0
  9 10  1  0
  2 11  1  0
 11 12  1  0
 12 13  1  0
 13 14  2  0
 14 15  1  0
 15 16  2  0
 16 17  1  0
 17 18  2  0
 11 19  1  0
 19 20  1  0
 20 21  1  0
 21 22  1  0
 22 23  1  0
 23 24  1  0
 24 25  1  0
 25 26  1  0
 26 27  2  0
 27 28  1  0
 28 29  2  0
 29 30  1  0
 30 31  2  0
 24 32  1  0
 32 33  2  0
 32 34  2  0
 32 35  1  0
 35 36  2  0
 36 37  1  0
 37 38  2  0
 38 39  1  0
 39 40  2  0
 40 41  1  0
  9  4  1  0
 18 13  1  0
 23 19  1  0
 31 26  1  0
 40 35  1  0
  5 42  1  0
  6 43  1  0
  7 44  1  0
  8 45  1  0
 12 46  1  0
 12 47  1  0
 14 48  1  0
 15 49  1  0
 16 50  1  0
 17 51  1  0
 18 52  1  0
 19 53  1  6
 20 54  1  0
 20 55  1  0
 21 56  1  0
 21 57  1  0
 22 58  1  0
 22 59  1  0
 23 60  1  1
 25 61  1  0
 25 62  1  0
 27 63  1  0
 28 64  1  0
 29 65  1  0
 30 66  1  0
 31 67  1  0
 36 68  1  0
 37 69  1  0
 38 70  1  0
 39 71  1  0
M  CHG  1  21   1
M  END
>  <meeko>  (9) 
{"is_sidechain": [false], "free_energy": -8.076, "intermolecular_energy": -12.285, "internal_energy": -0.944}

$$$$
