
     RDKit          3D

 13 14  0  0  0  0  0  0  0  0999 V2000
   -7.1810   -7.8600   -0.2490 N   0  0  0  0  0  0  0  0  0  0  0  0
   -6.8170   -9.1050   -0.4280 C   0  0  0  0  0  0  0  0  0  0  0  0
   -7.7380  -10.0560   -0.5600 N   0  0  0  0  0  0  0  0  0  0  0  0
   -5.3950   -9.4530   -0.5030 C   0  0  0  0  0  0  0  0  0  0  0  0
   -4.8460  -10.6280   -0.9730 C   0  0  0  0  0  0  0  0  0  0  0  0
   -3.4410  -10.6480   -0.9420 C   0  0  0  0  0  0  0  0  0  0  0  0
   -2.5600  -11.6700   -1.3650 C   0  0  0  0  0  0  0  0  0  0  0  0
   -3.3570  -13.4170   -2.1580 I   0  0  0  0  0  0  0  0  0  0  0  0
   -1.1760  -11.4830   -1.2500 C   0  0  0  0  0  0  0  0  0  0  0  0
   -0.6670  -10.2830   -0.7220 C   0  0  0  0  0  0  0  0  0  0  0  0
   -1.5080   -9.2700   -0.3050 C   0  0  0  0  0  0  0  0  0  0  0  0
   -2.8880   -9.4490   -0.4150 C   0  0  0  0  0  0  0  0  0  0  0  0
   -4.1470   -8.3520    0.0000 S   0  0  0  0  0  0  0  0  0  0  0  0
  2  1  2  0
  3  2  1  0
  4  2  1  0
  5  4  2  0
  6  5  1  0
  7  6  2  0
  8  7  1  0
  9  7  1  0
 10  9  2  0
 11 10  1  0
 12 11  2  0
 12  6  1  0
 13 12  1  0
 13  4  1  0
M  CHG  1   1   1
M  END
$$$$
