
     RDKit          3D

 24 26  0  0  0  0  0  0  0  0999 V2000
   -0.5270   11.7020   -1.5150 N   0  0  0  0  0  0  0  0  0  0  0  0
   -0.3780   12.1340   -2.7450 C   0  0  0  0  0  0  0  0  0  0  0  0
   -0.2300   13.4370   -2.9440 N   0  0  0  0  0  0  0  0  0  0  0  0
   -0.3730   11.1880   -3.8930 C   0  0  0  0  0  0  0  0  0  0  0  0
   -0.8750    9.8830   -3.7710 C   0  0  0  0  0  0  0  0  0  0  0  0
   -0.8580    9.0130   -4.8380 C   0  0  0  0  0  0  0  0  0  0  0  0
   -0.3340    9.4160   -6.0750 C   0  0  0  0  0  0  0  0  0  0  0  0
   -0.3020    8.5520   -7.2020 C   0  0  0  0  0  0  0  0  0  0  0  0
    0.2200    8.9830   -8.4140 C   0  0  0  0  0  0  0  0  0  0  0  0
    0.2190    8.1130   -9.5960 C   0  0  0  0  0  0  0  0  0  0  0  0
    1.1620    8.1060  -10.3830 O   0  0  0  0  0  0  0  0  0  0  0  0
   -0.8980    7.3560   -9.8020 N   0  0  0  0  0  0  0  0  0  0  0  0
   -1.1540    6.4710  -10.8540 C   0  0  0  0  0  0  0  0  0  0  0  0
   -2.4640    6.3350  -11.2810 C   0  0  0  0  0  0  0  0  0  0  0  0
   -2.7860    5.4530  -12.2990 C   0  0  0  0  0  0  0  0  0  0  0  0
   -1.7800    4.7000  -12.9000 C   0  0  0  0  0  0  0  0  0  0  0  0
   -2.1520    3.7370  -13.9950 C   0  0  0  0  0  0  0  0  0  0  0  0
   -2.0850    4.3400  -15.3080 N   0  0  0  0  0  0  0  0  0  0  0  0
   -0.4650    4.8360  -12.4770 C   0  0  0  0  0  0  0  0  0  0  0  0
   -0.1520    5.7260  -11.4540 C   0  0  0  0  0  0  0  0  0  0  0  0
    0.7520   10.2720   -8.5090 C   0  0  0  0  0  0  0  0  0  0  0  0
    0.7220   11.1350   -7.4260 C   0  0  0  0  0  0  0  0  0  0  0  0
    0.1820   10.7290   -6.2100 C   0  0  0  0  0  0  0  0  0  0  0  0
    0.1490   11.5980   -5.1160 C   0  0  0  0  0  0  0  0  0  0  0  0
  2  1  2  0
  3  2  1  0
  4  2  1  0
  5  4  2  0
  6  5  1  0
  7  6  2  0
  8  7  1  0
  9  8  2  0
 10  9  1  0
 11 10  2  0
 12 10  1  0
 13 12  1  0
 14 13  2  0
 15 14  1  0
 16 15  2  0
 17 16  1  0
 18 17  1  0
 19 16  1  0
 20 19  2  0
 20 13  1  0
 21  9  1  0
 22 21  2  0
 23  7  1  0
 23 22  1  0
 24 23  2  0
 24  4  1  0
M  CHG  2   1   1  18   1
M  END
$$$$
