
     RDKit          3D

 19 20  0  0  0  0  0  0  0  0999 V2000
  -11.5170  -17.6720    3.0820 O   0  0  0  0  0  0  0  0  0  0  0  0
  -11.3720  -16.5170    3.7690 C   0  0  0  0  0  0  0  0  0  0  0  0
  -11.4040  -16.5370    5.1520 C   0  0  0  0  0  0  0  0  0  0  0  0
  -11.2490  -15.3620    5.8520 C   0  0  0  0  0  0  0  0  0  0  0  0
  -11.0380  -14.1600    5.1880 C   0  0  0  0  0  0  0  0  0  0  0  0
  -10.8620  -12.8700    5.8820 C   0  0  1  0  0  0  0  0  0  0  0  0
  -12.2370  -12.2330    5.9790 C   0  0  0  0  0  0  0  0  0  0  0  0
  -13.4060  -12.9860    5.8880 C   0  0  0  0  0  0  0  0  0  0  0  0
  -14.6630  -12.3800    5.9340 C   0  0  0  0  0  0  0  0  0  0  0  0
  -14.7460  -11.0090    6.0510 C   0  0  0  0  0  0  0  0  0  0  0  0
  -15.9600  -10.3880    6.0890 O   0  0  0  0  0  0  0  0  0  0  0  0
  -13.6010  -10.2360    6.1140 C   0  0  0  0  0  0  0  0  0  0  0  0
  -12.3500  -10.8650    6.0640 C   0  0  0  0  0  0  0  0  0  0  0  0
   -9.9870  -12.9380    7.1510 C   0  0  2  0  0  0  0  0  0  0  0  0
  -10.1960  -11.5610    8.1980 Cl  0  0  0  0  0  0  0  0  0  0  0  0
   -8.2700  -12.9870    6.7160 Cl  0  0  0  0  0  0  0  0  0  0  0  0
  -10.2250  -14.2790    8.1780 Cl  0  0  0  0  0  0  0  0  0  0  0  0
  -11.0270  -14.1470    3.7940 C   0  0  0  0  0  0  0  0  0  0  0  0
  -11.1930  -15.3270    3.0820 C   0  0  0  0  0  0  0  0  0  0  0  0
  2  1  1  0
  3  2  2  0
  4  3  1  0
  5  4  2  0
  6  5  1  1
  7  6  1  0
  8  7  2  0
  9  8  1  0
 10  9  2  0
 11 10  1  0
 12 10  1  0
 13  7  1  0
 13 12  2  0
 14  6  1  0
 14 15  1  1
 16 14  1  0
 17 14  1  0
 18  5  1  0
 19  2  1  0
 19 18  2  0
M  END
$$$$
