
     RDKit          3D

 27 29  0  0  0  0  0  0  0  0999 V2000
    3.8380   -2.9810    8.0060 O   0  0  0  0  0  0  0  0  0  0  0  0
    2.9470   -4.1450    7.9220 S   0  0  2  0  0  0  0  0  0  0  0  0
    3.3020   -5.1960    8.8610 O   0  0  0  0  0  0  0  0  0  0  0  0
    3.0620   -4.7420    6.4070 N   0  0  0  0  0  0  0  0  0  0  0  0
    2.5830   -3.9590    5.2520 C   0  0  0  0  0  0  0  0  0  0  0  0
    3.5390   -2.9180    4.7150 C   0  0  0  0  0  0  0  0  0  0  0  0
    4.8190   -3.4790    4.2270 N   0  0  0  0  0  0  0  0  0  0  0  0
    5.7140   -2.4330    3.6910 C   0  0  0  0  0  0  0  0  0  0  0  0
    5.8930   -1.2260    4.5920 C   0  0  0  0  0  0  0  0  0  0  0  0
    6.3670   -1.3670    5.8660 C   0  0  0  0  0  0  0  0  0  0  0  0
    6.5630   -0.2500    6.7990 C   0  0  0  0  0  0  0  0  0  0  0  0
    6.6280   -0.5250    8.1590 C   0  0  0  0  0  0  0  0  0  0  0  0
    6.7960    0.4990    9.0670 C   0  0  0  0  0  0  0  0  0  0  0  0
    6.9070    1.8330    8.6110 C   0  0  0  0  0  0  0  0  0  0  0  0
    7.1370    3.2720    9.8660 Br  0  0  0  0  0  0  0  0  0  0  0  0
    6.8450    2.1230    7.2330 C   0  0  0  0  0  0  0  0  0  0  0  0
    6.6770    1.0930    6.3330 C   0  0  0  0  0  0  0  0  0  0  0  0
    1.2510   -3.6310    8.1880 C   0  0  0  0  0  0  0  0  0  0  0  0
    0.9540   -2.2750    8.0080 C   0  0  0  0  0  0  0  0  0  0  0  0
   -0.3450   -1.7920    8.1920 C   0  0  0  0  0  0  0  0  0  0  0  0
   -1.3970   -2.6260    8.5740 C   0  0  0  0  0  0  0  0  0  0  0  0
   -1.1490   -4.0230    8.7900 C   0  0  0  0  0  0  0  0  0  0  0  0
   -2.2000   -4.9110    9.1710 C   0  0  0  0  0  0  0  0  0  0  0  0
   -1.9580   -6.2280    9.3790 N   0  0  0  0  0  0  0  0  0  0  0  0
   -0.7220   -6.7470    9.2110 C   0  0  0  0  0  0  0  0  0  0  0  0
    0.3870   -5.9520    8.8240 C   0  0  0  0  0  0  0  0  0  0  0  0
    0.1940   -4.5490    8.5950 C   0  0  0  0  0  0  0  0  0  0  0  0
  2  1  2  0
  3  2  2  0
  2  4  1  6
  5  4  1  0
  6  5  1  0
  7  6  1  0
  8  7  1  0
  9  8  1  0
 10  9  2  3
 11 10  1  0
 12 11  2  0
 13 12  1  0
 14 13  2  0
 15 14  1  0
 16 14  1  0
 17 16  2  0
 17 11  1  0
 18  2  1  0
 19 18  2  0
 20 19  1  0
 21 20  2  0
 22 21  1  0
 23 22  2  0
 24 23  1  0
 25 24  2  0
 26 25  1  0
 27 26  2  0
 27 22  1  0
 27 18  1  0
M  CHG  1   7   1
M  END
$$$$
