2vvn_ligand
     RDKit          3D

 32 33  0  0  0  0  0  0  0  0999 V2000
  -14.8390    5.7450    3.1510 C   0  0  0  0  0  0  0  0  0  0  0  0
  -15.5590    4.6010    2.4590 C   0  0  0  0  0  0  0  0  0  0  0  0
  -16.0370    3.6530    3.4420 N   0  0  0  0  0  0  0  0  0  0  0  0
  -15.3580    2.5100    3.7180 C   0  0  0  0  0  0  0  0  0  0  0  0
  -14.1390    2.2390    3.4000 N   0  0  0  0  0  0  0  0  0  0  0  0
  -13.7650    0.9020    3.9440 C   0  0  2  0  0  0  0  0  0  0  0  0
  -12.7780    0.2220    2.9820 C   0  0  1  0  0  0  0  0  0  0  0  0
  -11.4280    0.4680    3.4060 O   0  0  0  0  0  0  0  0  0  0  0  0
  -13.0070   -1.2900    2.9550 C   0  0  2  0  0  0  0  0  0  0  0  0
  -12.0420   -1.9040    2.0920 O   0  0  0  0  0  0  0  0  0  0  0  0
  -14.4450   -1.5860    2.4940 C   0  0  1  0  0  0  0  0  0  0  0  0
  -14.8680   -3.0110    2.8730 C   0  0  0  0  0  0  0  0  0  0  0  0
  -14.4030   -3.9490    1.9060 O   0  0  0  0  0  0  0  0  0  0  0  0
  -15.4180   -0.6500    2.9660 O   0  0  0  0  0  0  0  0  0  0  0  0
  -15.0330    0.0570    4.1420 C   0  0  2  0  0  0  0  0  0  0  0  0
  -16.2720    1.2910    4.5650 S   0  0  0  0  0  0  0  0  0  0  0  0
  -14.9169    5.6212    4.2412 H   0  0  0  0  0  0  0  0  0  0  0  0
  -13.7792    5.7428    2.8565 H   0  0  0  0  0  0  0  0  0  0  0  0
  -15.2994    6.6996    2.8565 H   0  0  0  0  0  0  0  0  0  0  0  0
  -16.4127    4.9982    1.8903 H   0  0  0  0  0  0  0  0  0  0  0  0
  -14.8609    4.0939    1.7767 H   0  0  0  0  0  0  0  0  0  0  0  0
  -17.0430    3.5650    3.5270 H   0  0  0  0  0  0  0  0  0  0  0  0
  -13.2729    1.0106    4.9218 H   0  0  0  0  0  0  0  0  0  0  0  0
  -12.9426    0.6388    1.9774 H   0  0  0  0  0  0  0  0  0  0  0  0
  -11.0590   -0.4200    3.5900 H   0  0  0  0  0  0  0  0  0  0  0  0
  -12.8801   -1.7095    3.9639 H   0  0  0  0  0  0  0  0  0  0  0  0
  -11.1650   -1.6890    2.4800 H   0  0  0  0  0  0  0  0  0  0  0  0
  -14.4181   -1.4834    1.3991 H   0  0  0  0  0  0  0  0  0  0  0  0
  -14.4429   -3.2645    3.8554 H   0  0  0  0  0  0  0  0  0  0  0  0
  -15.9665   -3.0558    2.9091 H   0  0  0  0  0  0  0  0  0  0  0  0
  -13.8610   -3.4460    1.2690 H   0  0  0  0  0  0  0  0  0  0  0  0
  -14.8917   -0.7253    4.9023 H   0  0  0  0  0  0  0  0  0  0  0  0
  1  2  1  0
  2  3  1  0
  3  4  1  0
  4  5  2  0
  5  6  1  0
  6  7  1  0
  7  8  1  0
  7  9  1  0
  9 10  1  0
  9 11  1  0
 11 12  1  0
 12 13  1  0
 11 14  1  0
 14 15  1  0
 15 16  1  0
 16  4  1  0
 15  6  1  0
  1 17  1  0
  1 18  1  0
  1 19  1  0
  2 20  1  0
  2 21  1  0
  3 22  1  0
  6 23  1  1
  7 24  1  6
  8 25  1  0
  9 26  1  1
 10 27  1  0
 11 28  1  6
 12 29  1  0
 12 30  1  0
 13 31  1  0
 15 32  1  1
M  END
>  <meeko>  (1) 
{"is_sidechain": [false], "free_energy": -6.129, "intermolecular_energy": -7.383, "internal_energy": -0.279}

$$$$
2vvn_ligand
     RDKit          3D

 32 33  0  0  0  0  0  0  0  0999 V2000
  -13.6450   -5.9920    2.9570 C   0  0  0  0  0  0  0  0  0  0  0  0
  -12.9510   -4.6430    3.0110 C   0  0  0  0  0  0  0  0  0  0  0  0
  -13.5400   -3.7460    2.0400 N   0  0  0  0  0  0  0  0  0  0  0  0
  -13.3340   -2.4050    2.0930 C   0  0  0  0  0  0  0  0  0  0  0  0
  -12.4270   -1.7880    2.7700 N   0  0  0  0  0  0  0  0  0  0  0  0
  -12.5110   -0.3240    2.5020 C   0  0  2  0  0  0  0  0  0  0  0  0
  -12.1160    0.4470    3.7710 C   0  0  1  0  0  0  0  0  0  0  0  0
  -10.7230    0.7960    3.7220 O   0  0  0  0  0  0  0  0  0  0  0  0
  -12.9310    1.7350    3.8940 C   0  0  2  0  0  0  0  0  0  0  0  0
  -12.5080    2.4600    5.0560 O   0  0  0  0  0  0  0  0  0  0  0  0
  -14.4300    1.3930    3.9580 C   0  0  1  0  0  0  0  0  0  0  0  0
  -15.2950    2.6180    3.6300 C   0  0  0  0  0  0  0  0  0  0  0  0
  -14.4980    3.6630    3.0780 O   0  0  0  0  0  0  0  0  0  0  0  0
  -14.8170    0.2920    3.1330 O   0  0  0  0  0  0  0  0  0  0  0  0
  -13.9340    0.0320    2.0440 C   0  0  2  0  0  0  0  0  0  0  0  0
  -14.4490   -1.4460    1.1570 S   0  0  0  0  0  0  0  0  0  0  0  0
  -13.8295   -6.3506    3.9804 H   0  0  0  0  0  0  0  0  0  0  0  0
  -14.6028   -5.8906    2.4257 H   0  0  0  0  0  0  0  0  0  0  0  0
  -13.0055   -6.7123    2.4257 H   0  0  0  0  0  0  0  0  0  0  0  0
  -13.0637   -4.2151    4.0181 H   0  0  0  0  0  0  0  0  0  0  0  0
  -11.8837   -4.7757    2.7802 H   0  0  0  0  0  0  0  0  0  0  0  0
  -14.4520   -4.0090    1.6840 H   0  0  0  0  0  0  0  0  0  0  0  0
  -11.8152   -0.0416    1.6982 H   0  0  0  0  0  0  0  0  0  0  0  0
  -12.3153   -0.2012    4.6371 H   0  0  0  0  0  0  0  0  0  0  0  0
  -10.5550    1.0180    2.7840 H   0  0  0  0  0  0  0  0  0  0  0  0
  -12.7644    2.3726    3.0133 H   0  0  0  0  0  0  0  0  0  0  0  0
  -12.2370    3.3470    4.7310 H   0  0  0  0  0  0  0  0  0  0  0  0
  -14.6047    1.0808    4.9982 H   0  0  0  0  0  0  0  0  0  0  0  0
  -16.0679    2.3301    2.9021 H   0  0  0  0  0  0  0  0  0  0  0  0
  -15.7615    2.9808    4.5578 H   0  0  0  0  0  0  0  0  0  0  0  0
  -14.1920    4.2060    3.8280 H   0  0  0  0  0  0  0  0  0  0  0  0
  -13.9557    0.9528    1.4427 H   0  0  0  0  0  0  0  0  0  0  0  0
  1  2  1  0
  2  3  1  0
  3  4  1  0
  4  5  2  0
  5  6  1  0
  6  7  1  0
  7  8  1  0
  7  9  1  0
  9 10  1  0
  9 11  1  0
 11 12  1  0
 12 13  1  0
 11 14  1  0
 14 15  1  0
 15 16  1  0
 16  4  1  0
 15  6  1  0
  1 17  1  0
  1 18  1  0
  1 19  1  0
  2 20  1  0
  2 21  1  0
  3 22  1  0
  6 23  1  6
  7 24  1  1
  8 25  1  0
  9 26  1  6
 10 27  1  0
 11 28  1  1
 12 29  1  0
 12 30  1  0
 13 31  1  0
 15 32  1  6
M  END
>  <meeko>  (2) 
{"is_sidechain": [false], "free_energy": -6.065, "intermolecular_energy": -7.263, "internal_energy": -0.322}

$$$$
2vvn_ligand
     RDKit          3D

 32 33  0  0  0  0  0  0  0  0999 V2000
  -18.1170    4.3570    1.3040 C   0  0  0  0  0  0  0  0  0  0  0  0
  -17.0730    4.4940    2.3990 C   0  0  0  0  0  0  0  0  0  0  0  0
  -17.3040    3.5010    3.4260 N   0  0  0  0  0  0  0  0  0  0  0  0
  -16.3550    2.5880    3.7590 C   0  0  0  0  0  0  0  0  0  0  0  0
  -15.1030    2.6290    3.4590 N   0  0  0  0  0  0  0  0  0  0  0  0
  -14.4030    1.4630    4.0680 C   0  0  2  0  0  0  0  0  0  0  0  0
  -13.2580    1.0190    3.1440 C   0  0  1  0  0  0  0  0  0  0  0  0
  -12.0250    1.6280    3.5600 O   0  0  0  0  0  0  0  0  0  0  0  0
  -13.0850   -0.4990    3.1900 C   0  0  2  0  0  0  0  0  0  0  0  0
  -11.9800   -0.8810    2.3610 O   0  0  0  0  0  0  0  0  0  0  0  0
  -14.3900   -1.1810    2.7400 C   0  0  1  0  0  0  0  0  0  0  0  0
  -14.4340   -2.6480    3.1870 C   0  0  0  0  0  0  0  0  0  0  0  0
  -15.5330   -3.3250    2.5830 O   0  0  0  0  0  0  0  0  0  0  0  0
  -15.5800   -0.5100    3.1620 O   0  0  0  0  0  0  0  0  0  0  0  0
  -15.4100    0.3270    4.3040 C   0  0  2  0  0  0  0  0  0  0  0  0
  -16.9340    1.2140    4.6630 S   0  0  0  0  0  0  0  0  0  0  0  0
  -19.1102    4.2267    1.7585 H   0  0  0  0  0  0  0  0  0  0  0  0
  -18.1153    5.2631    0.6803 H   0  0  0  0  0  0  0  0  0  0  0  0
  -17.8815    3.4821    0.6803 H   0  0  0  0  0  0  0  0  0  0  0  0
  -16.0714    4.3475    1.9685 H   0  0  0  0  0  0  0  0  0  0  0  0
  -17.1433    5.4979    2.8432 H   0  0  0  0  0  0  0  0  0  0  0  0
  -18.2540    3.1580    3.5130 H   0  0  0  0  0  0  0  0  0  0  0  0
  -13.9712    1.7422    5.0404 H   0  0  0  0  0  0  0  0  0  0  0  0
  -13.5098    1.3309    2.1196 H   0  0  0  0  0  0  0  0  0  0  0  0
  -11.4950    0.8910    3.9270 H   0  0  0  0  0  0  0  0  0  0  0  0
  -12.8683   -0.8229    4.2186 H   0  0  0  0  0  0  0  0  0  0  0  0
  -11.9730   -1.8630    2.3660 H   0  0  0  0  0  0  0  0  0  0  0  0
  -14.3733   -1.1261    1.6415 H   0  0  0  0  0  0  0  0  0  0  0  0
  -13.4977   -3.1439    2.8915 H   0  0  0  0  0  0  0  0  0  0  0  0
  -14.5548   -2.6816    4.2798 H   0  0  0  0  0  0  0  0  0  0  0  0
  -15.4300   -3.2190    1.6180 H   0  0  0  0  0  0  0  0  0  0  0  0
  -15.0816   -0.3552    5.1020 H   0  0  0  0  0  0  0  0  0  0  0  0
  1  2  1  0
  2  3  1  0
  3  4  1  0
  4  5  2  0
  5  6  1  0
  6  7  1  0
  7  8  1  0
  7  9  1  0
  9 10  1  0
  9 11  1  0
 11 12  1  0
 12 13  1  0
 11 14  1  0
 14 15  1  0
 15 16  1  0
 16  4  1  0
 15  6  1  0
  1 17  1  0
  1 18  1  0
  1 19  1  0
  2 20  1  0
  2 21  1  0
  3 22  1  0
  6 23  1  1
  7 24  1  6
  8 25  1  0
  9 26  1  1
 10 27  1  0
 11 28  1  6
 12 29  1  0
 12 30  1  0
 13 31  1  0
 15 32  1  1
M  END
>  <meeko>  (3) 
{"is_sidechain": [false], "free_energy": -5.915, "intermolecular_energy": -7.298, "internal_energy": -0.107}

$$$$
2vvn_ligand
     RDKit          3D

 32 33  0  0  0  0  0  0  0  0999 V2000
  -12.9630   -3.3250    2.4980 C   0  0  0  0  0  0  0  0  0  0  0  0
  -12.7030   -2.0310    1.7460 C   0  0  0  0  0  0  0  0  0  0  0  0
  -12.2350   -1.0140    2.6620 N   0  0  0  0  0  0  0  0  0  0  0  0
  -13.0980   -0.2070    3.3310 C   0  0  0  0  0  0  0  0  0  0  0  0
  -14.3650   -0.3840    3.4800 N   0  0  0  0  0  0  0  0  0  0  0  0
  -14.9270    0.7030    4.3310 C   0  0  2  0  0  0  0  0  0  0  0  0
  -16.3600    1.0160    3.8730 C   0  0  1  0  0  0  0  0  0  0  0  0
  -17.3040    0.2800    4.6690 O   0  0  0  0  0  0  0  0  0  0  0  0
  -16.6610    2.5070    4.0260 C   0  0  2  0  0  0  0  0  0  0  0  0
  -18.0180    2.7640    3.6410 O   0  0  0  0  0  0  0  0  0  0  0  0
  -15.6710    3.3230    3.1760 C   0  0  1  0  0  0  0  0  0  0  0  0
  -15.6250    4.7890    3.6280 C   0  0  0  0  0  0  0  0  0  0  0  0
  -14.4240    5.4150    3.1830 O   0  0  0  0  0  0  0  0  0  0  0  0
  -14.3460    2.7860    3.1400 O   0  0  0  0  0  0  0  0  0  0  0  0
  -14.0220    1.9420    4.2420 C   0  0  2  0  0  0  0  0  0  0  0  0
  -12.3860    1.2260    4.0240 S   0  0  0  0  0  0  0  0  0  0  0  0
  -12.9246   -3.1340    3.5806 H   0  0  0  0  0  0  0  0  0  0  0  0
  -13.9569   -3.7121    2.2290 H   0  0  0  0  0  0  0  0  0  0  0  0
  -12.1958   -4.0659    2.2290 H   0  0  0  0  0  0  0  0  0  0  0  0
  -11.9394   -2.2053    0.9736 H   0  0  0  0  0  0  0  0  0  0  0  0
  -13.6377   -1.6918    1.2755 H   0  0  0  0  0  0  0  0  0  0  0  0
  -11.3540   -0.5710    2.4270 H   0  0  0  0  0  0  0  0  0  0  0  0
  -14.9648    0.3845    5.3832 H   0  0  0  0  0  0  0  0  0  0  0  0
  -16.4478    0.7275    2.8151 H   0  0  0  0  0  0  0  0  0  0  0  0
  -18.1470    0.7660    4.5670 H   0  0  0  0  0  0  0  0  0  0  0  0
  -16.5398    2.8102    5.0764 H   0  0  0  0  0  0  0  0  0  0  0  0
  -18.2820    2.0020    3.0790 H   0  0  0  0  0  0  0  0  0  0  0  0
  -16.0622    3.2612    2.1498 H   0  0  0  0  0  0  0  0  0  0  0  0
  -16.4888    5.3242    3.2069 H   0  0  0  0  0  0  0  0  0  0  0  0
  -15.6552    4.8218    4.7271 H   0  0  0  0  0  0  0  0  0  0  0  0
  -14.5680    5.6610    2.2500 H   0  0  0  0  0  0  0  0  0  0  0  0
  -14.1205    2.5890    5.1261 H   0  0  0  0  0  0  0  0  0  0  0  0
  1  2  1  0
  2  3  1  0
  3  4  1  0
  4  5  2  0
  5  6  1  0
  6  7  1  0
  7  8  1  0
  7  9  1  0
  9 10  1  0
  9 11  1  0
 11 12  1  0
 12 13  1  0
 11 14  1  0
 14 15  1  0
 15 16  1  0
 16  4  1  0
 15  6  1  0
  1 17  1  0
  1 18  1  0
  1 19  1  0
  2 20  1  0
  2 21  1  0
  3 22  1  0
  6 23  1  1
  7 24  1  6
  8 25  1  0
  9 26  1  1
 10 27  1  0
 11 28  1  6
 12 29  1  0
 12 30  1  0
 13 31  1  0
 15 32  1  1
M  END
>  <meeko>  (4) 
{"is_sidechain": [false], "free_energy": -5.592, "intermolecular_energy": -6.96, "internal_energy": -0.055}

$$$$
2vvn_ligand
     RDKit          3D

 32 33  0  0  0  0  0  0  0  0999 V2000
  -16.4500    5.4920    8.2380 C   0  0  0  0  0  0  0  0  0  0  0  0
  -16.6320    4.3050    7.3090 C   0  0  0  0  0  0  0  0  0  0  0  0
  -16.1150    4.6240    5.9960 N   0  0  0  0  0  0  0  0  0  0  0  0
  -15.8090    3.6540    5.0960 C   0  0  0  0  0  0  0  0  0  0  0  0
  -16.1690    2.4170    5.1390 N   0  0  0  0  0  0  0  0  0  0  0  0
  -15.6700    1.7070    3.9280 C   0  0  2  0  0  0  0  0  0  0  0  0
  -15.3340    0.2530    4.2960 C   0  0  1  0  0  0  0  0  0  0  0  0
  -16.4510   -0.6010    4.0000 O   0  0  0  0  0  0  0  0  0  0  0  0
  -14.1270   -0.2400    3.4970 C   0  0  2  0  0  0  0  0  0  0  0  0
  -13.8670   -1.6120    3.8200 O   0  0  0  0  0  0  0  0  0  0  0  0
  -12.9090    0.6510    3.8000 C   0  0  1  0  0  0  0  0  0  0  0  0
  -11.8270    0.5010    2.7230 C   0  0  0  0  0  0  0  0  0  0  0  0
  -12.4130    0.4540    1.4240 O   0  0  0  0  0  0  0  0  0  0  0  0
  -13.2230    2.0340    3.9810 O   0  0  0  0  0  0  0  0  0  0  0  0
  -14.4440    2.4460    3.3700 C   0  0  2  0  0  0  0  0  0  0  0  0
  -14.7980    4.1640    3.7710 S   0  0  0  0  0  0  0  0  0  0  0  0
  -16.5022    5.1514    9.2826 H   0  0  0  0  0  0  0  0  0  0  0  0
  -15.4702    5.9562    8.0522 H   0  0  0  0  0  0  0  0  0  0  0  0
  -17.2457    6.2284    8.0522 H   0  0  0  0  0  0  0  0  0  0  0  0
  -16.0893    3.4382    7.7141 H   0  0  0  0  0  0  0  0  0  0  0  0
  -17.7033    4.0685    7.2289 H   0  0  0  0  0  0  0  0  0  0  0  0
  -15.5230    5.4440    5.9340 H   0  0  0  0  0  0  0  0  0  0  0  0
  -16.4435    1.6939    3.1460 H   0  0  0  0  0  0  0  0  0  0  0  0
  -15.1044    0.2205    5.3713 H   0  0  0  0  0  0  0  0  0  0  0  0
  -16.8700   -0.7710    4.8680 H   0  0  0  0  0  0  0  0  0  0  0  0
  -14.3363   -0.1761    2.4190 H   0  0  0  0  0  0  0  0  0  0  0  0
  -13.5720   -2.0300    2.9810 H   0  0  0  0  0  0  0  0  0  0  0  0
  -12.5270    0.2876    4.7654 H   0  0  0  0  0  0  0  0  0  0  0  0
  -11.1405    1.3587    2.7788 H   0  0  0  0  0  0  0  0  0  0  0  0
  -11.2802   -0.4371    2.8988 H   0  0  0  0  0  0  0  0  0  0  0  0
  -11.7410    0.7900    0.8030 H   0  0  0  0  0  0  0  0  0  0  0  0
  -14.2975    2.2505    2.2975 H   0  0  0  0  0  0  0  0  0  0  0  0
  1  2  1  0
  2  3  1  0
  3  4  1  0
  4  5  2  0
  5  6  1  0
  6  7  1  0
  7  8  1  0
  7  9  1  0
  9 10  1  0
  9 11  1  0
 11 12  1  0
 12 13  1  0
 11 14  1  0
 14 15  1  0
 15 16  1  0
 16  4  1  0
 15  6  1  0
  1 17  1  0
  1 18  1  0
  1 19  1  0
  2 20  1  0
  2 21  1  0
  3 22  1  0
  6 23  1  6
  7 24  1  1
  8 25  1  0
  9 26  1  6
 10 27  1  0
 11 28  1  1
 12 29  1  0
 12 30  1  0
 13 31  1  0
 15 32  1  6
M  END
>  <meeko>  (5) 
{"is_sidechain": [false], "free_energy": -5.432, "intermolecular_energy": -6.693, "internal_energy": -0.13}

$$$$
2vvn_ligand
     RDKit          3D

 32 33  0  0  0  0  0  0  0  0999 V2000
  -16.7390    8.6280    2.3040 C   0  0  0  0  0  0  0  0  0  0  0  0
  -15.8230    7.5420    2.8390 C   0  0  0  0  0  0  0  0  0  0  0  0
  -16.4530    6.8710    3.9550 N   0  0  0  0  0  0  0  0  0  0  0  0
  -16.0080    5.6700    4.4070 C   0  0  0  0  0  0  0  0  0  0  0  0
  -14.8760    5.1150    4.1410 N   0  0  0  0  0  0  0  0  0  0  0  0
  -14.7610    3.8300    4.8870 C   0  0  2  0  0  0  0  0  0  0  0  0
  -13.9540    2.8270    4.0470 C   0  0  1  0  0  0  0  0  0  0  0  0
  -12.5710    2.8590    4.4340 O   0  0  0  0  0  0  0  0  0  0  0  0
  -14.4790    1.4060    4.2530 C   0  0  2  0  0  0  0  0  0  0  0  0
  -13.6790    0.4860    3.5000 O   0  0  0  0  0  0  0  0  0  0  0  0
  -15.9590    1.3370    3.8370 C   0  0  1  0  0  0  0  0  0  0  0  0
  -16.6470    0.1010    4.4300 C   0  0  0  0  0  0  0  0  0  0  0  0
  -16.0130   -1.0930    3.9780 O   0  0  0  0  0  0  0  0  0  0  0  0
  -16.7140    2.5100    4.1530 O   0  0  0  0  0  0  0  0  0  0  0  0
  -16.1660    3.2960    5.2080 C   0  0  2  0  0  0  0  0  0  0  0  0
  -17.1230    4.8040    5.4290 S   0  0  0  0  0  0  0  0  0  0  0  0
  -17.1959    9.1697    3.1453 H   0  0  0  0  0  0  0  0  0  0  0  0
  -16.1559    9.3297    1.6895 H   0  0  0  0  0  0  0  0  0  0  0  0
  -17.5290    8.1715    1.6895 H   0  0  0  0  0  0  0  0  0  0  0  0
  -15.6194    6.8115    2.0422 H   0  0  0  0  0  0  0  0  0  0  0  0
  -14.8802    7.9975    3.1762 H   0  0  0  0  0  0  0  0  0  0  0  0
  -17.4540    7.0010    4.0480 H   0  0  0  0  0  0  0  0  0  0  0  0
  -14.2316    3.9863    5.8385 H   0  0  0  0  0  0  0  0  0  0  0  0
  -14.0590    3.1104    2.9893 H   0  0  0  0  0  0  0  0  0  0  0  0
  -12.1330    3.3990    3.7450 H   0  0  0  0  0  0  0  0  0  0  0  0
  -14.4105    1.1290    5.3153 H   0  0  0  0  0  0  0  0  0  0  0  0
  -13.3970   -0.2050    4.1400 H   0  0  0  0  0  0  0  0  0  0  0  0
  -15.9407    1.2631    2.7396 H   0  0  0  0  0  0  0  0  0  0  0  0
  -16.5896    0.1473    5.5275 H   0  0  0  0  0  0  0  0  0  0  0  0
  -17.6973    0.0896    4.1034 H   0  0  0  0  0  0  0  0  0  0  0  0
  -15.3280   -0.8210    3.3400 H   0  0  0  0  0  0  0  0  0  0  0  0
  -16.1637    2.6265    6.0808 H   0  0  0  0  0  0  0  0  0  0  0  0
  1  2  1  0
  2  3  1  0
  3  4  1  0
  4  5  2  0
  5  6  1  0
  6  7  1  0
  7  8  1  0
  7  9  1  0
  9 10  1  0
  9 11  1  0
 11 12  1  0
 12 13  1  0
 11 14  1  0
 14 15  1  0
 15 16  1  0
 16  4  1  0
 15  6  1  0
  1 17  1  0
  1 18  1  0
  1 19  1  0
  2 20  1  0
  2 21  1  0
  3 22  1  0
  6 23  1  1
  7 24  1  6
  8 25  1  0
  9 26  1  1
 10 27  1  0
 11 28  1  6
 12 29  1  0
 12 30  1  0
 13 31  1  0
 15 32  1  1
M  END
>  <meeko>  (6) 
{"is_sidechain": [false], "free_energy": -4.723, "intermolecular_energy": -5.677, "internal_energy": -0.292}

$$$$
2vvn_ligand
     RDKit          3D

 32 33  0  0  0  0  0  0  0  0999 V2000
  -12.8410   -0.2620    3.4030 C   0  0  0  0  0  0  0  0  0  0  0  0
  -13.1030    1.1330    3.9420 C   0  0  0  0  0  0  0  0  0  0  0  0
  -14.5200    1.3140    4.1720 N   0  0  0  0  0  0  0  0  0  0  0  0
  -15.1580    2.4600    3.8180 C   0  0  0  0  0  0  0  0  0  0  0  0
  -14.7190    3.3760    3.0250 N   0  0  0  0  0  0  0  0  0  0  0  0
  -15.7550    4.4350    2.8610 C   0  0  2  0  0  0  0  0  0  0  0  0
  -15.0650    5.7960    2.6800 C   0  0  1  0  0  0  0  0  0  0  0  0
  -14.9280    6.0980    1.2820 O   0  0  0  0  0  0  0  0  0  0  0  0
  -15.8860    6.9080    3.3340 C   0  0  2  0  0  0  0  0  0  0  0  0
  -15.2480    8.1710    3.1070 O   0  0  0  0  0  0  0  0  0  0  0  0
  -16.0430    6.6180    4.8370 C   0  0  1  0  0  0  0  0  0  0  0  0
  -17.2010    7.4220    5.4420 C   0  0  0  0  0  0  0  0  0  0  0  0
  -17.8370    8.2170    4.4440 O   0  0  0  0  0  0  0  0  0  0  0  0
  -16.1980    5.2320    5.1550 O   0  0  0  0  0  0  0  0  0  0  0  0
  -16.6880    4.4320    4.0820 C   0  0  2  0  0  0  0  0  0  0  0  0
  -16.7200    2.6970    4.5550 S   0  0  0  0  0  0  0  0  0  0  0  0
  -12.7098   -0.9607    4.2424 H   0  0  0  0  0  0  0  0  0  0  0  0
  -13.6944   -0.5838    2.7881 H   0  0  0  0  0  0  0  0  0  0  0  0
  -11.9290   -0.2522    2.7881 H   0  0  0  0  0  0  0  0  0  0  0  0
  -12.5598    1.2660    4.8893 H   0  0  0  0  0  0  0  0  0  0  0  0
  -12.7575    1.8757    3.2078 H   0  0  0  0  0  0  0  0  0  0  0  0
  -14.9000    0.8710    5.0000 H   0  0  0  0  0  0  0  0  0  0  0  0
  -16.3650    4.2381    1.9671 H   0  0  0  0  0  0  0  0  0  0  0  0
  -14.0747    5.7385    3.1554 H   0  0  0  0  0  0  0  0  0  0  0  0
  -13.9630    6.1900    1.1420 H   0  0  0  0  0  0  0  0  0  0  0  0
  -16.8907    6.9472    2.8880 H   0  0  0  0  0  0  0  0  0  0  0  0
  -15.4820    8.7290    3.8820 H   0  0  0  0  0  0  0  0  0  0  0  0
  -15.0918    6.9384    5.2870 H   0  0  0  0  0  0  0  0  0  0  0  0
  -17.9366    6.7272    5.8733 H   0  0  0  0  0  0  0  0  0  0  0  0
  -16.8011    8.0864    6.2221 H   0  0  0  0  0  0  0  0  0  0  0  0
  -18.7770    8.2820    4.6960 H   0  0  0  0  0  0  0  0  0  0  0  0
  -17.6753    4.8567    3.8479 H   0  0  0  0  0  0  0  0  0  0  0  0
  1  2  1  0
  2  3  1  0
  3  4  1  0
  4  5  2  0
  5  6  1  0
  6  7  1  0
  7  8  1  0
  7  9  1  0
  9 10  1  0
  9 11  1  0
 11 12  1  0
 12 13  1  0
 11 14  1  0
 14 15  1  0
 15 16  1  0
 16  4  1  0
 15  6  1  0
  1 17  1  0
  1 18  1  0
  1 19  1  0
  2 20  1  0
  2 21  1  0
  3 22  1  0
  6 23  1  6
  7 24  1  1
  8 25  1  0
  9 26  1  6
 10 27  1  0
 11 28  1  1
 12 29  1  0
 12 30  1  0
 13 31  1  0
 15 32  1  6
M  END
>  <meeko>  (7) 
{"is_sidechain": [false], "free_energy": -4.646, "intermolecular_energy": -5.54, "internal_energy": -0.335}

$$$$
2vvn_ligand
     RDKit          3D

 32 33  0  0  0  0  0  0  0  0999 V2000
  -18.4890    5.9330   -1.6480 C   0  0  0  0  0  0  0  0  0  0  0  0
  -18.2660    5.5260   -0.2020 C   0  0  0  0  0  0  0  0  0  0  0  0
  -17.5430    6.5680    0.4960 N   0  0  0  0  0  0  0  0  0  0  0  0
  -16.6520    6.2790    1.4800 C   0  0  0  0  0  0  0  0  0  0  0  0
  -16.1260    5.1310    1.7340 N   0  0  0  0  0  0  0  0  0  0  0  0
  -15.1550    5.2620    2.8570 C   0  0  2  0  0  0  0  0  0  0  0  0
  -15.1620    3.9680    3.6870 C   0  0  1  0  0  0  0  0  0  0  0  0
  -14.1120    3.0930    3.2440 O   0  0  0  0  0  0  0  0  0  0  0  0
  -14.9390    4.2760    5.1680 C   0  0  2  0  0  0  0  0  0  0  0  0
  -14.8990    3.0510    5.9110 O   0  0  0  0  0  0  0  0  0  0  0  0
  -16.0560    5.2060    5.6750 C   0  0  1  0  0  0  0  0  0  0  0  0
  -15.6520    5.8980    6.9830 C   0  0  0  0  0  0  0  0  0  0  0  0
  -15.9570    5.0720    8.1040 O   0  0  0  0  0  0  0  0  0  0  0  0
  -16.4850    6.1820    4.7230 O   0  0  0  0  0  0  0  0  0  0  0  0
  -15.5240    6.4830    3.7130 C   0  0  2  0  0  0  0  0  0  0  0  0
  -16.2190    7.6210    2.5050 S   0  0  0  0  0  0  0  0  0  0  0  0
  -19.0173    6.8973   -1.6802 H   0  0  0  0  0  0  0  0  0  0  0  0
  -17.5179    6.0298   -2.1556 H   0  0  0  0  0  0  0  0  0  0  0  0
  -19.0933    5.1667   -2.1556 H   0  0  0  0  0  0  0  0  0  0  0  0
  -19.2386    5.3666    0.2864 H   0  0  0  0  0  0  0  0  0  0  0  0
  -17.6794    4.5959   -0.1734 H   0  0  0  0  0  0  0  0  0  0  0  0
  -18.0370    7.4420    0.6320 H   0  0  0  0  0  0  0  0  0  0  0  0
  -14.1379    5.4149    2.4671 H   0  0  0  0  0  0  0  0  0  0  0  0
  -16.1414    3.4854    3.5532 H   0  0  0  0  0  0  0  0  0  0  0  0
  -14.2210    2.2820    3.7800 H   0  0  0  0  0  0  0  0  0  0  0  0
  -13.9770    4.7914    5.3058 H   0  0  0  0  0  0  0  0  0  0  0  0
  -14.0360    3.0540    6.3800 H   0  0  0  0  0  0  0  0  0  0  0  0
  -16.9164    4.5442    5.8532 H   0  0  0  0  0  0  0  0  0  0  0  0
  -14.5707    6.0994    6.9662 H   0  0  0  0  0  0  0  0  0  0  0  0
  -16.2137    6.8394    7.0736 H   0  0  0  0  0  0  0  0  0  0  0  0
  -16.8820    4.7830    7.9940 H   0  0  0  0  0  0  0  0  0  0  0  0
  -14.6572    6.8778    4.2633 H   0  0  0  0  0  0  0  0  0  0  0  0
  1  2  1  0
  2  3  1  0
  3  4  1  0
  4  5  2  0
  5  6  1  0
  6  7  1  0
  7  8  1  0
  7  9  1  0
  9 10  1  0
  9 11  1  0
 11 12  1  0
 12 13  1  0
 11 14  1  0
 14 15  1  0
 15 16  1  0
 16  4  1  0
 15  6  1  0
  1 17  1  0
  1 18  1  0
  1 19  1  0
  2 20  1  0
  2 21  1  0
  3 22  1  0
  6 23  1  6
  7 24  1  1
  8 25  1  0
  9 26  1  6
 10 27  1  0
 11 28  1  1
 12 29  1  0
 12 30  1  0
 13 31  1  0
 15 32  1  1
M  END
>  <meeko>  (8) 
{"is_sidechain": [false], "free_energy": -4.591, "intermolecular_energy": -5.552, "internal_energy": -0.258}

$$$$
2vvn_ligand
     RDKit          3D

 32 33  0  0  0  0  0  0  0  0999 V2000
  -18.5830    6.3480    3.3370 C   0  0  0  0  0  0  0  0  0  0  0  0
  -18.0130    5.2560    2.4490 C   0  0  0  0  0  0  0  0  0  0  0  0
  -18.2620    3.9590    3.0410 N   0  0  0  0  0  0  0  0  0  0  0  0
  -17.2740    3.2510    3.6460 C   0  0  0  0  0  0  0  0  0  0  0  0
  -16.1240    3.6940    4.0230 N   0  0  0  0  0  0  0  0  0  0  0  0
  -15.3620    2.6040    4.6960 C   0  0  2  0  0  0  0  0  0  0  0  0
  -13.8630    2.7800    4.4070 C   0  0  1  0  0  0  0  0  0  0  0  0
  -13.2370    3.5050    5.4790 O   0  0  0  0  0  0  0  0  0  0  0  0
  -13.1760    1.4200    4.2800 C   0  0  2  0  0  0  0  0  0  0  0  0
  -11.7720    1.6130    4.0630 O   0  0  0  0  0  0  0  0  0  0  0  0
  -13.8190    0.6220    3.1320 C   0  0  1  0  0  0  0  0  0  0  0  0
  -13.4970   -0.8740    3.2450 C   0  0  0  0  0  0  0  0  0  0  0  0
  -12.1800   -1.1420    2.7710 O   0  0  0  0  0  0  0  0  0  0  0  0
  -15.2320    0.8060    3.0090 O   0  0  0  0  0  0  0  0  0  0  0  0
  -15.8760    1.2420    4.2030 C   0  0  2  0  0  0  0  0  0  0  0  0
  -17.6200    1.5610    3.8960 S   0  0  0  0  0  0  0  0  0  0  0  0
  -18.4400    6.0740    4.3927 H   0  0  0  0  0  0  0  0  0  0  0  0
  -18.0647    7.2961    3.1308 H   0  0  0  0  0  0  0  0  0  0  0  0
  -19.6572    6.4649    3.1308 H   0  0  0  0  0  0  0  0  0  0  0  0
  -18.4919    5.3033    1.4598 H   0  0  0  0  0  0  0  0  0  0  0  0
  -16.9280    5.4039    2.3446 H   0  0  0  0  0  0  0  0  0  0  0  0
  -18.9600    3.3840    2.5830 H   0  0  0  0  0  0  0  0  0  0  0  0
  -15.5092    2.6498    5.7851 H   0  0  0  0  0  0  0  0  0  0  0  0
  -13.7623    3.3348    3.4625 H   0  0  0  0  0  0  0  0  0  0  0  0
  -13.2490    4.4390    5.1860 H   0  0  0  0  0  0  0  0  0  0  0  0
  -13.3038    0.8437    5.2082 H   0  0  0  0  0  0  0  0  0  0  0  0
  -11.6990    2.4140    3.4990 H   0  0  0  0  0  0  0  0  0  0  0  0
  -13.3690    1.0314    2.2156 H   0  0  0  0  0  0  0  0  0  0  0  0
  -13.5712   -1.1809    4.2987 H   0  0  0  0  0  0  0  0  0  0  0  0
  -14.2155   -1.4381    2.6322 H   0  0  0  0  0  0  0  0  0  0  0  0
  -11.5760   -0.9810    3.5200 H   0  0  0  0  0  0  0  0  0  0  0  0
  -15.6824    0.4403    4.9309 H   0  0  0  0  0  0  0  0  0  0  0  0
  1  2  1  0
  2  3  1  0
  3  4  1  0
  4  5  2  0
  5  6  1  0
  6  7  1  0
  7  8  1  0
  7  9  1  0
  9 10  1  0
  9 11  1  0
 11 12  1  0
 12 13  1  0
 11 14  1  0
 14 15  1  0
 15 16  1  0
 16  4  1  0
 15  6  1  0
  1 17  1  0
  1 18  1  0
  1 19  1  0
  2 20  1  0
  2 21  1  0
  3 22  1  0
  6 23  1  1
  7 24  1  6
  8 25  1  0
  9 26  1  1
 10 27  1  0
 11 28  1  6
 12 29  1  0
 12 30  1  0
 13 31  1  0
 15 32  1  1
M  END
>  <meeko>  (9) 
{"is_sidechain": [false], "free_energy": -4.502, "intermolecular_energy": -5.394, "internal_energy": -0.309}

$$$$
