
     RDKit          3D

  9  9  0  0  0  0  0  0  0  0999 V2000
  -16.1820   -0.4590    4.8760 N   0  0  0  0  0  0  0  0  0  0  0  0
  -16.2460   -1.8080    4.2610 C   0  0  2  0  0  0  0  0  0  0  0  0
  -16.0510   -2.8960    5.3180 C   0  0  0  0  0  0  0  0  0  0  0  0
  -14.8400   -3.7030    4.8550 C   0  0  1  0  0  0  0  0  0  0  0  0
  -14.8740   -5.0440    5.2720 O   0  0  0  0  0  0  0  0  0  0  0  0
  -14.9160   -3.5420    3.3530 C   0  0  2  0  0  0  0  0  0  0  0  0
  -13.7640   -3.9870    2.6860 O   0  0  0  0  0  0  0  0  0  0  0  0
  -15.2160   -2.0680    3.1960 C   0  0  2  0  0  0  0  0  0  0  0  0
  -14.0600   -1.2820    3.3650 O   0  0  0  0  0  0  0  0  0  0  0  0
  2  1  1  1
  3  2  1  0
  4  3  1  0
  4  5  1  6
  6  4  1  0
  6  7  1  6
  8  6  1  0
  8  2  1  0
  8  9  1  1
M  CHG  1   1   1
M  END
$$$$
