
     RDKit          3D

 23 25  0  0  0  0  0  0  0  0999 V2000
   -1.6540    7.1040  -17.5170 C   0  0  0  0  0  0  0  0  0  0  0  0
   -0.6400    6.3340  -18.3180 C   0  0  0  0  0  0  0  0  0  0  0  0
    0.1350    5.3610  -17.4510 C   0  0  0  0  0  0  0  0  0  0  0  0
   -0.7310    4.1780  -16.9950 C   0  0  0  0  0  0  0  0  0  0  0  0
    0.0620    3.2340  -15.7210 S   0  0  0  0  0  0  0  0  0  0  0  0
   -0.4980    1.6500  -16.1190 C   0  0  0  0  0  0  0  0  0  0  0  0
   -1.8870    1.2970  -15.5430 C   0  0  1  0  0  0  0  0  0  0  0  0
   -2.3620    0.0170  -16.2440 C   0  0  0  0  0  0  0  0  0  0  0  0
   -2.3550   -1.0330  -15.2040 N   0  0  0  0  0  0  0  0  0  0  0  0
   -2.0520   -2.3700  -15.5740 C   0  0  0  0  0  0  0  0  0  0  0  0
   -0.9450   -2.6630  -16.5400 C   0  0  0  0  0  0  0  0  0  0  0  0
   -1.0630   -2.9580  -17.8720 C   0  0  0  0  0  0  0  0  0  0  0  0
    0.1370   -3.2020  -18.4150 N   0  0  0  0  0  0  0  0  0  0  0  0
    1.0600   -3.0870  -17.4330 C   0  0  0  0  0  0  0  0  0  0  0  0
    2.4560   -3.2250  -17.4020 C   0  0  0  0  0  0  0  0  0  0  0  0
    3.1630   -3.5310  -18.5100 N   0  0  0  0  0  0  0  0  0  0  0  0
    3.0960   -3.0370  -16.2250 N   0  0  0  0  0  0  0  0  0  0  0  0
    2.3850   -2.7220  -15.1210 C   0  0  0  0  0  0  0  0  0  0  0  0
    1.0740   -2.5600  -15.0910 N   0  0  0  0  0  0  0  0  0  0  0  0
    0.4150   -2.7480  -16.2450 C   0  0  0  0  0  0  0  0  0  0  0  0
   -1.5080   -0.5510  -14.0940 C   0  0  0  0  0  0  0  0  0  0  0  0
   -1.8210    0.9290  -14.0780 C   0  0  2  0  0  0  0  0  0  0  0  0
   -3.0760    1.1530  -13.4630 O   0  0  0  0  0  0  0  0  0  0  0  0
  2  1  1  0
  3  2  1  0
  4  3  1  0
  5  4  1  0
  6  5  1  0
  7  6  1  6
  8  7  1  0
  9  8  1  0
 10  9  1  0
 11 10  1  0
 12 11  2  0
 13 12  1  0
 14 13  1  0
 15 14  2  0
 16 15  1  0
 17 15  1  0
 18 17  2  0
 19 18  1  0
 20 14  1  0
 20 11  1  0
 20 19  2  0
 21  9  1  0
 22 21  1  0
 22  7  1  0
 22 23  1  1
M  CHG  1   9   1
M  END
$$$$
