1h22_ligand
     RDKit          3D

 78 81  0  0  0  0  0  0  0  0999 V2000
  -12.4610   14.3620   -4.4990 O   0  0  0  0  0  0  0  0  0  0  0  0
  -11.2670   14.1040   -4.4500 C   0  0  0  0  0  0  0  0  0  0  0  0
  -10.4250   14.5700   -3.3240 C   0  0  0  0  0  0  0  0  0  0  0  0
   -9.1330   14.2150   -3.2670 C   0  0  0  0  0  0  0  0  0  0  0  0
   -8.5400   13.3560   -4.2860 C   0  0  0  0  0  0  0  0  0  0  0  0
   -9.2890   13.0080   -5.3540 C   0  0  0  0  0  0  0  0  0  0  0  0
  -10.6130   13.3770   -5.4120 N   0  0  0  0  0  0  0  0  0  0  0  0
   -8.7510   12.2360   -6.5310 C   0  0  0  0  0  0  0  0  0  0  0  0
   -7.2220   12.2540   -6.5790 C   0  0  0  0  0  0  0  0  0  0  0  0
   -6.6360   11.9080   -5.2130 C   0  0  0  0  0  0  0  0  0  0  0  0
   -7.1010   12.9070   -4.1330 C   0  0  2  0  0  0  0  0  0  0  0  0
   -6.7750   12.3230   -2.7720 N   0  0  0  0  0  0  0  0  0  0  0  0
   -6.0000   13.1860   -1.8160 C   0  0  0  0  0  0  0  0  0  0  0  0
   -4.7100   12.4630   -1.4330 C   0  0  0  0  0  0  0  0  0  0  0  0
   -4.3630   11.3090   -2.3830 C   0  0  0  0  0  0  0  0  0  0  0  0
   -3.4860   11.7290   -3.5690 C   0  0  0  0  0  0  0  0  0  0  0  0
   -2.7380   10.5530   -4.2110 C   0  0  0  0  0  0  0  0  0  0  0  0
   -2.7670    9.2350   -3.4290 C   0  0  0  0  0  0  0  0  0  0  0  0
   -2.0040    8.1000   -4.1210 C   0  0  0  0  0  0  0  0  0  0  0  0
   -2.0620    6.8140   -3.2870 C   0  0  0  0  0  0  0  0  0  0  0  0
   -0.7590    6.5100   -2.5390 C   0  0  0  0  0  0  0  0  0  0  0  0
    0.1580    5.4790   -3.1960 C   0  0  0  0  0  0  0  0  0  0  0  0
    0.8860    6.0900   -4.3500 N   0  0  0  0  0  0  0  0  0  0  0  0
    0.8270    5.3310   -5.6610 C   0  0  1  0  0  0  0  0  0  0  0  0
    0.6990    3.8300   -5.3240 C   0  0  0  0  0  0  0  0  0  0  0  0
    0.1550    3.0210   -6.4960 C   0  0  0  0  0  0  0  0  0  0  0  0
   -1.2250    3.5330   -6.9080 C   0  0  0  0  0  0  0  0  0  0  0  0
   -1.2390    5.0290   -7.0640 C   0  0  0  0  0  0  0  0  0  0  0  0
   -2.2700    5.5580   -7.8070 N   0  0  0  0  0  0  0  0  0  0  0  0
   -2.4290    6.8900   -8.0940 C   0  0  0  0  0  0  0  0  0  0  0  0
   -3.3800    7.3310   -8.7200 O   0  0  0  0  0  0  0  0  0  0  0  0
   -1.3490    7.7770   -7.6010 C   0  0  0  0  0  0  0  0  0  0  0  0
   -0.3420    7.2640   -6.8800 C   0  0  0  0  0  0  0  0  0  0  0  0
   -0.2970    5.8440   -6.5430 C   0  0  0  0  0  0  0  0  0  0  0  0
  -10.8580   15.2051   -2.5372 H   0  0  0  0  0  0  0  0  0  0  0  0
   -8.5092   14.5781   -2.4369 H   0  0  0  0  0  0  0  0  0  0  0  0
  -11.1900   13.1070   -6.2040 H   0  0  0  0  0  0  0  0  0  0  0  0
   -9.0915   11.1927   -6.4568 H   0  0  0  0  0  0  0  0  0  0  0  0
   -9.1249   12.7128   -7.4491 H   0  0  0  0  0  0  0  0  0  0  0  0
   -6.8751   11.5168   -7.3181 H   0  0  0  0  0  0  0  0  0  0  0  0
   -6.8886   13.2634   -6.8618 H   0  0  0  0  0  0  0  0  0  0  0  0
   -6.9619   10.8964   -4.9293 H   0  0  0  0  0  0  0  0  0  0  0  0
   -5.5394   11.9587   -5.2832 H   0  0  0  0  0  0  0  0  0  0  0  0
   -6.5465   13.8490   -4.2565 H   0  0  0  0  0  0  0  0  0  0  0  0
   -7.6580   12.0340   -2.3270 H   0  0  0  0  0  0  0  0  0  0  0  0
   -6.2560   11.4520   -2.9280 H   0  0  0  0  0  0  0  0  0  0  0  0
   -5.7572   14.1448   -2.2974 H   0  0  0  0  0  0  0  0  0  0  0  0
   -6.6015   13.3784   -0.9153 H   0  0  0  0  0  0  0  0  0  0  0  0
   -3.8839   13.1892   -1.4476 H   0  0  0  0  0  0  0  0  0  0  0  0
   -4.8603   12.0309   -0.4326 H   0  0  0  0  0  0  0  0  0  0  0  0
   -3.8270   10.5374   -1.8108 H   0  0  0  0  0  0  0  0  0  0  0  0
   -5.3116   10.9395   -2.7997 H   0  0  0  0  0  0  0  0  0  0  0  0
   -4.1280   12.1938   -4.3318 H   0  0  0  0  0  0  0  0  0  0  0  0
   -2.7290   12.4289   -3.1854 H   0  0  0  0  0  0  0  0  0  0  0  0
   -3.1845   10.3686   -5.1993 H   0  0  0  0  0  0  0  0  0  0  0  0
   -1.6810   10.8556   -4.2459 H   0  0  0  0  0  0  0  0  0  0  0  0
   -2.3162    9.4061   -2.4403 H   0  0  0  0  0  0  0  0  0  0  0  0
   -3.8193    8.9227   -3.3576 H   0  0  0  0  0  0  0  0  0  0  0  0
   -2.4551    7.9110   -5.1063 H   0  0  0  0  0  0  0  0  0  0  0  0
   -0.9515    8.4001   -4.2317 H   0  0  0  0  0  0  0  0  0  0  0  0
   -2.8717    6.9140   -2.5491 H   0  0  0  0  0  0  0  0  0  0  0  0
   -2.2346    5.9827   -3.9864 H   0  0  0  0  0  0  0  0  0  0  0  0
   -0.1966    7.4506   -2.4442 H   0  0  0  0  0  0  0  0  0  0  0  0
   -1.0614    6.0717   -1.5765 H   0  0  0  0  0  0  0  0  0  0  0  0
    0.8882    5.1196   -2.4560 H   0  0  0  0  0  0  0  0  0  0  0  0
   -0.4524    4.6405   -3.5625 H   0  0  0  0  0  0  0  0  0  0  0  0
    1.8730    6.1940   -4.0900 H   0  0  0  0  0  0  0  0  0  0  0  0
    0.5550    7.0480   -4.5260 H   0  0  0  0  0  0  0  0  0  0  0  0
    1.7441    5.4874   -6.2480 H   0  0  0  0  0  0  0  0  0  0  0  0
    1.6924    3.4412   -5.0559 H   0  0  0  0  0  0  0  0  0  0  0  0
   -0.0088    3.7308   -4.4878 H   0  0  0  0  0  0  0  0  0  0  0  0
    0.8438    3.1119   -7.3488 H   0  0  0  0  0  0  0  0  0  0  0  0
    0.0660    1.9683   -6.1896 H   0  0  0  0  0  0  0  0  0  0  0  0
   -1.5048    3.0719   -7.8667 H   0  0  0  0  0  0  0  0  0  0  0  0
   -1.9410    3.2637   -6.1175 H   0  0  0  0  0  0  0  0  0  0  0  0
   -2.9930    4.9580   -8.1930 H   0  0  0  0  0  0  0  0  0  0  0  0
   -1.3736    8.8534   -7.8261 H   0  0  0  0  0  0  0  0  0  0  0  0
    0.4663    7.9258   -6.5355 H   0  0  0  0  0  0  0  0  0  0  0  0
  1  2  2  0
  2  3  1  0
  3  4  2  0
  4  5  1  0
  5  6  2  0
  6  7  1  0
  6  8  1  0
  8  9  1  0
  9 10  1  0
 10 11  1  0
 11 12  1  0
 12 13  1  0
 13 14  1  0
 14 15  1  0
 15 16  1  0
 16 17  1  0
 17 18  1  0
 18 19  1  0
 19 20  1  0
 20 21  1  0
 21 22  1  0
 22 23  1  0
 23 24  1  0
 24 25  1  0
 25 26  1  0
 26 27  1  0
 27 28  1  0
 28 29  1  0
 29 30  1  0
 30 31  2  0
 30 32  1  0
 32 33  2  0
 33 34  1  0
  7  2  1  0
 34 24  1  0
 11  5  1  0
 34 28  2  0
  3 35  1  0
  4 36  1  0
  7 37  1  0
  8 38  1  0
  8 39  1  0
  9 40  1  0
  9 41  1  0
 10 42  1  0
 10 43  1  0
 11 44  1  6
 12 45  1  0
 12 46  1  0
 13 47  1  0
 13 48  1  0
 14 49  1  0
 14 50  1  0
 15 51  1  0
 15 52  1  0
 16 53  1  0
 16 54  1  0
 17 55  1  0
 17 56  1  0
 18 57  1  0
 18 58  1  0
 19 59  1  0
 19 60  1  0
 20 61  1  0
 20 62  1  0
 21 63  1  0
 21 64  1  0
 22 65  1  0
 22 66  1  0
 23 67  1  0
 23 68  1  0
 24 69  1  6
 25 70  1  0
 25 71  1  0
 26 72  1  0
 26 73  1  0
 27 74  1  0
 27 75  1  0
 29 76  1  0
 32 77  1  0
 33 78  1  0
M  CHG  2  12   1  23   1
M  END
>  <meeko>  (1) 
{"is_sidechain": [false], "free_energy": -10.08, "intermolecular_energy": -17.74, "internal_energy": -1.505}

$$$$
1h22_ligand
     RDKit          3D

 78 81  0  0  0  0  0  0  0  0999 V2000
   -6.5230   12.1880   -8.6620 O   0  0  0  0  0  0  0  0  0  0  0  0
   -6.8860   12.3480   -7.5050 C   0  0  0  0  0  0  0  0  0  0  0  0
   -6.2630   11.5920   -6.3930 C   0  0  0  0  0  0  0  0  0  0  0  0
   -6.6380   11.8370   -5.1290 C   0  0  0  0  0  0  0  0  0  0  0  0
   -7.6370   12.8550   -4.8210 C   0  0  0  0  0  0  0  0  0  0  0  0
   -8.2630   13.4760   -5.8440 C   0  0  0  0  0  0  0  0  0  0  0  0
   -7.8790   13.2200   -7.1400 N   0  0  0  0  0  0  0  0  0  0  0  0
   -9.4010   14.4460   -5.6560 C   0  0  0  0  0  0  0  0  0  0  0  0
  -10.0260   14.3350   -4.2640 C   0  0  0  0  0  0  0  0  0  0  0  0
   -8.9460   14.3350   -3.1870 C   0  0  0  0  0  0  0  0  0  0  0  0
   -7.9640   13.1610   -3.3740 C   0  0  2  0  0  0  0  0  0  0  0  0
   -6.7480   13.4120   -2.5040 N   0  0  0  0  0  0  0  0  0  0  0  0
   -6.5890   12.5620   -1.2740 C   0  0  0  0  0  0  0  0  0  0  0  0
   -5.1510   12.0490   -1.2110 C   0  0  0  0  0  0  0  0  0  0  0  0
   -4.4330   12.1030   -2.5670 C   0  0  0  0  0  0  0  0  0  0  0  0
   -4.1790   10.7240   -3.1850 C   0  0  0  0  0  0  0  0  0  0  0  0
   -2.8890   10.6630   -4.0130 C   0  0  0  0  0  0  0  0  0  0  0  0
   -2.3110    9.2630   -4.2490 C   0  0  0  0  0  0  0  0  0  0  0  0
   -2.6560    8.2670   -3.1360 C   0  0  0  0  0  0  0  0  0  0  0  0
   -2.1000    6.8740   -3.4570 C   0  0  0  0  0  0  0  0  0  0  0  0
   -0.9050    6.4750   -2.5830 C   0  0  0  0  0  0  0  0  0  0  0  0
    0.0680    5.4750   -3.2070 C   0  0  0  0  0  0  0  0  0  0  0  0
    0.8030    6.1050   -4.3460 N   0  0  0  0  0  0  0  0  0  0  0  0
    0.7890    5.3460   -5.6580 C   0  0  1  0  0  0  0  0  0  0  0  0
    0.7520    3.8390   -5.3240 C   0  0  0  0  0  0  0  0  0  0  0  0
    0.2560    3.0010   -6.4970 C   0  0  0  0  0  0  0  0  0  0  0  0
   -1.1520    3.4290   -6.9060 C   0  0  0  0  0  0  0  0  0  0  0  0
   -1.2570    4.9220   -7.0600 C   0  0  0  0  0  0  0  0  0  0  0  0
   -2.3180    5.3890   -7.8010 N   0  0  0  0  0  0  0  0  0  0  0  0
   -2.5570    6.7100   -8.0860 C   0  0  0  0  0  0  0  0  0  0  0  0
   -3.5340    7.0940   -8.7100 O   0  0  0  0  0  0  0  0  0  0  0  0
   -1.5320    7.6590   -7.5930 C   0  0  0  0  0  0  0  0  0  0  0  0
   -0.4950    7.2070   -6.8730 C   0  0  0  0  0  0  0  0  0  0  0  0
   -0.3650    5.7920   -6.5380 C   0  0  0  0  0  0  0  0  0  0  0  0
   -5.4957   10.8325   -6.6037 H   0  0  0  0  0  0  0  0  0  0  0  0
   -6.1843   11.2601   -4.3096 H   0  0  0  0  0  0  0  0  0  0  0  0
   -8.3330   13.6930   -7.9170 H   0  0  0  0  0  0  0  0  0  0  0  0
   -9.0217   15.4692   -5.7942 H   0  0  0  0  0  0  0  0  0  0  0  0
  -10.1777   14.2055   -6.3969 H   0  0  0  0  0  0  0  0  0  0  0  0
  -10.6987   15.1899   -4.1009 H   0  0  0  0  0  0  0  0  0  0  0  0
  -10.5872   13.3909   -4.2024 H   0  0  0  0  0  0  0  0  0  0  0  0
   -8.3871   15.2809   -3.2408 H   0  0  0  0  0  0  0  0  0  0  0  0
   -9.4343   14.2248   -2.2075 H   0  0  0  0  0  0  0  0  0  0  0  0
   -8.4518   12.2330   -3.0410 H   0  0  0  0  0  0  0  0  0  0  0  0
   -5.9080   13.3170   -3.0920 H   0  0  0  0  0  0  0  0  0  0  0  0
   -6.7690   14.3990   -2.2250 H   0  0  0  0  0  0  0  0  0  0  0  0
   -6.8064   13.1631   -0.3788 H   0  0  0  0  0  0  0  0  0  0  0  0
   -7.2869   11.7127   -1.3145 H   0  0  0  0  0  0  0  0  0  0  0  0
   -4.5903   12.6656   -0.4931 H   0  0  0  0  0  0  0  0  0  0  0  0
   -5.1921   10.9938   -0.9031 H   0  0  0  0  0  0  0  0  0  0  0  0
   -5.0512   12.6875   -3.2643 H   0  0  0  0  0  0  0  0  0  0  0  0
   -3.4492   12.5628   -2.3917 H   0  0  0  0  0  0  0  0  0  0  0  0
   -4.1094    9.9844   -2.3737 H   0  0  0  0  0  0  0  0  0  0  0  0
   -5.0160   10.5111   -3.8663 H   0  0  0  0  0  0  0  0  0  0  0  0
   -3.0975   11.1116   -4.9955 H   0  0  0  0  0  0  0  0  0  0  0  0
   -2.1319   11.2026   -3.4251 H   0  0  0  0  0  0  0  0  0  0  0  0
   -2.7096    8.8766   -5.1987 H   0  0  0  0  0  0  0  0  0  0  0  0
   -1.2157    9.3626   -4.2680 H   0  0  0  0  0  0  0  0  0  0  0  0
   -2.2203    8.6194   -2.1894 H   0  0  0  0  0  0  0  0  0  0  0  0
   -3.7507    8.1981   -3.0527 H   0  0  0  0  0  0  0  0  0  0  0  0
   -2.9021    6.1362   -3.3076 H   0  0  0  0  0  0  0  0  0  0  0  0
   -1.7448    6.8998   -4.4977 H   0  0  0  0  0  0  0  0  0  0  0  0
   -0.3422    7.3890   -2.3424 H   0  0  0  0  0  0  0  0  0  0  0  0
   -1.3318    5.9695   -1.7042 H   0  0  0  0  0  0  0  0  0  0  0  0
    0.7911    5.1490   -2.4449 H   0  0  0  0  0  0  0  0  0  0  0  0
   -0.5000    4.6112   -3.5828 H   0  0  0  0  0  0  0  0  0  0  0  0
    1.7830    6.2330   -4.0660 H   0  0  0  0  0  0  0  0  0  0  0  0
    0.4530    7.0550   -4.5280 H   0  0  0  0  0  0  0  0  0  0  0  0
    1.6947    5.5582   -6.2451 H   0  0  0  0  0  0  0  0  0  0  0  0
    1.7674    3.5101   -5.0580 H   0  0  0  0  0  0  0  0  0  0  0  0
    0.0526    3.6957   -4.4871 H   0  0  0  0  0  0  0  0  0  0  0  0
    0.9368    3.1350   -7.3505 H   0  0  0  0  0  0  0  0  0  0  0  0
    0.2311    1.9443   -6.1925 H   0  0  0  0  0  0  0  0  0  0  0  0
   -1.4049    2.9530   -7.8649 H   0  0  0  0  0  0  0  0  0  0  0  0
   -1.8490    3.1160   -6.1147 H   0  0  0  0  0  0  0  0  0  0  0  0
   -3.0040    4.7470   -8.1880 H   0  0  0  0  0  0  0  0  0  0  0  0
   -1.6213    8.7322   -7.8171 H   0  0  0  0  0  0  0  0  0  0  0  0
    0.2723    7.9158   -6.5282 H   0  0  0  0  0  0  0  0  0  0  0  0
  1  2  2  0
  2  3  1  0
  3  4  2  0
  4  5  1  0
  5  6  2  0
  6  7  1  0
  6  8  1  0
  8  9  1  0
  9 10  1  0
 10 11  1  0
 11 12  1  0
 12 13  1  0
 13 14  1  0
 14 15  1  0
 15 16  1  0
 16 17  1  0
 17 18  1  0
 18 19  1  0
 19 20  1  0
 20 21  1  0
 21 22  1  0
 22 23  1  0
 23 24  1  0
 24 25  1  0
 25 26  1  0
 26 27  1  0
 27 28  1  0
 28 29  1  0
 29 30  1  0
 30 31  2  0
 30 32  1  0
 32 33  2  0
 33 34  1  0
  7  2  1  0
 34 24  1  0
 11  5  1  0
 34 28  2  0
  3 35  1  0
  4 36  1  0
  7 37  1  0
  8 38  1  0
  8 39  1  0
  9 40  1  0
  9 41  1  0
 10 42  1  0
 10 43  1  0
 11 44  1  1
 12 45  1  0
 12 46  1  0
 13 47  1  0
 13 48  1  0
 14 49  1  0
 14 50  1  0
 15 51  1  0
 15 52  1  0
 16 53  1  0
 16 54  1  0
 17 55  1  0
 17 56  1  0
 18 57  1  0
 18 58  1  0
 19 59  1  0
 19 60  1  0
 20 61  1  0
 20 62  1  0
 21 63  1  0
 21 64  1  0
 22 65  1  0
 22 66  1  0
 23 67  1  0
 23 68  1  0
 24 69  1  6
 25 70  1  0
 25 71  1  0
 26 72  1  0
 26 73  1  0
 27 74  1  0
 27 75  1  0
 29 76  1  0
 32 77  1  0
 33 78  1  0
M  CHG  2  12   1  23   1
M  END
>  <meeko>  (2) 
{"is_sidechain": [false], "free_energy": -10.063, "intermolecular_energy": -17.3, "internal_energy": -1.916}

$$$$
1h22_ligand
     RDKit          3D

 78 81  0  0  0  0  0  0  0  0999 V2000
    3.6550    4.9440   -4.2090 O   0  0  0  0  0  0  0  0  0  0  0  0
    2.5940    5.5320   -4.3600 C   0  0  0  0  0  0  0  0  0  0  0  0
    2.3690    6.4270   -5.5190 C   0  0  0  0  0  0  0  0  0  0  0  0
    1.1720    7.0070   -5.6900 C   0  0  0  0  0  0  0  0  0  0  0  0
    0.0710    6.7550   -4.7660 C   0  0  0  0  0  0  0  0  0  0  0  0
    0.3090    6.0100   -3.6650 C   0  0  0  0  0  0  0  0  0  0  0  0
    1.5390    5.4190   -3.4900 N   0  0  0  0  0  0  0  0  0  0  0  0
   -0.7070    5.7900   -2.5750 C   0  0  0  0  0  0  0  0  0  0  0  0
   -1.8490    6.8070   -2.6390 C   0  0  0  0  0  0  0  0  0  0  0  0
   -2.3890    6.9200   -4.0610 C   0  0  0  0  0  0  0  0  0  0  0  0
   -1.2890    7.3590   -5.0490 C   0  0  2  0  0  0  0  0  0  0  0  0
   -1.7910    7.1220   -6.4600 N   0  0  0  0  0  0  0  0  0  0  0  0
   -2.6820    8.1710   -7.0630 C   0  0  0  0  0  0  0  0  0  0  0  0
   -2.1580    9.5510   -6.6660 C   0  0  0  0  0  0  0  0  0  0  0  0
   -3.1560   10.3500   -5.8160 C   0  0  0  0  0  0  0  0  0  0  0  0
   -2.6350   10.6920   -4.4140 C   0  0  0  0  0  0  0  0  0  0  0  0
   -3.7390   11.1730   -3.4630 C   0  0  0  0  0  0  0  0  0  0  0  0
   -3.5060   12.5390   -2.8070 C   0  0  0  0  0  0  0  0  0  0  0  0
   -4.4260   12.8030   -1.6090 C   0  0  0  0  0  0  0  0  0  0  0  0
   -5.6690   11.9060   -1.6660 C   0  0  0  0  0  0  0  0  0  0  0  0
   -6.9840   12.6670   -1.4590 C   0  0  0  0  0  0  0  0  0  0  0  0
   -6.9070   14.1830   -1.6320 C   0  0  0  0  0  0  0  0  0  0  0  0
   -7.4020   14.5790   -2.9850 N   0  0  0  0  0  0  0  0  0  0  0  0
   -8.4290   13.6610   -3.6200 C   0  0  1  0  0  0  0  0  0  0  0  0
   -9.7610   14.4380   -3.6990 C   0  0  0  0  0  0  0  0  0  0  0  0
  -10.7180   13.8380   -4.7230 C   0  0  0  0  0  0  0  0  0  0  0  0
  -10.0860   13.8400   -6.1140 C   0  0  0  0  0  0  0  0  0  0  0  0
   -8.6900   13.2770   -6.0920 C   0  0  0  0  0  0  0  0  0  0  0  0
   -8.1820   12.8510   -7.2980 N   0  0  0  0  0  0  0  0  0  0  0  0
   -6.9490   12.2730   -7.4710 C   0  0  0  0  0  0  0  0  0  0  0  0
   -6.5110   11.9470   -8.5630 O   0  0  0  0  0  0  0  0  0  0  0  0
   -6.1740   12.0530   -6.2290 C   0  0  0  0  0  0  0  0  0  0  0  0
   -6.6680   12.4630   -5.0520 C   0  0  0  0  0  0  0  0  0  0  0  0
   -7.9520   13.1520   -4.9680 C   0  0  0  0  0  0  0  0  0  0  0  0
    3.1810    6.6151   -6.2368 H   0  0  0  0  0  0  0  0  0  0  0  0
    1.0173    7.6850   -6.5423 H   0  0  0  0  0  0  0  0  0  0  0  0
    1.7250    4.8440   -2.6730 H   0  0  0  0  0  0  0  0  0  0  0  0
   -1.1264    4.7785   -2.6799 H   0  0  0  0  0  0  0  0  0  0  0  0
   -0.1980    5.9125   -1.6076 H   0  0  0  0  0  0  0  0  0  0  0  0
   -2.6594    6.4831   -1.9694 H   0  0  0  0  0  0  0  0  0  0  0  0
   -1.4663    7.7897   -2.3261 H   0  0  0  0  0  0  0  0  0  0  0  0
   -2.7805    5.9408   -4.3737 H   0  0  0  0  0  0  0  0  0  0  0  0
   -3.1843    7.6799   -4.0693 H   0  0  0  0  0  0  0  0  0  0  0  0
   -1.1014    8.4348   -4.9168 H   0  0  0  0  0  0  0  0  0  0  0  0
   -0.9750    6.9790   -7.0710 H   0  0  0  0  0  0  0  0  0  0  0  0
   -2.2880    6.2240   -6.4610 H   0  0  0  0  0  0  0  0  0  0  0  0
   -2.6768    8.0749   -8.1588 H   0  0  0  0  0  0  0  0  0  0  0  0
   -3.7111    8.0426   -6.6963 H   0  0  0  0  0  0  0  0  0  0  0  0
   -1.2309    9.4211   -6.0884 H   0  0  0  0  0  0  0  0  0  0  0  0
   -1.9881   10.1177   -7.5934 H   0  0  0  0  0  0  0  0  0  0  0  0
   -3.3850   11.2895   -6.3404 H   0  0  0  0  0  0  0  0  0  0  0  0
   -4.0455    9.7166   -5.6833 H   0  0  0  0  0  0  0  0  0  0  0  0
   -2.1699    9.7926   -3.9842 H   0  0  0  0  0  0  0  0  0  0  0  0
   -1.9142   11.5157   -4.5236 H   0  0  0  0  0  0  0  0  0  0  0  0
   -4.6767   11.2290   -4.0353 H   0  0  0  0  0  0  0  0  0  0  0  0
   -3.7610   10.4454   -2.6383 H   0  0  0  0  0  0  0  0  0  0  0  0
   -2.4624   12.5872   -2.4627 H   0  0  0  0  0  0  0  0  0  0  0  0
   -3.7295   13.3055   -3.5637 H   0  0  0  0  0  0  0  0  0  0  0  0
   -3.8752   12.5967   -0.6795 H   0  0  0  0  0  0  0  0  0  0  0  0
   -4.7491   13.8541   -1.6386 H   0  0  0  0  0  0  0  0  0  0  0  0
   -5.7009   11.4178   -2.6512 H   0  0  0  0  0  0  0  0  0  0  0  0
   -5.5823   11.1812   -0.8431 H   0  0  0  0  0  0  0  0  0  0  0  0
   -7.7155   12.2809   -2.1841 H   0  0  0  0  0  0  0  0  0  0  0  0
   -7.2652   12.4992   -0.4089 H   0  0  0  0  0  0  0  0  0  0  0  0
   -7.5269   14.6674   -0.8632 H   0  0  0  0  0  0  0  0  0  0  0  0
   -5.8591   14.5010   -1.5284 H   0  0  0  0  0  0  0  0  0  0  0  0
   -6.5970   14.6370   -3.6190 H   0  0  0  0  0  0  0  0  0  0  0  0
   -7.7960   15.5290   -2.9680 H   0  0  0  0  0  0  0  0  0  0  0  0
   -8.5795   12.7572   -3.0113 H   0  0  0  0  0  0  0  0  0  0  0  0
  -10.2421   14.4177   -2.7100 H   0  0  0  0  0  0  0  0  0  0  0  0
   -9.5333   15.4675   -4.0124 H   0  0  0  0  0  0  0  0  0  0  0  0
  -10.9541   12.8031   -4.4345 H   0  0  0  0  0  0  0  0  0  0  0  0
  -11.6356   14.4440   -4.7491 H   0  0  0  0  0  0  0  0  0  0  0  0
  -10.7057   13.2303   -6.7880 H   0  0  0  0  0  0  0  0  0  0  0  0
  -10.0303   14.8814   -6.4639 H   0  0  0  0  0  0  0  0  0  0  0  0
   -8.7210   12.9520   -8.1540 H   0  0  0  0  0  0  0  0  0  0  0  0
   -5.1946   11.5540   -6.2718 H   0  0  0  0  0  0  0  0  0  0  0  0
   -6.0946   12.2766   -4.1319 H   0  0  0  0  0  0  0  0  0  0  0  0
  1  2  2  0
  2  3  1  0
  3  4  2  0
  4  5  1  0
  5  6  2  0
  6  7  1  0
  6  8  1  0
  8  9  1  0
  9 10  1  0
 10 11  1  0
 11 12  1  0
 12 13  1  0
 13 14  1  0
 14 15  1  0
 15 16  1  0
 16 17  1  0
 17 18  1  0
 18 19  1  0
 19 20  1  0
 20 21  1  0
 21 22  1  0
 22 23  1  0
 23 24  1  0
 24 25  1  0
 25 26  1  0
 26 27  1  0
 27 28  1  0
 28 29  1  0
 29 30  1  0
 30 31  2  0
 30 32  1  0
 32 33  2  0
 33 34  1  0
  7  2  1  0
 34 24  1  0
 11  5  1  0
 34 28  2  0
  3 35  1  0
  4 36  1  0
  7 37  1  0
  8 38  1  0
  8 39  1  0
  9 40  1  0
  9 41  1  0
 10 42  1  0
 10 43  1  0
 11 44  1  6
 12 45  1  0
 12 46  1  0
 13 47  1  0
 13 48  1  0
 14 49  1  0
 14 50  1  0
 15 51  1  0
 15 52  1  0
 16 53  1  0
 16 54  1  0
 17 55  1  0
 17 56  1  0
 18 57  1  0
 18 58  1  0
 19 59  1  0
 19 60  1  0
 20 61  1  0
 20 62  1  0
 21 63  1  0
 21 64  1  0
 22 65  1  0
 22 66  1  0
 23 67  1  0
 23 68  1  0
 24 69  1  1
 25 70  1  0
 25 71  1  0
 26 72  1  0
 26 73  1  0
 27 74  1  0
 27 75  1  0
 29 76  1  0
 32 77  1  0
 33 78  1  0
M  CHG  2  12   1  23   1
M  END
>  <meeko>  (3) 
{"is_sidechain": [false], "free_energy": -10.056, "intermolecular_energy": -16.976, "internal_energy": -2.228}

$$$$
1h22_ligand
     RDKit          3D

 78 81  0  0  0  0  0  0  0  0999 V2000
   -6.4360   12.0990   -8.7070 O   0  0  0  0  0  0  0  0  0  0  0  0
   -6.9790   12.3180   -7.6340 C   0  0  0  0  0  0  0  0  0  0  0  0
   -6.3420   11.9260   -6.3550 C   0  0  0  0  0  0  0  0  0  0  0  0
   -6.9330   12.2380   -5.1930 C   0  0  0  0  0  0  0  0  0  0  0  0
   -8.1890   12.9800   -5.1600 C   0  0  0  0  0  0  0  0  0  0  0  0
   -8.8090   13.2560   -6.3280 C   0  0  0  0  0  0  0  0  0  0  0  0
   -8.2010   12.9310   -7.5190 N   0  0  0  0  0  0  0  0  0  0  0  0
  -10.1680   13.8980   -6.4160 C   0  0  0  0  0  0  0  0  0  0  0  0
  -10.9280   13.8220   -5.0900 C   0  0  0  0  0  0  0  0  0  0  0  0
  -10.0380   14.2690   -3.9340 C   0  0  0  0  0  0  0  0  0  0  0  0
   -8.7750   13.3900   -3.8240 C   0  0  2  0  0  0  0  0  0  0  0  0
   -7.7900   14.0830   -2.9020 N   0  0  0  0  0  0  0  0  0  0  0  0
   -7.6160   13.5130   -1.5220 C   0  0  0  0  0  0  0  0  0  0  0  0
   -6.1640   13.7070   -1.0870 C   0  0  0  0  0  0  0  0  0  0  0  0
   -5.1690   12.9160   -1.9480 C   0  0  0  0  0  0  0  0  0  0  0  0
   -5.4030   11.4010   -1.9260 C   0  0  0  0  0  0  0  0  0  0  0  0
   -4.4220   10.6270   -2.8170 C   0  0  0  0  0  0  0  0  0  0  0  0
   -3.6790   11.4560   -3.8700 C   0  0  0  0  0  0  0  0  0  0  0  0
   -2.5460   10.6890   -4.5610 C   0  0  0  0  0  0  0  0  0  0  0  0
   -2.9720   10.2260   -5.9590 C   0  0  0  0  0  0  0  0  0  0  0  0
   -1.9870    9.2460   -6.6070 C   0  0  0  0  0  0  0  0  0  0  0  0
   -2.5820    7.9180   -7.0740 C   0  0  0  0  0  0  0  0  0  0  0  0
   -2.3050    6.8430   -6.0730 N   0  0  0  0  0  0  0  0  0  0  0  0
   -1.6490    7.2820   -4.7780 C   0  0  1  0  0  0  0  0  0  0  0  0
   -2.6070    6.9170   -3.6250 C   0  0  0  0  0  0  0  0  0  0  0  0
   -1.8920    6.8550   -2.2800 C   0  0  0  0  0  0  0  0  0  0  0  0
   -0.7750    5.8130   -2.3130 C   0  0  0  0  0  0  0  0  0  0  0  0
    0.0980    5.9730   -3.5280 C   0  0  0  0  0  0  0  0  0  0  0  0
    1.3420    5.3870   -3.4700 N   0  0  0  0  0  0  0  0  0  0  0  0
    2.2910    5.4590   -4.4590 C   0  0  0  0  0  0  0  0  0  0  0  0
    3.3700    4.8900   -4.3930 O   0  0  0  0  0  0  0  0  0  0  0  0
    1.9280    6.2950   -5.6250 C   0  0  0  0  0  0  0  0  0  0  0  0
    0.7170    6.8700   -5.6830 C   0  0  0  0  0  0  0  0  0  0  0  0
   -0.2690    6.6680   -4.6260 C   0  0  0  0  0  0  0  0  0  0  0  0
   -5.3868   11.3805   -6.3590 H   0  0  0  0  0  0  0  0  0  0  0  0
   -6.4629   11.9292   -4.2477 H   0  0  0  0  0  0  0  0  0  0  0  0
   -8.6500   13.1480   -8.4040 H   0  0  0  0  0  0  0  0  0  0  0  0
  -10.0435   14.9552   -6.6933 H   0  0  0  0  0  0  0  0  0  0  0  0
  -10.7516   13.3528   -7.1724 H   0  0  0  0  0  0  0  0  0  0  0  0
  -11.8103   14.4769   -5.1410 H   0  0  0  0  0  0  0  0  0  0  0  0
  -11.2365   12.7803   -4.9175 H   0  0  0  0  0  0  0  0  0  0  0  0
   -9.7341   15.3132   -4.0992 H   0  0  0  0  0  0  0  0  0  0  0  0
  -10.6098   14.1723   -2.9993 H   0  0  0  0  0  0  0  0  0  0  0  0
   -9.0534   12.4219   -3.3822 H   0  0  0  0  0  0  0  0  0  0  0  0
   -6.8760   14.1120   -3.3730 H   0  0  0  0  0  0  0  0  0  0  0  0
   -8.0830   15.0630   -2.8220 H   0  0  0  0  0  0  0  0  0  0  0  0
   -8.2845   14.0333   -0.8204 H   0  0  0  0  0  0  0  0  0  0  0  0
   -7.8641   12.4413   -1.5269 H   0  0  0  0  0  0  0  0  0  0  0  0
   -5.9166   14.7764   -1.1585 H   0  0  0  0  0  0  0  0  0  0  0  0
   -6.0767   13.3333   -0.0561 H   0  0  0  0  0  0  0  0  0  0  0  0
   -5.2548   13.2655   -2.9874 H   0  0  0  0  0  0  0  0  0  0  0  0
   -4.1683   13.0927   -1.5269 H   0  0  0  0  0  0  0  0  0  0  0  0
   -5.2919   11.0447   -0.8913 H   0  0  0  0  0  0  0  0  0  0  0  0
   -6.4148   11.2198   -2.3178 H   0  0  0  0  0  0  0  0  0  0  0  0
   -3.6704   10.1593   -2.1641 H   0  0  0  0  0  0  0  0  0  0  0  0
   -5.0348    9.9085   -3.3811 H   0  0  0  0  0  0  0  0  0  0  0  0
   -4.4014   11.7753   -4.6356 H   0  0  0  0  0  0  0  0  0  0  0  0
   -3.2218   12.3094   -3.3478 H   0  0  0  0  0  0  0  0  0  0  0  0
   -1.6687   11.3464   -4.6511 H   0  0  0  0  0  0  0  0  0  0  0  0
   -2.3017    9.8030   -3.9566 H   0  0  0  0  0  0  0  0  0  0  0  0
   -3.9517    9.7323   -5.8784 H   0  0  0  0  0  0  0  0  0  0  0  0
   -3.0058   11.1201   -6.5988 H   0  0  0  0  0  0  0  0  0  0  0  0
   -1.5423    9.7430   -7.4818 H   0  0  0  0  0  0  0  0  0  0  0  0
   -1.2606    8.9889   -5.8220 H   0  0  0  0  0  0  0  0  0  0  0  0
   -3.6697    8.0302   -7.1939 H   0  0  0  0  0  0  0  0  0  0  0  0
   -2.1230    7.6390   -8.0339 H   0  0  0  0  0  0  0  0  0  0  0  0
   -1.6970    6.1420   -6.5130 H   0  0  0  0  0  0  0  0  0  0  0  0
   -3.1660    6.3340   -5.8340 H   0  0  0  0  0  0  0  0  0  0  0  0
   -1.4803    8.3690   -4.7705 H   0  0  0  0  0  0  0  0  0  0  0  0
   -3.4005    7.6768   -3.5697 H   0  0  0  0  0  0  0  0  0  0  0  0
   -3.0216    5.9197   -3.8333 H   0  0  0  0  0  0  0  0  0  0  0  0
   -1.4601    7.8411   -2.0543 H   0  0  0  0  0  0  0  0  0  0  0  0
   -2.6188    6.5717   -1.5044 H   0  0  0  0  0  0  0  0  0  0  0  0
   -0.1553    5.9257   -1.4112 H   0  0  0  0  0  0  0  0  0  0  0  0
   -1.2370    4.8154   -2.3510 H   0  0  0  0  0  0  0  0  0  0  0  0
    1.6260    4.8500   -2.6560 H   0  0  0  0  0  0  0  0  0  0  0  0
    2.6491    6.4446   -6.4421 H   0  0  0  0  0  0  0  0  0  0  0  0
    0.4625    7.5059   -6.5438 H   0  0  0  0  0  0  0  0  0  0  0  0
  1  2  2  0
  2  3  1  0
  3  4  2  0
  4  5  1  0
  5  6  2  0
  6  7  1  0
  6  8  1  0
  8  9  1  0
  9 10  1  0
 10 11  1  0
 11 12  1  0
 12 13  1  0
 13 14  1  0
 14 15  1  0
 15 16  1  0
 16 17  1  0
 17 18  1  0
 18 19  1  0
 19 20  1  0
 20 21  1  0
 21 22  1  0
 22 23  1  0
 23 24  1  0
 24 25  1  0
 25 26  1  0
 26 27  1  0
 27 28  1  0
 28 29  1  0
 29 30  1  0
 30 31  2  0
 30 32  1  0
 32 33  2  0
 33 34  1  0
  7  2  1  0
 34 24  1  0
 11  5  1  0
 34 28  2  0
  3 35  1  0
  4 36  1  0
  7 37  1  0
  8 38  1  0
  8 39  1  0
  9 40  1  0
  9 41  1  0
 10 42  1  0
 10 43  1  0
 11 44  1  1
 12 45  1  0
 12 46  1  0
 13 47  1  0
 13 48  1  0
 14 49  1  0
 14 50  1  0
 15 51  1  0
 15 52  1  0
 16 53  1  0
 16 54  1  0
 17 55  1  0
 17 56  1  0
 18 57  1  0
 18 58  1  0
 19 59  1  0
 19 60  1  0
 20 61  1  0
 20 62  1  0
 21 63  1  0
 21 64  1  0
 22 65  1  0
 22 66  1  0
 23 67  1  0
 23 68  1  0
 24 69  1  6
 25 70  1  0
 25 71  1  0
 26 72  1  0
 26 73  1  0
 27 74  1  0
 27 75  1  0
 29 76  1  0
 32 77  1  0
 33 78  1  0
M  CHG  2  12   1  23   1
M  END
>  <meeko>  (4) 
{"is_sidechain": [false], "free_energy": -10.041, "intermolecular_energy": -17.038, "internal_energy": -2.137}

$$$$
1h22_ligand
     RDKit          3D

 78 81  0  0  0  0  0  0  0  0999 V2000
   -5.9470   11.0060   -7.7200 O   0  0  0  0  0  0  0  0  0  0  0  0
   -6.6530   11.6100   -6.9260 C   0  0  0  0  0  0  0  0  0  0  0  0
   -6.1450   12.0060   -5.5910 C   0  0  0  0  0  0  0  0  0  0  0  0
   -6.9230   12.7240   -4.7680 C   0  0  0  0  0  0  0  0  0  0  0  0
   -8.2600   13.1460   -5.1690 C   0  0  0  0  0  0  0  0  0  0  0  0
   -8.7500   12.7080   -6.3490 C   0  0  0  0  0  0  0  0  0  0  0  0
   -7.9510   11.9680   -7.1910 N   0  0  0  0  0  0  0  0  0  0  0  0
  -10.1600   12.9670   -6.8120 C   0  0  0  0  0  0  0  0  0  0  0  0
  -11.0720   13.4000   -5.6620 C   0  0  0  0  0  0  0  0  0  0  0  0
  -10.4120   14.5020   -4.8380 C   0  0  0  0  0  0  0  0  0  0  0  0
   -9.0690   14.0320   -4.2440 C   0  0  2  0  0  0  0  0  0  0  0  0
   -8.3180   15.2500   -3.7400 N   0  0  0  0  0  0  0  0  0  0  0  0
   -7.9660   15.2900   -2.2790 C   0  0  0  0  0  0  0  0  0  0  0  0
   -8.2270   13.9130   -1.6700 C   0  0  0  0  0  0  0  0  0  0  0  0
   -7.0020   13.3320   -0.9520 C   0  0  0  0  0  0  0  0  0  0  0  0
   -5.6730   13.9500   -1.4010 C   0  0  0  0  0  0  0  0  0  0  0  0
   -4.6670   12.9100   -1.9120 C   0  0  0  0  0  0  0  0  0  0  0  0
   -5.0870   11.4440   -1.7630 C   0  0  0  0  0  0  0  0  0  0  0  0
   -4.3750   10.5040   -2.7420 C   0  0  0  0  0  0  0  0  0  0  0  0
   -3.4550   11.2910   -3.6840 C   0  0  0  0  0  0  0  0  0  0  0  0
   -2.6520   10.4020   -4.6400 C   0  0  0  0  0  0  0  0  0  0  0  0
   -1.8900    9.2470   -3.9900 C   0  0  0  0  0  0  0  0  0  0  0  0
   -2.2460    7.9530   -4.6480 N   0  0  0  0  0  0  0  0  0  0  0  0
   -1.2460    7.4100   -5.6500 C   0  0  1  0  0  0  0  0  0  0  0  0
   -0.4340    6.3040   -4.9450 C   0  0  0  0  0  0  0  0  0  0  0  0
    0.2470    5.3680   -5.9370 C   0  0  0  0  0  0  0  0  0  0  0  0
   -0.7880    4.6930   -6.8360 C   0  0  0  0  0  0  0  0  0  0  0  0
   -1.7560    5.6900   -7.4130 C   0  0  0  0  0  0  0  0  0  0  0  0
   -2.4570    5.2890   -8.5280 N   0  0  0  0  0  0  0  0  0  0  0  0
   -3.3500    6.0700   -9.2170 C   0  0  0  0  0  0  0  0  0  0  0  0
   -3.9890    5.6670  -10.1780 O   0  0  0  0  0  0  0  0  0  0  0  0
   -3.4860    7.4600   -8.7270 C   0  0  0  0  0  0  0  0  0  0  0  0
   -2.8020    7.8550   -7.6430 C   0  0  0  0  0  0  0  0  0  0  0  0
   -1.9390    6.9310   -6.9130 C   0  0  0  0  0  0  0  0  0  0  0  0
   -5.1329   11.7118   -5.2764 H   0  0  0  0  0  0  0  0  0  0  0  0
   -6.5458   12.9997   -3.7722 H   0  0  0  0  0  0  0  0  0  0  0  0
   -8.3040   11.6460   -8.0880 H   0  0  0  0  0  0  0  0  0  0  0  0
  -10.1437   13.7630   -7.5710 H   0  0  0  0  0  0  0  0  0  0  0  0
  -10.5586   12.0292   -7.2264 H   0  0  0  0  0  0  0  0  0  0  0  0
  -12.0201   13.7757   -6.0744 H   0  0  0  0  0  0  0  0  0  0  0  0
  -11.2570   12.5330   -5.0107 H   0  0  0  0  0  0  0  0  0  0  0  0
  -10.2320   15.3735   -5.4847 H   0  0  0  0  0  0  0  0  0  0  0  0
  -11.0849   14.7642   -4.0083 H   0  0  0  0  0  0  0  0  0  0  0  0
   -9.2712   13.3628   -3.3947 H   0  0  0  0  0  0  0  0  0  0  0  0
   -7.4590   15.3510   -4.2980 H   0  0  0  0  0  0  0  0  0  0  0  0
   -8.8840   16.0750   -3.9670 H   0  0  0  0  0  0  0  0  0  0  0  0
   -6.9037   15.5504   -2.1620 H   0  0  0  0  0  0  0  0  0  0  0  0
   -8.5798   16.0464   -1.7680 H   0  0  0  0  0  0  0  0  0  0  0  0
   -9.0492   14.0009   -0.9446 H   0  0  0  0  0  0  0  0  0  0  0  0
   -8.4782   13.2308   -2.4956 H   0  0  0  0  0  0  0  0  0  0  0  0
   -7.1181   13.5053    0.1280 H   0  0  0  0  0  0  0  0  0  0  0  0
   -6.9598   12.2620   -1.2036 H   0  0  0  0  0  0  0  0  0  0  0  0
   -5.8762   14.6673   -2.2098 H   0  0  0  0  0  0  0  0  0  0  0  0
   -5.2241   14.4360   -0.5222 H   0  0  0  0  0  0  0  0  0  0  0  0
   -4.4947   13.1044   -2.9809 H   0  0  0  0  0  0  0  0  0  0  0  0
   -3.7713   13.0286   -1.2846 H   0  0  0  0  0  0  0  0  0  0  0  0
   -4.8578   11.1182   -0.7377 H   0  0  0  0  0  0  0  0  0  0  0  0
   -6.1629   11.3903   -1.9858 H   0  0  0  0  0  0  0  0  0  0  0  0
   -3.7736    9.7796   -2.1732 H   0  0  0  0  0  0  0  0  0  0  0  0
   -5.1337    9.9835   -3.3449 H   0  0  0  0  0  0  0  0  0  0  0  0
   -4.0736   11.9758   -4.2826 H   0  0  0  0  0  0  0  0  0  0  0  0
   -2.7292   11.8261   -3.0541 H   0  0  0  0  0  0  0  0  0  0  0  0
   -3.3525    9.9747   -5.3726 H   0  0  0  0  0  0  0  0  0  0  0  0
   -1.8855   11.0547   -5.0832 H   0  0  0  0  0  0  0  0  0  0  0  0
   -0.8090    9.4215   -4.0945 H   0  0  0  0  0  0  0  0  0  0  0  0
   -2.1628    9.1933   -2.9257 H   0  0  0  0  0  0  0  0  0  0  0  0
   -3.1440    8.0730   -5.1320 H   0  0  0  0  0  0  0  0  0  0  0  0
   -2.4190    7.2200   -3.9470 H   0  0  0  0  0  0  0  0  0  0  0  0
   -0.5562    8.1989   -5.9845 H   0  0  0  0  0  0  0  0  0  0  0  0
    0.3362    6.7757   -4.3171 H   0  0  0  0  0  0  0  0  0  0  0  0
   -1.1320    5.7057   -4.3410 H   0  0  0  0  0  0  0  0  0  0  0  0
    0.9446    5.9469   -6.5601 H   0  0  0  0  0  0  0  0  0  0  0  0
    0.7908    4.5926   -5.3775 H   0  0  0  0  0  0  0  0  0  0  0  0
   -0.2669    4.1836   -7.6600 H   0  0  0  0  0  0  0  0  0  0  0  0
   -1.3565    3.9750   -6.2266 H   0  0  0  0  0  0  0  0  0  0  0  0
   -2.3400    4.3530   -8.9070 H   0  0  0  0  0  0  0  0  0  0  0  0
   -4.1463    8.1672   -9.2504 H   0  0  0  0  0  0  0  0  0  0  0  0
   -2.8930    8.8953   -7.2973 H   0  0  0  0  0  0  0  0  0  0  0  0
  1  2  2  0
  2  3  1  0
  3  4  2  0
  4  5  1  0
  5  6  2  0
  6  7  1  0
  6  8  1  0
  8  9  1  0
  9 10  1  0
 10 11  1  0
 11 12  1  0
 12 13  1  0
 13 14  1  0
 14 15  1  0
 15 16  1  0
 16 17  1  0
 17 18  1  0
 18 19  1  0
 19 20  1  0
 20 21  1  0
 21 22  1  0
 22 23  1  0
 23 24  1  0
 24 25  1  0
 25 26  1  0
 26 27  1  0
 27 28  1  0
 28 29  1  0
 29 30  1  0
 30 31  2  0
 30 32  1  0
 32 33  2  0
 33 34  1  0
  7  2  1  0
 34 24  1  0
 11  5  1  0
 34 28  2  0
  3 35  1  0
  4 36  1  0
  7 37  1  0
  8 38  1  0
  8 39  1  0
  9 40  1  0
  9 41  1  0
 10 42  1  0
 10 43  1  0
 11 44  1  1
 12 45  1  0
 12 46  1  0
 13 47  1  0
 13 48  1  0
 14 49  1  0
 14 50  1  0
 15 51  1  0
 15 52  1  0
 16 53  1  0
 16 54  1  0
 17 55  1  0
 17 56  1  0
 18 57  1  0
 18 58  1  0
 19 59  1  0
 19 60  1  0
 20 61  1  0
 20 62  1  0
 21 63  1  0
 21 64  1  0
 22 65  1  0
 22 66  1  0
 23 67  1  0
 23 68  1  0
 24 69  1  6
 25 70  1  0
 25 71  1  0
 26 72  1  0
 26 73  1  0
 27 74  1  0
 27 75  1  0
 29 76  1  0
 32 77  1  0
 33 78  1  0
M  CHG  2  12   1  23   1
M  END
>  <meeko>  (5) 
{"is_sidechain": [false], "free_energy": -9.969, "intermolecular_energy": -16.872, "internal_energy": -2.178}

$$$$
1h22_ligand
     RDKit          3D

 78 81  0  0  0  0  0  0  0  0999 V2000
  -10.4420   14.5610   -2.8700 O   0  0  0  0  0  0  0  0  0  0  0  0
   -9.4430   14.0080   -3.3080 C   0  0  0  0  0  0  0  0  0  0  0  0
   -8.2220   13.8580   -2.4810 C   0  0  0  0  0  0  0  0  0  0  0  0
   -7.1660   13.1910   -2.9680 C   0  0  0  0  0  0  0  0  0  0  0  0
   -7.2010   12.5850   -4.2950 C   0  0  0  0  0  0  0  0  0  0  0  0
   -8.2820   12.8010   -5.0760 C   0  0  0  0  0  0  0  0  0  0  0  0
   -9.3630   13.4900   -4.5750 N   0  0  0  0  0  0  0  0  0  0  0  0
   -8.3790   12.3400   -6.5070 C   0  0  0  0  0  0  0  0  0  0  0  0
   -7.0090   11.9860   -7.0910 C   0  0  0  0  0  0  0  0  0  0  0  0
   -6.2340   11.0830   -6.1360 C   0  0  0  0  0  0  0  0  0  0  0  0
   -6.0200   11.7630   -4.7680 C   0  0  2  0  0  0  0  0  0  0  0  0
   -5.5610   10.7100   -3.7780 N   0  0  0  0  0  0  0  0  0  0  0  0
   -4.1790   10.8530   -3.2060 C   0  0  0  0  0  0  0  0  0  0  0  0
   -3.1580   10.6690   -4.3290 C   0  0  0  0  0  0  0  0  0  0  0  0
   -2.2310    9.4660   -4.1070 C   0  0  0  0  0  0  0  0  0  0  0  0
   -2.8020    8.4160   -3.1460 C   0  0  0  0  0  0  0  0  0  0  0  0
   -2.2860    6.9990   -3.4270 C   0  0  0  0  0  0  0  0  0  0  0  0
   -1.7090    6.2470   -2.2230 C   0  0  0  0  0  0  0  0  0  0  0  0
   -0.2810    6.6740   -1.8660 C   0  0  0  0  0  0  0  0  0  0  0  0
    0.6990    6.2950   -2.9830 C   0  0  0  0  0  0  0  0  0  0  0  0
    1.3100    7.5050   -3.7000 C   0  0  0  0  0  0  0  0  0  0  0  0
    2.2510    7.1830   -4.8600 C   0  0  0  0  0  0  0  0  0  0  0  0
    1.4770    7.0090   -6.1260 N   0  0  0  0  0  0  0  0  0  0  0  0
    0.0390    6.5500   -5.9780 C   0  0  1  0  0  0  0  0  0  0  0  0
   -0.8270    7.4270   -6.9070 C   0  0  0  0  0  0  0  0  0  0  0  0
   -2.1720    6.7800   -7.2200 C   0  0  0  0  0  0  0  0  0  0  0  0
   -1.9710    5.4260   -7.9000 C   0  0  0  0  0  0  0  0  0  0  0  0
   -0.9750    4.5750   -7.1600 C   0  0  0  0  0  0  0  0  0  0  0  0
   -1.0120    3.2240   -7.4200 N   0  0  0  0  0  0  0  0  0  0  0  0
   -0.2140    2.2860   -6.8140 C   0  0  0  0  0  0  0  0  0  0  0  0
   -0.2410    1.0980   -7.1010 O   0  0  0  0  0  0  0  0  0  0  0  0
    0.6900    2.8070   -5.7630 C   0  0  0  0  0  0  0  0  0  0  0  0
    0.7250    4.1220   -5.5060 C   0  0  0  0  0  0  0  0  0  0  0  0
   -0.0950    5.0650   -6.2610 C   0  0  0  0  0  0  0  0  0  0  0  0
   -8.1825   14.2925   -1.4712 H   0  0  0  0  0  0  0  0  0  0  0  0
   -6.2565   13.0988   -2.3561 H   0  0  0  0  0  0  0  0  0  0  0  0
  -10.1870   13.6450   -5.1480 H   0  0  0  0  0  0  0  0  0  0  0  0
   -9.0239   11.4499   -6.5502 H   0  0  0  0  0  0  0  0  0  0  0  0
   -8.7982   13.1652   -7.1015 H   0  0  0  0  0  0  0  0  0  0  0  0
   -7.1486   11.4636   -8.0489 H   0  0  0  0  0  0  0  0  0  0  0  0
   -6.4381   12.9140   -7.2427 H   0  0  0  0  0  0  0  0  0  0  0  0
   -6.7984   10.1505   -5.9878 H   0  0  0  0  0  0  0  0  0  0  0  0
   -5.2482   10.8764   -6.5781 H   0  0  0  0  0  0  0  0  0  0  0  0
   -5.2307   12.5225   -4.8684 H   0  0  0  0  0  0  0  0  0  0  0  0
   -6.2440   10.6750   -3.0080 H   0  0  0  0  0  0  0  0  0  0  0  0
   -5.6350    9.7980   -4.2440 H   0  0  0  0  0  0  0  0  0  0  0  0
   -4.0643   11.8531   -2.7626 H   0  0  0  0  0  0  0  0  0  0  0  0
   -4.0173   10.0938   -2.4266 H   0  0  0  0  0  0  0  0  0  0  0  0
   -3.7001   10.5236   -5.2750 H   0  0  0  0  0  0  0  0  0  0  0  0
   -2.5275   11.5701   -4.3507 H   0  0  0  0  0  0  0  0  0  0  0  0
   -2.0486    8.9843   -5.0789 H   0  0  0  0  0  0  0  0  0  0  0  0
   -1.3080    9.8518   -3.6496 H   0  0  0  0  0  0  0  0  0  0  0  0
   -2.5226    8.6930   -2.1188 H   0  0  0  0  0  0  0  0  0  0  0  0
   -3.8929    8.4016   -3.2866 H   0  0  0  0  0  0  0  0  0  0  0  0
   -3.1241    6.4075   -3.8240 H   0  0  0  0  0  0  0  0  0  0  0  0
   -1.4498    7.1204   -4.1314 H   0  0  0  0  0  0  0  0  0  0  0  0
   -2.3562    6.4326   -1.3531 H   0  0  0  0  0  0  0  0  0  0  0  0
   -1.6713    5.1814   -2.4933 H   0  0  0  0  0  0  0  0  0  0  0  0
   -0.2569    7.7640   -1.7203 H   0  0  0  0  0  0  0  0  0  0  0  0
    0.0204    6.1562   -0.9435 H   0  0  0  0  0  0  0  0  0  0  0  0
    1.5150    5.7026   -2.5435 H   0  0  0  0  0  0  0  0  0  0  0  0
    0.1288    5.7289   -3.7342 H   0  0  0  0  0  0  0  0  0  0  0  0
    0.4848    8.1163   -4.0941 H   0  0  0  0  0  0  0  0  0  0  0  0
    1.9266    8.0189   -2.9479 H   0  0  0  0  0  0  0  0  0  0  0  0
    2.9684    8.0075   -4.9843 H   0  0  0  0  0  0  0  0  0  0  0  0
    2.7850    6.2475   -4.6370 H   0  0  0  0  0  0  0  0  0  0  0  0
    1.9670    6.3250   -6.7140 H   0  0  0  0  0  0  0  0  0  0  0  0
    1.4750    7.8780   -6.6770 H   0  0  0  0  0  0  0  0  0  0  0  0
   -0.3101    6.6758   -4.9425 H   0  0  0  0  0  0  0  0  0  0  0  0
   -1.0052    8.3950   -6.4158 H   0  0  0  0  0  0  0  0  0  0  0  0
   -0.2840    7.5535   -7.8552 H   0  0  0  0  0  0  0  0  0  0  0  0
   -2.7304    6.6351   -6.2834 H   0  0  0  0  0  0  0  0  0  0  0  0
   -2.7334    7.4386   -7.8990 H   0  0  0  0  0  0  0  0  0  0  0  0
   -2.9352    4.8978   -7.9348 H   0  0  0  0  0  0  0  0  0  0  0  0
   -1.5833    5.6051   -8.9137 H   0  0  0  0  0  0  0  0  0  0  0  0
   -1.6590    2.8430   -8.1040 H   0  0  0  0  0  0  0  0  0  0  0  0
    1.3309    2.1167   -5.1949 H   0  0  0  0  0  0  0  0  0  0  0  0
    1.3848    4.4983   -4.7103 H   0  0  0  0  0  0  0  0  0  0  0  0
  1  2  2  0
  2  3  1  0
  3  4  2  0
  4  5  1  0
  5  6  2  0
  6  7  1  0
  6  8  1  0
  8  9  1  0
  9 10  1  0
 10 11  1  0
 11 12  1  0
 12 13  1  0
 13 14  1  0
 14 15  1  0
 15 16  1  0
 16 17  1  0
 17 18  1  0
 18 19  1  0
 19 20  1  0
 20 21  1  0
 21 22  1  0
 22 23  1  0
 23 24  1  0
 24 25  1  0
 25 26  1  0
 26 27  1  0
 27 28  1  0
 28 29  1  0
 29 30  1  0
 30 31  2  0
 30 32  1  0
 32 33  2  0
 33 34  1  0
  7  2  1  0
 34 24  1  0
 11  5  1  0
 34 28  2  0
  3 35  1  0
  4 36  1  0
  7 37  1  0
  8 38  1  0
  8 39  1  0
  9 40  1  0
  9 41  1  0
 10 42  1  0
 10 43  1  0
 11 44  1  6
 12 45  1  0
 12 46  1  0
 13 47  1  0
 13 48  1  0
 14 49  1  0
 14 50  1  0
 15 51  1  0
 15 52  1  0
 16 53  1  0
 16 54  1  0
 17 55  1  0
 17 56  1  0
 18 57  1  0
 18 58  1  0
 19 59  1  0
 19 60  1  0
 20 61  1  0
 20 62  1  0
 21 63  1  0
 21 64  1  0
 22 65  1  0
 22 66  1  0
 23 67  1  0
 23 68  1  0
 24 69  1  1
 25 70  1  0
 25 71  1  0
 26 72  1  0
 26 73  1  0
 27 74  1  0
 27 75  1  0
 29 76  1  0
 32 77  1  0
 33 78  1  0
M  CHG  2  12   1  23   1
M  END
>  <meeko>  (6) 
{"is_sidechain": [false], "free_energy": -9.855, "intermolecular_energy": -17.388, "internal_energy": -1.462}

$$$$
1h22_ligand
     RDKit          3D

 78 81  0  0  0  0  0  0  0  0999 V2000
   -0.3200    1.0740   -6.7490 O   0  0  0  0  0  0  0  0  0  0  0  0
   -0.1770    2.2810   -6.6180 C   0  0  0  0  0  0  0  0  0  0  0  0
   -1.0430    3.2410   -7.3420 C   0  0  0  0  0  0  0  0  0  0  0  0
   -0.9030    4.5570   -7.1270 C   0  0  0  0  0  0  0  0  0  0  0  0
    0.0740    5.0670   -6.1720 C   0  0  0  0  0  0  0  0  0  0  0  0
    0.9190    4.1940   -5.5820 C   0  0  0  0  0  0  0  0  0  0  0  0
    0.7760    2.8440   -5.8070 N   0  0  0  0  0  0  0  0  0  0  0  0
    2.0520    4.6120   -4.6820 C   0  0  0  0  0  0  0  0  0  0  0  0
    2.3930    6.0950   -4.8380 C   0  0  0  0  0  0  0  0  0  0  0  0
    1.1280    6.9470   -4.7810 C   0  0  0  0  0  0  0  0  0  0  0  0
    0.1350    6.5550   -5.8940 C   0  0  2  0  0  0  0  0  0  0  0  0
   -1.2090    7.1820   -5.5770 N   0  0  0  0  0  0  0  0  0  0  0  0
   -1.8420    6.8320   -4.2600 C   0  0  0  0  0  0  0  0  0  0  0  0
   -2.2680    8.1210   -3.5590 C   0  0  0  0  0  0  0  0  0  0  0  0
   -2.0630    9.3720   -4.4250 C   0  0  0  0  0  0  0  0  0  0  0  0
   -3.0500   10.5040   -4.1160 C   0  0  0  0  0  0  0  0  0  0  0  0
   -3.8870   10.2460   -2.8570 C   0  0  0  0  0  0  0  0  0  0  0  0
   -5.3310   10.7590   -2.8970 C   0  0  0  0  0  0  0  0  0  0  0  0
   -5.6840   11.6770   -1.7210 C   0  0  0  0  0  0  0  0  0  0  0  0
   -4.7950   12.9280   -1.7180 C   0  0  0  0  0  0  0  0  0  0  0  0
   -5.5860   14.2410   -1.7280 C   0  0  0  0  0  0  0  0  0  0  0  0
   -7.1050   14.1030   -1.6280 C   0  0  0  0  0  0  0  0  0  0  0  0
   -7.7580   14.6420   -2.8600 N   0  0  0  0  0  0  0  0  0  0  0  0
   -8.7460   13.7250   -3.5540 C   0  0  1  0  0  0  0  0  0  0  0  0
  -10.0950   14.4710   -3.6350 C   0  0  0  0  0  0  0  0  0  0  0  0
  -11.0120   13.8870   -4.7040 C   0  0  0  0  0  0  0  0  0  0  0  0
  -10.3490   13.9590   -6.0780 C   0  0  0  0  0  0  0  0  0  0  0  0
   -8.9400   13.4310   -6.0440 C   0  0  0  0  0  0  0  0  0  0  0  0
   -8.3940   13.0660   -7.2530 N   0  0  0  0  0  0  0  0  0  0  0  0
   -7.1430   12.5260   -7.4190 C   0  0  0  0  0  0  0  0  0  0  0  0
   -6.6710   12.2540   -8.5120 O   0  0  0  0  0  0  0  0  0  0  0  0
   -6.3910   12.2760   -6.1680 C   0  0  0  0  0  0  0  0  0  0  0  0
   -6.9220   12.6280   -4.9880 C   0  0  0  0  0  0  0  0  0  0  0  0
   -8.2250   13.2810   -4.9090 C   0  0  0  0  0  0  0  0  0  0  0  0
   -1.7981    2.8752   -8.0534 H   0  0  0  0  0  0  0  0  0  0  0  0
   -1.5367    5.2650   -7.6812 H   0  0  0  0  0  0  0  0  0  0  0  0
    1.3960    2.1760   -5.3570 H   0  0  0  0  0  0  0  0  0  0  0  0
    1.7640    4.4221   -3.6375 H   0  0  0  0  0  0  0  0  0  0  0  0
    2.9411    4.0284   -4.9629 H   0  0  0  0  0  0  0  0  0  0  0  0
    3.0694    6.3977   -4.0251 H   0  0  0  0  0  0  0  0  0  0  0  0
    2.8782    6.2462   -5.8136 H   0  0  0  0  0  0  0  0  0  0  0  0
    0.6443    6.8046   -3.8034 H   0  0  0  0  0  0  0  0  0  0  0  0
    1.4127    7.9996   -4.9260 H   0  0  0  0  0  0  0  0  0  0  0  0
    0.4971    6.9580   -6.8513 H   0  0  0  0  0  0  0  0  0  0  0  0
   -1.1100    8.2040   -5.6440 H   0  0  0  0  0  0  0  0  0  0  0  0
   -1.8530    6.9250   -6.3340 H   0  0  0  0  0  0  0  0  0  0  0  0
   -2.7230    6.1959   -4.4310 H   0  0  0  0  0  0  0  0  0  0  0  0
   -1.1214    6.2867   -3.6328 H   0  0  0  0  0  0  0  0  0  0  0  0
   -3.3347    8.0439   -3.3019 H   0  0  0  0  0  0  0  0  0  0  0  0
   -1.6367    8.2330   -2.6652 H   0  0  0  0  0  0  0  0  0  0  0  0
   -1.0421    9.7462   -4.2584 H   0  0  0  0  0  0  0  0  0  0  0  0
   -2.2348    9.0718   -5.4692 H   0  0  0  0  0  0  0  0  0  0  0  0
   -2.4815   11.4349   -3.9737 H   0  0  0  0  0  0  0  0  0  0  0  0
   -3.7467   10.5722   -4.9645 H   0  0  0  0  0  0  0  0  0  0  0  0
   -3.9198    9.1591   -2.6908 H   0  0  0  0  0  0  0  0  0  0  0  0
   -3.3933   10.8082   -2.0506 H   0  0  0  0  0  0  0  0  0  0  0  0
   -5.4762   11.3193   -3.8324 H   0  0  0  0  0  0  0  0  0  0  0  0
   -5.9896    9.8803   -2.8320 H   0  0  0  0  0  0  0  0  0  0  0  0
   -6.7370   11.9835   -1.8066 H   0  0  0  0  0  0  0  0  0  0  0  0
   -5.5196   11.1263   -0.7831 H   0  0  0  0  0  0  0  0  0  0  0  0
   -4.1672   12.9067   -0.8150 H   0  0  0  0  0  0  0  0  0  0  0  0
   -4.1985   12.9029   -2.6419 H   0  0  0  0  0  0  0  0  0  0  0  0
   -5.2453   14.8468   -0.8754 H   0  0  0  0  0  0  0  0  0  0  0  0
   -5.3915   14.6996   -2.7087 H   0  0  0  0  0  0  0  0  0  0  0  0
   -7.3660   13.0405   -1.5144 H   0  0  0  0  0  0  0  0  0  0  0  0
   -7.4592   14.6737   -0.7569 H   0  0  0  0  0  0  0  0  0  0  0  0
   -7.0240   14.8840   -3.5350 H   0  0  0  0  0  0  0  0  0  0  0  0
   -8.2390   15.5300   -2.6610 H   0  0  0  0  0  0  0  0  0  0  0  0
   -8.8874   12.7947   -2.9842 H   0  0  0  0  0  0  0  0  0  0  0  0
  -10.5981   14.4004   -2.6594 H   0  0  0  0  0  0  0  0  0  0  0  0
   -9.8870   15.5174   -3.9030 H   0  0  0  0  0  0  0  0  0  0  0  0
  -11.2272   12.8360   -4.4610 H   0  0  0  0  0  0  0  0  0  0  0  0
  -11.9444   14.4701   -4.7289 H   0  0  0  0  0  0  0  0  0  0  0  0
  -10.9370   13.3605   -6.7894 H   0  0  0  0  0  0  0  0  0  0  0  0
  -10.3126   15.0142   -6.3866 H   0  0  0  0  0  0  0  0  0  0  0  0
   -8.9150   13.1860   -8.1170 H   0  0  0  0  0  0  0  0  0  0  0  0
   -5.3989   11.8025   -6.2066 H   0  0  0  0  0  0  0  0  0  0  0  0
   -6.3652   12.4207   -4.0623 H   0  0  0  0  0  0  0  0  0  0  0  0
  1  2  2  0
  2  3  1  0
  3  4  2  0
  4  5  1  0
  5  6  2  0
  6  7  1  0
  6  8  1  0
  8  9  1  0
  9 10  1  0
 10 11  1  0
 11 12  1  0
 12 13  1  0
 13 14  1  0
 14 15  1  0
 15 16  1  0
 16 17  1  0
 17 18  1  0
 18 19  1  0
 19 20  1  0
 20 21  1  0
 21 22  1  0
 22 23  1  0
 23 24  1  0
 24 25  1  0
 25 26  1  0
 26 27  1  0
 27 28  1  0
 28 29  1  0
 29 30  1  0
 30 31  2  0
 30 32  1  0
 32 33  2  0
 33 34  1  0
  7  2  1  0
 34 24  1  0
 11  5  1  0
 34 28  2  0
  3 35  1  0
  4 36  1  0
  7 37  1  0
  8 38  1  0
  8 39  1  0
  9 40  1  0
  9 41  1  0
 10 42  1  0
 10 43  1  0
 11 44  1  6
 12 45  1  0
 12 46  1  0
 13 47  1  0
 13 48  1  0
 14 49  1  0
 14 50  1  0
 15 51  1  0
 15 52  1  0
 16 53  1  0
 16 54  1  0
 17 55  1  0
 17 56  1  0
 18 57  1  0
 18 58  1  0
 19 59  1  0
 19 60  1  0
 20 61  1  0
 20 62  1  0
 21 63  1  0
 21 64  1  0
 22 65  1  0
 22 66  1  0
 23 67  1  0
 23 68  1  0
 24 69  1  1
 25 70  1  0
 25 71  1  0
 26 72  1  0
 26 73  1  0
 27 74  1  0
 27 75  1  0
 29 76  1  0
 32 77  1  0
 33 78  1  0
M  CHG  2  12   1  23   1
M  END
>  <meeko>  (7) 
{"is_sidechain": [false], "free_energy": -9.82, "intermolecular_energy": -17.231, "internal_energy": -1.556}

$$$$
1h22_ligand
     RDKit          3D

 78 81  0  0  0  0  0  0  0  0999 V2000
  -13.3140   14.8230   -5.5020 O   0  0  0  0  0  0  0  0  0  0  0  0
  -12.2260   14.4270   -5.1090 C   0  0  0  0  0  0  0  0  0  0  0  0
  -11.3270   13.6460   -5.9910 C   0  0  0  0  0  0  0  0  0  0  0  0
  -10.1140   13.2820   -5.5520 C   0  0  0  0  0  0  0  0  0  0  0  0
   -9.6470   13.6590   -4.2220 C   0  0  0  0  0  0  0  0  0  0  0  0
  -10.5040   14.2930   -3.3920 C   0  0  0  0  0  0  0  0  0  0  0  0
  -11.7500   14.6620   -3.8440 N   0  0  0  0  0  0  0  0  0  0  0  0
  -10.1840   14.6160   -1.9560 C   0  0  0  0  0  0  0  0  0  0  0  0
   -8.9950   13.8050   -1.4360 C   0  0  0  0  0  0  0  0  0  0  0  0
   -7.8320   13.8630   -2.4220 C   0  0  0  0  0  0  0  0  0  0  0  0
   -8.2360   13.3040   -3.8020 C   0  0  2  0  0  0  0  0  0  0  0  0
   -7.1720   13.6990   -4.8070 N   0  0  0  0  0  0  0  0  0  0  0  0
   -6.5330   12.5990   -5.6070 C   0  0  0  0  0  0  0  0  0  0  0  0
   -6.0060   11.5330   -4.6470 C   0  0  0  0  0  0  0  0  0  0  0  0
   -4.8260   12.0230   -3.7950 C   0  0  0  0  0  0  0  0  0  0  0  0
   -3.8690   10.9040   -3.3660 C   0  0  0  0  0  0  0  0  0  0  0  0
   -2.8300   10.5550   -4.4400 C   0  0  0  0  0  0  0  0  0  0  0  0
   -2.0290    9.2700   -4.2020 C   0  0  0  0  0  0  0  0  0  0  0  0
   -2.6960    8.3120   -3.2090 C   0  0  0  0  0  0  0  0  0  0  0  0
   -2.2840    6.8620   -3.4860 C   0  0  0  0  0  0  0  0  0  0  0  0
   -1.2420    6.3210   -2.5000 C   0  0  0  0  0  0  0  0  0  0  0  0
   -0.0760    5.5530   -3.1220 C   0  0  0  0  0  0  0  0  0  0  0  0
    0.4950    6.3160   -4.2730 N   0  0  0  0  0  0  0  0  0  0  0  0
    0.6240    5.5620   -5.5820 C   0  0  1  0  0  0  0  0  0  0  0  0
    0.6420    4.0550   -5.2510 C   0  0  0  0  0  0  0  0  0  0  0  0
    0.2860    3.1950   -6.4590 C   0  0  0  0  0  0  0  0  0  0  0  0
   -1.1070    3.5490   -6.9780 C   0  0  0  0  0  0  0  0  0  0  0  0
   -1.2790    5.0350   -7.1400 C   0  0  0  0  0  0  0  0  0  0  0  0
   -2.3020    5.4470   -7.9630 N   0  0  0  0  0  0  0  0  0  0  0  0
   -2.5880    6.7550   -8.2670 C   0  0  0  0  0  0  0  0  0  0  0  0
   -3.5320    7.0880   -8.9660 O   0  0  0  0  0  0  0  0  0  0  0  0
   -1.6580    7.7550   -7.6950 C   0  0  0  0  0  0  0  0  0  0  0  0
   -0.6580    7.3560   -6.8950 C   0  0  0  0  0  0  0  0  0  0  0  0
   -0.4780    5.9490   -6.5510 C   0  0  0  0  0  0  0  0  0  0  0  0
  -11.6542   13.3658   -7.0031 H   0  0  0  0  0  0  0  0  0  0  0  0
   -9.4587   12.6883   -6.2063 H   0  0  0  0  0  0  0  0  0  0  0  0
  -12.3970   15.1530   -3.2330 H   0  0  0  0  0  0  0  0  0  0  0  0
   -9.9446   15.6868   -1.8779 H   0  0  0  0  0  0  0  0  0  0  0  0
  -11.0628   14.3587   -1.3464 H   0  0  0  0  0  0  0  0  0  0  0  0
   -8.6705   14.2185   -0.4697 H   0  0  0  0  0  0  0  0  0  0  0  0
   -9.3063   12.7567   -1.3165 H   0  0  0  0  0  0  0  0  0  0  0  0
   -7.5137   14.9094   -2.5389 H   0  0  0  0  0  0  0  0  0  0  0  0
   -7.0110   13.2474   -2.0258 H   0  0  0  0  0  0  0  0  0  0  0  0
   -8.2770   12.2063   -3.7434 H   0  0  0  0  0  0  0  0  0  0  0  0
   -7.5800   14.3920   -5.4500 H   0  0  0  0  0  0  0  0  0  0  0  0
   -6.4400   14.2060   -4.2960 H   0  0  0  0  0  0  0  0  0  0  0  0
   -7.2778   12.1525   -6.2822 H   0  0  0  0  0  0  0  0  0  0  0  0
   -5.7041   13.0054   -6.2052 H   0  0  0  0  0  0  0  0  0  0  0  0
   -6.8229   11.2323   -3.9745 H   0  0  0  0  0  0  0  0  0  0  0  0
   -5.6447   10.6914   -5.2562 H   0  0  0  0  0  0  0  0  0  0  0  0
   -4.2576   12.7607   -4.3805 H   0  0  0  0  0  0  0  0  0  0  0  0
   -5.2500   12.4535   -2.8758 H   0  0  0  0  0  0  0  0  0  0  0  0
   -3.3387   11.2261   -2.4576 H   0  0  0  0  0  0  0  0  0  0  0  0
   -4.4755   10.0030   -3.1916 H   0  0  0  0  0  0  0  0  0  0  0  0
   -3.3584   10.4504   -5.3991 H   0  0  0  0  0  0  0  0  0  0  0  0
   -2.0946   11.3728   -4.4206 H   0  0  0  0  0  0  0  0  0  0  0  0
   -1.9116    8.7492   -5.1637 H   0  0  0  0  0  0  0  0  0  0  0  0
   -1.0622    9.5656   -3.7685 H   0  0  0  0  0  0  0  0  0  0  0  0
   -2.3923    8.5837   -2.1873 H   0  0  0  0  0  0  0  0  0  0  0  0
   -3.7872    8.3944   -3.3205 H   0  0  0  0  0  0  0  0  0  0  0  0
   -3.1811    6.2282   -3.4265 H   0  0  0  0  0  0  0  0  0  0  0  0
   -1.8236    6.8426   -4.4848 H   0  0  0  0  0  0  0  0  0  0  0  0
   -0.8264    7.1751   -1.9453 H   0  0  0  0  0  0  0  0  0  0  0  0
   -1.7756    5.5955   -1.8684 H   0  0  0  0  0  0  0  0  0  0  0  0
    0.7057    5.4034   -2.3627 H   0  0  0  0  0  0  0  0  0  0  0  0
   -0.4417    4.5809   -3.4844 H   0  0  0  0  0  0  0  0  0  0  0  0
    1.4290    6.6500   -4.0080 H   0  0  0  0  0  0  0  0  0  0  0  0
   -0.0510    7.1700   -4.4540 H   0  0  0  0  0  0  0  0  0  0  0  0
    1.5601    5.8246   -6.0964 H   0  0  0  0  0  0  0  0  0  0  0  0
    1.6495    3.7804   -4.9053 H   0  0  0  0  0  0  0  0  0  0  0  0
   -0.1127    3.8716   -4.4720 H   0  0  0  0  0  0  0  0  0  0  0  0
    1.0238    3.3681   -7.2563 H   0  0  0  0  0  0  0  0  0  0  0  0
    0.2942    2.1374   -6.1568 H   0  0  0  0  0  0  0  0  0  0  0  0
   -1.2578    3.0641   -7.9538 H   0  0  0  0  0  0  0  0  0  0  0  0
   -1.8465    3.1960   -6.2442 H   0  0  0  0  0  0  0  0  0  0  0  0
   -2.9200    4.7710   -8.4020 H   0  0  0  0  0  0  0  0  0  0  0  0
   -1.7868    8.8228   -7.9256 H   0  0  0  0  0  0  0  0  0  0  0  0
    0.0400    8.1037   -6.4903 H   0  0  0  0  0  0  0  0  0  0  0  0
  1  2  2  0
  2  3  1  0
  3  4  2  0
  4  5  1  0
  5  6  2  0
  6  7  1  0
  6  8  1  0
  8  9  1  0
  9 10  1  0
 10 11  1  0
 11 12  1  0
 12 13  1  0
 13 14  1  0
 14 15  1  0
 15 16  1  0
 16 17  1  0
 17 18  1  0
 18 19  1  0
 19 20  1  0
 20 21  1  0
 21 22  1  0
 22 23  1  0
 23 24  1  0
 24 25  1  0
 25 26  1  0
 26 27  1  0
 27 28  1  0
 28 29  1  0
 29 30  1  0
 30 31  2  0
 30 32  1  0
 32 33  2  0
 33 34  1  0
  7  2  1  0
 34 24  1  0
 11  5  1  0
 34 28  2  0
  3 35  1  0
  4 36  1  0
  7 37  1  0
  8 38  1  0
  8 39  1  0
  9 40  1  0
  9 41  1  0
 10 42  1  0
 10 43  1  0
 11 44  1  1
 12 45  1  0
 12 46  1  0
 13 47  1  0
 13 48  1  0
 14 49  1  0
 14 50  1  0
 15 51  1  0
 15 52  1  0
 16 53  1  0
 16 54  1  0
 17 55  1  0
 17 56  1  0
 18 57  1  0
 18 58  1  0
 19 59  1  0
 19 60  1  0
 20 61  1  0
 20 62  1  0
 21 63  1  0
 21 64  1  0
 22 65  1  0
 22 66  1  0
 23 67  1  0
 23 68  1  0
 24 69  1  6
 25 70  1  0
 25 71  1  0
 26 72  1  0
 26 73  1  0
 27 74  1  0
 27 75  1  0
 29 76  1  0
 32 77  1  0
 33 78  1  0
M  CHG  2  12   1  23   1
M  END
>  <meeko>  (8) 
{"is_sidechain": [false], "free_energy": -9.812, "intermolecular_energy": -16.97, "internal_energy": -1.804}

$$$$
1h22_ligand
     RDKit          3D

 78 81  0  0  0  0  0  0  0  0999 V2000
   -3.7780    6.3840   -9.5600 O   0  0  0  0  0  0  0  0  0  0  0  0
   -2.8640    6.3430   -8.7490 C   0  0  0  0  0  0  0  0  0  0  0  0
   -2.2360    7.5830   -8.2350 C   0  0  0  0  0  0  0  0  0  0  0  0
   -1.2800    7.5070   -7.2980 C   0  0  0  0  0  0  0  0  0  0  0  0
   -0.8580    6.2210   -6.7520 C   0  0  0  0  0  0  0  0  0  0  0  0
   -1.3700    5.0920   -7.2870 C   0  0  0  0  0  0  0  0  0  0  0  0
   -2.3480    5.1730   -8.2520 N   0  0  0  0  0  0  0  0  0  0  0  0
   -0.9170    3.7080   -6.9010 C   0  0  0  0  0  0  0  0  0  0  0  0
    0.4290    3.7270   -6.1740 C   0  0  0  0  0  0  0  0  0  0  0  0
    0.4290    4.7780   -5.0680 C   0  0  0  0  0  0  0  0  0  0  0  0
    0.1600    6.1880   -5.6310 C   0  0  2  0  0  0  0  0  0  0  0  0
   -0.1650    7.1110   -4.4720 N   0  0  0  0  0  0  0  0  0  0  0  0
   -1.2830    6.7030   -3.5550 C   0  0  0  0  0  0  0  0  0  0  0  0
   -2.3830    7.7610   -3.6150 C   0  0  0  0  0  0  0  0  0  0  0  0
   -1.8470    9.1670   -3.9210 C   0  0  0  0  0  0  0  0  0  0  0  0
   -2.7760   10.0000   -4.8130 C   0  0  0  0  0  0  0  0  0  0  0  0
   -3.4520   11.1560   -4.0640 C   0  0  0  0  0  0  0  0  0  0  0  0
   -4.4080   10.7540   -2.9360 C   0  0  0  0  0  0  0  0  0  0  0  0
   -4.4080   11.7350   -1.7590 C   0  0  0  0  0  0  0  0  0  0  0  0
   -4.0260   13.1460   -2.2230 C   0  0  0  0  0  0  0  0  0  0  0  0
   -4.5280   14.2550   -1.2910 C   0  0  0  0  0  0  0  0  0  0  0  0
   -5.8370   14.9270   -1.7030 C   0  0  0  0  0  0  0  0  0  0  0  0
   -7.0050   14.1250   -1.2280 N   0  0  0  0  0  0  0  0  0  0  0  0
   -8.2670   14.2130   -2.0640 C   0  0  1  0  0  0  0  0  0  0  0  0
   -8.8890   15.6050   -1.8220 C   0  0  0  0  0  0  0  0  0  0  0  0
   -9.8570   16.0050   -2.9300 C   0  0  0  0  0  0  0  0  0  0  0  0
   -9.1430   16.0340   -4.2810 C   0  0  0  0  0  0  0  0  0  0  0  0
   -8.3400   14.7830   -4.5130 C   0  0  0  0  0  0  0  0  0  0  0  0
   -7.9980   14.5080   -5.8170 N   0  0  0  0  0  0  0  0  0  0  0  0
   -7.3060   13.3970   -6.2300 C   0  0  0  0  0  0  0  0  0  0  0  0
   -6.9790   13.2060   -7.3920 O   0  0  0  0  0  0  0  0  0  0  0  0
   -6.9850   12.4200   -5.1660 C   0  0  0  0  0  0  0  0  0  0  0  0
   -7.3200   12.6830   -3.8940 C   0  0  0  0  0  0  0  0  0  0  0  0
   -7.9770   13.9340   -3.5280 C   0  0  0  0  0  0  0  0  0  0  0  0
   -2.5533    8.5629   -8.6211 H   0  0  0  0  0  0  0  0  0  0  0  0
   -0.8053    8.4303   -6.9343 H   0  0  0  0  0  0  0  0  0  0  0  0
   -2.7520    4.3300   -8.6510 H   0  0  0  0  0  0  0  0  0  0  0  0
   -1.6719    3.2591   -6.2387 H   0  0  0  0  0  0  0  0  0  0  0  0
   -0.7966    3.1206   -7.8232 H   0  0  0  0  0  0  0  0  0  0  0  0
    0.6146    2.7371   -5.7316 H   0  0  0  0  0  0  0  0  0  0  0  0
    1.2189    3.9752   -6.8982 H   0  0  0  0  0  0  0  0  0  0  0  0
   -0.3549    4.5288   -4.3376 H   0  0  0  0  0  0  0  0  0  0  0  0
    1.4206    4.7790   -4.5917 H   0  0  0  0  0  0  0  0  0  0  0  0
    1.0710    6.5516   -6.1289 H   0  0  0  0  0  0  0  0  0  0  0  0
    0.6940    7.2470   -3.9200 H   0  0  0  0  0  0  0  0  0  0  0  0
   -0.3790    8.0340   -4.8660 H   0  0  0  0  0  0  0  0  0  0  0  0
   -1.6873    5.7314   -3.8752 H   0  0  0  0  0  0  0  0  0  0  0  0
   -0.9068    6.6144   -2.5251 H   0  0  0  0  0  0  0  0  0  0  0  0
   -3.0977    7.4793   -4.4023 H   0  0  0  0  0  0  0  0  0  0  0  0
   -2.8579    7.7985   -2.6235 H   0  0  0  0  0  0  0  0  0  0  0  0
   -1.7088    9.7008   -2.9692 H   0  0  0  0  0  0  0  0  0  0  0  0
   -0.9030    9.0387   -4.4709 H   0  0  0  0  0  0  0  0  0  0  0  0
   -2.1845   10.4177   -5.6410 H   0  0  0  0  0  0  0  0  0  0  0  0
   -3.5723    9.3315   -5.1721 H   0  0  0  0  0  0  0  0  0  0  0  0
   -2.6608   11.7834   -3.6277 H   0  0  0  0  0  0  0  0  0  0  0  0
   -4.0730   11.6721   -4.8110 H   0  0  0  0  0  0  0  0  0  0  0  0
   -5.4276   10.7009   -3.3455 H   0  0  0  0  0  0  0  0  0  0  0  0
   -4.0638    9.7834   -2.5494 H   0  0  0  0  0  0  0  0  0  0  0  0
   -5.4131   11.7623   -1.3128 H   0  0  0  0  0  0  0  0  0  0  0  0
   -3.6683   11.3960   -1.0188 H   0  0  0  0  0  0  0  0  0  0  0  0
   -2.9292   13.2087   -2.2791 H   0  0  0  0  0  0  0  0  0  0  0  0
   -4.5044   13.3049   -3.2007 H   0  0  0  0  0  0  0  0  0  0  0  0
   -4.6730   13.8169   -0.2925 H   0  0  0  0  0  0  0  0  0  0  0  0
   -3.7627   15.0443   -1.3260 H   0  0  0  0  0  0  0  0  0  0  0  0
   -5.8834   15.9328   -1.2600 H   0  0  0  0  0  0  0  0  0  0  0  0
   -5.8734   14.9959   -2.8002 H   0  0  0  0  0  0  0  0  0  0  0  0
   -7.2370   14.4260   -0.2740 H   0  0  0  0  0  0  0  0  0  0  0  0
   -6.7560   13.1310   -1.1390 H   0  0  0  0  0  0  0  0  0  0  0  0
   -8.9920   13.4418   -1.7647 H   0  0  0  0  0  0  0  0  0  0  0  0
   -9.4326   15.5885   -0.8658 H   0  0  0  0  0  0  0  0  0  0  0  0
   -8.0719   16.3413   -1.8060 H   0  0  0  0  0  0  0  0  0  0  0  0
  -10.6804   15.2768   -2.9715 H   0  0  0  0  0  0  0  0  0  0  0  0
  -10.2493   17.0097   -2.7137 H   0  0  0  0  0  0  0  0  0  0  0  0
   -9.8940   16.1287   -5.0791 H   0  0  0  0  0  0  0  0  0  0  0  0
   -8.4527   16.8904   -4.2857 H   0  0  0  0  0  0  0  0  0  0  0  0
   -8.2520   15.1450   -6.5670 H   0  0  0  0  0  0  0  0  0  0  0  0
   -6.4726   11.4797   -5.4177 H   0  0  0  0  0  0  0  0  0  0  0  0
   -7.0955   11.9423   -3.1124 H   0  0  0  0  0  0  0  0  0  0  0  0
  1  2  2  0
  2  3  1  0
  3  4  2  0
  4  5  1  0
  5  6  2  0
  6  7  1  0
  6  8  1  0
  8  9  1  0
  9 10  1  0
 10 11  1  0
 11 12  1  0
 12 13  1  0
 13 14  1  0
 14 15  1  0
 15 16  1  0
 16 17  1  0
 17 18  1  0
 18 19  1  0
 19 20  1  0
 20 21  1  0
 21 22  1  0
 22 23  1  0
 23 24  1  0
 24 25  1  0
 25 26  1  0
 26 27  1  0
 27 28  1  0
 28 29  1  0
 29 30  1  0
 30 31  2  0
 30 32  1  0
 32 33  2  0
 33 34  1  0
  7  2  1  0
 34 24  1  0
 11  5  1  0
 34 28  2  0
  3 35  1  0
  4 36  1  0
  7 37  1  0
  8 38  1  0
  8 39  1  0
  9 40  1  0
  9 41  1  0
 10 42  1  0
 10 43  1  0
 11 44  1  6
 12 45  1  0
 12 46  1  0
 13 47  1  0
 13 48  1  0
 14 49  1  0
 14 50  1  0
 15 51  1  0
 15 52  1  0
 16 53  1  0
 16 54  1  0
 17 55  1  0
 17 56  1  0
 18 57  1  0
 18 58  1  0
 19 59  1  0
 19 60  1  0
 20 61  1  0
 20 62  1  0
 21 63  1  0
 21 64  1  0
 22 65  1  0
 22 66  1  0
 23 67  1  0
 23 68  1  0
 24 69  1  1
 25 70  1  0
 25 71  1  0
 26 72  1  0
 26 73  1  0
 27 74  1  0
 27 75  1  0
 29 76  1  0
 32 77  1  0
 33 78  1  0
M  CHG  2  12   1  23   1
M  END
>  <meeko>  (9) 
{"is_sidechain": [false], "free_energy": -9.718, "intermolecular_energy": -16.39, "internal_energy": -2.218}

$$$$
