
     RDKit          3D

 12 13  0  0  0  0  0  0  0  0999 V2000
   14.0420  -21.4910    1.2110 O   0  0  0  0  0  0  0  0  0  0  0  0
   14.3020  -20.3810    1.6210 C   0  0  0  0  0  0  0  0  0  0  0  0
   13.8450  -19.9260    2.6910 O   0  0  0  0  0  0  0  0  0  0  0  0
   15.2320  -19.5090    0.8130 C   0  0  0  0  0  0  0  0  0  0  0  0
   15.2860  -18.1400    1.0680 C   0  0  0  0  0  0  0  0  0  0  0  0
   16.1290  -17.3230    0.3410 C   0  0  0  0  0  0  0  0  0  0  0  0
   16.9260  -17.8770   -0.6420 C   0  0  0  0  0  0  0  0  0  0  0  0
   16.8770  -19.2380   -0.9030 C   0  0  0  0  0  0  0  0  0  0  0  0
   16.0400  -20.0690   -0.1890 C   0  0  0  0  0  0  0  0  0  0  0  0
   17.7500  -19.5260   -1.9170 O   0  0  0  0  0  0  0  0  0  0  0  0
   18.3420  -18.2890   -2.2960 C   0  0  0  0  0  0  0  0  0  0  0  0
   17.8190  -17.2770   -1.4710 O   0  0  0  0  0  0  0  0  0  0  0  0
  2  1  1  0
  3  2  2  0
  4  2  1  0
  5  4  2  0
  6  5  1  0
  7  6  2  0
  8  7  1  0
  9  4  1  0
  9  8  2  0
 10  8  1  0
 11 10  1  0
 12 11  1  0
 12  7  1  0
M  CHG  1   1  -1
M  END
$$$$
