
     RDKit          3D

 30 33  0  0  0  0  0  0  0  0999 V2000
   -3.7600   -8.7000   -1.6150 C   0  0  0  0  0  0  0  0  0  0  0  0
   -2.5010   -9.1830   -2.1020 N   0  0  0  0  0  0  0  0  0  0  0  0
   -1.7510  -10.0380   -1.3640 C   0  0  0  0  0  0  0  0  0  0  0  0
   -0.5210  -10.3070   -1.7970 N   0  0  0  0  0  0  0  0  0  0  0  0
    0.2440  -11.1440   -1.0570 C   0  0  0  0  0  0  0  0  0  0  0  0
   -0.2540  -11.7010    0.1120 C   0  0  0  0  0  0  0  0  0  0  0  0
   -1.5310  -11.3870    0.5040 C   0  0  0  0  0  0  0  0  0  0  0  0
   -2.1090  -11.9230    1.7340 C   0  0  0  0  0  0  0  0  0  0  0  0
   -1.3180  -12.4270    2.7480 C   0  0  0  0  0  0  0  0  0  0  0  0
   -1.8620  -12.8800    3.9000 N   0  0  0  0  0  0  0  0  0  0  0  0
   -3.1950  -12.8590    4.1200 C   0  0  0  0  0  0  0  0  0  0  0  0
   -3.6800  -13.2760    5.2020 O   0  0  0  0  0  0  0  0  0  0  0  0
   -4.0680  -12.3620    3.1060 C   0  0  0  0  0  0  0  0  0  0  0  0
   -5.4160  -12.3720    3.4210 N   0  0  0  0  0  0  0  0  0  0  0  0
   -6.4890  -12.0350    2.6650 C   0  0  0  0  0  0  0  0  0  0  0  0
   -6.3930  -11.6820    1.5150 O   0  0  0  0  0  0  0  0  0  0  0  0
   -7.8190  -12.1280    3.3510 C   0  0  0  0  0  0  0  0  0  0  0  0
   -8.9760  -11.7640    2.6560 C   0  0  0  0  0  0  0  0  0  0  0  0
  -10.2130  -11.8310    3.2840 C   0  0  0  0  0  0  0  0  0  0  0  0
  -10.3130  -12.2620    4.5950 C   0  0  0  0  0  0  0  0  0  0  0  0
  -11.5540  -12.3400    5.2030 N   0  0  0  0  0  0  0  0  0  0  0  0
  -12.2550  -11.0880    5.4250 C   0  0  0  0  0  0  0  0  0  0  0  0
  -13.7340  -11.3100    5.7070 C   0  0  0  0  0  0  0  0  0  0  0  0
  -13.9070  -12.3250    6.8150 C   0  0  0  0  0  0  0  0  0  0  0  0
  -13.2410  -13.6210    6.4470 C   0  0  0  0  0  0  0  0  0  0  0  0
  -11.7540  -13.3870    6.2080 C   0  0  0  0  0  0  0  0  0  0  0  0
   -9.1560  -12.6270    5.2780 C   0  0  0  0  0  0  0  0  0  0  0  0
   -7.9190  -12.5580    4.6500 C   0  0  0  0  0  0  0  0  0  0  0  0
   -3.5030  -11.9000    1.9160 C   0  0  0  0  0  0  0  0  0  0  0  0
   -2.2880  -10.5540   -0.2450 N   0  0  0  0  0  0  0  0  0  0  0  0
  2  1  1  0
  3  2  1  0
  4  3  2  0
  5  4  1  0
  6  5  2  0
  7  6  1  0
  8  7  1  0
  9  8  2  0
 10  9  1  0
 11 10  1  0
 12 11  2  0
 13 11  1  0
 14 13  1  0
 15 14  1  0
 16 15  2  0
 17 15  1  0
 18 17  2  0
 19 18  1  0
 20 19  2  0
 21 20  1  0
 22 21  1  0
 23 22  1  0
 24 23  1  0
 25 24  1  0
 26 21  1  0
 26 25  1  0
 27 20  1  0
 28 27  2  0
 28 17  1  0
 29 13  2  0
 29  8  1  0
 30  7  2  0
 30  3  1  0
M  END
$$$$
