1z9g_ligand
     RDKit          3D

 31 31  0  0  0  0  0  0  0  0999 V2000
    9.5430   -0.5930    0.9670 O   0  0  0  0  0  0  0  0  0  0  0  0
    8.5830    0.1180    1.3700 C   0  0  0  0  0  0  0  0  0  0  0  0
    7.4970    0.3990    0.7730 O   0  0  0  0  0  0  0  0  0  0  0  0
    8.7570    0.7510    2.7380 C   0  0  0  0  0  0  0  0  0  0  0  0
    8.8530   -0.2480    3.8610 C   0  0  0  0  0  0  0  0  0  0  0  0
    8.1500   -1.2610    3.8860 O   0  0  0  0  0  0  0  0  0  0  0  0
    9.8390   -0.0310    4.7870 N   0  0  0  0  0  0  0  0  0  0  0  0
   10.1070   -0.9040    5.9230 C   0  0  1  0  0  0  0  0  0  0  0  0
   11.6280   -0.9640    6.1720 C   0  0  0  0  0  0  0  0  0  0  0  0
   12.1320   -2.3910    7.1950 S   0  0  0  0  0  0  0  0  0  0  0  0
    9.3430   -0.4110    7.1730 C   0  0  0  0  0  0  0  0  0  0  0  0
    8.4220   -1.4610    7.7580 C   0  0  0  0  0  0  0  0  0  0  0  0
    8.8300   -2.2440    8.8450 C   0  0  0  0  0  0  0  0  0  0  0  0
    7.9680   -3.1930    9.3970 C   0  0  0  0  0  0  0  0  0  0  0  0
    6.6930   -3.3720    8.8660 C   0  0  0  0  0  0  0  0  0  0  0  0
    6.2760   -2.5980    7.7850 C   0  0  0  0  0  0  0  0  0  0  0  0
    7.1340   -1.6440    7.2350 C   0  0  0  0  0  0  0  0  0  0  0  0
    9.6787    1.3514    2.7279 H   0  0  0  0  0  0  0  0  0  0  0  0
    7.8605    1.3601    2.9261 H   0  0  0  0  0  0  0  0  0  0  0  0
   10.3800    0.8380    4.6530 H   0  0  0  0  0  0  0  0  0  0  0  0
    9.7507   -1.9210    5.7023 H   0  0  0  0  0  0  0  0  0  0  0  0
   12.1392   -1.0321    5.2004 H   0  0  0  0  0  0  0  0  0  0  0  0
   11.9062   -0.0525    6.7214 H   0  0  0  0  0  0  0  0  0  0  0  0
   13.3670   -2.4930    6.6800 H   0  0  0  0  0  0  0  0  0  0  0  0
   10.0763   -0.1218    7.9402 H   0  0  0  0  0  0  0  0  0  0  0  0
    8.7168    0.4380    6.8614 H   0  0  0  0  0  0  0  0  0  0  0  0
    9.8370   -2.1102    9.2669 H   0  0  0  0  0  0  0  0  0  0  0  0
    8.2964   -3.8007   10.2531 H   0  0  0  0  0  0  0  0  0  0  0  0
    6.0163   -4.1232    9.2993 H   0  0  0  0  0  0  0  0  0  0  0  0
    5.2694   -2.7389    7.3644 H   0  0  0  0  0  0  0  0  0  0  0  0
    6.7973   -1.0316    6.3855 H   0  0  0  0  0  0  0  0  0  0  0  0
  1  2  2  0
  2  3  1  0
  2  4  1  0
  4  5  1  0
  5  6  2  0
  5  7  1  0
  7  8  1  0
  8  9  1  0
  9 10  1  0
  8 11  1  0
 11 12  1  0
 12 13  2  0
 13 14  1  0
 14 15  2  0
 15 16  1  0
 16 17  2  0
 17 12  1  0
  4 18  1  0
  4 19  1  0
  7 20  1  0
  8 21  1  6
  9 22  1  0
  9 23  1  0
 10 24  1  0
 11 25  1  0
 11 26  1  0
 13 27  1  0
 14 28  1  0
 15 29  1  0
 16 30  1  0
 17 31  1  0
M  CHG  1   3  -1
M  END
>  <meeko>  (1) 
{"is_sidechain": [false], "free_energy": -5.874, "intermolecular_energy": -8.106, "internal_energy": -0.566}

$$$$
1z9g_ligand
     RDKit          3D

 31 31  0  0  0  0  0  0  0  0999 V2000
   14.0630    2.2800   -0.2540 O   0  0  0  0  0  0  0  0  0  0  0  0
   12.9340    2.0000    0.2350 C   0  0  0  0  0  0  0  0  0  0  0  0
   11.9220    2.7530    0.3800 O   0  0  0  0  0  0  0  0  0  0  0  0
   12.7690    0.5810    0.7480 C   0  0  0  0  0  0  0  0  0  0  0  0
   11.3370    0.1890    1.0000 C   0  0  0  0  0  0  0  0  0  0  0  0
   10.7440   -0.5980    0.2590 O   0  0  0  0  0  0  0  0  0  0  0  0
   10.7690    0.6600    2.1540 N   0  0  0  0  0  0  0  0  0  0  0  0
    9.4090    0.3620    2.5840 C   0  0  1  0  0  0  0  0  0  0  0  0
    9.4350   -0.1550    4.0370 C   0  0  0  0  0  0  0  0  0  0  0  0
    7.8840   -0.9820    4.5330 S   0  0  0  0  0  0  0  0  0  0  0  0
    8.5110    1.6110    2.4380 C   0  0  0  0  0  0  0  0  0  0  0  0
    8.0230    1.8290    1.0210 C   0  0  0  0  0  0  0  0  0  0  0  0
    8.3720    2.9880    0.3150 C   0  0  0  0  0  0  0  0  0  0  0  0
    7.9410    3.1720   -0.9990 C   0  0  0  0  0  0  0  0  0  0  0  0
    7.1540    2.2040   -1.6200 C   0  0  0  0  0  0  0  0  0  0  0  0
    6.8020    1.0470   -0.9280 C   0  0  0  0  0  0  0  0  0  0  0  0
    7.2370    0.8570    0.3850 C   0  0  0  0  0  0  0  0  0  0  0  0
   13.1914   -0.1087    0.0024 H   0  0  0  0  0  0  0  0  0  0  0  0
   13.2911    0.5268    1.7147 H   0  0  0  0  0  0  0  0  0  0  0  0
   11.3670    1.2940    2.7070 H   0  0  0  0  0  0  0  0  0  0  0  0
    8.9812   -0.4235    1.9437 H   0  0  0  0  0  0  0  0  0  0  0  0
   10.2621   -0.8731    4.1380 H   0  0  0  0  0  0  0  0  0  0  0  0
    9.5644    0.7185    4.6930 H   0  0  0  0  0  0  0  0  0  0  0  0
    7.1820    0.1480    4.7120 H   0  0  0  0  0  0  0  0  0  0  0  0
    7.6368    1.4925    3.0951 H   0  0  0  0  0  0  0  0  0  0  0  0
    9.1180    2.4857    2.7143 H   0  0  0  0  0  0  0  0  0  0  0  0
    8.9900    3.7579    0.8001 H   0  0  0  0  0  0  0  0  0  0  0  0
    8.2231    4.0835   -1.5463 H   0  0  0  0  0  0  0  0  0  0  0  0
    6.8113    2.3531   -2.6546 H   0  0  0  0  0  0  0  0  0  0  0  0
    6.1805    0.2822   -1.4168 H   0  0  0  0  0  0  0  0  0  0  0  0
    6.9614   -0.0613    0.9243 H   0  0  0  0  0  0  0  0  0  0  0  0
  1  2  2  0
  2  3  1  0
  2  4  1  0
  4  5  1  0
  5  6  2  0
  5  7  1  0
  7  8  1  0
  8  9  1  0
  9 10  1  0
  8 11  1  0
 11 12  1  0
 12 13  2  0
 13 14  1  0
 14 15  2  0
 15 16  1  0
 16 17  2  0
 17 12  1  0
  4 18  1  0
  4 19  1  0
  7 20  1  0
  8 21  1  6
  9 22  1  0
  9 23  1  0
 10 24  1  0
 11 25  1  0
 11 26  1  0
 13 27  1  0
 14 28  1  0
 15 29  1  0
 16 30  1  0
 17 31  1  0
M  CHG  1   3  -1
M  END
>  <meeko>  (2) 
{"is_sidechain": [false], "free_energy": -5.839, "intermolecular_energy": -7.744, "internal_energy": -0.879}

$$$$
1z9g_ligand
     RDKit          3D

 31 31  0  0  0  0  0  0  0  0999 V2000
    5.0340    1.5960   -1.7430 O   0  0  0  0  0  0  0  0  0  0  0  0
    6.1030    1.5670   -1.0740 C   0  0  0  0  0  0  0  0  0  0  0  0
    7.2560    1.1760   -1.4360 O   0  0  0  0  0  0  0  0  0  0  0  0
    5.9940    2.0310    0.3670 C   0  0  0  0  0  0  0  0  0  0  0  0
    7.2810    1.9140    1.1410 C   0  0  0  0  0  0  0  0  0  0  0  0
    7.9620    2.9060    1.4150 O   0  0  0  0  0  0  0  0  0  0  0  0
    7.5940    0.6700    1.6210 N   0  0  0  0  0  0  0  0  0  0  0  0
    8.7770    0.3690    2.4170 C   0  0  1  0  0  0  0  0  0  0  0  0
    8.4080   -0.6520    3.5120 C   0  0  0  0  0  0  0  0  0  0  0  0
    9.4250   -0.4860    5.0210 S   0  0  0  0  0  0  0  0  0  0  0  0
    9.9170   -0.1520    1.5120 C   0  0  0  0  0  0  0  0  0  0  0  0
   11.1480    0.7280    1.5420 C   0  0  0  0  0  0  0  0  0  0  0  0
   11.1780    1.9400    0.8410 C   0  0  0  0  0  0  0  0  0  0  0  0
   12.3060    2.7600    0.8930 C   0  0  0  0  0  0  0  0  0  0  0  0
   13.4160    2.3770    1.6420 C   0  0  0  0  0  0  0  0  0  0  0  0
   13.3980    1.1740    2.3450 C   0  0  0  0  0  0  0  0  0  0  0  0
   12.2680    0.3540    2.3000 C   0  0  0  0  0  0  0  0  0  0  0  0
    5.6823    3.0859    0.3693 H   0  0  0  0  0  0  0  0  0  0  0  0
    5.2617    1.3753    0.8608 H   0  0  0  0  0  0  0  0  0  0  0  0
    6.9410   -0.0800    1.3460 H   0  0  0  0  0  0  0  0  0  0  0  0
    9.1399    1.2859    2.9045 H   0  0  0  0  0  0  0  0  0  0  0  0
    7.3521   -0.5070    3.7841 H   0  0  0  0  0  0  0  0  0  0  0  0
    8.5940   -1.6550    3.1005 H   0  0  0  0  0  0  0  0  0  0  0  0
   10.4450    0.1500    4.4240 H   0  0  0  0  0  0  0  0  0  0  0  0
   10.1991   -1.1602    1.8496 H   0  0  0  0  0  0  0  0  0  0  0  0
    9.5404   -0.1542    0.4785 H   0  0  0  0  0  0  0  0  0  0  0  0
   10.3061    2.2479    0.2451 H   0  0  0  0  0  0  0  0  0  0  0  0
   12.3185    3.7114    0.3410 H   0  0  0  0  0  0  0  0  0  0  0  0
   14.3055    3.0231    1.6786 H   0  0  0  0  0  0  0  0  0  0  0  0
   14.2745    0.8698    2.9360 H   0  0  0  0  0  0  0  0  0  0  0  0
   12.2561   -0.5912    2.8625 H   0  0  0  0  0  0  0  0  0  0  0  0
  1  2  2  0
  2  3  1  0
  2  4  1  0
  4  5  1  0
  5  6  2  0
  5  7  1  0
  7  8  1  0
  8  9  1  0
  9 10  1  0
  8 11  1  0
 11 12  1  0
 12 13  2  0
 13 14  1  0
 14 15  2  0
 15 16  1  0
 16 17  2  0
 17 12  1  0
  4 18  1  0
  4 19  1  0
  7 20  1  0
  8 21  1  1
  9 22  1  0
  9 23  1  0
 10 24  1  0
 11 25  1  0
 11 26  1  0
 13 27  1  0
 14 28  1  0
 15 29  1  0
 16 30  1  0
 17 31  1  0
M  CHG  1   3  -1
M  END
>  <meeko>  (3) 
{"is_sidechain": [false], "free_energy": -5.72, "intermolecular_energy": -7.671, "internal_energy": -0.789}

$$$$
1z9g_ligand
     RDKit          3D

 31 31  0  0  0  0  0  0  0  0999 V2000
    2.4660   -7.3810   10.8270 O   0  0  0  0  0  0  0  0  0  0  0  0
    3.4790   -6.7950   11.2990 C   0  0  0  0  0  0  0  0  0  0  0  0
    3.6000   -6.1860   12.4070 O   0  0  0  0  0  0  0  0  0  0  0  0
    4.7100   -6.7850   10.4120 C   0  0  0  0  0  0  0  0  0  0  0  0
    5.2060   -5.4030   10.0770 C   0  0  0  0  0  0  0  0  0  0  0  0
    4.7490   -4.7670    9.1230 O   0  0  0  0  0  0  0  0  0  0  0  0
    6.1020   -4.8470   10.9510 N   0  0  0  0  0  0  0  0  0  0  0  0
    6.6670   -3.5110   10.8110 C   0  0  1  0  0  0  0  0  0  0  0  0
    6.8120   -2.8710   12.2070 C   0  0  0  0  0  0  0  0  0  0  0  0
    5.2830   -2.9610   13.2020 S   0  0  0  0  0  0  0  0  0  0  0  0
    8.0200   -3.5720   10.0680 C   0  0  0  0  0  0  0  0  0  0  0  0
    8.0620   -2.6910    8.8370 C   0  0  0  0  0  0  0  0  0  0  0  0
    6.8930   -2.4160    8.1150 C   0  0  0  0  0  0  0  0  0  0  0  0
    6.9330   -1.5830    6.9970 C   0  0  0  0  0  0  0  0  0  0  0  0
    8.1390   -1.0190    6.5860 C   0  0  0  0  0  0  0  0  0  0  0  0
    9.3080   -1.2850    7.2970 C   0  0  0  0  0  0  0  0  0  0  0  0
    9.2700   -2.1130    8.4210 C   0  0  0  0  0  0  0  0  0  0  0  0
    5.5153   -7.3265   10.9300 H   0  0  0  0  0  0  0  0  0  0  0  0
    4.4250   -7.2622    9.4627 H   0  0  0  0  0  0  0  0  0  0  0  0
    6.3970   -5.4640   11.7240 H   0  0  0  0  0  0  0  0  0  0  0  0
    5.9929   -2.8842   10.2088 H   0  0  0  0  0  0  0  0  0  0  0  0
    7.6135   -3.3936   12.7496 H   0  0  0  0  0  0  0  0  0  0  0  0
    7.0416   -1.8059   12.0561 H   0  0  0  0  0  0  0  0  0  0  0  0
    4.7580   -4.0060   12.5440 H   0  0  0  0  0  0  0  0  0  0  0  0
    8.8131   -3.2477   10.7578 H   0  0  0  0  0  0  0  0  0  0  0  0
    8.1640   -4.6100    9.7335 H   0  0  0  0  0  0  0  0  0  0  0  0
    5.9377   -2.8599    8.4319 H   0  0  0  0  0  0  0  0  0  0  0  0
    6.0097   -1.3707    6.4381 H   0  0  0  0  0  0  0  0  0  0  0  0
    8.1685   -0.3650    5.7020 H   0  0  0  0  0  0  0  0  0  0  0  0
   10.2613   -0.8424    6.9725 H   0  0  0  0  0  0  0  0  0  0  0  0
   10.1938   -2.3131    8.9837 H   0  0  0  0  0  0  0  0  0  0  0  0
  1  2  2  0
  2  3  1  0
  2  4  1  0
  4  5  1  0
  5  6  2  0
  5  7  1  0
  7  8  1  0
  8  9  1  0
  9 10  1  0
  8 11  1  0
 11 12  1  0
 12 13  2  0
 13 14  1  0
 14 15  2  0
 15 16  1  0
 16 17  2  0
 17 12  1  0
  4 18  1  0
  4 19  1  0
  7 20  1  0
  8 21  1  6
  9 22  1  0
  9 23  1  0
 10 24  1  0
 11 25  1  0
 11 26  1  0
 13 27  1  0
 14 28  1  0
 15 29  1  0
 16 30  1  0
 17 31  1  0
M  CHG  1   3  -1
M  END
>  <meeko>  (4) 
{"is_sidechain": [false], "free_energy": -5.609, "intermolecular_energy": -7.574, "internal_energy": -0.732}

$$$$
1z9g_ligand
     RDKit          3D

 31 31  0  0  0  0  0  0  0  0999 V2000
    3.4630   -4.7500    9.8720 O   0  0  0  0  0  0  0  0  0  0  0  0
    3.2260   -5.5340   10.8310 C   0  0  0  0  0  0  0  0  0  0  0  0
    2.7380   -6.7060   10.7970 O   0  0  0  0  0  0  0  0  0  0  0  0
    3.5340   -4.9970   12.2160 C   0  0  0  0  0  0  0  0  0  0  0  0
    4.6680   -4.0050   12.2450 C   0  0  0  0  0  0  0  0  0  0  0  0
    4.4990   -2.8420   12.6190 O   0  0  0  0  0  0  0  0  0  0  0  0
    5.9120   -4.4930   11.9460 N   0  0  0  0  0  0  0  0  0  0  0  0
    7.1320   -3.6950   11.9530 C   0  0  1  0  0  0  0  0  0  0  0  0
    7.8420   -3.8610   13.3120 C   0  0  0  0  0  0  0  0  0  0  0  0
    7.6120   -2.4290   14.4220 S   0  0  0  0  0  0  0  0  0  0  0  0
    8.0490   -4.1020   10.7770 C   0  0  0  0  0  0  0  0  0  0  0  0
    7.7980   -3.2940    9.5220 C   0  0  0  0  0  0  0  0  0  0  0  0
    8.8220   -2.5300    8.9460 C   0  0  0  0  0  0  0  0  0  0  0  0
    8.5920   -1.8070    7.7750 C   0  0  0  0  0  0  0  0  0  0  0  0
    7.3370   -1.8360    7.1700 C   0  0  0  0  0  0  0  0  0  0  0  0
    6.3120   -2.5930    7.7320 C   0  0  0  0  0  0  0  0  0  0  0  0
    6.5410   -3.3220    8.9010 C   0  0  0  0  0  0  0  0  0  0  0  0
    2.6313   -4.5034   12.6053 H   0  0  0  0  0  0  0  0  0  0  0  0
    3.8429   -5.8550   12.8311 H   0  0  0  0  0  0  0  0  0  0  0  0
    5.9360   -5.4860   11.6670 H   0  0  0  0  0  0  0  0  0  0  0  0
    6.8812   -2.6324   11.8192 H   0  0  0  0  0  0  0  0  0  0  0  0
    7.4412   -4.7568   13.8090 H   0  0  0  0  0  0  0  0  0  0  0  0
    8.9197   -3.9487   13.1098 H   0  0  0  0  0  0  0  0  0  0  0  0
    6.5080   -2.9010   15.0210 H   0  0  0  0  0  0  0  0  0  0  0  0
    9.0957   -3.9577   11.0829 H   0  0  0  0  0  0  0  0  0  0  0  0
    7.8309   -5.1537   10.5394 H   0  0  0  0  0  0  0  0  0  0  0  0
    9.8140   -2.5001    9.4204 H   0  0  0  0  0  0  0  0  0  0  0  0
    9.4030   -1.2129    7.3285 H   0  0  0  0  0  0  0  0  0  0  0  0
    7.1561   -1.2616    6.2495 H   0  0  0  0  0  0  0  0  0  0  0  0
    5.3212   -2.6168    7.2548 H   0  0  0  0  0  0  0  0  0  0  0  0
    5.7295   -3.9225    9.3378 H   0  0  0  0  0  0  0  0  0  0  0  0
  1  2  2  0
  2  3  1  0
  2  4  1  0
  4  5  1  0
  5  6  2  0
  5  7  1  0
  7  8  1  0
  8  9  1  0
  9 10  1  0
  8 11  1  0
 11 12  1  0
 12 13  2  0
 13 14  1  0
 14 15  2  0
 15 16  1  0
 16 17  2  0
 17 12  1  0
  4 18  1  0
  4 19  1  0
  7 20  1  0
  8 21  1  6
  9 22  1  0
  9 23  1  0
 10 24  1  0
 11 25  1  0
 11 26  1  0
 13 27  1  0
 14 28  1  0
 15 29  1  0
 16 30  1  0
 17 31  1  0
M  CHG  1   3  -1
M  END
>  <meeko>  (5) 
{"is_sidechain": [false], "free_energy": -5.436, "intermolecular_energy": -7.41, "internal_energy": -0.658}

$$$$
1z9g_ligand
     RDKit          3D

 31 31  0  0  0  0  0  0  0  0999 V2000
    6.6290   -0.8630    7.1910 O   0  0  0  0  0  0  0  0  0  0  0  0
    7.6720   -1.3270    6.6530 C   0  0  0  0  0  0  0  0  0  0  0  0
    8.7330   -1.7470    7.2100 O   0  0  0  0  0  0  0  0  0  0  0  0
    7.6750   -1.3590    5.1360 C   0  0  0  0  0  0  0  0  0  0  0  0
    8.6370   -0.3830    4.5100 C   0  0  0  0  0  0  0  0  0  0  0  0
    9.6440    0.0030    5.1080 O   0  0  0  0  0  0  0  0  0  0  0  0
    8.3960   -0.0400    3.2070 N   0  0  0  0  0  0  0  0  0  0  0  0
    9.2320    0.8630    2.4250 C   0  0  1  0  0  0  0  0  0  0  0  0
    9.6740    0.1540    1.1290 C   0  0  0  0  0  0  0  0  0  0  0  0
   11.4880    0.0160    0.9680 S   0  0  0  0  0  0  0  0  0  0  0  0
    8.4760    2.1770    2.1280 C   0  0  0  0  0  0  0  0  0  0  0  0
    7.9370    2.2450    0.7150 C   0  0  0  0  0  0  0  0  0  0  0  0
    6.8450    1.4570    0.3270 C   0  0  0  0  0  0  0  0  0  0  0  0
    6.3360    1.5420   -0.9690 C   0  0  0  0  0  0  0  0  0  0  0  0
    6.9140    2.4110   -1.8930 C   0  0  0  0  0  0  0  0  0  0  0  0
    8.0000    3.2000   -1.5180 C   0  0  0  0  0  0  0  0  0  0  0  0
    8.5070    3.1220   -0.2200 C   0  0  0  0  0  0  0  0  0  0  0  0
    7.9492   -2.3734    4.8109 H   0  0  0  0  0  0  0  0  0  0  0  0
    6.6658   -1.0704    4.8071 H   0  0  0  0  0  0  0  0  0  0  0  0
    7.5350   -0.4400    2.8020 H   0  0  0  0  0  0  0  0  0  0  0  0
   10.1314    1.1278    3.0003 H   0  0  0  0  0  0  0  0  0  0  0  0
    9.2441   -0.8585    1.1202 H   0  0  0  0  0  0  0  0  0  0  0  0
    9.3160    0.7619    0.2851 H   0  0  0  0  0  0  0  0  0  0  0  0
   11.6110   -1.0590    1.7630 H   0  0  0  0  0  0  0  0  0  0  0  0
    7.6326    2.2619    2.8290 H   0  0  0  0  0  0  0  0  0  0  0  0
    9.1936    3.0024    2.2457 H   0  0  0  0  0  0  0  0  0  0  0  0
    6.3859    0.7664    1.0497 H   0  0  0  0  0  0  0  0  0  0  0  0
    5.4763    0.9217   -1.2625 H   0  0  0  0  0  0  0  0  0  0  0  0
    6.5139    2.4739   -2.9157 H   0  0  0  0  0  0  0  0  0  0  0  0
    8.4583    3.8853   -2.2462 H   0  0  0  0  0  0  0  0  0  0  0  0
    9.3596    3.7527    0.0720 H   0  0  0  0  0  0  0  0  0  0  0  0
  1  2  2  0
  2  3  1  0
  2  4  1  0
  4  5  1  0
  5  6  2  0
  5  7  1  0
  7  8  1  0
  8  9  1  0
  9 10  1  0
  8 11  1  0
 11 12  1  0
 12 13  2  0
 13 14  1  0
 14 15  2  0
 15 16  1  0
 16 17  2  0
 17 12  1  0
  4 18  1  0
  4 19  1  0
  7 20  1  0
  8 21  1  1
  9 22  1  0
  9 23  1  0
 10 24  1  0
 11 25  1  0
 11 26  1  0
 13 27  1  0
 14 28  1  0
 15 29  1  0
 16 30  1  0
 17 31  1  0
M  CHG  1   3  -1
M  END
>  <meeko>  (6) 
{"is_sidechain": [false], "free_energy": -5.411, "intermolecular_energy": -8.196, "internal_energy": 0.162}

$$$$
1z9g_ligand
     RDKit          3D

 31 31  0  0  0  0  0  0  0  0999 V2000
    4.3670   -4.5290   11.2420 O   0  0  0  0  0  0  0  0  0  0  0  0
    3.8460   -4.7410   10.1130 C   0  0  0  0  0  0  0  0  0  0  0  0
    2.6580   -5.0990    9.8400 O   0  0  0  0  0  0  0  0  0  0  0  0
    4.7690   -4.5800    8.9190 C   0  0  0  0  0  0  0  0  0  0  0  0
    5.5790   -3.3100    8.9440 C   0  0  0  0  0  0  0  0  0  0  0  0
    5.1120   -2.2400    8.5450 O   0  0  0  0  0  0  0  0  0  0  0  0
    6.8100   -3.3830    9.5380 N   0  0  0  0  0  0  0  0  0  0  0  0
    7.7210   -2.2550    9.6860 C   0  0  1  0  0  0  0  0  0  0  0  0
    7.9560   -1.9830   11.1860 C   0  0  0  0  0  0  0  0  0  0  0  0
    9.1010   -0.5940   11.4930 S   0  0  0  0  0  0  0  0  0  0  0  0
    9.0470   -2.5310    8.9410 C   0  0  0  0  0  0  0  0  0  0  0  0
    9.1860   -1.7340    7.6620 C   0  0  0  0  0  0  0  0  0  0  0  0
   10.4510   -1.3960    7.1640 C   0  0  0  0  0  0  0  0  0  0  0  0
   10.5740   -0.6830    5.9710 C   0  0  0  0  0  0  0  0  0  0  0  0
    9.4360   -0.2960    5.2660 C   0  0  0  0  0  0  0  0  0  0  0  0
    8.1730   -0.6270    5.7510 C   0  0  0  0  0  0  0  0  0  0  0  0
    8.0470   -1.3460    6.9420 C   0  0  0  0  0  0  0  0  0  0  0  0
    5.4626   -5.4335    8.8992 H   0  0  0  0  0  0  0  0  0  0  0  0
    4.1308   -4.5356    8.0242 H   0  0  0  0  0  0  0  0  0  0  0  0
    7.0870   -4.3260    9.8540 H   0  0  0  0  0  0  0  0  0  0  0  0
    7.2750   -1.3561    9.2355 H   0  0  0  0  0  0  0  0  0  0  0  0
    6.9888   -1.7492   11.6549 H   0  0  0  0  0  0  0  0  0  0  0  0
    8.4147   -2.8863   11.6146 H   0  0  0  0  0  0  0  0  0  0  0  0
    9.6490   -1.1160   12.6020 H   0  0  0  0  0  0  0  0  0  0  0  0
    9.8833   -2.2726    9.6072 H   0  0  0  0  0  0  0  0  0  0  0  0
    9.0535   -3.5961    8.6663 H   0  0  0  0  0  0  0  0  0  0  0  0
   11.3535   -1.6948    7.7173 H   0  0  0  0  0  0  0  0  0  0  0  0
   11.5718   -0.4257    5.5860 H   0  0  0  0  0  0  0  0  0  0  0  0
    9.5350    0.2700    4.3280 H   0  0  0  0  0  0  0  0  0  0  0  0
    7.2738   -0.3219    5.1956 H   0  0  0  0  0  0  0  0  0  0  0  0
    7.0473   -1.6096    7.3177 H   0  0  0  0  0  0  0  0  0  0  0  0
  1  2  2  0
  2  3  1  0
  2  4  1  0
  4  5  1  0
  5  6  2  0
  5  7  1  0
  7  8  1  0
  8  9  1  0
  9 10  1  0
  8 11  1  0
 11 12  1  0
 12 13  2  0
 13 14  1  0
 14 15  2  0
 15 16  1  0
 16 17  2  0
 17 12  1  0
  4 18  1  0
  4 19  1  0
  7 20  1  0
  8 21  1  6
  9 22  1  0
  9 23  1  0
 10 24  1  0
 11 25  1  0
 11 26  1  0
 13 27  1  0
 14 28  1  0
 15 29  1  0
 16 30  1  0
 17 31  1  0
M  CHG  1   3  -1
M  END
>  <meeko>  (7) 
{"is_sidechain": [false], "free_energy": -5.394, "intermolecular_energy": -7.31, "internal_energy": -0.699}

$$$$
1z9g_ligand
     RDKit          3D

 31 31  0  0  0  0  0  0  0  0999 V2000
    7.7990   -1.2350    4.1470 O   0  0  0  0  0  0  0  0  0  0  0  0
    8.4030   -1.0070    5.2300 C   0  0  0  0  0  0  0  0  0  0  0  0
    9.6540   -0.9960    5.4550 O   0  0  0  0  0  0  0  0  0  0  0  0
    7.5220   -0.7420    6.4360 C   0  0  0  0  0  0  0  0  0  0  0  0
    7.3380   -1.9420    7.3290 C   0  0  0  0  0  0  0  0  0  0  0  0
    6.5810   -2.8660    7.0190 O   0  0  0  0  0  0  0  0  0  0  0  0
    8.1380   -2.0060    8.4380 N   0  0  0  0  0  0  0  0  0  0  0  0
    8.1270   -3.1010    9.3990 C   0  0  1  0  0  0  0  0  0  0  0  0
    9.5190   -3.2210   10.0520 C   0  0  0  0  0  0  0  0  0  0  0  0
   10.7290   -2.0240    9.3880 S   0  0  0  0  0  0  0  0  0  0  0  0
    7.0190   -2.8830   10.4540 C   0  0  0  0  0  0  0  0  0  0  0  0
    5.9420   -3.9460   10.4120 C   0  0  0  0  0  0  0  0  0  0  0  0
    6.1050   -5.1560   11.0990 C   0  0  0  0  0  0  0  0  0  0  0  0
    5.0990   -6.1220   11.0780 C   0  0  0  0  0  0  0  0  0  0  0  0
    3.9220   -5.8920   10.3690 C   0  0  0  0  0  0  0  0  0  0  0  0
    3.7480   -4.6920    9.6830 C   0  0  0  0  0  0  0  0  0  0  0  0
    4.7510   -3.7200    9.7070 C   0  0  0  0  0  0  0  0  0  0  0  0
    7.9782    0.0647    7.0285 H   0  0  0  0  0  0  0  0  0  0  0  0
    6.5269   -0.4714    6.0531 H   0  0  0  0  0  0  0  0  0  0  0  0
    8.7470   -1.1850    8.5840 H   0  0  0  0  0  0  0  0  0  0  0  0
    7.9031   -4.0455    8.8815 H   0  0  0  0  0  0  0  0  0  0  0  0
    9.4142   -3.0492   11.1334 H   0  0  0  0  0  0  0  0  0  0  0  0
    9.8994   -4.2289    9.8295 H   0  0  0  0  0  0  0  0  0  0  0  0
   10.4750   -2.2810    8.0960 H   0  0  0  0  0  0  0  0  0  0  0  0
    7.4800   -2.8909   11.4527 H   0  0  0  0  0  0  0  0  0  0  0  0
    6.5379   -1.9194   10.2302 H   0  0  0  0  0  0  0  0  0  0  0  0
    7.0327   -5.3456   11.6588 H   0  0  0  0  0  0  0  0  0  0  0  0
    5.2353   -7.0679   11.6227 H   0  0  0  0  0  0  0  0  0  0  0  0
    3.1314   -6.6566   10.3509 H   0  0  0  0  0  0  0  0  0  0  0  0
    2.8197   -4.5097    9.1218 H   0  0  0  0  0  0  0  0  0  0  0  0
    4.6057   -2.7713    9.1695 H   0  0  0  0  0  0  0  0  0  0  0  0
  1  2  2  0
  2  3  1  0
  2  4  1  0
  4  5  1  0
  5  6  2  0
  5  7  1  0
  7  8  1  0
  8  9  1  0
  9 10  1  0
  8 11  1  0
 11 12  1  0
 12 13  2  0
 13 14  1  0
 14 15  2  0
 15 16  1  0
 16 17  2  0
 17 12  1  0
  4 18  1  0
  4 19  1  0
  7 20  1  0
  8 21  1  6
  9 22  1  0
  9 23  1  0
 10 24  1  0
 11 25  1  0
 11 26  1  0
 13 27  1  0
 14 28  1  0
 15 29  1  0
 16 30  1  0
 17 31  1  0
M  CHG  1   3  -1
M  END
>  <meeko>  (8) 
{"is_sidechain": [false], "free_energy": -5.309, "intermolecular_energy": -7.333, "internal_energy": -0.559}

$$$$
1z9g_ligand
     RDKit          3D

 31 31  0  0  0  0  0  0  0  0999 V2000
    7.0310    1.2870   -1.3990 O   0  0  0  0  0  0  0  0  0  0  0  0
    6.9780    2.0100   -0.3670 C   0  0  0  0  0  0  0  0  0  0  0  0
    6.1510    1.9620    0.5960 O   0  0  0  0  0  0  0  0  0  0  0  0
    8.0230    3.1070   -0.2740 C   0  0  0  0  0  0  0  0  0  0  0  0
    9.3210    2.6590    0.3450 C   0  0  0  0  0  0  0  0  0  0  0  0
   10.2730    3.4310    0.4770 O   0  0  0  0  0  0  0  0  0  0  0  0
    9.3460    1.3890    0.8570 N   0  0  0  0  0  0  0  0  0  0  0  0
   10.4980    0.7920    1.5210 C   0  0  1  0  0  0  0  0  0  0  0  0
   10.0560    0.1990    2.8740 C   0  0  0  0  0  0  0  0  0  0  0  0
    8.3820   -0.5290    2.8270 S   0  0  0  0  0  0  0  0  0  0  0  0
   11.1490   -0.2770    0.6140 C   0  0  0  0  0  0  0  0  0  0  0  0
   12.5140    0.1310    0.1010 C   0  0  0  0  0  0  0  0  0  0  0  0
   12.9790    1.4420    0.2710 C   0  0  0  0  0  0  0  0  0  0  0  0
   14.2470    1.8070   -0.1820 C   0  0  0  0  0  0  0  0  0  0  0  0
   15.0620    0.8690   -0.8120 C   0  0  0  0  0  0  0  0  0  0  0  0
   14.6110   -0.4380   -0.9850 C   0  0  0  0  0  0  0  0  0  0  0  0
   13.3440   -0.8080   -0.5280 C   0  0  0  0  0  0  0  0  0  0  0  0
    8.2316    3.4743   -1.2897 H   0  0  0  0  0  0  0  0  0  0  0  0
    7.6093    3.8890    0.3797 H   0  0  0  0  0  0  0  0  0  0  0  0
    8.4850    0.8410    0.7070 H   0  0  0  0  0  0  0  0  0  0  0  0
   11.2578    1.5642    1.7120 H   0  0  0  0  0  0  0  0  0  0  0  0
   10.7708   -0.5859    3.1620 H   0  0  0  0  0  0  0  0  0  0  0  0
   10.0337    1.0241    3.6012 H   0  0  0  0  0  0  0  0  0  0  0  0
    7.7860    0.4650    3.5030 H   0  0  0  0  0  0  0  0  0  0  0  0
   11.2555   -1.2077    1.1906 H   0  0  0  0  0  0  0  0  0  0  0  0
   10.4951   -0.4073   -0.2609 H   0  0  0  0  0  0  0  0  0  0  0  0
   12.3397    2.1885    0.7651 H   0  0  0  0  0  0  0  0  0  0  0  0
   14.6042    2.8379   -0.0414 H   0  0  0  0  0  0  0  0  0  0  0  0
   16.0599    1.1597   -1.1722 H   0  0  0  0  0  0  0  0  0  0  0  0
   15.2537   -1.1795   -1.4822 H   0  0  0  0  0  0  0  0  0  0  0  0
   12.9951   -1.8425   -0.6624 H   0  0  0  0  0  0  0  0  0  0  0  0
  1  2  2  0
  2  3  1  0
  2  4  1  0
  4  5  1  0
  5  6  2  0
  5  7  1  0
  7  8  1  0
  8  9  1  0
  9 10  1  0
  8 11  1  0
 11 12  1  0
 12 13  2  0
 13 14  1  0
 14 15  2  0
 15 16  1  0
 16 17  2  0
 17 12  1  0
  4 18  1  0
  4 19  1  0
  7 20  1  0
  8 21  1  1
  9 22  1  0
  9 23  1  0
 10 24  1  0
 11 25  1  0
 11 26  1  0
 13 27  1  0
 14 28  1  0
 15 29  1  0
 16 30  1  0
 17 31  1  0
M  CHG  1   3  -1
M  END
>  <meeko>  (9) 
{"is_sidechain": [false], "free_energy": -5.283, "intermolecular_energy": -6.961, "internal_energy": -0.894}

$$$$
