3kgp_ligand
     RDKit          3D

 20 20  0  0  0  0  0  0  0  0999 V2000
   -1.4000   -6.1230   -8.2130 N   0  0  0  0  0  0  0  0  0  0  0  0
   -2.1920   -5.7670   -9.4120 C   0  0  0  0  0  0  0  0  0  0  0  0
   -1.9400   -4.3370   -9.7560 C   0  0  0  0  0  0  0  0  0  0  0  0
   -2.4860   -3.7890  -10.9250 C   0  0  0  0  0  0  0  0  0  0  0  0
   -2.1280   -2.5040  -11.3260 C   0  0  0  0  0  0  0  0  0  0  0  0
   -1.2190   -1.7430  -10.5760 C   0  0  0  0  0  0  0  0  0  0  0  0
   -0.7910   -0.3680  -11.0450 C   0  0  0  0  0  0  0  0  0  0  0  0
    0.4480   -0.2020  -11.2660 O   0  0  0  0  0  0  0  0  0  0  0  0
   -1.7050    0.5050  -11.1570 O   0  0  0  0  0  0  0  0  0  0  0  0
   -0.7040   -2.2880   -9.3910 C   0  0  0  0  0  0  0  0  0  0  0  0
   -1.0570   -3.5720   -8.9820 C   0  0  0  0  0  0  0  0  0  0  0  0
   -0.3950   -6.1540   -8.3980 H   0  0  0  0  0  0  0  0  0  0  0  0
   -1.5890   -5.4460   -7.4630 H   0  0  0  0  0  0  0  0  0  0  0  0
   -1.7100   -7.0350   -7.8550 H   0  0  0  0  0  0  0  0  0  0  0  0
   -1.8923   -6.4071  -10.2549 H   0  0  0  0  0  0  0  0  0  0  0  0
   -3.2624   -5.9161   -9.2071 H   0  0  0  0  0  0  0  0  0  0  0  0
   -3.1976   -4.3741  -11.5260 H   0  0  0  0  0  0  0  0  0  0  0  0
   -2.5638   -2.0804  -12.2428 H   0  0  0  0  0  0  0  0  0  0  0  0
   -0.0120   -1.6937   -8.7762 H   0  0  0  0  0  0  0  0  0  0  0  0
   -0.6424   -3.9857   -8.0509 H   0  0  0  0  0  0  0  0  0  0  0  0
  1  2  1  0
  2  3  1  0
  3  4  2  0
  4  5  1  0
  5  6  2  0
  6  7  1  0
  7  8  2  0
  7  9  1  0
  6 10  1  0
 10 11  2  0
 11  3  1  0
  1 12  1  0
  1 13  1  0
  1 14  1  0
  2 15  1  0
  2 16  1  0
  4 17  1  0
  5 18  1  0
 10 19  1  0
 11 20  1  0
M  CHG  2   1   1   9  -1
M  END
>  <meeko>  (1) 
{"is_sidechain": [false], "free_energy": -5.013, "intermolecular_energy": -5.746, "internal_energy": -0.072}

$$$$
3kgp_ligand
     RDKit          3D

 20 20  0  0  0  0  0  0  0  0999 V2000
    1.2590    0.0380  -10.4050 N   0  0  0  0  0  0  0  0  0  0  0  0
    0.8340   -0.7610  -11.5760 C   0  0  0  0  0  0  0  0  0  0  0  0
   -0.0790   -1.8490  -11.1190 C   0  0  0  0  0  0  0  0  0  0  0  0
   -0.2940   -2.0580   -9.7500 C   0  0  0  0  0  0  0  0  0  0  0  0
   -1.0210   -3.1650   -9.3190 C   0  0  0  0  0  0  0  0  0  0  0  0
   -1.5440   -4.0850  -10.2400 C   0  0  0  0  0  0  0  0  0  0  0  0
   -2.2870   -5.3160   -9.7640 C   0  0  0  0  0  0  0  0  0  0  0  0
   -3.4340   -5.5180  -10.2680 O   0  0  0  0  0  0  0  0  0  0  0  0
   -1.7070   -6.0280   -8.8890 O   0  0  0  0  0  0  0  0  0  0  0  0
   -1.3510   -3.8490  -11.6080 C   0  0  0  0  0  0  0  0  0  0  0  0
   -0.6240   -2.7450  -12.0490 C   0  0  0  0  0  0  0  0  0  0  0  0
    1.7820   -0.5120   -9.7190 H   0  0  0  0  0  0  0  0  0  0  0  0
    1.8360    0.8280  -10.7190 H   0  0  0  0  0  0  0  0  0  0  0  0
    0.4340    0.4520   -9.9530 H   0  0  0  0  0  0  0  0  0  0  0  0
    0.3062   -0.1136  -12.2918 H   0  0  0  0  0  0  0  0  0  0  0  0
    1.7162   -1.1988  -12.0660 H   0  0  0  0  0  0  0  0  0  0  0  0
    0.1118   -1.3471   -9.0152 H   0  0  0  0  0  0  0  0  0  0  0  0
   -1.1872   -3.3199   -8.2427 H   0  0  0  0  0  0  0  0  0  0  0  0
   -1.7795   -4.5452  -12.3440 H   0  0  0  0  0  0  0  0  0  0  0  0
   -0.4779   -2.5768  -13.1262 H   0  0  0  0  0  0  0  0  0  0  0  0
  1  2  1  0
  2  3  1  0
  3  4  2  0
  4  5  1  0
  5  6  2  0
  6  7  1  0
  7  8  2  0
  7  9  1  0
  6 10  1  0
 10 11  2  0
 11  3  1  0
  1 12  1  0
  1 13  1  0
  1 14  1  0
  2 15  1  0
  2 16  1  0
  4 17  1  0
  5 18  1  0
 10 19  1  0
 11 20  1  0
M  CHG  2   1   1   9  -1
M  END
>  <meeko>  (2) 
{"is_sidechain": [false], "free_energy": -4.779, "intermolecular_energy": -5.476, "internal_energy": -0.073}

$$$$
3kgp_ligand
     RDKit          3D

 20 20  0  0  0  0  0  0  0  0999 V2000
   -4.4950    6.9240   -9.6120 N   0  0  0  0  0  0  0  0  0  0  0  0
   -3.4460    6.6390  -10.6170 C   0  0  0  0  0  0  0  0  0  0  0  0
   -2.3460    7.6370  -10.4710 C   0  0  0  0  0  0  0  0  0  0  0  0
   -2.6340    9.0080  -10.4960 C   0  0  0  0  0  0  0  0  0  0  0  0
   -1.5970    9.9390  -10.5150 C   0  0  0  0  0  0  0  0  0  0  0  0
   -0.2580    9.5220  -10.5120 C   0  0  0  0  0  0  0  0  0  0  0  0
    0.8660   10.5360  -10.5870 C   0  0  0  0  0  0  0  0  0  0  0  0
    1.8830   10.2070  -11.2720 O   0  0  0  0  0  0  0  0  0  0  0  0
    0.7010   11.6160   -9.9430 O   0  0  0  0  0  0  0  0  0  0  0  0
    0.0190    8.1490  -10.4540 C   0  0  0  0  0  0  0  0  0  0  0  0
   -1.0110    7.2120  -10.4360 C   0  0  0  0  0  0  0  0  0  0  0  0
   -4.1380    6.9130   -8.6540 H   0  0  0  0  0  0  0  0  0  0  0  0
   -4.9180    7.8400   -9.8080 H   0  0  0  0  0  0  0  0  0  0  0  0
   -5.2530    6.2370   -9.7030 H   0  0  0  0  0  0  0  0  0  0  0  0
   -3.0480    5.6261  -10.4570 H   0  0  0  0  0  0  0  0  0  0  0  0
   -3.8740    6.7044  -11.6282 H   0  0  0  0  0  0  0  0  0  0  0  0
   -3.6795    9.3499  -10.5006 H   0  0  0  0  0  0  0  0  0  0  0  0
   -1.8316   11.0136  -10.5326 H   0  0  0  0  0  0  0  0  0  0  0  0
    1.0641    7.8072  -10.4223 H   0  0  0  0  0  0  0  0  0  0  0  0
   -0.7767    6.1380  -10.3943 H   0  0  0  0  0  0  0  0  0  0  0  0
  1  2  1  0
  2  3  1  0
  3  4  2  0
  4  5  1  0
  5  6  2  0
  6  7  1  0
  7  8  2  0
  7  9  1  0
  6 10  1  0
 10 11  2  0
 11  3  1  0
  1 12  1  0
  1 13  1  0
  1 14  1  0
  2 15  1  0
  2 16  1  0
  4 17  1  0
  5 18  1  0
 10 19  1  0
 11 20  1  0
M  CHG  2   1   1   9  -1
M  END
>  <meeko>  (3) 
{"is_sidechain": [false], "free_energy": -4.651, "intermolecular_energy": -5.336, "internal_energy": -0.066}

$$$$
3kgp_ligand
     RDKit          3D

 20 20  0  0  0  0  0  0  0  0999 V2000
   -4.4680    6.9270   -9.6710 N   0  0  0  0  0  0  0  0  0  0  0  0
   -3.3300    6.3820  -10.4450 C   0  0  0  0  0  0  0  0  0  0  0  0
   -2.2740    7.4300  -10.5650 C   0  0  0  0  0  0  0  0  0  0  0  0
   -0.9200    7.0680  -10.5480 C   0  0  0  0  0  0  0  0  0  0  0  0
    0.0640    8.0530  -10.5060 C   0  0  0  0  0  0  0  0  0  0  0  0
   -0.2800    9.4130  -10.4760 C   0  0  0  0  0  0  0  0  0  0  0  0
    0.7930   10.4780  -10.3750 C   0  0  0  0  0  0  0  0  0  0  0  0
    1.9030   10.2230  -10.9340 O   0  0  0  0  0  0  0  0  0  0  0  0
    0.4940   11.5250   -9.7230 O   0  0  0  0  0  0  0  0  0  0  0  0
   -1.6360    9.7640  -10.5270 C   0  0  0  0  0  0  0  0  0  0  0  0
   -2.6270    8.7860  -10.5690 C   0  0  0  0  0  0  0  0  0  0  0  0
   -4.2050    7.2010   -8.7210 H   0  0  0  0  0  0  0  0  0  0  0  0
   -4.8600    7.7390  -10.1640 H   0  0  0  0  0  0  0  0  0  0  0  0
   -5.2210    6.2300   -9.6290 H   0  0  0  0  0  0  0  0  0  0  0  0
   -2.9193    5.5030   -9.9266 H   0  0  0  0  0  0  0  0  0  0  0  0
   -3.6722    6.0845  -11.4472 H   0  0  0  0  0  0  0  0  0  0  0  0
   -0.6344    6.0059  -10.5678 H   0  0  0  0  0  0  0  0  0  0  0  0
    1.1245    7.7609  -10.4962 H   0  0  0  0  0  0  0  0  0  0  0  0
   -1.9215   10.8263  -10.5340 H   0  0  0  0  0  0  0  0  0  0  0  0
   -3.6868    9.0782  -10.6053 H   0  0  0  0  0  0  0  0  0  0  0  0
  1  2  1  0
  2  3  1  0
  3  4  2  0
  4  5  1  0
  5  6  2  0
  6  7  1  0
  7  8  2  0
  7  9  1  0
  6 10  1  0
 10 11  2  0
 11  3  1  0
  1 12  1  0
  1 13  1  0
  1 14  1  0
  2 15  1  0
  2 16  1  0
  4 17  1  0
  5 18  1  0
 10 19  1  0
 11 20  1  0
M  CHG  2   1   1   9  -1
M  END
>  <meeko>  (4) 
{"is_sidechain": [false], "free_energy": -4.539, "intermolecular_energy": -5.198, "internal_energy": -0.076}

$$$$
3kgp_ligand
     RDKit          3D

 20 20  0  0  0  0  0  0  0  0999 V2000
    4.2010    8.7400  -10.8040 N   0  0  0  0  0  0  0  0  0  0  0  0
    3.4080    9.9900  -10.8050 C   0  0  0  0  0  0  0  0  0  0  0  0
    1.9580    9.6480  -10.8750 C   0  0  0  0  0  0  0  0  0  0  0  0
    0.9940   10.5960  -10.5040 C   0  0  0  0  0  0  0  0  0  0  0  0
   -0.3480   10.2320  -10.4220 C   0  0  0  0  0  0  0  0  0  0  0  0
   -0.7550    8.9190  -10.7030 C   0  0  0  0  0  0  0  0  0  0  0  0
   -2.2080    8.5130  -10.5600 C   0  0  0  0  0  0  0  0  0  0  0  0
   -2.4360    7.2850  -10.3380 O   0  0  0  0  0  0  0  0  0  0  0  0
   -3.0700    9.4330  -10.6940 O   0  0  0  0  0  0  0  0  0  0  0  0
    0.2130    7.9870  -11.1050 C   0  0  0  0  0  0  0  0  0  0  0  0
    1.5570    8.3430  -11.1900 C   0  0  0  0  0  0  0  0  0  0  0  0
    4.5840    8.5150   -9.8820 H   0  0  0  0  0  0  0  0  0  0  0  0
    3.6140    7.9610  -11.1290 H   0  0  0  0  0  0  0  0  0  0  0  0
    4.9680    8.8190  -11.4830 H   0  0  0  0  0  0  0  0  0  0  0  0
    3.6092   10.5546   -9.8826 H   0  0  0  0  0  0  0  0  0  0  0  0
    3.6861   10.6046  -11.6738 H   0  0  0  0  0  0  0  0  0  0  0  0
    1.2979   11.6286  -10.2774 H   0  0  0  0  0  0  0  0  0  0  0  0
   -1.0979   10.9832  -10.1334 H   0  0  0  0  0  0  0  0  0  0  0  0
   -0.0934    6.9609  -11.3566 H   0  0  0  0  0  0  0  0  0  0  0  0
    2.3039    7.5992  -11.5046 H   0  0  0  0  0  0  0  0  0  0  0  0
  1  2  1  0
  2  3  1  0
  3  4  2  0
  4  5  1  0
  5  6  2  0
  6  7  1  0
  7  8  2  0
  7  9  1  0
  6 10  1  0
 10 11  2  0
 11  3  1  0
  1 12  1  0
  1 13  1  0
  1 14  1  0
  2 15  1  0
  2 16  1  0
  4 17  1  0
  5 18  1  0
 10 19  1  0
 11 20  1  0
M  CHG  2   1   1   9  -1
M  END
>  <meeko>  (5) 
{"is_sidechain": [false], "free_energy": -4.486, "intermolecular_energy": -5.135, "internal_energy": -0.079}

$$$$
3kgp_ligand
     RDKit          3D

 20 20  0  0  0  0  0  0  0  0999 V2000
    1.5210   11.3690   -9.0490 N   0  0  0  0  0  0  0  0  0  0  0  0
    0.4660   11.6160  -10.0580 C   0  0  0  0  0  0  0  0  0  0  0  0
   -0.2140   10.3270  -10.3780 C   0  0  0  0  0  0  0  0  0  0  0  0
   -1.6140   10.2540  -10.3790 C   0  0  0  0  0  0  0  0  0  0  0  0
   -2.2480    9.0220  -10.5250 C   0  0  0  0  0  0  0  0  0  0  0  0
   -1.5030    7.8420  -10.6680 C   0  0  0  0  0  0  0  0  0  0  0  0
   -2.1960    6.4990  -10.7720 C   0  0  0  0  0  0  0  0  0  0  0  0
   -3.4270    6.4690  -10.4680 O   0  0  0  0  0  0  0  0  0  0  0  0
   -1.4790    5.5170  -11.1350 O   0  0  0  0  0  0  0  0  0  0  0  0
   -0.1040    7.9310  -10.6980 C   0  0  0  0  0  0  0  0  0  0  0  0
    0.5390    9.1580  -10.5520 C   0  0  0  0  0  0  0  0  0  0  0  0
    1.3310   10.5460   -8.4720 H   0  0  0  0  0  0  0  0  0  0  0  0
    2.4270   11.2550   -9.5200 H   0  0  0  0  0  0  0  0  0  0  0  0
    1.6170   12.1940   -8.4440 H   0  0  0  0  0  0  0  0  0  0  0  0
   -0.2680   12.3301   -9.6564 H   0  0  0  0  0  0  0  0  0  0  0  0
    0.9161   12.0344  -10.9704 H   0  0  0  0  0  0  0  0  0  0  0  0
   -2.2123   11.1699  -10.2644 H   0  0  0  0  0  0  0  0  0  0  0  0
   -3.3469    8.9740  -10.5282 H   0  0  0  0  0  0  0  0  0  0  0  0
    0.4943    7.0188  -10.8389 H   0  0  0  0  0  0  0  0  0  0  0  0
    1.6376    9.2093  -10.5733 H   0  0  0  0  0  0  0  0  0  0  0  0
  1  2  1  0
  2  3  1  0
  3  4  2  0
  4  5  1  0
  5  6  2  0
  6  7  1  0
  7  8  2  0
  7  9  1  0
  6 10  1  0
 10 11  2  0
 11  3  1  0
  1 12  1  0
  1 13  1  0
  1 14  1  0
  2 15  1  0
  2 16  1  0
  4 17  1  0
  5 18  1  0
 10 19  1  0
 11 20  1  0
M  CHG  2   1   1   9  -1
M  END
>  <meeko>  (6) 
{"is_sidechain": [false], "free_energy": -4.446, "intermolecular_energy": -5.09, "internal_energy": -0.077}

$$$$
3kgp_ligand
     RDKit          3D

 20 20  0  0  0  0  0  0  0  0999 V2000
    3.3110    6.3450  -12.5320 N   0  0  0  0  0  0  0  0  0  0  0  0
    1.9530    6.2420  -11.9510 C   0  0  0  0  0  0  0  0  0  0  0  0
    1.4830    7.6040  -11.5620 C   0  0  0  0  0  0  0  0  0  0  0  0
    2.4000    8.6590  -11.4540 C   0  0  0  0  0  0  0  0  0  0  0  0
    1.9910    9.8890  -10.9450 C   0  0  0  0  0  0  0  0  0  0  0  0
    0.6660   10.0910  -10.5310 C   0  0  0  0  0  0  0  0  0  0  0  0
    0.2380   11.4140   -9.9270 C   0  0  0  0  0  0  0  0  0  0  0  0
   -0.9170   11.8350  -10.2410 O   0  0  0  0  0  0  0  0  0  0  0  0
    1.0800   11.9940   -9.1760 O   0  0  0  0  0  0  0  0  0  0  0  0
   -0.2510    9.0400  -10.6740 C   0  0  0  0  0  0  0  0  0  0  0  0
    0.1500    7.8060  -11.1820 C   0  0  0  0  0  0  0  0  0  0  0  0
    3.5640    5.5270  -13.0920 H   0  0  0  0  0  0  0  0  0  0  0  0
    3.3720    7.1900  -13.1130 H   0  0  0  0  0  0  0  0  0  0  0  0
    3.9980    6.4690  -11.7780 H   0  0  0  0  0  0  0  0  0  0  0  0
    1.2655    5.8139  -12.6954 H   0  0  0  0  0  0  0  0  0  0  0  0
    1.9780    5.5916  -11.0643 H   0  0  0  0  0  0  0  0  0  0  0  0
    3.4433    8.5151  -11.7716 H   0  0  0  0  0  0  0  0  0  0  0  0
    2.7160   10.7125  -10.8666 H   0  0  0  0  0  0  0  0  0  0  0  0
   -1.3005    9.1916  -10.3814 H   0  0  0  0  0  0  0  0  0  0  0  0
   -0.5806    6.9901  -11.2847 H   0  0  0  0  0  0  0  0  0  0  0  0
  1  2  1  0
  2  3  1  0
  3  4  2  0
  4  5  1  0
  5  6  2  0
  6  7  1  0
  7  8  2  0
  7  9  1  0
  6 10  1  0
 10 11  2  0
 11  3  1  0
  1 12  1  0
  1 13  1  0
  1 14  1  0
  2 15  1  0
  2 16  1  0
  4 17  1  0
  5 18  1  0
 10 19  1  0
 11 20  1  0
M  CHG  2   1   1   9  -1
M  END
>  <meeko>  (7) 
{"is_sidechain": [false], "free_energy": -4.424, "intermolecular_energy": -5.068, "internal_energy": -0.075}

$$$$
3kgp_ligand
     RDKit          3D

 20 20  0  0  0  0  0  0  0  0999 V2000
    1.5950   11.3660   -9.1750 N   0  0  0  0  0  0  0  0  0  0  0  0
    1.3960   10.6550  -10.4590 C   0  0  0  0  0  0  0  0  0  0  0  0
    0.1340    9.8630  -10.3880 C   0  0  0  0  0  0  0  0  0  0  0  0
    0.1790    8.4640  -10.4580 C   0  0  0  0  0  0  0  0  0  0  0  0
   -1.0030    7.7320  -10.5470 C   0  0  0  0  0  0  0  0  0  0  0  0
   -2.2490    8.3770  -10.5710 C   0  0  0  0  0  0  0  0  0  0  0  0
   -3.5280    7.5800  -10.7220 C   0  0  0  0  0  0  0  0  0  0  0  0
   -4.5460    8.2140  -11.1380 O   0  0  0  0  0  0  0  0  0  0  0  0
   -3.4760    6.3540  -10.4010 O   0  0  0  0  0  0  0  0  0  0  0  0
   -2.2830    9.7750  -10.4670 C   0  0  0  0  0  0  0  0  0  0  0  0
   -1.1060   10.5150  -10.3790 C   0  0  0  0  0  0  0  0  0  0  0  0
    0.8810   11.1330   -8.4800 H   0  0  0  0  0  0  0  0  0  0  0  0
    2.5240   11.1410   -8.7990 H   0  0  0  0  0  0  0  0  0  0  0  0
    1.5940   12.3800   -9.3400 H   0  0  0  0  0  0  0  0  0  0  0  0
    1.3265   11.3861  -11.2779 H   0  0  0  0  0  0  0  0  0  0  0  0
    2.2459    9.9820  -10.6454 H   0  0  0  0  0  0  0  0  0  0  0  0
    1.1480    7.9437  -10.4427 H   0  0  0  0  0  0  0  0  0  0  0  0
   -0.9590    6.6341  -10.5991 H   0  0  0  0  0  0  0  0  0  0  0  0
   -3.2525   10.2945  -10.4547 H   0  0  0  0  0  0  0  0  0  0  0  0
   -1.1502   11.6114  -10.3024 H   0  0  0  0  0  0  0  0  0  0  0  0
  1  2  1  0
  2  3  1  0
  3  4  2  0
  4  5  1  0
  5  6  2  0
  6  7  1  0
  7  8  2  0
  7  9  1  0
  6 10  1  0
 10 11  2  0
 11  3  1  0
  1 12  1  0
  1 13  1  0
  1 14  1  0
  2 15  1  0
  2 16  1  0
  4 17  1  0
  5 18  1  0
 10 19  1  0
 11 20  1  0
M  CHG  2   1   1   9  -1
M  END
>  <meeko>  (8) 
{"is_sidechain": [false], "free_energy": -4.272, "intermolecular_energy": -4.903, "internal_energy": -0.065}

$$$$
3kgp_ligand
     RDKit          3D

 20 20  0  0  0  0  0  0  0  0999 V2000
   -2.5170   -5.6320   -8.9160 N   0  0  0  0  0  0  0  0  0  0  0  0
   -2.1810   -4.2200   -8.6230 C   0  0  0  0  0  0  0  0  0  0  0  0
   -1.4740   -3.6330   -9.7980 C   0  0  0  0  0  0  0  0  0  0  0  0
   -0.6360   -2.5220   -9.6300 C   0  0  0  0  0  0  0  0  0  0  0  0
   -0.0980   -1.8790  -10.7430 C   0  0  0  0  0  0  0  0  0  0  0  0
   -0.3880   -2.3260  -12.0410 C   0  0  0  0  0  0  0  0  0  0  0  0
    0.1550   -1.5910  -13.2500 C   0  0  0  0  0  0  0  0  0  0  0  0
   -0.3060   -1.9380  -14.3800 O   0  0  0  0  0  0  0  0  0  0  0  0
    1.0360   -0.7060  -13.0280 O   0  0  0  0  0  0  0  0  0  0  0  0
   -1.2010   -3.4570  -12.1960 C   0  0  0  0  0  0  0  0  0  0  0  0
   -1.7430   -4.1060  -11.0890 C   0  0  0  0  0  0  0  0  0  0  0  0
   -1.8550   -6.2910   -8.4970 H   0  0  0  0  0  0  0  0  0  0  0  0
   -3.4640   -5.8370   -8.5750 H   0  0  0  0  0  0  0  0  0  0  0  0
   -2.5440   -5.7750   -9.9320 H   0  0  0  0  0  0  0  0  0  0  0  0
   -3.1041   -3.6544   -8.4282 H   0  0  0  0  0  0  0  0  0  0  0  0
   -1.5317   -4.1697   -7.7365 H   0  0  0  0  0  0  0  0  0  0  0  0
   -0.4029   -2.1574   -8.6187 H   0  0  0  0  0  0  0  0  0  0  0  0
    0.5621   -1.0104  -10.6023 H   0  0  0  0  0  0  0  0  0  0  0  0
   -1.4141   -3.8375  -13.2059 H   0  0  0  0  0  0  0  0  0  0  0  0
   -2.3824   -4.9901  -11.2285 H   0  0  0  0  0  0  0  0  0  0  0  0
  1  2  1  0
  2  3  1  0
  3  4  2  0
  4  5  1  0
  5  6  2  0
  6  7  1  0
  7  8  2  0
  7  9  1  0
  6 10  1  0
 10 11  2  0
 11  3  1  0
  1 12  1  0
  1 13  1  0
  1 14  1  0
  2 15  1  0
  2 16  1  0
  4 17  1  0
  5 18  1  0
 10 19  1  0
 11 20  1  0
M  CHG  2   1   1   9  -1
M  END
>  <meeko>  (9) 
{"is_sidechain": [false], "free_energy": -4.268, "intermolecular_energy": -4.888, "internal_energy": -0.076}

$$$$
