
     RDKit          3D

 31 33  0  0  0  0  0  0  0  0999 V2000
   -0.9970    8.0740    8.7920 O   0  0  0  0  0  0  0  0  0  0  0  0
   -1.3000    7.1430    8.0590 C   0  0  0  0  0  0  0  0  0  0  0  0
   -0.4090    6.2260    7.6950 N   0  0  0  0  0  0  0  0  0  0  0  0
    0.9630    6.1950    8.1400 C   0  0  0  0  0  0  0  0  0  0  0  0
    1.4500    4.7620    8.0760 C   0  0  0  0  0  0  0  0  0  0  0  0
    2.6130    4.4990    8.6360 C   0  0  0  0  0  0  0  0  0  0  0  0
    3.0990    3.0790    8.6170 C   0  0  1  0  0  0  0  0  0  0  0  0
    4.3320    3.0600    7.9290 O   0  0  0  0  0  0  0  0  0  0  0  0
    5.3320    2.6230    8.8070 C   0  0  1  0  0  0  0  0  0  0  0  0
    6.5630    3.2430    8.3760 N   0  0  0  0  0  0  0  0  0  0  0  0
    7.4600    2.4880    7.6950 C   0  0  0  0  0  0  0  0  0  0  0  0
    8.6730    3.0230    7.2760 C   0  0  0  0  0  0  0  0  0  0  0  0
    8.9710    4.3750    7.5360 C   0  0  0  0  0  0  0  0  0  0  0  0
   10.0790    4.8860    7.1620 O   0  0  0  0  0  0  0  0  0  0  0  0
    8.0000    5.1410    8.2210 C   0  0  0  0  0  0  0  0  0  0  0  0
    6.8040    4.5550    8.6180 C   0  0  0  0  0  0  0  0  0  0  0  0
    4.8170    2.9730   10.1810 C   0  0  2  0  0  0  0  0  0  0  0  0
    5.4710    2.2660   11.2160 O   0  0  0  0  0  0  0  0  0  0  0  0
    3.3630    2.5900   10.0430 C   0  0  2  0  0  0  0  0  0  0  0  0
    3.1850    1.1760   10.1380 O   0  0  0  0  0  0  0  0  0  0  0  0
   -2.6810    6.9720    7.5480 C   0  0  0  0  0  0  0  0  0  0  0  0
   -3.6610    7.7700    8.0950 C   0  0  0  0  0  0  0  0  0  0  0  0
   -4.9750    7.6310    7.6720 C   0  0  0  0  0  0  0  0  0  0  0  0
   -5.9540    8.4470    8.2350 N   0  0  0  0  0  0  0  0  0  0  0  0
   -7.1550    8.3320    7.8700 O   0  0  0  0  0  0  0  0  0  0  0  0
   -5.6130    9.3060    9.1220 O   0  0  0  0  0  0  0  0  0  0  0  0
   -5.3190    6.7070    6.7070 C   0  0  0  0  0  0  0  0  0  0  0  0
   -4.3440    5.8950    6.1530 C   0  0  0  0  0  0  0  0  0  0  0  0
   -4.6560    4.9660    5.1980 O   0  0  0  0  0  0  0  0  0  0  0  0
   -3.0210    6.0330    6.5720 C   0  0  0  0  0  0  0  0  0  0  0  0
   -2.0930    5.2300    6.0140 O   0  0  0  0  0  0  0  0  0  0  0  0
  2  1  2  0
  3  2  1  0
  4  3  1  0
  5  4  1  0
  6  5  2  3
  7  6  1  1
  8  7  1  0
  9  8  1  0
  9 10  1  6
 11 10  1  0
 12 11  2  0
 13 12  1  0
 14 13  2  0
 15 13  1  0
 16 15  2  0
 16 10  1  0
 17  9  1  0
 17 18  1  1
 19 17  1  0
 19  7  1  0
 19 20  1  6
 21  2  1  0
 22 21  2  0
 23 22  1  0
 24 23  1  0
 25 24  2  0
 26 24  1  0
 27 23  2  0
 28 27  1  0
 29 28  1  0
 30 28  2  0
 30 21  1  0
 31 30  1  0
M  CHG  2  24   1  26  -1
M  END
$$$$
