
     RDKit          3D

 13 13  0  0  0  0  0  0  0  0999 V2000
   -8.1650   -2.2360   -2.6010 O   0  0  0  0  0  0  0  0  0  0  0  0
   -7.2390   -3.0560   -3.2830 C   0  0  0  0  0  0  0  0  0  0  0  0
   -5.8660   -2.9160   -2.6140 C   0  0  1  0  0  0  0  0  0  0  0  0
   -5.5260   -1.5190   -2.5560 N   0  0  0  0  0  0  0  0  0  0  0  0
   -4.7110   -0.9960   -1.6100 C   0  0  0  0  0  0  0  0  0  0  0  0
   -4.4590    0.2940   -1.6620 N   0  0  0  0  0  0  0  0  0  0  0  0
   -5.0060    1.0540   -2.6400 O   0  0  0  0  0  0  0  0  0  0  0  0
   -4.1700   -1.8170   -0.4520 C   0  0  2  0  0  0  0  0  0  0  0  0
   -2.7990   -1.5540   -0.2690 O   0  0  0  0  0  0  0  0  0  0  0  0
   -4.4150   -3.2950   -0.6510 C   0  0  1  0  0  0  0  0  0  0  0  0
   -4.2430   -3.9760    0.5990 O   0  0  0  0  0  0  0  0  0  0  0  0
   -5.7990   -3.5430   -1.2280 C   0  0  2  0  0  0  0  0  0  0  0  0
   -6.1050   -4.9100   -1.3140 O   0  0  0  0  0  0  0  0  0  0  0  0
  2  1  1  0
  3  2  1  1
  4  3  1  0
  5  4  1  0
  6  5  2  3
  7  6  1  0
  8  5  1  0
  8  9  1  6
 10  8  1  0
 10 11  1  1
 12  3  1  0
 12 10  1  0
 12 13  1  6
M  END
$$$$
