
     RDKit          3D

 15 15  0  0  0  0  0  0  0  0999 V2000
    9.8770   -7.2820    3.9610 N   0  0  0  0  0  0  0  0  0  0  0  0
   10.6380   -6.8720    5.1890 C   0  0  1  0  0  0  0  0  0  0  0  0
   11.2750   -8.1270    5.8690 C   0  0  0  0  0  0  0  0  0  0  0  0
   10.2480   -8.9110    6.5410 N   0  0  0  0  0  0  0  0  0  0  0  0
    9.8250  -10.0660    5.9510 C   0  0  0  0  0  0  0  0  0  0  0  0
    8.8380  -10.8030    6.5400 C   0  0  0  0  0  0  0  0  0  0  0  0
    8.4000  -11.9250    5.9750 F   0  0  0  0  0  0  0  0  0  0  0  0
    8.2600  -10.3670    7.7640 C   0  0  0  0  0  0  0  0  0  0  0  0
    7.3700  -11.0060    8.3080 O   0  0  0  0  0  0  0  0  0  0  0  0
    8.7210   -9.1970    8.3230 N   0  0  0  0  0  0  0  0  0  0  0  0
    9.7210   -8.4590    7.7370 C   0  0  0  0  0  0  0  0  0  0  0  0
   10.1160   -7.4310    8.2600 O   0  0  0  0  0  0  0  0  0  0  0  0
   11.7460   -5.8820    4.8480 C   0  0  0  0  0  0  0  0  0  0  0  0
   12.4640   -5.4550    5.7600 O   0  0  0  0  0  0  0  0  0  0  0  0
   11.8530   -5.5230    3.6800 O   0  0  0  0  0  0  0  0  0  0  0  0
  2  1  1  6
  3  2  1  0
  4  3  1  0
  5  4  1  0
  6  5  2  0
  7  6  1  0
  8  6  1  0
  9  8  2  0
 10  8  1  0
 11 10  1  0
 11  4  1  0
 12 11  2  0
 13  2  1  0
 14 13  1  0
 15 13  2  0
M  CHG  2   1   1  14  -1
M  END
$$$$
