
     RDKit          3D

 26 29  0  0  0  0  0  0  0  0999 V2000
   -1.2100   -5.4220   -6.9900 C   0  0  0  0  0  0  0  0  0  0  0  0
   -1.6230   -4.0400   -7.4040 C   0  0  0  0  0  0  0  0  0  0  0  0
   -1.7100   -2.9580   -6.6230 N   0  0  0  0  0  0  0  0  0  0  0  0
   -2.1680   -1.9220   -7.3880 N   0  0  0  0  0  0  0  0  0  0  0  0
   -2.3240   -2.4340   -8.6160 C   0  0  0  0  0  0  0  0  0  0  0  0
   -2.8440   -1.7400   -9.7620 C   0  0  0  0  0  0  0  0  0  0  0  0
   -3.0810   -2.4350  -10.9660 C   0  0  0  0  0  0  0  0  0  0  0  0
   -3.6430   -1.7590  -12.0580 C   0  0  0  0  0  0  0  0  0  0  0  0
   -3.9670   -0.4050  -11.9830 C   0  0  0  0  0  0  0  0  0  0  0  0
   -4.6120    0.2710  -13.1960 C   0  0  0  0  0  0  0  0  0  0  0  0
   -3.7150    0.3040  -10.7870 C   0  0  0  0  0  0  0  0  0  0  0  0
   -4.0210    1.7430  -10.6410 C   0  0  0  0  0  0  0  0  0  0  0  0
   -3.1540    2.6980  -11.1320 C   0  0  0  0  0  0  0  0  0  0  0  0
   -3.4720    4.0570  -10.9920 C   0  0  0  0  0  0  0  0  0  0  0  0
   -4.6480    4.4570  -10.3480 C   0  0  0  0  0  0  0  0  0  0  0  0
   -5.0180    5.8960  -10.1790 C   0  0  0  0  0  0  0  0  0  0  0  0
   -6.1440    6.2280   -9.8850 O   0  0  0  0  0  0  0  0  0  0  0  0
   -4.0250    6.8210  -10.3450 N   0  0  0  0  0  0  0  0  0  0  0  0
   -4.2460    8.2410  -10.1470 C   0  0  0  0  0  0  0  0  0  0  0  0
   -4.1530    8.7570   -8.7370 C   0  0  2  0  0  0  0  0  0  0  0  0
   -2.7190    8.8510   -8.2100 C   0  0  0  0  0  0  0  0  0  0  0  0
   -3.6970    7.8450   -7.6650 C   0  0  0  0  0  0  0  0  0  0  0  0
   -5.5080    3.4720   -9.8450 C   0  0  0  0  0  0  0  0  0  0  0  0
   -5.1960    2.1160   -9.9810 C   0  0  0  0  0  0  0  0  0  0  0  0
   -3.1530   -0.3730   -9.6900 C   0  0  0  0  0  0  0  0  0  0  0  0
   -2.0000   -3.7310   -8.6540 O   0  0  0  0  0  0  0  0  0  0  0  0
  2  1  1  0
  3  2  2  0
  4  3  1  0
  5  4  2  0
  6  5  1  0
  7  6  2  0
  8  7  1  0
  9  8  2  0
 10  9  1  0
 11  9  1  0
 12 11  1  0
 13 12  2  0
 14 13  1  0
 15 14  2  0
 16 15  1  0
 17 16  2  0
 18 16  1  0
 19 18  1  0
 20 19  1  6
 21 20  1  0
 22 21  1  0
 22 20  1  0
 23 15  1  0
 24 23  2  0
 24 12  1  0
 25 11  2  0
 25  6  1  0
 26  5  1  0
 26  2  1  0
M  END
$$$$
