
     RDKit          3D

 23 26  0  0  0  0  0  0  0  0999 V2000
    5.6220   -5.2180  -10.0490 C   0  0  0  0  0  0  0  0  0  0  0  0
    5.3270   -6.5040   -9.3340 C   0  0  0  0  0  0  0  0  0  0  0  0
    4.6540   -7.3440   -9.9060 O   0  0  0  0  0  0  0  0  0  0  0  0
    5.8280   -6.7260   -7.9560 C   0  0  0  0  0  0  0  0  0  0  0  0
    5.4530   -7.8770   -7.2760 C   0  0  0  0  0  0  0  0  0  0  0  0
    5.9030   -8.0970   -5.9920 C   0  0  0  0  0  0  0  0  0  0  0  0
    6.7250   -7.1890   -5.3750 C   0  0  0  0  0  0  0  0  0  0  0  0
    7.1270   -6.0270   -6.0440 C   0  0  0  0  0  0  0  0  0  0  0  0
    7.9980   -5.0960   -5.3440 C   0  0  0  0  0  0  0  0  0  0  0  0
    8.6400   -5.3360   -4.1610 C   0  0  0  0  0  0  0  0  0  0  0  0
    9.3400   -4.2630   -3.7920 N   0  0  0  0  0  0  0  0  0  0  0  0
    9.1370   -3.3280   -4.7310 C   0  0  0  0  0  0  0  0  0  0  0  0
    9.6050   -2.0390   -4.8250 C   0  0  0  0  0  0  0  0  0  0  0  0
    9.2050   -1.2970   -5.9050 C   0  0  0  0  0  0  0  0  0  0  0  0
    8.3710   -1.8560   -6.8510 C   0  0  0  0  0  0  0  0  0  0  0  0
    7.9650   -1.0990   -7.8930 N   0  0  0  0  0  0  0  0  0  0  0  0
    7.2490   -1.6360   -9.0220 C   0  0  0  0  0  0  0  0  0  0  0  0
    8.1010   -1.4080  -10.2450 C   0  0  2  0  0  0  0  0  0  0  0  0
    8.0510   -2.4750  -11.3150 C   0  0  0  0  0  0  0  0  0  0  0  0
    9.2330   -2.4250  -10.3460 C   0  0  0  0  0  0  0  0  0  0  0  0
    7.9410   -3.1060   -6.7590 N   0  0  0  0  0  0  0  0  0  0  0  0
    8.3250   -3.8280   -5.6890 N   0  0  0  0  0  0  0  0  0  0  0  0
    6.6720   -5.7960   -7.3420 C   0  0  0  0  0  0  0  0  0  0  0  0
  2  1  1  0
  3  2  2  0
  4  2  1  0
  5  4  2  0
  6  5  1  0
  7  6  2  0
  8  7  1  0
  9  8  1  0
 10  9  2  0
 11 10  1  0
 12 11  2  0
 13 12  1  0
 14 13  2  0
 15 14  1  0
 16 15  1  0
 17 16  1  0
 18 17  1  1
 19 18  1  0
 20 19  1  0
 20 18  1  0
 21 15  2  0
 22 21  1  0
 22 12  1  0
 22  9  1  0
 23  8  2  0
 23  4  1  0
M  END
$$$$
