
     RDKit          3D

 25 29  0  0  0  0  0  0  0  0999 V2000
    1.7390   -2.8930   -8.5150 C   0  0  0  0  0  0  0  0  0  0  0  0
    0.7640   -2.2980   -7.7160 C   0  0  0  0  0  0  0  0  0  0  0  0
    1.1420   -1.5070   -6.6480 C   0  0  0  0  0  0  0  0  0  0  0  0
    2.4960   -1.2990   -6.3660 C   0  0  0  0  0  0  0  0  0  0  0  0
    2.8930   -0.4300   -5.2430 C   0  0  0  0  0  0  0  0  0  0  0  0
    3.4940    0.8530   -5.5880 N   0  0  0  0  0  0  0  0  0  0  0  0
    3.1860    1.2890   -6.9590 C   0  0  0  0  0  0  0  0  0  0  0  0
    3.8310    2.6200   -7.2670 C   0  0  0  0  0  0  0  0  0  0  0  0
    3.3250    3.6650   -6.2970 C   0  0  2  0  0  0  0  0  0  0  0  0
    3.8910    4.9830   -6.5650 N   0  0  0  0  0  0  0  0  0  0  0  0
    5.2000    5.3200   -6.5250 C   0  0  0  0  0  0  0  0  0  0  0  0
    5.3540    6.6170   -6.7800 N   0  0  0  0  0  0  0  0  0  0  0  0
    4.1220    7.1200   -6.9760 C   0  0  0  0  0  0  0  0  0  0  0  0
    3.6930    8.4090   -7.2550 C   0  0  0  0  0  0  0  0  0  0  0  0
    2.3630    8.6870   -7.4140 N   0  0  0  0  0  0  0  0  0  0  0  0
    1.4790    7.6820   -7.3100 C   0  0  0  0  0  0  0  0  0  0  0  0
    0.1420    7.7080   -7.4360 N   0  0  0  0  0  0  0  0  0  0  0  0
   -0.3440    6.4480   -7.2500 C   0  0  0  0  0  0  0  0  0  0  0  0
    0.7040    5.5860   -6.9980 C   0  0  0  0  0  0  0  0  0  0  0  0
    1.8640    6.3520   -7.0300 C   0  0  0  0  0  0  0  0  0  0  0  0
    3.2050    6.0920   -6.8590 C   0  0  0  0  0  0  0  0  0  0  0  0
    3.6460    3.2120   -4.8710 C   0  0  0  0  0  0  0  0  0  0  0  0
    3.0200    1.8460   -4.6160 C   0  0  0  0  0  0  0  0  0  0  0  0
    3.4610   -1.8970   -7.1510 C   0  0  0  0  0  0  0  0  0  0  0  0
    3.0860   -2.6970   -8.2360 C   0  0  0  0  0  0  0  0  0  0  0  0
  2  1  2  0
  3  2  1  0
  4  3  2  0
  5  4  1  0
  6  5  1  0
  7  6  1  0
  8  7  1  0
  9  8  1  0
  9 10  1  6
 11 10  1  0
 12 11  2  0
 13 12  1  0
 14 13  2  0
 15 14  1  0
 16 15  2  0
 17 16  1  0
 18 17  1  0
 19 18  2  0
 20 19  1  0
 20 16  1  0
 21 10  1  0
 21 20  2  0
 21 13  1  0
 22  9  1  0
 23  6  1  0
 23 22  1  0
 24  4  1  0
 25 24  2  0
 25  1  1  0
M  CHG  1   6   1
M  END
$$$$
