2xdl_ligand
     RDKit          3D

 33 33  0  0  0  0  0  0  0  0999 V2000
    0.7190    1.7200   -7.9260 C   0  0  0  0  0  0  0  0  0  0  0  0
   -0.5950    1.1450   -8.4330 C   0  0  0  0  0  0  0  0  0  0  0  0
   -1.6250    1.1700   -7.3970 N   0  0  0  0  0  0  0  0  0  0  0  0
   -1.5890    2.2850   -6.4450 C   0  0  0  0  0  0  0  0  0  0  0  0
   -2.3410    3.4990   -6.9700 C   0  0  0  0  0  0  0  0  0  0  0  0
   -2.5090    0.0920   -7.3340 C   0  0  0  0  0  0  0  0  0  0  0  0
   -2.4530   -0.8880   -8.0720 O   0  0  0  0  0  0  0  0  0  0  0  0
   -3.5730    0.1020   -6.3140 C   0  0  0  0  0  0  0  0  0  0  0  0
   -4.7950    0.7250   -6.5860 C   0  0  0  0  0  0  0  0  0  0  0  0
   -5.7980    0.7110   -5.6210 C   0  0  0  0  0  0  0  0  0  0  0  0
   -5.5680    0.0600   -4.4130 C   0  0  0  0  0  0  0  0  0  0  0  0
   -6.5700    0.0630   -3.4800 O   0  0  0  0  0  0  0  0  0  0  0  0
   -4.3570   -0.5950   -4.1420 C   0  0  0  0  0  0  0  0  0  0  0  0
   -4.2890   -1.2010   -2.9140 O   0  0  0  0  0  0  0  0  0  0  0  0
   -3.5320   -0.5280   -1.9140 C   0  0  0  0  0  0  0  0  0  0  0  0
   -3.3530   -0.5770   -5.1060 C   0  0  0  0  0  0  0  0  0  0  0  0
    0.7191    1.7200   -6.8260 H   0  0  0  0  0  0  0  0  0  0  0  0
    1.5541    1.1051   -8.2927 H   0  0  0  0  0  0  0  0  0  0  0  0
    0.8340    2.7507   -8.2927 H   0  0  0  0  0  0  0  0  0  0  0  0
   -0.9377    1.7400   -9.2924 H   0  0  0  0  0  0  0  0  0  0  0  0
   -0.4242    0.0983   -8.7250 H   0  0  0  0  0  0  0  0  0  0  0  0
   -2.0499    1.9617   -5.5000 H   0  0  0  0  0  0  0  0  0  0  0  0
   -0.5380    2.5723   -6.2936 H   0  0  0  0  0  0  0  0  0  0  0  0
   -2.7107    4.0958   -6.1231 H   0  0  0  0  0  0  0  0  0  0  0  0
   -1.6645    4.1124   -7.5832 H   0  0  0  0  0  0  0  0  0  0  0  0
   -3.1915    3.1665   -7.5832 H   0  0  0  0  0  0  0  0  0  0  0  0
   -4.9620    1.2214   -7.5533 H   0  0  0  0  0  0  0  0  0  0  0  0
   -6.7605    1.2084   -5.8110 H   0  0  0  0  0  0  0  0  0  0  0  0
   -6.4970    0.9290   -3.0330 H   0  0  0  0  0  0  0  0  0  0  0  0
   -3.8815   -0.8387   -0.9184 H   0  0  0  0  0  0  0  0  0  0  0  0
   -2.4680   -0.7838   -2.0254 H   0  0  0  0  0  0  0  0  0  0  0  0
   -3.6615    0.5587   -2.0254 H   0  0  0  0  0  0  0  0  0  0  0  0
   -2.3972   -1.0897   -4.9227 H   0  0  0  0  0  0  0  0  0  0  0  0
  1  2  1  0
  2  3  1  0
  3  4  1  0
  4  5  1  0
  3  6  1  0
  6  7  2  0
  6  8  1  0
  8  9  2  0
  9 10  1  0
 10 11  2  0
 11 12  1  0
 11 13  1  0
 13 14  1  0
 14 15  1  0
 13 16  2  0
 16  8  1  0
  1 17  1  0
  1 18  1  0
  1 19  1  0
  2 20  1  0
  2 21  1  0
  4 22  1  0
  4 23  1  0
  5 24  1  0
  5 25  1  0
  5 26  1  0
  9 27  1  0
 10 28  1  0
 12 29  1  0
 15 30  1  0
 15 31  1  0
 15 32  1  0
 16 33  1  0
M  END
>  <meeko>  (1) 
{"is_sidechain": [false], "free_energy": -6.347, "intermolecular_energy": -8.016, "internal_energy": -0.45}

$$$$
2xdl_ligand
     RDKit          3D

 33 33  0  0  0  0  0  0  0  0999 V2000
    2.8670    4.6800   -3.7850 C   0  0  0  0  0  0  0  0  0  0  0  0
    2.9610    4.3030   -5.2550 C   0  0  0  0  0  0  0  0  0  0  0  0
    1.8330    3.4690   -5.6660 N   0  0  0  0  0  0  0  0  0  0  0  0
    1.4290    2.3940   -4.7550 C   0  0  0  0  0  0  0  0  0  0  0  0
    2.2910    1.1530   -4.9300 C   0  0  0  0  0  0  0  0  0  0  0  0
    1.2810    3.6990   -6.9260 C   0  0  0  0  0  0  0  0  0  0  0  0
    1.7050    4.5330   -7.7220 O   0  0  0  0  0  0  0  0  0  0  0  0
    0.1270    2.8900   -7.3580 C   0  0  0  0  0  0  0  0  0  0  0  0
    0.3310    1.7360   -8.1220 C   0  0  0  0  0  0  0  0  0  0  0  0
   -0.7660    0.9710   -8.5090 C   0  0  0  0  0  0  0  0  0  0  0  0
   -2.0390    1.3620   -8.1100 C   0  0  0  0  0  0  0  0  0  0  0  0
   -3.1010    0.5930   -8.5050 O   0  0  0  0  0  0  0  0  0  0  0  0
   -2.2530    2.5010   -7.3180 C   0  0  0  0  0  0  0  0  0  0  0  0
   -3.5630    2.7450   -6.9960 O   0  0  0  0  0  0  0  0  0  0  0  0
   -3.7940    3.6220   -5.8980 C   0  0  0  0  0  0  0  0  0  0  0  0
   -1.1560    3.2680   -6.9350 C   0  0  0  0  0  0  0  0  0  0  0  0
    3.0869    3.7980   -3.1655 H   0  0  0  0  0  0  0  0  0  0  0  0
    3.5945    5.4746   -3.5630 H   0  0  0  0  0  0  0  0  0  0  0  0
    1.8516    5.0401   -3.5630 H   0  0  0  0  0  0  0  0  0  0  0  0
    2.9659    5.2215   -5.8602 H   0  0  0  0  0  0  0  0  0  0  0  0
    3.8878    3.7301   -5.4064 H   0  0  0  0  0  0  0  0  0  0  0  0
    1.5241    2.7506   -3.7188 H   0  0  0  0  0  0  0  0  0  0  0  0
    0.3881    2.1231   -4.9853 H   0  0  0  0  0  0  0  0  0  0  0  0
    2.5669    0.7559   -3.9420 H   0  0  0  0  0  0  0  0  0  0  0  0
    1.7271    0.3905   -5.4873 H   0  0  0  0  0  0  0  0  0  0  0  0
    3.2024    1.4152   -5.4873 H   0  0  0  0  0  0  0  0  0  0  0  0
    1.3482    1.4359   -8.4141 H   0  0  0  0  0  0  0  0  0  0  0  0
   -0.6272    0.0687   -9.1227 H   0  0  0  0  0  0  0  0  0  0  0  0
   -3.8920    1.0740   -8.1930 H   0  0  0  0  0  0  0  0  0  0  0  0
   -3.6498    3.0746   -4.9549 H   0  0  0  0  0  0  0  0  0  0  0  0
   -3.0868    4.4632   -5.9455 H   0  0  0  0  0  0  0  0  0  0  0  0
   -4.8238    4.0057   -5.9455 H   0  0  0  0  0  0  0  0  0  0  0  0
   -1.2938    4.1608   -6.3074 H   0  0  0  0  0  0  0  0  0  0  0  0
  1  2  1  0
  2  3  1  0
  3  4  1  0
  4  5  1  0
  3  6  1  0
  6  7  2  0
  6  8  1  0
  8  9  2  0
  9 10  1  0
 10 11  2  0
 11 12  1  0
 11 13  1  0
 13 14  1  0
 14 15  1  0
 13 16  2  0
 16  8  1  0
  1 17  1  0
  1 18  1  0
  1 19  1  0
  2 20  1  0
  2 21  1  0
  4 22  1  0
  4 23  1  0
  5 24  1  0
  5 25  1  0
  5 26  1  0
  9 27  1  0
 10 28  1  0
 12 29  1  0
 15 30  1  0
 15 31  1  0
 15 32  1  0
 16 33  1  0
M  END
>  <meeko>  (2) 
{"is_sidechain": [false], "free_energy": -6.261, "intermolecular_energy": -7.919, "internal_energy": -0.44}

$$$$
2xdl_ligand
     RDKit          3D

 33 33  0  0  0  0  0  0  0  0999 V2000
   -2.1410    3.7020   -6.8290 C   0  0  0  0  0  0  0  0  0  0  0  0
   -0.9440    4.6350   -6.9180 C   0  0  0  0  0  0  0  0  0  0  0  0
    0.2700    3.9970   -6.4140 N   0  0  0  0  0  0  0  0  0  0  0  0
    0.3730    2.5420   -6.5650 C   0  0  0  0  0  0  0  0  0  0  0  0
    1.0230    2.1570   -7.8850 C   0  0  0  0  0  0  0  0  0  0  0  0
    1.1980    4.8000   -5.7490 C   0  0  0  0  0  0  0  0  0  0  0  0
    1.0420    5.9990   -5.5350 O   0  0  0  0  0  0  0  0  0  0  0  0
    2.4430    4.1880   -5.2500 C   0  0  0  0  0  0  0  0  0  0  0  0
    3.5810    4.1590   -6.0630 C   0  0  0  0  0  0  0  0  0  0  0  0
    4.7550    3.5940   -5.5730 C   0  0  0  0  0  0  0  0  0  0  0  0
    4.7740    3.0890   -4.2780 C   0  0  0  0  0  0  0  0  0  0  0  0
    5.9410    2.5370   -3.8210 O   0  0  0  0  0  0  0  0  0  0  0  0
    3.6480    3.1410   -3.4430 C   0  0  0  0  0  0  0  0  0  0  0  0
    3.8300    2.6150   -2.1900 O   0  0  0  0  0  0  0  0  0  0  0  0
    2.8680    1.6600   -1.7560 C   0  0  0  0  0  0  0  0  0  0  0  0
    2.4730    3.7020   -3.9350 C   0  0  0  0  0  0  0  0  0  0  0  0
   -2.3818    3.5143   -5.7722 H   0  0  0  0  0  0  0  0  0  0  0  0
   -3.0058    4.1667   -7.3252 H   0  0  0  0  0  0  0  0  0  0  0  0
   -1.9015    2.7499   -7.3252 H   0  0  0  0  0  0  0  0  0  0  0  0
   -0.7889    4.9183   -7.9695 H   0  0  0  0  0  0  0  0  0  0  0  0
   -1.1503    5.5215   -6.3003 H   0  0  0  0  0  0  0  0  0  0  0  0
    0.9784    2.1401   -5.7392 H   0  0  0  0  0  0  0  0  0  0  0  0
   -0.6440    2.1232   -6.5491 H   0  0  0  0  0  0  0  0  0  0  0  0
    1.9542    1.6055   -7.6881 H   0  0  0  0  0  0  0  0  0  0  0  0
    0.3348    1.5208   -8.4608 H   0  0  0  0  0  0  0  0  0  0  0  0
    1.2502    3.0663   -8.4608 H   0  0  0  0  0  0  0  0  0  0  0  0
    3.5484    4.5785   -7.0794 H   0  0  0  0  0  0  0  0  0  0  0  0
    5.6560    3.5477   -6.2023 H   0  0  0  0  0  0  0  0  0  0  0  0
    6.5240    2.4910   -4.6040 H   0  0  0  0  0  0  0  0  0  0  0  0
    2.8446    1.6368   -0.6565 H   0  0  0  0  0  0  0  0  0  0  0  0
    1.8752    1.9400   -2.1380 H   0  0  0  0  0  0  0  0  0  0  0  0
    3.1407    0.6652   -2.1380 H   0  0  0  0  0  0  0  0  0  0  0  0
    1.5775    3.7634   -3.2991 H   0  0  0  0  0  0  0  0  0  0  0  0
  1  2  1  0
  2  3  1  0
  3  4  1  0
  4  5  1  0
  3  6  1  0
  6  7  2  0
  6  8  1  0
  8  9  2  0
  9 10  1  0
 10 11  2  0
 11 12  1  0
 11 13  1  0
 13 14  1  0
 14 15  1  0
 13 16  2  0
 16  8  1  0
  1 17  1  0
  1 18  1  0
  1 19  1  0
  2 20  1  0
  2 21  1  0
  4 22  1  0
  4 23  1  0
  5 24  1  0
  5 25  1  0
  5 26  1  0
  9 27  1  0
 10 28  1  0
 12 29  1  0
 15 30  1  0
 15 31  1  0
 15 32  1  0
 16 33  1  0
M  END
>  <meeko>  (3) 
{"is_sidechain": [false], "free_energy": -6.244, "intermolecular_energy": -7.883, "internal_energy": -0.453}

$$$$
2xdl_ligand
     RDKit          3D

 33 33  0  0  0  0  0  0  0  0999 V2000
    3.9220    3.7110   -4.1640 C   0  0  0  0  0  0  0  0  0  0  0  0
    3.5720    3.2640   -5.5740 C   0  0  0  0  0  0  0  0  0  0  0  0
    2.1450    2.9730   -5.7040 N   0  0  0  0  0  0  0  0  0  0  0  0
    1.5220    2.1930   -4.6310 C   0  0  0  0  0  0  0  0  0  0  0  0
    1.8000    0.7050   -4.7790 C   0  0  0  0  0  0  0  0  0  0  0  0
    1.5030    3.3780   -6.8750 C   0  0  0  0  0  0  0  0  0  0  0  0
    2.0690    3.9340   -7.8130 O   0  0  0  0  0  0  0  0  0  0  0  0
    0.0600    3.1190   -7.0240 C   0  0  0  0  0  0  0  0  0  0  0  0
   -0.8670    4.0980   -6.6510 C   0  0  0  0  0  0  0  0  0  0  0  0
   -2.2270    3.8460   -6.8130 C   0  0  0  0  0  0  0  0  0  0  0  0
   -2.6310    2.6340   -7.3600 C   0  0  0  0  0  0  0  0  0  0  0  0
   -3.9740    2.4110   -7.5070 O   0  0  0  0  0  0  0  0  0  0  0  0
   -1.7090    1.6570   -7.7660 C   0  0  0  0  0  0  0  0  0  0  0  0
   -2.2630    0.5220   -8.2990 O   0  0  0  0  0  0  0  0  0  0  0  0
   -1.5970   -0.7030   -8.0150 C   0  0  0  0  0  0  0  0  0  0  0  0
   -0.3490    1.9070   -7.5990 C   0  0  0  0  0  0  0  0  0  0  0  0
    3.4133    3.0614   -3.4365 H   0  0  0  0  0  0  0  0  0  0  0  0
    5.0101    3.6439   -4.0175 H   0  0  0  0  0  0  0  0  0  0  0  0
    3.5958    4.7513   -4.0175 H   0  0  0  0  0  0  0  0  0  0  0  0
    3.8396    4.0643   -6.2797 H   0  0  0  0  0  0  0  0  0  0  0  0
    4.1338    2.3443   -5.7945 H   0  0  0  0  0  0  0  0  0  0  0  0
    1.9207    2.5352   -3.6646 H   0  0  0  0  0  0  0  0  0  0  0  0
    0.4339    2.3444   -4.6861 H   0  0  0  0  0  0  0  0  0  0  0  0
    1.8856    0.2471   -3.7825 H   0  0  0  0  0  0  0  0  0  0  0  0
    0.9749    0.2309   -5.3308 H   0  0  0  0  0  0  0  0  0  0  0  0
    2.7406    0.5608   -5.3308 H   0  0  0  0  0  0  0  0  0  0  0  0
   -0.5253    5.0569   -6.2341 H   0  0  0  0  0  0  0  0  0  0  0  0
   -2.9722    4.5969   -6.5117 H   0  0  0  0  0  0  0  0  0  0  0  0
   -4.1900    1.7210   -6.8490 H   0  0  0  0  0  0  0  0  0  0  0  0
   -1.5243   -0.8368   -6.9256 H   0  0  0  0  0  0  0  0  0  0  0  0
   -2.1650   -1.5386   -8.4499 H   0  0  0  0  0  0  0  0  0  0  0  0
   -0.5869   -0.6806   -8.4499 H   0  0  0  0  0  0  0  0  0  0  0  0
    0.3961    1.1619   -7.9147 H   0  0  0  0  0  0  0  0  0  0  0  0
  1  2  1  0
  2  3  1  0
  3  4  1  0
  4  5  1  0
  3  6  1  0
  6  7  2  0
  6  8  1  0
  8  9  2  0
  9 10  1  0
 10 11  2  0
 11 12  1  0
 11 13  1  0
 13 14  1  0
 14 15  1  0
 13 16  2  0
 16  8  1  0
  1 17  1  0
  1 18  1  0
  1 19  1  0
  2 20  1  0
  2 21  1  0
  4 22  1  0
  4 23  1  0
  5 24  1  0
  5 25  1  0
  5 26  1  0
  9 27  1  0
 10 28  1  0
 12 29  1  0
 15 30  1  0
 15 31  1  0
 15 32  1  0
 16 33  1  0
M  END
>  <meeko>  (4) 
{"is_sidechain": [false], "free_energy": -6.172, "intermolecular_energy": -7.811, "internal_energy": -0.434}

$$$$
2xdl_ligand
     RDKit          3D

 33 33  0  0  0  0  0  0  0  0999 V2000
   -3.7460   -0.3820   -5.5670 C   0  0  0  0  0  0  0  0  0  0  0  0
   -4.1070    1.0780   -5.7900 C   0  0  0  0  0  0  0  0  0  0  0  0
   -2.9180    1.9290   -5.7870 N   0  0  0  0  0  0  0  0  0  0  0  0
   -2.4420    2.4070   -4.4860 C   0  0  0  0  0  0  0  0  0  0  0  0
   -3.2130    3.6320   -4.0180 C   0  0  0  0  0  0  0  0  0  0  0  0
   -2.3780    2.2930   -7.0210 C   0  0  0  0  0  0  0  0  0  0  0  0
   -2.8580    1.9720   -8.1050 O   0  0  0  0  0  0  0  0  0  0  0  0
   -1.1650    3.1310   -7.0490 C   0  0  0  0  0  0  0  0  0  0  0  0
   -1.2800    4.5250   -7.0270 C   0  0  0  0  0  0  0  0  0  0  0  0
   -0.1270    5.3050   -7.0370 C   0  0  0  0  0  0  0  0  0  0  0  0
    1.1150    4.6780   -7.0470 C   0  0  0  0  0  0  0  0  0  0  0  0
    2.2330    5.4680   -7.0580 O   0  0  0  0  0  0  0  0  0  0  0  0
    1.2420    3.2810   -7.0380 C   0  0  0  0  0  0  0  0  0  0  0  0
    2.5320    2.8160   -7.0350 O   0  0  0  0  0  0  0  0  0  0  0  0
    2.7980    1.6790   -7.8490 C   0  0  0  0  0  0  0  0  0  0  0  0
    0.0880    2.5020   -7.0330 C   0  0  0  0  0  0  0  0  0  0  0  0
   -3.6955   -0.5864   -4.4873 H   0  0  0  0  0  0  0  0  0  0  0  0
   -4.5126   -1.0235   -6.0262 H   0  0  0  0  0  0  0  0  0  0  0  0
   -2.7688   -0.5923   -6.0262 H   0  0  0  0  0  0  0  0  0  0  0  0
   -4.6150    1.1766   -6.7607 H   0  0  0  0  0  0  0  0  0  0  0  0
   -4.7652    1.4006   -4.9698 H   0  0  0  0  0  0  0  0  0  0  0  0
   -2.5655    1.6038   -3.7446 H   0  0  0  0  0  0  0  0  0  0  0  0
   -1.3838    2.6884   -4.5913 H   0  0  0  0  0  0  0  0  0  0  0  0
   -3.2289    3.6572   -2.9184 H   0  0  0  0  0  0  0  0  0  0  0  0
   -2.7237    4.5407   -4.3986 H   0  0  0  0  0  0  0  0  0  0  0  0
   -4.2439    3.5839   -4.3986 H   0  0  0  0  0  0  0  0  0  0  0  0
   -2.2718    5.0001   -7.0020 H   0  0  0  0  0  0  0  0  0  0  0  0
   -0.1970    6.4028   -7.0370 H   0  0  0  0  0  0  0  0  0  0  0  0
    2.9530    4.8830   -7.3650 H   0  0  0  0  0  0  0  0  0  0  0  0
    3.0016    0.8086   -7.2079 H   0  0  0  0  0  0  0  0  0  0  0  0
    1.9244    1.4703   -8.4841 H   0  0  0  0  0  0  0  0  0  0  0  0
    3.6735    1.8794   -8.4841 H   0  0  0  0  0  0  0  0  0  0  0  0
    0.1586    1.4044   -7.0167 H   0  0  0  0  0  0  0  0  0  0  0  0
  1  2  1  0
  2  3  1  0
  3  4  1  0
  4  5  1  0
  3  6  1  0
  6  7  2  0
  6  8  1  0
  8  9  2  0
  9 10  1  0
 10 11  2  0
 11 12  1  0
 11 13  1  0
 13 14  1  0
 14 15  1  0
 13 16  2  0
 16  8  1  0
  1 17  1  0
  1 18  1  0
  1 19  1  0
  2 20  1  0
  2 21  1  0
  4 22  1  0
  4 23  1  0
  5 24  1  0
  5 25  1  0
  5 26  1  0
  9 27  1  0
 10 28  1  0
 12 29  1  0
 15 30  1  0
 15 31  1  0
 15 32  1  0
 16 33  1  0
M  END
>  <meeko>  (5) 
{"is_sidechain": [false], "free_energy": -6.144, "intermolecular_energy": -7.756, "internal_energy": -0.454}

$$$$
2xdl_ligand
     RDKit          3D

 33 33  0  0  0  0  0  0  0  0999 V2000
   -4.2170   -0.5690   -5.2600 C   0  0  0  0  0  0  0  0  0  0  0  0
   -4.1030    0.9330   -5.4660 C   0  0  0  0  0  0  0  0  0  0  0  0
   -2.7140    1.3400   -5.6720 N   0  0  0  0  0  0  0  0  0  0  0  0
   -1.7650    1.0490   -4.5940 C   0  0  0  0  0  0  0  0  0  0  0  0
   -1.9240    2.0110   -3.4270 C   0  0  0  0  0  0  0  0  0  0  0  0
   -2.4120    2.0510   -6.8340 C   0  0  0  0  0  0  0  0  0  0  0  0
   -3.2430    2.3820   -7.6750 O   0  0  0  0  0  0  0  0  0  0  0  0
   -1.0150    2.4540   -7.0800 C   0  0  0  0  0  0  0  0  0  0  0  0
   -0.1370    1.5730   -7.7200 C   0  0  0  0  0  0  0  0  0  0  0  0
    1.1750    1.9730   -7.9610 C   0  0  0  0  0  0  0  0  0  0  0  0
    1.5750    3.2490   -7.5790 C   0  0  0  0  0  0  0  0  0  0  0  0
    2.8710    3.6170   -7.8260 O   0  0  0  0  0  0  0  0  0  0  0  0
    0.6940    4.1520   -6.9650 C   0  0  0  0  0  0  0  0  0  0  0  0
    1.2360    5.3740   -6.6610 O   0  0  0  0  0  0  0  0  0  0  0  0
    1.4630    5.6420   -5.2820 C   0  0  0  0  0  0  0  0  0  0  0  0
   -0.6160    3.7490   -6.7190 C   0  0  0  0  0  0  0  0  0  0  0  0
   -4.2339   -0.7911   -4.1828 H   0  0  0  0  0  0  0  0  0  0  0  0
   -5.1454   -0.9333   -5.7241 H   0  0  0  0  0  0  0  0  0  0  0  0
   -3.3542   -1.0693   -5.7241 H   0  0  0  0  0  0  0  0  0  0  0  0
   -4.6942    1.2190   -6.3484 H   0  0  0  0  0  0  0  0  0  0  0  0
   -4.4804    1.4356   -4.5632 H   0  0  0  0  0  0  0  0  0  0  0  0
   -1.9366    0.0232   -4.2358 H   0  0  0  0  0  0  0  0  0  0  0  0
   -0.7469    1.1627   -4.9947 H   0  0  0  0  0  0  0  0  0  0  0  0
   -1.8326    1.4577   -2.4807 H   0  0  0  0  0  0  0  0  0  0  0  0
   -1.1411    2.7820   -3.4781 H   0  0  0  0  0  0  0  0  0  0  0  0
   -2.9134    2.4891   -3.4781 H   0  0  0  0  0  0  0  0  0  0  0  0
   -0.4793    0.5746   -8.0297 H   0  0  0  0  0  0  0  0  0  0  0  0
    1.8857    1.2885   -8.4472 H   0  0  0  0  0  0  0  0  0  0  0  0
    2.8080    4.4850   -8.2690 H   0  0  0  0  0  0  0  0  0  0  0  0
    0.8719    4.9442   -4.6707 H   0  0  0  0  0  0  0  0  0  0  0  0
    2.5316    5.5140   -5.0547 H   0  0  0  0  0  0  0  0  0  0  0  0
    1.1609    6.6750   -5.0547 H   0  0  0  0  0  0  0  0  0  0  0  0
   -1.3304    4.4392   -6.2465 H   0  0  0  0  0  0  0  0  0  0  0  0
  1  2  1  0
  2  3  1  0
  3  4  1  0
  4  5  1  0
  3  6  1  0
  6  7  2  0
  6  8  1  0
  8  9  2  0
  9 10  1  0
 10 11  2  0
 11 12  1  0
 11 13  1  0
 13 14  1  0
 14 15  1  0
 13 16  2  0
 16  8  1  0
  1 17  1  0
  1 18  1  0
  1 19  1  0
  2 20  1  0
  2 21  1  0
  4 22  1  0
  4 23  1  0
  5 24  1  0
  5 25  1  0
  5 26  1  0
  9 27  1  0
 10 28  1  0
 12 29  1  0
 15 30  1  0
 15 31  1  0
 15 32  1  0
 16 33  1  0
M  END
>  <meeko>  (6) 
{"is_sidechain": [false], "free_energy": -6.081, "intermolecular_energy": -7.653, "internal_energy": -0.477}

$$$$
2xdl_ligand
     RDKit          3D

 33 33  0  0  0  0  0  0  0  0999 V2000
   -3.1710   -1.0730   -6.0510 C   0  0  0  0  0  0  0  0  0  0  0  0
   -3.5500    0.3070   -6.5640 C   0  0  0  0  0  0  0  0  0  0  0  0
   -2.3830    1.1830   -6.6540 N   0  0  0  0  0  0  0  0  0  0  0  0
   -1.2110    0.6630   -7.3630 C   0  0  0  0  0  0  0  0  0  0  0  0
   -1.3040    0.9060   -8.8620 C   0  0  0  0  0  0  0  0  0  0  0  0
   -2.4380    2.4070   -5.9870 C   0  0  0  0  0  0  0  0  0  0  0  0
   -3.3890    2.7780   -5.3050 O   0  0  0  0  0  0  0  0  0  0  0  0
   -1.2850    3.3220   -6.0800 C   0  0  0  0  0  0  0  0  0  0  0  0
   -1.2930    4.3620   -7.0140 C   0  0  0  0  0  0  0  0  0  0  0  0
   -0.2060    5.2290   -7.0790 C   0  0  0  0  0  0  0  0  0  0  0  0
    0.8560    5.0510   -6.1990 C   0  0  0  0  0  0  0  0  0  0  0  0
    1.9140    5.9160   -6.2850 O   0  0  0  0  0  0  0  0  0  0  0  0
    0.8610    4.0300   -5.2370 C   0  0  0  0  0  0  0  0  0  0  0  0
    1.9720    3.9950   -4.4340 O   0  0  0  0  0  0  0  0  0  0  0  0
    2.6160    2.7330   -4.2960 C   0  0  0  0  0  0  0  0  0  0  0  0
   -0.2250    3.1610   -5.1750 C   0  0  0  0  0  0  0  0  0  0  0  0
   -3.1723   -1.0684   -4.9510 H   0  0  0  0  0  0  0  0  0  0  0  0
   -3.8993   -1.8124   -6.4154 H   0  0  0  0  0  0  0  0  0  0  0  0
   -2.1672   -1.3367   -6.4154 H   0  0  0  0  0  0  0  0  0  0  0  0
   -3.9995    0.2062   -7.5629 H   0  0  0  0  0  0  0  0  0  0  0  0
   -4.2643    0.7544   -5.8572 H   0  0  0  0  0  0  0  0  0  0  0  0
   -0.3104    1.1625   -6.9765 H   0  0  0  0  0  0  0  0  0  0  0  0
   -1.1636   -0.4230   -7.1949 H   0  0  0  0  0  0  0  0  0  0  0  0
   -1.6916    1.9189   -9.0459 H   0  0  0  0  0  0  0  0  0  0  0  0
   -0.3050    0.8084   -9.3119 H   0  0  0  0  0  0  0  0  0  0  0  0
   -1.9826    0.1664   -9.3119 H   0  0  0  0  0  0  0  0  0  0  0  0
   -2.1499    4.4939   -7.6910 H   0  0  0  0  0  0  0  0  0  0  0  0
   -0.1873    6.0445   -7.8170 H   0  0  0  0  0  0  0  0  0  0  0  0
    2.5570    5.5970   -5.6230 H   0  0  0  0  0  0  0  0  0  0  0  0
    2.7362    2.4975   -3.2282 H   0  0  0  0  0  0  0  0  0  0  0  0
    2.0047    1.9549   -4.7766 H   0  0  0  0  0  0  0  0  0  0  0  0
    3.6047    2.7714   -4.7766 H   0  0  0  0  0  0  0  0  0  0  0  0
   -0.2517    2.3570   -4.4247 H   0  0  0  0  0  0  0  0  0  0  0  0
  1  2  1  0
  2  3  1  0
  3  4  1  0
  4  5  1  0
  3  6  1  0
  6  7  2  0
  6  8  1  0
  8  9  2  0
  9 10  1  0
 10 11  2  0
 11 12  1  0
 11 13  1  0
 13 14  1  0
 14 15  1  0
 13 16  2  0
 16  8  1  0
  1 17  1  0
  1 18  1  0
  1 19  1  0
  2 20  1  0
  2 21  1  0
  4 22  1  0
  4 23  1  0
  5 24  1  0
  5 25  1  0
  5 26  1  0
  9 27  1  0
 10 28  1  0
 12 29  1  0
 15 30  1  0
 15 31  1  0
 15 32  1  0
 16 33  1  0
M  END
>  <meeko>  (7) 
{"is_sidechain": [false], "free_energy": -6.04, "intermolecular_energy": -7.608, "internal_energy": -0.471}

$$$$
2xdl_ligand
     RDKit          3D

 33 33  0  0  0  0  0  0  0  0999 V2000
   -3.9900    0.9520   -7.1980 C   0  0  0  0  0  0  0  0  0  0  0  0
   -3.1190    1.9690   -7.9200 C   0  0  0  0  0  0  0  0  0  0  0  0
   -1.7540    1.9690   -7.3990 N   0  0  0  0  0  0  0  0  0  0  0  0
   -1.4740    2.8440   -6.2570 C   0  0  0  0  0  0  0  0  0  0  0  0
   -1.4340    4.3090   -6.6640 C   0  0  0  0  0  0  0  0  0  0  0  0
   -0.8000    1.2090   -8.0770 C   0  0  0  0  0  0  0  0  0  0  0  0
   -1.0300    0.5690   -9.1000 O   0  0  0  0  0  0  0  0  0  0  0  0
    0.5800    1.1720   -7.5620 C   0  0  0  0  0  0  0  0  0  0  0  0
    0.9800    0.1350   -6.7110 C   0  0  0  0  0  0  0  0  0  0  0  0
    2.2910    0.1020   -6.2450 C   0  0  0  0  0  0  0  0  0  0  0  0
    3.1800    1.0910   -6.6530 C   0  0  0  0  0  0  0  0  0  0  0  0
    4.4640    1.0360   -6.1790 O   0  0  0  0  0  0  0  0  0  0  0  0
    2.7990    2.1180   -7.5300 C   0  0  0  0  0  0  0  0  0  0  0  0
    3.7920    3.0070   -7.8480 O   0  0  0  0  0  0  0  0  0  0  0  0
    3.5120    4.3820   -7.6140 C   0  0  0  0  0  0  0  0  0  0  0  0
    1.4860    2.1520   -7.9920 C   0  0  0  0  0  0  0  0  0  0  0  0
   -3.8798    1.0807   -6.1111 H   0  0  0  0  0  0  0  0  0  0  0  0
   -5.0422    1.1042   -7.4804 H   0  0  0  0  0  0  0  0  0  0  0  0
   -3.6779   -0.0643   -7.4804 H   0  0  0  0  0  0  0  0  0  0  0  0
   -3.0929    1.7211   -8.9914 H   0  0  0  0  0  0  0  0  0  0  0  0
   -3.5499    2.9684   -7.7604 H   0  0  0  0  0  0  0  0  0  0  0  0
   -2.2612    2.7058   -5.5012 H   0  0  0  0  0  0  0  0  0  0  0  0
   -0.4868    2.5742   -5.8537 H   0  0  0  0  0  0  0  0  0  0  0  0
   -1.4168    4.9396   -5.7628 H   0  0  0  0  0  0  0  0  0  0  0  0
   -0.5303    4.4989   -7.2618 H   0  0  0  0  0  0  0  0  0  0  0  0
   -2.3260    4.5480   -7.2618 H   0  0  0  0  0  0  0  0  0  0  0  0
    0.2651   -0.6462   -6.4135 H   0  0  0  0  0  0  0  0  0  0  0  0
    2.6199   -0.6958   -5.5629 H   0  0  0  0  0  0  0  0  0  0  0  0
    4.9780    1.6170   -6.7720 H   0  0  0  0  0  0  0  0  0  0  0  0
    3.4739    4.5692   -6.5307 H   0  0  0  0  0  0  0  0  0  0  0  0
    4.3029    4.9992   -8.0652 H   0  0  0  0  0  0  0  0  0  0  0  0
    2.5427    4.6408   -8.0652 H   0  0  0  0  0  0  0  0  0  0  0  0
    1.1625    2.9402   -8.6877 H   0  0  0  0  0  0  0  0  0  0  0  0
  1  2  1  0
  2  3  1  0
  3  4  1  0
  4  5  1  0
  3  6  1  0
  6  7  2  0
  6  8  1  0
  8  9  2  0
  9 10  1  0
 10 11  2  0
 11 12  1  0
 11 13  1  0
 13 14  1  0
 14 15  1  0
 13 16  2  0
 16  8  1  0
  1 17  1  0
  1 18  1  0
  1 19  1  0
  2 20  1  0
  2 21  1  0
  4 22  1  0
  4 23  1  0
  5 24  1  0
  5 25  1  0
  5 26  1  0
  9 27  1  0
 10 28  1  0
 12 29  1  0
 15 30  1  0
 15 31  1  0
 15 32  1  0
 16 33  1  0
M  END
>  <meeko>  (8) 
{"is_sidechain": [false], "free_energy": -6.032, "intermolecular_energy": -7.608, "internal_energy": -0.46}

$$$$
2xdl_ligand
     RDKit          3D

 33 33  0  0  0  0  0  0  0  0999 V2000
    3.1600    5.1260   -6.6480 C   0  0  0  0  0  0  0  0  0  0  0  0
    2.4340    4.4280   -5.5090 C   0  0  0  0  0  0  0  0  0  0  0  0
    1.2590    3.7030   -5.9890 N   0  0  0  0  0  0  0  0  0  0  0  0
   -0.0370    4.3780   -5.8710 C   0  0  0  0  0  0  0  0  0  0  0  0
   -0.3570    5.2060   -7.1060 C   0  0  0  0  0  0  0  0  0  0  0  0
    1.4420    2.3960   -6.4410 C   0  0  0  0  0  0  0  0  0  0  0  0
    2.5200    1.8080   -6.4280 O   0  0  0  0  0  0  0  0  0  0  0  0
    0.2790    1.6480   -6.9530 C   0  0  0  0  0  0  0  0  0  0  0  0
    0.0470    1.5770   -8.3300 C   0  0  0  0  0  0  0  0  0  0  0  0
   -1.0450    0.8530   -8.8010 C   0  0  0  0  0  0  0  0  0  0  0  0
   -1.8700    0.2010   -7.8910 C   0  0  0  0  0  0  0  0  0  0  0  0
   -2.9390   -0.5020   -8.3800 O   0  0  0  0  0  0  0  0  0  0  0  0
   -1.6290    0.2410   -6.5090 C   0  0  0  0  0  0  0  0  0  0  0  0
   -2.5230   -0.4630   -5.7440 O   0  0  0  0  0  0  0  0  0  0  0  0
   -3.3550    0.3000   -4.8770 C   0  0  0  0  0  0  0  0  0  0  0  0
   -0.5390    0.9690   -6.0380 C   0  0  0  0  0  0  0  0  0  0  0  0
    3.8952    5.8328   -6.2357 H   0  0  0  0  0  0  0  0  0  0  0  0
    3.6775    4.3777   -7.2662 H   0  0  0  0  0  0  0  0  0  0  0  0
    2.4326    5.6725   -7.2662 H   0  0  0  0  0  0  0  0  0  0  0  0
    3.1220    3.7164   -5.0291 H   0  0  0  0  0  0  0  0  0  0  0  0
    2.0996    5.1924   -4.7922 H   0  0  0  0  0  0  0  0  0  0  0  0
   -0.8226    3.6197   -5.7373 H   0  0  0  0  0  0  0  0  0  0  0  0
    0.0084    5.0568   -5.0066 H   0  0  0  0  0  0  0  0  0  0  0  0
   -0.7377    6.1911   -6.7984 H   0  0  0  0  0  0  0  0  0  0  0  0
    0.5554    5.3366   -7.7064 H   0  0  0  0  0  0  0  0  0  0  0  0
   -1.1201    4.6891   -7.7064 H   0  0  0  0  0  0  0  0  0  0  0  0
    0.7203    2.0879   -9.0340 H   0  0  0  0  0  0  0  0  0  0  0  0
   -1.2526    0.7974   -9.8798 H   0  0  0  0  0  0  0  0  0  0  0  0
   -3.0890   -0.1420   -9.2760 H   0  0  0  0  0  0  0  0  0  0  0  0
   -3.1038    0.0696   -3.8312 H   0  0  0  0  0  0  0  0  0  0  0  0
   -3.1951    1.3720   -5.0649 H   0  0  0  0  0  0  0  0  0  0  0  0
   -4.4091    0.0481   -5.0649 H   0  0  0  0  0  0  0  0  0  0  0  0
   -0.3221    1.0110   -4.9604 H   0  0  0  0  0  0  0  0  0  0  0  0
  1  2  1  0
  2  3  1  0
  3  4  1  0
  4  5  1  0
  3  6  1  0
  6  7  2  0
  6  8  1  0
  8  9  2  0
  9 10  1  0
 10 11  2  0
 11 12  1  0
 11 13  1  0
 13 14  1  0
 14 15  1  0
 13 16  2  0
 16  8  1  0
  1 17  1  0
  1 18  1  0
  1 19  1  0
  2 20  1  0
  2 21  1  0
  4 22  1  0
  4 23  1  0
  5 24  1  0
  5 25  1  0
  5 26  1  0
  9 27  1  0
 10 28  1  0
 12 29  1  0
 15 30  1  0
 15 31  1  0
 15 32  1  0
 16 33  1  0
M  END
>  <meeko>  (9) 
{"is_sidechain": [false], "free_energy": -5.988, "intermolecular_energy": -7.638, "internal_energy": -0.375}

$$$$
