2iwx_ligand
     RDKit          3D

 45 46  0  0  0  0  0  0  0  0999 V2000
   -4.8870    5.5570   -4.2650 O   0  0  0  0  0  0  0  0  0  0  0  0
   -5.1070    4.3540   -4.1150 C   0  0  0  0  0  0  0  0  0  0  0  0
   -5.7430    3.5110   -5.2150 C   0  0  0  0  0  0  0  0  0  0  0  0
   -6.4840    2.2980   -4.6530 C   0  0  0  0  0  0  0  0  0  0  0  0
   -5.8460    0.9870   -5.1250 C   0  0  0  0  0  0  0  0  0  0  0  0
   -5.3740    0.1330   -3.9270 C   0  0  0  0  0  0  0  0  0  0  0  0
   -6.1630    0.4090   -2.6400 C   0  0  0  0  0  0  0  0  0  0  0  0
   -5.3840    0.5140   -1.3500 C   0  0  0  0  0  0  0  0  0  0  0  0
   -4.0950    0.8640   -1.2070 C   0  0  0  0  0  0  0  0  0  0  0  0
   -3.3640    0.9090    0.1060 C   0  0  0  0  0  0  0  0  0  0  0  0
   -2.5960    2.2190    0.3000 C   0  0  0  0  0  0  0  0  0  0  0  0
   -2.5320    2.9490   -0.9390 O   0  0  0  0  0  0  0  0  0  0  0  0
   -2.5750    4.2930   -0.8190 C   0  0  0  0  0  0  0  0  0  0  0  0
   -1.6230    5.0530   -0.7100 O   0  0  0  0  0  0  0  0  0  0  0  0
   -3.9640    4.7770   -0.6770 C   0  0  0  0  0  0  0  0  0  0  0  0
   -4.2150    5.6340    0.4120 C   0  0  0  0  0  0  0  0  0  0  0  0
   -3.2350    6.0690    1.2680 O   0  0  0  0  0  0  0  0  0  0  0  0
   -5.4950    6.1060    0.6760 C   0  0  0  0  0  0  0  0  0  0  0  0
   -6.5360    5.7540   -0.1750 C   0  0  0  0  0  0  0  0  0  0  0  0
   -7.7970    6.2240    0.0790 O   0  0  0  0  0  0  0  0  0  0  0  0
   -6.3010    4.9450   -1.2980 C   0  0  0  0  0  0  0  0  0  0  0  0
   -7.6350    4.5830   -2.3540 Cl  0  0  0  0  0  0  0  0  0  0  0  0
   -5.0040    4.4510   -1.5790 C   0  0  0  0  0  0  0  0  0  0  0  0
   -4.7620    3.6260   -2.8270 C   0  0  0  0  0  0  0  0  0  0  0  0
   -6.4563    4.1354   -5.7729 H   0  0  0  0  0  0  0  0  0  0  0  0
   -4.9382    3.1437   -5.8688 H   0  0  0  0  0  0  0  0  0  0  0  0
   -6.4524    2.3365   -3.5541 H   0  0  0  0  0  0  0  0  0  0  0  0
   -7.5226    2.3281   -5.0141 H   0  0  0  0  0  0  0  0  0  0  0  0
   -6.5866    0.4154   -5.7036 H   0  0  0  0  0  0  0  0  0  0  0  0
   -4.9714    1.2290   -5.7467 H   0  0  0  0  0  0  0  0  0  0  0  0
   -5.4904   -0.9294   -4.1875 H   0  0  0  0  0  0  0  0  0  0  0  0
   -4.3245    0.3975   -3.7302 H   0  0  0  0  0  0  0  0  0  0  0  0
   -6.6978    1.3600   -2.7796 H   0  0  0  0  0  0  0  0  0  0  0  0
   -6.8016   -0.4770   -2.5089 H   0  0  0  0  0  0  0  0  0  0  0  0
   -5.9326    0.2779   -0.4262 H   0  0  0  0  0  0  0  0  0  0  0  0
   -3.5353    1.1367   -2.1138 H   0  0  0  0  0  0  0  0  0  0  0  0
   -4.0948    0.8036    0.9213 H   0  0  0  0  0  0  0  0  0  0  0  0
   -2.6331    0.0869    0.1121 H   0  0  0  0  0  0  0  0  0  0  0  0
   -3.1088    2.8317    1.0561 H   0  0  0  0  0  0  0  0  0  0  0  0
   -1.5732    1.9882    0.6324 H   0  0  0  0  0  0  0  0  0  0  0  0
   -2.4220    5.5390    1.1200 H   0  0  0  0  0  0  0  0  0  0  0  0
   -5.6821    6.7503    1.5477 H   0  0  0  0  0  0  0  0  0  0  0  0
   -7.9580    7.0250   -0.4470 H   0  0  0  0  0  0  0  0  0  0  0  0
   -3.6982    3.3481   -2.8591 H   0  0  0  0  0  0  0  0  0  0  0  0
   -5.4225    2.7485   -2.7661 H   0  0  0  0  0  0  0  0  0  0  0  0
  1  2  2  0
  2  3  1  0
  3  4  1  0
  4  5  1  0
  5  6  1  0
  6  7  1  0
  7  8  1  0
  8  9  2  0
  9 10  1  0
 10 11  1  0
 11 12  1  0
 12 13  1  0
 13 14  2  0
 13 15  1  0
 15 16  2  0
 16 17  1  0
 16 18  1  0
 18 19  2  0
 19 20  1  0
 19 21  1  0
 21 22  1  0
 21 23  2  0
 23 24  1  0
 24  2  1  0
 23 15  1  0
  3 25  1  0
  3 26  1  0
  4 27  1  0
  4 28  1  0
  5 29  1  0
  5 30  1  0
  6 31  1  0
  6 32  1  0
  7 33  1  0
  7 34  1  0
  8 35  1  0
  9 36  1  0
 10 37  1  0
 10 38  1  0
 11 39  1  0
 11 40  1  0
 17 41  1  0
 18 42  1  0
 20 43  1  0
 24 44  1  0
 24 45  1  0
M  END
>  <meeko>  (1) 
{"is_sidechain": [false], "free_energy": -5.286, "intermolecular_energy": -9.303, "internal_energy": -0.904}

$$$$
2iwx_ligand
     RDKit          3D

 45 46  0  0  0  0  0  0  0  0999 V2000
   -4.7250    2.3880   -3.1430 O   0  0  0  0  0  0  0  0  0  0  0  0
   -4.9020    1.6790   -2.1520 C   0  0  0  0  0  0  0  0  0  0  0  0
   -3.8080    0.7650   -1.6120 C   0  0  0  0  0  0  0  0  0  0  0  0
   -3.6080    0.9350   -0.1070 C   0  0  0  0  0  0  0  0  0  0  0  0
   -2.1540    1.2910    0.2260 C   0  0  0  0  0  0  0  0  0  0  0  0
   -2.0380    2.6780    0.8450 C   0  0  0  0  0  0  0  0  0  0  0  0
   -2.0960    3.7970   -0.2030 C   0  0  0  0  0  0  0  0  0  0  0  0
   -3.1960    4.8240   -0.0710 C   0  0  0  0  0  0  0  0  0  0  0  0
   -4.5200    4.5970   -0.0490 C   0  0  0  0  0  0  0  0  0  0  0  0
   -5.5690    5.6700    0.0420 C   0  0  0  0  0  0  0  0  0  0  0  0
   -6.2500    5.9340   -1.3040 C   0  0  0  0  0  0  0  0  0  0  0  0
   -6.6050    4.6900   -1.9370 O   0  0  0  0  0  0  0  0  0  0  0  0
   -7.8400    4.2290   -1.6480 C   0  0  0  0  0  0  0  0  0  0  0  0
   -8.6000    4.6470   -0.7860 O   0  0  0  0  0  0  0  0  0  0  0  0
   -8.1530    3.0080   -2.4200 C   0  0  0  0  0  0  0  0  0  0  0  0
   -9.2100    3.1120   -3.3450 C   0  0  0  0  0  0  0  0  0  0  0  0
   -9.8840    4.2820   -3.5880 O   0  0  0  0  0  0  0  0  0  0  0  0
   -9.6290    2.0130   -4.0850 C   0  0  0  0  0  0  0  0  0  0  0  0
   -8.9640    0.8020   -3.9350 C   0  0  0  0  0  0  0  0  0  0  0  0
   -9.3700   -0.2800   -4.6700 O   0  0  0  0  0  0  0  0  0  0  0  0
   -7.8720    0.6870   -3.0600 C   0  0  0  0  0  0  0  0  0  0  0  0
   -7.0490   -0.8420   -2.9560 Cl  0  0  0  0  0  0  0  0  0  0  0  0
   -7.4360    1.7950   -2.2940 C   0  0  0  0  0  0  0  0  0  0  0  0
   -6.2210    1.6640   -1.3970 C   0  0  0  0  0  0  0  0  0  0  0  0
   -4.0852   -0.2795   -1.8172 H   0  0  0  0  0  0  0  0  0  0  0  0
   -2.8653    1.0333   -2.1114 H   0  0  0  0  0  0  0  0  0  0  0  0
   -4.2653    1.7402    0.2530 H   0  0  0  0  0  0  0  0  0  0  0  0
   -3.8533   -0.0176    0.3853 H   0  0  0  0  0  0  0  0  0  0  0  0
   -1.7600    0.5499    0.9369 H   0  0  0  0  0  0  0  0  0  0  0  0
   -1.5778    1.2858   -0.7110 H   0  0  0  0  0  0  0  0  0  0  0  0
   -2.8660    2.8173    1.5557 H   0  0  0  0  0  0  0  0  0  0  0  0
   -1.0602    2.7395    1.3452 H   0  0  0  0  0  0  0  0  0  0  0  0
   -1.1373    4.3349   -0.1631 H   0  0  0  0  0  0  0  0  0  0  0  0
   -2.3088    3.2807   -1.1507 H   0  0  0  0  0  0  0  0  0  0  0  0
   -2.8779    5.8733    0.0168 H   0  0  0  0  0  0  0  0  0  0  0  0
   -4.8605    3.5523   -0.1013 H   0  0  0  0  0  0  0  0  0  0  0  0
   -6.3327    5.3571    0.7693 H   0  0  0  0  0  0  0  0  0  0  0  0
   -5.0722    6.6000    0.3554 H   0  0  0  0  0  0  0  0  0  0  0  0
   -7.1597    6.5301   -1.1397 H   0  0  0  0  0  0  0  0  0  0  0  0
   -5.5535    6.4814   -1.9561 H   0  0  0  0  0  0  0  0  0  0  0  0
   -9.3250    5.0380   -3.3070 H   0  0  0  0  0  0  0  0  0  0  0  0
  -10.4765    2.1005   -4.7808 H   0  0  0  0  0  0  0  0  0  0  0  0
  -10.2620   -0.5460   -4.3940 H   0  0  0  0  0  0  0  0  0  0  0  0
   -6.2231    2.5019   -0.6843 H   0  0  0  0  0  0  0  0  0  0  0  0
   -6.2943    0.6876   -0.8957 H   0  0  0  0  0  0  0  0  0  0  0  0
  1  2  2  0
  2  3  1  0
  3  4  1  0
  4  5  1  0
  5  6  1  0
  6  7  1  0
  7  8  1  0
  8  9  2  0
  9 10  1  0
 10 11  1  0
 11 12  1  0
 12 13  1  0
 13 14  2  0
 13 15  1  0
 15 16  2  0
 16 17  1  0
 16 18  1  0
 18 19  2  0
 19 20  1  0
 19 21  1  0
 21 22  1  0
 21 23  2  0
 23 24  1  0
 24  2  1  0
 23 15  1  0
  3 25  1  0
  3 26  1  0
  4 27  1  0
  4 28  1  0
  5 29  1  0
  5 30  1  0
  6 31  1  0
  6 32  1  0
  7 33  1  0
  7 34  1  0
  8 35  1  0
  9 36  1  0
 10 37  1  0
 10 38  1  0
 11 39  1  0
 11 40  1  0
 17 41  1  0
 18 42  1  0
 20 43  1  0
 24 44  1  0
 24 45  1  0
M  END
>  <meeko>  (2) 
{"is_sidechain": [false], "free_energy": -5.236, "intermolecular_energy": -8.746, "internal_energy": -1.373}

$$$$
2iwx_ligand
     RDKit          3D

 45 46  0  0  0  0  0  0  0  0999 V2000
   -4.7130    4.2400   -6.0080 O   0  0  0  0  0  0  0  0  0  0  0  0
   -5.7740    3.8360   -5.5320 C   0  0  0  0  0  0  0  0  0  0  0  0
   -6.2390    4.2500   -4.1400 C   0  0  0  0  0  0  0  0  0  0  0  0
   -5.3730    5.3650   -3.5530 C   0  0  0  0  0  0  0  0  0  0  0  0
   -5.8030    5.7100   -2.1230 C   0  0  0  0  0  0  0  0  0  0  0  0
   -4.8440    5.1090   -1.0720 C   0  0  0  0  0  0  0  0  0  0  0  0
   -5.4860    3.9690   -0.2700 C   0  0  0  0  0  0  0  0  0  0  0  0
   -5.3280    2.5640   -0.8010 C   0  0  0  0  0  0  0  0  0  0  0  0
   -4.2210    2.0160   -1.3300 C   0  0  0  0  0  0  0  0  0  0  0  0
   -4.1400    0.6200   -1.8820 C   0  0  0  0  0  0  0  0  0  0  0  0
   -5.4220    0.2070   -2.6100 C   0  0  0  0  0  0  0  0  0  0  0  0
   -5.1670    0.0490   -4.0180 O   0  0  0  0  0  0  0  0  0  0  0  0
   -6.2270    0.2760   -4.8230 C   0  0  0  0  0  0  0  0  0  0  0  0
   -7.4100    0.2020   -4.5230 O   0  0  0  0  0  0  0  0  0  0  0  0
   -5.8020    0.4940   -6.2220 C   0  0  0  0  0  0  0  0  0  0  0  0
   -5.2250   -0.6120   -6.8750 C   0  0  0  0  0  0  0  0  0  0  0  0
   -5.1110   -1.8510   -6.2980 O   0  0  0  0  0  0  0  0  0  0  0  0
   -4.7380   -0.5080   -8.1730 C   0  0  0  0  0  0  0  0  0  0  0  0
   -4.8610    0.7010   -8.8480 C   0  0  0  0  0  0  0  0  0  0  0  0
   -4.3890    0.8030  -10.1290 O   0  0  0  0  0  0  0  0  0  0  0  0
   -5.4830    1.8020   -8.2370 C   0  0  0  0  0  0  0  0  0  0  0  0
   -5.6530    3.2710   -9.1530 Cl  0  0  0  0  0  0  0  0  0  0  0  0
   -5.9790    1.7150   -6.9150 C   0  0  0  0  0  0  0  0  0  0  0  0
   -6.6950    2.8980   -6.2950 C   0  0  0  0  0  0  0  0  0  0  0  0
   -7.2784    4.6044   -4.2039 H   0  0  0  0  0  0  0  0  0  0  0  0
   -6.1563    3.3736   -3.4804 H   0  0  0  0  0  0  0  0  0  0  0  0
   -4.3236    5.0354   -3.5419 H   0  0  0  0  0  0  0  0  0  0  0  0
   -5.4925    6.2626   -4.1775 H   0  0  0  0  0  0  0  0  0  0  0  0
   -5.8145    6.8041   -2.0094 H   0  0  0  0  0  0  0  0  0  0  0  0
   -6.8029    5.2832   -1.9555 H   0  0  0  0  0  0  0  0  0  0  0  0
   -3.9549    4.7187   -1.5889 H   0  0  0  0  0  0  0  0  0  0  0  0
   -4.5832    5.9089   -0.3633 H   0  0  0  0  0  0  0  0  0  0  0  0
   -5.0491    3.9902    0.7393 H   0  0  0  0  0  0  0  0  0  0  0  0
   -6.5669    4.1665   -0.3209 H   0  0  0  0  0  0  0  0  0  0  0  0
   -6.2170    1.9182   -0.7490 H   0  0  0  0  0  0  0  0  0  0  0  0
   -3.3102    2.6320   -1.3614 H   0  0  0  0  0  0  0  0  0  0  0  0
   -3.2992    0.5677   -2.5893 H   0  0  0  0  0  0  0  0  0  0  0  0
   -3.9972   -0.0683   -1.0359 H   0  0  0  0  0  0  0  0  0  0  0  0
   -5.7829   -0.7466   -2.1971 H   0  0  0  0  0  0  0  0  0  0  0  0
   -6.1820    0.9897   -2.4691 H   0  0  0  0  0  0  0  0  0  0  0  0
   -5.9290   -2.3650   -6.4790 H   0  0  0  0  0  0  0  0  0  0  0  0
   -4.2613   -1.3716   -8.6598 H   0  0  0  0  0  0  0  0  0  0  0  0
   -5.0700    1.2010  -10.6960 H   0  0  0  0  0  0  0  0  0  0  0  0
   -7.1840    3.4684   -7.0984 H   0  0  0  0  0  0  0  0  0  0  0  0
   -7.4164    2.4940   -5.5695 H   0  0  0  0  0  0  0  0  0  0  0  0
  1  2  2  0
  2  3  1  0
  3  4  1  0
  4  5  1  0
  5  6  1  0
  6  7  1  0
  7  8  1  0
  8  9  2  0
  9 10  1  0
 10 11  1  0
 11 12  1  0
 12 13  1  0
 13 14  2  0
 13 15  1  0
 15 16  2  0
 16 17  1  0
 16 18  1  0
 18 19  2  0
 19 20  1  0
 19 21  1  0
 21 22  1  0
 21 23  2  0
 23 24  1  0
 24  2  1  0
 23 15  1  0
  3 25  1  0
  3 26  1  0
  4 27  1  0
  4 28  1  0
  5 29  1  0
  5 30  1  0
  6 31  1  0
  6 32  1  0
  7 33  1  0
  7 34  1  0
  8 35  1  0
  9 36  1  0
 10 37  1  0
 10 38  1  0
 11 39  1  0
 11 40  1  0
 17 41  1  0
 18 42  1  0
 20 43  1  0
 24 44  1  0
 24 45  1  0
M  END
>  <meeko>  (3) 
{"is_sidechain": [false], "free_energy": -5.09, "intermolecular_energy": -8.738, "internal_energy": -1.124}

$$$$
2iwx_ligand
     RDKit          3D

 45 46  0  0  0  0  0  0  0  0999 V2000
   -6.4520    1.8370   -1.7680 O   0  0  0  0  0  0  0  0  0  0  0  0
   -5.4810    1.1290   -2.0400 C   0  0  0  0  0  0  0  0  0  0  0  0
   -4.4710    0.7090   -0.9770 C   0  0  0  0  0  0  0  0  0  0  0  0
   -3.1860    1.5340   -1.0480 C   0  0  0  0  0  0  0  0  0  0  0  0
   -2.9260    2.2750    0.2690 C   0  0  0  0  0  0  0  0  0  0  0  0
   -2.9970    3.8030    0.0910 C   0  0  0  0  0  0  0  0  0  0  0  0
   -4.4130    4.3560    0.3020 C   0  0  0  0  0  0  0  0  0  0  0  0
   -5.1020    4.9880   -0.8840 C   0  0  0  0  0  0  0  0  0  0  0  0
   -4.7750    4.8520   -2.1800 C   0  0  0  0  0  0  0  0  0  0  0  0
   -5.4780    5.5440   -3.3140 C   0  0  0  0  0  0  0  0  0  0  0  0
   -5.3940    4.7500   -4.6210 C   0  0  0  0  0  0  0  0  0  0  0  0
   -6.2500    3.5950   -4.5600 O   0  0  0  0  0  0  0  0  0  0  0  0
   -6.0540    2.6810   -5.5340 C   0  0  0  0  0  0  0  0  0  0  0  0
   -5.4330    2.8360   -6.5760 O   0  0  0  0  0  0  0  0  0  0  0  0
   -6.8240    1.4460   -5.2760 C   0  0  0  0  0  0  0  0  0  0  0  0
   -7.9420    1.2280   -6.1040 C   0  0  0  0  0  0  0  0  0  0  0  0
   -8.2830    2.0580   -7.1420 O   0  0  0  0  0  0  0  0  0  0  0  0
   -8.7730    0.1300   -5.9170 C   0  0  0  0  0  0  0  0  0  0  0  0
   -8.4690   -0.7880   -4.9190 C   0  0  0  0  0  0  0  0  0  0  0  0
   -9.2810   -1.8760   -4.7390 O   0  0  0  0  0  0  0  0  0  0  0  0
   -7.3280   -0.6210   -4.1160 C   0  0  0  0  0  0  0  0  0  0  0  0
   -6.9730   -1.8320   -2.9190 Cl  0  0  0  0  0  0  0  0  0  0  0  0
   -6.4750    0.4940   -4.2890 C   0  0  0  0  0  0  0  0  0  0  0  0
   -5.2200    0.6260   -3.4490 C   0  0  0  0  0  0  0  0  0  0  0  0
   -4.9245    0.8433    0.0161 H   0  0  0  0  0  0  0  0  0  0  0  0
   -4.2082   -0.3440   -1.1562 H   0  0  0  0  0  0  0  0  0  0  0  0
   -2.3398    0.8621   -1.2542 H   0  0  0  0  0  0  0  0  0  0  0  0
   -3.2957    2.2791   -1.8497 H   0  0  0  0  0  0  0  0  0  0  0  0
   -3.6825    1.9671    1.0058 H   0  0  0  0  0  0  0  0  0  0  0  0
   -1.9125    2.0180    0.6108 H   0  0  0  0  0  0  0  0  0  0  0  0
   -2.3222    4.2745    0.8206 H   0  0  0  0  0  0  0  0  0  0  0  0
   -2.7001    4.0324   -0.9431 H   0  0  0  0  0  0  0  0  0  0  0  0
   -5.0442    3.5222    0.6431 H   0  0  0  0  0  0  0  0  0  0  0  0
   -4.2868    5.1782    1.0218 H   0  0  0  0  0  0  0  0  0  0  0  0
   -5.9669    5.6305   -0.6623 H   0  0  0  0  0  0  0  0  0  0  0  0
   -3.9341    4.1878   -2.4285 H   0  0  0  0  0  0  0  0  0  0  0  0
   -6.5370    5.6744   -3.0467 H   0  0  0  0  0  0  0  0  0  0  0  0
   -4.9824    6.5125   -3.4762 H   0  0  0  0  0  0  0  0  0  0  0  0
   -5.7099    5.3920   -5.4565 H   0  0  0  0  0  0  0  0  0  0  0  0
   -4.3561    4.4184   -4.7719 H   0  0  0  0  0  0  0  0  0  0  0  0
   -7.6520    2.8100   -7.1720 H   0  0  0  0  0  0  0  0  0  0  0  0
   -9.6606   -0.0108   -6.5513 H   0  0  0  0  0  0  0  0  0  0  0  0
   -9.8010   -2.0310   -5.5440 H   0  0  0  0  0  0  0  0  0  0  0  0
   -4.7408   -0.3619   -3.3823 H   0  0  0  0  0  0  0  0  0  0  0  0
   -4.5781    1.3701   -3.9432 H   0  0  0  0  0  0  0  0  0  0  0  0
  1  2  2  0
  2  3  1  0
  3  4  1  0
  4  5  1  0
  5  6  1  0
  6  7  1  0
  7  8  1  0
  8  9  2  0
  9 10  1  0
 10 11  1  0
 11 12  1  0
 12 13  1  0
 13 14  2  0
 13 15  1  0
 15 16  2  0
 16 17  1  0
 16 18  1  0
 18 19  2  0
 19 20  1  0
 19 21  1  0
 21 22  1  0
 21 23  2  0
 23 24  1  0
 24  2  1  0
 23 15  1  0
  3 25  1  0
  3 26  1  0
  4 27  1  0
  4 28  1  0
  5 29  1  0
  5 30  1  0
  6 31  1  0
  6 32  1  0
  7 33  1  0
  7 34  1  0
  8 35  1  0
  9 36  1  0
 10 37  1  0
 10 38  1  0
 11 39  1  0
 11 40  1  0
 17 41  1  0
 18 42  1  0
 20 43  1  0
 24 44  1  0
 24 45  1  0
M  END
>  <meeko>  (4) 
{"is_sidechain": [false], "free_energy": -4.92, "intermolecular_energy": -7.966, "internal_energy": -1.596}

$$$$
2iwx_ligand
     RDKit          3D

 45 46  0  0  0  0  0  0  0  0999 V2000
   -4.3430    0.4170   -2.6240 O   0  0  0  0  0  0  0  0  0  0  0  0
   -5.0510    0.8740   -1.7260 C   0  0  0  0  0  0  0  0  0  0  0  0
   -6.5500    1.0840   -1.9140 C   0  0  0  0  0  0  0  0  0  0  0  0
   -7.0540    0.4810   -3.2250 C   0  0  0  0  0  0  0  0  0  0  0  0
   -8.3010    1.2150   -3.7330 C   0  0  0  0  0  0  0  0  0  0  0  0
   -8.0770    1.8390   -5.1280 C   0  0  0  0  0  0  0  0  0  0  0  0
   -6.7390    2.5770   -5.2670 C   0  0  0  0  0  0  0  0  0  0  0  0
   -6.5850    3.8940   -4.5440 C   0  0  0  0  0  0  0  0  0  0  0  0
   -5.5350    4.2990   -3.8100 C   0  0  0  0  0  0  0  0  0  0  0  0
   -5.4610    5.6090   -3.0780 C   0  0  0  0  0  0  0  0  0  0  0  0
   -6.0470    5.5210   -1.6660 C   0  0  0  0  0  0  0  0  0  0  0  0
   -5.7900    4.2240   -1.0980 O   0  0  0  0  0  0  0  0  0  0  0  0
   -5.0460    4.2260    0.0290 C   0  0  0  0  0  0  0  0  0  0  0  0
   -5.3520    4.7020    1.1120 O   0  0  0  0  0  0  0  0  0  0  0  0
   -3.6890    3.6960   -0.2220 C   0  0  0  0  0  0  0  0  0  0  0  0
   -2.6420    4.6370   -0.1960 C   0  0  0  0  0  0  0  0  0  0  0  0
   -2.8270    5.9620    0.1090 O   0  0  0  0  0  0  0  0  0  0  0  0
   -1.3310    4.2630   -0.4720 C   0  0  0  0  0  0  0  0  0  0  0  0
   -1.0500    2.9290   -0.7410 C   0  0  0  0  0  0  0  0  0  0  0  0
    0.2410    2.5570   -1.0050 O   0  0  0  0  0  0  0  0  0  0  0  0
   -2.0700    1.9630   -0.7180 C   0  0  0  0  0  0  0  0  0  0  0  0
   -1.6450    0.3020   -1.0110 Cl  0  0  0  0  0  0  0  0  0  0  0  0
   -3.4090    2.3270   -0.4440 C   0  0  0  0  0  0  0  0  0  0  0  0
   -4.4850    1.2610   -0.3700 C   0  0  0  0  0  0  0  0  0  0  0  0
   -7.0826    0.6090   -1.0770 H   0  0  0  0  0  0  0  0  0  0  0  0
   -6.7397    2.1671   -1.9438 H   0  0  0  0  0  0  0  0  0  0  0  0
   -6.2602    0.5566   -3.9827 H   0  0  0  0  0  0  0  0  0  0  0  0
   -7.3201   -0.5708   -3.0437 H   0  0  0  0  0  0  0  0  0  0  0  0
   -9.1342    0.4994   -3.7937 H   0  0  0  0  0  0  0  0  0  0  0  0
   -8.5264    2.0294   -3.0287 H   0  0  0  0  0  0  0  0  0  0  0  0
   -8.1091    1.0344   -5.8774 H   0  0  0  0  0  0  0  0  0  0  0  0
   -8.8719    2.5845   -5.2776 H   0  0  0  0  0  0  0  0  0  0  0  0
   -5.9525    1.9040   -4.8948 H   0  0  0  0  0  0  0  0  0  0  0  0
   -6.6743    2.8365   -6.3340 H   0  0  0  0  0  0  0  0  0  0  0  0
   -7.4250    4.5993   -4.6275 H   0  0  0  0  0  0  0  0  0  0  0  0
   -4.6690    3.6243   -3.7401 H   0  0  0  0  0  0  0  0  0  0  0  0
   -4.4067    5.9140   -3.0048 H   0  0  0  0  0  0  0  0  0  0  0  0
   -6.0540    6.3434   -3.6427 H   0  0  0  0  0  0  0  0  0  0  0  0
   -5.5847    6.2925   -1.0326 H   0  0  0  0  0  0  0  0  0  0  0  0
   -7.1343    5.6788   -1.7196 H   0  0  0  0  0  0  0  0  0  0  0  0
   -2.4390    6.5120   -0.6060 H   0  0  0  0  0  0  0  0  0  0  0  0
   -0.5270    5.0137   -0.4773 H   0  0  0  0  0  0  0  0  0  0  0  0
    0.3420    1.6020   -0.8560 H   0  0  0  0  0  0  0  0  0  0  0  0
   -4.0535    0.3629    0.0961 H   0  0  0  0  0  0  0  0  0  0  0  0
   -5.3145    1.6798    0.2186 H   0  0  0  0  0  0  0  0  0  0  0  0
  1  2  2  0
  2  3  1  0
  3  4  1  0
  4  5  1  0
  5  6  1  0
  6  7  1  0
  7  8  1  0
  8  9  2  0
  9 10  1  0
 10 11  1  0
 11 12  1  0
 12 13  1  0
 13 14  2  0
 13 15  1  0
 15 16  2  0
 16 17  1  0
 16 18  1  0
 18 19  2  0
 19 20  1  0
 19 21  1  0
 21 22  1  0
 21 23  2  0
 23 24  1  0
 24  2  1  0
 23 15  1  0
  3 25  1  0
  3 26  1  0
  4 27  1  0
  4 28  1  0
  5 29  1  0
  5 30  1  0
  6 31  1  0
  6 32  1  0
  7 33  1  0
  7 34  1  0
  8 35  1  0
  9 36  1  0
 10 37  1  0
 10 38  1  0
 11 39  1  0
 11 40  1  0
 17 41  1  0
 18 42  1  0
 20 43  1  0
 24 44  1  0
 24 45  1  0
M  END
>  <meeko>  (5) 
{"is_sidechain": [false], "free_energy": -4.912, "intermolecular_energy": -8.253, "internal_energy": -1.297}

$$$$
2iwx_ligand
     RDKit          3D

 45 46  0  0  0  0  0  0  0  0999 V2000
   -4.6970    1.0910   -3.1970 O   0  0  0  0  0  0  0  0  0  0  0  0
   -5.5980    0.6370   -2.4910 C   0  0  0  0  0  0  0  0  0  0  0  0
   -6.4530   -0.5440   -2.9390 C   0  0  0  0  0  0  0  0  0  0  0  0
   -7.7890   -0.0930   -3.5300 C   0  0  0  0  0  0  0  0  0  0  0  0
   -8.1390   -0.8940   -4.7900 C   0  0  0  0  0  0  0  0  0  0  0  0
   -8.1640   -0.0090   -6.0500 C   0  0  0  0  0  0  0  0  0  0  0  0
   -6.7650    0.2950   -6.6030 C   0  0  0  0  0  0  0  0  0  0  0  0
   -6.1710    1.6490   -6.2990 C   0  0  0  0  0  0  0  0  0  0  0  0
   -6.7560    2.6630   -5.6380 C   0  0  0  0  0  0  0  0  0  0  0  0
   -6.1240    4.0060   -5.4040 C   0  0  0  0  0  0  0  0  0  0  0  0
   -5.9150    4.3000   -3.9160 C   0  0  0  0  0  0  0  0  0  0  0  0
   -6.8920    3.5960   -3.1260 O   0  0  0  0  0  0  0  0  0  0  0  0
   -6.9760    3.9840   -1.8360 C   0  0  0  0  0  0  0  0  0  0  0  0
   -7.9150    4.5520   -1.2970 O   0  0  0  0  0  0  0  0  0  0  0  0
   -5.6960    3.7740   -1.1270 C   0  0  0  0  0  0  0  0  0  0  0  0
   -5.0110    4.9380   -0.7270 C   0  0  0  0  0  0  0  0  0  0  0  0
   -5.5090    6.2040   -0.9070 O   0  0  0  0  0  0  0  0  0  0  0  0
   -3.7710    4.8650   -0.1020 C   0  0  0  0  0  0  0  0  0  0  0  0
   -3.2200    3.6170    0.1640 C   0  0  0  0  0  0  0  0  0  0  0  0
   -2.0030    3.5420    0.7870 O   0  0  0  0  0  0  0  0  0  0  0  0
   -3.9100    2.4420   -0.1760 C   0  0  0  0  0  0  0  0  0  0  0  0
   -3.1900    0.9110    0.2320 Cl  0  0  0  0  0  0  0  0  0  0  0  0
   -5.1700    2.4980   -0.8170 C   0  0  0  0  0  0  0  0  0  0  0  0
   -5.9220    1.2190   -1.1250 C   0  0  0  0  0  0  0  0  0  0  0  0
   -5.9011   -1.1126   -3.7020 H   0  0  0  0  0  0  0  0  0  0  0  0
   -6.6646   -1.1644   -2.0556 H   0  0  0  0  0  0  0  0  0  0  0  0
   -8.5805   -0.2401   -2.7804 H   0  0  0  0  0  0  0  0  0  0  0  0
   -7.7065    0.9688   -3.8051 H   0  0  0  0  0  0  0  0  0  0  0  0
   -7.3877   -1.6856   -4.9273 H   0  0  0  0  0  0  0  0  0  0  0  0
   -9.1448   -1.3181   -4.6536 H   0  0  0  0  0  0  0  0  0  0  0  0
   -8.7431   -0.5263   -6.8291 H   0  0  0  0  0  0  0  0  0  0  0  0
   -8.6191    0.9513   -5.7660 H   0  0  0  0  0  0  0  0  0  0  0  0
   -6.0792   -0.4635   -6.1976 H   0  0  0  0  0  0  0  0  0  0  0  0
   -6.8889    0.2840   -7.6959 H   0  0  0  0  0  0  0  0  0  0  0  0
   -5.1463    1.8255   -6.6580 H   0  0  0  0  0  0  0  0  0  0  0  0
   -7.7683    2.4979   -5.2406 H   0  0  0  0  0  0  0  0  0  0  0  0
   -5.1474    4.0300   -5.9096 H   0  0  0  0  0  0  0  0  0  0  0  0
   -6.8040    4.7718   -5.8055 H   0  0  0  0  0  0  0  0  0  0  0  0
   -4.9066    3.9753   -3.6200 H   0  0  0  0  0  0  0  0  0  0  0  0
   -6.0278    5.3808   -3.7452 H   0  0  0  0  0  0  0  0  0  0  0  0
   -6.3010    6.1570   -1.4850 H   0  0  0  0  0  0  0  0  0  0  0  0
   -3.2333    5.7828    0.1782 H   0  0  0  0  0  0  0  0  0  0  0  0
   -2.1190    3.2010    1.6890 H   0  0  0  0  0  0  0  0  0  0  0  0
   -5.6661    0.4720   -0.3591 H   0  0  0  0  0  0  0  0  0  0  0  0
   -6.9937    1.4670   -1.1258 H   0  0  0  0  0  0  0  0  0  0  0  0
  1  2  2  0
  2  3  1  0
  3  4  1  0
  4  5  1  0
  5  6  1  0
  6  7  1  0
  7  8  1  0
  8  9  2  0
  9 10  1  0
 10 11  1  0
 11 12  1  0
 12 13  1  0
 13 14  2  0
 13 15  1  0
 15 16  2  0
 16 17  1  0
 16 18  1  0
 18 19  2  0
 19 20  1  0
 19 21  1  0
 21 22  1  0
 21 23  2  0
 23 24  1  0
 24  2  1  0
 23 15  1  0
  3 25  1  0
  3 26  1  0
  4 27  1  0
  4 28  1  0
  5 29  1  0
  5 30  1  0
  6 31  1  0
  6 32  1  0
  7 33  1  0
  7 34  1  0
  8 35  1  0
  9 36  1  0
 10 37  1  0
 10 38  1  0
 11 39  1  0
 11 40  1  0
 17 41  1  0
 18 42  1  0
 20 43  1  0
 24 44  1  0
 24 45  1  0
M  END
>  <meeko>  (6) 
{"is_sidechain": [false], "free_energy": -4.904, "intermolecular_energy": -8.135, "internal_energy": -1.401}

$$$$
2iwx_ligand
     RDKit          3D

 45 46  0  0  0  0  0  0  0  0999 V2000
   -4.7720    0.1060   -3.3350 O   0  0  0  0  0  0  0  0  0  0  0  0
   -5.8790    0.0240   -2.8010 C   0  0  0  0  0  0  0  0  0  0  0  0
   -6.8410   -1.1150   -3.1180 C   0  0  0  0  0  0  0  0  0  0  0  0
   -7.0810   -1.2640   -4.6200 C   0  0  0  0  0  0  0  0  0  0  0  0
   -8.4860   -1.8040   -4.9090 C   0  0  0  0  0  0  0  0  0  0  0  0
   -9.3970   -0.7210   -5.5110 C   0  0  0  0  0  0  0  0  0  0  0  0
  -10.1700    0.0600   -4.4410 C   0  0  0  0  0  0  0  0  0  0  0  0
   -9.6570    1.4290   -4.0630 C   0  0  0  0  0  0  0  0  0  0  0  0
  -10.2700    2.6090   -4.2610 C   0  0  0  0  0  0  0  0  0  0  0  0
   -9.6850    3.9450   -3.9000 C   0  0  0  0  0  0  0  0  0  0  0  0
   -8.6770    3.8480   -2.7520 C   0  0  0  0  0  0  0  0  0  0  0  0
   -7.4260    4.4510   -3.1330 O   0  0  0  0  0  0  0  0  0  0  0  0
   -6.4500    3.5830   -3.4750 C   0  0  0  0  0  0  0  0  0  0  0  0
   -6.3810    2.9190   -4.5000 O   0  0  0  0  0  0  0  0  0  0  0  0
   -5.4890    3.3910   -2.3690 C   0  0  0  0  0  0  0  0  0  0  0  0
   -4.6480    4.4840   -2.0820 C   0  0  0  0  0  0  0  0  0  0  0  0
   -4.7370    5.6920   -2.7260 O   0  0  0  0  0  0  0  0  0  0  0  0
   -3.6670    4.3980   -1.1010 C   0  0  0  0  0  0  0  0  0  0  0  0
   -3.5440    3.2250   -0.3660 C   0  0  0  0  0  0  0  0  0  0  0  0
   -2.5840    3.1420    0.6070 O   0  0  0  0  0  0  0  0  0  0  0  0
   -4.4070    2.1420   -0.5970 C   0  0  0  0  0  0  0  0  0  0  0  0
   -4.2370    0.7210    0.3920 Cl  0  0  0  0  0  0  0  0  0  0  0  0
   -5.4070    2.2100   -1.5960 C   0  0  0  0  0  0  0  0  0  0  0  0
   -6.3640    1.0500   -1.7900 C   0  0  0  0  0  0  0  0  0  0  0  0
   -6.4183   -2.0541   -2.7315 H   0  0  0  0  0  0  0  0  0  0  0  0
   -7.8058   -0.8857   -2.6420 H   0  0  0  0  0  0  0  0  0  0  0  0
   -6.9695   -0.2805   -5.0999 H   0  0  0  0  0  0  0  0  0  0  0  0
   -6.3458   -1.9779   -5.0198 H   0  0  0  0  0  0  0  0  0  0  0  0
   -8.4078   -2.6399   -5.6197 H   0  0  0  0  0  0  0  0  0  0  0  0
   -8.9288   -2.1361   -3.9584 H   0  0  0  0  0  0  0  0  0  0  0  0
   -8.7758   -0.0155   -6.0823 H   0  0  0  0  0  0  0  0  0  0  0  0
  -10.1340   -1.2247   -6.1538 H   0  0  0  0  0  0  0  0  0  0  0  0
  -11.2004    0.1844   -4.8054 H   0  0  0  0  0  0  0  0  0  0  0  0
  -10.0607   -0.5402   -3.5257 H   0  0  0  0  0  0  0  0  0  0  0  0
   -8.6735    1.4647   -3.5716 H   0  0  0  0  0  0  0  0  0  0  0  0
  -11.2698    2.5954   -4.7194 H   0  0  0  0  0  0  0  0  0  0  0  0
   -9.1762    4.3585   -4.7833 H   0  0  0  0  0  0  0  0  0  0  0  0
  -10.5090    4.5945   -3.5697 H   0  0  0  0  0  0  0  0  0  0  0  0
   -9.0785    4.3708   -1.8714 H   0  0  0  0  0  0  0  0  0  0  0  0
   -8.5056    2.7876   -2.5150 H   0  0  0  0  0  0  0  0  0  0  0  0
   -5.0470    6.3720   -2.0900 H   0  0  0  0  0  0  0  0  0  0  0  0
   -2.9961    5.2482   -0.9088 H   0  0  0  0  0  0  0  0  0  0  0  0
   -1.7520    3.5200    0.2770 H   0  0  0  0  0  0  0  0  0  0  0  0
   -6.5009    0.5464   -0.8217 H   0  0  0  0  0  0  0  0  0  0  0  0
   -7.3035    1.4685   -2.1802 H   0  0  0  0  0  0  0  0  0  0  0  0
  1  2  2  0
  2  3  1  0
  3  4  1  0
  4  5  1  0
  5  6  1  0
  6  7  1  0
  7  8  1  0
  8  9  2  0
  9 10  1  0
 10 11  1  0
 11 12  1  0
 12 13  1  0
 13 14  2  0
 13 15  1  0
 15 16  2  0
 16 17  1  0
 16 18  1  0
 18 19  2  0
 19 20  1  0
 19 21  1  0
 21 22  1  0
 21 23  2  0
 23 24  1  0
 24  2  1  0
 23 15  1  0
  3 25  1  0
  3 26  1  0
  4 27  1  0
  4 28  1  0
  5 29  1  0
  5 30  1  0
  6 31  1  0
  6 32  1  0
  7 33  1  0
  7 34  1  0
  8 35  1  0
  9 36  1  0
 10 37  1  0
 10 38  1  0
 11 39  1  0
 11 40  1  0
 17 41  1  0
 18 42  1  0
 20 43  1  0
 24 44  1  0
 24 45  1  0
M  END
>  <meeko>  (7) 
{"is_sidechain": [false], "free_energy": -4.883, "intermolecular_energy": -8.034, "internal_energy": -1.465}

$$$$
2iwx_ligand
     RDKit          3D

 45 46  0  0  0  0  0  0  0  0999 V2000
   -4.7320    4.0470   -4.1330 O   0  0  0  0  0  0  0  0  0  0  0  0
   -5.3330    3.0220   -3.8080 C   0  0  0  0  0  0  0  0  0  0  0  0
   -5.5790    1.8880   -4.7970 C   0  0  0  0  0  0  0  0  0  0  0  0
   -6.9500    1.2420   -4.6000 C   0  0  0  0  0  0  0  0  0  0  0  0
   -7.8460    1.4510   -5.8270 C   0  0  0  0  0  0  0  0  0  0  0  0
   -9.0950    2.2870   -5.4960 C   0  0  0  0  0  0  0  0  0  0  0  0
   -9.3030    2.4580   -3.9850 C   0  0  0  0  0  0  0  0  0  0  0  0
   -9.4890    3.8610   -3.4570 C   0  0  0  0  0  0  0  0  0  0  0  0
   -9.0150    4.3630   -2.3040 C   0  0  0  0  0  0  0  0  0  0  0  0
   -9.2710    5.7600   -1.8140 C   0  0  0  0  0  0  0  0  0  0  0  0
   -8.3610    6.1420   -0.6420 C   0  0  0  0  0  0  0  0  0  0  0  0
   -7.3180    5.1630   -0.4810 O   0  0  0  0  0  0  0  0  0  0  0  0
   -6.1210    5.5060   -1.0030 C   0  0  0  0  0  0  0  0  0  0  0  0
   -5.8890    6.4300   -1.7690 O   0  0  0  0  0  0  0  0  0  0  0  0
   -5.0790    4.5170   -0.6550 C   0  0  0  0  0  0  0  0  0  0  0  0
   -4.2370    4.8560    0.4220 C   0  0  0  0  0  0  0  0  0  0  0  0
   -4.3920    5.9970    1.1680 O   0  0  0  0  0  0  0  0  0  0  0  0
   -3.1860    4.0290    0.8020 C   0  0  0  0  0  0  0  0  0  0  0  0
   -2.9920    2.8280    0.1300 C   0  0  0  0  0  0  0  0  0  0  0  0
   -1.9630    2.0080    0.5090 O   0  0  0  0  0  0  0  0  0  0  0  0
   -3.8520    2.4430   -0.9110 C   0  0  0  0  0  0  0  0  0  0  0  0
   -3.5880    0.9040   -1.6780 Cl  0  0  0  0  0  0  0  0  0  0  0  0
   -4.9230    3.2760   -1.3150 C   0  0  0  0  0  0  0  0  0  0  0  0
   -5.8720    2.8150   -2.4030 C   0  0  0  0  0  0  0  0  0  0  0  0
   -5.5195    2.2896   -5.8193 H   0  0  0  0  0  0  0  0  0  0  0  0
   -4.8131    1.1171   -4.6264 H   0  0  0  0  0  0  0  0  0  0  0  0
   -6.8170    0.1629   -4.4331 H   0  0  0  0  0  0  0  0  0  0  0  0
   -7.4344    1.7133   -3.7321 H   0  0  0  0  0  0  0  0  0  0  0  0
   -7.2671    1.9708   -6.6046 H   0  0  0  0  0  0  0  0  0  0  0  0
   -8.1820    0.4625   -6.1734 H   0  0  0  0  0  0  0  0  0  0  0  0
   -8.9848    3.2820   -5.9519 H   0  0  0  0  0  0  0  0  0  0  0  0
   -9.9701    1.7541   -5.8961 H   0  0  0  0  0  0  0  0  0  0  0  0
  -10.1984    1.8816   -3.7092 H   0  0  0  0  0  0  0  0  0  0  0  0
   -8.3610    2.1132   -3.5335 H   0  0  0  0  0  0  0  0  0  0  0  0
  -10.0767    4.5468   -4.0849 H   0  0  0  0  0  0  0  0  0  0  0  0
   -8.3966    3.7054   -1.6754 H   0  0  0  0  0  0  0  0  0  0  0  0
   -9.0953    6.4628   -2.6418 H   0  0  0  0  0  0  0  0  0  0  0  0
  -10.3117    5.8069   -1.4607 H   0  0  0  0  0  0  0  0  0  0  0  0
   -7.9088    7.1252   -0.8389 H   0  0  0  0  0  0  0  0  0  0  0  0
   -8.9608    6.1814    0.2793 H   0  0  0  0  0  0  0  0  0  0  0  0
   -3.9100    6.7330    0.7320 H   0  0  0  0  0  0  0  0  0  0  0  0
   -2.5164    4.3216    1.6242 H   0  0  0  0  0  0  0  0  0  0  0  0
   -1.6250    1.5300   -0.2670 H   0  0  0  0  0  0  0  0  0  0  0  0
   -6.0693    1.7422   -2.2608 H   0  0  0  0  0  0  0  0  0  0  0  0
   -6.7841    3.4235   -2.3145 H   0  0  0  0  0  0  0  0  0  0  0  0
  1  2  2  0
  2  3  1  0
  3  4  1  0
  4  5  1  0
  5  6  1  0
  6  7  1  0
  7  8  1  0
  8  9  2  0
  9 10  1  0
 10 11  1  0
 11 12  1  0
 12 13  1  0
 13 14  2  0
 13 15  1  0
 15 16  2  0
 16 17  1  0
 16 18  1  0
 18 19  2  0
 19 20  1  0
 19 21  1  0
 21 22  1  0
 21 23  2  0
 23 24  1  0
 24  2  1  0
 23 15  1  0
  3 25  1  0
  3 26  1  0
  4 27  1  0
  4 28  1  0
  5 29  1  0
  5 30  1  0
  6 31  1  0
  6 32  1  0
  7 33  1  0
  7 34  1  0
  8 35  1  0
  9 36  1  0
 10 37  1  0
 10 38  1  0
 11 39  1  0
 11 40  1  0
 17 41  1  0
 18 42  1  0
 20 43  1  0
 24 44  1  0
 24 45  1  0
M  END
>  <meeko>  (8) 
{"is_sidechain": [false], "free_energy": -4.863, "intermolecular_energy": -8.04, "internal_energy": -1.423}

$$$$
2iwx_ligand
     RDKit          3D

 45 46  0  0  0  0  0  0  0  0999 V2000
   -7.8330    2.5730   -1.5240 O   0  0  0  0  0  0  0  0  0  0  0  0
   -7.8530    3.4770   -2.3590 C   0  0  0  0  0  0  0  0  0  0  0  0
   -7.8960    4.9460   -1.9510 C   0  0  0  0  0  0  0  0  0  0  0  0
   -6.4950    5.5390   -1.7960 C   0  0  0  0  0  0  0  0  0  0  0  0
   -6.0970    5.6500   -0.3200 C   0  0  0  0  0  0  0  0  0  0  0  0
   -4.7130    5.0140   -0.0470 C   0  0  0  0  0  0  0  0  0  0  0  0
   -4.1690    4.2420   -1.2570 C   0  0  0  0  0  0  0  0  0  0  0  0
   -4.2740    2.7360   -1.2320 C   0  0  0  0  0  0  0  0  0  0  0  0
   -4.4420    1.9170   -2.2850 C   0  0  0  0  0  0  0  0  0  0  0  0
   -4.5820    0.4240   -2.1900 C   0  0  0  0  0  0  0  0  0  0  0  0
   -5.9810   -0.0560   -2.5870 C   0  0  0  0  0  0  0  0  0  0  0  0
   -6.0240   -0.3610   -3.9930 O   0  0  0  0  0  0  0  0  0  0  0  0
   -6.5040    0.6230   -4.7820 C   0  0  0  0  0  0  0  0  0  0  0  0
   -5.8550    1.4140   -5.4520 O   0  0  0  0  0  0  0  0  0  0  0  0
   -7.9690    0.7590   -4.6410 C   0  0  0  0  0  0  0  0  0  0  0  0
   -8.7260   -0.4020   -4.8940 C   0  0  0  0  0  0  0  0  0  0  0  0
   -8.1640   -1.6180   -5.1880 O   0  0  0  0  0  0  0  0  0  0  0  0
  -10.1160   -0.3790   -4.8480 C   0  0  0  0  0  0  0  0  0  0  0  0
  -10.7630    0.8020   -4.5060 C   0  0  0  0  0  0  0  0  0  0  0  0
  -12.1310    0.8250   -4.4510 O   0  0  0  0  0  0  0  0  0  0  0  0
  -10.0270    1.9580   -4.1960 C   0  0  0  0  0  0  0  0  0  0  0  0
  -10.8940    3.3910   -3.7250 Cl  0  0  0  0  0  0  0  0  0  0  0  0
   -8.6130    1.9540   -4.2440 C   0  0  0  0  0  0  0  0  0  0  0  0
   -7.8380    3.1960   -3.8520 C   0  0  0  0  0  0  0  0  0  0  0  0
   -8.4383    5.5130   -2.7221 H   0  0  0  0  0  0  0  0  0  0  0  0
   -8.4030    5.0133   -0.9771 H   0  0  0  0  0  0  0  0  0  0  0  0
   -5.7725    4.8913   -2.3141 H   0  0  0  0  0  0  0  0  0  0  0  0
   -6.4954    6.5488   -2.2322 H   0  0  0  0  0  0  0  0  0  0  0  0
   -6.0614    6.7132   -0.0401 H   0  0  0  0  0  0  0  0  0  0  0  0
   -6.8453    5.1081    0.2769 H   0  0  0  0  0  0  0  0  0  0  0  0
   -4.0023    5.8135    0.2093 H   0  0  0  0  0  0  0  0  0  0  0  0
   -4.8328    4.2974    0.7789 H   0  0  0  0  0  0  0  0  0  0  0  0
   -4.7146    4.5949   -2.1446 H   0  0  0  0  0  0  0  0  0  0  0  0
   -3.0881    4.4460   -1.2546 H   0  0  0  0  0  0  0  0  0  0  0  0
   -4.2056    2.2565   -0.2444 H   0  0  0  0  0  0  0  0  0  0  0  0
   -4.4796    2.3717   -3.2859 H   0  0  0  0  0  0  0  0  0  0  0  0
   -3.8447   -0.0435   -2.8592 H   0  0  0  0  0  0  0  0  0  0  0  0
   -4.4130    0.1366   -1.1417 H   0  0  0  0  0  0  0  0  0  0  0  0
   -6.2315   -0.9596   -2.0118 H   0  0  0  0  0  0  0  0  0  0  0  0
   -6.7075    0.7413   -2.3714 H   0  0  0  0  0  0  0  0  0  0  0  0
   -8.2770   -2.2180   -4.4190 H   0  0  0  0  0  0  0  0  0  0  0  0
  -10.6958   -1.2846   -5.0795 H   0  0  0  0  0  0  0  0  0  0  0  0
  -12.4290    1.6850   -4.1140 H   0  0  0  0  0  0  0  0  0  0  0  0
   -6.7931    3.0690   -4.1714 H   0  0  0  0  0  0  0  0  0  0  0  0
   -8.3258    4.0495   -4.3455 H   0  0  0  0  0  0  0  0  0  0  0  0
  1  2  2  0
  2  3  1  0
  3  4  1  0
  4  5  1  0
  5  6  1  0
  6  7  1  0
  7  8  1  0
  8  9  2  0
  9 10  1  0
 10 11  1  0
 11 12  1  0
 12 13  1  0
 13 14  2  0
 13 15  1  0
 15 16  2  0
 16 17  1  0
 16 18  1  0
 18 19  2  0
 19 20  1  0
 19 21  1  0
 21 22  1  0
 21 23  2  0
 23 24  1  0
 24  2  1  0
 23 15  1  0
  3 25  1  0
  3 26  1  0
  4 27  1  0
  4 28  1  0
  5 29  1  0
  5 30  1  0
  6 31  1  0
  6 32  1  0
  7 33  1  0
  7 34  1  0
  8 35  1  0
  9 36  1  0
 10 37  1  0
 10 38  1  0
 11 39  1  0
 11 40  1  0
 17 41  1  0
 18 42  1  0
 20 43  1  0
 24 44  1  0
 24 45  1  0
M  END
>  <meeko>  (9) 
{"is_sidechain": [false], "free_energy": -4.738, "intermolecular_energy": -7.773, "internal_energy": -1.469}

$$$$
