5dwr_ligand
     RDKit          3D

 56 59  0  0  0  0  0  0  0  0999 V2000
   -6.7850   -1.6790  -10.6880 C   0  0  0  0  0  0  0  0  0  0  0  0
   -8.2380   -1.5190  -10.2300 C   0  0  2  0  0  0  0  0  0  0  0  0
   -8.3830   -0.4310   -9.1540 C   0  0  0  0  0  0  0  0  0  0  0  0
   -7.8980   -0.8380   -7.7560 C   0  0  2  0  0  0  0  0  0  0  0  0
   -6.5270   -0.3050   -7.5170 N   0  0  0  0  0  0  0  0  0  0  0  0
   -7.8810   -2.3460   -7.5220 C   0  0  0  0  0  0  0  0  0  0  0  0
   -9.0550   -2.9990   -8.2620 C   0  0  2  0  0  0  0  0  0  0  0  0
   -9.2910   -4.4090   -7.7560 C   0  0  0  0  0  0  0  0  0  0  0  0
  -10.6080   -4.7900   -7.4200 C   0  0  0  0  0  0  0  0  0  0  0  0
  -10.8530   -6.0210   -6.8340 C   0  0  0  0  0  0  0  0  0  0  0  0
   -9.8870   -6.9080   -6.5570 N   0  0  0  0  0  0  0  0  0  0  0  0
   -8.6320   -6.5530   -6.9140 C   0  0  0  0  0  0  0  0  0  0  0  0
   -8.2700   -5.3550   -7.5490 C   0  0  0  0  0  0  0  0  0  0  0  0
   -6.9020   -5.2520   -7.8870 N   0  0  0  0  0  0  0  0  0  0  0  0
   -5.7590   -5.4690   -7.1410 C   0  0  0  0  0  0  0  0  0  0  0  0
   -5.6760   -5.8590   -5.9810 O   0  0  0  0  0  0  0  0  0  0  0  0
   -4.5120   -5.1100   -7.9010 C   0  0  0  0  0  0  0  0  0  0  0  0
   -3.4790   -6.0260   -8.0470 C   0  0  0  0  0  0  0  0  0  0  0  0
   -2.3570   -5.6340   -8.7720 C   0  0  0  0  0  0  0  0  0  0  0  0
   -2.3110   -4.3530   -9.3130 C   0  0  0  0  0  0  0  0  0  0  0  0
   -1.2400   -3.9920  -10.0330 F   0  0  0  0  0  0  0  0  0  0  0  0
   -3.3820   -3.4790   -9.1180 C   0  0  0  0  0  0  0  0  0  0  0  0
   -3.3970   -2.1170   -9.6510 C   0  0  0  0  0  0  0  0  0  0  0  0
   -3.3700   -1.0020   -8.8050 C   0  0  0  0  0  0  0  0  0  0  0  0
   -3.3440   -1.1660   -7.4730 F   0  0  0  0  0  0  0  0  0  0  0  0
   -3.3830    0.3030   -9.3040 C   0  0  0  0  0  0  0  0  0  0  0  0
   -3.4220    0.5210  -10.6790 C   0  0  0  0  0  0  0  0  0  0  0  0
   -3.4440   -0.5690  -11.5440 C   0  0  0  0  0  0  0  0  0  0  0  0
   -3.4300   -1.8670  -11.0290 C   0  0  0  0  0  0  0  0  0  0  0  0
   -3.4260   -2.8910  -11.8960 F   0  0  0  0  0  0  0  0  0  0  0  0
   -4.4880   -3.8460   -8.4130 N   0  0  0  0  0  0  0  0  0  0  0  0
   -8.8430   -2.8750   -9.7930 C   0  0  0  0  0  0  0  0  0  0  0  0
   -6.1290   -1.7512   -9.8080 H   0  0  0  0  0  0  0  0  0  0  0  0
   -6.6896   -2.5931  -11.2925 H   0  0  0  0  0  0  0  0  0  0  0  0
   -6.4930   -0.8076  -11.2925 H   0  0  0  0  0  0  0  0  0  0  0  0
   -8.8241   -1.1740  -11.0945 H   0  0  0  0  0  0  0  0  0  0  0  0
   -7.8031    0.4469   -9.4750 H   0  0  0  0  0  0  0  0  0  0  0  0
   -9.4605   -0.2299   -9.0610 H   0  0  0  0  0  0  0  0  0  0  0  0
   -8.6240   -0.4069   -7.0510 H   0  0  0  0  0  0  0  0  0  0  0  0
   -6.3390   -0.1300   -6.5240 H   0  0  0  0  0  0  0  0  0  0  0  0
   -5.8100   -0.9550   -7.8640 H   0  0  0  0  0  0  0  0  0  0  0  0
   -6.3970    0.5830   -8.0210 H   0  0  0  0  0  0  0  0  0  0  0  0
   -6.9350   -2.7633   -7.8974 H   0  0  0  0  0  0  0  0  0  0  0  0
   -7.9730   -2.5478   -6.4446 H   0  0  0  0  0  0  0  0  0  0  0  0
   -9.9930   -2.4662   -8.0469 H   0  0  0  0  0  0  0  0  0  0  0  0
  -11.4444   -4.1055   -7.6247 H   0  0  0  0  0  0  0  0  0  0  0  0
  -11.8915   -6.2836   -6.5836 H   0  0  0  0  0  0  0  0  0  0  0  0
   -7.8248   -7.2650   -6.6870 H   0  0  0  0  0  0  0  0  0  0  0  0
   -6.6940   -4.7510   -8.7560 H   0  0  0  0  0  0  0  0  0  0  0  0
   -3.5450   -7.0305   -7.6035 H   0  0  0  0  0  0  0  0  0  0  0  0
   -1.5166   -6.3290   -8.9155 H   0  0  0  0  0  0  0  0  0  0  0  0
   -3.3625    1.1574   -8.6115 H   0  0  0  0  0  0  0  0  0  0  0  0
   -3.4353    1.5460  -11.0779 H   0  0  0  0  0  0  0  0  0  0  0  0
   -3.4724   -0.4084  -12.6318 H   0  0  0  0  0  0  0  0  0  0  0  0
   -8.1642   -3.6782  -10.1157 H   0  0  0  0  0  0  0  0  0  0  0  0
   -9.8352   -2.9501  -10.2619 H   0  0  0  0  0  0  0  0  0  0  0  0
  1  2  1  0
  2  3  1  0
  3  4  1  0
  4  5  1  0
  4  6  1  0
  6  7  1  0
  7  8  1  0
  8  9  2  0
  9 10  1  0
 10 11  2  0
 11 12  1  0
 12 13  2  0
 13 14  1  0
 14 15  1  0
 15 16  2  0
 15 17  1  0
 17 18  2  0
 18 19  1  0
 19 20  2  0
 20 21  1  0
 20 22  1  0
 22 23  1  0
 23 24  2  0
 24 25  1  0
 24 26  1  0
 26 27  2  0
 27 28  1  0
 28 29  2  0
 29 30  1  0
 22 31  2  0
  7 32  1  0
 32  2  1  0
 13  8  1  0
 31 17  1  0
 29 23  1  0
  1 33  1  0
  1 34  1  0
  1 35  1  0
  2 36  1  6
  3 37  1  0
  3 38  1  0
  4 39  1  1
  5 40  1  0
  5 41  1  0
  5 42  1  0
  6 43  1  0
  6 44  1  0
  7 45  1  1
  9 46  1  0
 10 47  1  0
 12 48  1  0
 14 49  1  0
 18 50  1  0
 19 51  1  0
 26 52  1  0
 27 53  1  0
 28 54  1  0
 32 55  1  0
 32 56  1  0
M  CHG  1   5   1
M  END
>  <meeko>  (1) 
{"is_sidechain": [false], "free_energy": -9.802, "intermolecular_energy": -12.381, "internal_energy": -1.293}

$$$$
5dwr_ligand
     RDKit          3D

 56 59  0  0  0  0  0  0  0  0999 V2000
   -7.5650   -0.5340   -7.2310 C   0  0  0  0  0  0  0  0  0  0  0  0
   -8.0900   -1.3710   -8.4010 C   0  0  2  0  0  0  0  0  0  0  0  0
   -9.4990   -0.9330   -8.8320 C   0  0  0  0  0  0  0  0  0  0  0  0
  -10.6280   -1.3830   -7.8950 C   0  0  2  0  0  0  0  0  0  0  0  0
  -11.0110   -0.2650   -6.9870 N   0  0  0  0  0  0  0  0  0  0  0  0
  -10.2780   -2.6010   -7.0440 C   0  0  0  0  0  0  0  0  0  0  0  0
   -9.3800   -3.5520   -7.8450 C   0  0  2  0  0  0  0  0  0  0  0  0
   -9.3260   -4.9180   -7.1900 C   0  0  0  0  0  0  0  0  0  0  0  0
  -10.5180   -5.4520   -6.6530 C   0  0  0  0  0  0  0  0  0  0  0  0
  -10.4920   -6.6360   -5.9320 C   0  0  0  0  0  0  0  0  0  0  0  0
   -9.3710   -7.3340   -5.7070 N   0  0  0  0  0  0  0  0  0  0  0  0
   -8.2390   -6.8370   -6.2530 C   0  0  0  0  0  0  0  0  0  0  0  0
   -8.1490   -5.6740   -7.0340 C   0  0  0  0  0  0  0  0  0  0  0  0
   -6.8640   -5.4060   -7.5560 N   0  0  0  0  0  0  0  0  0  0  0  0
   -5.6050   -5.7300   -7.0880 C   0  0  0  0  0  0  0  0  0  0  0  0
   -5.3130   -6.3880   -6.0950 O   0  0  0  0  0  0  0  0  0  0  0  0
   -4.5160   -5.1170   -7.9260 C   0  0  0  0  0  0  0  0  0  0  0  0
   -3.3120   -5.7800   -8.1250 C   0  0  0  0  0  0  0  0  0  0  0  0
   -2.3520   -5.1630   -8.9210 C   0  0  0  0  0  0  0  0  0  0  0  0
   -2.6270   -3.9180   -9.4780 C   0  0  0  0  0  0  0  0  0  0  0  0
   -1.7090   -3.3430  -10.2660 F   0  0  0  0  0  0  0  0  0  0  0  0
   -3.8560   -3.3030   -9.2270 C   0  0  0  0  0  0  0  0  0  0  0  0
   -4.2090   -1.9940   -9.7730 C   0  0  0  0  0  0  0  0  0  0  0  0
   -4.1450   -0.8350   -8.9890 C   0  0  0  0  0  0  0  0  0  0  0  0
   -3.7670   -0.9100   -7.7040 F   0  0  0  0  0  0  0  0  0  0  0  0
   -4.4790    0.4210   -9.5000 C   0  0  0  0  0  0  0  0  0  0  0  0
   -4.8880    0.5460  -10.8260 C   0  0  0  0  0  0  0  0  0  0  0  0
   -4.9560   -0.5890  -11.6310 C   0  0  0  0  0  0  0  0  0  0  0  0
   -4.6180   -1.8360  -11.1030 C   0  0  0  0  0  0  0  0  0  0  0  0
   -4.6720   -2.9020  -11.9170 F   0  0  0  0  0  0  0  0  0  0  0  0
   -4.8080   -3.8930   -8.4520 N   0  0  0  0  0  0  0  0  0  0  0  0
   -8.0030   -2.8850   -8.0940 C   0  0  0  0  0  0  0  0  0  0  0  0
   -7.8603   -1.0048   -6.2817 H   0  0  0  0  0  0  0  0  0  0  0  0
   -6.4679   -0.4752   -7.2854 H   0  0  0  0  0  0  0  0  0  0  0  0
   -7.9896    0.4793   -7.2854 H   0  0  0  0  0  0  0  0  0  0  0  0
   -7.4346   -1.1849   -9.2646 H   0  0  0  0  0  0  0  0  0  0  0  0
   -9.5149    0.1657   -8.8838 H   0  0  0  0  0  0  0  0  0  0  0  0
   -9.6903   -1.4162   -9.8015 H   0  0  0  0  0  0  0  0  0  0  0  0
  -11.4625   -1.6724   -8.5506 H   0  0  0  0  0  0  0  0  0  0  0  0
  -10.4170    0.5630   -7.1070 H   0  0  0  0  0  0  0  0  0  0  0  0
  -11.9860    0.0230   -7.1410 H   0  0  0  0  0  0  0  0  0  0  0  0
  -10.9370   -0.5620   -6.0040 H   0  0  0  0  0  0  0  0  0  0  0  0
   -9.7471   -2.2734   -6.1380 H   0  0  0  0  0  0  0  0  0  0  0  0
  -11.2028   -3.1254   -6.7617 H   0  0  0  0  0  0  0  0  0  0  0  0
   -9.8051   -3.7394   -8.8421 H   0  0  0  0  0  0  0  0  0  0  0  0
  -11.4717   -4.9261   -6.8075 H   0  0  0  0  0  0  0  0  0  0  0  0
  -11.4385   -7.0211   -5.5247 H   0  0  0  0  0  0  0  0  0  0  0  0
   -7.3072   -7.3920   -6.0695 H   0  0  0  0  0  0  0  0  0  0  0  0
   -6.8210   -4.6940   -8.2900 H   0  0  0  0  0  0  0  0  0  0  0  0
   -3.1232   -6.7624   -7.6675 H   0  0  0  0  0  0  0  0  0  0  0  0
   -1.3858   -5.6543   -9.1080 H   0  0  0  0  0  0  0  0  0  0  0  0
   -4.4192    1.3109   -8.8562 H   0  0  0  0  0  0  0  0  0  0  0  0
   -5.1549    1.5322  -11.2337 H   0  0  0  0  0  0  0  0  0  0  0  0
   -5.2753   -0.5026  -12.6801 H   0  0  0  0  0  0  0  0  0  0  0  0
   -7.3836   -3.0218   -7.1953 H   0  0  0  0  0  0  0  0  0  0  0  0
   -7.5685   -3.3679   -8.9817 H   0  0  0  0  0  0  0  0  0  0  0  0
  1  2  1  0
  2  3  1  0
  3  4  1  0
  4  5  1  0
  4  6  1  0
  6  7  1  0
  7  8  1  0
  8  9  2  0
  9 10  1  0
 10 11  2  0
 11 12  1  0
 12 13  2  0
 13 14  1  0
 14 15  1  0
 15 16  2  0
 15 17  1  0
 17 18  2  0
 18 19  1  0
 19 20  2  0
 20 21  1  0
 20 22  1  0
 22 23  1  0
 23 24  2  0
 24 25  1  0
 24 26  1  0
 26 27  2  0
 27 28  1  0
 28 29  2  0
 29 30  1  0
 22 31  2  0
  7 32  1  0
 32  2  1  0
 13  8  1  0
 31 17  1  0
 29 23  1  0
  1 33  1  0
  1 34  1  0
  1 35  1  0
  2 36  1  6
  3 37  1  0
  3 38  1  0
  4 39  1  6
  5 40  1  0
  5 41  1  0
  5 42  1  0
  6 43  1  0
  6 44  1  0
  7 45  1  6
  9 46  1  0
 10 47  1  0
 12 48  1  0
 14 49  1  0
 18 50  1  0
 19 51  1  0
 26 52  1  0
 27 53  1  0
 28 54  1  0
 32 55  1  0
 32 56  1  0
M  CHG  1   5   1
M  END
>  <meeko>  (2) 
{"is_sidechain": [false], "free_energy": -9.782, "intermolecular_energy": -12.592, "internal_energy": -1.056}

$$$$
5dwr_ligand
     RDKit          3D

 56 59  0  0  0  0  0  0  0  0999 V2000
   -5.0400   -6.6680   -8.1570 C   0  0  0  0  0  0  0  0  0  0  0  0
   -5.4580   -5.6540   -7.0890 C   0  0  2  0  0  0  0  0  0  0  0  0
   -5.7610   -6.3330   -5.7430 C   0  0  0  0  0  0  0  0  0  0  0  0
   -7.1020   -7.0760   -5.6830 C   0  0  2  0  0  0  0  0  0  0  0  0
   -6.8850   -8.5350   -5.8950 N   0  0  0  0  0  0  0  0  0  0  0  0
   -8.1280   -6.5840   -6.7000 C   0  0  0  0  0  0  0  0  0  0  0  0
   -7.9790   -5.0710   -6.8970 C   0  0  2  0  0  0  0  0  0  0  0  0
   -9.1980   -4.4980   -7.5930 C   0  0  0  0  0  0  0  0  0  0  0  0
  -10.4150   -5.2090   -7.5080 C   0  0  0  0  0  0  0  0  0  0  0  0
  -11.5210   -4.7930   -8.2320 C   0  0  0  0  0  0  0  0  0  0  0  0
  -11.5120   -3.7190   -9.0340 N   0  0  0  0  0  0  0  0  0  0  0  0
  -10.3550   -3.0210   -9.0840 C   0  0  0  0  0  0  0  0  0  0  0  0
   -9.1870   -3.3210   -8.3660 C   0  0  0  0  0  0  0  0  0  0  0  0
   -8.1340   -2.3940   -8.5300 N   0  0  0  0  0  0  0  0  0  0  0  0
   -8.0310   -1.0600   -8.1840 C   0  0  0  0  0  0  0  0  0  0  0  0
   -8.8520   -0.3670   -7.5930 O   0  0  0  0  0  0  0  0  0  0  0  0
   -6.7490   -0.4460   -8.6760 C   0  0  0  0  0  0  0  0  0  0  0  0
   -6.5360    0.9230   -8.5900 C   0  0  0  0  0  0  0  0  0  0  0  0
   -5.3230    1.4250   -9.0510 C   0  0  0  0  0  0  0  0  0  0  0  0
   -4.3810    0.5480   -9.5800 C   0  0  0  0  0  0  0  0  0  0  0  0
   -3.2050    1.0350   -9.9970 F   0  0  0  0  0  0  0  0  0  0  0  0
   -4.6660   -0.8170   -9.6460 C   0  0  0  0  0  0  0  0  0  0  0  0
   -3.7270   -1.7940  -10.1950 C   0  0  0  0  0  0  0  0  0  0  0  0
   -3.1210   -2.7610   -9.3840 C   0  0  0  0  0  0  0  0  0  0  0  0
   -3.3850   -2.7990   -8.0680 F   0  0  0  0  0  0  0  0  0  0  0  0
   -2.2240   -3.6990   -9.8980 C   0  0  0  0  0  0  0  0  0  0  0  0
   -1.9110   -3.6910  -11.2550 C   0  0  0  0  0  0  0  0  0  0  0  0
   -2.5020   -2.7440  -12.0880 C   0  0  0  0  0  0  0  0  0  0  0  0
   -3.3970   -1.8140  -11.5570 C   0  0  0  0  0  0  0  0  0  0  0  0
   -3.9660   -0.9340  -12.3960 F   0  0  0  0  0  0  0  0  0  0  0  0
   -5.8470   -1.3260   -9.1970 N   0  0  0  0  0  0  0  0  0  0  0  0
   -6.6230   -4.7630   -7.5830 C   0  0  0  0  0  0  0  0  0  0  0  0
   -4.6641   -7.5798   -7.6698 H   0  0  0  0  0  0  0  0  0  0  0  0
   -5.9081   -6.9187   -8.7843 H   0  0  0  0  0  0  0  0  0  0  0  0
   -4.2474   -6.2341   -8.7843 H   0  0  0  0  0  0  0  0  0  0  0  0
   -4.6024   -4.9862   -6.9101 H   0  0  0  0  0  0  0  0  0  0  0  0
   -4.9592   -7.0575   -5.5373 H   0  0  0  0  0  0  0  0  0  0  0  0
   -5.8207   -5.5270   -4.9968 H   0  0  0  0  0  0  0  0  0  0  0  0
   -7.5119   -6.8726   -4.6827 H   0  0  0  0  0  0  0  0  0  0  0  0
   -7.6650   -8.9830   -6.3890 H   0  0  0  0  0  0  0  0  0  0  0  0
   -6.0290   -8.7090   -6.4370 H   0  0  0  0  0  0  0  0  0  0  0  0
   -6.7720   -9.0140   -4.9920 H   0  0  0  0  0  0  0  0  0  0  0  0
   -7.9646   -7.0952   -7.6602 H   0  0  0  0  0  0  0  0  0  0  0  0
   -9.1404   -6.8044   -6.3305 H   0  0  0  0  0  0  0  0  0  0  0  0
   -7.9455   -4.5554   -5.9259 H   0  0  0  0  0  0  0  0  0  0  0  0
  -10.4855   -6.0978   -6.8637 H   0  0  0  0  0  0  0  0  0  0  0  0
  -12.4518   -5.3725   -8.1442 H   0  0  0  0  0  0  0  0  0  0  0  0
  -10.3268   -2.1419   -9.7446 H   0  0  0  0  0  0  0  0  0  0  0  0
   -7.3920   -2.6720   -9.1790 H   0  0  0  0  0  0  0  0  0  0  0  0
   -7.3028    1.5906   -8.1702 H   0  0  0  0  0  0  0  0  0  0  0  0
   -5.1110    2.5031   -8.9979 H   0  0  0  0  0  0  0  0  0  0  0  0
   -1.7647   -4.4440   -9.2316 H   0  0  0  0  0  0  0  0  0  0  0  0
   -1.2032   -4.4262  -11.6654 H   0  0  0  0  0  0  0  0  0  0  0  0
   -2.2639   -2.7291  -13.1618 H   0  0  0  0  0  0  0  0  0  0  0  0
   -6.7400   -4.9137   -8.6663 H   0  0  0  0  0  0  0  0  0  0  0  0
   -6.3632   -3.7248   -7.3287 H   0  0  0  0  0  0  0  0  0  0  0  0
  1  2  1  0
  2  3  1  0
  3  4  1  0
  4  5  1  0
  4  6  1  0
  6  7  1  0
  7  8  1  0
  8  9  2  0
  9 10  1  0
 10 11  2  0
 11 12  1  0
 12 13  2  0
 13 14  1  0
 14 15  1  0
 15 16  2  0
 15 17  1  0
 17 18  2  0
 18 19  1  0
 19 20  2  0
 20 21  1  0
 20 22  1  0
 22 23  1  0
 23 24  2  0
 24 25  1  0
 24 26  1  0
 26 27  2  0
 27 28  1  0
 28 29  2  0
 29 30  1  0
 22 31  2  0
  7 32  1  0
 32  2  1  0
 13  8  1  0
 31 17  1  0
 29 23  1  0
  1 33  1  0
  1 34  1  0
  1 35  1  0
  2 36  1  1
  3 37  1  0
  3 38  1  0
  4 39  1  1
  5 40  1  0
  5 41  1  0
  5 42  1  0
  6 43  1  0
  6 44  1  0
  7 45  1  1
  9 46  1  0
 10 47  1  0
 12 48  1  0
 14 49  1  0
 18 50  1  0
 19 51  1  0
 26 52  1  0
 27 53  1  0
 28 54  1  0
 32 55  1  0
 32 56  1  0
M  CHG  1   5   1
M  END
>  <meeko>  (3) 
{"is_sidechain": [false], "free_energy": -9.761, "intermolecular_energy": -12.408, "internal_energy": -1.213}

$$$$
5dwr_ligand
     RDKit          3D

 56 59  0  0  0  0  0  0  0  0999 V2000
   -7.5930   -2.0210   -7.2920 C   0  0  0  0  0  0  0  0  0  0  0  0
   -8.1630   -0.6350   -7.6090 C   0  0  2  0  0  0  0  0  0  0  0  0
   -9.4700   -0.7250   -8.4150 C   0  0  0  0  0  0  0  0  0  0  0  0
   -9.2890   -1.0820   -9.8960 C   0  0  2  0  0  0  0  0  0  0  0  0
   -9.5500   -2.5340  -10.1050 N   0  0  0  0  0  0  0  0  0  0  0  0
   -7.9050   -0.7540  -10.4480 C   0  0  0  0  0  0  0  0  0  0  0  0
   -7.3750    0.5270   -9.7900 C   0  0  2  0  0  0  0  0  0  0  0  0
   -6.2000    1.0830  -10.5690 C   0  0  0  0  0  0  0  0  0  0  0  0
   -6.3180    2.3730  -11.1320 C   0  0  0  0  0  0  0  0  0  0  0  0
   -5.3230    2.8700  -11.9590 C   0  0  0  0  0  0  0  0  0  0  0  0
   -4.2140    2.1840  -12.2680 N   0  0  0  0  0  0  0  0  0  0  0  0
   -4.0880    0.9650  -11.6980 C   0  0  0  0  0  0  0  0  0  0  0  0
   -5.0070    0.3760  -10.8150 C   0  0  0  0  0  0  0  0  0  0  0  0
   -4.6120   -0.8760  -10.2930 N   0  0  0  0  0  0  0  0  0  0  0  0
   -3.9080   -1.2060   -9.1510 C   0  0  0  0  0  0  0  0  0  0  0  0
   -3.4910   -0.4550   -8.2760 O   0  0  0  0  0  0  0  0  0  0  0  0
   -3.6160   -2.6800   -9.0740 C   0  0  0  0  0  0  0  0  0  0  0  0
   -2.4840   -3.2130   -9.6770 C   0  0  0  0  0  0  0  0  0  0  0  0
   -2.2660   -4.5820   -9.5580 C   0  0  0  0  0  0  0  0  0  0  0  0
   -3.1800   -5.3580   -8.8530 C   0  0  0  0  0  0  0  0  0  0  0  0
   -2.9500   -6.6720   -8.7190 F   0  0  0  0  0  0  0  0  0  0  0  0
   -4.3040   -4.7570   -8.2810 C   0  0  0  0  0  0  0  0  0  0  0  0
   -5.3090   -5.5110   -7.5330 C   0  0  0  0  0  0  0  0  0  0  0  0
   -4.9790   -6.2030   -6.3610 C   0  0  0  0  0  0  0  0  0  0  0  0
   -3.7160   -6.1970   -5.9070 F   0  0  0  0  0  0  0  0  0  0  0  0
   -5.9310   -6.9260   -5.6390 C   0  0  0  0  0  0  0  0  0  0  0  0
   -7.2520   -6.9700   -6.0790 C   0  0  0  0  0  0  0  0  0  0  0  0
   -7.6100   -6.2860   -7.2380 C   0  0  0  0  0  0  0  0  0  0  0  0
   -6.6450   -5.5690   -7.9480 C   0  0  0  0  0  0  0  0  0  0  0  0
   -7.0350   -4.9030   -9.0470 F   0  0  0  0  0  0  0  0  0  0  0  0
   -4.5320   -3.4180   -8.3860 N   0  0  0  0  0  0  0  0  0  0  0  0
   -7.1050    0.2680   -8.2860 C   0  0  0  0  0  0  0  0  0  0  0  0
   -7.5382   -2.1543   -6.2015 H   0  0  0  0  0  0  0  0  0  0  0  0
   -8.2464   -2.7936   -7.7234 H   0  0  0  0  0  0  0  0  0  0  0  0
   -6.5851   -2.1104   -7.7234 H   0  0  0  0  0  0  0  0  0  0  0  0
   -8.4240   -0.1548   -6.6544 H   0  0  0  0  0  0  0  0  0  0  0  0
  -10.1050   -1.4950   -7.9525 H   0  0  0  0  0  0  0  0  0  0  0  0
   -9.9185    0.2791   -8.3910 H   0  0  0  0  0  0  0  0  0  0  0  0
  -10.0134   -0.4604  -10.4426 H   0  0  0  0  0  0  0  0  0  0  0  0
   -8.6940   -3.0660  -10.2980 H   0  0  0  0  0  0  0  0  0  0  0  0
  -10.0020   -2.9540   -9.2820 H   0  0  0  0  0  0  0  0  0  0  0  0
  -10.1880   -2.6720  -10.9010 H   0  0  0  0  0  0  0  0  0  0  0  0
   -7.2189   -1.5864  -10.2325 H   0  0  0  0  0  0  0  0  0  0  0  0
   -7.9733   -0.6031  -11.5355 H   0  0  0  0  0  0  0  0  0  0  0  0
   -8.1329    1.3235   -9.8246 H   0  0  0  0  0  0  0  0  0  0  0  0
   -7.2044    2.9865  -10.9129 H   0  0  0  0  0  0  0  0  0  0  0  0
   -5.4498    3.8772  -12.3826 H   0  0  0  0  0  0  0  0  0  0  0  0
   -3.1877    0.3842  -11.9474 H   0  0  0  0  0  0  0  0  0  0  0  0
   -4.6710   -1.6670  -10.9400 H   0  0  0  0  0  0  0  0  0  0  0  0
   -1.7818   -2.5729  -10.2313 H   0  0  0  0  0  0  0  0  0  0  0  0
   -1.3802   -5.0457  -10.0166 H   0  0  0  0  0  0  0  0  0  0  0  0
   -5.6379   -7.4605   -4.7233 H   0  0  0  0  0  0  0  0  0  0  0  0
   -8.0057   -7.5400   -5.5159 H   0  0  0  0  0  0  0  0  0  0  0  0
   -8.6507   -6.3105   -7.5933 H   0  0  0  0  0  0  0  0  0  0  0  0
   -6.1221   -0.2160   -8.1883 H   0  0  0  0  0  0  0  0  0  0  0  0
   -7.1454    1.2440   -7.7802 H   0  0  0  0  0  0  0  0  0  0  0  0
  1  2  1  0
  2  3  1  0
  3  4  1  0
  4  5  1  0
  4  6  1  0
  6  7  1  0
  7  8  1  0
  8  9  2  0
  9 10  1  0
 10 11  2  0
 11 12  1  0
 12 13  2  0
 13 14  1  0
 14 15  1  0
 15 16  2  0
 15 17  1  0
 17 18  2  0
 18 19  1  0
 19 20  2  0
 20 21  1  0
 20 22  1  0
 22 23  1  0
 23 24  2  0
 24 25  1  0
 24 26  1  0
 26 27  2  0
 27 28  1  0
 28 29  2  0
 29 30  1  0
 22 31  2  0
  7 32  1  0
 32  2  1  0
 13  8  1  0
 31 17  1  0
 29 23  1  0
  1 33  1  0
  1 34  1  0
  1 35  1  0
  2 36  1  1
  3 37  1  0
  3 38  1  0
  4 39  1  6
  5 40  1  0
  5 41  1  0
  5 42  1  0
  6 43  1  0
  6 44  1  0
  7 45  1  1
  9 46  1  0
 10 47  1  0
 12 48  1  0
 14 49  1  0
 18 50  1  0
 19 51  1  0
 26 52  1  0
 27 53  1  0
 28 54  1  0
 32 55  1  0
 32 56  1  0
M  CHG  1   5   1
M  END
>  <meeko>  (4) 
{"is_sidechain": [false], "free_energy": -9.603, "intermolecular_energy": -12.009, "internal_energy": -1.413}

$$$$
5dwr_ligand
     RDKit          3D

 56 59  0  0  0  0  0  0  0  0999 V2000
   -6.9460    1.7020  -11.1430 C   0  0  0  0  0  0  0  0  0  0  0  0
   -7.2710    0.2170  -10.9560 C   0  0  2  0  0  0  0  0  0  0  0  0
   -7.8470   -0.0710   -9.5600 C   0  0  0  0  0  0  0  0  0  0  0  0
   -6.8140   -0.0680   -8.4250 C   0  0  2  0  0  0  0  0  0  0  0  0
   -6.8470    1.2400   -7.7110 N   0  0  0  0  0  0  0  0  0  0  0  0
   -5.3840   -0.3330   -8.8870 C   0  0  0  0  0  0  0  0  0  0  0  0
   -5.3930   -1.3280  -10.0540 C   0  0  2  0  0  0  0  0  0  0  0  0
   -4.0070   -1.8960  -10.2850 C   0  0  0  0  0  0  0  0  0  0  0  0
   -3.1260   -1.1910  -11.1350 C   0  0  0  0  0  0  0  0  0  0  0  0
   -1.8980   -1.7350  -11.4780 C   0  0  0  0  0  0  0  0  0  0  0  0
   -1.4750   -2.9280  -11.0370 N   0  0  0  0  0  0  0  0  0  0  0  0
   -2.3060   -3.5820  -10.1950 C   0  0  0  0  0  0  0  0  0  0  0  0
   -3.5510   -3.1140   -9.7460 C   0  0  0  0  0  0  0  0  0  0  0  0
   -4.1970   -3.9500   -8.8080 N   0  0  0  0  0  0  0  0  0  0  0  0
   -3.8760   -5.2070   -8.3340 C   0  0  0  0  0  0  0  0  0  0  0  0
   -2.8910   -5.8870   -8.6020 O   0  0  0  0  0  0  0  0  0  0  0  0
   -4.9410   -5.7570   -7.4250 C   0  0  0  0  0  0  0  0  0  0  0  0
   -4.6240   -6.6680   -6.4260 C   0  0  0  0  0  0  0  0  0  0  0  0
   -5.6540   -7.1290   -5.6130 C   0  0  0  0  0  0  0  0  0  0  0  0
   -6.9490   -6.6700   -5.8300 C   0  0  0  0  0  0  0  0  0  0  0  0
   -7.9320   -7.0960   -5.0250 F   0  0  0  0  0  0  0  0  0  0  0  0
   -7.1990   -5.7610   -6.8610 C   0  0  0  0  0  0  0  0  0  0  0  0
   -8.5350   -5.2430   -7.1500 C   0  0  0  0  0  0  0  0  0  0  0  0
   -8.7940   -3.8670   -7.1790 C   0  0  0  0  0  0  0  0  0  0  0  0
   -7.8110   -2.9900   -6.9240 F   0  0  0  0  0  0  0  0  0  0  0  0
  -10.0660   -3.3610   -7.4560 C   0  0  0  0  0  0  0  0  0  0  0  0
  -11.1200   -4.2340   -7.7160 C   0  0  0  0  0  0  0  0  0  0  0  0
  -10.8910   -5.6080   -7.7000 C   0  0  0  0  0  0  0  0  0  0  0  0
   -9.6130   -6.0960   -7.4210 C   0  0  0  0  0  0  0  0  0  0  0  0
   -9.4260   -7.4250   -7.4400 F   0  0  0  0  0  0  0  0  0  0  0  0
   -6.2020   -5.2980   -7.6660 N   0  0  0  0  0  0  0  0  0  0  0  0
   -6.0520   -0.6730  -11.2950 C   0  0  0  0  0  0  0  0  0  0  0  0
   -6.8411    2.1812  -10.1584 H   0  0  0  0  0  0  0  0  0  0  0  0
   -6.0044    1.8036  -11.7024 H   0  0  0  0  0  0  0  0  0  0  0  0
   -7.7591    2.1877  -11.7024 H   0  0  0  0  0  0  0  0  0  0  0  0
   -8.0627   -0.0449  -11.6734 H   0  0  0  0  0  0  0  0  0  0  0  0
   -8.6031    0.6961   -9.3367 H   0  0  0  0  0  0  0  0  0  0  0  0
   -8.2609   -1.0894   -9.5996 H   0  0  0  0  0  0  0  0  0  0  0  0
   -7.0995   -0.8965   -7.7601 H   0  0  0  0  0  0  0  0  0  0  0  0
   -6.8510    1.1330   -6.6900 H   0  0  0  0  0  0  0  0  0  0  0  0
   -6.0390    1.8220   -7.9630 H   0  0  0  0  0  0  0  0  0  0  0  0
   -7.6910    1.7680   -7.9720 H   0  0  0  0  0  0  0  0  0  0  0  0
   -4.9250    0.6112   -9.2153 H   0  0  0  0  0  0  0  0  0  0  0  0
   -4.8045   -0.7555   -8.0530 H   0  0  0  0  0  0  0  0  0  0  0  0
   -6.0150   -2.2027   -9.8129 H   0  0  0  0  0  0  0  0  0  0  0  0
   -3.4161   -0.2049  -11.5268 H   0  0  0  0  0  0  0  0  0  0  0  0
   -1.2386   -1.1597  -12.1445 H   0  0  0  0  0  0  0  0  0  0  0  0
   -1.9782   -4.5665   -9.8299 H   0  0  0  0  0  0  0  0  0  0  0  0
   -5.1600   -3.6940   -8.5730 H   0  0  0  0  0  0  0  0  0  0  0  0
   -3.5899   -7.0144   -6.2821 H   0  0  0  0  0  0  0  0  0  0  0  0
   -5.4468   -7.8486   -4.8073 H   0  0  0  0  0  0  0  0  0  0  0  0
  -10.2354   -2.2742   -7.4688 H   0  0  0  0  0  0  0  0  0  0  0  0
  -12.1247   -3.8417   -7.9321 H   0  0  0  0  0  0  0  0  0  0  0  0
  -11.7150   -6.3067   -7.9067 H   0  0  0  0  0  0  0  0  0  0  0  0
   -5.2984   -0.0515  -11.8007 H   0  0  0  0  0  0  0  0  0  0  0  0
   -6.4190   -1.4907  -11.9327 H   0  0  0  0  0  0  0  0  0  0  0  0
  1  2  1  0
  2  3  1  0
  3  4  1  0
  4  5  1  0
  4  6  1  0
  6  7  1  0
  7  8  1  0
  8  9  2  0
  9 10  1  0
 10 11  2  0
 11 12  1  0
 12 13  2  0
 13 14  1  0
 14 15  1  0
 15 16  2  0
 15 17  1  0
 17 18  2  0
 18 19  1  0
 19 20  2  0
 20 21  1  0
 20 22  1  0
 22 23  1  0
 23 24  2  0
 24 25  1  0
 24 26  1  0
 26 27  2  0
 27 28  1  0
 28 29  2  0
 29 30  1  0
 22 31  2  0
  7 32  1  0
 32  2  1  0
 13  8  1  0
 31 17  1  0
 29 23  1  0
  1 33  1  0
  1 34  1  0
  1 35  1  0
  2 36  1  6
  3 37  1  0
  3 38  1  0
  4 39  1  1
  5 40  1  0
  5 41  1  0
  5 42  1  0
  6 43  1  0
  6 44  1  0
  7 45  1  1
  9 46  1  0
 10 47  1  0
 12 48  1  0
 14 49  1  0
 18 50  1  0
 19 51  1  0
 26 52  1  0
 27 53  1  0
 28 54  1  0
 32 55  1  0
 32 56  1  0
M  CHG  1   5   1
M  END
>  <meeko>  (5) 
{"is_sidechain": [false], "free_energy": -9.546, "intermolecular_energy": -12.492, "internal_energy": -0.857}

$$$$
5dwr_ligand
     RDKit          3D

 56 59  0  0  0  0  0  0  0  0999 V2000
   -3.7120   -0.1850  -11.5500 C   0  0  0  0  0  0  0  0  0  0  0  0
   -4.9680   -0.7050  -10.8450 C   0  0  2  0  0  0  0  0  0  0  0  0
   -5.3260    0.1440   -9.6140 C   0  0  0  0  0  0  0  0  0  0  0  0
   -4.4370   -0.0930   -8.3870 C   0  0  2  0  0  0  0  0  0  0  0  0
   -3.3960    0.9700   -8.2990 N   0  0  0  0  0  0  0  0  0  0  0  0
   -3.7430   -1.4530   -8.3780 C   0  0  0  0  0  0  0  0  0  0  0  0
   -4.6630   -2.5080   -9.0050 C   0  0  2  0  0  0  0  0  0  0  0  0
   -4.1780   -3.9060   -8.6760 C   0  0  0  0  0  0  0  0  0  0  0  0
   -2.7990   -4.1830   -8.7990 C   0  0  0  0  0  0  0  0  0  0  0  0
   -2.3280   -5.4770   -8.6350 C   0  0  0  0  0  0  0  0  0  0  0  0
   -3.1230   -6.5170   -8.3530 N   0  0  0  0  0  0  0  0  0  0  0  0
   -4.4370   -6.2400   -8.2010 C   0  0  0  0  0  0  0  0  0  0  0  0
   -5.0220   -4.9690   -8.3020 C   0  0  0  0  0  0  0  0  0  0  0  0
   -6.4070   -4.9270   -8.0250 N   0  0  0  0  0  0  0  0  0  0  0  0
   -7.1320   -5.3730   -6.9370 C   0  0  0  0  0  0  0  0  0  0  0  0
   -6.7110   -5.8860   -5.9050 O   0  0  0  0  0  0  0  0  0  0  0  0
   -8.6150   -5.2210   -7.1450 C   0  0  0  0  0  0  0  0  0  0  0  0
   -9.4650   -6.3120   -7.0290 C   0  0  0  0  0  0  0  0  0  0  0  0
  -10.8270   -6.1010   -7.2220 C   0  0  0  0  0  0  0  0  0  0  0  0
  -11.2800   -4.8210   -7.5260 C   0  0  0  0  0  0  0  0  0  0  0  0
  -12.5960   -4.6190   -7.6840 F   0  0  0  0  0  0  0  0  0  0  0  0
  -10.3670   -3.7700   -7.6390 C   0  0  0  0  0  0  0  0  0  0  0  0
  -10.7710   -2.4030   -7.9620 C   0  0  0  0  0  0  0  0  0  0  0  0
  -10.6050   -1.8780   -9.2500 C   0  0  0  0  0  0  0  0  0  0  0  0
  -10.0510   -2.6260  -10.2170 F   0  0  0  0  0  0  0  0  0  0  0  0
  -10.9890   -0.5740   -9.5700 C   0  0  0  0  0  0  0  0  0  0  0  0
  -11.5580    0.2420   -8.5950 C   0  0  0  0  0  0  0  0  0  0  0  0
  -11.7410   -0.2550   -7.3070 C   0  0  0  0  0  0  0  0  0  0  0  0
  -11.3510   -1.5610   -7.0050 C   0  0  0  0  0  0  0  0  0  0  0  0
  -11.5670   -2.0120   -5.7590 F   0  0  0  0  0  0  0  0  0  0  0  0
   -9.0310   -3.9590   -7.4510 N   0  0  0  0  0  0  0  0  0  0  0  0
   -4.8460   -2.2120  -10.5160 C   0  0  0  0  0  0  0  0  0  0  0  0
   -2.9701    0.1222  -10.7982 H   0  0  0  0  0  0  0  0  0  0  0  0
   -3.2883   -0.9816  -12.1791 H   0  0  0  0  0  0  0  0  0  0  0  0
   -3.9754    0.6780  -12.1791 H   0  0  0  0  0  0  0  0  0  0  0  0
   -5.8107   -0.6010  -11.5443 H   0  0  0  0  0  0  0  0  0  0  0  0
   -5.2455    1.2045   -9.8949 H   0  0  0  0  0  0  0  0  0  0  0  0
   -6.3439   -0.1518   -9.3200 H   0  0  0  0  0  0  0  0  0  0  0  0
   -5.1133   -0.0659   -7.5199 H   0  0  0  0  0  0  0  0  0  0  0  0
   -3.1410    1.1950   -7.3310 H   0  0  0  0  0  0  0  0  0  0  0  0
   -2.5390    0.6950   -8.7950 H   0  0  0  0  0  0  0  0  0  0  0  0
   -3.7330    1.8370   -8.7410 H   0  0  0  0  0  0  0  0  0  0  0  0
   -2.8099   -1.3910   -8.9573 H   0  0  0  0  0  0  0  0  0  0  0  0
   -3.5158   -1.7388   -7.3403 H   0  0  0  0  0  0  0  0  0  0  0  0
   -5.6705   -2.4533   -8.5669 H   0  0  0  0  0  0  0  0  0  0  0  0
   -2.0951   -3.3688   -9.0259 H   0  0  0  0  0  0  0  0  0  0  0  0
   -1.2483   -5.6580   -8.7418 H   0  0  0  0  0  0  0  0  0  0  0  0
   -5.1059   -7.0845   -7.9788 H   0  0  0  0  0  0  0  0  0  0  0  0
   -7.0150   -4.7180   -8.8220 H   0  0  0  0  0  0  0  0  0  0  0  0
   -9.0742   -7.3125   -6.7918 H   0  0  0  0  0  0  0  0  0  0  0  0
  -11.5372   -6.9365   -7.1352 H   0  0  0  0  0  0  0  0  0  0  0  0
  -10.8423   -0.1917  -10.5909 H   0  0  0  0  0  0  0  0  0  0  0  0
  -11.8604    1.2708   -8.8404 H   0  0  0  0  0  0  0  0  0  0  0  0
  -12.1916    0.3797   -6.5298 H   0  0  0  0  0  0  0  0  0  0  0  0
   -3.9774   -2.6161  -11.0566 H   0  0  0  0  0  0  0  0  0  0  0  0
   -5.7899   -2.6854  -10.8240 H   0  0  0  0  0  0  0  0  0  0  0  0
  1  2  1  0
  2  3  1  0
  3  4  1  0
  4  5  1  0
  4  6  1  0
  6  7  1  0
  7  8  1  0
  8  9  2  0
  9 10  1  0
 10 11  2  0
 11 12  1  0
 12 13  2  0
 13 14  1  0
 14 15  1  0
 15 16  2  0
 15 17  1  0
 17 18  2  0
 18 19  1  0
 19 20  2  0
 20 21  1  0
 20 22  1  0
 22 23  1  0
 23 24  2  0
 24 25  1  0
 24 26  1  0
 26 27  2  0
 27 28  1  0
 28 29  2  0
 29 30  1  0
 22 31  2  0
  7 32  1  0
 32  2  1  0
 13  8  1  0
 31 17  1  0
 29 23  1  0
  1 33  1  0
  1 34  1  0
  1 35  1  0
  2 36  1  6
  3 37  1  0
  3 38  1  0
  4 39  1  1
  5 40  1  0
  5 41  1  0
  5 42  1  0
  6 43  1  0
  6 44  1  0
  7 45  1  1
  9 46  1  0
 10 47  1  0
 12 48  1  0
 14 49  1  0
 18 50  1  0
 19 51  1  0
 26 52  1  0
 27 53  1  0
 28 54  1  0
 32 55  1  0
 32 56  1  0
M  CHG  1   5   1
M  END
>  <meeko>  (6) 
{"is_sidechain": [false], "free_energy": -9.372, "intermolecular_energy": -11.768, "internal_energy": -1.362}

$$$$
5dwr_ligand
     RDKit          3D

 56 59  0  0  0  0  0  0  0  0999 V2000
  -11.7130   -2.7060   -9.4950 C   0  0  0  0  0  0  0  0  0  0  0  0
  -10.3110   -2.9320   -8.9230 C   0  0  2  0  0  0  0  0  0  0  0  0
  -10.1840   -2.3960   -7.4880 C   0  0  0  0  0  0  0  0  0  0  0  0
  -10.0740   -0.8690   -7.3790 C   0  0  2  0  0  0  0  0  0  0  0  0
  -11.4020   -0.2860   -7.0350 N   0  0  0  0  0  0  0  0  0  0  0  0
   -9.5610   -0.1930   -8.6470 C   0  0  0  0  0  0  0  0  0  0  0  0
   -8.5270   -1.0940   -9.3330 C   0  0  2  0  0  0  0  0  0  0  0  0
   -7.7320   -0.3140  -10.3610 C   0  0  0  0  0  0  0  0  0  0  0  0
   -8.3470    0.7960  -10.9830 C   0  0  0  0  0  0  0  0  0  0  0  0
   -7.7100    1.4600  -12.0190 C   0  0  0  0  0  0  0  0  0  0  0  0
   -6.5040    1.1080  -12.4840 N   0  0  0  0  0  0  0  0  0  0  0  0
   -5.9040    0.0680  -11.8620 C   0  0  0  0  0  0  0  0  0  0  0  0
   -6.4310   -0.6520  -10.7790 C   0  0  0  0  0  0  0  0  0  0  0  0
   -5.5770   -1.6470  -10.2540 N   0  0  0  0  0  0  0  0  0  0  0  0
   -4.2430   -1.6070   -9.8960 C   0  0  0  0  0  0  0  0  0  0  0  0
   -3.4840   -0.6430   -9.9140 O   0  0  0  0  0  0  0  0  0  0  0  0
   -3.7250   -2.9610   -9.4960 C   0  0  0  0  0  0  0  0  0  0  0  0
   -2.4800   -3.4020   -9.9270 C   0  0  0  0  0  0  0  0  0  0  0  0
   -2.0550   -4.6600   -9.5120 C   0  0  0  0  0  0  0  0  0  0  0  0
   -2.8830   -5.4230   -8.6940 C   0  0  0  0  0  0  0  0  0  0  0  0
   -2.4560   -6.6220   -8.2760 F   0  0  0  0  0  0  0  0  0  0  0  0
   -4.1280   -4.9210   -8.3070 C   0  0  0  0  0  0  0  0  0  0  0  0
   -5.0510   -5.6700   -7.4560 C   0  0  0  0  0  0  0  0  0  0  0  0
   -6.3960   -5.8390   -7.8090 C   0  0  0  0  0  0  0  0  0  0  0  0
   -6.8680   -5.2970   -8.9430 F   0  0  0  0  0  0  0  0  0  0  0  0
   -7.2860   -6.5530   -7.0040 C   0  0  0  0  0  0  0  0  0  0  0  0
   -6.8420   -7.1230   -5.8140 C   0  0  0  0  0  0  0  0  0  0  0  0
   -5.5090   -6.9760   -5.4400 C   0  0  0  0  0  0  0  0  0  0  0  0
   -4.6330   -6.2590   -6.2560 C   0  0  0  0  0  0  0  0  0  0  0  0
   -3.3500   -6.1610   -5.8740 F   0  0  0  0  0  0  0  0  0  0  0  0
   -4.5590   -3.6910   -8.7030 N   0  0  0  0  0  0  0  0  0  0  0  0
   -9.2200   -2.3740   -9.8680 C   0  0  0  0  0  0  0  0  0  0  0  0
  -12.4313   -2.5902   -8.6700 H   0  0  0  0  0  0  0  0  0  0  0  0
  -11.7146   -1.7960  -10.1130 H   0  0  0  0  0  0  0  0  0  0  0  0
  -12.0004   -3.5694  -10.1130 H   0  0  0  0  0  0  0  0  0  0  0  0
  -10.1486   -4.0180   -8.8587 H   0  0  0  0  0  0  0  0  0  0  0  0
  -11.0719   -2.7164   -6.9232 H   0  0  0  0  0  0  0  0  0  0  0  0
   -9.2443   -2.8037   -7.0871 H   0  0  0  0  0  0  0  0  0  0  0  0
   -9.3348   -0.6793   -6.5868 H   0  0  0  0  0  0  0  0  0  0  0  0
  -11.5890    0.5920   -7.5320 H   0  0  0  0  0  0  0  0  0  0  0  0
  -12.1640   -0.9410   -7.2550 H   0  0  0  0  0  0  0  0  0  0  0  0
  -11.4560   -0.0900   -6.0260 H   0  0  0  0  0  0  0  0  0  0  0  0
  -10.4028   -0.0154   -9.3325 H   0  0  0  0  0  0  0  0  0  0  0  0
   -9.0900    0.7653   -8.3830 H   0  0  0  0  0  0  0  0  0  0  0  0
   -7.7763   -1.4423   -8.6084 H   0  0  0  0  0  0  0  0  0  0  0  0
   -9.3367    1.1347  -10.6429 H   0  0  0  0  0  0  0  0  0  0  0  0
   -8.2194    2.3179  -12.4822 H   0  0  0  0  0  0  0  0  0  0  0  0
   -4.9172   -0.2404  -12.2376 H   0  0  0  0  0  0  0  0  0  0  0  0
   -5.9190   -2.6090  -10.3230 H   0  0  0  0  0  0  0  0  0  0  0  0
   -1.8500   -2.7760  -10.5761 H   0  0  0  0  0  0  0  0  0  0  0  0
   -1.0749   -5.0475   -9.8271 H   0  0  0  0  0  0  0  0  0  0  0  0
   -8.3367   -6.6649   -7.3098 H   0  0  0  0  0  0  0  0  0  0  0  0
   -7.5386   -7.6849   -5.1745 H   0  0  0  0  0  0  0  0  0  0  0  0
   -5.1470   -7.4242   -4.5030 H   0  0  0  0  0  0  0  0  0  0  0  0
   -9.6865   -2.1377  -10.8357 H   0  0  0  0  0  0  0  0  0  0  0  0
   -8.4431   -3.1479   -9.9544 H   0  0  0  0  0  0  0  0  0  0  0  0
  1  2  1  0
  2  3  1  0
  3  4  1  0
  4  5  1  0
  4  6  1  0
  6  7  1  0
  7  8  1  0
  8  9  2  0
  9 10  1  0
 10 11  2  0
 11 12  1  0
 12 13  2  0
 13 14  1  0
 14 15  1  0
 15 16  2  0
 15 17  1  0
 17 18  2  0
 18 19  1  0
 19 20  2  0
 20 21  1  0
 20 22  1  0
 22 23  1  0
 23 24  2  0
 24 25  1  0
 24 26  1  0
 26 27  2  0
 27 28  1  0
 28 29  2  0
 29 30  1  0
 22 31  2  0
  7 32  1  0
 32  2  1  0
 13  8  1  0
 31 17  1  0
 29 23  1  0
  1 33  1  0
  1 34  1  0
  1 35  1  0
  2 36  1  1
  3 37  1  0
  3 38  1  0
  4 39  1  1
  5 40  1  0
  5 41  1  0
  5 42  1  0
  6 43  1  0
  6 44  1  0
  7 45  1  1
  9 46  1  0
 10 47  1  0
 12 48  1  0
 14 49  1  0
 18 50  1  0
 19 51  1  0
 26 52  1  0
 27 53  1  0
 28 54  1  0
 32 55  1  0
 32 56  1  0
M  CHG  1   5   1
M  END
>  <meeko>  (7) 
{"is_sidechain": [false], "free_energy": -9.27, "intermolecular_energy": -12.263, "internal_energy": -0.738}

$$$$
5dwr_ligand
     RDKit          3D

 56 59  0  0  0  0  0  0  0  0999 V2000
   -9.6440   -5.0860   -7.9450 C   0  0  0  0  0  0  0  0  0  0  0  0
   -8.7320   -4.1100   -7.1950 C   0  0  2  0  0  0  0  0  0  0  0  0
   -8.8470   -2.6800   -7.7480 C   0  0  0  0  0  0  0  0  0  0  0  0
   -8.1360   -2.4480   -9.0880 C   0  0  2  0  0  0  0  0  0  0  0  0
   -9.1200   -2.5130  -10.2050 N   0  0  0  0  0  0  0  0  0  0  0  0
   -7.0130   -3.4420   -9.3720 C   0  0  0  0  0  0  0  0  0  0  0  0
   -6.3060   -3.8140   -8.0630 C   0  0  2  0  0  0  0  0  0  0  0  0
   -4.9750   -4.4840   -8.3430 C   0  0  0  0  0  0  0  0  0  0  0  0
   -4.8790   -5.8830   -8.1730 C   0  0  0  0  0  0  0  0  0  0  0  0
   -3.6550   -6.5200   -8.2920 C   0  0  0  0  0  0  0  0  0  0  0  0
   -2.5150   -5.8740   -8.5720 N   0  0  0  0  0  0  0  0  0  0  0  0
   -2.6180   -4.5410   -8.7700 C   0  0  0  0  0  0  0  0  0  0  0  0
   -3.8050   -3.7960   -8.7170 C   0  0  0  0  0  0  0  0  0  0  0  0
   -3.6630   -2.4270   -9.0370 N   0  0  0  0  0  0  0  0  0  0  0  0
   -3.6240   -1.7740  -10.2540 C   0  0  0  0  0  0  0  0  0  0  0  0
   -3.7540   -2.2560  -11.3750 O   0  0  0  0  0  0  0  0  0  0  0  0
   -3.3310   -0.3070  -10.0990 C   0  0  0  0  0  0  0  0  0  0  0  0
   -4.3230    0.5790   -9.7010 C   0  0  0  0  0  0  0  0  0  0  0  0
   -3.9820    1.9210   -9.5650 C   0  0  0  0  0  0  0  0  0  0  0  0
   -2.6770    2.3220   -9.8360 C   0  0  0  0  0  0  0  0  0  0  0  0
   -2.3490    3.6120   -9.6770 F   0  0  0  0  0  0  0  0  0  0  0  0
   -1.7320    1.3790  -10.2430 C   0  0  0  0  0  0  0  0  0  0  0  0
   -0.3470    1.7300  -10.5510 C   0  0  0  0  0  0  0  0  0  0  0  0
    0.0280    2.1770  -11.8240 C   0  0  0  0  0  0  0  0  0  0  0  0
   -0.8880    2.2760  -12.8000 F   0  0  0  0  0  0  0  0  0  0  0  0
    1.3480    2.5160  -12.1280 C   0  0  0  0  0  0  0  0  0  0  0  0
    2.3350    2.4170  -11.1500 C   0  0  0  0  0  0  0  0  0  0  0  0
    1.9900    1.9810   -9.8730 C   0  0  0  0  0  0  0  0  0  0  0  0
    0.6660    1.6460   -9.5860 C   0  0  0  0  0  0  0  0  0  0  0  0
    0.3690    1.2550   -8.3370 F   0  0  0  0  0  0  0  0  0  0  0  0
   -2.0480    0.0610  -10.3790 N   0  0  0  0  0  0  0  0  0  0  0  0
   -7.2720   -4.6200   -7.1570 C   0  0  0  0  0  0  0  0  0  0  0  0
  -10.2089   -5.6906   -7.2202 H   0  0  0  0  0  0  0  0  0  0  0  0
  -10.3452   -4.5209   -8.5767 H   0  0  0  0  0  0  0  0  0  0  0  0
   -9.0327   -5.7473   -8.5767 H   0  0  0  0  0  0  0  0  0  0  0  0
   -9.0781   -4.0636   -6.1519 H   0  0  0  0  0  0  0  0  0  0  0  0
   -9.9143   -2.4503   -7.8828 H   0  0  0  0  0  0  0  0  0  0  0  0
   -8.3504   -2.0249   -7.0170 H   0  0  0  0  0  0  0  0  0  0  0  0
   -7.6785   -1.4504   -9.0143 H   0  0  0  0  0  0  0  0  0  0  0  0
   -9.7560   -3.3140  -10.1250 H   0  0  0  0  0  0  0  0  0  0  0  0
   -9.6920   -1.6600  -10.2470 H   0  0  0  0  0  0  0  0  0  0  0  0
   -8.6310   -2.5920  -11.1070 H   0  0  0  0  0  0  0  0  0  0  0  0
   -7.4350   -4.3489   -9.8298 H   0  0  0  0  0  0  0  0  0  0  0  0
   -6.2870   -2.9835  -10.0596 H   0  0  0  0  0  0  0  0  0  0  0  0
   -6.0467   -2.9100   -7.4925 H   0  0  0  0  0  0  0  0  0  0  0  0
   -5.7812   -6.4696   -7.9449 H   0  0  0  0  0  0  0  0  0  0  0  0
   -3.6169   -7.6101   -8.1496 H   0  0  0  0  0  0  0  0  0  0  0  0
   -1.6904   -3.9930   -8.9920 H   0  0  0  0  0  0  0  0  0  0  0  0
   -3.3400   -1.8230   -8.2760 H   0  0  0  0  0  0  0  0  0  0  0  0
   -5.3468    0.2308   -9.4994 H   0  0  0  0  0  0  0  0  0  0  0  0
   -4.7353    2.6568   -9.2469 H   0  0  0  0  0  0  0  0  0  0  0  0
    1.6084    2.8611  -13.1395 H   0  0  0  0  0  0  0  0  0  0  0  0
    3.3770    2.6807  -11.3840 H   0  0  0  0  0  0  0  0  0  0  0  0
    2.7601    1.9008   -9.0917 H   0  0  0  0  0  0  0  0  0  0  0  0
   -7.2622   -5.6696   -7.4861 H   0  0  0  0  0  0  0  0  0  0  0  0
   -6.9169   -4.5009   -6.1227 H   0  0  0  0  0  0  0  0  0  0  0  0
  1  2  1  0
  2  3  1  0
  3  4  1  0
  4  5  1  0
  4  6  1  0
  6  7  1  0
  7  8  1  0
  8  9  2  0
  9 10  1  0
 10 11  2  0
 11 12  1  0
 12 13  2  0
 13 14  1  0
 14 15  1  0
 15 16  2  0
 15 17  1  0
 17 18  2  0
 18 19  1  0
 19 20  2  0
 20 21  1  0
 20 22  1  0
 22 23  1  0
 23 24  2  0
 24 25  1  0
 24 26  1  0
 26 27  2  0
 27 28  1  0
 28 29  2  0
 29 30  1  0
 22 31  2  0
  7 32  1  0
 32  2  1  0
 13  8  1  0
 31 17  1  0
 29 23  1  0
  1 33  1  0
  1 34  1  0
  1 35  1  0
  2 36  1  1
  3 37  1  0
  3 38  1  0
  4 39  1  1
  5 40  1  0
  5 41  1  0
  5 42  1  0
  6 43  1  0
  6 44  1  0
  7 45  1  1
  9 46  1  0
 10 47  1  0
 12 48  1  0
 14 49  1  0
 18 50  1  0
 19 51  1  0
 26 52  1  0
 27 53  1  0
 28 54  1  0
 32 55  1  0
 32 56  1  0
M  CHG  1   5   1
M  END
>  <meeko>  (8) 
{"is_sidechain": [false], "free_energy": -9.093, "intermolecular_energy": -11.429, "internal_energy": -1.349}

$$$$
5dwr_ligand
     RDKit          3D

 56 59  0  0  0  0  0  0  0  0999 V2000
   -7.5610    0.0390   -8.5300 C   0  0  0  0  0  0  0  0  0  0  0  0
   -7.9200   -0.7940   -9.7640 C   0  0  2  0  0  0  0  0  0  0  0  0
   -8.9770   -0.0980  -10.6370 C   0  0  0  0  0  0  0  0  0  0  0  0
  -10.4060   -0.1500  -10.0810 C   0  0  2  0  0  0  0  0  0  0  0  0
  -10.7330    1.1320   -9.3950 N   0  0  0  0  0  0  0  0  0  0  0  0
  -10.6510   -1.2980   -9.1060 C   0  0  0  0  0  0  0  0  0  0  0  0
   -9.8390   -2.5260   -9.5370 C   0  0  2  0  0  0  0  0  0  0  0  0
  -10.3360   -3.7720   -8.8330 C   0  0  0  0  0  0  0  0  0  0  0  0
  -11.7290   -3.9410   -8.6710 C   0  0  0  0  0  0  0  0  0  0  0  0
  -12.2240   -4.9970   -7.9220 C   0  0  0  0  0  0  0  0  0  0  0  0
  -11.4400   -5.9030   -7.3230 N   0  0  0  0  0  0  0  0  0  0  0  0
  -10.1090   -5.7580   -7.5110 C   0  0  0  0  0  0  0  0  0  0  0  0
   -9.4960   -4.7570   -8.2790 C   0  0  0  0  0  0  0  0  0  0  0  0
   -8.0910   -4.8650   -8.3840 N   0  0  0  0  0  0  0  0  0  0  0  0
   -7.1850   -5.6610   -7.7100 C   0  0  0  0  0  0  0  0  0  0  0  0
   -7.4150   -6.5190   -6.8640 O   0  0  0  0  0  0  0  0  0  0  0  0
   -5.7630   -5.3350   -8.0780 C   0  0  0  0  0  0  0  0  0  0  0  0
   -4.7610   -6.2880   -7.9570 C   0  0  0  0  0  0  0  0  0  0  0  0
   -3.4690   -5.9250   -8.3260 C   0  0  0  0  0  0  0  0  0  0  0  0
   -3.2310   -4.6360   -8.7910 C   0  0  0  0  0  0  0  0  0  0  0  0
   -1.9900   -4.3010   -9.1700 F   0  0  0  0  0  0  0  0  0  0  0  0
   -4.2850   -3.7240   -8.8760 C   0  0  0  0  0  0  0  0  0  0  0  0
   -4.1070   -2.3520   -9.3490 C   0  0  0  0  0  0  0  0  0  0  0  0
   -4.5350   -1.9560  -10.6220 C   0  0  0  0  0  0  0  0  0  0  0  0
   -5.1100   -2.8460  -11.4470 F   0  0  0  0  0  0  0  0  0  0  0  0
   -4.3700   -0.6490  -11.0830 C   0  0  0  0  0  0  0  0  0  0  0  0
   -3.7680    0.3060  -10.2670 C   0  0  0  0  0  0  0  0  0  0  0  0
   -3.3380   -0.0570   -8.9930 C   0  0  0  0  0  0  0  0  0  0  0  0
   -3.5100   -1.3690   -8.5480 C   0  0  0  0  0  0  0  0  0  0  0  0
   -3.1060   -1.6730   -7.3050 F   0  0  0  0  0  0  0  0  0  0  0  0
   -5.5560   -4.0620   -8.5210 N   0  0  0  0  0  0  0  0  0  0  0  0
   -8.3240   -2.2350   -9.3720 C   0  0  0  0  0  0  0  0  0  0  0  0
   -7.8058   -0.5290   -7.6203 H   0  0  0  0  0  0  0  0  0  0  0  0
   -6.4849    0.2667   -8.5417 H   0  0  0  0  0  0  0  0  0  0  0  0
   -8.1345    0.9776   -8.5417 H   0  0  0  0  0  0  0  0  0  0  0  0
   -7.0163   -0.8764  -10.3857 H   0  0  0  0  0  0  0  0  0  0  0  0
   -8.6900    0.9584  -10.7450 H   0  0  0  0  0  0  0  0  0  0  0  0
   -8.9965   -0.6422  -11.5927 H   0  0  0  0  0  0  0  0  0  0  0  0
  -11.0574   -0.3175  -10.9514 H   0  0  0  0  0  0  0  0  0  0  0  0
   -9.8980    1.6190   -9.0500 H   0  0  0  0  0  0  0  0  0  0  0  0
  -11.2340    1.7740  -10.0230 H   0  0  0  0  0  0  0  0  0  0  0  0
  -11.3480    0.9590   -8.5890 H   0  0  0  0  0  0  0  0  0  0  0  0
  -10.3419   -0.9917   -8.0957 H   0  0  0  0  0  0  0  0  0  0  0  0
  -11.7213   -1.5518   -9.1044 H   0  0  0  0  0  0  0  0  0  0  0  0
   -9.9885   -2.7340  -10.6068 H   0  0  0  0  0  0  0  0  0  0  0  0
  -12.4247   -3.2308   -9.1418 H   0  0  0  0  0  0  0  0  0  0  0  0
  -13.3142   -5.0959   -7.8142 H   0  0  0  0  0  0  0  0  0  0  0  0
   -9.4497   -6.4883   -7.0191 H   0  0  0  0  0  0  0  0  0  0  0  0
   -7.6230   -4.1080   -8.8900 H   0  0  0  0  0  0  0  0  0  0  0  0
   -4.9811   -7.2982   -7.5814 H   0  0  0  0  0  0  0  0  0  0  0  0
   -2.6450   -6.6498   -8.2507 H   0  0  0  0  0  0  0  0  0  0  0  0
   -4.7152   -0.3732  -12.0903 H   0  0  0  0  0  0  0  0  0  0  0  0
   -3.6335    1.3372  -10.6255 H   0  0  0  0  0  0  0  0  0  0  0  0
   -2.8636    0.6889   -8.3384 H   0  0  0  0  0  0  0  0  0  0  0  0
   -8.0522   -2.3972   -8.3185 H   0  0  0  0  0  0  0  0  0  0  0  0
   -7.7906   -2.9144  -10.0532 H   0  0  0  0  0  0  0  0  0  0  0  0
  1  2  1  0
  2  3  1  0
  3  4  1  0
  4  5  1  0
  4  6  1  0
  6  7  1  0
  7  8  1  0
  8  9  2  0
  9 10  1  0
 10 11  2  0
 11 12  1  0
 12 13  2  0
 13 14  1  0
 14 15  1  0
 15 16  2  0
 15 17  1  0
 17 18  2  0
 18 19  1  0
 19 20  2  0
 20 21  1  0
 20 22  1  0
 22 23  1  0
 23 24  2  0
 24 25  1  0
 24 26  1  0
 26 27  2  0
 27 28  1  0
 28 29  2  0
 29 30  1  0
 22 31  2  0
  7 32  1  0
 32  2  1  0
 13  8  1  0
 31 17  1  0
 29 23  1  0
  1 33  1  0
  1 34  1  0
  1 35  1  0
  2 36  1  6
  3 37  1  0
  3 38  1  0
  4 39  1  6
  5 40  1  0
  5 41  1  0
  5 42  1  0
  6 43  1  0
  6 44  1  0
  7 45  1  6
  9 46  1  0
 10 47  1  0
 12 48  1  0
 14 49  1  0
 18 50  1  0
 19 51  1  0
 26 52  1  0
 27 53  1  0
 28 54  1  0
 32 55  1  0
 32 56  1  0
M  CHG  1   5   1
M  END
>  <meeko>  (9) 
{"is_sidechain": [false], "free_energy": -9.035, "intermolecular_energy": -11.582, "internal_energy": -1.122}

$$$$
