
     RDKit          3D

 10  9  0  0  0  0  0  0  0  0999 V2000
   -1.7550    3.2630   -1.6070 C   0  0  0  0  0  0  0  0  0  0  0  0
   -0.6000    3.5220   -0.6480 C   0  0  0  0  0  0  0  0  0  0  0  0
    0.6850    3.8500   -1.3790 C   0  0  0  0  0  0  0  0  0  0  0  0
    1.8460    4.1590   -0.4510 C   0  0  0  0  0  0  0  0  0  0  0  0
    3.1460    4.3570   -1.2090 C   0  0  0  0  0  0  0  0  0  0  0  0
    4.2150    5.0640   -0.4030 C   0  0  0  0  0  0  0  0  0  0  0  0
    5.5990    4.7390   -0.9600 C   0  0  0  0  0  0  0  0  0  0  0  0
    6.6700    5.7800   -0.6510 C   0  0  0  0  0  0  0  0  0  0  0  0
    7.3640    5.6380    0.3450 O   0  0  0  0  0  0  0  0  0  0  0  0
    6.7980    6.7220   -1.4110 O   0  0  0  0  0  0  0  0  0  0  0  0
  2  1  1  0
  3  2  1  0
  4  3  1  0
  5  4  1  0
  6  5  1  0
  7  6  1  0
  8  7  1  0
  9  8  2  0
 10  8  1  0
M  CHG  1  10  -1
M  END
$$$$
