
     RDKit          3D

 25 26  0  0  0  0  0  0  0  0999 V2000
   -4.9280   -3.6980   11.0970 C   0  0  0  0  0  0  0  0  0  0  0  0
   -3.7860   -2.7280   10.7140 C   0  0  2  0  0  0  0  0  0  0  0  0
   -2.8600   -2.6630   11.8100 O   0  0  0  0  0  0  0  0  0  0  0  0
   -4.3280   -1.3250   10.4430 C   0  0  0  0  0  0  0  0  0  0  0  0
   -3.3660   -0.5730    9.7040 O   0  0  0  0  0  0  0  0  0  0  0  0
   -3.7710    0.5590    9.0490 C   0  0  0  0  0  0  0  0  0  0  0  0
   -2.9750    1.0820    7.9990 C   0  0  0  0  0  0  0  0  0  0  0  0
   -3.3840    2.2290    7.3220 C   0  0  0  0  0  0  0  0  0  0  0  0
   -4.5670    2.8790    7.6820 C   0  0  0  0  0  0  0  0  0  0  0  0
   -5.0290    4.0520    7.0120 C   0  0  0  0  0  0  0  0  0  0  0  0
   -5.4110    5.0150    6.4580 N   0  0  0  0  0  0  0  0  0  0  0  0
   -5.3490    2.3560    8.7290 C   0  0  0  0  0  0  0  0  0  0  0  0
   -4.9390    1.2080    9.4060 C   0  0  0  0  0  0  0  0  0  0  0  0
   -3.0700   -3.2150    9.4700 C   0  0  0  0  0  0  0  0  0  0  0  0
   -3.6820   -3.5850    8.4950 O   0  0  0  0  0  0  0  0  0  0  0  0
   -1.7020   -3.1560    9.5140 N   0  0  0  0  0  0  0  0  0  0  0  0
   -0.8030   -3.4990    8.5260 C   0  0  0  0  0  0  0  0  0  0  0  0
    0.5370   -3.3180    8.8030 C   0  0  0  0  0  0  0  0  0  0  0  0
    1.4950   -3.6200    7.8640 C   0  0  0  0  0  0  0  0  0  0  0  0
    1.1300   -4.1180    6.6140 C   0  0  0  0  0  0  0  0  0  0  0  0
    2.1520   -4.4170    5.6440 C   0  0  0  0  0  0  0  0  0  0  0  0
    2.9800   -4.6540    4.8860 N   0  0  0  0  0  0  0  0  0  0  0  0
   -0.2430   -4.3180    6.3020 C   0  0  0  0  0  0  0  0  0  0  0  0
   -0.8710   -5.0460    4.4600 I   0  0  0  0  0  0  0  0  0  0  0  0
   -1.1980   -4.0100    7.2610 C   0  0  0  0  0  0  0  0  0  0  0  0
  2  1  1  1
  3  2  1  0
  4  2  1  0
  5  4  1  0
  6  5  1  0
  7  6  2  0
  8  7  1  0
  9  8  2  0
 10  9  1  0
 11 10  3  0
 12  9  1  0
 13 12  2  0
 13  6  1  0
 14  2  1  0
 15 14  2  0
 16 14  1  0
 17 16  1  0
 18 17  2  0
 19 18  1  0
 20 19  2  0
 21 20  1  0
 22 21  3  0
 23 20  1  0
 24 23  1  0
 25 23  2  0
 25 17  1  0
M  END
$$$$
