3arp_ligand
     RDKit          3D

 74 77  0  0  0  0  0  0  0  0999 V2000
    2.0210   -2.7890  -11.0470 C   0  0  0  0  0  0  0  0  0  0  0  0
    2.1790   -3.9170  -10.0590 C   0  0  0  0  0  0  0  0  0  0  0  0
    2.9620   -3.6860   -8.9260 C   0  0  0  0  0  0  0  0  0  0  0  0
    3.1950   -4.6820   -7.9910 C   0  0  0  0  0  0  0  0  0  0  0  0
    3.8990   -4.3360   -6.8310 N   0  0  0  0  0  0  0  0  0  0  0  0
    2.5300   -5.9100   -8.1490 C   0  0  0  0  0  0  0  0  0  0  0  0
    2.6170   -6.9360   -7.1770 C   0  0  0  0  0  0  0  0  0  0  0  0
    1.9780   -8.1630   -7.3400 C   0  0  0  0  0  0  0  0  0  0  0  0
    1.2280   -8.3980   -8.4770 C   0  0  0  0  0  0  0  0  0  0  0  0
    1.1100   -7.4020   -9.4480 C   0  0  0  0  0  0  0  0  0  0  0  0
    1.7430   -6.1430   -9.3140 C   0  0  0  0  0  0  0  0  0  0  0  0
    1.6100   -5.1450  -10.2590 N   0  0  0  0  0  0  0  0  0  0  0  0
    0.8460   -5.3970  -11.5230 C   0  0  0  0  0  0  0  0  0  0  0  0
    1.8030   -5.8080  -12.6420 C   0  0  0  0  0  0  0  0  0  0  0  0
    1.5710   -7.2380  -13.1350 C   0  0  0  0  0  0  0  0  0  0  0  0
    2.8080   -7.9830  -13.6500 C   0  0  0  0  0  0  0  0  0  0  0  0
    3.5910   -8.6940  -12.5410 C   0  0  0  0  0  0  0  0  0  0  0  0
    3.9170  -10.1620  -12.8570 C   0  0  0  0  0  0  0  0  0  0  0  0
    4.5710  -10.3540  -14.2320 C   0  0  0  0  0  0  0  0  0  0  0  0
    5.6950  -11.3990  -14.2430 C   0  0  0  0  0  0  0  0  0  0  0  0
    5.7880  -12.2140  -12.9500 C   0  0  0  0  0  0  0  0  0  0  0  0
    7.0540  -11.9340  -12.1310 C   0  0  0  0  0  0  0  0  0  0  0  0
    6.9060  -12.3800  -10.7070 N   0  0  0  0  0  0  0  0  0  0  0  0
    7.2690  -13.6540  -10.3590 C   0  0  0  0  0  0  0  0  0  0  0  0
    7.7200  -14.6710  -11.3770 C   0  0  0  0  0  0  0  0  0  0  0  0
    7.1970  -14.0620   -9.0250 C   0  0  0  0  0  0  0  0  0  0  0  0
    6.7760  -13.2010   -8.0240 C   0  0  0  0  0  0  0  0  0  0  0  0
    6.6430  -13.7190   -6.7300 N   0  0  0  0  0  0  0  0  0  0  0  0
    6.2850  -11.9390   -8.4000 C   0  0  0  0  0  0  0  0  0  0  0  0
    5.7030  -11.0570   -7.4600 C   0  0  0  0  0  0  0  0  0  0  0  0
    5.2180   -9.8030   -7.8250 C   0  0  0  0  0  0  0  0  0  0  0  0
    5.2960   -9.3980   -9.1440 C   0  0  0  0  0  0  0  0  0  0  0  0
    5.8570  -10.2490  -10.0990 C   0  0  0  0  0  0  0  0  0  0  0  0
    6.3630  -11.5280   -9.7630 C   0  0  0  0  0  0  0  0  0  0  0  0
    1.8883   -1.8417  -10.5038 H   0  0  0  0  0  0  0  0  0  0  0  0
    2.9192   -2.7266  -11.6790 H   0  0  0  0  0  0  0  0  0  0  0  0
    1.1402   -2.9758  -11.6790 H   0  0  0  0  0  0  0  0  0  0  0  0
    3.4040   -2.6905   -8.7721 H   0  0  0  0  0  0  0  0  0  0  0  0
    4.8650   -4.6470   -6.7780 H   0  0  0  0  0  0  0  0  0  0  0  0
    3.4260   -4.5020   -5.9470 H   0  0  0  0  0  0  0  0  0  0  0  0
    3.2070   -6.7588   -6.2657 H   0  0  0  0  0  0  0  0  0  0  0  0
    2.0698   -8.9410   -6.5678 H   0  0  0  0  0  0  0  0  0  0  0  0
    0.7257   -9.3667   -8.6163 H   0  0  0  0  0  0  0  0  0  0  0  0
    0.5061   -7.6018  -10.3455 H   0  0  0  0  0  0  0  0  0  0  0  0
    0.1172   -6.2032  -11.3531 H   0  0  0  0  0  0  0  0  0  0  0  0
    0.3226   -4.4753  -11.8172 H   0  0  0  0  0  0  0  0  0  0  0  0
    1.6676   -5.1194  -13.4890 H   0  0  0  0  0  0  0  0  0  0  0  0
    2.8235   -5.7632  -12.2339 H   0  0  0  0  0  0  0  0  0  0  0  0
    1.1532   -7.8181  -12.2990 H   0  0  0  0  0  0  0  0  0  0  0  0
    0.8993   -7.1465  -14.0013 H   0  0  0  0  0  0  0  0  0  0  0  0
    2.4827   -8.7342  -14.3848 H   0  0  0  0  0  0  0  0  0  0  0  0
    3.4792   -7.2332  -14.0943 H   0  0  0  0  0  0  0  0  0  0  0  0
    4.5367   -8.1547  -12.3834 H   0  0  0  0  0  0  0  0  0  0  0  0
    2.9520   -8.6927  -11.6456 H   0  0  0  0  0  0  0  0  0  0  0  0
    4.6049  -10.5409  -12.0868 H   0  0  0  0  0  0  0  0  0  0  0  0
    2.9650  -10.7130  -12.8682 H   0  0  0  0  0  0  0  0  0  0  0  0
    3.7949  -10.6719  -14.9438 H   0  0  0  0  0  0  0  0  0  0  0  0
    5.0261   -9.3912  -14.5075 H   0  0  0  0  0  0  0  0  0  0  0  0
    5.5173  -12.0919  -15.0786 H   0  0  0  0  0  0  0  0  0  0  0  0
    6.6432  -10.8513  -14.3476 H   0  0  0  0  0  0  0  0  0  0  0  0
    4.9127  -11.9772  -12.3272 H   0  0  0  0  0  0  0  0  0  0  0  0
    5.8232  -13.2741  -13.2416 H   0  0  0  0  0  0  0  0  0  0  0  0
    7.8988  -12.4714  -12.5865 H   0  0  0  0  0  0  0  0  0  0  0  0
    7.2291  -10.8480  -12.1327 H   0  0  0  0  0  0  0  0  0  0  0  0
    8.1135  -15.5583  -10.8594 H   0  0  0  0  0  0  0  0  0  0  0  0
    6.8667  -14.9624  -12.0071 H   0  0  0  0  0  0  0  0  0  0  0  0
    8.5088  -14.2342  -12.0071 H   0  0  0  0  0  0  0  0  0  0  0  0
    7.4814  -15.0917   -8.7627 H   0  0  0  0  0  0  0  0  0  0  0  0
    7.0820  -13.1930   -5.9800 H   0  0  0  0  0  0  0  0  0  0  0  0
    6.8200  -14.7150   -6.6190 H   0  0  0  0  0  0  0  0  0  0  0  0
    5.6310  -11.3708   -6.4082 H   0  0  0  0  0  0  0  0  0  0  0  0
    4.7755   -9.1391   -7.0677 H   0  0  0  0  0  0  0  0  0  0  0  0
    4.9175   -8.4087   -9.4408 H   0  0  0  0  0  0  0  0  0  0  0  0
    5.9073   -9.9148  -11.1458 H   0  0  0  0  0  0  0  0  0  0  0  0
  1  2  1  0
  2  3  2  0
  3  4  1  0
  4  5  1  0
  4  6  2  0
  6  7  1  0
  7  8  2  0
  8  9  1  0
  9 10  2  0
 10 11  1  0
 11 12  2  0
 12 13  1  0
 13 14  1  0
 14 15  1  0
 15 16  1  0
 16 17  1  0
 17 18  1  0
 18 19  1  0
 19 20  1  0
 20 21  1  0
 21 22  1  0
 22 23  1  0
 23 24  2  0
 24 25  1  0
 24 26  1  0
 26 27  2  0
 27 28  1  0
 27 29  1  0
 29 30  2  0
 30 31  1  0
 31 32  2  0
 32 33  1  0
 33 34  2  0
 12  2  1  0
 34 23  1  0
 11  6  1  0
 34 29  1  0
  1 35  1  0
  1 36  1  0
  1 37  1  0
  3 38  1  0
  5 39  1  0
  5 40  1  0
  7 41  1  0
  8 42  1  0
  9 43  1  0
 10 44  1  0
 13 45  1  0
 13 46  1  0
 14 47  1  0
 14 48  1  0
 15 49  1  0
 15 50  1  0
 16 51  1  0
 16 52  1  0
 17 53  1  0
 17 54  1  0
 18 55  1  0
 18 56  1  0
 19 57  1  0
 19 58  1  0
 20 59  1  0
 20 60  1  0
 21 61  1  0
 21 62  1  0
 22 63  1  0
 22 64  1  0
 25 65  1  0
 25 66  1  0
 25 67  1  0
 26 68  1  0
 28 69  1  0
 28 70  1  0
 30 71  1  0
 31 72  1  0
 32 73  1  0
 33 74  1  0
M  CHG  2  12   1  23   1
M  END
>  <meeko>  (1) 
{"is_sidechain": [false], "free_energy": -10.347, "intermolecular_energy": -17.606, "internal_energy": -2.037}

$$$$
3arp_ligand
     RDKit          3D

 74 77  0  0  0  0  0  0  0  0999 V2000
    8.2130  -14.6380  -11.1890 C   0  0  0  0  0  0  0  0  0  0  0  0
    7.5070  -13.6830  -10.2580 C   0  0  0  0  0  0  0  0  0  0  0  0
    7.3370  -14.0770   -8.9290 C   0  0  0  0  0  0  0  0  0  0  0  0
    6.6610  -13.2800   -8.0190 C   0  0  0  0  0  0  0  0  0  0  0  0
    6.6300  -13.6970   -6.6820 N   0  0  0  0  0  0  0  0  0  0  0  0
    6.2430  -12.0040   -8.4360 C   0  0  0  0  0  0  0  0  0  0  0  0
    5.6540  -11.0820   -7.5370 C   0  0  0  0  0  0  0  0  0  0  0  0
    5.2170   -9.8250   -7.9500 C   0  0  0  0  0  0  0  0  0  0  0  0
    5.3620   -9.4510   -9.2730 C   0  0  0  0  0  0  0  0  0  0  0  0
    5.9510  -10.3320  -10.1820 C   0  0  0  0  0  0  0  0  0  0  0  0
    6.4080  -11.6150   -9.7970 C   0  0  0  0  0  0  0  0  0  0  0  0
    7.0140  -12.4820  -10.6850 N   0  0  0  0  0  0  0  0  0  0  0  0
    7.1320  -12.1180  -12.1340 C   0  0  0  0  0  0  0  0  0  0  0  0
    5.9030  -12.6080  -12.9000 C   0  0  0  0  0  0  0  0  0  0  0  0
    5.8610  -12.1090  -14.3470 C   0  0  0  0  0  0  0  0  0  0  0  0
    5.1250  -10.7840  -14.5820 C   0  0  0  0  0  0  0  0  0  0  0  0
    4.2640  -10.3530  -13.3910 C   0  0  0  0  0  0  0  0  0  0  0  0
    3.6960   -8.9310  -13.5220 C   0  0  0  0  0  0  0  0  0  0  0  0
    3.1340   -8.3810  -12.2040 C   0  0  0  0  0  0  0  0  0  0  0  0
    2.5640   -6.9590  -12.3180 C   0  0  0  0  0  0  0  0  0  0  0  0
    1.0400   -6.9210  -12.4610 C   0  0  0  0  0  0  0  0  0  0  0  0
    0.3450   -6.0150  -11.4370 C   0  0  0  0  0  0  0  0  0  0  0  0
    1.2940   -5.5450  -10.3740 N   0  0  0  0  0  0  0  0  0  0  0  0
    1.9130   -4.3320  -10.5130 C   0  0  0  0  0  0  0  0  0  0  0  0
    1.7600   -3.4850  -11.7510 C   0  0  0  0  0  0  0  0  0  0  0  0
    2.7490   -3.8530   -9.5010 C   0  0  0  0  0  0  0  0  0  0  0  0
    2.9640   -4.5730   -8.3370 C   0  0  0  0  0  0  0  0  0  0  0  0
    3.8900   -4.0650   -7.4170 N   0  0  0  0  0  0  0  0  0  0  0  0
    2.4310   -5.8710   -8.2520 C   0  0  0  0  0  0  0  0  0  0  0  0
    2.7230   -6.7260   -7.1640 C   0  0  0  0  0  0  0  0  0  0  0  0
    2.1930   -8.0110   -7.0710 C   0  0  0  0  0  0  0  0  0  0  0  0
    1.3610   -8.4800   -8.0700 C   0  0  0  0  0  0  0  0  0  0  0  0
    1.0610   -7.6650   -9.1630 C   0  0  0  0  0  0  0  0  0  0  0  0
    1.5760   -6.3520   -9.2880 C   0  0  0  0  0  0  0  0  0  0  0  0
    8.7649  -15.3845  -10.5990 H   0  0  0  0  0  0  0  0  0  0  0  0
    7.4721  -15.1467  -11.8233 H   0  0  0  0  0  0  0  0  0  0  0  0
    8.9166  -14.0789  -11.8233 H   0  0  0  0  0  0  0  0  0  0  0  0
    7.7489  -15.0415   -8.5972 H   0  0  0  0  0  0  0  0  0  0  0  0
    5.8360  -14.2690   -6.4050 H   0  0  0  0  0  0  0  0  0  0  0  0
    6.8140  -12.9860   -5.9810 H   0  0  0  0  0  0  0  0  0  0  0  0
    5.5379  -11.3667   -6.4808 H   0  0  0  0  0  0  0  0  0  0  0  0
    4.7590   -9.1339   -7.2271 H   0  0  0  0  0  0  0  0  0  0  0  0
    5.0145   -8.4627   -9.6084 H   0  0  0  0  0  0  0  0  0  0  0  0
    6.0634  -10.0191  -11.2305 H   0  0  0  0  0  0  0  0  0  0  0  0
    7.2084  -11.0248  -12.2296 H   0  0  0  0  0  0  0  0  0  0  0  0
    8.0309  -12.5938  -12.5529 H   0  0  0  0  0  0  0  0  0  0  0  0
    5.9111  -13.7079  -12.9087 H   0  0  0  0  0  0  0  0  0  0  0  0
    5.0154  -12.2076  -12.3882 H   0  0  0  0  0  0  0  0  0  0  0  0
    6.8987  -11.9825  -14.6893 H   0  0  0  0  0  0  0  0  0  0  0  0
    5.2913  -12.8668  -14.9048 H   0  0  0  0  0  0  0  0  0  0  0  0
    5.8710   -9.9993  -14.7763 H   0  0  0  0  0  0  0  0  0  0  0  0
    4.4493  -10.9324  -15.4373 H   0  0  0  0  0  0  0  0  0  0  0  0
    3.4229  -11.0558  -13.2981 H   0  0  0  0  0  0  0  0  0  0  0  0
    4.9154  -10.3587  -12.5046 H   0  0  0  0  0  0  0  0  0  0  0  0
    4.5003   -8.2634  -13.8648 H   0  0  0  0  0  0  0  0  0  0  0  0
    2.8631   -8.9763  -14.2391 H   0  0  0  0  0  0  0  0  0  0  0  0
    2.3303   -9.0505  -11.8636 H   0  0  0  0  0  0  0  0  0  0  0  0
    3.9723   -8.3339  -11.4933 H   0  0  0  0  0  0  0  0  0  0  0  0
    2.8428   -6.3987  -11.4134 H   0  0  0  0  0  0  0  0  0  0  0  0
    2.9857   -6.5139  -13.2313 H   0  0  0  0  0  0  0  0  0  0  0  0
    0.7952   -6.5562  -13.4695 H   0  0  0  0  0  0  0  0  0  0  0  0
    0.6758   -7.9437  -12.2835 H   0  0  0  0  0  0  0  0  0  0  0  0
   -0.0674   -5.1388  -11.9588 H   0  0  0  0  0  0  0  0  0  0  0  0
   -0.4519   -6.5970  -10.9509 H   0  0  0  0  0  0  0  0  0  0  0  0
    1.5714   -2.4411  -11.4600 H   0  0  0  0  0  0  0  0  0  0  0  0
    2.6823   -3.5383  -12.3481 H   0  0  0  0  0  0  0  0  0  0  0  0
    0.9146   -3.8577  -12.3481 H   0  0  0  0  0  0  0  0  0  0  0  0
    3.2481   -2.8815   -9.6316 H   0  0  0  0  0  0  0  0  0  0  0  0
    4.5120   -4.7370   -6.9760 H   0  0  0  0  0  0  0  0  0  0  0  0
    3.5330   -3.4060   -6.7300 H   0  0  0  0  0  0  0  0  0  0  0  0
    3.3892   -6.3652   -6.3665 H   0  0  0  0  0  0  0  0  0  0  0  0
    2.4352   -8.6484   -6.2078 H   0  0  0  0  0  0  0  0  0  0  0  0
    0.9364   -9.4926   -8.0040 H   0  0  0  0  0  0  0  0  0  0  0  0
    0.4029   -8.0557   -9.9531 H   0  0  0  0  0  0  0  0  0  0  0  0
  1  2  1  0
  2  3  2  0
  3  4  1  0
  4  5  1  0
  4  6  2  0
  6  7  1  0
  7  8  2  0
  8  9  1  0
  9 10  2  0
 10 11  1  0
 11 12  2  0
 12 13  1  0
 13 14  1  0
 14 15  1  0
 15 16  1  0
 16 17  1  0
 17 18  1  0
 18 19  1  0
 19 20  1  0
 20 21  1  0
 21 22  1  0
 22 23  1  0
 23 24  2  0
 24 25  1  0
 24 26  1  0
 26 27  2  0
 27 28  1  0
 27 29  1  0
 29 30  2  0
 30 31  1  0
 31 32  2  0
 32 33  1  0
 33 34  2  0
 12  2  1  0
 34 23  1  0
 11  6  1  0
 34 29  1  0
  1 35  1  0
  1 36  1  0
  1 37  1  0
  3 38  1  0
  5 39  1  0
  5 40  1  0
  7 41  1  0
  8 42  1  0
  9 43  1  0
 10 44  1  0
 13 45  1  0
 13 46  1  0
 14 47  1  0
 14 48  1  0
 15 49  1  0
 15 50  1  0
 16 51  1  0
 16 52  1  0
 17 53  1  0
 17 54  1  0
 18 55  1  0
 18 56  1  0
 19 57  1  0
 19 58  1  0
 20 59  1  0
 20 60  1  0
 21 61  1  0
 21 62  1  0
 22 63  1  0
 22 64  1  0
 25 65  1  0
 25 66  1  0
 25 67  1  0
 26 68  1  0
 28 69  1  0
 28 70  1  0
 30 71  1  0
 31 72  1  0
 32 73  1  0
 33 74  1  0
M  CHG  2  12   1  23   1
M  END
>  <meeko>  (2) 
{"is_sidechain": [false], "free_energy": -10.211, "intermolecular_energy": -17.677, "internal_energy": -1.734}

$$$$
3arp_ligand
     RDKit          3D

 74 77  0  0  0  0  0  0  0  0999 V2000
    7.9850  -14.3790  -11.5990 C   0  0  0  0  0  0  0  0  0  0  0  0
    7.3510  -13.5790  -10.4890 C   0  0  0  0  0  0  0  0  0  0  0  0
    7.2790  -14.1650   -9.2230 C   0  0  0  0  0  0  0  0  0  0  0  0
    6.6730  -13.5170   -8.1580 C   0  0  0  0  0  0  0  0  0  0  0  0
    6.7410  -14.1260   -6.8990 N   0  0  0  0  0  0  0  0  0  0  0  0
    6.2260  -12.1980   -8.3510 C   0  0  0  0  0  0  0  0  0  0  0  0
    5.7060  -11.4240   -7.2860 C   0  0  0  0  0  0  0  0  0  0  0  0
    5.2410  -10.1250   -7.4760 C   0  0  0  0  0  0  0  0  0  0  0  0
    5.2860   -9.5590   -8.7380 C   0  0  0  0  0  0  0  0  0  0  0  0
    5.8070  -10.2910   -9.8060 C   0  0  0  0  0  0  0  0  0  0  0  0
    6.2900  -11.6120   -9.6490 C   0  0  0  0  0  0  0  0  0  0  0  0
    6.8280  -12.3330  -10.6970 N   0  0  0  0  0  0  0  0  0  0  0  0
    6.8390  -11.7590  -12.0820 C   0  0  0  0  0  0  0  0  0  0  0  0
    5.4440  -11.8570  -12.7010 C   0  0  0  0  0  0  0  0  0  0  0  0
    5.3330  -11.1290  -14.0430 C   0  0  0  0  0  0  0  0  0  0  0  0
    4.3890   -9.9210  -14.0780 C   0  0  0  0  0  0  0  0  0  0  0  0
    3.9320   -9.4710  -12.6860 C   0  0  0  0  0  0  0  0  0  0  0  0
    3.2240   -8.1070  -12.6780 C   0  0  0  0  0  0  0  0  0  0  0  0
    2.7820   -7.6470  -14.0730 C   0  0  0  0  0  0  0  0  0  0  0  0
    1.4840   -6.8260  -14.0730 C   0  0  0  0  0  0  0  0  0  0  0  0
    1.5810   -5.5280  -13.2680 C   0  0  0  0  0  0  0  0  0  0  0  0
    0.4260   -5.3250  -12.2780 C   0  0  0  0  0  0  0  0  0  0  0  0
    0.4800   -6.3140  -11.1510 N   0  0  0  0  0  0  0  0  0  0  0  0
   -0.3130   -7.4290  -11.1950 C   0  0  0  0  0  0  0  0  0  0  0  0
   -1.3240   -7.6570  -12.2900 C   0  0  0  0  0  0  0  0  0  0  0  0
   -0.2260   -8.3900  -10.1840 C   0  0  0  0  0  0  0  0  0  0  0  0
    0.6610   -8.2540   -9.1290 C   0  0  0  0  0  0  0  0  0  0  0  0
    0.6170   -9.2140   -8.1100 N   0  0  0  0  0  0  0  0  0  0  0  0
    1.3810   -7.0510   -9.0190 C   0  0  0  0  0  0  0  0  0  0  0  0
    2.1960   -6.7720   -7.8980 C   0  0  0  0  0  0  0  0  0  0  0  0
    2.9160   -5.5850   -7.7840 C   0  0  0  0  0  0  0  0  0  0  0  0
    2.8340   -4.6380   -8.7890 C   0  0  0  0  0  0  0  0  0  0  0  0
    2.0300   -4.8790   -9.9050 C   0  0  0  0  0  0  0  0  0  0  0  0
    1.2890   -6.0760  -10.0550 C   0  0  0  0  0  0  0  0  0  0  0  0
    8.6133  -15.1718  -11.1669 H   0  0  0  0  0  0  0  0  0  0  0  0
    7.1982  -14.8322  -12.2199 H   0  0  0  0  0  0  0  0  0  0  0  0
    8.6060  -13.7165  -12.2199 H   0  0  0  0  0  0  0  0  0  0  0  0
    7.7132  -15.1637   -9.0677 H   0  0  0  0  0  0  0  0  0  0  0  0
    5.8760  -14.5210   -6.5400 H   0  0  0  0  0  0  0  0  0  0  0  0
    7.2210  -13.6070   -6.1700 H   0  0  0  0  0  0  0  0  0  0  0  0
    5.6680  -11.8618   -6.2776 H   0  0  0  0  0  0  0  0  0  0  0  0
    4.8400   -9.5518   -6.6271 H   0  0  0  0  0  0  0  0  0  0  0  0
    4.9128   -8.5368   -8.8987 H   0  0  0  0  0  0  0  0  0  0  0  0
    5.8434   -9.8260  -10.8022 H   0  0  0  0  0  0  0  0  0  0  0  0
    7.1436  -10.7030  -12.0361 H   0  0  0  0  0  0  0  0  0  0  0  0
    7.5492  -12.3260  -12.7018 H   0  0  0  0  0  0  0  0  0  0  0  0
    5.2036  -12.9190  -12.8573 H   0  0  0  0  0  0  0  0  0  0  0  0
    4.7408  -11.3750  -12.0059 H   0  0  0  0  0  0  0  0  0  0  0  0
    6.3383  -10.7783  -14.3195 H   0  0  0  0  0  0  0  0  0  0  0  0
    4.9027  -11.8612  -14.7421 H   0  0  0  0  0  0  0  0  0  0  0  0
    4.9116   -9.0829  -14.5622 H   0  0  0  0  0  0  0  0  0  0  0  0
    3.4902  -10.2247  -14.6347 H   0  0  0  0  0  0  0  0  0  0  0  0
    3.2370  -10.2251  -12.2882 H   0  0  0  0  0  0  0  0  0  0  0  0
    4.8368   -9.3666  -12.0693 H   0  0  0  0  0  0  0  0  0  0  0  0
    2.3341   -8.1788  -12.0354 H   0  0  0  0  0  0  0  0  0  0  0  0
    3.9458   -7.3664  -12.3032 H   0  0  0  0  0  0  0  0  0  0  0  0
    3.5832   -7.0289  -14.5043 H   0  0  0  0  0  0  0  0  0  0  0  0
    2.5867   -8.5549  -14.6626 H   0  0  0  0  0  0  0  0  0  0  0  0
    1.2329   -6.5722  -15.1134 H   0  0  0  0  0  0  0  0  0  0  0  0
    0.7103   -7.4451  -13.5954 H   0  0  0  0  0  0  0  0  0  0  0  0
    2.5244   -5.5404  -12.7024 H   0  0  0  0  0  0  0  0  0  0  0  0
    1.5335   -4.6992  -13.9897 H   0  0  0  0  0  0  0  0  0  0  0  0
    0.4869   -4.3081  -11.8630 H   0  0  0  0  0  0  0  0  0  0  0  0
   -0.5197   -5.4740  -12.8196 H   0  0  0  0  0  0  0  0  0  0  0  0
   -2.3046   -7.8782  -11.8434 H   0  0  0  0  0  0  0  0  0  0  0  0
   -1.4001   -6.7535  -12.9128 H   0  0  0  0  0  0  0  0  0  0  0  0
   -1.0049   -8.5057  -12.9128 H   0  0  0  0  0  0  0  0  0  0  0  0
   -0.8774   -9.2753  -10.2272 H   0  0  0  0  0  0  0  0  0  0  0  0
    1.1740   -9.0280   -7.2810 H   0  0  0  0  0  0  0  0  0  0  0  0
    0.7180  -10.1850   -8.3970 H   0  0  0  0  0  0  0  0  0  0  0  0
    2.2637   -7.5157   -7.0903 H   0  0  0  0  0  0  0  0  0  0  0  0
    3.5455   -5.4019   -6.9007 H   0  0  0  0  0  0  0  0  0  0  0  0
    3.4002   -3.6983   -8.7093 H   0  0  0  0  0  0  0  0  0  0  0  0
    1.9705   -4.1140  -10.6932 H   0  0  0  0  0  0  0  0  0  0  0  0
  1  2  1  0
  2  3  2  0
  3  4  1  0
  4  5  1  0
  4  6  2  0
  6  7  1  0
  7  8  2  0
  8  9  1  0
  9 10  2  0
 10 11  1  0
 11 12  2  0
 12 13  1  0
 13 14  1  0
 14 15  1  0
 15 16  1  0
 16 17  1  0
 17 18  1  0
 18 19  1  0
 19 20  1  0
 20 21  1  0
 21 22  1  0
 22 23  1  0
 23 24  2  0
 24 25  1  0
 24 26  1  0
 26 27  2  0
 27 28  1  0
 27 29  1  0
 29 30  2  0
 30 31  1  0
 31 32  2  0
 32 33  1  0
 33 34  2  0
 12  2  1  0
 34 23  1  0
 11  6  1  0
 34 29  1  0
  1 35  1  0
  1 36  1  0
  1 37  1  0
  3 38  1  0
  5 39  1  0
  5 40  1  0
  7 41  1  0
  8 42  1  0
  9 43  1  0
 10 44  1  0
 13 45  1  0
 13 46  1  0
 14 47  1  0
 14 48  1  0
 15 49  1  0
 15 50  1  0
 16 51  1  0
 16 52  1  0
 17 53  1  0
 17 54  1  0
 18 55  1  0
 18 56  1  0
 19 57  1  0
 19 58  1  0
 20 59  1  0
 20 60  1  0
 21 61  1  0
 21 62  1  0
 22 63  1  0
 22 64  1  0
 25 65  1  0
 25 66  1  0
 25 67  1  0
 26 68  1  0
 28 69  1  0
 28 70  1  0
 30 71  1  0
 31 72  1  0
 32 73  1  0
 33 74  1  0
M  CHG  2  12   1  23   1
M  END
>  <meeko>  (3) 
{"is_sidechain": [false], "free_energy": -10.182, "intermolecular_energy": -17.442, "internal_energy": -1.92}

$$$$
3arp_ligand
     RDKit          3D

 74 77  0  0  0  0  0  0  0  0999 V2000
    7.9750  -14.7870  -11.5320 C   0  0  0  0  0  0  0  0  0  0  0  0
    7.3870  -13.9320  -10.4380 C   0  0  0  0  0  0  0  0  0  0  0  0
    7.3090  -14.4790   -9.1560 C   0  0  0  0  0  0  0  0  0  0  0  0
    6.7430  -13.7790   -8.1020 C   0  0  0  0  0  0  0  0  0  0  0  0
    6.8030  -14.3560   -6.8270 N   0  0  0  0  0  0  0  0  0  0  0  0
    6.3460  -12.4490   -8.3260 C   0  0  0  0  0  0  0  0  0  0  0  0
    5.8710  -11.6250   -7.2770 C   0  0  0  0  0  0  0  0  0  0  0  0
    5.4550  -10.3150   -7.4980 C   0  0  0  0  0  0  0  0  0  0  0  0
    5.5070   -9.7870   -8.7750 C   0  0  0  0  0  0  0  0  0  0  0  0
    5.9840  -10.5680   -9.8290 C   0  0  0  0  0  0  0  0  0  0  0  0
    6.4160  -11.9020   -9.6400 C   0  0  0  0  0  0  0  0  0  0  0  0
    6.9120  -12.6720  -10.6750 N   0  0  0  0  0  0  0  0  0  0  0  0
    6.9270  -12.1380  -12.0750 C   0  0  0  0  0  0  0  0  0  0  0  0
    5.5220  -12.1980  -12.6750 C   0  0  0  0  0  0  0  0  0  0  0  0
    5.3620  -11.3150  -13.9150 C   0  0  0  0  0  0  0  0  0  0  0  0
    4.4950  -10.0610  -13.7420 C   0  0  0  0  0  0  0  0  0  0  0  0
    4.1190   -9.7840  -12.2830 C   0  0  0  0  0  0  0  0  0  0  0  0
    3.5350   -8.3820  -12.0510 C   0  0  0  0  0  0  0  0  0  0  0  0
    2.7140   -7.8640  -13.2390 C   0  0  0  0  0  0  0  0  0  0  0  0
    1.9240   -6.5830  -12.9360 C   0  0  0  0  0  0  0  0  0  0  0  0
    0.4070   -6.7920  -12.9040 C   0  0  0  0  0  0  0  0  0  0  0  0
   -0.2630   -6.2690  -11.6280 C   0  0  0  0  0  0  0  0  0  0  0  0
    0.6530   -6.3570  -10.4420 N   0  0  0  0  0  0  0  0  0  0  0  0
    0.7460   -7.5330   -9.7480 C   0  0  0  0  0  0  0  0  0  0  0  0
   -0.1190   -8.7270  -10.0650 C   0  0  0  0  0  0  0  0  0  0  0  0
    1.6430   -7.6480   -8.6830 C   0  0  0  0  0  0  0  0  0  0  0  0
    2.4640   -6.5970   -8.3100 C   0  0  0  0  0  0  0  0  0  0  0  0
    3.2640   -6.7650   -7.1730 N   0  0  0  0  0  0  0  0  0  0  0  0
    2.2770   -5.3540   -8.9400 C   0  0  0  0  0  0  0  0  0  0  0  0
    2.9700   -4.1950   -8.5190 C   0  0  0  0  0  0  0  0  0  0  0  0
    2.7930   -2.9610   -9.1420 C   0  0  0  0  0  0  0  0  0  0  0  0
    1.9100   -2.8510  -10.2000 C   0  0  0  0  0  0  0  0  0  0  0  0
    1.2030   -3.9750  -10.6330 C   0  0  0  0  0  0  0  0  0  0  0  0
    1.3610   -5.2440  -10.0270 C   0  0  0  0  0  0  0  0  0  0  0  0
    8.5444  -15.6149  -11.0843 H   0  0  0  0  0  0  0  0  0  0  0  0
    7.1648  -15.1939  -12.1549 H   0  0  0  0  0  0  0  0  0  0  0  0
    8.6448  -14.1760  -12.1549 H   0  0  0  0  0  0  0  0  0  0  0  0
    7.7061  -15.4893   -8.9781 H   0  0  0  0  0  0  0  0  0  0  0  0
    5.9450  -14.3420   -6.2830 H   0  0  0  0  0  0  0  0  0  0  0  0
    7.5930  -14.0890   -6.2460 H   0  0  0  0  0  0  0  0  0  0  0  0
    5.8294  -12.0325   -6.2561 H   0  0  0  0  0  0  0  0  0  0  0  0
    5.0869   -9.7032   -6.6613 H   0  0  0  0  0  0  0  0  0  0  0  0
    5.1736   -8.7551   -8.9596 H   0  0  0  0  0  0  0  0  0  0  0  0
    6.0253  -10.1326  -10.8383 H   0  0  0  0  0  0  0  0  0  0  0  0
    7.2730  -11.0939  -12.0625 H   0  0  0  0  0  0  0  0  0  0  0  0
    7.6062  -12.7500  -12.6866 H   0  0  0  0  0  0  0  0  0  0  0  0
    5.3052  -13.2392  -12.9560 H   0  0  0  0  0  0  0  0  0  0  0  0
    4.8228  -11.8238  -11.9127 H   0  0  0  0  0  0  0  0  0  0  0  0
    6.3651  -10.9897  -14.2279 H   0  0  0  0  0  0  0  0  0  0  0  0
    4.8382  -11.9371  -14.6557 H   0  0  0  0  0  0  0  0  0  0  0  0
    5.0513   -9.1950  -14.1301 H   0  0  0  0  0  0  0  0  0  0  0  0
    3.5590  -10.2319  -14.2940 H   0  0  0  0  0  0  0  0  0  0  0  0
    3.3715  -10.5277  -11.9699 H   0  0  0  0  0  0  0  0  0  0  0  0
    5.0462   -9.8473  -11.6946 H   0  0  0  0  0  0  0  0  0  0  0  0
    2.8839   -8.4169  -11.1650 H   0  0  0  0  0  0  0  0  0  0  0  0
    4.3823   -7.6938  -11.9149 H   0  0  0  0  0  0  0  0  0  0  0  0
    3.4020   -7.6580  -14.0722 H   0  0  0  0  0  0  0  0  0  0  0  0
    1.9776   -8.6438  -13.4832 H   0  0  0  0  0  0  0  0  0  0  0  0
    2.2433   -6.2012  -11.9551 H   0  0  0  0  0  0  0  0  0  0  0  0
    2.1351   -5.8735  -13.7496 H   0  0  0  0  0  0  0  0  0  0  0  0
   -0.0333   -6.2695  -13.7660 H   0  0  0  0  0  0  0  0  0  0  0  0
    0.2325   -7.8776  -12.9356 H   0  0  0  0  0  0  0  0  0  0  0  0
   -0.5481   -5.2176  -11.7806 H   0  0  0  0  0  0  0  0  0  0  0  0
   -1.1464   -6.8923  -11.4252 H   0  0  0  0  0  0  0  0  0  0  0  0
   -0.4572   -9.1938   -9.1282 H   0  0  0  0  0  0  0  0  0  0  0  0
   -0.9927   -8.4021  -10.6490 H   0  0  0  0  0  0  0  0  0  0  0  0
    0.4620   -9.4560  -10.6490 H   0  0  0  0  0  0  0  0  0  0  0  0
    1.6984   -8.5959   -8.1276 H   0  0  0  0  0  0  0  0  0  0  0  0
    3.4300   -5.9390   -6.6040 H   0  0  0  0  0  0  0  0  0  0  0  0
    4.1260   -7.2900   -7.2970 H   0  0  0  0  0  0  0  0  0  0  0  0
    3.6701   -4.2700   -7.6739 H   0  0  0  0  0  0  0  0  0  0  0  0
    3.3524   -2.0801   -8.7941 H   0  0  0  0  0  0  0  0  0  0  0  0
    1.7647   -1.8816  -10.6991 H   0  0  0  0  0  0  0  0  0  0  0  0
    0.5002   -3.8704  -11.4727 H   0  0  0  0  0  0  0  0  0  0  0  0
  1  2  1  0
  2  3  2  0
  3  4  1  0
  4  5  1  0
  4  6  2  0
  6  7  1  0
  7  8  2  0
  8  9  1  0
  9 10  2  0
 10 11  1  0
 11 12  2  0
 12 13  1  0
 13 14  1  0
 14 15  1  0
 15 16  1  0
 16 17  1  0
 17 18  1  0
 18 19  1  0
 19 20  1  0
 20 21  1  0
 21 22  1  0
 22 23  1  0
 23 24  2  0
 24 25  1  0
 24 26  1  0
 26 27  2  0
 27 28  1  0
 27 29  1  0
 29 30  2  0
 30 31  1  0
 31 32  2  0
 32 33  1  0
 33 34  2  0
 12  2  1  0
 34 23  1  0
 11  6  1  0
 34 29  1  0
  1 35  1  0
  1 36  1  0
  1 37  1  0
  3 38  1  0
  5 39  1  0
  5 40  1  0
  7 41  1  0
  8 42  1  0
  9 43  1  0
 10 44  1  0
 13 45  1  0
 13 46  1  0
 14 47  1  0
 14 48  1  0
 15 49  1  0
 15 50  1  0
 16 51  1  0
 16 52  1  0
 17 53  1  0
 17 54  1  0
 18 55  1  0
 18 56  1  0
 19 57  1  0
 19 58  1  0
 20 59  1  0
 20 60  1  0
 21 61  1  0
 21 62  1  0
 22 63  1  0
 22 64  1  0
 25 65  1  0
 25 66  1  0
 25 67  1  0
 26 68  1  0
 28 69  1  0
 28 70  1  0
 30 71  1  0
 31 72  1  0
 32 73  1  0
 33 74  1  0
M  CHG  2  12   1  23   1
M  END
>  <meeko>  (4) 
{"is_sidechain": [false], "free_energy": -10.136, "intermolecular_energy": -17.695, "internal_energy": -1.589}

$$$$
3arp_ligand
     RDKit          3D

 74 77  0  0  0  0  0  0  0  0999 V2000
    2.6540   -5.7130   -8.0190 C   0  0  0  0  0  0  0  0  0  0  0  0
    2.4170   -4.9000   -9.2670 C   0  0  0  0  0  0  0  0  0  0  0  0
    2.4920   -3.5100   -9.1630 C   0  0  0  0  0  0  0  0  0  0  0  0
    2.2450   -2.6880  -10.2510 C   0  0  0  0  0  0  0  0  0  0  0  0
    2.4490   -1.3110  -10.0880 N   0  0  0  0  0  0  0  0  0  0  0  0
    2.0250   -3.2900  -11.5020 C   0  0  0  0  0  0  0  0  0  0  0  0
    1.8850   -2.5230  -12.6840 C   0  0  0  0  0  0  0  0  0  0  0  0
    1.6440   -3.1130  -13.9220 C   0  0  0  0  0  0  0  0  0  0  0  0
    1.5410   -4.4890  -14.0160 C   0  0  0  0  0  0  0  0  0  0  0  0
    1.6890   -5.2750  -12.8710 C   0  0  0  0  0  0  0  0  0  0  0  0
    1.9370   -4.7090  -11.5980 C   0  0  0  0  0  0  0  0  0  0  0  0
    2.1080   -5.4820  -10.4660 N   0  0  0  0  0  0  0  0  0  0  0  0
    1.9480   -6.9700  -10.5350 C   0  0  0  0  0  0  0  0  0  0  0  0
    3.3190   -7.6420  -10.6100 C   0  0  0  0  0  0  0  0  0  0  0  0
    3.4350   -8.6400  -11.7650 C   0  0  0  0  0  0  0  0  0  0  0  0
    3.1950   -8.0740  -13.1700 C   0  0  0  0  0  0  0  0  0  0  0  0
    3.7060   -8.9920  -14.2860 C   0  0  0  0  0  0  0  0  0  0  0  0
    4.3230  -10.3030  -13.7740 C   0  0  0  0  0  0  0  0  0  0  0  0
    5.1970  -11.0090  -14.8190 C   0  0  0  0  0  0  0  0  0  0  0  0
    6.0250  -12.1720  -14.2530 C   0  0  0  0  0  0  0  0  0  0  0  0
    5.8580  -12.3640  -12.7430 C   0  0  0  0  0  0  0  0  0  0  0  0
    7.1650  -12.2170  -11.9520 C   0  0  0  0  0  0  0  0  0  0  0  0
    7.0410  -12.7720  -10.5640 N   0  0  0  0  0  0  0  0  0  0  0  0
    7.4180  -14.0650  -10.3190 C   0  0  0  0  0  0  0  0  0  0  0  0
    7.8610  -14.9970  -11.4180 C   0  0  0  0  0  0  0  0  0  0  0  0
    7.3690  -14.5740   -9.0190 C   0  0  0  0  0  0  0  0  0  0  0  0
    6.9560  -13.7950   -7.9500 C   0  0  0  0  0  0  0  0  0  0  0  0
    6.8460  -14.4110   -6.6970 N   0  0  0  0  0  0  0  0  0  0  0  0
    6.4500  -12.5120   -8.2220 C   0  0  0  0  0  0  0  0  0  0  0  0
    5.8760  -11.7100   -7.2090 C   0  0  0  0  0  0  0  0  0  0  0  0
    5.3770  -10.4350   -7.4700 C   0  0  0  0  0  0  0  0  0  0  0  0
    5.4330   -9.9300   -8.7560 C   0  0  0  0  0  0  0  0  0  0  0  0
    5.9850  -10.7020   -9.7810 C   0  0  0  0  0  0  0  0  0  0  0  0
    6.5060  -11.9980   -9.5510 C   0  0  0  0  0  0  0  0  0  0  0  0
    2.4714   -5.0868   -7.1333 H   0  0  0  0  0  0  0  0  0  0  0  0
    1.9695   -6.5740   -8.0067 H   0  0  0  0  0  0  0  0  0  0  0  0
    3.6940   -6.0712   -8.0067 H   0  0  0  0  0  0  0  0  0  0  0  0
    2.7531   -3.0568   -8.1953 H   0  0  0  0  0  0  0  0  0  0  0  0
    1.6400   -0.7130  -10.2380 H   0  0  0  0  0  0  0  0  0  0  0  0
    3.2680   -0.9180  -10.5430 H   0  0  0  0  0  0  0  0  0  0  0  0
    1.9692   -1.4280  -12.6224 H   0  0  0  0  0  0  0  0  0  0  0  0
    1.5361   -2.4879  -14.8207 H   0  0  0  0  0  0  0  0  0  0  0  0
    1.3433   -4.9626  -14.9889 H   0  0  0  0  0  0  0  0  0  0  0  0
    1.6103   -6.3684  -12.9616 H   0  0  0  0  0  0  0  0  0  0  0  0
    1.4191   -7.3212   -9.6367 H   0  0  0  0  0  0  0  0  0  0  0  0
    1.3700   -7.2290  -11.4344 H   0  0  0  0  0  0  0  0  0  0  0  0
    4.0842   -6.8629  -10.7421 H   0  0  0  0  0  0  0  0  0  0  0  0
    3.4611   -8.2037   -9.6750 H   0  0  0  0  0  0  0  0  0  0  0  0
    4.4495   -9.0646  -11.7421 H   0  0  0  0  0  0  0  0  0  0  0  0
    2.6346   -9.3766  -11.6016 H   0  0  0  0  0  0  0  0  0  0  0  0
    2.1137   -7.9254  -13.3071 H   0  0  0  0  0  0  0  0  0  0  0  0
    3.7542   -7.1295  -13.2419 H   0  0  0  0  0  0  0  0  0  0  0  0
    2.8613   -9.2401  -14.9455 H   0  0  0  0  0  0  0  0  0  0  0  0
    4.5029   -8.4457  -14.8118 H   0  0  0  0  0  0  0  0  0  0  0  0
    4.9437  -10.0770  -12.8944 H   0  0  0  0  0  0  0  0  0  0  0  0
    3.4923  -10.9818  -13.5306 H   0  0  0  0  0  0  0  0  0  0  0  0
    4.5417  -11.4028  -15.6098 H   0  0  0  0  0  0  0  0  0  0  0  0
    5.9110  -10.2620  -15.1960 H   0  0  0  0  0  0  0  0  0  0  0  0
    5.7143  -13.0985  -14.7580 H   0  0  0  0  0  0  0  0  0  0  0  0
    7.0834  -11.9328  -14.4332 H   0  0  0  0  0  0  0  0  0  0  0  0
    5.1434  -11.6132  -12.3748 H   0  0  0  0  0  0  0  0  0  0  0  0
    5.5036  -13.3938  -12.5881 H   0  0  0  0  0  0  0  0  0  0  0  0
    7.9642  -12.7566  -12.4812 H   0  0  0  0  0  0  0  0  0  0  0  0
    7.3979  -11.1449  -11.8722 H   0  0  0  0  0  0  0  0  0  0  0  0
    8.2933  -15.9065  -10.9754 H   0  0  0  0  0  0  0  0  0  0  0  0
    6.9953  -15.2678  -12.0403 H   0  0  0  0  0  0  0  0  0  0  0  0
    8.6176  -14.4967  -12.0403 H   0  0  0  0  0  0  0  0  0  0  0  0
    7.6653  -15.6180   -8.8397 H   0  0  0  0  0  0  0  0  0  0  0  0
    6.9030  -15.4260   -6.6800 H   0  0  0  0  0  0  0  0  0  0  0  0
    6.0930  -14.0860   -6.0960 H   0  0  0  0  0  0  0  0  0  0  0  0
    5.8215  -12.1043   -6.1835 H   0  0  0  0  0  0  0  0  0  0  0  0
    4.9414   -9.8343   -6.6580 H   0  0  0  0  0  0  0  0  0  0  0  0
    5.0442   -8.9238   -8.9712 H   0  0  0  0  0  0  0  0  0  0  0  0
    6.0158  -10.2894  -10.8002 H   0  0  0  0  0  0  0  0  0  0  0  0
  1  2  1  0
  2  3  2  0
  3  4  1  0
  4  5  1  0
  4  6  2  0
  6  7  1  0
  7  8  2  0
  8  9  1  0
  9 10  2  0
 10 11  1  0
 11 12  2  0
 12 13  1  0
 13 14  1  0
 14 15  1  0
 15 16  1  0
 16 17  1  0
 17 18  1  0
 18 19  1  0
 19 20  1  0
 20 21  1  0
 21 22  1  0
 22 23  1  0
 23 24  2  0
 24 25  1  0
 24 26  1  0
 26 27  2  0
 27 28  1  0
 27 29  1  0
 29 30  2  0
 30 31  1  0
 31 32  2  0
 32 33  1  0
 33 34  2  0
 12  2  1  0
 34 23  1  0
 11  6  1  0
 34 29  1  0
  1 35  1  0
  1 36  1  0
  1 37  1  0
  3 38  1  0
  5 39  1  0
  5 40  1  0
  7 41  1  0
  8 42  1  0
  9 43  1  0
 10 44  1  0
 13 45  1  0
 13 46  1  0
 14 47  1  0
 14 48  1  0
 15 49  1  0
 15 50  1  0
 16 51  1  0
 16 52  1  0
 17 53  1  0
 17 54  1  0
 18 55  1  0
 18 56  1  0
 19 57  1  0
 19 58  1  0
 20 59  1  0
 20 60  1  0
 21 61  1  0
 21 62  1  0
 22 63  1  0
 22 64  1  0
 25 65  1  0
 25 66  1  0
 25 67  1  0
 26 68  1  0
 28 69  1  0
 28 70  1  0
 30 71  1  0
 31 72  1  0
 32 73  1  0
 33 74  1  0
M  CHG  2  12   1  23   1
M  END
>  <meeko>  (5) 
{"is_sidechain": [false], "free_energy": -9.912, "intermolecular_energy": -17.587, "internal_energy": -1.315}

$$$$
3arp_ligand
     RDKit          3D

 74 77  0  0  0  0  0  0  0  0999 V2000
    1.1800   -8.0330   -9.3780 C   0  0  0  0  0  0  0  0  0  0  0  0
    1.5830   -6.5800   -9.4260 C   0  0  0  0  0  0  0  0  0  0  0  0
    2.4680   -6.1180   -8.4490 C   0  0  0  0  0  0  0  0  0  0  0  0
    2.8550   -4.7880   -8.3940 C   0  0  0  0  0  0  0  0  0  0  0  0
    3.8280   -4.4300   -7.4520 N   0  0  0  0  0  0  0  0  0  0  0  0
    2.4230   -3.9270   -9.4180 C   0  0  0  0  0  0  0  0  0  0  0  0
    2.8690   -2.5860   -9.5030 C   0  0  0  0  0  0  0  0  0  0  0  0
    2.4270   -1.7230  -10.5030 C   0  0  0  0  0  0  0  0  0  0  0  0
    1.5280   -2.1780  -11.4500 C   0  0  0  0  0  0  0  0  0  0  0  0
    1.0790   -3.4990  -11.4030 C   0  0  0  0  0  0  0  0  0  0  0  0
    1.5100   -4.4030  -10.4030 C   0  0  0  0  0  0  0  0  0  0  0  0
    1.0880   -5.7180  -10.3650 N   0  0  0  0  0  0  0  0  0  0  0  0
    0.0750   -6.2160  -11.3500 C   0  0  0  0  0  0  0  0  0  0  0  0
    0.7690   -6.6680  -12.6340 C   0  0  0  0  0  0  0  0  0  0  0  0
    2.2870   -6.7940  -12.4820 C   0  0  0  0  0  0  0  0  0  0  0  0
    2.9310   -8.0240  -13.1340 C   0  0  0  0  0  0  0  0  0  0  0  0
    3.9020   -8.7610  -12.2060 C   0  0  0  0  0  0  0  0  0  0  0  0
    4.1280  -10.2320  -12.5900 C   0  0  0  0  0  0  0  0  0  0  0  0
    4.7510  -10.4050  -13.9810 C   0  0  0  0  0  0  0  0  0  0  0  0
    5.7080  -11.6010  -14.0880 C   0  0  0  0  0  0  0  0  0  0  0  0
    5.7850  -12.4400  -12.8090 C   0  0  0  0  0  0  0  0  0  0  0  0
    7.0980  -12.2700  -12.0360 C   0  0  0  0  0  0  0  0  0  0  0  0
    6.9910  -12.7970  -10.6350 N   0  0  0  0  0  0  0  0  0  0  0  0
    7.3500  -14.0920  -10.3730 C   0  0  0  0  0  0  0  0  0  0  0  0
    7.7540  -15.0530  -11.4620 C   0  0  0  0  0  0  0  0  0  0  0  0
    7.3160  -14.5760   -9.0630 C   0  0  0  0  0  0  0  0  0  0  0  0
    6.9390  -13.7700   -8.0010 C   0  0  0  0  0  0  0  0  0  0  0  0
    6.8420  -14.3600   -6.7350 N   0  0  0  0  0  0  0  0  0  0  0  0
    6.4520  -12.4830   -8.2870 C   0  0  0  0  0  0  0  0  0  0  0  0
    5.9120  -11.6510   -7.2790 C   0  0  0  0  0  0  0  0  0  0  0  0
    5.4320  -10.3720   -7.5540 C   0  0  0  0  0  0  0  0  0  0  0  0
    5.4720   -9.8920   -8.8500 C   0  0  0  0  0  0  0  0  0  0  0  0
    5.9890  -10.6930   -9.8710 C   0  0  0  0  0  0  0  0  0  0  0  0
    6.4910  -11.9950   -9.6260 C   0  0  0  0  0  0  0  0  0  0  0  0
    1.0909   -8.3543   -8.3298 H   0  0  0  0  0  0  0  0  0  0  0  0
    0.2122   -8.1620   -9.8846 H   0  0  0  0  0  0  0  0  0  0  0  0
    1.9431   -8.6421   -9.8846 H   0  0  0  0  0  0  0  0  0  0  0  0
    2.8667   -6.8252   -7.7068 H   0  0  0  0  0  0  0  0  0  0  0  0
    4.7780   -4.7390   -7.6430 H   0  0  0  0  0  0  0  0  0  0  0  0
    3.5950   -4.5900   -6.4760 H   0  0  0  0  0  0  0  0  0  0  0  0
    3.5864   -2.2143   -8.7566 H   0  0  0  0  0  0  0  0  0  0  0  0
    2.7910   -0.6856  -10.5392 H   0  0  0  0  0  0  0  0  0  0  0  0
    1.1676   -1.5008  -12.2383 H   0  0  0  0  0  0  0  0  0  0  0  0
    0.3684   -3.8480  -12.1667 H   0  0  0  0  0  0  0  0  0  0  0  0
   -0.4705   -7.0654  -10.9129 H   0  0  0  0  0  0  0  0  0  0  0  0
   -0.6266   -5.4027  -11.5872 H   0  0  0  0  0  0  0  0  0  0  0  0
    0.3635   -7.6482  -12.9250 H   0  0  0  0  0  0  0  0  0  0  0  0
    0.5778   -5.9006  -13.3985 H   0  0  0  0  0  0  0  0  0  0  0  0
    2.7448   -5.8988  -12.9281 H   0  0  0  0  0  0  0  0  0  0  0  0
    2.4676   -6.9034  -11.4025 H   0  0  0  0  0  0  0  0  0  0  0  0
    2.1330   -8.7210  -13.4295 H   0  0  0  0  0  0  0  0  0  0  0  0
    3.5113   -7.6692  -13.9985 H   0  0  0  0  0  0  0  0  0  0  0  0
    4.8713   -8.2418  -12.2347 H   0  0  0  0  0  0  0  0  0  0  0  0
    3.4528   -8.7564  -11.2019 H   0  0  0  0  0  0  0  0  0  0  0  0
    4.7991  -10.6880  -11.8473 H   0  0  0  0  0  0  0  0  0  0  0  0
    3.1421  -10.7194  -12.6107 H   0  0  0  0  0  0  0  0  0  0  0  0
    3.9388  -10.5446  -14.7096 H   0  0  0  0  0  0  0  0  0  0  0  0
    5.3452   -9.5009  -14.1802 H   0  0  0  0  0  0  0  0  0  0  0  0
    5.3654  -12.2484  -14.9087 H   0  0  0  0  0  0  0  0  0  0  0  0
    6.7140  -11.1944  -14.2685 H   0  0  0  0  0  0  0  0  0  0  0  0
    4.9543  -12.1458  -12.1507 H   0  0  0  0  0  0  0  0  0  0  0  0
    5.7269  -13.4953  -13.1139 H   0  0  0  0  0  0  0  0  0  0  0  0
    7.8945  -12.8164  -12.5623 H   0  0  0  0  0  0  0  0  0  0  0  0
    7.3262  -11.1953  -11.9810 H   0  0  0  0  0  0  0  0  0  0  0  0
    8.1426  -15.9774  -11.0097 H   0  0  0  0  0  0  0  0  0  0  0  0
    6.8791  -15.2895  -12.0854 H   0  0  0  0  0  0  0  0  0  0  0  0
    8.5351  -14.5934  -12.0854 H   0  0  0  0  0  0  0  0  0  0  0  0
    7.5953  -15.6223   -8.8700 H   0  0  0  0  0  0  0  0  0  0  0  0
    6.7940  -15.3750   -6.7060 H   0  0  0  0  0  0  0  0  0  0  0  0
    6.1650  -13.9530   -6.0940 H   0  0  0  0  0  0  0  0  0  0  0  0
    5.8695  -12.0252   -6.2455 H   0  0  0  0  0  0  0  0  0  0  0  0
    5.0239   -9.7482   -6.7451 H   0  0  0  0  0  0  0  0  0  0  0  0
    5.0979   -8.8826   -9.0764 H   0  0  0  0  0  0  0  0  0  0  0  0
    6.0069  -10.3002  -10.8983 H   0  0  0  0  0  0  0  0  0  0  0  0
  1  2  1  0
  2  3  2  0
  3  4  1  0
  4  5  1  0
  4  6  2  0
  6  7  1  0
  7  8  2  0
  8  9  1  0
  9 10  2  0
 10 11  1  0
 11 12  2  0
 12 13  1  0
 13 14  1  0
 14 15  1  0
 15 16  1  0
 16 17  1  0
 17 18  1  0
 18 19  1  0
 19 20  1  0
 20 21  1  0
 21 22  1  0
 22 23  1  0
 23 24  2  0
 24 25  1  0
 24 26  1  0
 26 27  2  0
 27 28  1  0
 27 29  1  0
 29 30  2  0
 30 31  1  0
 31 32  2  0
 32 33  1  0
 33 34  2  0
 12  2  1  0
 34 23  1  0
 11  6  1  0
 34 29  1  0
  1 35  1  0
  1 36  1  0
  1 37  1  0
  3 38  1  0
  5 39  1  0
  5 40  1  0
  7 41  1  0
  8 42  1  0
  9 43  1  0
 10 44  1  0
 13 45  1  0
 13 46  1  0
 14 47  1  0
 14 48  1  0
 15 49  1  0
 15 50  1  0
 16 51  1  0
 16 52  1  0
 17 53  1  0
 17 54  1  0
 18 55  1  0
 18 56  1  0
 19 57  1  0
 19 58  1  0
 20 59  1  0
 20 60  1  0
 21 61  1  0
 21 62  1  0
 22 63  1  0
 22 64  1  0
 25 65  1  0
 25 66  1  0
 25 67  1  0
 26 68  1  0
 28 69  1  0
 28 70  1  0
 30 71  1  0
 31 72  1  0
 32 73  1  0
 33 74  1  0
M  CHG  2  12   1  23   1
M  END
>  <meeko>  (6) 
{"is_sidechain": [false], "free_energy": -9.852, "intermolecular_energy": -17.855, "internal_energy": -0.945}

$$$$
3arp_ligand
     RDKit          3D

 74 77  0  0  0  0  0  0  0  0999 V2000
    8.2770  -14.7970  -11.3700 C   0  0  0  0  0  0  0  0  0  0  0  0
    7.6070  -13.9790  -10.2960 C   0  0  0  0  0  0  0  0  0  0  0  0
    7.5080  -14.5360   -9.0200 C   0  0  0  0  0  0  0  0  0  0  0  0
    6.8670  -13.8700   -7.9860 C   0  0  0  0  0  0  0  0  0  0  0  0
    6.9090  -14.4500   -6.7120 N   0  0  0  0  0  0  0  0  0  0  0  0
    6.4120  -12.5610   -8.2210 C   0  0  0  0  0  0  0  0  0  0  0  0
    5.8570  -11.7680   -7.1880 C   0  0  0  0  0  0  0  0  0  0  0  0
    5.3840  -10.4790   -7.4200 C   0  0  0  0  0  0  0  0  0  0  0  0
    5.4570   -9.9420   -8.6930 C   0  0  0  0  0  0  0  0  0  0  0  0
    6.0120  -10.6930   -9.7300 C   0  0  0  0  0  0  0  0  0  0  0  0
    6.5040  -12.0050   -9.5300 C   0  0  0  0  0  0  0  0  0  0  0  0
    7.0770  -12.7430  -10.5470 N   0  0  0  0  0  0  0  0  0  0  0  0
    7.1180  -12.2020  -11.9440 C   0  0  0  0  0  0  0  0  0  0  0  0
    5.7660  -12.4070  -12.6260 C   0  0  0  0  0  0  0  0  0  0  0  0
    5.8080  -12.1380  -14.1320 C   0  0  0  0  0  0  0  0  0  0  0  0
    5.1360  -10.8430  -14.6050 C   0  0  0  0  0  0  0  0  0  0  0  0
    4.4890  -10.0480  -13.4660 C   0  0  0  0  0  0  0  0  0  0  0  0
    3.6650   -8.8420  -13.9440 C   0  0  0  0  0  0  0  0  0  0  0  0
    3.1440   -7.9720  -12.7930 C   0  0  0  0  0  0  0  0  0  0  0  0
    3.3100   -8.6110  -11.4070 C   0  0  0  0  0  0  0  0  0  0  0  0
    3.4970   -7.5910  -10.2800 C   0  0  0  0  0  0  0  0  0  0  0  0
    2.2110   -7.2850   -9.5030 C   0  0  0  0  0  0  0  0  0  0  0  0
    1.5760   -6.0040   -9.9590 N   0  0  0  0  0  0  0  0  0  0  0  0
    2.0240   -4.8140   -9.4510 C   0  0  0  0  0  0  0  0  0  0  0  0
    3.0670   -4.7410   -8.3650 C   0  0  0  0  0  0  0  0  0  0  0  0
    1.4870   -3.6100   -9.9150 C   0  0  0  0  0  0  0  0  0  0  0  0
    0.5100   -3.5820  -10.8970 C   0  0  0  0  0  0  0  0  0  0  0  0
   -0.0400   -2.3390  -11.2350 N   0  0  0  0  0  0  0  0  0  0  0  0
   -0.0360   -4.8050  -11.3240 C   0  0  0  0  0  0  0  0  0  0  0  0
   -1.1330   -4.8600  -12.2140 C   0  0  0  0  0  0  0  0  0  0  0  0
   -1.6760   -6.0680  -12.6450 C   0  0  0  0  0  0  0  0  0  0  0  0
   -1.1390   -7.2580  -12.1900 C   0  0  0  0  0  0  0  0  0  0  0  0
   -0.0610   -7.2390  -11.3020 C   0  0  0  0  0  0  0  0  0  0  0  0
    0.5190   -6.0300  -10.8480 C   0  0  0  0  0  0  0  0  0  0  0  0
    8.9083  -15.5677  -10.9037 H   0  0  0  0  0  0  0  0  0  0  0  0
    7.5110  -15.2793  -11.9951 H   0  0  0  0  0  0  0  0  0  0  0  0
    8.9007  -14.1410  -11.9951 H   0  0  0  0  0  0  0  0  0  0  0  0
    7.9485  -15.5259   -8.8301 H   0  0  0  0  0  0  0  0  0  0  0  0
    6.7050  -13.8350   -5.9280 H   0  0  0  0  0  0  0  0  0  0  0  0
    7.7160  -15.0310   -6.5040 H   0  0  0  0  0  0  0  0  0  0  0  0
    5.7976  -12.1827   -6.1709 H   0  0  0  0  0  0  0  0  0  0  0  0
    4.9546   -9.8908   -6.5956 H   0  0  0  0  0  0  0  0  0  0  0  0
    5.0791   -8.9273   -8.8869 H   0  0  0  0  0  0  0  0  0  0  0  0
    6.0690  -10.2509  -10.7356 H   0  0  0  0  0  0  0  0  0  0  0  0
    7.3498  -11.1272  -11.9113 H   0  0  0  0  0  0  0  0  0  0  0  0
    7.8934  -12.7348  -12.5140 H   0  0  0  0  0  0  0  0  0  0  0  0
    5.4463  -13.4471  -12.4647 H   0  0  0  0  0  0  0  0  0  0  0  0
    5.0620  -11.6871  -12.1831 H   0  0  0  0  0  0  0  0  0  0  0  0
    6.8641  -12.0995  -14.4372 H   0  0  0  0  0  0  0  0  0  0  0  0
    5.2340  -12.9547  -14.5942 H   0  0  0  0  0  0  0  0  0  0  0  0
    5.8964  -10.2098  -15.0854 H   0  0  0  0  0  0  0  0  0  0  0  0
    4.3340  -11.1267  -15.3024 H   0  0  0  0  0  0  0  0  0  0  0  0
    3.8246  -10.7223  -12.9057 H   0  0  0  0  0  0  0  0  0  0  0  0
    5.3066   -9.6527  -12.8453 H   0  0  0  0  0  0  0  0  0  0  0  0
    4.2993   -8.2202  -14.5929 H   0  0  0  0  0  0  0  0  0  0  0  0
    2.7882   -9.2363  -14.4786 H   0  0  0  0  0  0  0  0  0  0  0  0
    3.6930   -7.0189  -12.8031 H   0  0  0  0  0  0  0  0  0  0  0  0
    2.0644   -7.8387  -12.9564 H   0  0  0  0  0  0  0  0  0  0  0  0
    2.4124   -9.2086  -11.1898 H   0  0  0  0  0  0  0  0  0  0  0  0
    4.2225   -9.2243  -11.4417 H   0  0  0  0  0  0  0  0  0  0  0  0
    4.2427   -7.9863   -9.5746 H   0  0  0  0  0  0  0  0  0  0  0  0
    3.8193   -6.6500  -10.7496 H   0  0  0  0  0  0  0  0  0  0  0  0
    1.4986   -8.1093   -9.6547 H   0  0  0  0  0  0  0  0  0  0  0  0
    2.4712   -7.1781   -8.4396 H   0  0  0  0  0  0  0  0  0  0  0  0
    2.5754   -4.7754   -7.3816 H   0  0  0  0  0  0  0  0  0  0  0  0
    3.7560   -5.5931   -8.4605 H   0  0  0  0  0  0  0  0  0  0  0  0
    3.6306   -3.8012   -8.4605 H   0  0  0  0  0  0  0  0  0  0  0  0
    1.8487   -2.6619   -9.4904 H   0  0  0  0  0  0  0  0  0  0  0  0
   -1.0520   -2.2940  -11.3160 H   0  0  0  0  0  0  0  0  0  0  0  0
    0.4010   -1.8410  -12.0050 H   0  0  0  0  0  0  0  0  0  0  0  0
   -1.5716   -3.9190  -12.5776 H   0  0  0  0  0  0  0  0  0  0  0  0
   -2.5264   -6.0752  -13.3427 H   0  0  0  0  0  0  0  0  0  0  0  0
   -1.5596   -8.2171  -12.5264 H   0  0  0  0  0  0  0  0  0  0  0  0
    0.3505   -8.1942  -10.9439 H   0  0  0  0  0  0  0  0  0  0  0  0
  1  2  1  0
  2  3  2  0
  3  4  1  0
  4  5  1  0
  4  6  2  0
  6  7  1  0
  7  8  2  0
  8  9  1  0
  9 10  2  0
 10 11  1  0
 11 12  2  0
 12 13  1  0
 13 14  1  0
 14 15  1  0
 15 16  1  0
 16 17  1  0
 17 18  1  0
 18 19  1  0
 19 20  1  0
 20 21  1  0
 21 22  1  0
 22 23  1  0
 23 24  2  0
 24 25  1  0
 24 26  1  0
 26 27  2  0
 27 28  1  0
 27 29  1  0
 29 30  2  0
 30 31  1  0
 31 32  2  0
 32 33  1  0
 33 34  2  0
 12  2  1  0
 34 23  1  0
 11  6  1  0
 34 29  1  0
  1 35  1  0
  1 36  1  0
  1 37  1  0
  3 38  1  0
  5 39  1  0
  5 40  1  0
  7 41  1  0
  8 42  1  0
  9 43  1  0
 10 44  1  0
 13 45  1  0
 13 46  1  0
 14 47  1  0
 14 48  1  0
 15 49  1  0
 15 50  1  0
 16 51  1  0
 16 52  1  0
 17 53  1  0
 17 54  1  0
 18 55  1  0
 18 56  1  0
 19 57  1  0
 19 58  1  0
 20 59  1  0
 20 60  1  0
 21 61  1  0
 21 62  1  0
 22 63  1  0
 22 64  1  0
 25 65  1  0
 25 66  1  0
 25 67  1  0
 26 68  1  0
 28 69  1  0
 28 70  1  0
 30 71  1  0
 31 72  1  0
 32 73  1  0
 33 74  1  0
M  CHG  2  12   1  23   1
M  END
>  <meeko>  (7) 
{"is_sidechain": [false], "free_energy": -9.795, "intermolecular_energy": -16.973, "internal_energy": -1.73}

$$$$
3arp_ligand
     RDKit          3D

 74 77  0  0  0  0  0  0  0  0999 V2000
    8.1890  -14.7330  -11.5230 C   0  0  0  0  0  0  0  0  0  0  0  0
    7.5400  -13.9310  -10.4230 C   0  0  0  0  0  0  0  0  0  0  0  0
    7.4460  -14.5170   -9.1590 C   0  0  0  0  0  0  0  0  0  0  0  0
    6.8250  -13.8670   -8.1040 C   0  0  0  0  0  0  0  0  0  0  0  0
    6.8700  -14.4780   -6.8440 N   0  0  0  0  0  0  0  0  0  0  0  0
    6.3860  -12.5460   -8.3030 C   0  0  0  0  0  0  0  0  0  0  0  0
    5.8520  -11.7710   -7.2450 C   0  0  0  0  0  0  0  0  0  0  0  0
    5.3940  -10.4700   -7.4430 C   0  0  0  0  0  0  0  0  0  0  0  0
    5.4630   -9.9040   -8.7030 C   0  0  0  0  0  0  0  0  0  0  0  0
    5.9970  -10.6380   -9.7640 C   0  0  0  0  0  0  0  0  0  0  0  0
    6.4730  -11.9600   -9.5990 C   0  0  0  0  0  0  0  0  0  0  0  0
    7.0250  -12.6820  -10.6390 N   0  0  0  0  0  0  0  0  0  0  0  0
    7.0600  -12.1090  -12.0230 C   0  0  0  0  0  0  0  0  0  0  0  0
    5.7830  -12.4780  -12.7770 C   0  0  0  0  0  0  0  0  0  0  0  0
    5.1210  -11.2780  -13.4590 C   0  0  0  0  0  0  0  0  0  0  0  0
    3.9440  -10.6420  -12.7110 C   0  0  0  0  0  0  0  0  0  0  0  0
    3.9050   -9.1150  -12.8320 C   0  0  0  0  0  0  0  0  0  0  0  0
    3.7660   -8.3910  -11.4840 C   0  0  0  0  0  0  0  0  0  0  0  0
    2.3840   -7.7560  -11.2780 C   0  0  0  0  0  0  0  0  0  0  0  0
    2.0730   -6.6170  -12.2600 C   0  0  0  0  0  0  0  0  0  0  0  0
    0.6650   -6.0380  -12.0980 C   0  0  0  0  0  0  0  0  0  0  0  0
    0.3960   -5.4400  -10.7110 C   0  0  0  0  0  0  0  0  0  0  0  0
    1.0360   -4.0920  -10.5530 N   0  0  0  0  0  0  0  0  0  0  0  0
    2.1190   -3.9540   -9.7260 C   0  0  0  0  0  0  0  0  0  0  0  0
    2.6360   -5.0880   -8.8780 C   0  0  0  0  0  0  0  0  0  0  0  0
    2.7640   -2.7190   -9.6190 C   0  0  0  0  0  0  0  0  0  0  0  0
    2.3460   -1.6160  -10.3460 C   0  0  0  0  0  0  0  0  0  0  0  0
    2.9880   -0.3950  -10.1080 N   0  0  0  0  0  0  0  0  0  0  0  0
    1.1610   -1.7280  -11.0950 C   0  0  0  0  0  0  0  0  0  0  0  0
    0.5860   -0.6120  -11.7470 C   0  0  0  0  0  0  0  0  0  0  0  0
   -0.5840   -0.7160  -12.4950 C   0  0  0  0  0  0  0  0  0  0  0  0
   -1.2180   -1.9400  -12.6050 C   0  0  0  0  0  0  0  0  0  0  0  0
   -0.6820   -3.0590  -11.9650 C   0  0  0  0  0  0  0  0  0  0  0  0
    0.5090   -2.9910  -11.2010 C   0  0  0  0  0  0  0  0  0  0  0  0
    8.8226  -15.5160  -11.0810 H   0  0  0  0  0  0  0  0  0  0  0  0
    7.4107  -15.1990  -12.1452 H   0  0  0  0  0  0  0  0  0  0  0  0
    8.8070  -14.0690  -12.1452 H   0  0  0  0  0  0  0  0  0  0  0  0
    7.8745  -15.5171   -8.9969 H   0  0  0  0  0  0  0  0  0  0  0  0
    6.9230  -13.8560   -6.0410 H   0  0  0  0  0  0  0  0  0  0  0  0
    7.5250  -15.2480   -6.7370 H   0  0  0  0  0  0  0  0  0  0  0  0
    5.7971  -12.2088   -6.2374 H   0  0  0  0  0  0  0  0  0  0  0  0
    4.9796   -9.8959   -6.6012 H   0  0  0  0  0  0  0  0  0  0  0  0
    5.0986   -8.8794   -8.8687 H   0  0  0  0  0  0  0  0  0  0  0  0
    6.0492  -10.1736  -10.7598 H   0  0  0  0  0  0  0  0  0  0  0  0
    7.1424  -11.0138  -11.9613 H   0  0  0  0  0  0  0  0  0  0  0  0
    7.9270  -12.5201  -12.5609 H   0  0  0  0  0  0  0  0  0  0  0  0
    6.0334  -13.2236  -13.5460 H   0  0  0  0  0  0  0  0  0  0  0  0
    5.0683  -12.8717  -12.0393 H   0  0  0  0  0  0  0  0  0  0  0  0
    5.8898  -10.5034  -13.5966 H   0  0  0  0  0  0  0  0  0  0  0  0
    4.6991  -11.6671  -14.3974 H   0  0  0  0  0  0  0  0  0  0  0  0
    3.0081  -11.0491  -13.1214 H   0  0  0  0  0  0  0  0  0  0  0  0
    4.0669  -10.8820  -11.6446 H   0  0  0  0  0  0  0  0  0  0  0  0
    4.8372   -8.7809  -13.3110 H   0  0  0  0  0  0  0  0  0  0  0  0
    3.0138   -8.8626  -13.4253 H   0  0  0  0  0  0  0  0  0  0  0  0
    3.9404   -9.1180  -10.6771 H   0  0  0  0  0  0  0  0  0  0  0  0
    4.5049   -7.5762  -11.4731 H   0  0  0  0  0  0  0  0  0  0  0  0
    1.6208   -8.5385  -11.4015 H   0  0  0  0  0  0  0  0  0  0  0  0
    2.3793   -7.3191  -10.2685 H   0  0  0  0  0  0  0  0  0  0  0  0
    2.8022   -5.8094  -12.0986 H   0  0  0  0  0  0  0  0  0  0  0  0
    2.1347   -7.0385  -13.2742 H   0  0  0  0  0  0  0  0  0  0  0  0
    0.5272   -5.2465  -12.8494 H   0  0  0  0  0  0  0  0  0  0  0  0
   -0.0407   -6.8715  -12.2293 H   0  0  0  0  0  0  0  0  0  0  0  0
   -0.6903   -5.3371  -10.5719 H   0  0  0  0  0  0  0  0  0  0  0  0
    0.8283   -6.1148   -9.9575 H   0  0  0  0  0  0  0  0  0  0  0  0
    2.5197   -4.8330   -7.8143 H   0  0  0  0  0  0  0  0  0  0  0  0
    2.0655   -6.0018   -9.1004 H   0  0  0  0  0  0  0  0  0  0  0  0
    3.7000   -5.2567   -9.1004 H   0  0  0  0  0  0  0  0  0  0  0  0
    3.6246   -2.6201   -8.9411 H   0  0  0  0  0  0  0  0  0  0  0  0
    2.7990    0.0550   -9.2170 H   0  0  0  0  0  0  0  0  0  0  0  0
    2.9640    0.2850  -10.8640 H   0  0  0  0  0  0  0  0  0  0  0  0
    1.0782    0.3679  -11.6605 H   0  0  0  0  0  0  0  0  0  0  0  0
   -1.0014    0.1702  -12.9954 H   0  0  0  0  0  0  0  0  0  0  0  0
   -2.1419   -2.0317  -13.1950 H   0  0  0  0  0  0  0  0  0  0  0  0
   -1.2011   -4.0244  -12.0569 H   0  0  0  0  0  0  0  0  0  0  0  0
  1  2  1  0
  2  3  2  0
  3  4  1  0
  4  5  1  0
  4  6  2  0
  6  7  1  0
  7  8  2  0
  8  9  1  0
  9 10  2  0
 10 11  1  0
 11 12  2  0
 12 13  1  0
 13 14  1  0
 14 15  1  0
 15 16  1  0
 16 17  1  0
 17 18  1  0
 18 19  1  0
 19 20  1  0
 20 21  1  0
 21 22  1  0
 22 23  1  0
 23 24  2  0
 24 25  1  0
 24 26  1  0
 26 27  2  0
 27 28  1  0
 27 29  1  0
 29 30  2  0
 30 31  1  0
 31 32  2  0
 32 33  1  0
 33 34  2  0
 12  2  1  0
 34 23  1  0
 11  6  1  0
 34 29  1  0
  1 35  1  0
  1 36  1  0
  1 37  1  0
  3 38  1  0
  5 39  1  0
  5 40  1  0
  7 41  1  0
  8 42  1  0
  9 43  1  0
 10 44  1  0
 13 45  1  0
 13 46  1  0
 14 47  1  0
 14 48  1  0
 15 49  1  0
 15 50  1  0
 16 51  1  0
 16 52  1  0
 17 53  1  0
 17 54  1  0
 18 55  1  0
 18 56  1  0
 19 57  1  0
 19 58  1  0
 20 59  1  0
 20 60  1  0
 21 61  1  0
 21 62  1  0
 22 63  1  0
 22 64  1  0
 25 65  1  0
 25 66  1  0
 25 67  1  0
 26 68  1  0
 28 69  1  0
 28 70  1  0
 30 71  1  0
 31 72  1  0
 32 73  1  0
 33 74  1  0
M  CHG  2  12   1  23   1
M  END
>  <meeko>  (8) 
{"is_sidechain": [false], "free_energy": -9.715, "intermolecular_energy": -17.156, "internal_energy": -1.412}

$$$$
3arp_ligand
     RDKit          3D

 74 77  0  0  0  0  0  0  0  0999 V2000
    8.1470  -14.8120  -11.5470 C   0  0  0  0  0  0  0  0  0  0  0  0
    7.5230  -13.9890  -10.4480 C   0  0  0  0  0  0  0  0  0  0  0  0
    7.4340  -14.5610   -9.1780 C   0  0  0  0  0  0  0  0  0  0  0  0
    6.8340  -13.8910   -8.1230 C   0  0  0  0  0  0  0  0  0  0  0  0
    6.8850  -14.4890   -6.8570 N   0  0  0  0  0  0  0  0  0  0  0  0
    6.4130  -12.5660   -8.3300 C   0  0  0  0  0  0  0  0  0  0  0  0
    5.9020  -11.7720   -7.2750 C   0  0  0  0  0  0  0  0  0  0  0  0
    5.4620  -10.4670   -7.4810 C   0  0  0  0  0  0  0  0  0  0  0  0
    5.5250   -9.9150   -8.7480 C   0  0  0  0  0  0  0  0  0  0  0  0
    6.0360  -10.6670   -9.8060 C   0  0  0  0  0  0  0  0  0  0  0  0
    6.4940  -11.9950   -9.6330 C   0  0  0  0  0  0  0  0  0  0  0  0
    7.0240  -12.7350  -10.6720 N   0  0  0  0  0  0  0  0  0  0  0  0
    7.0530  -12.1760  -12.0620 C   0  0  0  0  0  0  0  0  0  0  0  0
    5.6830  -12.3370  -12.7200 C   0  0  0  0  0  0  0  0  0  0  0  0
    5.2210  -11.0790  -13.4600 C   0  0  0  0  0  0  0  0  0  0  0  0
    3.9390  -10.4210  -12.9350 C   0  0  0  0  0  0  0  0  0  0  0  0
    4.2020   -9.1440  -12.1300 C   0  0  0  0  0  0  0  0  0  0  0  0
    3.1980   -8.0160  -12.4140 C   0  0  0  0  0  0  0  0  0  0  0  0
    2.8170   -7.9040  -13.8960 C   0  0  0  0  0  0  0  0  0  0  0  0
    1.4340   -7.2810  -14.1360 C   0  0  0  0  0  0  0  0  0  0  0  0
    1.4610   -5.7540  -14.2430 C   0  0  0  0  0  0  0  0  0  0  0  0
    0.4470   -5.0510  -13.3330 C   0  0  0  0  0  0  0  0  0  0  0  0
    1.0770   -3.9330  -12.5560 N   0  0  0  0  0  0  0  0  0  0  0  0
    1.1970   -2.6970  -13.1310 C   0  0  0  0  0  0  0  0  0  0  0  0
    0.8110   -2.4340  -14.5650 C   0  0  0  0  0  0  0  0  0  0  0  0
    1.7220   -1.6310  -12.3970 C   0  0  0  0  0  0  0  0  0  0  0  0
    2.1210   -1.7850  -11.0790 C   0  0  0  0  0  0  0  0  0  0  0  0
    2.7240   -0.6910  -10.4470 N   0  0  0  0  0  0  0  0  0  0  0  0
    2.1160   -3.0800  -10.5320 C   0  0  0  0  0  0  0  0  0  0  0  0
    2.6410   -3.3470   -9.2470 C   0  0  0  0  0  0  0  0  0  0  0  0
    2.6350   -4.6270   -8.6970 C   0  0  0  0  0  0  0  0  0  0  0  0
    2.1080   -5.6790   -9.4220 C   0  0  0  0  0  0  0  0  0  0  0  0
    1.5900   -5.4510  -10.6990 C   0  0  0  0  0  0  0  0  0  0  0  0
    1.5760   -4.1630  -11.2870 C   0  0  0  0  0  0  0  0  0  0  0  0
    8.7553  -15.6143  -11.1040 H   0  0  0  0  0  0  0  0  0  0  0  0
    7.3547  -15.2536  -12.1693 H   0  0  0  0  0  0  0  0  0  0  0  0
    8.7861  -14.1684  -12.1693 H   0  0  0  0  0  0  0  0  0  0  0  0
    7.8492  -15.5658   -9.0104 H   0  0  0  0  0  0  0  0  0  0  0  0
    7.5760  -14.1210   -6.2090 H   0  0  0  0  0  0  0  0  0  0  0  0
    6.8870  -15.5050   -6.8360 H   0  0  0  0  0  0  0  0  0  0  0  0
    5.8510  -12.1987   -6.2624 H   0  0  0  0  0  0  0  0  0  0  0  0
    5.0663   -9.8779   -6.6405 H   0  0  0  0  0  0  0  0  0  0  0  0
    5.1735   -8.8870   -8.9205 H   0  0  0  0  0  0  0  0  0  0  0  0
    6.0846  -10.2133  -10.8069 H   0  0  0  0  0  0  0  0  0  0  0  0
    7.3133  -11.1081  -12.0196 H   0  0  0  0  0  0  0  0  0  0  0  0
    7.8036  -12.7202  -12.6540 H   0  0  0  0  0  0  0  0  0  0  0  0
    5.7357  -13.1672  -13.4398 H   0  0  0  0  0  0  0  0  0  0  0  0
    4.9551  -12.5323  -11.9188 H   0  0  0  0  0  0  0  0  0  0  0  0
    6.0299  -10.3362  -13.3979 H   0  0  0  0  0  0  0  0  0  0  0  0
    4.9874  -11.4069  -14.4837 H   0  0  0  0  0  0  0  0  0  0  0  0
    3.2993  -10.1677  -13.7933 H   0  0  0  0  0  0  0  0  0  0  0  0
    3.4559  -11.1407  -12.2577 H   0  0  0  0  0  0  0  0  0  0  0  0
    4.1518   -9.3920  -11.0595 H   0  0  0  0  0  0  0  0  0  0  0  0
    5.1937   -8.7741  -12.4296 H   0  0  0  0  0  0  0  0  0  0  0  0
    2.2844   -8.2065  -11.8317 H   0  0  0  0  0  0  0  0  0  0  0  0
    3.6806   -7.0697  -12.1284 H   0  0  0  0  0  0  0  0  0  0  0  0
    3.5700   -7.2815  -14.4014 H   0  0  0  0  0  0  0  0  0  0  0  0
    2.7801   -8.9283  -14.2952 H   0  0  0  0  0  0  0  0  0  0  0  0
    1.0268   -7.6883  -15.0731 H   0  0  0  0  0  0  0  0  0  0  0  0
    0.8108   -7.5328  -13.2653 H   0  0  0  0  0  0  0  0  0  0  0  0
    2.4688   -5.4054  -13.9733 H   0  0  0  0  0  0  0  0  0  0  0  0
    1.1906   -5.5010  -15.2788 H   0  0  0  0  0  0  0  0  0  0  0  0
   -0.3636   -4.6409  -13.9532 H   0  0  0  0  0  0  0  0  0  0  0  0
    0.0609   -5.7905  -12.6160 H   0  0  0  0  0  0  0  0  0  0  0  0
   -0.0978   -1.8148  -14.5924 H   0  0  0  0  0  0  0  0  0  0  0  0
    1.6303   -1.9054  -15.0742 H   0  0  0  0  0  0  0  0  0  0  0  0
    0.6189   -3.3899  -15.0742 H   0  0  0  0  0  0  0  0  0  0  0  0
    1.8211   -0.6460  -12.8765 H   0  0  0  0  0  0  0  0  0  0  0  0
    3.1900   -0.8730   -9.5620 H   0  0  0  0  0  0  0  0  0  0  0  0
    2.1720    0.1620  -10.3890 H   0  0  0  0  0  0  0  0  0  0  0  0
    3.0676   -2.5182   -8.6630 H   0  0  0  0  0  0  0  0  0  0  0  0
    3.0472   -4.7993   -7.6918 H   0  0  0  0  0  0  0  0  0  0  0  0
    2.0965   -6.6926   -8.9948 H   0  0  0  0  0  0  0  0  0  0  0  0
    1.1797   -6.2995  -11.2662 H   0  0  0  0  0  0  0  0  0  0  0  0
  1  2  1  0
  2  3  2  0
  3  4  1  0
  4  5  1  0
  4  6  2  0
  6  7  1  0
  7  8  2  0
  8  9  1  0
  9 10  2  0
 10 11  1  0
 11 12  2  0
 12 13  1  0
 13 14  1  0
 14 15  1  0
 15 16  1  0
 16 17  1  0
 17 18  1  0
 18 19  1  0
 19 20  1  0
 20 21  1  0
 21 22  1  0
 22 23  1  0
 23 24  2  0
 24 25  1  0
 24 26  1  0
 26 27  2  0
 27 28  1  0
 27 29  1  0
 29 30  2  0
 30 31  1  0
 31 32  2  0
 32 33  1  0
 33 34  2  0
 12  2  1  0
 34 23  1  0
 11  6  1  0
 34 29  1  0
  1 35  1  0
  1 36  1  0
  1 37  1  0
  3 38  1  0
  5 39  1  0
  5 40  1  0
  7 41  1  0
  8 42  1  0
  9 43  1  0
 10 44  1  0
 13 45  1  0
 13 46  1  0
 14 47  1  0
 14 48  1  0
 15 49  1  0
 15 50  1  0
 16 51  1  0
 16 52  1  0
 17 53  1  0
 17 54  1  0
 18 55  1  0
 18 56  1  0
 19 57  1  0
 19 58  1  0
 20 59  1  0
 20 60  1  0
 21 61  1  0
 21 62  1  0
 22 63  1  0
 22 64  1  0
 25 65  1  0
 25 66  1  0
 25 67  1  0
 26 68  1  0
 28 69  1  0
 28 70  1  0
 30 71  1  0
 31 72  1  0
 32 73  1  0
 33 74  1  0
M  CHG  2  12   1  23   1
M  END
>  <meeko>  (9) 
{"is_sidechain": [false], "free_energy": -9.596, "intermolecular_energy": -17.087, "internal_energy": -1.277}

$$$$
